data_PCOD8253341
_publ_section_title
;
Structure prediction by ZEFSAII (Michael W. Deem and Ramdas Pophale) SiO2 
 PCOD8253341
Probable space group: P N M A
;
_chemical_formula_sum "Si O2"
_cell_formula_units_Z 64
_cell_length_a 15.246587
_cell_length_b 18.210099
_cell_length_c 11.648010
_cell_angle_alpha 90.000000
_cell_angle_beta 90.000000
_cell_angle_gamma 90.000000
_cell_volume 3233.975146
_symmetry_space_group_name_H-M "P N M A"
_symmetry_group_IT_number 62
_symmetry_cell_setting 'orthorhombic'
loop_
_space_group_symop_operation_xyz
x,y,z
1/2-x,-y,1/2+z
1/2+x,1/2-y,1/2-z
-x,1/2+y,-z
-x,-y,-z
1/2+x,y,1/2-z
1/2-x,1/2+y,1/2+z
x,1/2-y,z
loop_
_atom_site_type_symbol
_atom_site_label
_atom_site_fract_x
_atom_site_fract_y
_atom_site_fract_z
Si Si1 0.821733 0.904447 0.971131
Si Si2 0.160936 0.570787 0.390211
Si Si3 0.833637 0.911042 0.519374
Si Si4 0.813791 0.831038 0.741867
Si Si5 0.518737 0.836675 0.991929
Si Si6 0.513687 0.913849 0.514166
Si Si7 0.827424 0.066266 0.878287
Si Si8 0.979043 0.168581 0.237981
O O1 0.779319 0.863639 0.861555
O O2 0.918911 0.873974 0.006480
O O3 0.833323 0.989243 0.942445
O O4 0.754198 0.893296 0.075167
O O5 0.143288 0.496450 0.461088
O O6 0.083067 0.627308 0.415592
O O7 0.164376 0.554698 0.256157
O O8 0.785439 0.880627 0.634008
O O9 0.765371 0.897896 0.414625
O O10 0.921660 0.868276 0.487677
O O11 0.773342 0.750000 0.726021
O O12 0.917659 0.828451 0.745739
O O13 0.514312 0.750000 0.012653
O O14 0.556691 0.854585 0.863948
O O15 0.588193 0.886972 0.424231
O O16 0.547330 0.891660 0.642580
O O17 0.500000 0.000000 0.500000
O O18 0.944548 0.250000 0.202800
#
# Coordination Sequence:
#
# PCOD8253341 Si02
#       8
#     8   8   8   8   8   8   8   8
#     4   9  19  36  54  83 116 149 190 244 292 341
#     4  11  22  37  58  84 121 156 195 240 292 357
#     4  10  20  38  59  87 118 154 193 244 298 350
#     4   9  16  32  61  85 111 147 192 245 293 337
#     4  10  22  40  60  86 116 153 202 251 294 344
#     4   9  18  34  56  82 114 147 187 239 289 344
#     4  10  21  36  55  85 117 154 197 234 284 358
#     4   8  16  33  56  82 110 140 188 244 288 337
#
# _framework density 19.789885999999999
#
# number of rings (size 3 to 8) (size 9 to 14) (size 15 to 20)
#    0.000    2.500    1.250    1.500    1.750    2.500 
#    6.750    4.375    0.000    3.000    0.000    0.000 
#    0.000    0.000    0.000    0.000    0.000    0.000 
#
# Total GULP energy -793224.227511 kJ/mol
# GULP energy per Si atom -12394.128555 kJ/mol
# Density = 1.974484 g / cm^3
# Si number density = 19.789886 Si / 1000 Ang^3
#
#
#
# Elastic Constant Matrix: (Units=GPa)
#
#
# Indices 1 2 3 4 5 6 
#
# 1 113.6589 27.3787 45.3057 0.0000 0.0000 0.0000
# 2 27.3787 69.2899 13.7759 0.0000 0.0000 0.0000
# 3 45.3057 13.7759 69.6858 0.0000 0.0000 0.0000
# 4 0.0000 0.0000 0.0000 31.9899 0.0000 0.0000
# 5 0.0000 0.0000 0.0000 0.0000 32.7733 0.0000
# 6 0.0000 0.0000 0.0000 0.0000 0.0000 11.0170
#
#
#
# Elastic Compliance Matrix: (Units=1/GPa)
#
#
# Indices 1 2 3 4 5 6 
#
# 1 0.012641 -0.003499 -0.007527 0.000000 0.000000 0.000000
# 2 -0.003499 0.015991 -0.000887 0.000000 0.000000 0.000000
# 3 -0.007527 -0.000887 0.019419 0.000000 0.000000 0.000000
# 4 0.000000 0.000000 0.000000 0.031260 0.000000 0.000000
# 5 0.000000 0.000000 0.000000 0.000000 0.030513 0.000000
# 6 0.000000 0.000000 0.000000 0.000000 0.000000 0.090769
#
#
# Mechanical properties :
#
#
# Convention : Reuss Voigt Hill
#
# Bulk Modulus (GPa) = 41.27664 47.28391 44.28028
# Shear Modulus (GPa) = 21.50607 26.23434 23.87020
#
# Velocity S-wave (km/s) = 3.30012 3.64489 3.47678
# Velocity P-wave (km/s) = 5.95179 6.45434 6.20815
#
# Compressibility (1/GPa) = 0.02422678
#
# Stress axis : x y z
#
# Youngs Moduli (GPa) = 79.10535 62.53613 51.49578
#
# Poissons Ratio (x) = 0.21878 0.38761
# Poissons Ratio (y) = 0.27675 0.04566
# Poissons Ratio (z) = 0.59543 0.05545
#
# Static dielectric constant tensor:
#      x y z
#    x 3.865040 0.000000 0.000000 
#    y 0.000000 3.578710 0.000000 
#    z 0.000000 0.000000 3.625850 
# 
# 
# High freq. dielectric constant tensor:
#      x y z
#    x 1.772700 0.000000 0.000000 
#    y 0.000000 1.751980 0.000000 
#    z 0.000000 0.000000 1.757790 
# 
# From -- ./inp_files/13579.got.cif
#   From: 2010.03.12/outbox.cif.g09.slc.cpg/sg62_7_cif.got.tgz:13579.got - 2010.04.10 19:12:36.
