data_PCOD8253312
_publ_section_title
;
Structure prediction by ZEFSAII (Michael W. Deem and Ramdas Pophale) SiO2 
 PCOD8253312
Probable space group: P N M A
;
_chemical_formula_sum "Si O2"
_cell_formula_units_Z 64
_cell_length_a 14.762298
_cell_length_b 8.645319
_cell_length_c 24.850518
_cell_angle_alpha 90.000000
_cell_angle_beta 90.000000
_cell_angle_gamma 90.000000
_cell_volume 3171.541778
_symmetry_space_group_name_H-M "P N M A"
_symmetry_group_IT_number 62
_symmetry_cell_setting 'orthorhombic'
loop_
_space_group_symop_operation_xyz
x,y,z
1/2-x,-y,1/2+z
1/2+x,1/2-y,1/2-z
-x,1/2+y,-z
-x,-y,-z
1/2+x,y,1/2-z
1/2-x,1/2+y,1/2+z
x,1/2-y,z
loop_
_atom_site_type_symbol
_atom_site_label
_atom_site_fract_x
_atom_site_fract_y
_atom_site_fract_z
Si Si1 0.940547 0.574858 0.863600
Si Si2 0.134953 0.931754 0.239103
Si Si3 0.830795 0.434224 0.267644
Si Si4 0.089824 0.566769 0.026676
Si Si5 0.991146 0.933713 0.670644
Si Si6 0.052986 0.066983 0.449824
Si Si7 0.643462 0.924173 0.650790
Si Si8 0.744842 0.565554 0.551775
O O1 0.904864 0.750000 0.854914
O O2 0.930758 0.475933 0.809619
O O3 0.890850 0.495978 0.913595
O O4 0.046391 0.574352 0.877779
O O5 0.143095 0.750000 0.246149
O O6 0.231818 0.999446 0.220052
O O7 0.092771 0.000157 0.294202
O O8 0.827680 0.250000 0.270460
O O9 0.856819 0.503989 0.209053
O O10 0.910395 0.492183 0.308066
O O11 0.081171 0.750000 0.027823
O O12 0.177746 0.507409 0.994559
O O13 0.000000 0.500000 0.000000
O O14 0.982996 0.750000 0.675107
O O15 0.982995 0.990066 0.608574
O O16 0.047616 0.250000 0.452126
O O17 0.154676 0.005435 0.458799
O O18 0.000000 0.000000 0.500000
O O19 0.676255 0.750000 0.661447
O O20 0.712694 0.004852 0.609291
O O21 0.740523 0.750000 0.555174
#
# Coordination Sequence:
#
# PCOD8253312 Si02
#       8
#     8   8   8   8   8   8   8   8
#     4  11  21  38  61  85 117 159 203 251 302 358
#     4  12  25  39  58  91 130 162 195 245 309 373
#     4  10  20  37  63  90 118 157 204 250 298 363
#     4  11  21  35  56  86 122 161 202 246 303 368
#     4  10  21  41  68  92 116 158 212 258 302 360
#     4  10  22  41  65  89 117 154 201 254 301 352
#     4   9  16  32  60  87 111 148 199 246 296 354
#     4   9  18  34  58  86 117 158 201 242 298 361
#
# _framework density 20.179459000000001
#
# number of rings (size 3 to 8) (size 9 to 14) (size 15 to 20)
#    0.000    1.750    2.500    2.625    0.000    4.000 
#    0.000    3.750    0.000    0.000    0.000    0.000 
#    0.000    0.000    0.000    0.000    0.000    0.000 
#
# Total GULP energy -793323.942650 kJ/mol
# GULP energy per Si atom -12395.686604 kJ/mol
# Density = 2.013353 g / cm^3
# Si number density = 20.179459 Si / 1000 Ang^3
#
#
#
# Elastic Constant Matrix: (Units=GPa)
#
#
# Indices 1 2 3 4 5 6 
#
# 1 140.8088 27.9945 71.1516 0.0000 0.0000 0.0000
# 2 27.9945 46.2631 29.4584 0.0000 0.0000 0.0000
# 3 71.1516 29.4584 170.4643 0.0000 0.0000 0.0000
# 4 0.0000 0.0000 0.0000 29.0699 0.0000 0.0000
# 5 0.0000 0.0000 0.0000 0.0000 37.1133 0.0000
# 6 0.0000 0.0000 0.0000 0.0000 0.0000 21.1838
#
#
#
# Elastic Compliance Matrix: (Units=1/GPa)
#
#
# Indices 1 2 3 4 5 6 
#
# 1 0.009513 -0.003627 -0.003344 0.000000 0.000000 0.000000
# 2 -0.003627 0.025671 -0.002922 0.000000 0.000000 0.000000
# 3 -0.003344 -0.002922 0.007767 0.000000 0.000000 0.000000
# 4 0.000000 0.000000 0.000000 0.034400 0.000000 0.000000
# 5 0.000000 0.000000 0.000000 0.000000 0.026945 0.000000
# 6 0.000000 0.000000 0.000000 0.000000 0.000000 0.047206
#
#
# Mechanical properties :
#
#
# Convention : Reuss Voigt Hill
#
# Bulk Modulus (GPa) = 43.16968 68.30501 55.73734
# Shear Modulus (GPa) = 27.93159 32.73549 30.33354
#
# Velocity S-wave (km/s) = 3.72447 4.03205 3.88130
# Velocity P-wave (km/s) = 6.31940 7.45646 6.91135
#
# Compressibility (1/GPa) = 0.02316441
#
# Stress axis : x y z
#
# Youngs Moduli (GPa) = 105.12441 38.95427 128.74954
#
# Poissons Ratio (x) = 0.14129 0.43050
# Poissons Ratio (y) = 0.38129 0.37625
# Poissons Ratio (z) = 0.35151 0.11384
#
# Static dielectric constant tensor:
#      x y z
#    x 3.904840 0.000000 0.000000 
#    y 0.000000 3.338760 0.000000 
#    z 0.000000 0.000000 3.921840 
# 
# 
# High freq. dielectric constant tensor:
#      x y z
#    x 1.792720 0.000000 0.000000 
#    y 0.000000 1.752690 0.000000 
#    z 0.000000 0.000000 1.801230 
# 
# From -- ./inp_files/29859.got.cif
#   From: 2010.03.12/outbox.cif.g09.slc.cpg/sg62_15_cif.got.tgz:29859.got - 2010.04.10 19:12:36.
