data_PCOD8253573
_publ_section_title
;
Structure prediction by ZEFSAII (Michael W. Deem and Ramdas Pophale) SiO2 
 PCOD8253573
Probable space group: P N M A
;
_chemical_formula_sum "Si O2"
_cell_formula_units_Z 64
_cell_length_a 11.844574
_cell_length_b 27.156528
_cell_length_c 9.916516
_cell_angle_alpha 90.000000
_cell_angle_beta 90.000000
_cell_angle_gamma 90.000000
_cell_volume 3189.721800
_symmetry_space_group_name_H-M "P N M A"
_symmetry_group_IT_number 62
_symmetry_cell_setting 'orthorhombic'
loop_
_space_group_symop_operation_xyz
x,y,z
1/2-x,-y,1/2+z
1/2+x,1/2-y,1/2-z
-x,1/2+y,-z
-x,-y,-z
1/2+x,y,1/2-z
1/2-x,1/2+y,1/2+z
x,1/2-y,z
loop_
_atom_site_type_symbol
_atom_site_label
_atom_site_fract_x
_atom_site_fract_y
_atom_site_fract_z
Si Si1 0.851413 0.013581 0.704378
Si Si2 0.784858 0.041133 0.406595
Si Si3 0.101812 0.381366 0.074649
Si Si4 0.569838 0.884633 0.336659
Si Si5 0.990201 0.916539 0.664229
Si Si6 0.774721 0.194686 0.530077
Si Si7 0.521185 0.153339 0.931356
Si Si8 0.744900 0.304962 0.841806
O O1 0.826212 0.018993 0.546888
O O2 0.893186 0.063007 0.776288
O O3 0.740664 0.999260 0.791031
O O4 0.943639 0.970335 0.702544
O O5 0.670696 0.068777 0.440381
O O6 0.875089 0.078842 0.344507
O O7 0.044179 0.377231 0.221453
O O8 0.185803 0.335515 0.058948
O O9 0.003336 0.388927 0.968810
O O10 0.493213 0.860399 0.223547
O O11 0.672248 0.849229 0.382707
O O12 0.946426 0.894242 0.522048
O O13 0.770350 0.250000 0.475807
O O14 0.904445 0.176796 0.513940
O O15 0.728878 0.190416 0.681583
O O16 0.627879 0.190191 0.925490
O O17 0.793651 0.250000 0.874628
#
# Coordination Sequence:
#
# PCOD8253573 Si02
#       8
#     8   8   8   8   8   8   8   8
#     4  11  26  38  63  94 126 173 220 266 318 390
#     4  11  24  42  61  89 129 169 213 263 322 382
#     4  11  24  42  63  93 126 170 206 261 330 388
#     4  11  24  39  66  95 132 166 217 270 320 391
#     4  11  25  40  62  88 134 169 215 264 317 387
#     4  10  20  40  66  94 127 164 210 267 326 388
#     4  11  21  41  67  93 125 172 211 266 323 383
#     4  10  22  39  67 102 127 161 217 276 326 379
#
# _framework density 20.064444999999999
#
# number of rings (size 3 to 8) (size 9 to 14) (size 15 to 20)
#    0.000    1.250    3.750    1.500    5.250    3.000 
#    0.000    1.250    0.000    0.000    0.000    0.000 
#    0.000    0.000    0.000    0.000    0.000    0.000 
#
# Total GULP energy -793198.954793 kJ/mol
# GULP energy per Si atom -12393.733669 kJ/mol
# Density = 2.001878 g / cm^3
# Si number density = 20.064445 Si / 1000 Ang^3
#
#
#
# Elastic Constant Matrix: (Units=GPa)
#
#
# Indices 1 2 3 4 5 6 
#
# 1 109.3674 51.4460 68.5787 0.0000 0.0000 0.0000
# 2 51.4460 103.9008 28.6875 0.0000 0.0000 0.0000
# 3 68.5787 28.6875 72.3331 0.0000 0.0000 0.0000
# 4 0.0000 0.0000 0.0000 25.3909 0.0000 0.0000
# 5 0.0000 0.0000 0.0000 0.0000 27.4228 0.0000
# 6 0.0000 0.0000 0.0000 0.0000 0.0000 30.7053
#
#
#
# Elastic Compliance Matrix: (Units=1/GPa)
#
#
# Indices 1 2 3 4 5 6 
#
# 1 0.026320 -0.006898 -0.022218 0.000000 0.000000 0.000000
# 2 -0.006898 0.012616 0.001536 0.000000 0.000000 0.000000
# 3 -0.022218 0.001536 0.034281 0.000000 0.000000 0.000000
# 4 0.000000 0.000000 0.000000 0.039384 0.000000 0.000000
# 5 0.000000 0.000000 0.000000 0.000000 0.036466 0.000000
# 6 0.000000 0.000000 0.000000 0.000000 0.000000 0.032568
#
#
# Mechanical properties :
#
#
# Convention : Reuss Voigt Hill
#
# Bulk Modulus (GPa) = 55.38008 64.78062 60.08035
# Shear Modulus (GPa) = 20.59196 25.82973 23.21085
#
# Velocity S-wave (km/s) = 3.20705 3.59184 3.40489
# Velocity P-wave (km/s) = 6.43231 7.03975 6.74288
#
# Compressibility (1/GPa) = 0.01805704
#
# Stress axis : x y z
#
# Youngs Moduli (GPa) = 37.99377 79.26587 29.17091
#
# Poissons Ratio (x) = 0.54675 0.64813
# Poissons Ratio (y) = 0.26207 -0.04481
# Poissons Ratio (z) = 0.84416 -0.12177
#
# Static dielectric constant tensor:
#      x y z
#    x 3.720990 0.000000 0.000000 
#    y 0.000000 3.747900 0.000000 
#    z 0.000000 0.000000 3.755960 
# 
# 
# High freq. dielectric constant tensor:
#      x y z
#    x 1.789150 0.000000 0.000000 
#    y 0.000000 1.784550 0.000000 
#    z 0.000000 0.000000 1.776510 
# 
# From -- ./inp_files/5520.got.cif
#   From: 2010.03.12/outbox.cif.g09.slc.cpg/sg62_3_cif.got.tgz:5520.got - 2010.04.10 19:12:36.
