data_PCOD8253207
_publ_section_title
;
Structure prediction by ZEFSAII (Michael W. Deem and Ramdas Pophale) SiO2 
 PCOD8253207
Probable space group: P N M A
;
_chemical_formula_sum "Si O2"
_cell_formula_units_Z 64
_cell_length_a 29.175147
_cell_length_b 8.523361
_cell_length_c 12.728958
_cell_angle_alpha 90.000000
_cell_angle_beta 90.000000
_cell_angle_gamma 90.000000
_cell_volume 3165.313933
_symmetry_space_group_name_H-M "P N M A"
_symmetry_group_IT_number 62
_symmetry_cell_setting 'orthorhombic'
loop_
_space_group_symop_operation_xyz
x,y,z
1/2-x,-y,1/2+z
1/2+x,1/2-y,1/2-z
-x,1/2+y,-z
-x,-y,-z
1/2+x,y,1/2-z
1/2-x,1/2+y,1/2+z
x,1/2-y,z
loop_
_atom_site_type_symbol
_atom_site_label
_atom_site_fract_x
_atom_site_fract_y
_atom_site_fract_z
Si Si1 0.617156 0.934306 0.114826
Si Si2 0.790408 0.929553 0.548196
Si Si3 0.895777 0.564513 0.037567
Si Si4 0.419724 0.072863 0.106594
Si Si5 0.932389 0.933882 0.815252
Si Si6 0.469448 0.566645 0.291844
Si Si7 0.699944 0.432384 0.626678
Si Si8 0.681918 0.574441 0.841024
O O1 0.625929 0.750000 0.102792
O O2 0.666808 0.016572 0.119963
O O3 0.589562 0.971923 0.219231
O O4 0.588301 0.991554 0.012236
O O5 0.778776 0.750000 0.573943
O O6 0.746157 0.037922 0.563491
O O7 0.802911 0.948419 0.426766
O O8 0.898079 0.750000 0.035153
O O9 0.930394 0.505237 0.128082
O O10 0.844205 0.506199 0.061668
O O11 0.910254 0.500638 0.923092
O O12 0.439101 0.250000 0.102652
O O13 0.372625 0.066401 0.171626
O O14 0.455265 0.964921 0.170549
O O15 0.923141 0.750000 0.799634
O O16 0.986139 0.966430 0.819924
O O17 0.479965 0.750000 0.305222
O O18 0.693786 0.250000 0.653106
O O19 0.705498 0.530045 0.732735
O O20 0.697140 0.750000 0.874489
#
# Coordination Sequence:
#
# PCOD8253207 Si02
#       8
#     8   8   8   8   8   8   8   8
#     4  10  22  42  62  86 120 158 202 254 307 362
#     4  11  23  39  60  89 121 159 201 245 304 370
#     4   9  21  39  60  87 120 156 200 252 301 355
#     4   9  19  36  60  86 115 150 194 248 301 355
#     4  11  23  40  60  86 123 165 203 246 306 368
#     4  11  21  37  61  90 119 155 202 251 304 362
#     4  11  21  38  62  89 119 156 201 253 305 360
#     4  10  20  37  59  86 118 153 195 248 302 358
#
# _framework density 20.219163000000002
#
# number of rings (size 3 to 8) (size 9 to 14) (size 15 to 20)
#    0.000    1.750    1.250    4.125    0.000    4.000 
#    0.000    8.125    0.000    0.000    0.000    0.000 
#    0.000    0.000    0.000    0.000    0.000    0.000 
#
# Total GULP energy -793727.523281 kJ/mol
# GULP energy per Si atom -12401.992551 kJ/mol
# Density = 2.017314 g / cm^3
# Si number density = 20.219163 Si / 1000 Ang^3
#
#
#
# Elastic Constant Matrix: (Units=GPa)
#
#
# Indices 1 2 3 4 5 6 
#
# 1 86.2116 11.4267 43.9947 0.0000 0.0000 0.0000
# 2 11.4267 55.7463 18.9460 0.0000 0.0000 0.0000
# 3 43.9947 18.9460 115.3408 0.0000 0.0000 0.0000
# 4 0.0000 0.0000 0.0000 28.9869 0.0000 0.0000
# 5 0.0000 0.0000 0.0000 0.0000 26.6569 0.0000
# 6 0.0000 0.0000 0.0000 0.0000 0.0000 29.5215
#
#
#
# Elastic Compliance Matrix: (Units=1/GPa)
#
#
# Indices 1 2 3 4 5 6 
#
# 1 0.014473 -0.001155 -0.005331 0.000000 0.000000 0.000000
# 2 -0.001155 0.019091 -0.002695 0.000000 0.000000 0.000000
# 3 -0.005331 -0.002695 0.011146 0.000000 0.000000 0.000000
# 4 0.000000 0.000000 0.000000 0.034498 0.000000 0.000000
# 5 0.000000 0.000000 0.000000 0.000000 0.037514 0.000000
# 6 0.000000 0.000000 0.000000 0.000000 0.000000 0.033874
#
#
# Mechanical properties :
#
#
# Convention : Reuss Voigt Hill
#
# Bulk Modulus (GPa) = 37.95360 45.11485 41.53422
# Shear Modulus (GPa) = 28.13097 29.22851 28.67974
#
# Velocity S-wave (km/s) = 3.73406 3.80621 3.77031
# Velocity P-wave (km/s) = 6.11578 6.45582 6.28810
#
# Compressibility (1/GPa) = 0.02634796
#
# Stress axis : x y z
#
# Youngs Moduli (GPa) = 69.09551 52.38015 89.71839
#
# Poissons Ratio (x) = 0.06049 0.47826
# Poissons Ratio (y) = 0.07980 0.24183
# Poissons Ratio (z) = 0.36832 0.14119
#
# Static dielectric constant tensor:
#      x y z
#    x 3.626760 0.000000 0.000000 
#    y 0.000000 3.458330 0.000000 
#    z 0.000000 0.000000 3.680250 
# 
# 
# High freq. dielectric constant tensor:
#      x y z
#    x 1.786890 0.000000 0.000000 
#    y 0.000000 1.782110 0.000000 
#    z 0.000000 0.000000 1.793050 
# 
# From -- ./inp_files/15795.got.cif
#   From: 2010.03.12/outbox.cif.g09.slc.cpg/sg62_8_cif.got.tgz:15795.got - 2010.04.10 19:12:36.
