data_PCOD8253942
_publ_section_title
;
Structure prediction by ZEFSAII (Michael W. Deem and Ramdas Pophale) SiO2 
 PCOD8253942
Probable space group: P N M A
;
_chemical_formula_sum "Si O2"
_cell_formula_units_Z 64
_cell_length_a 18.696842
_cell_length_b 26.748682
_cell_length_c 6.585879
_cell_angle_alpha 90.000000
_cell_angle_beta 90.000000
_cell_angle_gamma 90.000000
_cell_volume 3293.702679
_symmetry_space_group_name_H-M "P N M A"
_symmetry_group_IT_number 62
_symmetry_cell_setting 'orthorhombic'
loop_
_space_group_symop_operation_xyz
x,y,z
1/2-x,-y,1/2+z
1/2+x,1/2-y,1/2-z
-x,1/2+y,-z
-x,-y,-z
1/2+x,y,1/2-z
1/2-x,1/2+y,1/2+z
x,1/2-y,z
loop_
_atom_site_type_symbol
_atom_site_label
_atom_site_fract_x
_atom_site_fract_y
_atom_site_fract_z
Si Si1 0.938406 0.694714 0.748004
Si Si2 0.332815 0.377548 0.054324
Si Si3 0.870050 0.560115 0.058578
Si Si4 0.742577 0.585189 0.330503
Si Si5 0.551551 0.693686 0.078184
Si Si6 0.503641 0.875438 0.433128
Si Si7 0.379196 0.051093 0.397623
Si Si8 0.808917 0.874418 0.717029
O O1 0.932473 0.750000 0.844239
O O2 0.859464 0.673240 0.728974
O O3 0.974936 0.697104 0.528842
O O4 0.989518 0.661011 0.882091
O O5 0.363909 0.427368 0.169628
O O6 0.262894 0.358492 0.169275
O O7 0.312199 0.386298 0.818796
O O8 0.389057 0.332133 0.065699
O O9 0.799051 0.555491 0.194757
O O10 0.906013 0.505874 0.085150
O O11 0.846319 0.577271 0.829388
O O12 0.929176 0.599337 0.141655
O O13 0.694612 0.550529 0.474636
O O14 0.791072 0.618745 0.479879
O O15 0.576400 0.750000 0.139294
O O16 0.542218 0.657273 0.265972
O O17 0.558249 0.917757 0.500513
#
# Coordination Sequence:
#
# PCOD8253942 Si02
#       8
#     8   8   8   8   8   8   8   8
#     4  10  21  39  63  86 113 151 194 245 299 352
#     4  10  21  39  57  87 120 156 194 246 289 348
#     4  10  23  36  60  89 118 159 198 238 291 356
#     4  10  21  38  59  84 122 154 197 239 292 348
#     4  11  22  38  61  86 113 155 199 243 298 352
#     4  11  21  41  58  87 122 154 198 246 292 346
#     4  11  22  36  61  84 123 159 197 241 296 347
#     4   9  21  39  59  86 118 152 194 245 294 346
#
# _framework density 19.431018000000002
#
# number of rings (size 3 to 8) (size 9 to 14) (size 15 to 20)
#    0.000    1.750    2.500    1.500    5.250    0.500 
#    0.000    1.250    0.000    0.000    0.000    0.000 
#    0.000    0.000    0.000    0.000    0.000    0.000 
#
# Total GULP energy -793167.169011 kJ/mol
# GULP energy per Si atom -12393.237016 kJ/mol
# Density = 1.938679 g / cm^3
# Si number density = 19.431018 Si / 1000 Ang^3
#
#
#
# Elastic Constant Matrix: (Units=GPa)
#
#
# Indices 1 2 3 4 5 6 
#
# 1 82.7666 43.6038 27.0230 0.0000 0.0000 0.0000
# 2 43.6038 128.5557 40.4489 0.0000 0.0000 0.0000
# 3 27.0230 40.4489 85.6757 0.0000 0.0000 0.0000
# 4 0.0000 0.0000 0.0000 -52.8607 0.0000 0.0000
# 5 0.0000 0.0000 0.0000 0.0000 32.7451 0.0000
# 6 0.0000 0.0000 0.0000 0.0000 0.0000 51.8893
#
#
#
# Elastic Compliance Matrix: (Units=1/GPa)
#
#
# Indices 1 2 3 4 5 6 
#
# 1 0.015255 -0.004299 -0.002782 0.000000 0.000000 0.000000
# 2 -0.004299 0.010347 -0.003529 0.000000 0.000000 0.000000
# 3 -0.002782 -0.003529 0.014216 0.000000 0.000000 0.000000
# 4 0.000000 0.000000 0.000000 -0.018918 0.000000 0.000000
# 5 0.000000 0.000000 0.000000 0.000000 0.030539 0.000000
# 6 0.000000 0.000000 0.000000 0.000000 0.000000 0.019272
#
#
# Mechanical properties :
#
#
# Convention : Reuss Voigt Hill
#
# Bulk Modulus (GPa) = 53.76994 57.68328 55.72661
# Shear Modulus (GPa) = 50.95226 18.74955 34.85090
#
# Velocity S-wave (km/s) = 5.12631 3.10970 4.23965
# Velocity P-wave (km/s) = 7.92282 6.53026 7.26000
#
# Compressibility (1/GPa) = 0.01859775
#
# Stress axis : x y z
#
# Youngs Moduli (GPa) = 65.55083 96.64358 70.34520
#
# Poissons Ratio (x) = 0.41547 0.19571
# Poissons Ratio (y) = 0.28180 0.24826
# Poissons Ratio (z) = 0.18237 0.34107
#
# Static dielectric constant tensor:
#      x y z
#    x 3.664780 0.000000 0.000000 
#    y 0.000000 3.445670 0.000000 
#    z 0.000000 0.000000 3.633830 
# 
# 
# High freq. dielectric constant tensor:
#      x y z
#    x 1.773270 0.000000 0.000000 
#    y 0.000000 1.742670 0.000000 
#    z 0.000000 0.000000 1.752580 
# 
# From -- ./inp_files/2413.got.cif
#   From: 2010.03.12/outbox.cif.g09.slc.cpg/sg62_2_cif.got.tgz:2413.got - 2010.04.10 19:12:36.
