data_PCOD8253135
_publ_section_title
;
Structure prediction by ZEFSAII (Michael W. Deem and Ramdas Pophale) SiO2 
 PCOD8253135
Probable space group: P N M A
;
_chemical_formula_sum "Si O2"
_cell_formula_units_Z 56
_cell_length_a 12.006487
_cell_length_b 14.275675
_cell_length_c 13.047250
_cell_angle_alpha 90.000000
_cell_angle_beta 90.000000
_cell_angle_gamma 90.000000
_cell_volume 2236.307865
_symmetry_space_group_name_H-M "P N M A"
_symmetry_group_IT_number 62
_symmetry_cell_setting 'orthorhombic'
loop_
_space_group_symop_operation_xyz
x,y,z
1/2-x,-y,1/2+z
1/2+x,1/2-y,1/2-z
-x,1/2+y,-z
-x,-y,-z
1/2+x,y,1/2-z
1/2-x,1/2+y,1/2+z
x,1/2-y,z
loop_
_atom_site_type_symbol
_atom_site_label
_atom_site_fract_x
_atom_site_fract_y
_atom_site_fract_z
Si Si1 0.954012 0.143231 0.456126
Si Si2 0.211600 0.647058 0.033962
Si Si3 0.496622 0.959978 0.751905
Si Si4 0.310749 0.406559 0.754684
Si Si5 0.963241 0.649223 0.324744
Si Si6 0.733975 0.049983 0.536688
Si Si7 0.479848 0.644233 0.551856
O O1 0.928511 0.250000 0.430750
O O2 0.008882 0.097603 0.356665
O O3 0.041189 0.133233 0.551236
O O4 0.836742 0.095134 0.478393
O O5 0.253063 0.750000 0.995017
O O6 0.252679 0.632850 0.152867
O O7 0.254595 0.562336 0.964663
O O8 0.076295 0.645057 0.034203
O O9 0.535544 0.896785 0.656431
O O10 0.369464 0.993497 0.729262
O O11 0.577289 0.052791 0.767787
O O12 0.406362 0.336489 0.795106
O O13 0.222384 0.416915 0.846195
O O14 0.905738 0.750000 0.294668
O O15 0.618438 0.076796 0.483384
O O16 0.435981 0.750000 0.570903
#
# Coordination Sequence:
#
# PCOD8253135 Si02
#       7
#     8   8   8   8   8   8   8
#     4  10  20  36  62  92 132 172 213 265 324 383
#     4  11  24  45  67  93 131 174 215 271 336 395
#     4  10  20  38  62  94 130 176 210 262 324 400
#     4   9  21  37  67  90 127 165 217 266 330 381
#     4   8  16  31  56  88 121 166 210 256 315 377
#     4  11  22  41  68  98 127 168 216 279 324 387
#     4  11  24  42  65  94 128 173 225 266 326 398
#
# _framework density 25.041276
#
# number of rings (size 3 to 8) (size 9 to 14) (size 15 to 20)
#    0.857    1.143    1.429    2.143    0.000    2.857 
#    0.000    2.143    0.000    0.000    0.000    0.000 
#    0.000    0.000    0.000    0.000    0.000    0.000 
#
# Total GULP energy -693919.035626 kJ/mol
# GULP energy per Si atom -12391.411350 kJ/mol
# Density = 2.498428 g / cm^3
# Si number density = 25.041276 Si / 1000 Ang^3
#
#
#
# Elastic Constant Matrix: (Units=GPa)
#
#
# Indices 1 2 3 4 5 6 
#
# 1 13.5256 20.6974 5.5860 0.0000 0.0000 0.0000
# 2 20.6974 194.7230 40.6227 0.0000 0.0000 0.0000
# 3 5.5860 40.6227 121.3854 0.0000 0.0000 0.0000
# 4 0.0000 0.0000 0.0000 26.4086 0.0000 0.0000
# 5 0.0000 0.0000 0.0000 0.0000 33.2792 0.0000
# 6 0.0000 0.0000 0.0000 0.0000 0.0000 30.9444
#
#
#
# Elastic Compliance Matrix: (Units=1/GPa)
#
#
# Indices 1 2 3 4 5 6 
#
# 1 0.088407 -0.009190 -0.000993 0.000000 0.000000 0.000000
# 2 -0.009190 0.006476 -0.001744 0.000000 0.000000 0.000000
# 3 -0.000993 -0.001744 0.008868 0.000000 0.000000 0.000000
# 4 0.000000 0.000000 0.000000 0.037866 0.000000 0.000000
# 5 0.000000 0.000000 0.000000 0.000000 0.030049 0.000000
# 6 0.000000 0.000000 0.000000 0.000000 0.000000 0.032316
#
#
# Mechanical properties :
#
#
# Convention : Reuss Voigt Hill
#
# Bulk Modulus (GPa) = 12.51623 51.49403 32.00513
# Shear Modulus (GPa) = 19.64883 35.64163 27.64523
#
# Velocity S-wave (km/s) = 2.80421 3.77678 3.32623
# Velocity P-wave (km/s) = 3.93623 6.29500 5.24981
#
# Compressibility (1/GPa) = 0.07989629
#
# Stress axis : x y z
#
# Youngs Moduli (GPa) = 11.31137 154.41141 112.76875
#
# Poissons Ratio (x) = 1.41900 0.11198
# Poissons Ratio (y) = 0.10395 0.19672
# Poissons Ratio (z) = 0.01123 0.26936
#
# Static dielectric constant tensor:
#      x y z
#    x 4.220390 0.000000 0.000000 
#    y 0.000000 4.655370 0.000000 
#    z 0.000000 0.000000 4.396910 
# 
# 
# High freq. dielectric constant tensor:
#      x y z
#    x 1.993990 0.000000 0.000000 
#    y 0.000000 2.010550 0.000000 
#    z 0.000000 0.000000 1.989680 
# 
# From -- ./inp_files/13393.got.cif
#   From: 2010.03.12/outbox.cif.g09.slc.cpg/sg62_7_cif.got.tgz:13393.got - 2010.04.10 19:12:36.
