data_PCOD8253393
_publ_section_title
;
Structure prediction by ZEFSAII (Michael W. Deem and Ramdas Pophale) SiO2 
 PCOD8253393
Probable space group: P N M A
;
_chemical_formula_sum "Si O2"
_cell_formula_units_Z 64
_cell_length_a 31.349563
_cell_length_b 10.583876
_cell_length_c 9.890598
_cell_angle_alpha 90.000000
_cell_angle_beta 90.000000
_cell_angle_gamma 90.000000
_cell_volume 3281.699303
_symmetry_space_group_name_H-M "P N M A"
_symmetry_group_IT_number 62
_symmetry_cell_setting 'orthorhombic'
loop_
_space_group_symop_operation_xyz
x,y,z
1/2-x,-y,1/2+z
1/2+x,1/2-y,1/2-z
-x,1/2+y,-z
-x,-y,-z
1/2+x,y,1/2-z
1/2-x,1/2+y,1/2+z
x,1/2-y,z
loop_
_atom_site_type_symbol
_atom_site_label
_atom_site_fract_x
_atom_site_fract_y
_atom_site_fract_z
Si Si1 0.804112 0.603409 0.210542
Si Si2 0.530458 0.608557 0.550174
Si Si3 0.067309 0.494935 0.408712
Si Si4 0.269257 0.895002 0.797932
Si Si5 0.017631 0.611873 0.648958
Si Si6 0.341954 0.895986 0.002994
Si Si7 0.836495 0.609697 0.918563
Si Si8 0.896857 0.388636 0.840423
O O1 0.787020 0.750000 0.218817
O O2 0.767498 0.499009 0.201373
O O3 0.832866 0.570764 0.340772
O O4 0.833332 0.586032 0.078408
O O5 0.500000 0.500000 0.500000
O O6 0.510719 0.750000 0.528411
O O7 0.539330 0.583777 0.707248
O O8 0.574834 0.597794 0.473267
O O9 0.040691 0.524889 0.541814
O O10 0.113090 0.448856 0.455915
O O11 0.075182 0.603942 0.297151
O O12 0.034128 0.398928 0.336892
O O13 0.253239 0.750000 0.830130
O O14 0.289727 0.895882 0.648484
O O15 0.303215 0.944288 0.909327
O O16 0.028893 0.750000 0.598352
O O17 0.345548 0.750000 0.977435
O O18 0.856290 0.750000 0.891495
O O19 0.863817 0.503395 0.843492
O O20 0.874453 0.250000 0.841128
#
# Coordination Sequence:
#
# PCOD8253393 Si02
#       8
#     8   8   8   8   8   8   8   8
#     4  10  22  39  59  88 122 153 194 244 293 349
#     4  10  21  39  59  85 116 151 192 238 292 347
#     4  11  21  38  61  84 119 155 203 242 300 351
#     4  10  20  38  62  87 116 154 198 241 291 354
#     4  10  22  38  59  85 118 157 197 247 301 355
#     4  10  21  38  60  87 118 156 199 244 289 353
#     4  10  22  39  60  85 117 154 195 237 287 353
#     4  11  23  38  59  86 117 148 194 248 292 343
#
# _framework density 19.502092000000001
#
# number of rings (size 3 to 8) (size 9 to 14) (size 15 to 20)
#    0.000    1.750    2.500    1.500    1.750    2.000 
#    0.000    1.875    0.000    0.000    0.000    0.000 
#    0.000    0.000    0.000    0.000    0.000    0.000 
#
# Total GULP energy -792976.411331 kJ/mol
# GULP energy per Si atom -12390.256427 kJ/mol
# Density = 1.945770 g / cm^3
# Si number density = 19.502092 Si / 1000 Ang^3
#
#
#
# Elastic Constant Matrix: (Units=GPa)
#
#
# Indices 1 2 3 4 5 6 
#
# 1 82.5769 50.5292 33.6016 0.0000 0.0000 0.0000
# 2 50.5292 67.1839 26.1447 0.0000 0.0000 0.0000
# 3 33.6016 26.1447 107.6546 0.0000 0.0000 0.0000
# 4 0.0000 0.0000 0.0000 39.7785 0.0000 0.0000
# 5 0.0000 0.0000 0.0000 0.0000 23.8321 0.0000
# 6 0.0000 0.0000 0.0000 0.0000 0.0000 25.8289
#
#
#
# Elastic Compliance Matrix: (Units=1/GPa)
#
#
# Indices 1 2 3 4 5 6 
#
# 1 0.023485 -0.016356 -0.003358 0.000000 0.000000 0.000000
# 2 -0.016356 0.027830 -0.001653 0.000000 0.000000 0.000000
# 3 -0.003358 -0.001653 0.010739 0.000000 0.000000 0.000000
# 4 0.000000 0.000000 0.000000 0.025139 0.000000 0.000000
# 5 0.000000 0.000000 0.000000 0.000000 0.041960 0.000000
# 6 0.000000 0.000000 0.000000 0.000000 0.000000 0.038716
#
#
# Mechanical properties :
#
#
# Convention : Reuss Voigt Hill
#
# Bulk Modulus (GPa) = 51.76596 53.10740 52.43668
# Shear Modulus (GPa) = 23.03690 27.69723 25.36707
#
# Velocity S-wave (km/s) = 3.44066 3.77267 3.61048
# Velocity P-wave (km/s) = 6.51043 6.80207 6.65784
#
# Compressibility (1/GPa) = 0.01931771
#
# Stress axis : x y z
#
# Youngs Moduli (GPa) = 42.58073 35.93304 93.12196
#
# Poissons Ratio (x) = 0.58773 0.31270
# Poissons Ratio (y) = 0.69646 0.15397
# Poissons Ratio (z) = 0.14298 0.05941
#
# Static dielectric constant tensor:
#      x y z
#    x 3.509790 0.000000 0.000000 
#    y 0.000000 3.681300 0.000000 
#    z 0.000000 0.000000 3.820960 
# 
# 
# High freq. dielectric constant tensor:
#      x y z
#    x 1.736830 0.000000 0.000000 
#    y 0.000000 1.760600 0.000000 
#    z 0.000000 0.000000 1.784280 
# 
# From -- ./inp_files/10454.got.cif
#   From: 2010.03.12/outbox.cif.g09.slc.cpg/sg62_6_cif.got.tgz:10454.got - 2010.04.10 19:12:36.
