data_PCOD8253690
_publ_section_title
;
Structure prediction by ZEFSAII (Michael W. Deem and Ramdas Pophale) SiO2 
 PCOD8253690
Probable space group: P N M A
;
_chemical_formula_sum "Si O2"
_cell_formula_units_Z 56
_cell_length_a 24.118726
_cell_length_b 8.908460
_cell_length_c 13.427412
_cell_angle_alpha 90.000000
_cell_angle_beta 90.000000
_cell_angle_gamma 90.000000
_cell_volume 2885.023220
_symmetry_space_group_name_H-M "P N M A"
_symmetry_group_IT_number 62
_symmetry_cell_setting 'orthorhombic'
loop_
_space_group_symop_operation_xyz
x,y,z
1/2-x,-y,1/2+z
1/2+x,1/2-y,1/2-z
-x,1/2+y,-z
-x,-y,-z
1/2+x,y,1/2-z
1/2-x,1/2+y,1/2+z
x,1/2-y,z
loop_
_atom_site_type_symbol
_atom_site_label
_atom_site_fract_x
_atom_site_fract_y
_atom_site_fract_z
Si Si1 0.441119 0.075490 0.011381
Si Si2 0.549997 0.075222 0.621936
Si Si3 0.119917 0.576989 0.715643
Si Si4 0.782816 0.922622 0.386819
Si Si5 0.159838 0.074135 0.411064
Si Si6 0.831810 0.424792 0.792573
Si Si7 0.436372 0.924880 0.607241
O O1 0.444811 0.250000 0.984478
O O2 0.420961 0.048743 0.123553
O O3 0.500000 0.000000 0.000000
O O4 0.399727 0.997657 0.934042
O O5 0.538408 0.250000 0.638189
O O6 0.568434 0.040206 0.509560
O O7 0.599567 0.020437 0.691578
O O8 0.494353 0.985772 0.649829
O O9 0.121826 0.750000 0.747346
O O10 0.181596 0.525016 0.687555
O O11 0.798013 0.750000 0.364375
O O12 0.796616 0.962797 0.501128
O O13 0.718185 0.955570 0.369397
O O14 0.151417 0.250000 0.395682
O O15 0.184249 0.001854 0.311415
O O16 0.841012 0.250000 0.773888
O O17 0.887235 0.492801 0.837031
O O18 0.432870 0.750000 0.631425
#
# Coordination Sequence:
#
# PCOD8253690 Si02
#       7
#     8   8   8   8   8   8   8
#     4  10  21  36  55  83 116 152 191 236 290 349
#     4  10  21  38  60  85 117 155 193 239 293 348
#     4  10  21  36  58  85 114 150 193 238 290 349
#     4   9  21  41  60  82 115 153 197 242 288 345
#     4  10  21  39  60  84 116 152 194 244 291 345
#     4  11  23  39  61  88 118 155 196 243 298 354
#     4  10  22  39  58  84 116 151 196 243 289 347
#
# _framework density 19.410588000000001
#
# number of rings (size 3 to 8) (size 9 to 14) (size 15 to 20)
#    0.000    2.000    0.000    2.571    2.000    6.286 
#    0.000    2.857    0.000    0.000    0.000    0.000 
#    0.000    0.000    0.000    0.000    0.000    0.000 
#
# Total GULP energy -694722.306972 kJ/mol
# GULP energy per Si atom -12405.755482 kJ/mol
# Density = 1.936641 g / cm^3
# Si number density = 19.410588 Si / 1000 Ang^3
#
#
#
# Elastic Constant Matrix: (Units=GPa)
#
#
# Indices 1 2 3 4 5 6 
#
# 1 84.0400 39.6521 48.7595 0.0000 0.0000 0.0000
# 2 39.6521 101.7641 49.4451 0.0000 0.0000 0.0000
# 3 48.7595 49.4451 88.1824 0.0000 0.0000 0.0000
# 4 0.0000 0.0000 0.0000 35.3066 0.0000 0.0000
# 5 0.0000 0.0000 0.0000 0.0000 27.1276 0.0000
# 6 0.0000 0.0000 0.0000 0.0000 0.0000 31.4110
#
#
#
# Elastic Compliance Matrix: (Units=1/GPa)
#
#
# Indices 1 2 3 4 5 6 
#
# 1 0.018171 -0.003022 -0.008353 0.000000 0.000000 0.000000
# 2 -0.003022 0.014009 -0.006184 0.000000 0.000000 0.000000
# 3 -0.008353 -0.006184 0.019427 0.000000 0.000000 0.000000
# 4 0.000000 0.000000 0.000000 0.028323 0.000000 0.000000
# 5 0.000000 0.000000 0.000000 0.000000 0.036863 0.000000
# 6 0.000000 0.000000 0.000000 0.000000 0.000000 0.031836
#
#
# Mechanical properties :
#
#
# Convention : Reuss Voigt Hill
#
# Bulk Modulus (GPa) = 60.64876 61.07776 60.86326
# Shear Modulus (GPa) = 26.42102 27.84435 27.13269
#
# Velocity S-wave (km/s) = 3.69340 3.79158 3.74281
# Velocity P-wave (km/s) = 7.03572 7.12058 7.07827
#
# Compressibility (1/GPa) = 0.01648838
#
# Stress axis : x y z
#
# Youngs Moduli (GPa) = 55.03163 71.38383 51.47596
#
# Poissons Ratio (x) = 0.21570 0.43000
# Poissons Ratio (y) = 0.16629 0.31833
# Poissons Ratio (z) = 0.45970 0.44145
#
# Static dielectric constant tensor:
#      x y z
#    x 3.430000 0.000000 0.000000 
#    y 0.000000 3.692390 0.000000 
#    z 0.000000 0.000000 3.596840 
# 
# 
# High freq. dielectric constant tensor:
#      x y z
#    x 1.754060 0.000000 0.000000 
#    y 0.000000 1.770860 0.000000 
#    z 0.000000 0.000000 1.757110 
# 
# From -- ./inp_files/20337.got.cif
#   From: 2010.03.12/outbox.cif.g09.slc.cpg/sg62_11_cif.got.tgz:20337.got - 2010.04.10 19:12:36.
