data_PCOD8253387
_publ_section_title
;
Structure prediction by ZEFSAII (Michael W. Deem and Ramdas Pophale) SiO2 
 PCOD8253387
Probable space group: P N M A
;
_chemical_formula_sum "Si O2"
_cell_formula_units_Z 40
_cell_length_a 22.944171
_cell_length_b 8.361170
_cell_length_c 10.254520
_cell_angle_alpha 90.000000
_cell_angle_beta 90.000000
_cell_angle_gamma 90.000000
_cell_volume 1967.228288
_symmetry_space_group_name_H-M "P N M A"
_symmetry_group_IT_number 62
_symmetry_cell_setting 'orthorhombic'
loop_
_space_group_symop_operation_xyz
x,y,z
1/2-x,-y,1/2+z
1/2+x,1/2-y,1/2-z
-x,1/2+y,-z
-x,-y,-z
1/2+x,y,1/2-z
1/2-x,1/2+y,1/2+z
x,1/2-y,z
loop_
_atom_site_type_symbol
_atom_site_label
_atom_site_fract_x
_atom_site_fract_y
_atom_site_fract_z
Si Si1 0.375092 0.436818 0.758098
Si Si2 0.817373 0.563408 0.491125
Si Si3 0.309089 0.563563 0.517228
Si Si4 0.620181 0.439726 0.732382
Si Si5 0.503339 0.560981 0.354465
O O1 0.376243 0.250000 0.792484
O O2 0.328417 0.465789 0.644070
O O3 0.438369 0.503086 0.714878
O O4 0.358240 0.536932 0.884829
O O5 0.802462 0.750000 0.476185
O O6 0.758743 0.463290 0.509554
O O7 0.850676 0.494691 0.364193
O O8 0.321775 0.750000 0.540012
O O9 0.344416 0.496402 0.392832
O O10 0.622107 0.250000 0.733425
O O11 0.553399 0.500923 0.724352
O O12 0.500000 0.500000 0.500000
O O13 0.504852 0.750000 0.359147
#
# Coordination Sequence:
#
# PCOD8253387 Si02
#       5
#     8   8   8   8   8
#     4  11  23  38  59  89 122 155 196 246 295 356
#     4  11  23  39  59  86 122 159 197 243 298 355
#     4  11  21  38  64  88 117 156 199 246 297 355
#     4   9  20  38  60  85 115 152 194 244 299 346
#     4  10  20  38  62  86 114 150 198 248 295 354
#
# _framework density 20.333176999999999
#
# number of rings (size 3 to 8) (size 9 to 14) (size 15 to 20)
#    0.000    1.600    2.000    3.000    0.000    3.200 
#    0.000    5.000    0.000    0.000    0.000    0.000 
#    0.000    0.000    0.000    0.000    0.000    0.000 
#
# Total GULP energy -496174.742669 kJ/mol
# GULP energy per Si atom -12404.368567 kJ/mol
# Density = 2.028690 g / cm^3
# Si number density = 20.333177 Si / 1000 Ang^3
#
#
#
# Elastic Constant Matrix: (Units=GPa)
#
#
# Indices 1 2 3 4 5 6 
#
# 1 143.1289 12.9931 49.5831 0.0000 0.0000 0.0000
# 2 12.9931 29.4243 11.3326 0.0000 0.0000 0.0000
# 3 49.5831 11.3326 135.3442 0.0000 0.0000 0.0000
# 4 0.0000 0.0000 0.0000 22.4957 0.0000 0.0000
# 5 0.0000 0.0000 0.0000 0.0000 29.6524 0.0000
# 6 0.0000 0.0000 0.0000 0.0000 0.0000 26.9029
#
#
#
# Elastic Compliance Matrix: (Units=1/GPa)
#
#
# Indices 1 2 3 4 5 6 
#
# 1 0.008182 -0.002540 -0.002785 0.000000 0.000000 0.000000
# 2 -0.002540 0.035907 -0.002076 0.000000 0.000000 0.000000
# 3 -0.002785 -0.002076 0.008583 0.000000 0.000000 0.000000
# 4 0.000000 0.000000 0.000000 0.044453 0.000000 0.000000
# 5 0.000000 0.000000 0.000000 0.000000 0.033724 0.000000
# 6 0.000000 0.000000 0.000000 0.000000 0.000000 0.037171
#
#
# Mechanical properties :
#
#
# Convention : Reuss Voigt Hill
#
# Bulk Modulus (GPa) = 26.40660 50.63500 38.52080
# Shear Modulus (GPa) = 25.58272 31.40944 28.49608
#
# Velocity S-wave (km/s) = 3.55093 3.93458 3.74767
# Velocity P-wave (km/s) = 5.46143 6.75262 6.14106
#
# Compressibility (1/GPa) = 0.03786933
#
# Stress axis : x y z
#
# Youngs Moduli (GPa) = 122.21901 27.84985 116.51514
#
# Poissons Ratio (x) = 0.07075 0.32447
# Poissons Ratio (y) = 0.31049 0.24187
# Poissons Ratio (z) = 0.34035 0.05781
#
# Static dielectric constant tensor:
#      x y z
#    x 4.005480 0.000000 0.000000 
#    y 0.000000 3.388550 0.000000 
#    z 0.000000 0.000000 3.773650 
# 
# 
# High freq. dielectric constant tensor:
#      x y z
#    x 1.810650 0.000000 0.000000 
#    y 0.000000 1.775450 0.000000 
#    z 0.000000 0.000000 1.799360 
# 
# From -- ./inp_files/8478.got.cif
#   From: 2010.03.12/outbox.cif.g09.slc.cpg/sg62_5_cif.got.tgz:8478.got - 2010.04.10 19:12:36.
