data_PCOD8253640
_publ_section_title
;
Structure prediction by ZEFSAII (Michael W. Deem and Ramdas Pophale) SiO2 
 PCOD8253640
Probable space group: P N M A
;
_chemical_formula_sum "Si O2"
_cell_formula_units_Z 56
_cell_length_a 23.875620
_cell_length_b 8.872899
_cell_length_c 13.694993
_cell_angle_alpha 90.000000
_cell_angle_beta 90.000000
_cell_angle_gamma 90.000000
_cell_volume 2901.229005
_symmetry_space_group_name_H-M "P N M A"
_symmetry_group_IT_number 62
_symmetry_cell_setting 'orthorhombic'
loop_
_space_group_symop_operation_xyz
x,y,z
1/2-x,-y,1/2+z
1/2+x,1/2-y,1/2-z
-x,1/2+y,-z
-x,-y,-z
1/2+x,y,1/2-z
1/2-x,1/2+y,1/2+z
x,1/2-y,z
loop_
_atom_site_type_symbol
_atom_site_label
_atom_site_fract_x
_atom_site_fract_y
_atom_site_fract_z
Si Si1 0.829625 0.572090 0.424708
Si Si2 0.884084 0.423047 0.701599
Si Si3 0.671637 0.571248 0.716591
Si Si4 0.229982 0.926640 0.397221
Si Si5 0.557536 0.425269 0.029263
Si Si6 0.447091 0.074767 0.610367
Si Si7 0.060854 0.927732 0.892044
O O1 0.818492 0.750000 0.432366
O O2 0.816741 0.515228 0.316680
O O3 0.787389 0.485896 0.496450
O O4 0.893545 0.530833 0.452804
O O5 0.897469 0.250000 0.675997
O O6 0.819448 0.459544 0.680453
O O7 0.924969 0.524005 0.636908
O O8 0.896499 0.459806 0.814930
O O9 0.674377 0.750000 0.732950
O O10 0.717006 0.521756 0.637115
O O11 0.611622 0.517666 0.675646
O O12 0.244418 0.750000 0.403064
O O13 0.546812 0.250000 0.031008
O O14 0.500000 0.500000 0.000000
O O15 0.460993 0.250000 0.605888
O O16 0.429345 0.014627 0.503476
O O17 0.503276 0.994893 0.649344
O O18 0.056615 0.750000 0.889694
#
# Coordination Sequence:
#
# PCOD8253640 Si02
#       7
#     8   8   8   8   8   8   8
#     4  10  22  40  59  82 114 151 194 241 290 344
#     4   9  19  35  56  81 109 146 187 232 286 344
#     4  11  23  38  59  86 118 155 195 240 292 348
#     4  10  21  39  60  84 115 149 192 241 293 348
#     4  10  21  35  54  81 113 148 185 232 287 346
#     4   9  18  35  57  79 109 146 186 232 283 341
#     4   9  20  36  53  80 114 148 186 233 285 336
#
# _framework density 19.302164999999999
#
# number of rings (size 3 to 8) (size 9 to 14) (size 15 to 20)
#    0.000    2.286    0.000    1.714    2.000    5.143 
#    0.000    2.857    0.000    0.000    0.000    0.000 
#    0.000    0.000    0.000    0.000    0.000    0.000 
#
# Total GULP energy -694521.599627 kJ/mol
# GULP energy per Si atom -12402.171422 kJ/mol
# Density = 1.925823 g / cm^3
# Si number density = 19.302165 Si / 1000 Ang^3
#
#
#
# Elastic Constant Matrix: (Units=GPa)
#
#
# Indices 1 2 3 4 5 6 
#
# 1 70.3616 21.1497 33.9415 0.0000 0.0000 0.0000
# 2 21.1497 42.2362 19.9002 0.0000 0.0000 0.0000
# 3 33.9415 19.9002 89.9863 0.0000 0.0000 0.0000
# 4 0.0000 0.0000 0.0000 31.8582 0.0000 0.0000
# 5 0.0000 0.0000 0.0000 0.0000 26.2868 0.0000
# 6 0.0000 0.0000 0.0000 0.0000 0.0000 32.3731
#
#
#
# Elastic Compliance Matrix: (Units=1/GPa)
#
#
# Indices 1 2 3 4 5 6 
#
# 1 0.018997 -0.006851 -0.005650 0.000000 0.000000 0.000000
# 2 -0.006851 0.028901 -0.003807 0.000000 0.000000 0.000000
# 3 -0.005650 -0.003807 0.014086 0.000000 0.000000 0.000000
# 4 0.000000 0.000000 0.000000 0.031389 0.000000 0.000000
# 5 0.000000 0.000000 0.000000 0.000000 0.038042 0.000000
# 6 0.000000 0.000000 0.000000 0.000000 0.000000 0.030890
#
#
# Mechanical properties :
#
#
# Convention : Reuss Voigt Hill
#
# Bulk Modulus (GPa) = 34.05160 39.17407 36.61284
# Shear Modulus (GPa) = 24.42472 26.60979 25.51725
#
# Velocity S-wave (km/s) = 3.56109 3.71697 3.63986
# Velocity P-wave (km/s) = 5.88116 6.22578 6.05592
#
# Compressibility (1/GPa) = 0.02936719
#
# Stress axis : x y z
#
# Youngs Moduli (GPa) = 52.63939 34.60126 70.99213
#
# Poissons Ratio (x) = 0.23704 0.40114
# Poissons Ratio (y) = 0.36061 0.27029
# Poissons Ratio (z) = 0.29744 0.13174
#
# Static dielectric constant tensor:
#      x y z
#    x 3.723160 0.000000 0.000000 
#    y 0.000000 3.515450 0.000000 
#    z 0.000000 0.000000 3.842320 
# 
# 
# High freq. dielectric constant tensor:
#      x y z
#    x 1.748600 0.000000 0.000000 
#    y 0.000000 1.754340 0.000000 
#    z 0.000000 0.000000 1.753710 
# 
# From -- ./inp_files/20426.got.cif
#   From: 2010.03.12/outbox.cif.g09.slc.cpg/sg62_11_cif.got.tgz:20426.got - 2010.04.10 19:12:36.
