data_PCOD8253155
_publ_section_title
;
Structure prediction by ZEFSAII (Michael W. Deem and Ramdas Pophale) SiO2 
 PCOD8253155
Probable space group: P N M A
;
_chemical_formula_sum "Si O2"
_cell_formula_units_Z 56
_cell_length_a 14.455796
_cell_length_b 13.196752
_cell_length_c 14.758625
_cell_angle_alpha 90.000000
_cell_angle_beta 90.000000
_cell_angle_gamma 90.000000
_cell_volume 2815.496320
_symmetry_space_group_name_H-M "P N M A"
_symmetry_group_IT_number 62
_symmetry_cell_setting 'orthorhombic'
loop_
_space_group_symop_operation_xyz
x,y,z
1/2-x,-y,1/2+z
1/2+x,1/2-y,1/2-z
-x,1/2+y,-z
-x,-y,-z
1/2+x,y,1/2-z
1/2-x,1/2+y,1/2+z
x,1/2-y,z
loop_
_atom_site_type_symbol
_atom_site_label
_atom_site_fract_x
_atom_site_fract_y
_atom_site_fract_z
Si Si1 0.871626 0.058452 0.940870
Si Si2 0.239794 0.865309 0.902047
Si Si3 0.329710 0.946658 0.300827
Si Si4 0.070386 0.365178 0.968963
Si Si5 0.461410 0.946520 0.135127
Si Si6 0.136654 0.632712 0.256904
Si Si7 0.552664 0.363846 0.059220
O O1 0.860222 0.067362 0.834174
O O2 0.961556 0.116225 0.978291
O O3 0.786175 0.108161 0.994086
O O4 0.875470 0.938186 0.961745
O O5 0.212811 0.750000 0.878853
O O6 0.349113 0.882696 0.892515
O O7 0.184903 0.937472 0.832567
O O8 0.401404 0.889422 0.365880
O O9 0.373133 0.945097 0.200934
O O10 0.233542 0.885899 0.307332
O O11 0.094536 0.250000 0.994663
O O12 0.553115 0.902074 0.180438
O O13 0.477836 0.061950 0.103681
O O14 0.437325 0.878997 0.048443
O O15 0.124373 0.750000 0.232144
O O16 0.518023 0.250000 0.077128
#
# Coordination Sequence:
#
# PCOD8253155 Si02
#       7
#     8   8   8   8   8   8   8
#     4  10  21  35  57  87 117 152 200 241 291 364
#     4  10  20  38  62  88 122 163 202 244 300 364
#     4  11  23  38  61  92 123 155 203 252 301 359
#     4  10  20  37  57  83 120 157 191 243 302 353
#     4  11  23  40  63  93 122 156 208 258 297 364
#     4  12  23  38  61  90 121 155 200 255 307 354
#     4  10  22  42  65  86 120 166 204 248 307 364
#
# _framework density 19.889921999999999
#
# number of rings (size 3 to 8) (size 9 to 14) (size 15 to 20)
#    0.000    1.429    2.857    3.000    0.000    3.429 
#    0.000    1.429    0.000    0.000    0.000    0.000 
#    0.000    0.000    0.000    0.000    0.000    0.000 
#
# Total GULP energy -694654.662920 kJ/mol
# GULP energy per Si atom -12404.547552 kJ/mol
# Density = 1.984465 g / cm^3
# Si number density = 19.889922 Si / 1000 Ang^3
#
#
#
# Elastic Constant Matrix: (Units=GPa)
#
#
# Indices 1 2 3 4 5 6 
#
# 1 60.5973 21.2807 5.6499 0.0000 0.0000 0.0000
# 2 21.2807 133.8013 27.2076 0.0000 0.0000 0.0000
# 3 5.6499 27.2076 70.3933 0.0000 0.0000 0.0000
# 4 0.0000 0.0000 0.0000 18.7796 0.0000 0.0000
# 5 0.0000 0.0000 0.0000 0.0000 24.5306 0.0000
# 6 0.0000 0.0000 0.0000 0.0000 0.0000 24.5775
#
#
#
# Elastic Compliance Matrix: (Units=1/GPa)
#
#
# Indices 1 2 3 4 5 6 
#
# 1 0.017487 -0.002709 -0.000357 0.000000 0.000000 0.000000
# 2 -0.002709 0.008531 -0.003080 0.000000 0.000000 0.000000
# 3 -0.000357 -0.003080 0.015425 0.000000 0.000000 0.000000
# 4 0.000000 0.000000 0.000000 0.053249 0.000000 0.000000
# 5 0.000000 0.000000 0.000000 0.000000 0.040765 0.000000
# 6 0.000000 0.000000 0.000000 0.000000 0.000000 0.040688
#
#
# Mechanical properties :
#
#
# Convention : Reuss Voigt Hill
#
# Bulk Modulus (GPa) = 34.30257 41.45202 37.87729
# Shear Modulus (GPa) = 25.23308 27.62113 26.42711
#
# Velocity S-wave (km/s) = 3.56566 3.73057 3.64904
# Velocity P-wave (km/s) = 5.85111 6.28030 6.06950
#
# Compressibility (1/GPa) = 0.02915234
#
# Stress axis : x y z
#
# Youngs Moduli (GPa) = 57.18569 117.22168 64.83028
#
# Poissons Ratio (x) = 0.31752 0.02312
# Poissons Ratio (y) = 0.15490 0.19967
# Poissons Ratio (z) = 0.02039 0.36102
#
# Static dielectric constant tensor:
#      x y z
#    x 3.619740 0.000000 0.000000 
#    y 0.000000 3.675410 0.000000 
#    z 0.000000 0.000000 3.472590 
# 
# 
# High freq. dielectric constant tensor:
#      x y z
#    x 1.778970 0.000000 0.000000 
#    y 0.000000 1.783010 0.000000 
#    z 0.000000 0.000000 1.766290 
# 
# From -- ./inp_files/19023.got.cif
#   From: 2010.03.12/outbox.cif.g09.slc.cpg/sg62_10_cif.got.tgz:19023.got - 2010.04.10 19:12:36.
