data_PCOD8253345
_publ_section_title
;
Structure prediction by ZEFSAII (Michael W. Deem and Ramdas Pophale) SiO2 
 PCOD8253345
Probable space group: P N M A
;
_chemical_formula_sum "Si O2"
_cell_formula_units_Z 64
_cell_length_a 25.209271
_cell_length_b 8.982244
_cell_length_c 14.472297
_cell_angle_alpha 90.000000
_cell_angle_beta 90.000000
_cell_angle_gamma 90.000000
_cell_volume 3277.046485
_symmetry_space_group_name_H-M "P N M A"
_symmetry_group_IT_number 62
_symmetry_cell_setting 'orthorhombic'
loop_
_space_group_symop_operation_xyz
x,y,z
1/2-x,-y,1/2+z
1/2+x,1/2-y,1/2-z
-x,1/2+y,-z
-x,-y,-z
1/2+x,y,1/2-z
1/2-x,1/2+y,1/2+z
x,1/2-y,z
loop_
_atom_site_type_symbol
_atom_site_label
_atom_site_fract_x
_atom_site_fract_y
_atom_site_fract_z
Si Si1 0.746499 0.926199 0.556606
Si Si2 0.389442 0.925491 0.205562
Si Si3 0.863344 0.576516 0.092118
Si Si4 0.048277 0.425473 0.052026
Si Si5 0.572795 0.576113 0.257889
Si Si6 0.223850 0.073173 0.644458
Si Si7 0.691343 0.925300 0.207734
Si Si8 0.491775 0.574437 0.098750
O O1 0.745998 0.750000 0.562341
O O2 0.756104 0.985273 0.453593
O O3 0.690914 0.986177 0.593552
O O4 0.796095 0.989176 0.613624
O O5 0.389587 0.750000 0.192089
O O6 0.395581 0.964534 0.314309
O O7 0.334239 0.993180 0.167198
O O8 0.438588 0.991129 0.147135
O O9 0.848379 0.750000 0.092292
O O10 0.898139 0.532278 0.003349
O O11 0.039308 0.250000 0.052826
O O12 0.050828 0.484627 0.155816
O O13 0.000000 0.500000 0.000000
O O14 0.566673 0.750000 0.281424
O O15 0.633274 0.529563 0.241675
O O16 0.540552 0.533973 0.165836
O O17 0.221540 0.250000 0.647049
O O18 0.266365 0.015245 0.718110
O O19 0.695734 0.750000 0.190546
O O20 0.487736 0.750000 0.083338
O O21 0.500000 0.500000 0.000000
#
# Coordination Sequence:
#
# PCOD8253345 Si02
#       8
#     8   8   8   8   8   8   8   8
#     4  11  22  34  55  88 117 145 190 245 292 343
#     4   9  17  34  59  79 105 149 194 229 270 345
#     4  10  20  38  62  85 114 155 196 231 285 357
#     4  11  23  38  62  93 122 155 195 245 300 360
#     4  10  22  40  60  85 119 159 201 247 299 358
#     4   9  18  33  55  80 107 150 194 225 279 348
#     4  10  20  38  60  80 114 159 195 234 290 357
#     4  10  22  39  60  85 114 152 198 244 292 344
#
# _framework density 19.529781
#
# number of rings (size 3 to 8) (size 9 to 14) (size 15 to 20)
#    0.000    2.000    1.250    2.250    1.750    5.000 
#    0.000    1.875    0.000    0.000    0.000    0.000 
#    0.000    0.000    0.000    0.000    0.000    0.000 
#
# Total GULP energy -793706.605673 kJ/mol
# GULP energy per Si atom -12401.665714 kJ/mol
# Density = 1.948533 g / cm^3
# Si number density = 19.529781 Si / 1000 Ang^3
#
#
#
# Elastic Constant Matrix: (Units=GPa)
#
#
# Indices 1 2 3 4 5 6 
#
# 1 131.7060 34.9651 58.9346 0.0000 0.0000 0.0000
# 2 34.9651 47.0150 37.9178 0.0000 0.0000 0.0000
# 3 58.9346 37.9178 143.5252 0.0000 0.0000 0.0000
# 4 0.0000 0.0000 0.0000 31.6369 0.0000 0.0000
# 5 0.0000 0.0000 0.0000 0.0000 37.7387 0.0000
# 6 0.0000 0.0000 0.0000 0.0000 0.0000 20.1517
#
#
#
# Elastic Compliance Matrix: (Units=1/GPa)
#
#
# Indices 1 2 3 4 5 6 
#
# 1 0.010273 -0.005386 -0.002796 0.000000 0.000000 0.000000
# 2 -0.005386 0.029852 -0.005675 0.000000 0.000000 0.000000
# 3 -0.002796 -0.005675 0.009615 0.000000 0.000000 0.000000
# 4 0.000000 0.000000 0.000000 0.031609 0.000000 0.000000
# 5 0.000000 0.000000 0.000000 0.000000 0.026498 0.000000
# 6 0.000000 0.000000 0.000000 0.000000 0.000000 0.049623
#
#
# Mechanical properties :
#
#
# Convention : Reuss Voigt Hill
#
# Bulk Modulus (GPa) = 45.39807 65.09791 55.24799
# Shear Modulus (GPa) = 25.97054 30.60071 28.28563
#
# Velocity S-wave (km/s) = 3.65059 3.96267 3.80983
# Velocity P-wave (km/s) = 6.40820 7.37170 6.90678
#
# Compressibility (1/GPa) = 0.02202737
#
# Stress axis : x y z
#
# Youngs Moduli (GPa) = 97.33856 33.49838 104.00743
#
# Poissons Ratio (x) = 0.18041 0.29077
# Poissons Ratio (y) = 0.52423 0.59026
# Poissons Ratio (z) = 0.27213 0.19011
#
# Static dielectric constant tensor:
#      x y z
#    x 3.881970 0.000000 0.000000 
#    y 0.000000 3.250260 0.000000 
#    z 0.000000 0.000000 3.836540 
# 
# 
# High freq. dielectric constant tensor:
#      x y z
#    x 1.774250 0.000000 0.000000 
#    y 0.000000 1.727950 0.000000 
#    z 0.000000 0.000000 1.775760 
# 
# From -- ./inp_files/20953.got.cif
#   From: 2010.03.12/outbox.cif.g09.slc.cpg/sg62_11_cif.got.tgz:20953.got - 2010.04.10 19:12:36.
