data_PCOD8253158
_publ_section_title
;
Structure prediction by ZEFSAII (Michael W. Deem and Ramdas Pophale) SiO2 
 PCOD8253158
Probable space group: P N M A
;
_chemical_formula_sum "Si O2"
_cell_formula_units_Z 40
_cell_length_a 18.168086
_cell_length_b 8.835665
_cell_length_c 13.209174
_cell_angle_alpha 90.000000
_cell_angle_beta 90.000000
_cell_angle_gamma 90.000000
_cell_volume 2120.430681
_symmetry_space_group_name_H-M "P N M A"
_symmetry_group_IT_number 62
_symmetry_cell_setting 'orthorhombic'
loop_
_space_group_symop_operation_xyz
x,y,z
1/2-x,-y,1/2+z
1/2+x,1/2-y,1/2-z
-x,1/2+y,-z
-x,-y,-z
1/2+x,y,1/2-z
1/2-x,1/2+y,1/2+z
x,1/2-y,z
loop_
_atom_site_type_symbol
_atom_site_label
_atom_site_fract_x
_atom_site_fract_y
_atom_site_fract_z
Si Si1 0.339586 0.428054 0.403305
Si Si2 0.540161 0.573922 0.093567
Si Si3 0.878391 0.927338 0.891808
Si Si4 0.820461 0.925387 0.673415
Si Si5 0.519554 0.427581 0.688589
O O1 0.355050 0.250000 0.397254
O O2 0.338836 0.482088 0.518935
O O3 0.261710 0.472205 0.354944
O O4 0.399328 0.517535 0.338026
O O5 0.543077 0.750000 0.073724
O O6 0.623621 0.515866 0.101953
O O7 0.495110 0.532304 0.194610
O O8 0.500000 0.500000 0.000000
O O9 0.878777 0.750000 0.916782
O O10 0.833155 0.966687 0.790724
O O11 0.962271 0.983448 0.882313
O O12 0.835779 0.750000 0.653627
O O13 0.511107 0.250000 0.667150
#
# Coordination Sequence:
#
# PCOD8253158 Si02
#       5
#     8   8   8   8   8
#     4  11  22  36  56  83 112 143 179 224 274 324
#     4  10  21  37  59  83 110 145 184 224 270 321
#     4  10  20  37  58  79 107 144 182 224 272 322
#     4   9  21  39  56  78 110 144 182 225 270 319
#     4  10  21  37  56  81 109 142 184 225 267 322
#
# _framework density 18.864093
#
# number of rings (size 3 to 8) (size 9 to 14) (size 15 to 20)
#    0.000    2.000    0.000    3.000    0.000    6.400 
#    0.000    4.000    0.000    0.000    0.000    0.000 
#    0.000    0.000    0.000    0.000    0.000    0.000 
#
# Total GULP energy -496214.906379 kJ/mol
# GULP energy per Si atom -12405.372659 kJ/mol
# Density = 1.882116 g / cm^3
# Si number density = 18.864093 Si / 1000 Ang^3
#
#
#
# Elastic Constant Matrix: (Units=GPa)
#
#
# Indices 1 2 3 4 5 6 
#
# 1 135.1011 37.8844 67.3248 0.0000 0.0000 0.0000
# 2 37.8844 54.3860 36.6567 0.0000 0.0000 0.0000
# 3 67.3248 36.6567 97.7479 0.0000 0.0000 0.0000
# 4 0.0000 0.0000 0.0000 35.7587 0.0000 0.0000
# 5 0.0000 0.0000 0.0000 0.0000 32.2510 0.0000
# 6 0.0000 0.0000 0.0000 0.0000 0.0000 33.5860
#
#
#
# Elastic Compliance Matrix: (Units=1/GPa)
#
#
# Indices 1 2 3 4 5 6 
#
# 1 0.011792 -0.003667 -0.006747 0.000000 0.000000 0.000000
# 2 -0.003667 0.025747 -0.007130 0.000000 0.000000 0.000000
# 3 -0.006747 -0.007130 0.017551 0.000000 0.000000 0.000000
# 4 0.000000 0.000000 0.000000 0.027965 0.000000 0.000000
# 5 0.000000 0.000000 0.000000 0.000000 0.031007 0.000000
# 6 0.000000 0.000000 0.000000 0.000000 0.000000 0.029774
#
#
# Mechanical properties :
#
#
# Convention : Reuss Voigt Hill
#
# Bulk Modulus (GPa) = 49.99206 63.44074 56.71640
# Shear Modulus (GPa) = 26.94084 30.01040 28.47562
#
# Velocity S-wave (km/s) = 3.78319 3.99290 3.88946
# Velocity P-wave (km/s) = 6.75589 7.41358 7.09236
#
# Compressibility (1/GPa) = 0.02000318
#
# Stress axis : x y z
#
# Youngs Moduli (GPa) = 84.80115 38.83956 56.97608
#
# Poissons Ratio (x) = 0.14242 0.38442
# Poissons Ratio (y) = 0.31095 0.40623
# Poissons Ratio (z) = 0.57215 0.27692
#
# Static dielectric constant tensor:
#      x y z
#    x 3.469920 0.000000 0.000000 
#    y 0.000000 3.571880 0.000000 
#    z 0.000000 0.000000 3.527680 
# 
# 
# High freq. dielectric constant tensor:
#      x y z
#    x 1.733630 0.000000 0.000000 
#    y 0.000000 1.745630 0.000000 
#    z 0.000000 0.000000 1.738930 
# 
# From -- ./inp_files/13830.got.cif
#   From: 2010.03.12/outbox.cif.g09.slc.cpg/sg62_7_cif.got.tgz:13830.got - 2010.04.10 19:12:36.
