data_PCOD8253839
_publ_section_title
;
Structure prediction by ZEFSAII (Michael W. Deem and Ramdas Pophale) SiO2 
 PCOD8253839
Probable space group: P N M A
;
_chemical_formula_sum "Si O2"
_cell_formula_units_Z 36
_cell_length_a 5.058771
_cell_length_b 21.238107
_cell_length_c 14.386705
_cell_angle_alpha 90.000000
_cell_angle_beta 90.000000
_cell_angle_gamma 90.000000
_cell_volume 1545.689167
_symmetry_space_group_name_H-M "P N M A"
_symmetry_group_IT_number 62
_symmetry_cell_setting 'orthorhombic'
loop_
_space_group_symop_operation_xyz
x,y,z
1/2-x,-y,1/2+z
1/2+x,1/2-y,1/2-z
-x,1/2+y,-z
-x,-y,-z
1/2+x,y,1/2-z
1/2-x,1/2+y,1/2+z
x,1/2-y,z
loop_
_atom_site_type_symbol
_atom_site_label
_atom_site_fract_x
_atom_site_fract_y
_atom_site_fract_z
Si Si1 0.725022 0.750000 0.687307
Si Si2 0.913878 0.824323 0.196861
Si Si3 0.734508 0.901238 0.030945
Si Si4 0.314723 0.001415 0.809614
Si Si5 0.726784 0.881174 0.587138
O O1 0.520315 0.750000 0.772414
O O2 0.679773 0.811039 0.623923
O O3 0.691455 0.851538 0.266899
O O4 0.915548 0.750000 0.198141
O O5 0.853070 0.845281 0.093001
O O6 0.698716 0.964737 0.090264
O O7 0.451797 0.880071 0.991631
O O8 0.949802 0.910478 0.949572
O O9 0.573689 0.022410 0.754769
O O10 0.317635 0.926537 0.828699
#
# Coordination Sequence:
#
# PCOD8253839 Si02
#       5
#     4   8   8   8   8
#     4  12  26  48  70  96 132 178 222 262 320 390
#     4  10  21  37  58  86 124 169 213 254 309 385
#     4  12  24  41  66  97 134 164 218 271 335 377
#     4  12  24  44  69  95 131 175 217 267 328 396
#     4  12  26  42  68  98 133 168 221 275 324 377
#
# _framework density 23.290581
#
# number of rings (size 3 to 8) (size 9 to 14) (size 15 to 20)
#    0.000    0.444    0.000    9.333    3.111    0.000 
#    0.000    0.000    0.000    0.000    0.000    0.000 
#    0.000    0.000    0.000    0.000    0.000    0.000 
#
# Total GULP energy -446679.713631 kJ/mol
# GULP energy per Si atom -12407.769823 kJ/mol
# Density = 2.323757 g / cm^3
# Si number density = 23.290581 Si / 1000 Ang^3
#
#
#
# Elastic Constant Matrix: (Units=GPa)
#
#
# Indices 1 2 3 4 5 6 
#
# 1 97.2195 35.6119 17.6896 0.0000 0.0000 0.0000
# 2 35.6119 90.9299 37.0768 0.0000 0.0000 0.0000
# 3 17.6896 37.0768 79.1053 0.0000 0.0000 0.0000
# 4 0.0000 0.0000 0.0000 50.3910 0.0000 0.0000
# 5 0.0000 0.0000 0.0000 0.0000 48.5083 0.0000
# 6 0.0000 0.0000 0.0000 0.0000 0.0000 28.6419
#
#
#
# Elastic Compliance Matrix: (Units=1/GPa)
#
#
# Indices 1 2 3 4 5 6 
#
# 1 0.012031 -0.004469 -0.000596 0.000000 0.000000 0.000000
# 2 -0.004469 0.015256 -0.006151 0.000000 0.000000 0.000000
# 3 -0.000596 -0.006151 0.015658 0.000000 0.000000 0.000000
# 4 0.000000 0.000000 0.000000 0.019845 0.000000 0.000000
# 5 0.000000 0.000000 0.000000 0.000000 0.020615 0.000000
# 6 0.000000 0.000000 0.000000 0.000000 0.000000 0.034914
#
#
# Mechanical properties :
#
#
# Convention : Reuss Voigt Hill
#
# Bulk Modulus (GPa) = 48.74951 49.77903 49.26427
# Shear Modulus (GPa) = 33.87805 37.30001 35.58903
#
# Velocity S-wave (km/s) = 3.81804 4.00622 3.91326
# Velocity P-wave (km/s) = 6.35712 6.54364 6.45105
#
# Compressibility (1/GPa) = 0.02051303
#
# Stress axis : x y z
#
# Youngs Moduli (GPa) = 83.11552 65.54863 63.86660
#
# Poissons Ratio (x) = 0.29294 0.03805
# Poissons Ratio (y) = 0.37145 0.39285
# Poissons Ratio (z) = 0.04952 0.40319
#
# Static dielectric constant tensor:
#      x y z
#    x 4.474860 0.000000 0.000000 
#    y 0.000000 4.338250 0.000000 
#    z 0.000000 0.000000 4.108850 
# 
# 
# High freq. dielectric constant tensor:
#      x y z
#    x 1.940870 0.000000 0.000000 
#    y 0.000000 1.933260 0.000000 
#    z 0.000000 0.000000 1.920980 
# 
# From -- ./inp_files/10688.got.cif
#   From: 2010.03.12/outbox.cif.g09.slc.cpg/sg62_6_cif.got.tgz:10688.got - 2010.04.10 19:12:36.
