data_PCOD8253581
_publ_section_title
;
Structure prediction by ZEFSAII (Michael W. Deem and Ramdas Pophale) SiO2 
 PCOD8253581
Probable space group: P N M A
;
_chemical_formula_sum "Si O2"
_cell_formula_units_Z 40
_cell_length_a 5.420809
_cell_length_b 25.536627
_cell_length_c 13.015757
_cell_angle_alpha 90.000000
_cell_angle_beta 90.000000
_cell_angle_gamma 90.000000
_cell_volume 1801.760536
_symmetry_space_group_name_H-M "P N M A"
_symmetry_group_IT_number 62
_symmetry_cell_setting 'orthorhombic'
loop_
_space_group_symop_operation_xyz
x,y,z
1/2-x,-y,1/2+z
1/2+x,1/2-y,1/2-z
-x,1/2+y,-z
-x,-y,-z
1/2+x,y,1/2-z
1/2-x,1/2+y,1/2+z
x,1/2-y,z
loop_
_atom_site_type_symbol
_atom_site_label
_atom_site_fract_x
_atom_site_fract_y
_atom_site_fract_z
Si Si1 0.922166 0.351195 0.874211
Si Si2 0.127788 0.445063 0.984882
Si Si3 0.142747 0.417625 0.214278
Si Si4 0.906391 0.465562 0.703998
Si Si5 0.423141 0.189923 0.849983
O O1 0.936186 0.409468 0.920483
O O2 0.917037 0.347777 0.749896
O O3 0.172335 0.321346 0.914146
O O4 0.668961 0.324175 0.915798
O O5 0.376358 0.454266 0.917530
O O6 0.200344 0.420977 0.093770
O O7 0.000000 0.500000 0.000000
O O8 0.378823 0.388242 0.266299
O O9 0.085871 0.473022 0.270026
O O10 0.664568 0.439729 0.759770
O O11 0.433447 0.250000 0.813737
#
# Coordination Sequence:
#
# PCOD8253581 Si02
#       5
#     8   8   8   8   8
#     4  10  22  33  57  91 116 158 203 230 314 382
#     4  12  24  38  58  85 127 170 216 257 288 371
#     4  10  22  39  53  73 103 161 213 246 303 329
#     4  10  22  36  54  74 105 161 209 247 297 333
#     4  10  20  41  64  88 124 153 194 270 327 371
#
# _framework density 22.200507999999999
#
# number of rings (size 3 to 8) (size 9 to 14) (size 15 to 20)
#    0.000    1.600    4.000    3.000    5.600    6.400 
#    0.000    0.000    0.000    0.000    0.000    0.000 
#    0.000   27.200    0.000    0.000    0.000    0.000 
#
# Total GULP energy -495545.195729 kJ/mol
# GULP energy per Si atom -12388.629893 kJ/mol
# Density = 2.214998 g / cm^3
# Si number density = 22.200508 Si / 1000 Ang^3
#
#
#
# Elastic Constant Matrix: (Units=GPa)
#
#
# Indices 1 2 3 4 5 6 
#
# 1 215.2945 32.9306 27.0109 0.0000 0.0000 0.0000
# 2 32.9306 85.4682 18.5586 0.0000 0.0000 0.0000
# 3 27.0109 18.5586 90.0449 0.0000 0.0000 0.0000
# 4 0.0000 0.0000 0.0000 15.5569 0.0000 0.0000
# 5 0.0000 0.0000 0.0000 0.0000 20.9113 0.0000
# 6 0.0000 0.0000 0.0000 0.0000 0.0000 20.1198
#
#
#
# Elastic Compliance Matrix: (Units=1/GPa)
#
#
# Indices 1 2 3 4 5 6 
#
# 1 0.005050 -0.001693 -0.001166 0.000000 0.000000 0.000000
# 2 -0.001693 0.012816 -0.002134 0.000000 0.000000 0.000000
# 3 -0.001166 -0.002134 0.011895 0.000000 0.000000 0.000000
# 4 0.000000 0.000000 0.000000 0.064280 0.000000 0.000000
# 5 0.000000 0.000000 0.000000 0.000000 0.047821 0.000000
# 6 0.000000 0.000000 0.000000 0.000000 0.000000 0.049702
#
#
# Mechanical properties :
#
#
# Convention : Reuss Voigt Hill
#
# Bulk Modulus (GPa) = 50.56543 60.86752 55.71647
# Shear Modulus (GPa) = 24.02224 32.13813 28.08018
#
# Velocity S-wave (km/s) = 3.29303 3.80890 3.56032
# Velocity P-wave (km/s) = 6.10614 6.84254 6.48480
#
# Compressibility (1/GPa) = 0.01977636
#
# Stress axis : x y z
#
# Youngs Moduli (GPa) = 198.02090 78.02933 84.06834
#
# Poissons Ratio (x) = 0.13207 0.09802
# Poissons Ratio (y) = 0.33516 0.17937
# Poissons Ratio (z) = 0.23089 0.16649
#
# Static dielectric constant tensor:
#      x y z
#    x 4.985840 0.000000 0.000000 
#    y 0.000000 3.553930 0.000000 
#    z 0.000000 0.000000 4.269440 
# 
# 
# High freq. dielectric constant tensor:
#      x y z
#    x 1.920440 0.000000 0.000000 
#    y 0.000000 1.818860 0.000000 
#    z 0.000000 0.000000 1.823520 
# 
# From -- ./inp_files/10702.got.cif
#   From: 2010.03.12/outbox.cif.g09.slc.cpg/sg62_6_cif.got.tgz:10702.got - 2010.04.10 19:12:36.
