data_PCOD8253468
_publ_section_title
;
Structure prediction by ZEFSAII (Michael W. Deem and Ramdas Pophale) SiO2 
 PCOD8253468
Probable space group: P N M A
;
_chemical_formula_sum "Si O2"
_cell_formula_units_Z 48
_cell_length_a 8.580496
_cell_length_b 26.857433
_cell_length_c 9.990538
_cell_angle_alpha 90.000000
_cell_angle_beta 90.000000
_cell_angle_gamma 90.000000
_cell_volume 2302.320445
_symmetry_space_group_name_H-M "P N M A"
_symmetry_group_IT_number 62
_symmetry_cell_setting 'orthorhombic'
loop_
_space_group_symop_operation_xyz
x,y,z
1/2-x,-y,1/2+z
1/2+x,1/2-y,1/2-z
-x,1/2+y,-z
-x,-y,-z
1/2+x,y,1/2-z
1/2-x,1/2+y,1/2+z
x,1/2-y,z
loop_
_atom_site_type_symbol
_atom_site_label
_atom_site_fract_x
_atom_site_fract_y
_atom_site_fract_z
Si Si1 0.447386 0.404711 0.578940
Si Si2 0.195381 0.694048 0.664334
Si Si3 0.227867 0.556674 0.835548
Si Si4 0.215871 0.940959 0.336961
Si Si5 0.459515 0.305896 0.435944
Si Si6 0.448257 0.402338 0.085387
O O1 0.408350 0.435171 0.443975
O O2 0.621086 0.418417 0.619049
O O3 0.324937 0.418875 0.692677
O O4 0.435305 0.345295 0.554809
O O5 0.142949 0.750000 0.625508
O O6 0.170839 0.684724 0.822729
O O7 0.375846 0.684879 0.635690
O O8 0.090062 0.656423 0.577703
O O9 0.280253 0.500022 0.828254
O O10 0.167580 0.571858 0.690424
O O11 0.373325 0.590945 0.874777
O O12 0.080393 0.926444 0.440623
O O13 0.448023 0.250000 0.495736
#
# Coordination Sequence:
#
# PCOD8253468 Si02
#       6
#     8   8   8   8   8   8
#     4  12  24  44  62  91 128 171 216 267 325 385
#     4  10  20  38  65  96 125 158 207 263 319 370
#     4  12  24  40  66  92 129 168 222 265 313 383
#     4  12  25  42  62  91 131 176 211 264 322 383
#     4  10  21  40  66  96 125 163 209 267 321 380
#     4  12  22  40  63  97 125 164 216 263 322 375
#
# _framework density 20.848531999999999
#
# number of rings (size 3 to 8) (size 9 to 14) (size 15 to 20)
#    0.000    0.667    3.333    6.000    0.000    0.000 
#    0.000    1.667    0.000    0.000    0.000    0.000 
#    0.000    0.000    0.000    0.000    0.000    0.000 
#
# Total GULP energy -595521.092366 kJ/mol
# GULP energy per Si atom -12406.689424 kJ/mol
# Density = 2.080108 g / cm^3
# Si number density = 20.848532 Si / 1000 Ang^3
#
#
#
# Elastic Constant Matrix: (Units=GPa)
#
#
# Indices 1 2 3 4 5 6 
#
# 1 64.8669 22.2693 9.7624 0.0000 0.0000 0.0000
# 2 22.2693 131.8653 49.4683 0.0000 0.0000 0.0000
# 3 9.7624 49.4683 71.9852 0.0000 0.0000 0.0000
# 4 0.0000 0.0000 0.0000 -59.0687 0.0000 0.0000
# 5 0.0000 0.0000 0.0000 0.0000 30.9241 0.0000
# 6 0.0000 0.0000 0.0000 0.0000 0.0000 31.8581
#
#
#
# Elastic Compliance Matrix: (Units=1/GPa)
#
#
# Indices 1 2 3 4 5 6 
#
# 1 0.016375 -0.002603 -0.000432 0.000000 0.000000 0.000000
# 2 -0.002603 0.010632 -0.006953 0.000000 0.000000 0.000000
# 3 -0.000432 -0.006953 0.018728 0.000000 0.000000 0.000000
# 4 0.000000 0.000000 0.000000 -0.016929 0.000000 0.000000
# 5 0.000000 0.000000 0.000000 0.000000 0.032337 0.000000
# 6 0.000000 0.000000 0.000000 0.000000 0.000000 0.031389
#
#
# Mechanical properties :
#
#
# Convention : Reuss Voigt Hill
#
# Bulk Modulus (GPa) = 38.82169 47.96860 43.39515
# Shear Modulus (GPa) = 41.29026 13.22387 27.25706
#
# Velocity S-wave (km/s) = 4.45509 2.52123 3.61970
# Velocity P-wave (km/s) = 6.71752 5.61547 6.19107
#
# Compressibility (1/GPa) = 0.02575880
#
# Stress axis : x y z
#
# Youngs Moduli (GPa) = 61.06897 94.06010 53.39508
#
# Poissons Ratio (x) = 0.24488 0.02305
# Poissons Ratio (y) = 0.15899 0.37125
# Poissons Ratio (z) = 0.02636 0.65399
#
# Static dielectric constant tensor:
#      x y z
#    x 3.817320 0.000000 0.000000 
#    y 0.000000 4.087310 0.000000 
#    z 0.000000 0.000000 3.801260 
# 
# 
# High freq. dielectric constant tensor:
#      x y z
#    x 1.827740 0.000000 0.000000 
#    y 0.000000 1.834090 0.000000 
#    z 0.000000 0.000000 1.798810 
# 
# From -- ./inp_files/4505.got.cif
#   From: 2010.03.12/outbox.cif.g09.slc.cpg/sg62_3_cif.got.tgz:4505.got - 2010.04.10 19:12:36.
