data_PCOD8253797
_publ_section_title
;
Structure prediction by ZEFSAII (Michael W. Deem and Ramdas Pophale) SiO2 
 PCOD8253797
Probable space group: P N M A
;
_chemical_formula_sum "Si O2"
_cell_formula_units_Z 48
_cell_length_a 9.284430
_cell_length_b 8.999179
_cell_length_c 30.300132
_cell_angle_alpha 90.000000
_cell_angle_beta 90.000000
_cell_angle_gamma 90.000000
_cell_volume 2531.644128
_symmetry_space_group_name_H-M "P N M A"
_symmetry_group_IT_number 62
_symmetry_cell_setting 'orthorhombic'
loop_
_space_group_symop_operation_xyz
x,y,z
1/2-x,-y,1/2+z
1/2+x,1/2-y,1/2-z
-x,1/2+y,-z
-x,-y,-z
1/2+x,y,1/2-z
1/2-x,1/2+y,1/2+z
x,1/2-y,z
loop_
_atom_site_type_symbol
_atom_site_label
_atom_site_fract_x
_atom_site_fract_y
_atom_site_fract_z
Si Si1 0.907528 0.421855 0.287893
Si Si2 0.606820 0.424158 0.634753
Si Si3 0.084219 0.416286 0.962613
Si Si4 0.581436 0.581232 0.038702
Si Si5 0.897709 0.579274 0.628931
Si Si6 0.400002 0.075056 0.714761
O O1 0.888257 0.250000 0.274211
O O2 0.755407 0.502553 0.287837
O O3 0.974177 0.436927 0.336287
O O4 0.012262 0.502022 0.254009
O O5 0.645392 0.250000 0.631975
O O6 0.556226 0.482411 0.586497
O O7 0.752716 0.507373 0.649164
O O8 0.481222 0.458513 0.669060
O O9 0.025326 0.250000 0.963742
O O10 0.251751 0.425330 0.973495
O O11 0.000000 0.500000 0.000000
O O12 0.526551 0.750000 0.042429
O O13 0.549211 0.502188 0.084961
O O14 0.500000 0.500000 0.000000
O O15 0.864901 0.750000 0.617874
O O16 0.384839 0.250000 0.723589
#
# Coordination Sequence:
#
# PCOD8253797 Si02
#       6
#     8   8   8   8   8   8
#     4  11  24  40  58  84 118 150 184 233 288 338
#     4   9  20  38  57  80 111 145 184 232 280 328
#     4   9  19  35  54  79 110 143 180 223 272 324
#     4  10  21  37  57  82 113 147 186 232 279 330
#     4  10  21  37  58  83 111 147 188 228 278 337
#     4  11  23  39  61  86 112 148 193 234 279 341
#
# _framework density 18.960008999999999
#
# number of rings (size 3 to 8) (size 9 to 14) (size 15 to 20)
#    0.000    2.000    0.000    4.000    0.000   11.333 
#    0.000    3.333    0.000    0.000    0.000    0.000 
#    0.000    0.000    0.000    0.000    0.000    0.000 
#
# Total GULP energy -595312.741180 kJ/mol
# GULP energy per Si atom -12402.348775 kJ/mol
# Density = 1.891685 g / cm^3
# Si number density = 18.960009 Si / 1000 Ang^3
#
#
#
# Elastic Constant Matrix: (Units=GPa)
#
#
# Indices 1 2 3 4 5 6 
#
# 1 114.7696 70.4727 67.7538 0.0000 0.0000 0.0000
# 2 70.4727 134.2013 70.7863 0.0000 0.0000 0.0000
# 3 67.7538 70.7863 112.9793 0.0000 0.0000 0.0000
# 4 0.0000 0.0000 0.0000 35.1240 0.0000 0.0000
# 5 0.0000 0.0000 0.0000 0.0000 37.8498 0.0000
# 6 0.0000 0.0000 0.0000 0.0000 0.0000 38.9217
#
#
#
# Elastic Compliance Matrix: (Units=1/GPa)
#
#
# Indices 1 2 3 4 5 6 
#
# 1 0.015291 -0.004769 -0.006182 0.000000 0.000000 0.000000
# 2 -0.004769 0.012617 -0.005045 0.000000 0.000000 0.000000
# 3 -0.006182 -0.005045 0.015720 0.000000 0.000000 0.000000
# 4 0.000000 0.000000 0.000000 0.028471 0.000000 0.000000
# 5 0.000000 0.000000 0.000000 0.000000 0.026420 0.000000
# 6 0.000000 0.000000 0.000000 0.000000 0.000000 0.025693
#
#
# Mechanical properties :
#
#
# Convention : Reuss Voigt Hill
#
# Bulk Modulus (GPa) = 85.94584 86.66398 86.30491
# Shear Modulus (GPa) = 31.23412 32.57492 31.90452
#
# Velocity S-wave (km/s) = 4.06318 4.14948 4.10656
# Velocity P-wave (km/s) = 8.21225 8.29250 8.25247
#
# Compressibility (1/GPa) = 0.01163523
#
# Stress axis : x y z
#
# Youngs Moduli (GPa) = 65.39821 79.25910 63.61492
#
# Poissons Ratio (x) = 0.37797 0.39328
# Poissons Ratio (y) = 0.31187 0.32094
# Poissons Ratio (z) = 0.40430 0.39987
#
# Static dielectric constant tensor:
#      x y z
#    x 2.312390 0.000000 0.000000 
#    y 0.000000 3.672630 0.000000 
#    z 0.000000 0.000000 3.665090 
# 
# 
# High freq. dielectric constant tensor:
#      x y z
#    x 1.734410 0.000000 0.000000 
#    y 0.000000 1.748870 0.000000 
#    z 0.000000 0.000000 1.750520 
# 
# From -- ./inp_files/31917.got.cif
#   From: 2010.03.12/outbox.cif.g09.slc.cpg/sg62_16_cif.got.tgz:31917.got - 2010.04.10 19:12:36.
