data_PCOD8253230
_publ_section_title
;
Structure prediction by ZEFSAII (Michael W. Deem and Ramdas Pophale) SiO2 
 PCOD8253230
Probable space group: P N M A
;
_chemical_formula_sum "Si O2"
_cell_formula_units_Z 64
_cell_length_a 19.879206
_cell_length_b 8.877205
_cell_length_c 18.642381
_cell_angle_alpha 90.000000
_cell_angle_beta 90.000000
_cell_angle_gamma 90.000000
_cell_volume 3289.854287
_symmetry_space_group_name_H-M "P N M A"
_symmetry_group_IT_number 62
_symmetry_cell_setting 'orthorhombic'
loop_
_space_group_symop_operation_xyz
x,y,z
1/2-x,-y,1/2+z
1/2+x,1/2-y,1/2-z
-x,1/2+y,-z
-x,-y,-z
1/2+x,y,1/2-z
1/2-x,1/2+y,1/2+z
x,1/2-y,z
loop_
_atom_site_type_symbol
_atom_site_label
_atom_site_fract_x
_atom_site_fract_y
_atom_site_fract_z
Si Si1 0.555622 0.073283 0.049901
Si Si2 0.326027 0.577307 0.054640
Si Si3 0.172388 0.927246 0.049936
Si Si4 0.826316 0.572640 0.801270
Si Si5 0.062387 0.426016 0.793782
Si Si6 0.671024 0.574824 0.800439
Si Si7 0.938568 0.927808 0.041514
Si Si8 0.933331 0.071306 0.703654
O O1 0.541021 0.250000 0.060729
O O2 0.553755 0.986984 0.124332
O O3 0.628497 0.046011 0.014514
O O4 0.500000 0.000000 0.000000
O O5 0.329547 0.750000 0.078831
O O6 0.249984 0.531536 0.034940
O O7 0.353522 0.483574 0.122104
O O8 0.158291 0.750000 0.049615
O O9 0.148301 0.992177 0.126323
O O10 0.131321 0.005818 0.986835
O O11 0.838200 0.750000 0.808805
O O12 0.748635 0.532716 0.787461
O O13 0.866812 0.507573 0.734136
O O14 0.072915 0.250000 0.784845
O O15 0.128737 0.503218 0.763231
O O16 0.054002 0.473820 0.875901
O O17 0.996318 0.479964 0.751694
O O18 0.658115 0.750000 0.799006
O O19 0.939566 0.750000 0.030331
O O20 0.000000 0.000000 0.000000
O O21 0.923435 0.250000 0.703504
#
# Coordination Sequence:
#
# PCOD8253230 Si02
#       8
#     8   8   8   8   8   8   8   8
#     4  11  23  39  58  84 116 151 191 237 286 339
#     4   9  20  38  59  81 113 153 188 226 279 338
#     4  10  20  37  60  85 113 149 188 229 280 338
#     4  10  21  38  59  86 117 149 186 231 279 334
#     4  10  23  40  57  80 113 149 188 231 280 336
#     4  10  21  36  59  88 115 145 187 233 279 332
#     4  11  23  39  59  84 113 148 189 236 284 337
#     4  11  23  39  59  84 113 150 193 237 284 338
#
# _framework density 19.453748999999998
#
# number of rings (size 3 to 8) (size 9 to 14) (size 15 to 20)
#    0.000    1.750    0.000    3.750    0.000   10.000 
#    0.000    3.750    0.000    0.000    0.000    0.000 
#    0.000    0.000    0.000    0.000    0.000    0.000 
#
# Total GULP energy -793984.212645 kJ/mol
# GULP energy per Si atom -12406.003323 kJ/mol
# Density = 1.940947 g / cm^3
# Si number density = 19.453749 Si / 1000 Ang^3
#
#
#
# Elastic Constant Matrix: (Units=GPa)
#
#
# Indices 1 2 3 4 5 6 
#
# 1 100.7871 47.4744 73.1747 0.0000 0.0000 0.0000
# 2 47.4744 68.3860 63.5591 0.0000 0.0000 0.0000
# 3 73.1747 63.5591 150.7856 0.0000 0.0000 0.0000
# 4 0.0000 0.0000 0.0000 38.8778 0.0000 0.0000
# 5 0.0000 0.0000 0.0000 0.0000 40.7331 0.0000
# 6 0.0000 0.0000 0.0000 0.0000 0.0000 33.4701
#
#
#
# Elastic Compliance Matrix: (Units=1/GPa)
#
#
# Indices 1 2 3 4 5 6 
#
# 1 0.017057 -0.006819 -0.005403 0.000000 0.000000 0.000000
# 2 -0.006819 0.026768 -0.007974 0.000000 0.000000 0.000000
# 3 -0.005403 -0.007974 0.012615 0.000000 0.000000 0.000000
# 4 0.000000 0.000000 0.000000 0.025722 0.000000 0.000000
# 5 0.000000 0.000000 0.000000 0.000000 0.024550 0.000000
# 6 0.000000 0.000000 0.000000 0.000000 0.000000 0.029877
#
#
# Mechanical properties :
#
#
# Convention : Reuss Voigt Hill
#
# Bulk Modulus (GPa) = 62.31533 76.48612 69.40073
# Shear Modulus (GPa) = 27.42268 31.66622 29.54445
#
# Velocity S-wave (km/s) = 3.75858 4.03894 3.90128
# Velocity P-wave (km/s) = 7.13709 7.82004 7.48635
#
# Compressibility (1/GPa) = 0.01604742
#
# Stress axis : x y z
#
# Youngs Moduli (GPa) = 58.62742 37.35799 79.27019
#
# Poissons Ratio (x) = 0.25476 0.42830
# Poissons Ratio (y) = 0.39981 0.63209
# Poissons Ratio (z) = 0.31676 0.29789
#
# Static dielectric constant tensor:
#      x y z
#    x 3.726740 0.000000 0.000000 
#    y 0.000000 3.655850 0.000000 
#    z 0.000000 0.000000 3.564660 
# 
# 
# High freq. dielectric constant tensor:
#      x y z
#    x 1.768170 0.000000 0.000000 
#    y 0.000000 1.768230 0.000000 
#    z 0.000000 0.000000 1.761000 
# 
# From -- ./inp_files/24773.got.cif
#   From: 2010.03.12/outbox.cif.g09.slc.cpg/sg62_13_cif.got.tgz:24773.got - 2010.04.10 19:12:36.
