data_PCOD8253016
_publ_section_title
;
Structure prediction by ZEFSAII (Michael W. Deem and Ramdas Pophale) SiO2 
 PCOD8253016
Probable space group: P N M A
;
_chemical_formula_sum "Si O2"
_cell_formula_units_Z 48
_cell_length_a 23.748795
_cell_length_b 9.151841
_cell_length_c 11.576964
_cell_angle_alpha 90.000000
_cell_angle_beta 90.000000
_cell_angle_gamma 90.000000
_cell_volume 2516.197507
_symmetry_space_group_name_H-M "P N M A"
_symmetry_group_IT_number 62
_symmetry_cell_setting 'orthorhombic'
loop_
_space_group_symop_operation_xyz
x,y,z
1/2-x,-y,1/2+z
1/2+x,1/2-y,1/2-z
-x,1/2+y,-z
-x,-y,-z
1/2+x,y,1/2-z
1/2-x,1/2+y,1/2+z
x,1/2-y,z
loop_
_atom_site_type_symbol
_atom_site_label
_atom_site_fract_x
_atom_site_fract_y
_atom_site_fract_z
Si Si1 0.462874 0.421579 0.263201
Si Si2 0.426601 0.418638 0.788390
Si Si3 0.392226 0.420389 0.039767
Si Si4 0.298798 0.580579 0.164919
Si Si5 0.632820 0.078167 0.611431
Si Si6 0.827583 0.082339 0.887444
O O1 0.464100 0.250000 0.287642
O O2 0.525467 0.484743 0.271237
O O3 0.425885 0.497457 0.362349
O O4 0.437724 0.459892 0.137590
O O5 0.445963 0.250000 0.788719
O O6 0.416443 0.476496 0.918198
O O7 0.369373 0.441302 0.718714
O O8 0.379284 0.250000 0.033920
O O9 0.332923 0.496955 0.065537
O O10 0.308540 0.750000 0.141751
O O11 0.321472 0.536183 0.291200
O O12 0.233697 0.536778 0.158567
O O13 0.621397 0.250000 0.605839
O O14 0.656370 0.024099 0.490507
O O15 0.828715 0.250000 0.930743
#
# Coordination Sequence:
#
# PCOD8253016 Si02
#       6
#     8   8   8   8   8   8
#     4  10  20  36  58  84 114 145 184 232 279 327
#     4  10  21  36  56  82 114 149 185 226 276 330
#     4   9  19  35  58  85 111 146 184 228 280 328
#     4   9  20  37  57  81 110 144 182 228 276 327
#     4  10  21  38  60  82 108 146 189 226 274 334
#     4  10  22  38  55  80 113 147 183 227 276 324
#
# _framework density 19.076402000000002
#
# number of rings (size 3 to 8) (size 9 to 14) (size 15 to 20)
#    0.000    2.333    0.000    1.500    2.333    4.000 
#    0.000    0.000    0.000    0.000    0.000    0.000 
#    0.000    0.000    0.000    0.000    0.000    0.000 
#
# Total GULP energy -595435.859193 kJ/mol
# GULP energy per Si atom -12404.913733 kJ/mol
# Density = 1.903298 g / cm^3
# Si number density = 19.076402 Si / 1000 Ang^3
#
#
#
# Elastic Constant Matrix: (Units=GPa)
#
#
# Indices 1 2 3 4 5 6 
#
# 1 117.5602 38.7092 9.0846 0.0000 0.0000 0.0000
# 2 38.7092 63.4833 19.8325 0.0000 0.0000 0.0000
# 3 9.0846 19.8325 47.8014 0.0000 0.0000 0.0000
# 4 0.0000 0.0000 0.0000 30.9690 0.0000 0.0000
# 5 0.0000 0.0000 0.0000 0.0000 18.4954 0.0000
# 6 0.0000 0.0000 0.0000 0.0000 0.0000 35.0196
#
#
#
# Elastic Compliance Matrix: (Units=1/GPa)
#
#
# Indices 1 2 3 4 5 6 
#
# 1 0.010668 -0.006746 0.000771 0.000000 0.000000 0.000000
# 2 -0.006746 0.022364 -0.007997 0.000000 0.000000 0.000000
# 3 0.000771 -0.007997 0.024091 0.000000 0.000000 0.000000
# 4 0.000000 0.000000 0.000000 0.032290 0.000000 0.000000
# 5 0.000000 0.000000 0.000000 0.000000 0.054068 0.000000
# 6 0.000000 0.000000 0.000000 0.000000 0.000000 0.028555
#
#
# Mechanical properties :
#
#
# Convention : Reuss Voigt Hill
#
# Bulk Modulus (GPa) = 34.26930 40.45528 37.36229
# Shear Modulus (GPa) = 23.84308 27.64470 25.74389
#
# Velocity S-wave (km/s) = 3.53919 3.81091 3.67756
# Velocity P-wave (km/s) = 5.89104 6.37315 6.13683
#
# Compressibility (1/GPa) = 0.02918064
#
# Stress axis : x y z
#
# Youngs Moduli (GPa) = 93.73956 44.71556 41.50931
#
# Poissons Ratio (x) = 0.30164 -0.03202
# Poissons Ratio (y) = 0.63234 0.33193
# Poissons Ratio (z) = -0.07231 0.35757
#
# Static dielectric constant tensor:
#      x y z
#    x 3.541930 0.000000 0.000000 
#    y 0.000000 3.440260 0.000000 
#    z 0.000000 0.000000 3.467630 
# 
# 
# High freq. dielectric constant tensor:
#      x y z
#    x 1.748150 0.000000 0.000000 
#    y 0.000000 1.739960 0.000000 
#    z 0.000000 0.000000 1.739580 
# 
# From -- ./inp_files/15082.got.cif
#   From: 2010.03.12/outbox.cif.g09.slc.cpg/sg62_8_cif.got.tgz:15082.got - 2010.04.10 19:12:36.
