data_PCOD8253550
_publ_section_title
;
Structure prediction by ZEFSAII (Michael W. Deem and Ramdas Pophale) SiO2 
 PCOD8253550
Probable space group: P N M A
;
_chemical_formula_sum "Si O2"
_cell_formula_units_Z 48
_cell_length_a 27.215948
_cell_length_b 13.676418
_cell_length_c 6.549767
_cell_angle_alpha 90.000000
_cell_angle_beta 90.000000
_cell_angle_gamma 90.000000
_cell_volume 2437.932535
_symmetry_space_group_name_H-M "P N M A"
_symmetry_group_IT_number 62
_symmetry_cell_setting 'orthorhombic'
loop_
_space_group_symop_operation_xyz
x,y,z
1/2-x,-y,1/2+z
1/2+x,1/2-y,1/2-z
-x,1/2+y,-z
-x,-y,-z
1/2+x,y,1/2-z
1/2-x,1/2+y,1/2+z
x,1/2-y,z
loop_
_atom_site_type_symbol
_atom_site_label
_atom_site_fract_x
_atom_site_fract_y
_atom_site_fract_z
Si Si1 0.127309 0.364321 0.204278
Si Si2 0.700666 0.036210 0.602748
Si Si3 0.774165 0.358191 0.867614
Si Si4 0.887334 0.140069 0.755698
Si Si5 0.884134 0.989118 0.413387
Si Si6 0.442575 0.989442 0.473950
O O1 0.136242 0.250000 0.187783
O O2 0.124572 0.395678 0.440683
O O3 0.171347 0.421568 0.091483
O O4 0.075978 0.394004 0.097300
O O5 0.737725 0.119236 0.680247
O O6 0.664471 0.998960 0.778780
O O7 0.732767 0.941110 0.539932
O O8 0.761190 0.250000 0.953897
O O9 0.829632 0.360408 0.792042
O O10 0.908073 0.250000 0.740433
O O11 0.896617 0.085780 0.542175
O O12 0.914878 0.085738 0.940910
O O13 0.930669 0.973412 0.264867
O O14 0.500000 0.000000 0.500000
#
# Coordination Sequence:
#
# PCOD8253550 Si02
#       6
#     8   8   8   8   8   8
#     4  10  22  40  61  89 121 163 209 257 314 374
#     4  11  22  41  60  89 131 161 210 260 306 373
#     4  11  22  38  62  89 122 164 204 249 312 373
#     4  10  21  39  59  88 120 156 202 250 309 372
#     4  10  20  40  61  85 120 163 200 258 302 370
#     4  10  22  41  63  88 123 162 202 261 319 375
#
# _framework density 19.688811999999999
#
# number of rings (size 3 to 8) (size 9 to 14) (size 15 to 20)
#    0.000    1.667    5.000    1.500    0.000    8.000 
#    0.000    2.500    0.000    0.000    0.000    0.000 
#    0.000    0.000    0.000    0.000    0.000    0.000 
#
# Total GULP energy -595171.382643 kJ/mol
# GULP energy per Si atom -12399.403805 kJ/mol
# Density = 1.964400 g / cm^3
# Si number density = 19.688812 Si / 1000 Ang^3
#
#
#
# Elastic Constant Matrix: (Units=GPa)
#
#
# Indices 1 2 3 4 5 6 
#
# 1 101.7565 25.9278 32.2365 0.0000 0.0000 0.0000
# 2 25.9278 164.0203 48.5957 0.0000 0.0000 0.0000
# 3 32.2365 48.5957 115.3799 0.0000 0.0000 0.0000
# 4 0.0000 0.0000 0.0000 22.7361 0.0000 0.0000
# 5 0.0000 0.0000 0.0000 0.0000 22.0616 0.0000
# 6 0.0000 0.0000 0.0000 0.0000 0.0000 15.4858
#
#
#
# Elastic Compliance Matrix: (Units=1/GPa)
#
#
# Indices 1 2 3 4 5 6 
#
# 1 0.010907 -0.000938 -0.002652 0.000000 0.000000 0.000000
# 2 -0.000938 0.007047 -0.002706 0.000000 0.000000 0.000000
# 3 -0.002652 -0.002706 0.010548 0.000000 0.000000 0.000000
# 4 0.000000 0.000000 0.000000 0.043983 0.000000 0.000000
# 5 0.000000 0.000000 0.000000 0.000000 0.045328 0.000000
# 6 0.000000 0.000000 0.000000 0.000000 0.000000 0.064575
#
#
# Mechanical properties :
#
#
# Convention : Reuss Voigt Hill
#
# Bulk Modulus (GPa) = 62.85874 66.07517 64.46696
# Shear Modulus (GPa) = 24.96476 30.34981 27.65728
#
# Velocity S-wave (km/s) = 3.56471 3.93042 3.75203
# Velocity P-wave (km/s) = 6.99560 7.36412 7.18222
#
# Compressibility (1/GPa) = 0.01590869
#
# Stress axis : x y z
#
# Youngs Moduli (GPa) = 91.68726 141.90827 94.80811
#
# Poissons Ratio (x) = 0.13316 0.25144
# Poissons Ratio (y) = 0.08603 0.25653
# Poissons Ratio (z) = 0.24316 0.38398
#
# Static dielectric constant tensor:
#      x y z
#    x 3.537050 0.000000 0.000000 
#    y 0.000000 3.927400 0.000000 
#    z 0.000000 0.000000 3.726150 
# 
# 
# High freq. dielectric constant tensor:
#      x y z
#    x 1.757650 0.000000 0.000000 
#    y 0.000000 1.767460 0.000000 
#    z 0.000000 0.000000 1.771290 
# 
# From -- ./inp_files/3168.got.cif
#   From: 2010.03.12/outbox.cif.g09.slc.cpg/sg62_2_cif.got.tgz:3168.got - 2010.04.10 19:12:36.
