data_PCOD8253802
_publ_section_title
;
Structure prediction by ZEFSAII (Michael W. Deem and Ramdas Pophale) SiO2 
 PCOD8253802
Probable space group: P N M A
;
_chemical_formula_sum "Si O2"
_cell_formula_units_Z 64
_cell_length_a 12.508777
_cell_length_b 9.282981
_cell_length_c 28.859704
_cell_angle_alpha 90.000000
_cell_angle_beta 90.000000
_cell_angle_gamma 90.000000
_cell_volume 3351.152443
_symmetry_space_group_name_H-M "P N M A"
_symmetry_group_IT_number 62
_symmetry_cell_setting 'orthorhombic'
loop_
_space_group_symop_operation_xyz
x,y,z
1/2-x,-y,1/2+z
1/2+x,1/2-y,1/2-z
-x,1/2+y,-z
-x,-y,-z
1/2+x,y,1/2-z
1/2-x,1/2+y,1/2+z
x,1/2-y,z
loop_
_atom_site_type_symbol
_atom_site_label
_atom_site_fract_x
_atom_site_fract_y
_atom_site_fract_z
Si Si1 0.524231 0.085017 0.359186
Si Si2 0.386637 0.417591 0.053960
Si Si3 0.780225 0.091025 0.707428
Si Si4 0.630050 0.092370 0.787372
Si Si5 0.735629 0.581204 0.375116
Si Si6 0.044088 0.414831 0.247925
Si Si7 0.287336 0.084128 0.379307
Si Si8 0.372383 0.585270 0.961265
O O1 0.556263 0.250000 0.369298
O O2 0.505209 0.061449 0.304519
O O3 0.412754 0.043825 0.384623
O O4 0.617320 0.985260 0.379971
O O5 0.355312 0.250000 0.056971
O O6 0.319067 0.506757 0.090732
O O7 0.513147 0.441049 0.063769
O O8 0.357408 0.475231 0.003161
O O9 0.827672 0.250000 0.697731
O O10 0.668921 0.103218 0.734358
O O11 0.850113 0.004900 0.744347
O O12 0.769907 0.011011 0.659123
O O13 0.583406 0.250000 0.801611
O O14 0.723271 0.050166 0.823201
O O15 0.539921 0.970200 0.786625
O O16 0.728233 0.750000 0.386692
O O17 0.067365 0.250000 0.259060
O O18 0.276876 0.250000 0.363869
O O19 0.225609 0.053967 0.426869
O O20 0.367950 0.750000 0.979508
#
# Coordination Sequence:
#
# PCOD8253802 Si02
#       8
#     8   8   8   8   8   8   8   8
#     4  10  21  37  57  82 115 153 194 241 287 336
#     4  10  21  39  63  91 119 146 185 234 290 351
#     4  11  22  36  54  80 116 155 196 237 283 338
#     4  10  22  37  53  78 113 153 194 238 281 332
#     4  11  23  39  59  84 117 155 197 239 287 345
#     4  11  22  35  54  78 111 153 196 242 287 335
#     4  10  21  39  60  87 117 150 196 241 289 344
#     4   9  20  40  65  89 116 148 182 232 293 349
#
# _framework density 19.097906999999999
#
# number of rings (size 3 to 8) (size 9 to 14) (size 15 to 20)
#    0.000    1.750    2.500    1.500    1.750    3.500 
#    0.000    0.625    0.000    0.000    0.000    0.000 
#    0.000    0.000    0.000    0.000    0.000    0.000 
#
# Total GULP energy -793507.145306 kJ/mol
# GULP energy per Si atom -12398.549145 kJ/mol
# Density = 1.905444 g / cm^3
# Si number density = 19.097907 Si / 1000 Ang^3
#
#
#
# Elastic Constant Matrix: (Units=GPa)
#
#
# Indices 1 2 3 4 5 6 
#
# 1 102.1162 59.1681 39.9435 0.0000 0.0000 0.0000
# 2 59.1681 120.9477 45.0019 0.0000 0.0000 0.0000
# 3 39.9435 45.0019 62.3792 0.0000 0.0000 0.0000
# 4 0.0000 0.0000 0.0000 25.1028 0.0000 0.0000
# 5 0.0000 0.0000 0.0000 0.0000 35.1388 0.0000
# 6 0.0000 0.0000 0.0000 0.0000 0.0000 32.0698
#
#
#
# Elastic Compliance Matrix: (Units=1/GPa)
#
#
# Indices 1 2 3 4 5 6 
#
# 1 0.015122 -0.005187 -0.005941 0.000000 0.000000 0.000000
# 2 -0.005187 0.013081 -0.006115 0.000000 0.000000 0.000000
# 3 -0.005941 -0.006115 0.024247 0.000000 0.000000 0.000000
# 4 0.000000 0.000000 0.000000 0.039836 0.000000 0.000000
# 5 0.000000 0.000000 0.000000 0.000000 0.028459 0.000000
# 6 0.000000 0.000000 0.000000 0.000000 0.000000 0.031182
#
#
# Mechanical properties :
#
#
# Convention : Reuss Voigt Hill
#
# Bulk Modulus (GPa) = 55.67041 63.74113 59.70577
# Shear Modulus (GPa) = 25.98720 27.88425 26.93572
#
# Velocity S-wave (km/s) = 3.69282 3.82523 3.75961
# Velocity P-wave (km/s) = 6.88446 7.27724 7.08358
#
# Compressibility (1/GPa) = 0.01796286
#
# Stress axis : x y z
#
# Youngs Moduli (GPa) = 66.12748 76.44601 41.24216
#
# Poissons Ratio (x) = 0.39655 0.24502
# Poissons Ratio (y) = 0.34303 0.25221
# Poissons Ratio (z) = 0.39286 0.46750
#
# Static dielectric constant tensor:
#      x y z
#    x 3.497340 0.000000 0.000000 
#    y 0.000000 3.620100 0.000000 
#    z 0.000000 0.000000 3.248040 
# 
# 
# High freq. dielectric constant tensor:
#      x y z
#    x 1.744300 0.000000 0.000000 
#    y 0.000000 1.753360 0.000000 
#    z 0.000000 0.000000 1.720990 
# 
# From -- ./inp_files/32509.got.cif
#   From: 2010.03.12/outbox.cif.g09.slc.cpg/sg62_17_cif.got.tgz:32509.got - 2010.04.10 19:12:36.
