data_PCOD8253164
_publ_section_title
;
Structure prediction by ZEFSAII (Michael W. Deem and Ramdas Pophale) SiO2 
 PCOD8253164
Probable space group: P N M A
;
_chemical_formula_sum "Si O2"
_cell_formula_units_Z 56
_cell_length_a 10.951422
_cell_length_b 13.082985
_cell_length_c 20.346648
_cell_angle_alpha 90.000000
_cell_angle_beta 90.000000
_cell_angle_gamma 90.000000
_cell_volume 2915.212581
_symmetry_space_group_name_H-M "P N M A"
_symmetry_group_IT_number 62
_symmetry_cell_setting 'orthorhombic'
loop_
_space_group_symop_operation_xyz
x,y,z
1/2-x,-y,1/2+z
1/2+x,1/2-y,1/2-z
-x,1/2+y,-z
-x,-y,-z
1/2+x,y,1/2-z
1/2-x,1/2+y,1/2+z
x,1/2-y,z
loop_
_atom_site_type_symbol
_atom_site_label
_atom_site_fract_x
_atom_site_fract_y
_atom_site_fract_z
Si Si1 0.460930 0.006678 0.836053
Si Si2 0.459064 0.367670 0.382691
Si Si3 0.353301 0.634439 0.510153
Si Si4 0.657981 0.041840 0.292273
Si Si5 0.162058 0.632717 0.617072
Si Si6 0.665674 0.129486 0.764687
Si Si7 0.207165 0.041032 0.875402
O O1 0.388374 0.938790 0.781780
O O2 0.539097 0.933256 0.882805
O O3 0.542299 0.094310 0.801861
O O4 0.353730 0.056903 0.880297
O O5 0.455987 0.250000 0.357737
O O6 0.512577 0.372329 0.456723
O O7 0.543988 0.441129 0.339137
O O8 0.326255 0.419461 0.375396
O O9 0.315491 0.750000 0.497304
O O10 0.249893 0.589379 0.559469
O O11 0.358669 0.580771 0.440431
O O12 0.766839 0.119648 0.313022
O O13 0.715823 0.926977 0.296151
O O14 0.126977 0.750000 0.607155
O O15 0.682623 0.250000 0.773750
O O16 0.653910 0.099909 0.687972
#
# Coordination Sequence:
#
# PCOD8253164 Si02
#       7
#     8   8   8   8   8   8   8
#     4  10  21  35  52  81 116 140 185 228 282 335
#     4  10  20  37  58  82 115 147 183 234 274 327
#     4   9  19  36  58  80 104 145 194 231 278 329
#     4   9  18  36  52  78 108 143 182 222 279 330
#     4   9  19  35  55  78 108 146 187 232 277 330
#     4  10  21  37  56  79 112 146 183 232 278 331
#     4  11  21  36  57  83 113 148 188 227 280 335
#
# _framework density 19.209575999999998
#
# number of rings (size 3 to 8) (size 9 to 14) (size 15 to 20)
#    0.000    2.286    1.429    2.143    0.000    5.143 
#    0.000    2.143    0.000    7.714    0.000    0.000 
#    0.000    0.000    0.000    0.000    0.000    0.000 
#
# Total GULP energy -693935.840418 kJ/mol
# GULP energy per Si atom -12391.711436 kJ/mol
# Density = 1.916585 g / cm^3
# Si number density = 19.209576 Si / 1000 Ang^3
#
#
#
# Elastic Constant Matrix: (Units=GPa)
#
#
# Indices 1 2 3 4 5 6 
#
# 1 91.8707 47.3154 14.9824 0.0000 0.0000 0.0000
# 2 47.3154 106.5159 40.7358 0.0000 0.0000 0.0000
# 3 14.9824 40.7358 58.9933 0.0000 0.0000 0.0000
# 4 0.0000 0.0000 0.0000 19.7175 0.0000 0.0000
# 5 0.0000 0.0000 0.0000 0.0000 20.6793 0.0000
# 6 0.0000 0.0000 0.0000 0.0000 0.0000 24.2859
#
#
#
# Elastic Compliance Matrix: (Units=1/GPa)
#
#
# Indices 1 2 3 4 5 6 
#
# 1 0.014158 -0.006678 0.001015 0.000000 0.000000 0.000000
# 2 -0.006678 0.015907 -0.009288 0.000000 0.000000 0.000000
# 3 0.001015 -0.009288 0.023107 0.000000 0.000000 0.000000
# 4 0.000000 0.000000 0.000000 0.050716 0.000000 0.000000
# 5 0.000000 0.000000 0.000000 0.000000 0.048358 0.000000
# 6 0.000000 0.000000 0.000000 0.000000 0.000000 0.041176
#
#
# Mechanical properties :
#
#
# Convention : Reuss Voigt Hill
#
# Bulk Modulus (GPa) = 42.97163 51.49412 47.23287
# Shear Modulus (GPa) = 21.63760 23.22627 22.43193
#
# Velocity S-wave (km/s) = 3.35982 3.48098 3.42094
# Velocity P-wave (km/s) = 6.12125 6.55904 6.34392
#
# Compressibility (1/GPa) = 0.02327117
#
# Stress axis : x y z
#
# Youngs Moduli (GPa) = 70.62959 62.86729 43.27759
#
# Poissons Ratio (x) = 0.41980 -0.04393
# Poissons Ratio (y) = 0.47163 0.40196
# Poissons Ratio (z) = -0.07170 0.58390
#
# Static dielectric constant tensor:
#      x y z
#    x 3.667250 0.000000 0.000000 
#    y 0.000000 3.336300 0.000000 
#    z 0.000000 0.000000 3.474310 
# 
# 
# High freq. dielectric constant tensor:
#      x y z
#    x 1.750240 0.000000 0.000000 
#    y 0.000000 1.730130 0.000000 
#    z 0.000000 0.000000 1.733800 
# 
# From -- ./inp_files/26617.got.cif
#   From: 2010.03.12/outbox.cif.g09.slc.cpg/sg62_14_cif.got.tgz:26617.got - 2010.04.10 19:12:36.
