data_PCOD8253200
_publ_section_title
;
Structure prediction by ZEFSAII (Michael W. Deem and Ramdas Pophale) SiO2 
 PCOD8253200
Probable space group: P N M A
;
_chemical_formula_sum "Si O2"
_cell_formula_units_Z 56
_cell_length_a 16.348744
_cell_length_b 8.754235
_cell_length_c 19.941307
_cell_angle_alpha 90.000000
_cell_angle_beta 90.000000
_cell_angle_gamma 90.000000
_cell_volume 2854.014753
_symmetry_space_group_name_H-M "P N M A"
_symmetry_group_IT_number 62
_symmetry_cell_setting 'orthorhombic'
loop_
_space_group_symop_operation_xyz
x,y,z
1/2-x,-y,1/2+z
1/2+x,1/2-y,1/2-z
-x,1/2+y,-z
-x,-y,-z
1/2+x,y,1/2-z
1/2-x,1/2+y,1/2+z
x,1/2-y,z
loop_
_atom_site_type_symbol
_atom_site_label
_atom_site_fract_x
_atom_site_fract_y
_atom_site_fract_z
Si Si1 0.249276 0.074396 0.465611
Si Si2 0.177021 0.929996 0.703738
Si Si3 0.688043 0.930154 0.388942
Si Si4 0.520736 0.929962 0.329248
Si Si5 0.159788 0.429778 0.844631
Si Si6 0.505844 0.430770 0.819636
Si Si7 0.437661 0.572711 0.948359
O O1 0.265310 0.250000 0.446151
O O2 0.294045 0.030044 0.534215
O O3 0.153420 0.041891 0.474834
O O4 0.284625 0.968016 0.407760
O O5 0.164448 0.750000 0.703849
O O6 0.253488 0.974508 0.658684
O O7 0.194553 0.987020 0.778998
O O8 0.097580 0.008081 0.671258
O O9 0.699159 0.750000 0.374641
O O10 0.596109 0.990467 0.373572
O O11 0.522096 0.750000 0.331023
O O12 0.433509 0.986827 0.358424
O O13 0.529693 0.984247 0.252129
O O14 0.162092 0.250000 0.830287
O O15 0.508633 0.250000 0.827207
O O16 0.446223 0.498659 0.875396
O O17 0.457646 0.750000 0.942889
O O18 0.500000 0.500000 0.000000
#
# Coordination Sequence:
#
# PCOD8253200 Si02
#       7
#     8   8   8   8   8   8   8
#     4  10  23  39  57  86 122 157 195 244 301 357
#     4  11  22  37  59  88 120 153 193 245 301 356
#     4  10  20  38  61  85 118 158 197 242 297 354
#     4   8  18  36  59  86 112 147 198 243 288 347
#     4  10  21  39  61  85 116 156 202 247 295 356
#     4  10  20  37  59  85 114 151 198 245 296 357
#     4  11  23  38  57  85 121 159 200 246 300 361
#
# _framework density 19.621483000000001
#
# number of rings (size 3 to 8) (size 9 to 14) (size 15 to 20)
#    0.000    2.000    0.000    4.286    2.000    3.429 
#    0.000    3.571    0.000    0.000    0.000    0.000 
#    0.000    0.000    0.000    0.000    0.000    0.000 
#
# Total GULP energy -694537.000488 kJ/mol
# GULP energy per Si atom -12402.446437 kJ/mol
# Density = 1.957682 g / cm^3
# Si number density = 19.621483 Si / 1000 Ang^3
#
#
#
# Elastic Constant Matrix: (Units=GPa)
#
#
# Indices 1 2 3 4 5 6 
#
# 1 62.9322 34.8729 38.1094 0.0000 0.0000 0.0000
# 2 34.8729 81.9847 33.9585 0.0000 0.0000 0.0000
# 3 38.1094 33.9585 96.9050 0.0000 0.0000 0.0000
# 4 0.0000 0.0000 0.0000 32.3867 0.0000 0.0000
# 5 0.0000 0.0000 0.0000 0.0000 39.1459 0.0000
# 6 0.0000 0.0000 0.0000 0.0000 0.0000 24.0547
#
#
#
# Elastic Compliance Matrix: (Units=1/GPa)
#
#
# Indices 1 2 3 4 5 6 
#
# 1 0.024191 -0.007427 -0.006911 0.000000 0.000000 0.000000
# 2 -0.007427 0.016549 -0.002878 0.000000 0.000000 0.000000
# 3 -0.006911 -0.002878 0.014046 0.000000 0.000000 0.000000
# 4 0.000000 0.000000 0.000000 0.030877 0.000000 0.000000
# 5 0.000000 0.000000 0.000000 0.000000 0.025545 0.000000
# 6 0.000000 0.000000 0.000000 0.000000 0.000000 0.041572
#
#
# Mechanical properties :
#
#
# Convention : Reuss Voigt Hill
#
# Bulk Modulus (GPa) = 49.13325 50.63372 49.88348
# Shear Modulus (GPa) = 25.77368 28.10952 26.94160
#
# Velocity S-wave (km/s) = 3.62822 3.78906 3.70951
# Velocity P-wave (km/s) = 6.53045 6.70850 6.62007
#
# Compressibility (1/GPa) = 0.02035281
#
# Stress axis : x y z
#
# Youngs Moduli (GPa) = 41.33826 60.42703 71.19594
#
# Poissons Ratio (x) = 0.44881 0.49201
# Poissons Ratio (y) = 0.30703 0.20493
# Poissons Ratio (z) = 0.28567 0.17393
#
# Static dielectric constant tensor:
#      x y z
#    x 3.836850 0.000000 0.000000 
#    y 0.000000 3.470250 0.000000 
#    z 0.000000 0.000000 3.675880 
# 
# 
# High freq. dielectric constant tensor:
#      x y z
#    x 1.771990 0.000000 0.000000 
#    y 0.000000 1.755740 0.000000 
#    z 0.000000 0.000000 1.768760 
# 
# From -- ./inp_files/27191.got.cif
#   From: 2010.03.12/outbox.cif.g09.slc.cpg/sg62_14_cif.got.tgz:27191.got - 2010.04.10 19:12:36.
