data_PCOD8253289
_publ_section_title
;
Structure prediction by ZEFSAII (Michael W. Deem and Ramdas Pophale) SiO2 
 PCOD8253289
Probable space group: P N M A
;
_chemical_formula_sum "Si O2"
_cell_formula_units_Z 48
_cell_length_a 18.368988
_cell_length_b 13.975935
_cell_length_c 9.692651
_cell_angle_alpha 90.000000
_cell_angle_beta 90.000000
_cell_angle_gamma 90.000000
_cell_volume 2488.334025
_symmetry_space_group_name_H-M "P N M A"
_symmetry_group_IT_number 62
_symmetry_cell_setting 'orthorhombic'
loop_
_space_group_symop_operation_xyz
x,y,z
1/2-x,-y,1/2+z
1/2+x,1/2-y,1/2-z
-x,1/2+y,-z
-x,-y,-z
1/2+x,y,1/2-z
1/2-x,1/2+y,1/2+z
x,1/2-y,z
loop_
_atom_site_type_symbol
_atom_site_label
_atom_site_fract_x
_atom_site_fract_y
_atom_site_fract_z
Si Si1 0.525326 0.551261 0.136165
Si Si2 0.202768 0.956426 0.011959
Si Si3 0.672457 0.047141 0.211961
Si Si4 0.483876 0.250000 0.995631
Si Si5 0.638195 0.250000 0.139872
Si Si6 0.552054 0.538565 0.618107
Si Si7 0.208397 0.750000 0.981867
Si Si8 0.921248 0.250000 0.208024
O O1 0.604451 0.521401 0.189083
O O2 0.529273 0.662933 0.107095
O O3 0.464565 0.523695 0.247295
O O4 0.500000 0.500000 0.000000
O O5 0.274114 0.962795 0.917707
O O6 0.133956 0.989336 0.922617
O O7 0.188078 0.846743 0.063285
O O8 0.214115 0.020419 0.147279
O O9 0.642323 0.154803 0.232759
O O10 0.565467 0.250000 0.051433
O O11 0.428288 0.250000 0.125789
O O12 0.705584 0.250000 0.036805
O O13 0.500000 0.500000 0.500000
O O14 0.541389 0.653163 0.646272
O O15 0.164429 0.750000 0.834384
#
# Coordination Sequence:
#
# PCOD8253289 Si02
#       8
#     8   8   8   4   4   8   4   4
#     4  12  24  40  65  94 125 168 215 265 317 380
#     4  10  23  40  65  92 127 169 210 267 317 387
#     4  11  23  41  63  92 127 168 213 262 324 380
#     4  12  24  38  66  96 128 166 217 270 314 385
#     4  10  20  38  61  88 121 166 211 253 317 385
#     4  11  22  41  63  93 129 167 214 263 321 377
#     4   8  20  37  61  86 124 164 209 249 327 372
#     4  10  20  37  62  86 125 174 205 256 324 378
#
# _framework density 19.290013999999999
#
# number of rings (size 3 to 8) (size 9 to 14) (size 15 to 20)
#    0.000    1.333    5.000    0.000    2.333    2.667 
#    0.000    1.667    0.000    0.000    0.000    0.000 
#    0.000    0.000    0.000    0.000    0.000    0.000 
#
# Total GULP energy -595032.403286 kJ/mol
# GULP energy per Si atom -12396.508402 kJ/mol
# Density = 1.924611 g / cm^3
# Si number density = 19.290014 Si / 1000 Ang^3
#
#
#
# Elastic Constant Matrix: (Units=GPa)
#
#
# Indices 1 2 3 4 5 6 
#
# 1 80.6375 27.4229 17.4115 0.0000 0.0000 0.0000
# 2 27.4229 158.0555 58.6007 0.0000 0.0000 0.0000
# 3 17.4115 58.6007 105.4903 0.0000 0.0000 0.0000
# 4 0.0000 0.0000 0.0000 30.3576 0.0000 0.0000
# 5 0.0000 0.0000 0.0000 0.0000 32.4745 0.0000
# 6 0.0000 0.0000 0.0000 0.0000 0.0000 25.8962
#
#
#
# Elastic Compliance Matrix: (Units=1/GPa)
#
#
# Indices 1 2 3 4 5 6 
#
# 1 0.013288 -0.001879 -0.001149 0.000000 0.000000 0.000000
# 2 -0.001879 0.008234 -0.004264 0.000000 0.000000 0.000000
# 3 -0.001149 -0.004264 0.012038 0.000000 0.000000 0.000000
# 4 0.000000 0.000000 0.000000 0.032941 0.000000 0.000000
# 5 0.000000 0.000000 0.000000 0.000000 0.030793 0.000000
# 6 0.000000 0.000000 0.000000 0.000000 0.000000 0.038616
#
#
# Mechanical properties :
#
#
# Convention : Reuss Voigt Hill
#
# Bulk Modulus (GPa) = 52.70049 61.22818 56.96434
# Shear Modulus (GPa) = 31.88374 33.79555 32.83965
#
# Velocity S-wave (km/s) = 4.06995 4.19020 4.13051
# Velocity P-wave (km/s) = 7.03317 7.43102 7.23483
#
# Compressibility (1/GPa) = 0.01897516
#
# Stress axis : x y z
#
# Youngs Moduli (GPa) = 75.25311 121.45044 83.07188
#
# Poissons Ratio (x) = 0.22826 0.09547
# Poissons Ratio (y) = 0.14144 0.35420
# Poissons Ratio (z) = 0.08648 0.51783
#
# Static dielectric constant tensor:
#      x y z
#    x 3.715590 0.000000 0.000000 
#    y 0.000000 3.881780 0.000000 
#    z 0.000000 0.000000 3.939250 
# 
# 
# High freq. dielectric constant tensor:
#      x y z
#    x 1.759990 0.000000 0.000000 
#    y 0.000000 1.764410 0.000000 
#    z 0.000000 0.000000 1.735840 
# 
# From -- ./inp_files/7700.got.cif
#   From: 2010.03.12/outbox.cif.g09.slc.cpg/sg62_4_cif.got.tgz:7700.got - 2010.04.10 19:12:36.
