data_PCOD8253809
_publ_section_title
;
Structure prediction by ZEFSAII (Michael W. Deem and Ramdas Pophale) SiO2 
 PCOD8253809
Probable space group: P N M A
;
_chemical_formula_sum "Si O2"
_cell_formula_units_Z 64
_cell_length_a 14.513400
_cell_length_b 9.074210
_cell_length_c 24.530501
_cell_angle_alpha 90.000000
_cell_angle_beta 90.000000
_cell_angle_gamma 90.000000
_cell_volume 3230.609075
_symmetry_space_group_name_H-M "P N M A"
_symmetry_group_IT_number 62
_symmetry_cell_setting 'orthorhombic'
loop_
_space_group_symop_operation_xyz
x,y,z
1/2-x,-y,1/2+z
1/2+x,1/2-y,1/2-z
-x,1/2+y,-z
-x,-y,-z
1/2+x,y,1/2-z
1/2-x,1/2+y,1/2+z
x,1/2-y,z
loop_
_atom_site_type_symbol
_atom_site_label
_atom_site_fract_x
_atom_site_fract_y
_atom_site_fract_z
Si Si1 0.312684 0.924898 0.694296
Si Si2 0.949443 0.420069 0.048739
Si Si3 0.841547 0.085161 0.609302
Si Si4 0.522329 0.422778 0.943478
Si Si5 0.215264 0.416316 0.986586
Si Si6 0.486962 0.080988 0.329911
Si Si7 0.724864 0.424665 0.909042
Si Si8 0.284940 0.076254 0.306246
O O1 0.310601 0.750000 0.683297
O O2 0.419566 0.982417 0.697981
O O3 0.260088 0.969146 0.749211
O O4 0.258328 0.007626 0.647217
O O5 0.934231 0.250000 0.034211
O O6 0.852602 0.502359 0.055616
O O7 0.003174 0.438969 0.105437
O O8 0.000000 0.500000 0.000000
O O9 0.831316 0.250000 0.633376
O O10 0.811056 0.083439 0.545638
O O11 0.948260 0.036351 0.604072
O O12 0.782830 0.977916 0.646592
O O13 0.521680 0.250000 0.955578
O O14 0.619737 0.473403 0.918973
O O15 0.500000 0.500000 0.000000
O O16 0.181873 0.250000 0.999924
O O17 0.215187 0.507462 0.042282
O O18 0.479153 0.250000 0.313194
O O19 0.389317 0.007654 0.310741
O O20 0.738165 0.250000 0.908080
O O21 0.291238 0.250000 0.314096
#
# Coordination Sequence:
#
# PCOD8253809 Si02
#       8
#     8   8   8   8   8   8   8   8
#     4  10  22  40  62  86 117 156 197 244 296 353
#     4  11  21  34  55  83 120 158 198 245 299 359
#     4  10  21  37  58  85 117 152 193 243 297 352
#     4  10  21  37  57  85 120 158 196 241 299 360
#     4  11  21  35  57  84 117 154 196 243 297 356
#     4   9  19  37  58  83 116 151 189 239 291 344
#     4  11  23  38  59  87 121 157 197 245 299 359
#     4  10  21  39  63  87 114 153 202 247 291 350
#
# _framework density 19.810504999999999
#
# number of rings (size 3 to 8) (size 9 to 14) (size 15 to 20)
#    0.000    1.750    2.500    1.875    0.000    4.000 
#    0.000    2.500    0.000    0.000    0.000    0.000 
#    0.000    0.000    0.000    0.000    0.000    0.000 
#
# Total GULP energy -793349.395398 kJ/mol
# GULP energy per Si atom -12396.084303 kJ/mol
# Density = 1.976542 g / cm^3
# Si number density = 19.810505 Si / 1000 Ang^3
#
#
#
# Elastic Constant Matrix: (Units=GPa)
#
#
# Indices 1 2 3 4 5 6 
#
# 1 139.7835 36.4429 60.0753 0.0000 0.0000 0.0000
# 2 36.4429 60.3699 43.0206 0.0000 0.0000 0.0000
# 3 60.0753 43.0206 109.6150 0.0000 0.0000 0.0000
# 4 0.0000 0.0000 0.0000 29.8974 0.0000 0.0000
# 5 0.0000 0.0000 0.0000 0.0000 33.5605 0.0000
# 6 0.0000 0.0000 0.0000 0.0000 0.0000 27.2855
#
#
#
# Elastic Compliance Matrix: (Units=1/GPa)
#
#
# Indices 1 2 3 4 5 6 
#
# 1 0.009704 -0.002871 -0.004192 0.000000 0.000000 0.000000
# 2 -0.002871 0.023845 -0.007785 0.000000 0.000000 0.000000
# 3 -0.004192 -0.007785 0.014475 0.000000 0.000000 0.000000
# 4 0.000000 0.000000 0.000000 0.033448 0.000000 0.000000
# 5 0.000000 0.000000 0.000000 0.000000 0.029797 0.000000
# 6 0.000000 0.000000 0.000000 0.000000 0.000000 0.036650
#
#
# Mechanical properties :
#
#
# Convention : Reuss Voigt Hill
#
# Bulk Modulus (GPa) = 54.55674 65.42735 59.99204
# Shear Modulus (GPa) = 27.21475 29.49731 28.35603
#
# Velocity S-wave (km/s) = 3.71044 3.86291 3.78744
# Velocity P-wave (km/s) = 6.77905 7.27972 7.03384
#
# Compressibility (1/GPa) = 0.01832954
#
# Stress axis : x y z
#
# Youngs Moduli (GPa) = 103.05261 41.93676 69.08234
#
# Poissons Ratio (x) = 0.12039 0.28956
# Poissons Ratio (y) = 0.29585 0.53782
# Poissons Ratio (z) = 0.43195 0.32649
#
# Static dielectric constant tensor:
#      x y z
#    x 4.029700 0.000000 0.000000 
#    y 0.000000 3.520600 0.000000 
#    z 0.000000 0.000000 3.404390 
# 
# 
# High freq. dielectric constant tensor:
#      x y z
#    x 1.793540 0.000000 0.000000 
#    y 0.000000 1.756290 0.000000 
#    z 0.000000 0.000000 1.761540 
# 
# From -- ./inp_files/29766.got.cif
#   From: 2010.03.12/outbox.cif.g09.slc.cpg/sg62_15_cif.got.tgz:29766.got - 2010.04.10 19:12:36.
