data_PCOD8253265
_publ_section_title
;
Structure prediction by ZEFSAII (Michael W. Deem and Ramdas Pophale) SiO2 
 PCOD8253265
Probable space group: P N M A
;
_chemical_formula_sum "Si O2"
_cell_formula_units_Z 48
_cell_length_a 30.079154
_cell_length_b 8.907729
_cell_length_c 8.835520
_cell_angle_alpha 90.000000
_cell_angle_beta 90.000000
_cell_angle_gamma 90.000000
_cell_volume 2367.362302
_symmetry_space_group_name_H-M "P N M A"
_symmetry_group_IT_number 62
_symmetry_cell_setting 'orthorhombic'
loop_
_space_group_symop_operation_xyz
x,y,z
1/2-x,-y,1/2+z
1/2+x,1/2-y,1/2-z
-x,1/2+y,-z
-x,-y,-z
1/2+x,y,1/2-z
1/2-x,1/2+y,1/2+z
x,1/2-y,z
loop_
_atom_site_type_symbol
_atom_site_label
_atom_site_fract_x
_atom_site_fract_y
_atom_site_fract_z
Si Si1 0.962021 0.074874 0.701151
Si Si2 0.697081 0.573770 0.190592
Si Si3 0.636453 0.923804 0.663873
Si Si4 0.723396 0.924488 0.853549
Si Si5 0.050770 0.923861 0.644093
Si Si6 0.117829 0.426972 0.148448
O O1 0.959120 0.250000 0.736125
O O2 0.945534 0.034462 0.532453
O O3 0.931415 0.989325 0.821451
O O4 0.012548 0.020928 0.724560
O O5 0.689222 0.750000 0.205861
O O6 0.734577 0.523378 0.308172
O O7 0.650864 0.493415 0.226408
O O8 0.710774 0.527037 0.022354
O O9 0.633834 0.750000 0.615505
O O10 0.682690 0.961678 0.743785
O O11 0.597361 0.964999 0.780015
O O12 0.633630 0.026768 0.517622
O O13 0.736554 0.750000 0.845875
O O14 0.038318 0.750000 0.663797
O O15 0.117590 0.250000 0.161630
#
# Coordination Sequence:
#
# PCOD8253265 Si02
#       6
#     8   8   8   8   8   8
#     4  10  20  37  61  87 116 151 191 236 289 344
#     4  11  23  40  62  87 117 152 190 234 286 341
#     4  10  21  39  61  84 116 154 191 235 286 338
#     4  10  22  40  62  89 118 150 190 234 282 339
#     4   9  19  37  61  88 116 149 191 237 286 342
#     4  12  25  39  57  84 117 152 195 241 285 339
#
# _framework density 20.275728999999998
#
# number of rings (size 3 to 8) (size 9 to 14) (size 15 to 20)
#    0.000    1.667    0.000    4.500    0.000    9.333 
#    0.000    1.667    0.000    0.000    0.000    0.000 
#    0.000    0.000    0.000    0.000    0.000    0.000 
#
# Total GULP energy -595551.639723 kJ/mol
# GULP energy per Si atom -12407.325828 kJ/mol
# Density = 2.022958 g / cm^3
# Si number density = 20.275729 Si / 1000 Ang^3
#
#
#
# Elastic Constant Matrix: (Units=GPa)
#
#
# Indices 1 2 3 4 5 6 
#
# 1 62.5053 18.2837 -10.6735 0.0000 0.0000 0.0000
# 2 18.2837 80.8718 14.5606 0.0000 0.0000 0.0000
# 3 -10.6735 14.5606 48.0660 0.0000 0.0000 0.0000
# 4 0.0000 0.0000 0.0000 29.7610 0.0000 0.0000
# 5 0.0000 0.0000 0.0000 0.0000 35.8481 0.0000
# 6 0.0000 0.0000 0.0000 0.0000 0.0000 36.3345
#
#
#
# Elastic Compliance Matrix: (Units=1/GPa)
#
#
# Indices 1 2 3 4 5 6 
#
# 1 0.018491 -0.005204 0.005682 0.000000 0.000000 0.000000
# 2 -0.005204 0.014543 -0.005561 0.000000 0.000000 0.000000
# 3 0.005682 -0.005561 0.023751 0.000000 0.000000 0.000000
# 4 0.000000 0.000000 0.000000 0.033601 0.000000 0.000000
# 5 0.000000 0.000000 0.000000 0.000000 0.027895 0.000000
# 6 0.000000 0.000000 0.000000 0.000000 0.000000 0.027522
#
#
# Mechanical properties :
#
#
# Convention : Reuss Voigt Hill
#
# Bulk Modulus (GPa) = 21.44963 26.19831 23.82397
# Shear Modulus (GPa) = 29.15310 31.67355 30.41332
#
# Velocity S-wave (km/s) = 3.79599 3.95668 3.87717
# Velocity P-wave (km/s) = 5.46028 5.81574 5.64081
#
# Compressibility (1/GPa) = 0.04662085
#
# Stress axis : x y z
#
# Youngs Moduli (GPa) = 54.08002 68.76189 42.10323
#
# Poissons Ratio (x) = 0.35781 -0.23925
# Poissons Ratio (y) = 0.28141 0.23414
# Poissons Ratio (z) = -0.30731 0.38239
#
# Static dielectric constant tensor:
#      x y z
#    x 3.767840 0.000000 0.000000 
#    y 0.000000 3.596460 0.000000 
#    z 0.000000 0.000000 3.696740 
# 
# 
# High freq. dielectric constant tensor:
#      x y z
#    x 1.805610 0.000000 0.000000 
#    y 0.000000 1.789390 0.000000 
#    z 0.000000 0.000000 1.795320 
# 
# From -- ./inp_files/10261.got.cif
#   From: 2010.03.12/outbox.cif.g09.slc.cpg/sg62_6_cif.got.tgz:10261.got - 2010.04.10 19:12:36.
