data_PCOD8253928
_publ_section_title
;
Structure prediction by ZEFSAII (Michael W. Deem and Ramdas Pophale) SiO2 
 PCOD8253928
Probable space group: P N M A
;
_chemical_formula_sum "Si O2"
_cell_formula_units_Z 40
_cell_length_a 9.024812
_cell_length_b 24.498938
_cell_length_c 7.778291
_cell_angle_alpha 90.000000
_cell_angle_beta 90.000000
_cell_angle_gamma 90.000000
_cell_volume 1719.766992
_symmetry_space_group_name_H-M "P N M A"
_symmetry_group_IT_number 62
_symmetry_cell_setting 'orthorhombic'
loop_
_space_group_symop_operation_xyz
x,y,z
1/2-x,-y,1/2+z
1/2+x,1/2-y,1/2-z
-x,1/2+y,-z
-x,-y,-z
1/2+x,y,1/2-z
1/2-x,1/2+y,1/2+z
x,1/2-y,z
loop_
_atom_site_type_symbol
_atom_site_label
_atom_site_fract_x
_atom_site_fract_y
_atom_site_fract_z
Si Si1 0.824134 0.850236 0.989796
Si Si2 0.465273 0.524345 0.784028
Si Si3 0.226241 0.750000 0.300062
Si Si4 0.070923 0.250000 0.511580
Si Si5 0.296085 0.968989 0.430025
Si Si6 0.028447 0.646988 0.698251
O O1 0.703699 0.847203 0.833840
O O2 0.986278 0.847013 0.900186
O O3 0.806648 0.801890 0.120556
O O4 0.804004 0.904333 0.103990
O O5 0.623349 0.500137 0.727405
O O6 0.377566 0.488583 0.929041
O O7 0.364351 0.519176 0.614361
O O8 0.478247 0.586004 0.856205
O O9 0.265833 0.750000 0.097638
O O10 0.051555 0.750000 0.335247
O O11 0.056650 0.194936 0.402297
#
# Coordination Sequence:
#
# PCOD8253928 Si02
#       6
#     8   8   4   4   8   8
#     4  10  22  39  60  86 116 152 197 242 289 349
#     4  10  21  38  58  85 118 153 195 239 288 344
#     4  10  23  40  58  90 120 146 193 244 296 346
#     4  10  23  40  62  88 118 154 191 240 294 346
#     4  10  22  37  58  86 117 154 194 239 288 345
#     4  10  21  40  62  85 116 157 197 235 288 352
#
# _framework density 23.258963999999999
#
# number of rings (size 3 to 8) (size 9 to 14) (size 15 to 20)
#    0.000    2.000    0.000    3.000    0.000    9.600 
#    0.000    0.000    0.000    0.000    0.000    0.000 
#    0.000    0.000    0.000    0.000    0.000    0.000 
#
# Total GULP energy -495883.141025 kJ/mol
# GULP energy per Si atom -12397.078526 kJ/mol
# Density = 2.320603 g / cm^3
# Si number density = 23.258964 Si / 1000 Ang^3
#
#
#
# Elastic Constant Matrix: (Units=GPa)
#
#
# Indices 1 2 3 4 5 6 
#
# 1 73.0147 33.8806 11.8217 0.0000 0.0000 0.0000
# 2 33.8806 164.1943 32.9718 0.0000 0.0000 0.0000
# 3 11.8217 32.9718 33.4655 0.0000 0.0000 0.0000
# 4 0.0000 0.0000 0.0000 24.8853 0.0000 0.0000
# 5 0.0000 0.0000 0.0000 0.0000 48.3637 0.0000
# 6 0.0000 0.0000 0.0000 0.0000 0.0000 30.9562
#
#
#
# Elastic Compliance Matrix: (Units=1/GPa)
#
#
# Indices 1 2 3 4 5 6 
#
# 1 0.015364 -0.002594 -0.002872 0.000000 0.000000 0.000000
# 2 -0.002594 0.008030 -0.006996 0.000000 0.000000 0.000000
# 3 -0.002872 -0.006996 0.037788 0.000000 0.000000 0.000000
# 4 0.000000 0.000000 0.000000 0.040184 0.000000 0.000000
# 5 0.000000 0.000000 0.000000 0.000000 0.020677 0.000000
# 6 0.000000 0.000000 0.000000 0.000000 0.000000 0.032304
#
#
# Mechanical properties :
#
#
# Convention : Reuss Voigt Hill
#
# Bulk Modulus (GPa) = 27.57826 47.55808 37.56817
# Shear Modulus (GPa) = 26.12913 33.64109 29.88511
#
# Velocity S-wave (km/s) = 3.35535 3.80724 3.58842
# Velocity P-wave (km/s) = 5.18594 6.31018 5.77548
#
# Compressibility (1/GPa) = 0.03626044
#
# Stress axis : x y z
#
# Youngs Moduli (GPa) = 65.08561 124.52822 26.46310
#
# Poissons Ratio (x) = 0.32298 0.07601
# Poissons Ratio (y) = 0.16881 0.18513
# Poissons Ratio (z) = 0.18693 0.87115
#
# Static dielectric constant tensor:
#      x y z
#    x 4.311740 0.000000 0.000000 
#    y 0.000000 4.351400 0.000000 
#    z 0.000000 0.000000 3.932500 
# 
# 
# High freq. dielectric constant tensor:
#      x y z
#    x 1.927510 0.000000 0.000000 
#    y 0.000000 1.932520 0.000000 
#    z 0.000000 0.000000 1.906370 
# 
# From -- ./inp_files/4421.got.cif
#   From: 2010.03.12/outbox.cif.g09.slc.cpg/sg62_3_cif.got.tgz:4421.got - 2010.04.10 19:12:36.
