data_PCOD8253313
_publ_section_title
;
Structure prediction by ZEFSAII (Michael W. Deem and Ramdas Pophale) SiO2 
 PCOD8253313
Probable space group: P N M A
;
_chemical_formula_sum "Si O2"
_cell_formula_units_Z 64
_cell_length_a 15.252716
_cell_length_b 22.263897
_cell_length_c 9.056501
_cell_angle_alpha 90.000000
_cell_angle_beta 90.000000
_cell_angle_gamma 90.000000
_cell_volume 3075.450968
_symmetry_space_group_name_H-M "P N M A"
_symmetry_group_IT_number 62
_symmetry_cell_setting 'orthorhombic'
loop_
_space_group_symop_operation_xyz
x,y,z
1/2-x,-y,1/2+z
1/2+x,1/2-y,1/2-z
-x,1/2+y,-z
-x,-y,-z
1/2+x,y,1/2-z
1/2-x,1/2+y,1/2+z
x,1/2-y,z
loop_
_atom_site_type_symbol
_atom_site_label
_atom_site_fract_x
_atom_site_fract_y
_atom_site_fract_z
Si Si1 0.977043 0.939455 0.920760
Si Si2 0.701183 0.819101 0.064904
Si Si3 0.131891 0.387064 0.819810
Si Si4 0.034095 0.818564 0.270547
Si Si5 0.746164 0.317094 0.235983
Si Si6 0.267673 0.537154 0.102020
Si Si7 0.131928 0.635360 0.998803
Si Si8 0.167212 0.056528 0.285844
O O1 0.933848 0.953101 0.761233
O O2 0.065284 0.902111 0.895878
O O3 0.906169 0.904741 0.021423
O O4 0.000000 0.000000 0.000000
O O5 0.703400 0.750000 0.112132
O O6 0.782238 0.847411 0.152787
O O7 0.606369 0.845516 0.115210
O O8 0.706578 0.828389 0.890785
O O9 0.159505 0.444135 0.721831
O O10 0.057957 0.353466 0.722374
O O11 0.011719 0.750000 0.306426
O O12 0.076551 0.824056 0.109202
O O13 0.702038 0.250000 0.233761
O O14 0.817015 0.319011 0.105943
O O15 0.678881 0.371273 0.207237
O O16 0.194309 0.588786 0.085737
O O17 0.313469 0.525659 0.943184
O O18 0.227076 0.474526 0.159031
#
# Coordination Sequence:
#
# PCOD8253313 Si02
#       8
#     8   8   8   8   8   8   8   8
#     4  11  22  40  62  92 128 165 211 266 324 386
#     4  10  20  37  63  90 126 171 212 262 318 376
#     4  11  22  39  60  91 130 166 213 266 316 394
#     4  10  21  37  61  92 126 170 217 266 318 380
#     4  10  22  40  62  91 123 166 215 261 320 385
#     4  11  23  39  65  94 127 172 213 265 328 390
#     4  10  21  38  64  90 129 165 212 263 324 387
#     4  11  23  41  65  94 128 170 215 267 324 386
#
# _framework density 20.809957000000001
#
# number of rings (size 3 to 8) (size 9 to 14) (size 15 to 20)
#    0.000    1.500    3.750    1.500    1.750    1.000 
#    0.000    1.875    0.000    0.000    0.000    0.000 
#    0.000    0.000    0.000    0.000    0.000    0.000 
#
# Total GULP energy -793399.167444 kJ/mol
# GULP energy per Si atom -12396.861991 kJ/mol
# Density = 2.076259 g / cm^3
# Si number density = 20.809957 Si / 1000 Ang^3
#
#
#
# Elastic Constant Matrix: (Units=GPa)
#
#
# Indices 1 2 3 4 5 6 
#
# 1 67.8325 13.5265 -3.1293 0.0000 0.0000 0.0000
# 2 13.5265 72.2333 4.1640 0.0000 0.0000 0.0000
# 3 -3.1293 4.1640 60.2710 0.0000 0.0000 0.0000
# 4 0.0000 0.0000 0.0000 31.1889 0.0000 0.0000
# 5 0.0000 0.0000 0.0000 0.0000 32.1903 0.0000
# 6 0.0000 0.0000 0.0000 0.0000 0.0000 26.1159
#
#
#
# Elastic Compliance Matrix: (Units=1/GPa)
#
#
# Indices 1 2 3 4 5 6 
#
# 1 0.015374 -0.002937 0.001001 0.000000 0.000000 0.000000
# 2 -0.002937 0.014460 -0.001152 0.000000 0.000000 0.000000
# 3 0.001001 -0.001152 0.016723 0.000000 0.000000 0.000000
# 4 0.000000 0.000000 0.000000 0.032063 0.000000 0.000000
# 5 0.000000 0.000000 0.000000 0.000000 0.031065 0.000000
# 6 0.000000 0.000000 0.000000 0.000000 0.000000 0.038291
#
#
# Mechanical properties :
#
#
# Convention : Reuss Voigt Hill
#
# Bulk Modulus (GPa) = 24.76262 25.49547 25.12904
# Shear Modulus (GPa) = 29.83087 30.28406 30.05747
#
# Velocity S-wave (km/s) = 3.79025 3.81894 3.80462
# Velocity P-wave (km/s) = 5.57494 5.63239 5.60374
#
# Compressibility (1/GPa) = 0.04038345
#
# Stress axis : x y z
#
# Youngs Moduli (GPa) = 65.04498 69.15465 59.79694
#
# Poissons Ratio (x) = 0.20308 -0.05986
# Poissons Ratio (y) = 0.19102 0.06886
# Poissons Ratio (z) = -0.06512 0.07963
#
# Static dielectric constant tensor:
#      x y z
#    x 3.621310 0.000000 0.000000 
#    y 0.000000 3.803600 0.000000 
#    z 0.000000 0.000000 2.794450 
# 
# 
# High freq. dielectric constant tensor:
#      x y z
#    x 1.809910 0.000000 0.000000 
#    y 0.000000 1.814540 0.000000 
#    z 0.000000 0.000000 1.811320 
# 
# From -- ./inp_files/6955.got.cif
#   From: 2010.03.12/outbox.cif.g09.slc.cpg/sg62_4_cif.got.tgz:6955.got - 2010.04.10 19:12:36.
