data_PCOD8253976
_publ_section_title
;
Structure prediction by ZEFSAII (Michael W. Deem and Ramdas Pophale) SiO2 
 PCOD8253976
Probable space group: P N M A
;
_chemical_formula_sum "Si O2"
_cell_formula_units_Z 64
_cell_length_a 25.777459
_cell_length_b 8.765522
_cell_length_c 14.630344
_cell_angle_alpha 90.000000
_cell_angle_beta 90.000000
_cell_angle_gamma 90.000000
_cell_volume 3305.768420
_symmetry_space_group_name_H-M "P N M A"
_symmetry_group_IT_number 62
_symmetry_cell_setting 'orthorhombic'
loop_
_space_group_symop_operation_xyz
x,y,z
1/2-x,-y,1/2+z
1/2+x,1/2-y,1/2-z
-x,1/2+y,-z
-x,-y,-z
1/2+x,y,1/2-z
1/2-x,1/2+y,1/2+z
x,1/2-y,z
loop_
_atom_site_type_symbol
_atom_site_label
_atom_site_fract_x
_atom_site_fract_y
_atom_site_fract_z
Si Si1 0.600777 0.570851 0.665942
Si Si2 0.945046 0.075010 0.498513
Si Si3 0.135152 0.923544 0.348279
Si Si4 0.002497 0.569745 0.100577
Si Si5 0.637792 0.930788 0.860626
Si Si6 0.892402 0.927620 0.834481
Si Si7 0.169948 0.927982 0.006863
Si Si8 0.779297 0.428313 0.501409
O O1 0.588837 0.750000 0.670369
O O2 0.546305 0.483586 0.660521
O O3 0.632350 0.515823 0.755882
O O4 0.635988 0.526856 0.580559
O O5 0.953567 0.250000 0.475329
O O6 0.917728 0.052621 0.595867
O O7 0.909970 0.999620 0.418726
O O8 0.000000 0.000000 0.500000
O O9 0.139221 0.750000 0.312840
O O10 0.184071 0.962486 0.412080
O O11 0.133576 0.036583 0.262787
O O12 0.002189 0.750000 0.090407
O O13 0.054623 0.520565 0.152080
O O14 0.000000 0.500000 0.000000
O O15 0.635423 0.750000 0.870440
O O16 0.692020 0.981669 0.907387
O O17 0.905161 0.750000 0.842170
O O18 0.850075 0.972590 0.909378
O O19 0.164493 0.750000 0.029775
O O20 0.229041 0.968618 0.985981
O O21 0.764409 0.250000 0.497257
#
# Coordination Sequence:
#
# PCOD8253976 Si02
#       8
#     8   8   8   8   8   8   8   8
#     4  10  21  38  60  86 117 154 196 239 292 352
#     4   9  18  33  54  81 114 151 191 238 292 345
#     4   9  20  39  59  84 121 158 196 246 298 346
#     4  12  24  40  61  86 120 156 194 241 296 354
#     4   8  17  36  59  83 113 152 194 237 288 348
#     4  12  25  40  61  87 117 158 204 247 296 355
#     4  11  23  38  59  87 121 156 195 248 299 351
#     4   9  19  39  64  86 118 159 196 243 297 351
#
# _framework density 19.360098000000001
#
# number of rings (size 3 to 8) (size 9 to 14) (size 15 to 20)
#    0.000    2.000    1.250    4.125    1.750    2.500 
#    0.000    3.750    0.000    0.000    0.000    0.000 
#    0.000    0.000    0.000    0.000    0.000    0.000 
#
# Total GULP energy -793670.907446 kJ/mol
# GULP energy per Si atom -12401.107929 kJ/mol
# Density = 1.931603 g / cm^3
# Si number density = 19.360098 Si / 1000 Ang^3
#
#
#
# Elastic Constant Matrix: (Units=GPa)
#
#
# Indices 1 2 3 4 5 6 
#
# 1 120.4561 32.8705 34.8155 0.0000 0.0000 0.0000
# 2 32.8705 72.6633 40.6889 0.0000 0.0000 0.0000
# 3 34.8155 40.6889 106.7964 0.0000 0.0000 0.0000
# 4 0.0000 0.0000 0.0000 18.9371 0.0000 0.0000
# 5 0.0000 0.0000 0.0000 0.0000 9.2665 0.0000
# 6 0.0000 0.0000 0.0000 0.0000 0.0000 36.2873
#
#
#
# Elastic Compliance Matrix: (Units=1/GPa)
#
#
# Indices 1 2 3 4 5 6 
#
# 1 0.009767 -0.003350 -0.001908 0.000000 0.000000 0.000000
# 2 -0.003350 0.018644 -0.006011 0.000000 0.000000 0.000000
# 3 -0.001908 -0.006011 0.012276 0.000000 0.000000 0.000000
# 4 0.000000 0.000000 0.000000 0.052806 0.000000 0.000000
# 5 0.000000 0.000000 0.000000 0.000000 0.107916 0.000000
# 6 0.000000 0.000000 0.000000 0.000000 0.000000 0.027558
#
#
# Mechanical properties :
#
#
# Convention : Reuss Voigt Hill
#
# Bulk Modulus (GPa) = 55.09989 57.40729 56.25359
# Shear Modulus (GPa) = 19.41339 25.66757 22.54048
#
# Velocity S-wave (km/s) = 3.17006 3.64510 3.41585
# Velocity P-wave (km/s) = 6.47467 6.88712 6.68408
#
# Compressibility (1/GPa) = 0.01814886
#
# Stress axis : x y z
#
# Youngs Moduli (GPa) = 102.38158 53.63796 81.46186
#
# Poissons Ratio (x) = 0.17970 0.15541
# Poissons Ratio (y) = 0.34299 0.48966
# Poissons Ratio (z) = 0.19532 0.32241
#
# Static dielectric constant tensor:
#      x y z
#    x 3.581750 0.000000 0.000000 
#    y 0.000000 3.295800 0.000000 
#    z 0.000000 0.000000 3.584790 
# 
# 
# High freq. dielectric constant tensor:
#      x y z
#    x 1.759680 0.000000 0.000000 
#    y 0.000000 1.737710 0.000000 
#    z 0.000000 0.000000 1.760540 
# 
# From -- ./inp_files/20815.got.cif
#   From: 2010.03.12/outbox.cif.g09.slc.cpg/sg62_11_cif.got.tgz:20815.got - 2010.04.10 19:12:36.
