data_PCOD8253787
_publ_section_title
;
Structure prediction by ZEFSAII (Michael W. Deem and Ramdas Pophale) SiO2 
 PCOD8253787
Probable space group: P N M A
;
_chemical_formula_sum "Si O2"
_cell_formula_units_Z 56
_cell_length_a 5.305331
_cell_length_b 21.185735
_cell_length_c 24.121242
_cell_angle_alpha 90.000000
_cell_angle_beta 90.000000
_cell_angle_gamma 90.000000
_cell_volume 2711.163358
_symmetry_space_group_name_H-M "P N M A"
_symmetry_group_IT_number 62
_symmetry_cell_setting 'orthorhombic'
loop_
_space_group_symop_operation_xyz
x,y,z
1/2-x,-y,1/2+z
1/2+x,1/2-y,1/2-z
-x,1/2+y,-z
-x,-y,-z
1/2+x,y,1/2-z
1/2-x,1/2+y,1/2+z
x,1/2-y,z
loop_
_atom_site_type_symbol
_atom_site_label
_atom_site_fract_x
_atom_site_fract_y
_atom_site_fract_z
Si Si1 0.359164 0.092239 0.039044
Si Si2 0.968929 0.976774 0.396757
Si Si3 0.929903 0.509672 0.269385
Si Si4 0.752235 0.820076 0.492305
Si Si5 0.047422 0.081240 0.940729
Si Si6 0.030111 0.321063 0.106360
Si Si7 0.907294 0.130409 0.223103
O O1 0.513688 0.131338 0.992238
O O2 0.272376 0.138061 0.088599
O O3 0.532212 0.037244 0.064886
O O4 0.126340 0.061110 0.004047
O O5 0.692278 0.953963 0.415080
O O6 0.949528 0.001086 0.334425
O O7 0.203804 0.927997 0.401990
O O8 0.173397 0.547627 0.245956
O O9 0.903812 0.444372 0.234973
O O10 0.834227 0.750000 0.473273
O O11 0.539497 0.845255 0.449068
O O12 0.661901 0.818518 0.555620
O O13 0.115946 0.250000 0.122282
O O14 0.897789 0.355905 0.157756
O O15 0.158858 0.161511 0.249387
#
# Coordination Sequence:
#
# PCOD8253787 Si02
#       7
#     8   8   8   8   8   8   8
#     4  11  22  37  63  87 127 163 209 256 312 371
#     4  12  24  37  63  90 125 163 208 256 315 378
#     4  10  21  37  56  84 116 158 199 247 306 357
#     4  10  23  41  63  90 125 166 208 255 304 372
#     4  11  24  41  59  93 124 160 204 255 314 376
#     4  10  23  38  58  86 120 169 220 262 307 353
#     4  10  22  38  56  78 111 153 215 261 305 342
#
# _framework density 20.655341
#
# number of rings (size 3 to 8) (size 9 to 14) (size 15 to 20)
#    0.000    1.429    1.429    3.857   10.000    1.143 
#    0.000    0.000    0.000    0.000    0.000    0.000 
#    0.000   11.429    0.000    0.000    0.000    0.000 
#
# Total GULP energy -693789.645244 kJ/mol
# GULP energy per Si atom -12389.100808 kJ/mol
# Density = 2.060833 g / cm^3
# Si number density = 20.655341 Si / 1000 Ang^3
#
#
#
# Elastic Constant Matrix: (Units=GPa)
#
#
# Indices 1 2 3 4 5 6 
#
# 1 147.7101 34.8113 26.0988 0.0000 0.0000 0.0000
# 2 34.8113 62.0426 41.6196 0.0000 0.0000 0.0000
# 3 26.0988 41.6196 74.0750 0.0000 0.0000 0.0000
# 4 0.0000 0.0000 0.0000 25.7106 0.0000 0.0000
# 5 0.0000 0.0000 0.0000 0.0000 28.4675 0.0000
# 6 0.0000 0.0000 0.0000 0.0000 0.0000 21.9972
#
#
#
# Elastic Compliance Matrix: (Units=1/GPa)
#
#
# Indices 1 2 3 4 5 6 
#
# 1 0.007812 -0.004071 -0.000465 0.000000 0.000000 0.000000
# 2 -0.004071 0.027989 -0.014292 0.000000 0.000000 0.000000
# 3 -0.000465 -0.014292 0.021694 0.000000 0.000000 0.000000
# 4 0.000000 0.000000 0.000000 0.038894 0.000000 0.000000
# 5 0.000000 0.000000 0.000000 0.000000 0.035128 0.000000
# 6 0.000000 0.000000 0.000000 0.000000 0.000000 0.045460
#
#
# Mechanical properties :
#
#
# Convention : Reuss Voigt Hill
#
# Bulk Modulus (GPa) = 50.40539 54.32079 52.36309
# Shear Modulus (GPa) = 22.59932 27.32159 24.96045
#
# Velocity S-wave (km/s) = 3.31133 3.64089 3.48001
# Velocity P-wave (km/s) = 6.25107 6.63555 6.44618
#
# Compressibility (1/GPa) = 0.01983915
#
# Stress axis : x y z
#
# Youngs Moduli (GPa) = 128.01447 35.72774 46.09668
#
# Poissons Ratio (x) = 0.14545 0.02143
# Poissons Ratio (y) = 0.52117 0.65880
# Poissons Ratio (z) = 0.05951 0.51061
#
# Static dielectric constant tensor:
#      x y z
#    x 4.681860 0.000000 0.000000 
#    y 0.000000 3.634950 0.000000 
#    z 0.000000 0.000000 3.603100 
# 
# 
# High freq. dielectric constant tensor:
#      x y z
#    x 1.831810 0.000000 0.000000 
#    y 0.000000 1.764270 0.000000 
#    z 0.000000 0.000000 1.791160 
# 
# From -- ./inp_files/28377.got.cif
#   From: 2010.03.12/outbox.cif.g09.slc.cpg/sg62_15_cif.got.tgz:28377.got - 2010.04.10 19:12:36.
