data_PCOD8253607
_publ_section_title
;
Structure prediction by ZEFSAII (Michael W. Deem and Ramdas Pophale) SiO2 
 PCOD8253607
Probable space group: P N M A
;
_chemical_formula_sum "Si O2"
_cell_formula_units_Z 40
_cell_length_a 7.414576
_cell_length_b 23.916149
_cell_length_c 11.978927
_cell_angle_alpha 90.000000
_cell_angle_beta 90.000000
_cell_angle_gamma 90.000000
_cell_volume 2124.200418
_symmetry_space_group_name_H-M "P N M A"
_symmetry_group_IT_number 62
_symmetry_cell_setting 'orthorhombic'
loop_
_space_group_symop_operation_xyz
x,y,z
1/2-x,-y,1/2+z
1/2+x,1/2-y,1/2-z
-x,1/2+y,-z
-x,-y,-z
1/2+x,y,1/2-z
1/2-x,1/2+y,1/2+z
x,1/2-y,z
loop_
_atom_site_type_symbol
_atom_site_label
_atom_site_fract_x
_atom_site_fract_y
_atom_site_fract_z
Si Si1 0.064760 0.311194 0.065821
Si Si2 0.882627 0.474951 0.149701
Si Si3 0.496257 0.925170 0.873587
Si Si4 0.910471 0.188200 0.282828
Si Si5 0.164998 0.423477 0.986530
O O1 0.067041 0.250000 0.006513
O O2 0.214999 0.316400 0.162828
O O3 0.890178 0.319279 0.146451
O O4 0.095762 0.359011 0.972507
O O5 0.700263 0.448837 0.097844
O O6 0.903506 0.463451 0.280389
O O7 0.055658 0.449706 0.089133
O O8 0.872937 0.542062 0.126776
O O9 0.468514 0.861679 0.832660
O O10 0.622380 0.926245 0.983649
O O11 0.994555 0.250000 0.308841
#
# Coordination Sequence:
#
# PCOD8253607 Si02
#       5
#     8   8   8   8   8
#     4   9  16  27  42  62  89 118 147 183 224 272
#     4  11  20  31  48  67  94 124 154 191 226 270
#     4  11  18  33  48  66  97 127 151 187 232 265
#     4   9  16  25  41  64  89 118 147 172 217 280
#     4  10  21  32  45  70  95 120 158 188 225 277
#
# _framework density 18.830615000000002
#
# number of rings (size 3 to 8) (size 9 to 14) (size 15 to 20)
#    0.000    2.000    4.000    1.800    0.000    0.000 
#    0.000    0.000    0.000    0.000    0.000    1.400 
#    0.000    0.000    0.000    0.000    0.000    0.000 
#
# Total GULP energy -495548.662380 kJ/mol
# GULP energy per Si atom -12388.716560 kJ/mol
# Density = 1.878776 g / cm^3
# Si number density = 18.830615 Si / 1000 Ang^3
#
#
#
# Elastic Constant Matrix: (Units=GPa)
#
#
# Indices 1 2 3 4 5 6 
#
# 1 58.4571 12.6456 -2.5961 0.0000 0.0000 0.0000
# 2 12.6456 149.1101 27.0865 0.0000 0.0000 0.0000
# 3 -2.5961 27.0865 20.9178 0.0000 0.0000 0.0000
# 4 0.0000 0.0000 0.0000 29.3308 0.0000 0.0000
# 5 0.0000 0.0000 0.0000 0.0000 10.4581 0.0000
# 6 0.0000 0.0000 0.0000 0.0000 0.0000 21.8499
#
#
#
# Elastic Compliance Matrix: (Units=1/GPa)
#
#
# Indices 1 2 3 4 5 6 
#
# 1 0.017893 -0.002512 0.005473 0.000000 0.000000 0.000000
# 2 -0.002512 0.009122 -0.012123 0.000000 0.000000 0.000000
# 3 0.005473 -0.012123 0.064184 0.000000 0.000000 0.000000
# 4 0.000000 0.000000 0.000000 0.034094 0.000000 0.000000
# 5 0.000000 0.000000 0.000000 0.000000 0.095619 0.000000
# 6 0.000000 0.000000 0.000000 0.000000 0.000000 0.045767
#
#
# Mechanical properties :
#
#
# Convention : Reuss Voigt Hill
#
# Bulk Modulus (GPa) = 13.72218 33.63965 23.68092
# Shear Modulus (GPa) = 16.16581 25.08435 20.62508
#
# Velocity S-wave (km/s) = 2.93317 3.65376 3.31311
# Velocity P-wave (km/s) = 4.33293 5.97521 5.21907
#
# Compressibility (1/GPa) = 0.07287471
#
# Stress axis : x y z
#
# Youngs Moduli (GPa) = 55.88793 109.62822 15.58015
#
# Poissons Ratio (x) = 0.27535 -0.08527
# Poissons Ratio (y) = 0.14037 0.18889
# Poissons Ratio (z) = -0.30588 1.32908
#
# Static dielectric constant tensor:
#      x y z
#    x 3.529660 0.000000 0.000000 
#    y 0.000000 4.001060 0.000000 
#    z 0.000000 0.000000 2.847120 
# 
# 
# High freq. dielectric constant tensor:
#      x y z
#    x 1.742130 0.000000 0.000000 
#    y 0.000000 1.749330 0.000000 
#    z 0.000000 0.000000 1.646390 
# 
# From -- ./inp_files/4400.got.cif
#   From: 2010.03.12/outbox.cif.g09.slc.cpg/sg62_3_cif.got.tgz:4400.got - 2010.04.10 19:12:36.
