data_PCOD8253569
_publ_section_title
;
Structure prediction by ZEFSAII (Michael W. Deem and Ramdas Pophale) SiO2 
 PCOD8253569
Probable space group: P N M A
;
_chemical_formula_sum "Si O2"
_cell_formula_units_Z 64
_cell_length_a 12.674939
_cell_length_b 14.718667
_cell_length_c 17.031607
_cell_angle_alpha 90.000000
_cell_angle_beta 90.000000
_cell_angle_gamma 90.000000
_cell_volume 3177.386054
_symmetry_space_group_name_H-M "P N M A"
_symmetry_group_IT_number 62
_symmetry_cell_setting 'orthorhombic'
loop_
_space_group_symop_operation_xyz
x,y,z
1/2-x,-y,1/2+z
1/2+x,1/2-y,1/2-z
-x,1/2+y,-z
-x,-y,-z
1/2+x,y,1/2-z
1/2-x,1/2+y,1/2+z
x,1/2-y,z
loop_
_atom_site_type_symbol
_atom_site_label
_atom_site_fract_x
_atom_site_fract_y
_atom_site_fract_z
Si Si1 0.176823 0.352201 0.900324
Si Si2 0.527419 0.056484 0.076237
Si Si3 0.321294 0.350754 0.138257
Si Si4 0.846562 0.054478 0.694614
Si Si5 0.333789 0.090143 0.304896
Si Si6 0.490625 0.453390 0.663720
Si Si7 0.761469 0.852116 0.537626
Si Si8 0.325130 0.517043 0.549330
O O1 0.174859 0.250000 0.933352
O O2 0.283547 0.363637 0.848565
O O3 0.071165 0.369991 0.849952
O O4 0.172547 0.426052 0.969243
O O5 0.429287 0.116326 0.101033
O O6 0.619960 0.129136 0.064604
O O7 0.558889 0.981798 0.140588
O O8 0.500000 0.000000 0.000000
O O9 0.294034 0.250000 0.105774
O O10 0.332121 0.340838 0.232270
O O11 0.231501 0.422801 0.115515
O O12 0.900387 0.083254 0.776820
O O13 0.761154 0.978125 0.710909
O O14 0.318418 0.139431 0.388431
O O15 0.445813 0.039078 0.302000
O O16 0.439130 0.488398 0.582163
O O17 0.752226 0.750000 0.504097
O O18 0.735145 0.922994 0.468586
#
# Coordination Sequence:
#
# PCOD8253569 Si02
#       8
#     8   8   8   8   8   8   8   8
#     4  11  24  43  64  92 128 166 210 260 313 373
#     4  11  20  38  64  89 122 166 203 254 318 363
#     4  12  23  37  64  97 125 162 210 255 310 379
#     4  10  20  40  66  86 123 168 202 258 315 370
#     4  10  21  41  62  91 125 159 204 260 318 369
#     4  11  22  40  68  89 122 172 209 252 318 376
#     4  11  23  41  63  91 125 165 209 257 314 375
#     4  12  23  41  64  91 131 169 204 259 318 373
#
# _framework density 20.142343
#
# number of rings (size 3 to 8) (size 9 to 14) (size 15 to 20)
#    0.000    1.000    7.500    1.500    0.000    1.000 
#    0.000    3.750    0.000    0.000    0.000    0.000 
#    0.000    0.000    0.000    0.000    0.000    0.000 
#
# Total GULP energy -793493.760007 kJ/mol
# GULP energy per Si atom -12398.340000 kJ/mol
# Density = 2.009650 g / cm^3
# Si number density = 20.142343 Si / 1000 Ang^3
#
#
#
# Elastic Constant Matrix: (Units=GPa)
#
#
# Indices 1 2 3 4 5 6 
#
# 1 65.0668 19.0386 15.1068 0.0000 0.0000 0.0000
# 2 19.0386 125.4275 23.8115 0.0000 0.0000 0.0000
# 3 15.1068 23.8115 77.9382 0.0000 0.0000 0.0000
# 4 0.0000 0.0000 0.0000 16.8192 0.0000 0.0000
# 5 0.0000 0.0000 0.0000 0.0000 39.4525 0.0000
# 6 0.0000 0.0000 0.0000 0.0000 0.0000 12.4730
#
#
#
# Elastic Compliance Matrix: (Units=1/GPa)
#
#
# Indices 1 2 3 4 5 6 
#
# 1 0.016562 -0.002022 -0.002593 0.000000 0.000000 0.000000
# 2 -0.002022 0.008710 -0.002269 0.000000 0.000000 0.000000
# 3 -0.002593 -0.002269 0.014027 0.000000 0.000000 0.000000
# 4 0.000000 0.000000 0.000000 0.059456 0.000000 0.000000
# 5 0.000000 0.000000 0.000000 0.000000 0.025347 0.000000
# 6 0.000000 0.000000 0.000000 0.000000 0.000000 0.080173
#
#
# Mechanical properties :
#
#
# Convention : Reuss Voigt Hill
#
# Bulk Modulus (GPa) = 39.16673 42.70515 40.93594
# Shear Modulus (GPa) = 22.06988 27.78066 24.92527
#
# Velocity S-wave (km/s) = 3.31372 3.71781 3.52157
# Velocity P-wave (km/s) = 5.84193 6.29898 6.07476
#
# Compressibility (1/GPa) = 0.02553188
#
# Stress axis : x y z
#
# Youngs Moduli (GPa) = 60.37797 114.80487 71.29354
#
# Poissons Ratio (x) = 0.23211 0.18484
# Poissons Ratio (y) = 0.12207 0.16179
# Poissons Ratio (z) = 0.15654 0.26053
#
# Static dielectric constant tensor:
#      x y z
#    x 3.796730 0.000000 0.000000 
#    y 0.000000 3.441450 0.000000 
#    z 0.000000 0.000000 3.058320 
# 
# 
# High freq. dielectric constant tensor:
#      x y z
#    x 1.795080 0.000000 0.000000 
#    y 0.000000 1.768460 0.000000 
#    z 0.000000 0.000000 1.789520 
# 
# From -- ./inp_files/23235.got.cif
#   From: 2010.03.12/outbox.cif.g09.slc.cpg/sg62_12_cif.got.tgz:23235.got - 2010.04.10 19:12:36.
