data_PCOD8253934
_publ_section_title
;
Structure prediction by ZEFSAII (Michael W. Deem and Ramdas Pophale) SiO2 
 PCOD8253934
Probable space group: P N M A
;
_chemical_formula_sum "Si O2"
_cell_formula_units_Z 48
_cell_length_a 30.967405
_cell_length_b 8.936272
_cell_length_c 8.906621
_cell_angle_alpha 90.000000
_cell_angle_beta 90.000000
_cell_angle_gamma 90.000000
_cell_volume 2464.757323
_symmetry_space_group_name_H-M "P N M A"
_symmetry_group_IT_number 62
_symmetry_cell_setting 'orthorhombic'
loop_
_space_group_symop_operation_xyz
x,y,z
1/2-x,-y,1/2+z
1/2+x,1/2-y,1/2-z
-x,1/2+y,-z
-x,-y,-z
1/2+x,y,1/2-z
1/2-x,1/2+y,1/2+z
x,1/2-y,z
loop_
_atom_site_type_symbol
_atom_site_label
_atom_site_fract_x
_atom_site_fract_y
_atom_site_fract_z
Si Si1 0.375146 0.924616 0.399320
Si Si2 0.039882 0.074920 0.080914
Si Si3 0.041073 0.072588 0.423421
Si Si4 0.290841 0.925155 0.588276
Si Si5 0.292025 0.425504 0.909071
Si Si6 0.621333 0.925523 0.917502
O O1 0.376122 0.750000 0.353865
O O2 0.416152 0.970139 0.498687
O O3 0.332922 0.965488 0.493222
O O4 0.375137 0.028055 0.254493
O O5 0.031946 0.250000 0.075716
O O6 0.042840 0.018469 0.251588
O O7 0.000000 0.000000 0.000000
O O8 0.037863 0.250000 0.437575
O O9 0.083812 0.018359 0.505049
O O10 0.000000 0.000000 0.500000
O O11 0.286590 0.750000 0.616670
O O12 0.249250 0.987785 0.499757
O O13 0.294494 0.001403 0.747814
O O14 0.287643 0.250000 0.885396
O O15 0.334309 0.469201 0.001938
O O16 0.611153 0.750000 0.928727
#
# Coordination Sequence:
#
# PCOD8253934 Si02
#       6
#     8   8   8   8   8   8
#     4  10  21  38  59  83 111 147 192 237 283 339
#     4  10  22  38  57  82 111 144 184 230 279 333
#     4  11  23  40  61  86 116 151 191 235 284 338
#     4  10  21  38  60  85 114 151 195 240 289 346
#     4  10  22  38  57  85 118 150 189 238 289 341
#     4  11  23  38  57  85 118 151 189 234 286 343
#
# _framework density 19.474533999999998
#
# number of rings (size 3 to 8) (size 9 to 14) (size 15 to 20)
#    0.000    1.667    0.000    4.000    0.000    8.667 
#    0.000    0.000    0.000    0.000    0.000    0.000 
#    0.000    0.000    0.000    0.000    0.000    0.000 
#
# Total GULP energy -595460.601257 kJ/mol
# GULP energy per Si atom -12405.429193 kJ/mol
# Density = 1.943021 g / cm^3
# Si number density = 19.474534 Si / 1000 Ang^3
#
#
#
# Elastic Constant Matrix: (Units=GPa)
#
#
# Indices 1 2 3 4 5 6 
#
# 1 176.3007 49.6393 82.8920 0.0000 0.0000 0.0000
# 2 49.6393 47.3019 51.4060 0.0000 0.0000 0.0000
# 3 82.8920 51.4060 170.1253 0.0000 0.0000 0.0000
# 4 0.0000 0.0000 0.0000 37.8217 0.0000 0.0000
# 5 0.0000 0.0000 0.0000 0.0000 35.7213 0.0000
# 6 0.0000 0.0000 0.0000 0.0000 0.0000 30.9810
#
#
#
# Elastic Compliance Matrix: (Units=1/GPa)
#
#
# Indices 1 2 3 4 5 6 
#
# 1 0.008556 -0.006623 -0.002168 0.000000 0.000000 0.000000
# 2 -0.006623 0.036605 -0.007834 0.000000 0.000000 0.000000
# 3 -0.002168 -0.007834 0.009301 0.000000 0.000000 0.000000
# 4 0.000000 0.000000 0.000000 0.026440 0.000000 0.000000
# 5 0.000000 0.000000 0.000000 0.000000 0.027995 0.000000
# 6 0.000000 0.000000 0.000000 0.000000 0.000000 0.032278
#
#
# Mechanical properties :
#
#
# Convention : Reuss Voigt Hill
#
# Bulk Modulus (GPa) = 47.14061 84.62251 65.88156
# Shear Modulus (GPa) = 27.54915 34.89083 31.21999
#
# Velocity S-wave (km/s) = 3.76523 4.23734 4.00824
# Velocity P-wave (km/s) = 6.56974 8.21506 7.43803
#
# Compressibility (1/GPa) = 0.02121313
#
# Stress axis : x y z
#
# Youngs Moduli (GPa) = 116.87558 27.31901 107.51342
#
# Poissons Ratio (x) = 0.18094 0.23304
# Poissons Ratio (y) = 0.77410 0.84221
# Poissons Ratio (z) = 0.25333 0.21400
#
# Static dielectric constant tensor:
#      x y z
#    x 4.021000 0.000000 0.000000 
#    y 0.000000 3.499230 0.000000 
#    z 0.000000 0.000000 3.620120 
# 
# 
# High freq. dielectric constant tensor:
#      x y z
#    x 1.781320 0.000000 0.000000 
#    y 0.000000 1.753850 0.000000 
#    z 0.000000 0.000000 1.776750 
# 
# From -- ./inp_files/10159.got.cif
#   From: 2010.03.12/outbox.cif.g09.slc.cpg/sg62_6_cif.got.tgz:10159.got - 2010.04.10 19:12:36.
