data_PCOD8253591
_publ_section_title
;
Structure prediction by ZEFSAII (Michael W. Deem and Ramdas Pophale) SiO2 
 PCOD8253591
Probable space group: P N M A
;
_chemical_formula_sum "Si O2"
_cell_formula_units_Z 48
_cell_length_a 11.250368
_cell_length_b 22.464242
_cell_length_c 8.270891
_cell_angle_alpha 90.000000
_cell_angle_beta 90.000000
_cell_angle_gamma 90.000000
_cell_volume 2090.310465
_symmetry_space_group_name_H-M "P N M A"
_symmetry_group_IT_number 62
_symmetry_cell_setting 'orthorhombic'
loop_
_space_group_symop_operation_xyz
x,y,z
1/2-x,-y,1/2+z
1/2+x,1/2-y,1/2-z
-x,1/2+y,-z
-x,-y,-z
1/2+x,y,1/2-z
1/2-x,1/2+y,1/2+z
x,1/2-y,z
loop_
_atom_site_type_symbol
_atom_site_label
_atom_site_fract_x
_atom_site_fract_y
_atom_site_fract_z
Si Si1 0.757085 0.023184 0.424024
Si Si2 0.043297 0.408801 0.947788
Si Si3 0.211199 0.184950 0.836610
Si Si4 0.572921 0.894461 0.115882
Si Si5 0.706690 0.912888 0.590432
Si Si6 0.116726 0.316528 0.481015
O O1 0.623305 0.036836 0.488286
O O2 0.860516 0.050678 0.533819
O O3 0.774988 0.044082 0.242553
O O4 0.761502 0.950839 0.438151
O O5 0.126539 0.350212 0.961276
O O6 0.006940 0.420818 0.761150
O O7 0.931364 0.398017 0.064292
O O8 0.235972 0.250000 0.911529
O O9 0.334918 0.151775 0.805707
O O10 0.146621 0.191567 0.667454
O O11 0.500235 0.858415 0.976987
O O12 0.777497 0.851007 0.613005
O O13 0.097681 0.250000 0.405387
#
# Coordination Sequence:
#
# PCOD8253591 Si02
#       6
#     8   8   8   8   8   8
#     4  11  27  42  68  97 132 177 225 277 343 408
#     4  10  22  42  63  96 135 171 218 280 333 397
#     4   9  18  36  67 100 126 170 225 272 323 395
#     4  10  20  41  69  94 133 170 223 277 338 402
#     4  12  25  44  66  97 137 177 226 281 342 401
#     4  10  22  39  65  97 132 174 220 273 336 398
#
# _framework density 22.963097000000001
#
# number of rings (size 3 to 8) (size 9 to 14) (size 15 to 20)
#    0.000    1.667    1.667    2.000    7.000    2.000 
#    0.000    4.167    0.000    0.000    0.000    0.000 
#    0.000    0.000    0.000    0.000    0.000    0.000 
#
# Total GULP energy -595212.409932 kJ/mol
# GULP energy per Si atom -12400.258540 kJ/mol
# Density = 2.291083 g / cm^3
# Si number density = 22.963097 Si / 1000 Ang^3
#
#
#
# Elastic Constant Matrix: (Units=GPa)
#
#
# Indices 1 2 3 4 5 6 
#
# 1 106.6249 15.6729 14.2604 0.0000 0.0000 0.0000
# 2 15.6729 85.3931 2.3023 0.0000 0.0000 0.0000
# 3 14.2604 2.3023 55.1591 0.0000 0.0000 0.0000
# 4 0.0000 0.0000 0.0000 22.6595 0.0000 0.0000
# 5 0.0000 0.0000 0.0000 0.0000 30.9114 0.0000
# 6 0.0000 0.0000 0.0000 0.0000 0.0000 17.8628
#
#
#
# Elastic Compliance Matrix: (Units=1/GPa)
#
#
# Indices 1 2 3 4 5 6 
#
# 1 0.009973 -0.001763 -0.002505 0.000000 0.000000 0.000000
# 2 -0.001763 0.012035 -0.000047 0.000000 0.000000 0.000000
# 3 -0.002505 -0.000047 0.018779 0.000000 0.000000 0.000000
# 4 0.000000 0.000000 0.000000 0.044132 0.000000 0.000000
# 5 0.000000 0.000000 0.000000 0.000000 0.032351 0.000000
# 6 0.000000 0.000000 0.000000 0.000000 0.000000 0.055982
#
#
# Mechanical properties :
#
#
# Convention : Reuss Voigt Hill
#
# Bulk Modulus (GPa) = 31.09577 34.62758 32.86168
# Shear Modulus (GPa) = 25.96064 28.61617 27.28840
#
# Velocity S-wave (km/s) = 3.36599 3.53396 3.45100
# Velocity P-wave (km/s) = 5.35515 5.63598 5.49735
#
# Compressibility (1/GPa) = 0.03215871
#
# Stress axis : x y z
#
# Youngs Moduli (GPa) = 100.27289 83.08849 53.25135
#
# Poissons Ratio (x) = 0.14647 0.13338
# Poissons Ratio (y) = 0.17677 0.00248
# Poissons Ratio (z) = 0.25115 0.00387
#
# Static dielectric constant tensor:
#      x y z
#    x 4.283320 0.000000 0.000000 
#    y 0.000000 4.476930 0.000000 
#    z 0.000000 0.000000 3.714420 
# 
# 
# High freq. dielectric constant tensor:
#      x y z
#    x 1.919070 0.000000 0.000000 
#    y 0.000000 1.912620 0.000000 
#    z 0.000000 0.000000 1.873840 
# 
# From -- ./inp_files/5326.got.cif
#   From: 2010.03.12/outbox.cif.g09.slc.cpg/sg62_3_cif.got.tgz:5326.got - 2010.04.10 19:12:36.
