data_PCOD8253564
_publ_section_title
;
Structure prediction by ZEFSAII (Michael W. Deem and Ramdas Pophale) SiO2 
 PCOD8253564
Probable space group: P N M A
;
_chemical_formula_sum "Si O2"
_cell_formula_units_Z 64
_cell_length_a 15.188625
_cell_length_b 8.797727
_cell_length_c 24.054389
_cell_angle_alpha 90.000000
_cell_angle_beta 90.000000
_cell_angle_gamma 90.000000
_cell_volume 3214.276781
_symmetry_space_group_name_H-M "P N M A"
_symmetry_group_IT_number 62
_symmetry_cell_setting 'orthorhombic'
loop_
_space_group_symop_operation_xyz
x,y,z
1/2-x,-y,1/2+z
1/2+x,1/2-y,1/2-z
-x,1/2+y,-z
-x,-y,-z
1/2+x,y,1/2-z
1/2-x,1/2+y,1/2+z
x,1/2-y,z
loop_
_atom_site_type_symbol
_atom_site_label
_atom_site_fract_x
_atom_site_fract_y
_atom_site_fract_z
Si Si1 0.349930 0.579908 0.372280
Si Si2 0.771825 0.571182 0.802928
Si Si3 0.246658 0.930591 0.570234
Si Si4 0.096435 0.429292 0.496258
Si Si5 0.352554 0.079075 0.884457
Si Si6 0.422657 0.071553 0.768759
Si Si7 0.899836 0.426733 0.235263
Si Si8 0.094721 0.428795 0.993222
O O1 0.388474 0.750000 0.362395
O O2 0.246611 0.582757 0.363826
O O3 0.392288 0.460681 0.330007
O O4 0.370553 0.520185 0.433476
O O5 0.784564 0.750000 0.801412
O O6 0.756803 0.515885 0.866111
O O7 0.860107 0.501040 0.777730
O O8 0.688290 0.520219 0.766635
O O9 0.235711 0.750000 0.564530
O O10 0.334467 0.987967 0.538359
O O11 0.159266 0.005134 0.544427
O O12 0.090050 0.250000 0.503883
O O13 0.135974 0.467321 0.436059
O O14 0.000000 0.500000 0.500000
O O15 0.383194 0.250000 0.901377
O O16 0.404662 0.013874 0.831411
O O17 0.408223 0.250000 0.765272
O O18 0.522540 0.027821 0.758799
O O19 0.920055 0.250000 0.244694
O O20 0.085580 0.250000 0.998683
O O21 0.000000 0.500000 0.000000
#
# Coordination Sequence:
#
# PCOD8253564 Si02
#       8
#     8   8   8   8   8   8   8   8
#     4  10  20  40  65  89 119 160 207 256 308 364
#     4  10  23  42  64  91 126 165 207 256 310 367
#     4  10  22  44  65  88 126 168 207 255 314 368
#     4  12  26  42  65  95 126 164 209 258 310 372
#     4  10  21  42  67  91 122 161 206 258 315 368
#     4  11  24  41  65  93 125 164 207 257 310 371
#     4  11  24  40  61  92 127 164 207 255 309 369
#     4  10  22  39  62  89 123 160 202 253 305 366
#
# _framework density 19.911166000000001
#
# number of rings (size 3 to 8) (size 9 to 14) (size 15 to 20)
#    0.000    1.500    2.500    1.875    3.500    3.500 
#    0.000    0.000    0.000    0.000    0.000    0.000 
#    0.000    0.000    0.000    0.000    0.000    0.000 
#
# Total GULP energy -793772.247392 kJ/mol
# GULP energy per Si atom -12402.691366 kJ/mol
# Density = 1.986585 g / cm^3
# Si number density = 19.911166 Si / 1000 Ang^3
#
#
#
# Elastic Constant Matrix: (Units=GPa)
#
#
# Indices 1 2 3 4 5 6 
#
# 1 73.6524 21.4072 9.8246 0.0000 0.0000 0.0000
# 2 21.4072 46.8845 30.0788 0.0000 0.0000 0.0000
# 3 9.8246 30.0788 106.3177 0.0000 0.0000 0.0000
# 4 0.0000 0.0000 0.0000 31.1987 0.0000 0.0000
# 5 0.0000 0.0000 0.0000 0.0000 31.5821 0.0000
# 6 0.0000 0.0000 0.0000 0.0000 0.0000 33.0577
#
#
#
# Elastic Compliance Matrix: (Units=1/GPa)
#
#
# Indices 1 2 3 4 5 6 
#
# 1 0.015698 -0.007620 0.000705 0.000000 0.000000 0.000000
# 2 -0.007620 0.029758 -0.007715 0.000000 0.000000 0.000000
# 3 0.000705 -0.007715 0.011523 0.000000 0.000000 0.000000
# 4 0.000000 0.000000 0.000000 0.032053 0.000000 0.000000
# 5 0.000000 0.000000 0.000000 0.000000 0.031664 0.000000
# 6 0.000000 0.000000 0.000000 0.000000 0.000000 0.030250
#
#
# Mechanical properties :
#
#
# Convention : Reuss Voigt Hill
#
# Bulk Modulus (GPa) = 36.07534 38.83063 37.45298
# Shear Modulus (GPa) = 26.39299 30.20396 28.29847
#
# Velocity S-wave (km/s) = 3.64474 3.89901 3.77402
# Velocity P-wave (km/s) = 5.98913 6.30983 6.15157
#
# Compressibility (1/GPa) = 0.02771977
#
# Stress axis : x y z
#
# Youngs Moduli (GPa) = 63.70239 33.60474 86.78132
#
# Poissons Ratio (x) = 0.25607 -0.06120
# Poissons Ratio (y) = 0.48542 0.66949
# Poissons Ratio (z) = -0.04492 0.25925
#
# Static dielectric constant tensor:
#      x y z
#    x 3.672650 0.000000 0.000000 
#    y 0.000000 3.531140 0.000000 
#    z 0.000000 0.000000 3.788960 
# 
# 
# High freq. dielectric constant tensor:
#      x y z
#    x 1.785630 0.000000 0.000000 
#    y 0.000000 1.767150 0.000000 
#    z 0.000000 0.000000 1.791230 
# 
# From -- ./inp_files/29802.got.cif
#   From: 2010.03.12/outbox.cif.g09.slc.cpg/sg62_15_cif.got.tgz:29802.got - 2010.04.10 19:12:36.
