data_PCOD8253803
_publ_section_title
;
Structure prediction by ZEFSAII (Michael W. Deem and Ramdas Pophale) SiO2 
 PCOD8253803
Probable space group: P N M A
;
_chemical_formula_sum "Si O2"
_cell_formula_units_Z 64
_cell_length_a 31.953679
_cell_length_b 9.412300
_cell_length_c 10.734078
_cell_angle_alpha 90.000000
_cell_angle_beta 90.000000
_cell_angle_gamma 90.000000
_cell_volume 3228.355675
_symmetry_space_group_name_H-M "P N M A"
_symmetry_group_IT_number 62
_symmetry_cell_setting 'orthorhombic'
loop_
_space_group_symop_operation_xyz
x,y,z
1/2-x,-y,1/2+z
1/2+x,1/2-y,1/2-z
-x,1/2+y,-z
-x,-y,-z
1/2+x,y,1/2-z
1/2-x,1/2+y,1/2+z
x,1/2-y,z
loop_
_atom_site_type_symbol
_atom_site_label
_atom_site_fract_x
_atom_site_fract_y
_atom_site_fract_z
Si Si1 0.740471 0.417337 0.080848
Si Si2 0.974865 0.416972 0.893144
Si Si3 0.613625 0.905348 0.023843
Si Si4 0.620299 0.915963 0.452701
Si Si5 0.023938 0.917606 0.390916
Si Si6 0.170529 0.092542 0.613656
Si Si7 0.182066 0.907785 0.264858
Si Si8 0.321238 0.912452 0.400306
O O1 0.748024 0.250000 0.100854
O O2 0.719931 0.483680 0.206553
O O3 0.783656 0.493586 0.043254
O O4 0.710325 0.454923 0.966490
O O5 0.982510 0.250000 0.913075
O O6 0.926032 0.454990 0.907787
O O7 0.988947 0.461035 0.751687
O O8 0.000000 0.500000 0.000000
O O9 0.604396 0.750000 0.968046
O O10 0.572273 0.961534 0.092520
O O11 0.650995 0.900189 0.120198
O O12 0.628424 0.002129 0.909314
O O13 0.623183 0.750000 0.486719
O O14 0.654547 0.960926 0.350182
O O15 0.633926 0.014708 0.568506
O O16 0.016529 0.750000 0.408200
O O17 0.000000 0.000000 0.500000
O O18 0.157346 0.250000 0.574411
O O19 0.184743 0.081387 0.753924
O O20 0.200988 0.750000 0.239903
O O21 0.319678 0.750000 0.449180
#
# Coordination Sequence:
#
# PCOD8253803 Si02
#       8
#     8   8   8   8   8   8   8   8
#     4  10  21  37  57  83 112 149 192 236 288 347
#     4  10  22  42  65  90 125 166 209 258 317 380
#     4   9  17  34  60  83 105 140 186 232 280 342
#     4  10  21  39  62  85 114 155 199 245 300 358
#     4  10  21  38  60  90 123 156 197 249 307 370
#     4   9  21  39  55  76 112 149 183 232 292 345
#     4   9  17  34  60  83 107 143 186 235 287 339
#     4  11  24  39  55  82 119 156 195 241 295 354
#
# _framework density 19.824334
#
# number of rings (size 3 to 8) (size 9 to 14) (size 15 to 20)
#    0.000    2.250    1.250    0.750    1.750    4.500 
#    0.000    5.000    0.000    0.000    0.000    0.000 
#    0.000    0.000    0.000    0.000    0.000    0.000 
#
# Total GULP energy -793259.044986 kJ/mol
# GULP energy per Si atom -12394.672578 kJ/mol
# Density = 1.977921 g / cm^3
# Si number density = 19.824334 Si / 1000 Ang^3
#
#
#
# Elastic Constant Matrix: (Units=GPa)
#
#
# Indices 1 2 3 4 5 6 
#
# 1 85.0222 56.9768 47.3828 0.0000 0.0000 0.0000
# 2 56.9768 94.0465 49.8177 0.0000 0.0000 0.0000
# 3 47.3828 49.8177 92.6796 0.0000 0.0000 0.0000
# 4 0.0000 0.0000 0.0000 31.1246 0.0000 0.0000
# 5 0.0000 0.0000 0.0000 0.0000 26.8412 0.0000
# 6 0.0000 0.0000 0.0000 0.0000 0.0000 32.9027
#
#
#
# Elastic Compliance Matrix: (Units=1/GPa)
#
#
# Indices 1 2 3 4 5 6 
#
# 1 0.021720 -0.010173 -0.005636 0.000000 0.000000 0.000000
# 2 -0.010173 0.019631 -0.005351 0.000000 0.000000 0.000000
# 3 -0.005636 -0.005351 0.016548 0.000000 0.000000 0.000000
# 4 0.000000 0.000000 0.000000 0.032129 0.000000 0.000000
# 5 0.000000 0.000000 0.000000 0.000000 0.037256 0.000000
# 6 0.000000 0.000000 0.000000 0.000000 0.000000 0.030393
#
#
# Mechanical properties :
#
#
# Convention : Reuss Voigt Hill
#
# Bulk Modulus (GPa) = 64.19351 64.45588 64.32469
# Shear Modulus (GPa) = 24.36766 26.01176 25.18971
#
# Velocity S-wave (km/s) = 3.50977 3.62624 3.56848
# Velocity P-wave (km/s) = 6.99114 7.07933 7.03538
#
# Compressibility (1/GPa) = 0.01557790
#
# Stress axis : x y z
#
# Youngs Moduli (GPa) = 46.04002 50.94006 60.43169
#
# Poissons Ratio (x) = 0.51823 0.34060
# Poissons Ratio (y) = 0.46838 0.32337
# Poissons Ratio (z) = 0.25949 0.27258
#
# Static dielectric constant tensor:
#      x y z
#    x 3.582340 0.000000 0.000000 
#    y 0.000000 3.841280 0.000000 
#    z 0.000000 0.000000 3.671260 
# 
# 
# High freq. dielectric constant tensor:
#      x y z
#    x 1.769740 0.000000 0.000000 
#    y 0.000000 1.768740 0.000000 
#    z 0.000000 0.000000 1.770690 
# 
# From -- ./inp_files/15837.got.cif
#   From: 2010.03.12/outbox.cif.g09.slc.cpg/sg62_8_cif.got.tgz:15837.got - 2010.04.10 19:12:36.
