data_PCOD8253969
_publ_section_title
;
Structure prediction by ZEFSAII (Michael W. Deem and Ramdas Pophale) SiO2 
 PCOD8253969
Probable space group: P N M A
;
_chemical_formula_sum "Si O2"
_cell_formula_units_Z 48
_cell_length_a 17.626670
_cell_length_b 9.184490
_cell_length_c 15.267191
_cell_angle_alpha 90.000000
_cell_angle_beta 90.000000
_cell_angle_gamma 90.000000
_cell_volume 2471.635694
_symmetry_space_group_name_H-M "P N M A"
_symmetry_group_IT_number 62
_symmetry_cell_setting 'orthorhombic'
loop_
_space_group_symop_operation_xyz
x,y,z
1/2-x,-y,1/2+z
1/2+x,1/2-y,1/2-z
-x,1/2+y,-z
-x,-y,-z
1/2+x,y,1/2-z
1/2-x,1/2+y,1/2+z
x,1/2-y,z
loop_
_atom_site_type_symbol
_atom_site_label
_atom_site_fract_x
_atom_site_fract_y
_atom_site_fract_z
Si Si1 0.949744 0.082817 0.246322
Si Si2 0.456042 0.919557 0.575798
Si Si3 0.304287 0.417541 0.926528
Si Si4 0.458768 0.919559 0.921784
Si Si5 0.214840 0.079117 0.100539
Si Si6 0.293519 0.581118 0.257712
O O1 0.922710 0.250000 0.241320
O O2 0.006358 0.042889 0.168308
O O3 0.993274 0.050642 0.335432
O O4 0.877701 0.980241 0.241422
O O5 0.459203 0.750000 0.554283
O O6 0.369586 0.974896 0.577813
O O7 0.500000 0.000000 0.500000
O O8 0.331209 0.250000 0.926445
O O9 0.375008 0.519724 0.906919
O O10 0.241042 0.445579 0.853379
O O11 0.269578 0.460203 0.020189
O O12 0.453204 0.750000 0.944038
O O13 0.500000 0.000000 0.000000
O O14 0.215260 0.250000 0.121019
O O15 0.242009 0.997374 0.186508
O O16 0.297059 0.750000 0.233613
#
# Coordination Sequence:
#
# PCOD8253969 Si02
#       6
#     8   8   8   8   8   8
#     4  10  22  39  58  82 114 152 189 227 281 344
#     4  10  21  38  60  85 114 150 190 232 280 335
#     4  10  22  39  58  83 116 151 187 231 283 336
#     4  11  23  39  60  85 114 150 191 234 281 335
#     4  10  21  39  60  82 114 153 188 227 282 343
#     4  11  23  38  59  87 115 146 189 239 283 327
#
# _framework density 19.420338000000001
#
# number of rings (size 3 to 8) (size 9 to 14) (size 15 to 20)
#    0.000    1.667    0.000    4.000    0.000   11.333 
#    0.000    0.000    0.000    0.000    0.000    0.000 
#    0.000    0.000    0.000    0.000    0.000    0.000 
#
# Total GULP energy -595489.538319 kJ/mol
# GULP energy per Si atom -12406.032048 kJ/mol
# Density = 1.937614 g / cm^3
# Si number density = 19.420338 Si / 1000 Ang^3
#
#
#
# Elastic Constant Matrix: (Units=GPa)
#
#
# Indices 1 2 3 4 5 6 
#
# 1 110.5148 52.5197 14.0146 0.0000 0.0000 0.0000
# 2 52.5197 76.7896 44.2714 0.0000 0.0000 0.0000
# 3 14.0146 44.2714 95.8304 0.0000 0.0000 0.0000
# 4 0.0000 0.0000 0.0000 32.4020 0.0000 0.0000
# 5 0.0000 0.0000 0.0000 0.0000 31.0230 0.0000
# 6 0.0000 0.0000 0.0000 0.0000 0.0000 37.2369
#
#
#
# Elastic Compliance Matrix: (Units=1/GPa)
#
#
# Indices 1 2 3 4 5 6 
#
# 1 0.014118 -0.011539 0.003266 0.000000 0.000000 0.000000
# 2 -0.011539 0.027181 -0.010870 0.000000 0.000000 0.000000
# 3 0.003266 -0.010870 0.014979 0.000000 0.000000 0.000000
# 4 0.000000 0.000000 0.000000 0.030862 0.000000 0.000000
# 5 0.000000 0.000000 0.000000 0.000000 0.032234 0.000000
# 6 0.000000 0.000000 0.000000 0.000000 0.000000 0.026855
#
#
# Mechanical properties :
#
#
# Convention : Reuss Voigt Hill
#
# Bulk Modulus (GPa) = 55.57635 56.08291 55.82963
# Shear Modulus (GPa) = 26.24508 31.62102 28.93305
#
# Velocity S-wave (km/s) = 3.68016 4.03953 3.86402
# Velocity P-wave (km/s) = 6.83651 7.12026 6.97983
#
# Compressibility (1/GPa) = 0.01799327
#
# Stress axis : x y z
#
# Youngs Moduli (GPa) = 70.83176 36.79026 66.76038
#
# Poissons Ratio (x) = 0.42452 -0.21804
# Poissons Ratio (y) = 0.81732 0.72566
# Poissons Ratio (z) = -0.23134 0.39989
#
# Static dielectric constant tensor:
#      x y z
#    x 3.697260 0.000000 0.000000 
#    y 0.000000 3.649610 0.000000 
#    z 0.000000 0.000000 3.677000 
# 
# 
# High freq. dielectric constant tensor:
#      x y z
#    x 1.772260 0.000000 0.000000 
#    y 0.000000 1.755260 0.000000 
#    z 0.000000 0.000000 1.774370 
# 
# From -- ./inp_files/19528.got.cif
#   From: 2010.03.12/outbox.cif.g09.slc.cpg/sg62_10_cif.got.tgz:19528.got - 2010.04.10 19:12:36.
