data_PCOD8253518
_publ_section_title
;
Structure prediction by ZEFSAII (Michael W. Deem and Ramdas Pophale) SiO2 
 PCOD8253518
Probable space group: P N M A
;
_chemical_formula_sum "Si O2"
_cell_formula_units_Z 40
_cell_length_a 7.919265
_cell_length_b 8.472161
_cell_length_c 28.993429
_cell_angle_alpha 90.000000
_cell_angle_beta 90.000000
_cell_angle_gamma 90.000000
_cell_volume 1945.264484
_symmetry_space_group_name_H-M "P N M A"
_symmetry_group_IT_number 62
_symmetry_cell_setting 'orthorhombic'
loop_
_space_group_symop_operation_xyz
x,y,z
1/2-x,-y,1/2+z
1/2+x,1/2-y,1/2-z
-x,1/2+y,-z
-x,-y,-z
1/2+x,y,1/2-z
1/2-x,1/2+y,1/2+z
x,1/2-y,z
loop_
_atom_site_type_symbol
_atom_site_label
_atom_site_fract_x
_atom_site_fract_y
_atom_site_fract_z
Si Si1 0.177878 0.567671 0.797724
Si Si2 0.300298 0.062748 0.113066
Si Si3 0.328130 0.934549 0.893252
Si Si4 0.988909 0.062498 0.051162
Si Si5 0.679247 0.931424 0.293358
O O1 0.121265 0.750000 0.800944
O O2 0.301819 0.522194 0.839614
O O3 0.272287 0.538514 0.750024
O O4 0.016570 0.457198 0.803649
O O5 0.290625 0.250000 0.120402
O O6 0.483018 0.010678 0.092207
O O7 0.152876 0.002006 0.079289
O O8 0.287086 0.981209 0.162567
O O9 0.312448 0.750000 0.900471
O O10 0.180801 0.009728 0.925237
O O11 0.987229 0.250000 0.050912
O O12 0.000000 0.000000 0.000000
O O13 0.715603 0.750000 0.281496
#
# Coordination Sequence:
#
# PCOD8253518 Si02
#       5
#     8   8   8   8   8
#     4  11  21  38  61  85 118 167 213 246 297 375
#     4  10  20  39  64  86 116 162 209 249 299 375
#     4   9  19  37  62  88 114 152 207 255 290 357
#     4  10  21  39  61  89 120 156 205 257 309 367
#     4  12  24  37  56  90 129 159 199 261 316 359
#
# _framework density 20.562759
#
# number of rings (size 3 to 8) (size 9 to 14) (size 15 to 20)
#    0.000    1.600    2.000    3.600    0.000    3.200 
#    0.000    2.000    0.000    0.000    0.000    0.000 
#    0.000    0.000    0.000    0.000    0.000    0.000 
#
# Total GULP energy -496014.863848 kJ/mol
# GULP energy per Si atom -12400.371596 kJ/mol
# Density = 2.051596 g / cm^3
# Si number density = 20.562759 Si / 1000 Ang^3
#
#
#
# Elastic Constant Matrix: (Units=GPa)
#
#
# Indices 1 2 3 4 5 6 
#
# 1 176.2060 16.4064 68.4693 0.0000 0.0000 0.0000
# 2 16.4064 36.4941 16.9410 0.0000 0.0000 0.0000
# 3 68.4693 16.9410 145.0494 0.0000 0.0000 0.0000
# 4 0.0000 0.0000 0.0000 28.7532 0.0000 0.0000
# 5 0.0000 0.0000 0.0000 0.0000 30.5900 0.0000
# 6 0.0000 0.0000 0.0000 0.0000 0.0000 13.6370
#
#
#
# Elastic Compliance Matrix: (Units=1/GPa)
#
#
# Indices 1 2 3 4 5 6 
#
# 1 0.007050 -0.001718 -0.003127 0.000000 0.000000 0.000000
# 2 -0.001718 0.029391 -0.002622 0.000000 0.000000 0.000000
# 3 -0.003127 -0.002622 0.008677 0.000000 0.000000 0.000000
# 4 0.000000 0.000000 0.000000 0.034779 0.000000 0.000000
# 5 0.000000 0.000000 0.000000 0.000000 0.032690 0.000000
# 6 0.000000 0.000000 0.000000 0.000000 0.000000 0.073330
#
#
# Mechanical properties :
#
#
# Convention : Reuss Voigt Hill
#
# Bulk Modulus (GPa) = 33.13020 62.37588 47.75304
# Shear Modulus (GPa) = 23.70653 31.65825 27.68239
#
# Velocity S-wave (km/s) = 3.39910 3.92802 3.67309
# Velocity P-wave (km/s) = 5.61711 7.13952 6.42357
#
# Compressibility (1/GPa) = 0.03018394
#
# Stress axis : x y z
#
# Youngs Moduli (GPa) = 141.83671 34.02399 115.25123
#
# Poissons Ratio (x) = 0.05845 0.36044
# Poissons Ratio (y) = 0.24365 0.30217
# Poissons Ratio (z) = 0.44358 0.08921
#
# Static dielectric constant tensor:
#      x y z
#    x 4.258390 0.000000 0.000000 
#    y 0.000000 3.385420 0.000000 
#    z 0.000000 0.000000 4.094580 
# 
# 
# High freq. dielectric constant tensor:
#      x y z
#    x 1.822560 0.000000 0.000000 
#    y 0.000000 1.774250 0.000000 
#    z 0.000000 0.000000 1.801100 
# 
# From -- ./inp_files/30661.got.cif
#   From: 2010.03.12/outbox.cif.g09.slc.cpg/sg62_16_cif.got.tgz:30661.got - 2010.04.10 19:12:36.
