data_PCOD8253390
_publ_section_title
;
Structure prediction by ZEFSAII (Michael W. Deem and Ramdas Pophale) SiO2 
 PCOD8253390
Probable space group: P N M A
;
_chemical_formula_sum "Si O2"
_cell_formula_units_Z 48
_cell_length_a 23.746735
_cell_length_b 8.505980
_cell_length_c 11.979082
_cell_angle_alpha 90.000000
_cell_angle_beta 90.000000
_cell_angle_gamma 90.000000
_cell_volume 2419.645825
_symmetry_space_group_name_H-M "P N M A"
_symmetry_group_IT_number 62
_symmetry_cell_setting 'orthorhombic'
loop_
_space_group_symop_operation_xyz
x,y,z
1/2-x,-y,1/2+z
1/2+x,1/2-y,1/2-z
-x,1/2+y,-z
-x,-y,-z
1/2+x,y,1/2-z
1/2-x,1/2+y,1/2+z
x,1/2-y,z
loop_
_atom_site_type_symbol
_atom_site_label
_atom_site_fract_x
_atom_site_fract_y
_atom_site_fract_z
Si Si1 0.386115 0.431738 0.471460
Si Si2 0.082070 0.068842 0.201257
Si Si3 0.331982 0.565448 0.893543
Si Si4 0.038666 0.433789 0.784645
Si Si5 0.859486 0.564519 0.362872
Si Si6 0.287417 0.565550 0.342665
O O1 0.396688 0.250000 0.445069
O O2 0.394842 0.461655 0.601925
O O3 0.431126 0.534313 0.402749
O O4 0.322282 0.478156 0.439814
O O5 0.089603 0.250000 0.167727
O O6 0.116678 0.026971 0.312010
O O7 0.017313 0.034612 0.227465
O O8 0.318797 0.750000 0.899783
O O9 0.277552 0.476806 0.848298
O O10 0.348139 0.493795 0.014715
O O11 0.024095 0.250000 0.777957
O O12 0.079961 0.489809 0.684803
O O13 0.859703 0.750000 0.372099
O O14 0.810586 0.509095 0.277960
O O15 0.296970 0.750000 0.358537
#
# Coordination Sequence:
#
# PCOD8253390 Si02
#       6
#     8   8   8   8   8   8
#     4  11  22  38  61  86 115 154 197 240 294 345
#     4  11  23  37  56  87 123 153 193 241 288 341
#     4  10  22  39  58  84 117 156 195 236 286 345
#     4  10  20  38  62  86 115 152 195 240 293 346
#     4   8  18  38  60  81 111 151 190 234 287 343
#     4  10  21  38  60  86 116 149 191 241 293 345
#
# _framework density 19.837613000000001
#
# number of rings (size 3 to 8) (size 9 to 14) (size 15 to 20)
#    0.000    2.000    0.000    4.500    2.333    2.000 
#    0.000    4.167    0.000    0.000    0.000    0.000 
#    0.000    0.000    0.000    0.000    0.000    0.000 
#
# Total GULP energy -595367.130416 kJ/mol
# GULP energy per Si atom -12403.481884 kJ/mol
# Density = 1.979246 g / cm^3
# Si number density = 19.837613 Si / 1000 Ang^3
#
#
#
# Elastic Constant Matrix: (Units=GPa)
#
#
# Indices 1 2 3 4 5 6 
#
# 1 99.9618 21.3721 59.3875 0.0000 0.0000 0.0000
# 2 21.3721 48.4555 20.3157 0.0000 0.0000 0.0000
# 3 59.3875 20.3157 135.0474 0.0000 0.0000 0.0000
# 4 0.0000 0.0000 0.0000 21.7581 0.0000 0.0000
# 5 0.0000 0.0000 0.0000 0.0000 22.2076 0.0000
# 6 0.0000 0.0000 0.0000 0.0000 0.0000 35.7355
#
#
#
# Elastic Compliance Matrix: (Units=1/GPa)
#
#
# Indices 1 2 3 4 5 6 
#
# 1 0.014197 -0.003890 -0.005658 0.000000 0.000000 0.000000
# 2 -0.003890 0.023092 -0.001763 0.000000 0.000000 0.000000
# 3 -0.005658 -0.001763 0.010158 0.000000 0.000000 0.000000
# 4 0.000000 0.000000 0.000000 0.045960 0.000000 0.000000
# 5 0.000000 0.000000 0.000000 0.000000 0.045030 0.000000
# 6 0.000000 0.000000 0.000000 0.000000 0.000000 0.027983
#
#
# Mechanical properties :
#
#
# Convention : Reuss Voigt Hill
#
# Bulk Modulus (GPa) = 40.28117 53.95726 47.11922
# Shear Modulus (GPa) = 25.33989 28.09954 26.71971
#
# Velocity S-wave (km/s) = 3.57790 3.76770 3.67402
# Velocity P-wave (km/s) = 6.11703 6.79602 6.46544
#
# Compressibility (1/GPa) = 0.02482549
#
# Stress axis : x y z
#
# Youngs Moduli (GPa) = 70.43820 43.30429 98.44261
#
# Poissons Ratio (x) = 0.16843 0.55699
# Poissons Ratio (y) = 0.27397 0.17360
# Poissons Ratio (z) = 0.39854 0.07636
#
# Static dielectric constant tensor:
#      x y z
#    x 3.600430 0.000000 0.000000 
#    y 0.000000 3.439030 0.000000 
#    z 0.000000 0.000000 3.825120 
# 
# 
# High freq. dielectric constant tensor:
#      x y z
#    x 1.778970 0.000000 0.000000 
#    y 0.000000 1.763940 0.000000 
#    z 0.000000 0.000000 1.775250 
# 
# From -- ./inp_files/15135.got.cif
#   From: 2010.03.12/outbox.cif.g09.slc.cpg/sg62_8_cif.got.tgz:15135.got - 2010.04.10 19:12:36.
