data_PCOD8253996
_publ_section_title
;
Structure prediction by ZEFSAII (Michael W. Deem and Ramdas Pophale) SiO2 
 PCOD8253996
Probable space group: P N M A
;
_chemical_formula_sum "Si O2"
_cell_formula_units_Z 64
_cell_length_a 10.015135
_cell_length_b 16.922609
_cell_length_c 19.171359
_cell_angle_alpha 90.000000
_cell_angle_beta 90.000000
_cell_angle_gamma 90.000000
_cell_volume 3249.204363
_symmetry_space_group_name_H-M "P N M A"
_symmetry_group_IT_number 62
_symmetry_cell_setting 'orthorhombic'
loop_
_space_group_symop_operation_xyz
x,y,z
1/2-x,-y,1/2+z
1/2+x,1/2-y,1/2-z
-x,1/2+y,-z
-x,-y,-z
1/2+x,y,1/2-z
1/2-x,1/2+y,1/2+z
x,1/2-y,z
loop_
_atom_site_type_symbol
_atom_site_label
_atom_site_fract_x
_atom_site_fract_y
_atom_site_fract_z
Si Si1 0.516696 0.340133 0.285403
Si Si2 0.749814 0.076351 0.791266
Si Si3 0.740828 0.422179 0.207355
Si Si4 0.844222 0.006923 0.578554
Si Si5 0.478193 0.839794 0.291175
Si Si6 0.187704 0.160737 0.082230
Si Si7 0.848577 0.007672 0.419555
Si Si8 0.314996 0.838873 0.424659
O O1 0.471832 0.250000 0.277237
O O2 0.630178 0.357239 0.227693
O O3 0.387803 0.393643 0.271938
O O4 0.569478 0.356863 0.363620
O O5 0.611987 0.107973 0.759760
O O6 0.732158 0.053847 0.872189
O O7 0.866467 0.140088 0.783486
O O8 0.797434 0.999104 0.750890
O O9 0.737372 0.444434 0.125484
O O10 0.800583 0.097729 0.592115
O O11 0.997397 0.999667 0.599711
O O12 0.819115 0.982473 0.498798
O O13 0.458317 0.750000 0.268083
O O14 0.436765 0.853641 0.371759
O O15 0.243894 0.250000 0.093572
O O16 0.306912 0.098616 0.095097
O O17 0.130645 0.150594 0.003639
O O18 0.255766 0.750000 0.414582
#
# Coordination Sequence:
#
# PCOD8253996 Si02
#       8
#     8   8   8   8   8   8   8   8
#     4  11  24  41  61  87 120 158 202 249 304 361
#     4  12  23  39  61  90 120 158 200 252 301 357
#     4  12  23  39  61  90 120 158 200 252 301 357
#     4  10  21  38  60  90 124 160 201 248 301 358
#     4  11  24  41  61  87 120 158 202 249 304 361
#     4   9  19  37  61  87 118 156 198 244 299 362
#     4  10  21  38  60  90 124 160 201 248 301 358
#     4   9  19  37  61  87 118 156 198 244 299 362
#
# _framework density 19.697130000000001
#
# number of rings (size 3 to 8) (size 9 to 14) (size 15 to 20)
#    0.000    1.500    2.500    3.000    0.000    1.000 
#    0.000    3.750    0.000    3.750    0.000    0.000 
#    0.000    0.000    0.000    0.000    0.000    0.000 
#
# Total GULP energy -793704.463106 kJ/mol
# GULP energy per Si atom -12401.632236 kJ/mol
# Density = 1.965230 g / cm^3
# Si number density = 19.697130 Si / 1000 Ang^3
#
#
#
# Elastic Constant Matrix: (Units=GPa)
#
#
# Indices 1 2 3 4 5 6 
#
# 1 99.0089 36.5046 33.9555 0.0000 0.0000 0.0000
# 2 36.5046 78.9318 43.6855 0.0000 0.0000 0.0000
# 3 33.9555 43.6855 100.9751 0.0000 0.0000 0.0000
# 4 0.0000 0.0000 0.0000 31.8328 0.0000 0.0000
# 5 0.0000 0.0000 0.0000 0.0000 28.7399 0.0000
# 6 0.0000 0.0000 0.0000 0.0000 0.0000 34.2432
#
#
#
# Elastic Compliance Matrix: (Units=1/GPa)
#
#
# Indices 1 2 3 4 5 6 
#
# 1 0.012553 -0.004561 -0.002248 0.000000 0.000000 0.000000
# 2 -0.004561 0.018315 -0.006390 0.000000 0.000000 0.000000
# 3 -0.002248 -0.006390 0.013424 0.000000 0.000000 0.000000
# 4 0.000000 0.000000 0.000000 0.031414 0.000000 0.000000
# 5 0.000000 0.000000 0.000000 0.000000 0.034795 0.000000
# 6 0.000000 0.000000 0.000000 0.000000 0.000000 0.029203
#
#
# Mechanical properties :
#
#
# Convention : Reuss Voigt Hill
#
# Bulk Modulus (GPa) = 55.88581 56.35635 56.12108
# Shear Modulus (GPa) = 29.05850 29.94784 29.50317
#
# Velocity S-wave (km/s) = 3.84509 3.90348 3.87439
# Velocity P-wave (km/s) = 6.93881 6.99927 6.96911
#
# Compressibility (1/GPa) = 0.01789363
#
# Stress axis : x y z
#
# Youngs Moduli (GPa) = 79.66370 54.59910 74.49427
#
# Poissons Ratio (x) = 0.24905 0.16745
# Poissons Ratio (y) = 0.36338 0.47602
# Poissons Ratio (z) = 0.17907 0.34889
#
# Static dielectric constant tensor:
#      x y z
#    x 3.327040 0.000000 0.000000 
#    y 0.000000 3.695750 0.000000 
#    z 0.000000 0.000000 3.820700 
# 
# 
# High freq. dielectric constant tensor:
#      x y z
#    x 1.751180 0.000000 0.000000 
#    y 0.000000 1.771480 0.000000 
#    z 0.000000 0.000000 1.782700 
# 
# From -- ./inp_files/26161.got.cif
#   From: 2010.03.12/outbox.cif.g09.slc.cpg/sg62_14_cif.got.tgz:26161.got - 2010.04.10 19:12:36.
