data_PCOD8253163
_publ_section_title
;
Structure prediction by ZEFSAII (Michael W. Deem and Ramdas Pophale) SiO2 
 PCOD8253163
Probable space group: P N M A
;
_chemical_formula_sum "Si O2"
_cell_formula_units_Z 56
_cell_length_a 14.789892
_cell_length_b 9.233328
_cell_length_c 21.083499
_cell_angle_alpha 90.000000
_cell_angle_beta 90.000000
_cell_angle_gamma 90.000000
_cell_volume 2879.161019
_symmetry_space_group_name_H-M "P N M A"
_symmetry_group_IT_number 62
_symmetry_cell_setting 'orthorhombic'
loop_
_space_group_symop_operation_xyz
x,y,z
1/2-x,-y,1/2+z
1/2+x,1/2-y,1/2-z
-x,1/2+y,-z
-x,-y,-z
1/2+x,y,1/2-z
1/2-x,1/2+y,1/2+z
x,1/2-y,z
loop_
_atom_site_type_symbol
_atom_site_label
_atom_site_fract_x
_atom_site_fract_y
_atom_site_fract_z
Si Si1 0.702745 0.084211 0.602495
Si Si2 0.217592 0.580176 0.262243
Si Si3 0.111433 0.917525 0.721684
Si Si4 0.525092 0.920627 0.565179
Si Si5 0.025131 0.581096 0.592819
Si Si6 0.056276 0.416288 0.194992
Si Si7 0.125620 0.584957 0.469733
O O1 0.667611 0.250000 0.607795
O O2 0.763422 0.043290 0.663971
O O3 0.767627 0.064369 0.541441
O O4 0.619644 0.977544 0.592711
O O5 0.211871 0.750000 0.250533
O O6 0.300133 0.514744 0.223242
O O7 0.125353 0.513641 0.234622
O O8 0.140734 0.750000 0.716535
O O9 0.059071 0.972559 0.660114
O O10 0.045942 0.945115 0.781154
O O11 0.533911 0.750000 0.551810
O O12 0.447902 0.949548 0.619128
O O13 0.500000 0.000000 0.500000
O O14 0.006830 0.750000 0.592653
O O15 0.100217 0.535262 0.540709
O O16 0.929415 0.507270 0.581095
O O17 0.083715 0.250000 0.207429
O O18 0.096802 0.750000 0.458403
#
# Coordination Sequence:
#
# PCOD8253163 Si02
#       7
#     8   8   8   8   8   8   8
#     4  10  21  38  58  84 119 158 199 243 296 362
#     4  11  23  36  58  89 118 153 197 251 306 353
#     4  10  20  37  58  82 114 151 195 241 289 355
#     4  11  24  42  64  88 117 158 204 254 309 365
#     4   9  18  32  53  81 111 146 187 235 284 338
#     4  10  22  40  61  85 117 158 202 250 305 367
#     4   9  18  33  53  79 113 149 185 229 287 349
#
# _framework density 19.450109999999999
#
# number of rings (size 3 to 8) (size 9 to 14) (size 15 to 20)
#    0.000    2.000    1.429    1.714    0.000    4.571 
#    0.000    2.857    0.000    0.000    0.000    0.000 
#    0.000    0.000    0.000    0.000    0.000    0.000 
#
# Total GULP energy -694305.781318 kJ/mol
# GULP energy per Si atom -12398.317524 kJ/mol
# Density = 1.940584 g / cm^3
# Si number density = 19.450110 Si / 1000 Ang^3
#
#
#
# Elastic Constant Matrix: (Units=GPa)
#
#
# Indices 1 2 3 4 5 6 
#
# 1 84.3482 49.1052 33.7937 0.0000 0.0000 0.0000
# 2 49.1052 82.7070 45.9605 0.0000 0.0000 0.0000
# 3 33.7937 45.9605 103.8241 0.0000 0.0000 0.0000
# 4 0.0000 0.0000 0.0000 31.3425 0.0000 0.0000
# 5 0.0000 0.0000 0.0000 0.0000 25.2150 0.0000
# 6 0.0000 0.0000 0.0000 0.0000 0.0000 38.1021
#
#
#
# Elastic Compliance Matrix: (Units=1/GPa)
#
#
# Indices 1 2 3 4 5 6 
#
# 1 0.018297 -0.010019 -0.001521 0.000000 0.000000 0.000000
# 2 -0.010019 0.021521 -0.006266 0.000000 0.000000 0.000000
# 3 -0.001521 -0.006266 0.012900 0.000000 0.000000 0.000000
# 4 0.000000 0.000000 0.000000 0.031906 0.000000 0.000000
# 5 0.000000 0.000000 0.000000 0.000000 0.039659 0.000000
# 6 0.000000 0.000000 0.000000 0.000000 0.000000 0.026245
#
#
# Mechanical properties :
#
#
# Convention : Reuss Voigt Hill
#
# Bulk Modulus (GPa) = 58.45007 58.73311 58.59159
# Shear Modulus (GPa) = 26.06311 28.39992 27.23151
#
# Velocity S-wave (km/s) = 3.66457 3.82533 3.74581
# Velocity P-wave (km/s) = 6.92979 7.05501 6.99268
#
# Compressibility (1/GPa) = 0.01710862
#
# Stress axis : x y z
#
# Youngs Moduli (GPa) = 54.65250 46.46581 77.51687
#
# Poissons Ratio (x) = 0.46552 0.11787
# Poissons Ratio (y) = 0.54754 0.48572
# Poissons Ratio (z) = 0.08311 0.29115
#
# Static dielectric constant tensor:
#      x y z
#    x 3.411610 0.000000 0.000000 
#    y 0.000000 3.515190 0.000000 
#    z 0.000000 0.000000 3.822310 
# 
# 
# High freq. dielectric constant tensor:
#      x y z
#    x 1.750400 0.000000 0.000000 
#    y 0.000000 1.754120 0.000000 
#    z 0.000000 0.000000 1.767780 
# 
# From -- ./inp_files/27239.got.cif
#   From: 2010.03.12/outbox.cif.g09.slc.cpg/sg62_14_cif.got.tgz:27239.got - 2010.04.10 19:12:36.
