data_PCOD8253515
_publ_section_title
;
Structure prediction by ZEFSAII (Michael W. Deem and Ramdas Pophale) SiO2 
 PCOD8253515
Probable space group: P N M A
;
_chemical_formula_sum "Si O2"
_cell_formula_units_Z 48
_cell_length_a 10.249724
_cell_length_b 28.564984
_cell_length_c 8.224616
_cell_angle_alpha 90.000000
_cell_angle_beta 90.000000
_cell_angle_gamma 90.000000
_cell_volume 2408.029408
_symmetry_space_group_name_H-M "P N M A"
_symmetry_group_IT_number 62
_symmetry_cell_setting 'orthorhombic'
loop_
_space_group_symop_operation_xyz
x,y,z
1/2-x,-y,1/2+z
1/2+x,1/2-y,1/2-z
-x,1/2+y,-z
-x,-y,-z
1/2+x,y,1/2-z
1/2-x,1/2+y,1/2+z
x,1/2-y,z
loop_
_atom_site_type_symbol
_atom_site_label
_atom_site_fract_x
_atom_site_fract_y
_atom_site_fract_z
Si Si1 0.143045 0.511209 0.561458
Si Si2 0.238618 0.348792 0.223539
Si Si3 0.482764 0.195692 0.375553
Si Si4 0.517813 0.881841 0.376119
Si Si5 0.268822 0.103223 0.890947
Si Si6 0.817533 0.439876 0.104534
O O1 0.202703 0.551507 0.451338
O O2 0.139797 0.525040 0.751322
O O3 0.233310 0.465768 0.534026
O O4 0.000000 0.500000 0.500000
O O5 0.345645 0.312563 0.287212
O O6 0.232763 0.396750 0.326606
O O7 0.097618 0.324712 0.238729
O O8 0.272782 0.359950 0.037450
O O9 0.505171 0.250000 0.408097
O O10 0.484545 0.170130 0.549570
O O11 0.375161 0.895948 0.308715
O O12 0.623127 0.880860 0.235443
O O13 0.553291 0.919288 0.518492
#
# Coordination Sequence:
#
# PCOD8253515 Si02
#       6
#     8   8   8   8   8   8
#     4  11  25  36  62  90 121 161 208 247 290 354
#     4   9  21  37  63  87 121 152 196 244 307 360
#     4  10  20  39  63  90 117 152 195 248 305 371
#     4  10  23  41  61  84 122 162 197 253 307 358
#     4  10  23  39  59  87 120 161 200 245 303 350
#     4  10  23  40  58  88 121 163 201 251 294 353
#
# _framework density 19.933312000000001
#
# number of rings (size 3 to 8) (size 9 to 14) (size 15 to 20)
#    0.000    2.000    0.000    1.500   16.333    2.000 
#    0.000    4.167    0.000    0.000    0.000    0.000 
#    0.000    0.000    0.000    0.000    0.000    0.000 
#
# Total GULP energy -595333.911363 kJ/mol
# GULP energy per Si atom -12402.789820 kJ/mol
# Density = 1.988794 g / cm^3
# Si number density = 19.933312 Si / 1000 Ang^3
#
#
#
# Elastic Constant Matrix: (Units=GPa)
#
#
# Indices 1 2 3 4 5 6 
#
# 1 78.8835 24.1273 10.0618 0.0000 0.0000 0.0000
# 2 24.1273 100.7702 24.0458 0.0000 0.0000 0.0000
# 3 10.0618 24.0458 63.6922 0.0000 0.0000 0.0000
# 4 0.0000 0.0000 0.0000 16.2270 0.0000 0.0000
# 5 0.0000 0.0000 0.0000 0.0000 36.9061 0.0000
# 6 0.0000 0.0000 0.0000 0.0000 0.0000 25.4364
#
#
#
# Elastic Compliance Matrix: (Units=1/GPa)
#
#
# Indices 1 2 3 4 5 6 
#
# 1 0.013739 -0.003046 -0.001020 0.000000 0.000000 0.000000
# 2 -0.003046 0.011581 -0.003891 0.000000 0.000000 0.000000
# 3 -0.001020 -0.003891 0.017331 0.000000 0.000000 0.000000
# 4 0.000000 0.000000 0.000000 0.061626 0.000000 0.000000
# 5 0.000000 0.000000 0.000000 0.000000 0.027096 0.000000
# 6 0.000000 0.000000 0.000000 0.000000 0.000000 0.039314
#
#
# Mechanical properties :
#
#
# Convention : Reuss Voigt Hill
#
# Bulk Modulus (GPa) = 37.40309 39.97952 38.69131
# Shear Modulus (GPa) = 25.57375 28.05462 26.81418
#
# Velocity S-wave (km/s) = 3.58574 3.75563 3.67167
# Velocity P-wave (km/s) = 5.99568 6.23751 6.11779
#
# Compressibility (1/GPa) = 0.02673576
#
# Stress axis : x y z
#
# Youngs Moduli (GPa) = 72.78695 86.34561 57.70094
#
# Poissons Ratio (x) = 0.26300 0.05888
# Poissons Ratio (y) = 0.22171 0.22452
# Poissons Ratio (z) = 0.07428 0.33598
#
# Static dielectric constant tensor:
#      x y z
#    x 3.783420 0.000000 0.000000 
#    y 0.000000 3.614160 0.000000 
#    z 0.000000 0.000000 4.476990 
# 
# 
# High freq. dielectric constant tensor:
#      x y z
#    x 1.790290 0.000000 0.000000 
#    y 0.000000 1.771330 0.000000 
#    z 0.000000 0.000000 1.771980 
# 
# From -- ./inp_files/4499.got.cif
#   From: 2010.03.12/outbox.cif.g09.slc.cpg/sg62_3_cif.got.tgz:4499.got - 2010.04.10 19:12:36.
