data_PCOD8253010
_publ_section_title
;
Structure prediction by ZEFSAII (Michael W. Deem and Ramdas Pophale) SiO2 
 PCOD8253010
Probable space group: P N M A
;
_chemical_formula_sum "Si O2"
_cell_formula_units_Z 40
_cell_length_a 15.069337
_cell_length_b 9.212512
_cell_length_c 15.153437
_cell_angle_alpha 90.000000
_cell_angle_beta 90.000000
_cell_angle_gamma 90.000000
_cell_volume 2103.697833
_symmetry_space_group_name_H-M "P N M A"
_symmetry_group_IT_number 62
_symmetry_cell_setting 'orthorhombic'
loop_
_space_group_symop_operation_xyz
x,y,z
1/2-x,-y,1/2+z
1/2+x,1/2-y,1/2-z
-x,1/2+y,-z
-x,-y,-z
1/2+x,y,1/2-z
1/2-x,1/2+y,1/2+z
x,1/2-y,z
loop_
_atom_site_type_symbol
_atom_site_label
_atom_site_fract_x
_atom_site_fract_y
_atom_site_fract_z
Si Si1 0.776799 0.920999 0.174448
Si Si2 0.249016 0.419522 0.021687
Si Si3 0.152944 0.917784 0.169459
Si Si4 0.447356 0.080506 0.075247
Si Si5 0.534635 0.082984 0.748744
O O1 0.763839 0.750000 0.171252
O O2 0.709026 0.983616 0.247963
O O3 0.877263 0.965798 0.197195
O O4 0.753246 0.983943 0.077811
O O5 0.226320 0.250000 0.020882
O O6 0.175060 0.498332 0.079968
O O7 0.343713 0.452357 0.064583
O O8 0.178289 0.750000 0.156392
O O9 0.048504 0.938753 0.184493
O O10 0.468501 0.250000 0.069711
O O11 0.480377 0.018813 0.167748
O O12 0.500000 0.000000 0.000000
O O13 0.541813 0.250000 0.780621
#
# Coordination Sequence:
#
# PCOD8253010 Si02
#       5
#     8   8   8   8   8
#     4   9  18  35  56  78 112 151 185 230 287 339
#     4  10  21  37  57  82 114 152 190 235 287 341
#     4  10  20  36  58  83 111 149 192 235 286 345
#     4  11  22  36  57  85 116 149 193 242 289 338
#     4  10  20  36  59  82 110 151 195 232 283 349
#
# _framework density 19.014137000000002
#
# number of rings (size 3 to 8) (size 9 to 14) (size 15 to 20)
#    0.000    2.000    2.000    1.800    0.000    5.600 
#    0.000    2.000    0.000    0.000    0.000    0.000 
#    0.000    0.000    0.000    0.000    0.000    0.000 
#
# Total GULP energy -496125.704201 kJ/mol
# GULP energy per Si atom -12403.142605 kJ/mol
# Density = 1.897086 g / cm^3
# Si number density = 19.014137 Si / 1000 Ang^3
#
#
#
# Elastic Constant Matrix: (Units=GPa)
#
#
# Indices 1 2 3 4 5 6 
#
# 1 70.8853 18.3701 0.9066 0.0000 0.0000 0.0000
# 2 18.3701 50.1665 17.5007 0.0000 0.0000 0.0000
# 3 0.9066 17.5007 86.0468 0.0000 0.0000 0.0000
# 4 0.0000 0.0000 0.0000 34.2828 0.0000 0.0000
# 5 0.0000 0.0000 0.0000 0.0000 34.8671 0.0000
# 6 0.0000 0.0000 0.0000 0.0000 0.0000 19.4915
#
#
#
# Elastic Compliance Matrix: (Units=1/GPa)
#
#
# Indices 1 2 3 4 5 6 
#
# 1 0.015679 -0.006118 0.001079 0.000000 0.000000 0.000000
# 2 -0.006118 0.023843 -0.004785 0.000000 0.000000 0.000000
# 3 0.001079 -0.004785 0.012583 0.000000 0.000000 0.000000
# 4 0.000000 0.000000 0.000000 0.029169 0.000000 0.000000
# 5 0.000000 0.000000 0.000000 0.000000 0.028680 0.000000
# 6 0.000000 0.000000 0.000000 0.000000 0.000000 0.051304
#
#
# Mechanical properties :
#
#
# Convention : Reuss Voigt Hill
#
# Bulk Modulus (GPa) = 30.80887 31.18372 30.99630
# Shear Modulus (GPa) = 26.07891 29.08304 27.58098
#
# Velocity S-wave (km/s) = 3.70747 3.91519 3.81274
# Velocity P-wave (km/s) = 5.87923 6.07241 5.97660
#
# Compressibility (1/GPa) = 0.03245818
#
# Stress axis : x y z
#
# Youngs Moduli (GPa) = 63.77984 41.94095 79.46987
#
# Poissons Ratio (x) = 0.25659 -0.08575
# Poissons Ratio (y) = 0.39019 0.38025
# Poissons Ratio (z) = -0.06882 0.20068
#
# Static dielectric constant tensor:
#      x y z
#    x 3.566420 0.000000 0.000000 
#    y 0.000000 3.230550 0.000000 
#    z 0.000000 0.000000 3.724330 
# 
# 
# High freq. dielectric constant tensor:
#      x y z
#    x 1.748450 0.000000 0.000000 
#    y 0.000000 1.712310 0.000000 
#    z 0.000000 0.000000 1.745970 
# 
# From -- ./inp_files/18592.got.cif
#   From: 2010.03.12/outbox.cif.g09.slc.cpg/sg62_10_cif.got.tgz:18592.got - 2010.04.10 19:12:36.
