data_PCOD8253071
_publ_section_title
;
Structure prediction by ZEFSAII (Michael W. Deem and Ramdas Pophale) SiO2 
 PCOD8253071
Probable space group: P N M A
;
_chemical_formula_sum "Si O2"
_cell_formula_units_Z 64
_cell_length_a 23.249466
_cell_length_b 15.192109
_cell_length_c 9.067429
_cell_angle_alpha 90.000000
_cell_angle_beta 90.000000
_cell_angle_gamma 90.000000
_cell_volume 3202.692286
_symmetry_space_group_name_H-M "P N M A"
_symmetry_group_IT_number 62
_symmetry_cell_setting 'orthorhombic'
loop_
_space_group_symop_operation_xyz
x,y,z
1/2-x,-y,1/2+z
1/2+x,1/2-y,1/2-z
-x,1/2+y,-z
-x,-y,-z
1/2+x,y,1/2-z
1/2-x,1/2+y,1/2+z
x,1/2-y,z
loop_
_atom_site_type_symbol
_atom_site_label
_atom_site_fract_x
_atom_site_fract_y
_atom_site_fract_z
Si Si1 0.366220 0.651490 0.584138
Si Si2 0.136565 0.352895 0.418839
Si Si3 0.559722 0.014692 0.578866
Si Si4 0.738074 0.082605 0.575898
Si Si5 0.060562 0.495199 0.578515
Si Si6 0.330896 0.406848 0.418339
Si Si7 0.848260 0.145509 0.409972
Si Si8 0.743689 0.345608 0.886746
O O1 0.388930 0.750000 0.592904
O O2 0.362325 0.613494 0.750025
O O3 0.413023 0.602045 0.487072
O O4 0.304154 0.650489 0.506093
O O5 0.118822 0.250000 0.431574
O O6 0.092980 0.412457 0.509797
O O7 0.199617 0.370295 0.483264
O O8 0.603357 0.933566 0.549384
O O9 0.500000 0.000000 0.500000
O O10 0.550168 0.027457 0.751397
O O11 0.802009 0.102719 0.519981
O O12 0.737125 0.087711 0.752615
O O13 0.713942 0.985839 0.546891
O O14 0.093743 0.588842 0.563302
O O15 0.000000 0.500000 0.500000
O O16 0.325204 0.366375 0.255993
O O17 0.307942 0.339369 0.541608
O O18 0.858770 0.250000 0.441535
O O19 0.729513 0.250000 0.820220
#
# Coordination Sequence:
#
# PCOD8253071 Si02
#       8
#     8   8   8   8   8   8   8   8
#     4  10  20  36  59  87 115 150 191 239 297 361
#     4  10  21  37  60  87 118 154 197 245 301 365
#     4  10  22  40  59  82 111 148 195 247 297 352
#     4  11  21  35  57  87 121 152 190 239 294 355
#     4  11  24  41  62  85 115 157 204 255 309 367
#     4  10  21  37  59  82 113 155 194 235 290 357
#     4  11  23  40  60  87 123 163 203 248 304 370
#     4  11  21  34  54  85 117 145 181 230 283 341
#
# _framework density 19.983187000000001
#
# number of rings (size 3 to 8) (size 9 to 14) (size 15 to 20)
#    0.000    1.500    0.000    6.750    0.000    7.000 
#    0.000    4.375    0.000    0.000    0.000    0.000 
#    0.000    0.000    0.000    0.000    0.000    0.000 
#
# Total GULP energy -793441.720906 kJ/mol
# GULP energy per Si atom -12397.526889 kJ/mol
# Density = 1.993770 g / cm^3
# Si number density = 19.983187 Si / 1000 Ang^3
#
#
#
# Elastic Constant Matrix: (Units=GPa)
#
#
# Indices 1 2 3 4 5 6 
#
# 1 130.2845 45.2446 71.2595 0.0000 0.0000 0.0000
# 2 45.2446 73.6319 37.4931 0.0000 0.0000 0.0000
# 3 71.2595 37.4931 144.6163 0.0000 0.0000 0.0000
# 4 0.0000 0.0000 0.0000 32.2175 0.0000 0.0000
# 5 0.0000 0.0000 0.0000 0.0000 39.7735 0.0000
# 6 0.0000 0.0000 0.0000 0.0000 0.0000 19.7830
#
#
#
# Elastic Compliance Matrix: (Units=1/GPa)
#
#
# Indices 1 2 3 4 5 6 
#
# 1 0.011911 -0.004989 -0.004576 0.000000 0.000000 0.000000
# 2 -0.004989 0.017736 -0.002140 0.000000 0.000000 0.000000
# 3 -0.004576 -0.002140 0.009724 0.000000 0.000000 0.000000
# 4 0.000000 0.000000 0.000000 0.031039 0.000000 0.000000
# 5 0.000000 0.000000 0.000000 0.000000 0.025142 0.000000
# 6 0.000000 0.000000 0.000000 0.000000 0.000000 0.050548
#
#
# Mechanical properties :
#
#
# Convention : Reuss Voigt Hill
#
# Bulk Modulus (GPa) = 62.64767 72.94746 67.79757
# Shear Modulus (GPa) = 28.59912 31.32385 29.96148
#
# Velocity S-wave (km/s) = 3.78717 3.96347 3.87632
# Velocity P-wave (km/s) = 7.10928 7.58480 7.35088
#
# Compressibility (1/GPa) = 0.01596229
#
# Stress axis : x y z
#
# Youngs Moduli (GPa) = 83.95861 56.38157 102.83563
#
# Poissons Ratio (x) = 0.28128 0.47053
# Poissons Ratio (y) = 0.41886 0.22007
# Poissons Ratio (z) = 0.38416 0.12066
#
# Static dielectric constant tensor:
#      x y z
#    x 3.400750 0.000000 0.000000 
#    y 0.000000 3.672790 0.000000 
#    z 0.000000 0.000000 3.719240 
# 
# 
# High freq. dielectric constant tensor:
#      x y z
#    x 1.769490 0.000000 0.000000 
#    y 0.000000 1.783500 0.000000 
#    z 0.000000 0.000000 1.795160 
# 
# From -- ./inp_files/9501.got.cif
#   From: 2010.03.12/outbox.cif.g09.slc.cpg/sg62_5_cif.got.tgz:9501.got - 2010.04.10 19:12:36.
