data_PCOD8253199
_publ_section_title
;
Structure prediction by ZEFSAII (Michael W. Deem and Ramdas Pophale) SiO2 
 PCOD8253199
Probable space group: P N M A
;
_chemical_formula_sum "Si O2"
_cell_formula_units_Z 64
_cell_length_a 11.163816
_cell_length_b 8.685914
_cell_length_c 34.786646
_cell_angle_alpha 90.000000
_cell_angle_beta 90.000000
_cell_angle_gamma 90.000000
_cell_volume 3373.189600
_symmetry_space_group_name_H-M "P N M A"
_symmetry_group_IT_number 62
_symmetry_cell_setting 'orthorhombic'
loop_
_space_group_symop_operation_xyz
x,y,z
1/2-x,-y,1/2+z
1/2+x,1/2-y,1/2-z
-x,1/2+y,-z
-x,-y,-z
1/2+x,y,1/2-z
1/2-x,1/2+y,1/2+z
x,1/2-y,z
loop_
_atom_site_type_symbol
_atom_site_label
_atom_site_fract_x
_atom_site_fract_y
_atom_site_fract_z
Si Si1 0.380415 0.430330 0.228340
Si Si2 0.350543 0.567391 0.774234
Si Si3 0.737226 0.569467 0.423765
Si Si4 0.890005 0.429483 0.359765
Si Si5 0.758976 0.423216 0.074547
Si Si6 0.870907 0.932346 0.499370
Si Si7 0.862852 0.070830 0.643426
Si Si8 0.016751 0.424173 0.041462
O O1 0.380320 0.250000 0.236074
O O2 0.265296 0.502318 0.251207
O O3 0.515695 0.492633 0.239854
O O4 0.356675 0.470103 0.183965
O O5 0.351018 0.750000 0.770524
O O6 0.331862 0.523468 0.818395
O O7 0.752820 0.750000 0.416843
O O8 0.779600 0.479254 0.386076
O O9 0.808921 0.507772 0.460751
O O10 0.600842 0.527616 0.431867
O O11 0.917579 0.250000 0.364581
O O12 0.006984 0.523885 0.372860
O O13 0.711846 0.250000 0.082940
O O14 0.734129 0.530781 0.111022
O O15 0.898181 0.420692 0.066435
O O16 0.696574 0.495356 0.036870
O O17 0.870604 0.750000 0.499765
O O18 0.000000 0.000000 0.500000
O O19 0.858747 0.250000 0.653074
O O20 0.064897 0.250000 0.035610
O O21 0.000000 0.500000 0.000000
#
# Coordination Sequence:
#
# PCOD8253199 Si02
#       8
#     8   8   8   8   8   8   8   8
#     4   8  16  32  58  84 111 143 189 231 274 332
#     4   9  17  35  59  84 111 149 187 231 280 339
#     4  11  22  38  56  81 114 147 186 232 282 336
#     4  10  20  37  59  85 114 149 189 232 278 335
#     4  10  21  39  57  76 106 147 191 231 272 331
#     4  10  21  35  52  77 106 138 180 228 273 323
#     4  11  22  36  56  85 115 147 183 231 287 338
#     4  11  22  39  60  80 107 149 193 234 284 337
#
# _framework density 18.973140000000001
#
# number of rings (size 3 to 8) (size 9 to 14) (size 15 to 20)
#    0.000    2.000    1.250    3.750    0.000    4.500 
#    2.250    3.125    0.000    0.000    0.000    0.000 
#    0.000    0.000    0.000    0.000    0.000    0.000 
#
# Total GULP energy -793399.684195 kJ/mol
# GULP energy per Si atom -12396.870066 kJ/mol
# Density = 1.892996 g / cm^3
# Si number density = 18.973140 Si / 1000 Ang^3
#
#
#
# Elastic Constant Matrix: (Units=GPa)
#
#
# Indices 1 2 3 4 5 6 
#
# 1 122.6688 16.7966 59.7184 0.0000 0.0000 0.0000
# 2 16.7966 30.5102 17.8805 0.0000 0.0000 0.0000
# 3 59.7184 17.8805 96.1327 0.0000 0.0000 0.0000
# 4 0.0000 0.0000 0.0000 24.0796 0.0000 0.0000
# 5 0.0000 0.0000 0.0000 0.0000 37.7355 0.0000
# 6 0.0000 0.0000 0.0000 0.0000 0.0000 25.3774
#
#
#
# Elastic Compliance Matrix: (Units=1/GPa)
#
#
# Indices 1 2 3 4 5 6 
#
# 1 0.011851 -0.002480 -0.006901 0.000000 0.000000 0.000000
# 2 -0.002480 0.037305 -0.005398 0.000000 0.000000 0.000000
# 3 -0.006901 -0.005398 0.015693 0.000000 0.000000 0.000000
# 4 0.000000 0.000000 0.000000 0.041529 0.000000 0.000000
# 5 0.000000 0.000000 0.000000 0.000000 0.026500 0.000000
# 6 0.000000 0.000000 0.000000 0.000000 0.000000 0.039405
#
#
# Mechanical properties :
#
#
# Convention : Reuss Voigt Hill
#
# Bulk Modulus (GPa) = 28.33556 48.67808 38.50682
# Shear Modulus (GPa) = 23.40776 27.76626 25.58701
#
# Velocity S-wave (km/s) = 3.51626 3.82966 3.67630
# Velocity P-wave (km/s) = 5.60825 6.72808 6.19352
#
# Compressibility (1/GPa) = 0.03529134
#
# Stress axis : x y z
#
# Youngs Moduli (GPa) = 84.38066 26.80625 63.72242
#
# Poissons Ratio (x) = 0.06648 0.43973
# Poissons Ratio (y) = 0.20927 0.34397
# Poissons Ratio (z) = 0.58228 0.14470
#
# Static dielectric constant tensor:
#      x y z
#    x 3.701840 0.000000 0.000000 
#    y 0.000000 3.106810 0.000000 
#    z 0.000000 0.000000 3.091790 
# 
# 
# High freq. dielectric constant tensor:
#      x y z
#    x 1.744140 0.000000 0.000000 
#    y 0.000000 1.722550 0.000000 
#    z 0.000000 0.000000 1.733570 
# 
# From -- ./inp_files/32606.got.cif
#   From: 2010.03.12/outbox.cif.g09.slc.cpg/sg62_17_cif.got.tgz:32606.got - 2010.04.10 19:12:36.
