data_PCOD8253359
_publ_section_title
;
Structure prediction by ZEFSAII (Michael W. Deem and Ramdas Pophale) SiO2 
 PCOD8253359
Probable space group: P N M A
;
_chemical_formula_sum "Si O2"
_cell_formula_units_Z 48
_cell_length_a 19.893285
_cell_length_b 8.869185
_cell_length_c 14.997041
_cell_angle_alpha 90.000000
_cell_angle_beta 90.000000
_cell_angle_gamma 90.000000
_cell_volume 2646.036296
_symmetry_space_group_name_H-M "P N M A"
_symmetry_group_IT_number 62
_symmetry_cell_setting 'orthorhombic'
loop_
_space_group_symop_operation_xyz
x,y,z
1/2-x,-y,1/2+z
1/2+x,1/2-y,1/2-z
-x,1/2+y,-z
-x,-y,-z
1/2+x,y,1/2-z
1/2-x,1/2+y,1/2+z
x,1/2-y,z
loop_
_atom_site_type_symbol
_atom_site_label
_atom_site_fract_x
_atom_site_fract_y
_atom_site_fract_z
Si Si1 0.457999 0.071485 0.578301
Si Si2 0.481797 0.427369 0.772040
Si Si3 0.667833 0.926889 0.202868
Si Si4 0.808502 0.424968 0.504890
Si Si5 0.817385 0.572984 0.883402
Si Si6 0.056983 0.428339 0.560210
O O1 0.456114 0.250000 0.566970
O O2 0.494790 0.021012 0.670357
O O3 0.500000 0.000000 0.500000
O O4 0.382229 0.011587 0.578425
O O5 0.478095 0.250000 0.775577
O O6 0.408949 0.486015 0.804978
O O7 0.540665 0.482833 0.838142
O O8 0.671590 0.750000 0.225217
O O9 0.703028 0.015135 0.284573
O O10 0.703903 0.965078 0.109119
O O11 0.827544 0.250000 0.495609
O O12 0.742204 0.467659 0.450929
O O13 0.869250 0.519168 0.464519
O O14 0.831710 0.750000 0.880380
O O15 0.052557 0.250000 0.550250
O O16 0.000000 0.500000 0.500000
#
# Coordination Sequence:
#
# PCOD8253359 Si02
#       6
#     8   8   8   8   8   8
#     4  10  20  38  61  82 109 145 187 230 274 330
#     4   8  16  32  54  77 105 140 177 217 268 329
#     4   9  17  35  58  75 103 147 184 217 271 333
#     4  10  21  38  56  78 113 150 182 226 280 331
#     4  10  21  37  57  82 112 145 184 230 276 327
#     4  11  20  33  55  84 113 144 183 227 274 330
#
# _framework density 18.140340999999999
#
# number of rings (size 3 to 8) (size 9 to 14) (size 15 to 20)
#    0.000    2.333    1.667    2.500    0.000    2.000 
#    3.000    2.500    0.000    0.000    0.000    0.000 
#    0.000    0.000    0.000    0.000    0.000    0.000 
#
# Total GULP energy -595022.185301 kJ/mol
# GULP energy per Si atom -12396.295527 kJ/mol
# Density = 1.809905 g / cm^3
# Si number density = 18.140341 Si / 1000 Ang^3
#
#
#
# Elastic Constant Matrix: (Units=GPa)
#
#
# Indices 1 2 3 4 5 6 
#
# 1 93.9681 52.0169 87.8303 0.0000 0.0000 0.0000
# 2 52.0169 73.8848 60.0713 0.0000 0.0000 0.0000
# 3 87.8303 60.0713 180.8536 0.0000 0.0000 0.0000
# 4 0.0000 0.0000 0.0000 31.1210 0.0000 0.0000
# 5 0.0000 0.0000 0.0000 0.0000 36.1718 0.0000
# 6 0.0000 0.0000 0.0000 0.0000 0.0000 28.3588
#
#
#
# Elastic Compliance Matrix: (Units=1/GPa)
#
#
# Indices 1 2 3 4 5 6 
#
# 1 0.024016 -0.010173 -0.008285 0.000000 0.000000 0.000000
# 2 -0.010173 0.022851 -0.002650 0.000000 0.000000 0.000000
# 3 -0.008285 -0.002650 0.010433 0.000000 0.000000 0.000000
# 4 0.000000 0.000000 0.000000 0.032133 0.000000 0.000000
# 5 0.000000 0.000000 0.000000 0.000000 0.027646 0.000000
# 6 0.000000 0.000000 0.000000 0.000000 0.000000 0.035262
#
#
# Mechanical properties :
#
#
# Convention : Reuss Voigt Hill
#
# Bulk Modulus (GPa) = 66.28558 83.17150 74.72854
# Shear Modulus (GPa) = 25.05220 29.04953 27.05087
#
# Velocity S-wave (km/s) = 3.72024 4.00606 3.86579
# Velocity P-wave (km/s) = 7.42114 8.20649 7.82368
#
# Compressibility (1/GPa) = 0.01508624
#
# Stress axis : x y z
#
# Youngs Moduli (GPa) = 41.63813 43.76233 95.85172
#
# Poissons Ratio (x) = 0.44518 0.79409
# Poissons Ratio (y) = 0.42357 0.25398
# Poissons Ratio (z) = 0.34495 0.11596
#
# Static dielectric constant tensor:
#      x y z
#    x 3.457100 0.000000 0.000000 
#    y 0.000000 3.301190 0.000000 
#    z 0.000000 0.000000 3.916170 
# 
# 
# High freq. dielectric constant tensor:
#      x y z
#    x 1.682760 0.000000 0.000000 
#    y 0.000000 1.695950 0.000000 
#    z 0.000000 0.000000 1.720080 
# 
# From -- ./inp_files/19598.got.cif
#   From: 2010.03.12/outbox.cif.g09.slc.cpg/sg62_10_cif.got.tgz:19598.got - 2010.04.10 19:12:36.
