data_PCOD8253130
_publ_section_title
;
Structure prediction by ZEFSAII (Michael W. Deem and Ramdas Pophale) SiO2 
 PCOD8253130
Probable space group: P N M A
;
_chemical_formula_sum "Si O2"
_cell_formula_units_Z 56
_cell_length_a 12.503445
_cell_length_b 14.872426
_cell_length_c 13.525066
_cell_angle_alpha 90.000000
_cell_angle_beta 90.000000
_cell_angle_gamma 90.000000
_cell_volume 2515.074754
_symmetry_space_group_name_H-M "P N M A"
_symmetry_group_IT_number 62
_symmetry_cell_setting 'orthorhombic'
loop_
_space_group_symop_operation_xyz
x,y,z
1/2-x,-y,1/2+z
1/2+x,1/2-y,1/2-z
-x,1/2+y,-z
-x,-y,-z
1/2+x,y,1/2-z
1/2-x,1/2+y,1/2+z
x,1/2-y,z
loop_
_atom_site_type_symbol
_atom_site_label
_atom_site_fract_x
_atom_site_fract_y
_atom_site_fract_z
Si Si1 0.182428 0.409396 0.108953
Si Si2 0.100472 0.647391 0.688780
Si Si3 0.601673 0.459832 0.178411
Si Si4 0.787047 0.151212 0.114506
Si Si5 0.304733 0.351731 0.799819
Si Si6 0.358439 0.104519 0.589839
Si Si7 0.909236 0.648987 0.088060
O O1 0.296337 0.361194 0.118907
O O2 0.122711 0.416977 0.213572
O O3 0.196713 0.509571 0.067289
O O4 0.115368 0.353793 0.028803
O O5 0.057364 0.750000 0.682937
O O6 0.130012 0.619247 0.801093
O O7 0.014682 0.575669 0.646979
O O8 0.689117 0.417982 0.104616
O O9 0.609283 0.569301 0.173807
O O10 0.743846 0.250000 0.145046
O O11 0.846924 0.161397 0.009921
O O12 0.335890 0.250000 0.837808
O O13 0.297164 0.347825 0.680798
O O14 0.191594 0.383193 0.846057
O O15 0.485374 0.090828 0.613923
O O16 0.938855 0.750000 0.118325
#
# Coordination Sequence:
#
# PCOD8253130 Si02
#       7
#     8   8   8   8   8   8   8
#     4  10  22  37  60  90 121 154 197 245 293 359
#     4  10  21  39  62  91 126 160 194 241 306 365
#     4  10  21  37  61  90 122 158 198 246 301 352
#     4  10  20  36  61  93 124 153 195 248 297 355
#     4  10  23  40  57  83 120 159 204 251 294 349
#     4  11  22  38  61  88 118 156 201 247 296 350
#     4  11  22  39  62  85 115 156 199 246 299 354
#
# _framework density 22.265740000000001
#
# number of rings (size 3 to 8) (size 9 to 14) (size 15 to 20)
#    0.000    1.714    0.000    4.286    0.000   10.857 
#    0.000    4.286    0.000    6.857    0.000    0.000 
#    0.000    0.000    0.000    0.000    0.000    0.000 
#
# Total GULP energy -694190.828038 kJ/mol
# GULP energy per Si atom -12396.264786 kJ/mol
# Density = 2.221506 g / cm^3
# Si number density = 22.265740 Si / 1000 Ang^3
#
#
#
# Elastic Constant Matrix: (Units=GPa)
#
#
# Indices 1 2 3 4 5 6 
#
# 1 86.9574 31.9779 35.5182 0.0000 0.0000 0.0000
# 2 31.9779 116.1775 3.9002 0.0000 0.0000 0.0000
# 3 35.5182 3.9002 74.8069 0.0000 0.0000 0.0000
# 4 0.0000 0.0000 0.0000 26.3362 0.0000 0.0000
# 5 0.0000 0.0000 0.0000 0.0000 26.0870 0.0000
# 6 0.0000 0.0000 0.0000 0.0000 0.0000 35.2129
#
#
#
# Elastic Compliance Matrix: (Units=1/GPa)
#
#
# Indices 1 2 3 4 5 6 
#
# 1 0.016060 -0.004172 -0.007408 0.000000 0.000000 0.000000
# 2 -0.004172 0.009706 0.001475 0.000000 0.000000 0.000000
# 3 -0.007408 0.001475 0.016808 0.000000 0.000000 0.000000
# 4 0.000000 0.000000 0.000000 0.037971 0.000000 0.000000
# 5 0.000000 0.000000 0.000000 0.000000 0.038333 0.000000
# 6 0.000000 0.000000 0.000000 0.000000 0.000000 0.028399
#
#
# Mechanical properties :
#
#
# Convention : Reuss Voigt Hill
#
# Bulk Modulus (GPa) = 44.71351 46.74828 45.73089
# Shear Modulus (GPa) = 28.58111 31.29692 29.93902
#
# Velocity S-wave (km/s) = 3.58667 3.75321 3.67089
# Velocity P-wave (km/s) = 6.10554 6.31057 6.20890
#
# Compressibility (1/GPa) = 0.02236460
#
# Stress axis : x y z
#
# Youngs Moduli (GPa) = 62.26768 103.02592 59.49548
#
# Poissons Ratio (x) = 0.42980 0.44072
# Poissons Ratio (y) = 0.25977 -0.08774
# Poissons Ratio (z) = 0.46126 -0.15193
#
# Static dielectric constant tensor:
#      x y z
#    x 3.791020 0.000000 0.000000 
#    y 0.000000 4.042320 0.000000 
#    z 0.000000 0.000000 3.899630 
# 
# 
# High freq. dielectric constant tensor:
#      x y z
#    x 1.856410 0.000000 0.000000 
#    y 0.000000 1.887920 0.000000 
#    z 0.000000 0.000000 1.864230 
# 
# From -- ./inp_files/18105.got.cif
#   From: 2010.03.12/outbox.cif.g09.slc.cpg/sg62_10_cif.got.tgz:18105.got - 2010.04.10 19:12:36.
