data_PCOD8253865
_publ_section_title
;
Structure prediction by ZEFSAII (Michael W. Deem and Ramdas Pophale) SiO2 
 PCOD8253865
Probable space group: P N M A
;
_chemical_formula_sum "Si O2"
_cell_formula_units_Z 56
_cell_length_a 15.408026
_cell_length_b 8.782406
_cell_length_c 19.243201
_cell_angle_alpha 90.000000
_cell_angle_beta 90.000000
_cell_angle_gamma 90.000000
_cell_volume 2603.981107
_symmetry_space_group_name_H-M "P N M A"
_symmetry_group_IT_number 62
_symmetry_cell_setting 'orthorhombic'
loop_
_space_group_symop_operation_xyz
x,y,z
1/2-x,-y,1/2+z
1/2+x,1/2-y,1/2-z
-x,1/2+y,-z
-x,-y,-z
1/2+x,y,1/2-z
1/2-x,1/2+y,1/2+z
x,1/2-y,z
loop_
_atom_site_type_symbol
_atom_site_label
_atom_site_fract_x
_atom_site_fract_y
_atom_site_fract_z
Si Si1 0.735115 0.072949 0.593136
Si Si2 0.288280 0.428959 0.262956
Si Si3 0.022923 0.069686 0.742526
Si Si4 0.591568 0.071736 0.485945
Si Si5 0.029860 0.581866 0.603872
Si Si6 0.127170 0.429604 0.168556
Si Si7 0.128720 0.417850 0.496731
O O1 0.732439 0.250000 0.614025
O O2 0.650457 0.021613 0.550589
O O3 0.746444 0.969645 0.660757
O O4 0.814963 0.042310 0.542686
O O5 0.304578 0.250000 0.257383
O O6 0.378182 0.515890 0.251492
O O7 0.215098 0.482991 0.207637
O O8 0.020083 0.250000 0.743903
O O9 0.988481 0.006348 0.669065
O O10 0.959243 0.008651 0.801822
O O11 0.579292 0.250000 0.484243
O O12 0.633618 0.020420 0.412302
O O13 0.500000 0.000000 0.500000
O O14 0.062995 0.750000 0.627161
O O15 0.110590 0.484688 0.573649
O O16 0.960155 0.601911 0.544174
O O17 0.114922 0.250000 0.178093
O O18 0.172832 0.250000 0.503277
#
# Coordination Sequence:
#
# PCOD8253865 Si02
#       7
#     8   8   8   8   8   8   8
#     4  11  23  39  62  91 126 163 205 263 325 382
#     4  11  24  42  66  93 126 171 222 270 324 390
#     4  12  25  40  62  93 129 164 209 267 328 388
#     4  10  23  42  64  91 122 163 214 264 320 381
#     4  10  21  38  60  86 122 164 204 249 308 374
#     4  10  23  44  67  92 125 171 223 268 319 391
#     4  10  21  37  59  90 122 158 205 253 307 374
#
# _framework density 21.505531999999999
#
# number of rings (size 3 to 8) (size 9 to 14) (size 15 to 20)
#    0.000    1.429    0.000    4.714    2.000   10.286 
#    0.000    0.000    0.000    0.000    0.000    0.000 
#    0.000    0.000    0.000    0.000    0.000    0.000 
#
# Total GULP energy -694455.941757 kJ/mol
# GULP energy per Si atom -12400.998960 kJ/mol
# Density = 2.145658 g / cm^3
# Si number density = 21.505532 Si / 1000 Ang^3
#
#
#
# Elastic Constant Matrix: (Units=GPa)
#
#
# Indices 1 2 3 4 5 6 
#
# 1 86.3537 32.5412 20.0811 0.0000 0.0000 0.0000
# 2 32.5412 83.6403 32.6132 0.0000 0.0000 0.0000
# 3 20.0811 32.6132 88.2273 0.0000 0.0000 0.0000
# 4 0.0000 0.0000 0.0000 33.3551 0.0000 0.0000
# 5 0.0000 0.0000 0.0000 0.0000 32.1992 0.0000
# 6 0.0000 0.0000 0.0000 0.0000 0.0000 30.3436
#
#
#
# Elastic Compliance Matrix: (Units=1/GPa)
#
#
# Indices 1 2 3 4 5 6 
#
# 1 0.013704 -0.004809 -0.001342 0.000000 0.000000 0.000000
# 2 -0.004809 0.015657 -0.004693 0.000000 0.000000 0.000000
# 3 -0.001342 -0.004693 0.013374 0.000000 0.000000 0.000000
# 4 0.000000 0.000000 0.000000 0.029980 0.000000 0.000000
# 5 0.000000 0.000000 0.000000 0.000000 0.031057 0.000000
# 6 0.000000 0.000000 0.000000 0.000000 0.000000 0.032956
#
#
# Mechanical properties :
#
#
# Convention : Reuss Voigt Hill
#
# Bulk Modulus (GPa) = 47.50852 47.63247 47.57050
# Shear Modulus (GPa) = 30.22398 30.71198 30.46798
#
# Velocity S-wave (km/s) = 3.75294 3.78312 3.76806
# Velocity P-wave (km/s) = 6.39677 6.42492 6.41086
#
# Compressibility (1/GPa) = 0.02104886
#
# Stress axis : x y z
#
# Youngs Moduli (GPa) = 72.96951 63.87030 74.76918
#
# Poissons Ratio (x) = 0.30713 0.10032
# Poissons Ratio (y) = 0.35089 0.35089
# Poissons Ratio (z) = 0.09790 0.29974
#
# Static dielectric constant tensor:
#      x y z
#    x 3.859140 0.000000 0.000000 
#    y 0.000000 4.626990 0.000000 
#    z 0.000000 0.000000 4.242890 
# 
# 
# High freq. dielectric constant tensor:
#      x y z
#    x 1.841700 0.000000 0.000000 
#    y 0.000000 1.847740 0.000000 
#    z 0.000000 0.000000 1.857510 
# 
# From -- ./inp_files/27236.got.cif
#   From: 2010.03.12/outbox.cif.g09.slc.cpg/sg62_14_cif.got.tgz:27236.got - 2010.04.10 19:12:36.
