data_PCOD8253236
_publ_section_title
;
Structure prediction by ZEFSAII (Michael W. Deem and Ramdas Pophale) SiO2 
 PCOD8253236
Probable space group: P N M A
;
_chemical_formula_sum "Si O2"
_cell_formula_units_Z 64
_cell_length_a 10.235626
_cell_length_b 11.138331
_cell_length_c 28.401507
_cell_angle_alpha 90.000000
_cell_angle_beta 90.000000
_cell_angle_gamma 90.000000
_cell_volume 3237.993057
_symmetry_space_group_name_H-M "P N M A"
_symmetry_group_IT_number 62
_symmetry_cell_setting 'orthorhombic'
loop_
_space_group_symop_operation_xyz
x,y,z
1/2-x,-y,1/2+z
1/2+x,1/2-y,1/2-z
-x,1/2+y,-z
-x,-y,-z
1/2+x,y,1/2-z
1/2-x,1/2+y,1/2+z
x,1/2-y,z
loop_
_atom_site_type_symbol
_atom_site_label
_atom_site_fract_x
_atom_site_fract_y
_atom_site_fract_z
Si Si1 0.133993 0.385335 0.614736
Si Si2 0.333060 0.387569 0.787422
Si Si3 0.927046 0.998712 0.235145
Si Si4 0.121653 0.970227 0.061058
Si Si5 0.653930 0.613274 0.108082
Si Si6 0.350129 0.614143 0.468315
Si Si7 0.828281 0.118121 0.321370
Si Si8 0.957868 0.617445 0.849380
O O1 0.141854 0.250000 0.638339
O O2 0.255194 0.393770 0.579118
O O3 0.131720 0.497037 0.650813
O O4 0.994536 0.394995 0.588012
O O5 0.370305 0.250000 0.791935
O O6 0.189993 0.402148 0.764723
O O7 0.437907 0.443399 0.752303
O O8 0.340224 0.446949 0.839814
O O9 0.886959 0.108841 0.269017
O O10 0.938852 0.042764 0.181244
O O11 0.069750 0.061203 0.100108
O O12 0.171673 0.041747 0.015950
O O13 0.001213 0.884715 0.047737
O O14 0.701527 0.750000 0.113497
O O15 0.755827 0.553236 0.071343
O O16 0.306268 0.750000 0.478253
O O17 0.874996 0.250000 0.342233
O O18 0.672747 0.121983 0.318235
O O19 0.014226 0.750000 0.858450
#
# Coordination Sequence:
#
# PCOD8253236 Si02
#       8
#     8   8   8   8   8   8   8   8
#     4  10  20  37  62  87 116 154 196 248 302 355
#     4  11  23  37  57  87 123 157 202 255 306 364
#     4  12  21  38  57  84 116 163 204 246 303 365
#     4  10  21  36  59  89 115 154 206 248 299 369
#     4   9  19  36  57  83 117 153 193 251 313 360
#     4  10  20  37  60  85 120 158 195 249 311 368
#     4  10  21  37  57  84 117 156 201 245 297 364
#     4  10  21  38  57  83 117 155 202 254 301 357
#
# _framework density 19.765329000000001
#
# number of rings (size 3 to 8) (size 9 to 14) (size 15 to 20)
#    0.000    1.750    2.500    2.250    0.000    1.500 
#    0.000    1.250    0.000    3.750    0.000    0.000 
#    0.000    0.000    0.000    0.000    0.000    0.000 
#
# Total GULP energy -793085.847228 kJ/mol
# GULP energy per Si atom -12391.966363 kJ/mol
# Density = 1.972034 g / cm^3
# Si number density = 19.765329 Si / 1000 Ang^3
#
#
#
# Elastic Constant Matrix: (Units=GPa)
#
#
# Indices 1 2 3 4 5 6 
#
# 1 84.3395 22.4774 34.1800 0.0000 0.0000 0.0000
# 2 22.4774 98.7811 33.3087 0.0000 0.0000 0.0000
# 3 34.1800 33.3087 101.5921 0.0000 0.0000 0.0000
# 4 0.0000 0.0000 0.0000 20.5089 0.0000 0.0000
# 5 0.0000 0.0000 0.0000 0.0000 31.1050 0.0000
# 6 0.0000 0.0000 0.0000 0.0000 0.0000 11.5390
#
#
#
# Elastic Compliance Matrix: (Units=1/GPa)
#
#
# Indices 1 2 3 4 5 6 
#
# 1 0.014007 -0.001797 -0.004123 0.000000 0.000000 0.000000
# 2 -0.001797 0.011612 -0.003203 0.000000 0.000000 0.000000
# 3 -0.004123 -0.003203 0.012281 0.000000 0.000000 0.000000
# 4 0.000000 0.000000 0.000000 0.048759 0.000000 0.000000
# 5 0.000000 0.000000 0.000000 0.000000 0.032149 0.000000
# 6 0.000000 0.000000 0.000000 0.000000 0.000000 0.086663
#
#
# Mechanical properties :
#
#
# Convention : Reuss Voigt Hill
#
# Bulk Modulus (GPa) = 50.88079 51.62720 51.25399
# Shear Modulus (GPa) = 21.71385 25.61369 23.66377
#
# Velocity S-wave (km/s) = 3.31808 3.60375 3.46386
# Velocity P-wave (km/s) = 6.36222 6.59491 6.47961
#
# Compressibility (1/GPa) = 0.01965378
#
# Stress axis : x y z
#
# Youngs Moduli (GPa) = 71.39400 86.11624 81.42899
#
# Poissons Ratio (x) = 0.15473 0.33576
# Poissons Ratio (y) = 0.12828 0.26080
# Poissons Ratio (z) = 0.29438 0.27581
#
# Static dielectric constant tensor:
#      x y z
#    x 3.692070 0.000000 0.000000 
#    y 0.000000 3.569160 0.000000 
#    z 0.000000 0.000000 3.564930 
# 
# 
# High freq. dielectric constant tensor:
#      x y z
#    x 1.778180 0.000000 0.000000 
#    y 0.000000 1.757880 0.000000 
#    z 0.000000 0.000000 1.759540 
# 
# From -- ./inp_files/32255.got.cif
#   From: 2010.03.12/outbox.cif.g09.slc.cpg/sg62_17_cif.got.tgz:32255.got - 2010.04.10 19:12:36.
