data_PCOD8253267
_publ_section_title
;
Structure prediction by ZEFSAII (Michael W. Deem and Ramdas Pophale) SiO2 
 PCOD8253267
Probable space group: P N M A
;
_chemical_formula_sum "Si O2"
_cell_formula_units_Z 56
_cell_length_a 17.625011
_cell_length_b 9.098050
_cell_length_c 16.550592
_cell_angle_alpha 90.000000
_cell_angle_beta 90.000000
_cell_angle_gamma 90.000000
_cell_volume 2653.940908
_symmetry_space_group_name_H-M "P N M A"
_symmetry_group_IT_number 62
_symmetry_cell_setting 'orthorhombic'
loop_
_space_group_symop_operation_xyz
x,y,z
1/2-x,-y,1/2+z
1/2+x,1/2-y,1/2-z
-x,1/2+y,-z
-x,-y,-z
1/2+x,y,1/2-z
1/2-x,1/2+y,1/2+z
x,1/2-y,z
loop_
_atom_site_type_symbol
_atom_site_label
_atom_site_fract_x
_atom_site_fract_y
_atom_site_fract_z
Si Si1 0.647773 0.578773 0.169097
Si Si2 0.346086 0.418015 0.173518
Si Si3 0.700923 0.919625 0.644181
Si Si4 0.198015 0.918099 0.147893
Si Si5 0.565174 0.091426 0.406827
Si Si6 0.067674 0.090846 0.911419
Si Si7 0.995659 0.925318 0.588040
O O1 0.642259 0.750000 0.144407
O O2 0.721023 0.505135 0.128588
O O3 0.660735 0.558803 0.264249
O O4 0.573338 0.493715 0.139145
O O5 0.327005 0.250000 0.150992
O O6 0.339647 0.442213 0.269322
O O7 0.282970 0.523553 0.135165
O O8 0.428027 0.462237 0.138413
O O9 0.715384 0.750000 0.624473
O O10 0.642104 0.990958 0.582669
O O11 0.197658 0.750000 0.121363
O O12 0.145753 0.011963 0.089228
O O13 0.570616 0.250000 0.361773
O O14 0.539387 0.120452 0.498179
O O15 0.500388 0.992387 0.363438
O O16 0.082978 0.250000 0.869227
O O17 0.984608 0.750000 0.578663
O O18 0.000000 0.000000 0.500000
#
# Coordination Sequence:
#
# PCOD8253267 Si02
#       7
#     8   8   8   8   8   8   8
#     4  10  22  40  60  87 118 152 194 244 295 349
#     4   9  21  40  60  85 115 150 195 241 290 350
#     4  10  20  37  61  88 115 152 196 241 294 352
#     4  10  21  37  60  89 117 150 194 243 294 346
#     4  10  21  36  55  80 115 155 192 232 283 343
#     4  10  21  36  54  82 117 152 191 237 285 339
#     4  11  24  42  63  89 121 159 202 250 302 362
#
# _framework density 21.100695999999999
#
# number of rings (size 3 to 8) (size 9 to 14) (size 15 to 20)
#    0.000    2.000    0.000    2.571    2.000    6.286 
#    0.000    1.429    0.000    0.000    0.000    0.000 
#    0.000    0.000    0.000    0.000    0.000    0.000 
#
# Total GULP energy -694119.267579 kJ/mol
# GULP energy per Si atom -12394.986921 kJ/mol
# Density = 2.105267 g / cm^3
# Si number density = 21.100696 Si / 1000 Ang^3
#
#
#
# Elastic Constant Matrix: (Units=GPa)
#
#
# Indices 1 2 3 4 5 6 
#
# 1 177.2533 94.4356 31.9196 0.0000 0.0000 0.0000
# 2 94.4356 171.9527 30.8593 0.0000 0.0000 0.0000
# 3 31.9196 30.8593 34.7187 0.0000 0.0000 0.0000
# 4 0.0000 0.0000 0.0000 24.0805 0.0000 0.0000
# 5 0.0000 0.0000 0.0000 0.0000 29.8269 0.0000
# 6 0.0000 0.0000 0.0000 0.0000 0.0000 46.1998
#
#
#
# Elastic Compliance Matrix: (Units=1/GPa)
#
#
# Indices 1 2 3 4 5 6 
#
# 1 0.008496 -0.003883 -0.004359 0.000000 0.000000 0.000000
# 2 -0.003883 0.008694 -0.004158 0.000000 0.000000 0.000000
# 3 -0.004359 -0.004158 0.036506 0.000000 0.000000 0.000000
# 4 0.000000 0.000000 0.000000 0.041527 0.000000 0.000000
# 5 0.000000 0.000000 0.000000 0.000000 0.033527 0.000000
# 6 0.000000 0.000000 0.000000 0.000000 0.000000 0.021645
#
#
# Mechanical properties :
#
#
# Convention : Reuss Voigt Hill
#
# Bulk Modulus (GPa) = 34.60691 77.59484 56.10087
# Shear Modulus (GPa) = 27.05232 35.13546 31.09389
#
# Velocity S-wave (km/s) = 3.58447 4.08503 3.84291
# Velocity P-wave (km/s) = 5.79376 7.68787 6.80702
#
# Compressibility (1/GPa) = 0.02889597
#
# Stress axis : x y z
#
# Youngs Moduli (GPa) = 117.70813 115.01555 27.39292
#
# Poissons Ratio (x) = 0.44666 0.11940
# Poissons Ratio (y) = 0.45712 0.11389
# Poissons Ratio (z) = 0.51307 0.47819
#
# Static dielectric constant tensor:
#      x y z
#    x 3.808020 0.000000 0.000000 
#    y 0.000000 4.270070 0.000000 
#    z 0.000000 0.000000 3.526740 
# 
# 
# High freq. dielectric constant tensor:
#      x y z
#    x 1.837340 0.000000 0.000000 
#    y 0.000000 1.848160 0.000000 
#    z 0.000000 0.000000 1.796670 
# 
# From -- ./inp_files/27094.got.cif
#   From: 2010.03.12/outbox.cif.g09.slc.cpg/sg62_14_cif.got.tgz:27094.got - 2010.04.10 19:12:36.
