data_PCOD8253445
_publ_section_title
;
Structure prediction by ZEFSAII (Michael W. Deem and Ramdas Pophale) SiO2 
 PCOD8253445
Probable space group: P N M A
;
_chemical_formula_sum "Si O2"
_cell_formula_units_Z 40
_cell_length_a 10.167736
_cell_length_b 11.041623
_cell_length_c 16.973202
_cell_angle_alpha 90.000000
_cell_angle_beta 90.000000
_cell_angle_gamma 90.000000
_cell_volume 1905.552664
_symmetry_space_group_name_H-M "P N M A"
_symmetry_group_IT_number 62
_symmetry_cell_setting 'orthorhombic'
loop_
_space_group_symop_operation_xyz
x,y,z
1/2-x,-y,1/2+z
1/2+x,1/2-y,1/2-z
-x,1/2+y,-z
-x,-y,-z
1/2+x,y,1/2-z
1/2-x,1/2+y,1/2+z
x,1/2-y,z
loop_
_atom_site_type_symbol
_atom_site_label
_atom_site_fract_x
_atom_site_fract_y
_atom_site_fract_z
Si Si1 0.499602 0.610231 0.313069
Si Si2 0.736912 0.750000 0.687645
Si Si3 0.969248 0.250000 0.324214
Si Si4 0.988760 0.987549 0.358475
Si Si5 0.231046 0.889201 0.072705
Si Si6 0.724839 0.993723 0.593272
O O1 0.500035 0.750000 0.287304
O O2 0.486068 0.528406 0.235817
O O3 0.635542 0.574006 0.355695
O O4 0.379654 0.588782 0.372966
O O5 0.647688 0.750000 0.763354
O O6 0.706095 0.866501 0.635942
O O7 0.887640 0.750000 0.717650
O O8 0.958678 0.370863 0.377730
O O9 0.881054 0.904356 0.399857
O O10 0.130266 0.950811 0.392980
O O11 0.208978 0.750000 0.048181
O O12 0.199449 0.975971 0.999386
#
# Coordination Sequence:
#
# PCOD8253445 Si02
#       6
#     8   4   4   8   8   8
#     4  11  24  41  63  93 122 162 207 253 308 367
#     4  10  20  38  64  90 122 156 202 254 304 362
#     4  10  22  36  62  94 116 154 206 254 304 360
#     4  11  23  40  64  91 122 160 210 253 304 368
#     4  11  24  42  63  90 126 164 202 255 313 366
#     4  11  22  42  63  90 127 162 203 252 307 370
#
# _framework density 20.991284
#
# number of rings (size 3 to 8) (size 9 to 14) (size 15 to 20)
#    0.000    1.200    3.000    3.000    2.800    3.200 
#    1.800    0.000    0.000    0.000    0.000    0.000 
#    0.000    0.000    0.000    0.000    0.000    0.000 
#
# Total GULP energy -496205.045485 kJ/mol
# GULP energy per Si atom -12405.126137 kJ/mol
# Density = 2.094351 g / cm^3
# Si number density = 20.991284 Si / 1000 Ang^3
#
#
#
# Elastic Constant Matrix: (Units=GPa)
#
#
# Indices 1 2 3 4 5 6 
#
# 1 83.6998 15.2755 -4.3811 0.0000 0.0000 0.0000
# 2 15.2755 46.9250 8.3868 0.0000 0.0000 0.0000
# 3 -4.3811 8.3868 61.8094 0.0000 0.0000 0.0000
# 4 0.0000 0.0000 0.0000 -53.9116 0.0000 0.0000
# 5 0.0000 0.0000 0.0000 0.0000 28.5433 0.0000
# 6 0.0000 0.0000 0.0000 0.0000 0.0000 28.0384
#
#
#
# Elastic Compliance Matrix: (Units=1/GPa)
#
#
# Indices 1 2 3 4 5 6 
#
# 1 0.012839 -0.004450 0.001514 0.000000 0.000000 0.000000
# 2 -0.004450 0.023383 -0.003488 0.000000 0.000000 0.000000
# 3 0.001514 -0.003488 0.016759 0.000000 0.000000 0.000000
# 4 0.000000 0.000000 0.000000 -0.018549 0.000000 0.000000
# 5 0.000000 0.000000 0.000000 0.000000 0.035035 0.000000
# 6 0.000000 0.000000 0.000000 0.000000 0.000000 0.035665
#
#
# Mechanical properties :
#
#
# Convention : Reuss Voigt Hill
#
# Bulk Modulus (GPa) = 24.91765 25.66630 25.29198
# Shear Modulus (GPa) = 38.06392 12.07753 25.07073
#
# Velocity S-wave (km/s) = 4.26293 2.40127 3.45967
# Velocity P-wave (km/s) = 6.01052 4.46562 5.29472
#
# Compressibility (1/GPa) = 0.04013219
#
# Stress axis : x y z
#
# Youngs Moduli (GPa) = 77.88865 42.76678 59.66807
#
# Poissons Ratio (x) = 0.19031 -0.09033
# Poissons Ratio (y) = 0.34660 0.20813
# Poissons Ratio (z) = -0.11791 0.14918
#
# Static dielectric constant tensor:
#      x y z
#    x 3.936020 0.000000 0.000000 
#    y 0.000000 3.761200 0.000000 
#    z 0.000000 0.000000 3.645470 
# 
# 
# High freq. dielectric constant tensor:
#      x y z
#    x 1.834810 0.000000 0.000000 
#    y 0.000000 1.821740 0.000000 
#    z 0.000000 0.000000 1.812690 
# 
# From -- ./inp_files/17815.got.cif
#   From: 2010.03.12/outbox.cif.g09.slc.cpg/sg62_9_cif.got.tgz:17815.got - 2010.04.10 19:12:36.
