data_PCOD8253503
_publ_section_title
;
Structure prediction by ZEFSAII (Michael W. Deem and Ramdas Pophale) SiO2 
 PCOD8253503
Probable space group: P N M A
;
_chemical_formula_sum "Si O2"
_cell_formula_units_Z 48
_cell_length_a 15.174283
_cell_length_b 16.585094
_cell_length_c 9.385472
_cell_angle_alpha 90.000000
_cell_angle_beta 90.000000
_cell_angle_gamma 90.000000
_cell_volume 2362.012737
_symmetry_space_group_name_H-M "P N M A"
_symmetry_group_IT_number 62
_symmetry_cell_setting 'orthorhombic'
loop_
_space_group_symop_operation_xyz
x,y,z
1/2-x,-y,1/2+z
1/2+x,1/2-y,1/2-z
-x,1/2+y,-z
-x,-y,-z
1/2+x,y,1/2-z
1/2-x,1/2+y,1/2+z
x,1/2-y,z
loop_
_atom_site_type_symbol
_atom_site_label
_atom_site_fract_x
_atom_site_fract_y
_atom_site_fract_z
Si Si1 0.167648 0.586387 0.582886
Si Si2 0.161320 0.843726 0.889993
Si Si3 0.684772 0.400437 0.917114
Si Si4 0.509580 0.654778 0.406751
Si Si5 0.511118 0.844438 0.086645
Si Si6 0.686027 0.343798 0.608796
O O1 0.168215 0.602070 0.750447
O O2 0.188648 0.494455 0.547204
O O3 0.071900 0.607499 0.522434
O O4 0.242669 0.641273 0.512430
O O5 0.147610 0.750000 0.849200
O O6 0.248973 0.852328 0.982344
O O7 0.078831 0.880255 0.979595
O O8 0.589492 0.363645 0.949905
O O9 0.713015 0.389208 0.753082
O O10 0.517669 0.750000 0.410884
O O11 0.533145 0.625704 0.246899
O O12 0.410235 0.626881 0.446021
O O13 0.529094 0.750000 0.068394
O O14 0.681406 0.250000 0.647297
#
# Coordination Sequence:
#
# PCOD8253503 Si02
#       6
#     8   8   8   8   8   8
#     4  12  24  37  56  90 125 151 187 250 309 342
#     4  11  22  38  59  87 119 154 194 243 298 354
#     4  11  23  40  59  85 119 157 198 244 292 346
#     4   8  18  36  61  84 105 142 198 244 277 332
#     4  10  20  39  63  84 109 154 204 241 283 354
#     4  10  20  40  64  84 111 158 207 240 279 352
#
# _framework density 20.321652
#
# number of rings (size 3 to 8) (size 9 to 14) (size 15 to 20)
#    0.000    1.667    0.000    6.500    0.000    2.667 
#    0.000   12.500    0.000    0.000    0.000    0.000 
#    0.000    0.000    0.000    0.000    0.000    0.000 
#
# Total GULP energy -595390.716086 kJ/mol
# GULP energy per Si atom -12403.973252 kJ/mol
# Density = 2.027540 g / cm^3
# Si number density = 20.321652 Si / 1000 Ang^3
#
#
#
# Elastic Constant Matrix: (Units=GPa)
#
#
# Indices 1 2 3 4 5 6 
#
# 1 107.9992 -1.1627 66.5411 0.0000 0.0000 0.0000
# 2 -1.1627 52.7185 -1.4208 0.0000 0.0000 0.0000
# 3 66.5411 -1.4208 104.5606 0.0000 0.0000 0.0000
# 4 0.0000 0.0000 0.0000 27.5587 0.0000 0.0000
# 5 0.0000 0.0000 0.0000 0.0000 28.5226 0.0000
# 6 0.0000 0.0000 0.0000 0.0000 0.0000 23.0760
#
#
#
# Elastic Compliance Matrix: (Units=1/GPa)
#
#
# Indices 1 2 3 4 5 6 
#
# 1 0.015232 0.000075 -0.009692 0.000000 0.000000 0.000000
# 2 0.000075 0.018976 0.000210 0.000000 0.000000 0.000000
# 3 -0.009692 0.000210 0.015735 0.000000 0.000000 0.000000
# 4 0.000000 0.000000 0.000000 0.036286 0.000000 0.000000
# 5 0.000000 0.000000 0.000000 0.000000 0.035060 0.000000
# 6 0.000000 0.000000 0.000000 0.000000 0.000000 0.043335
#
#
# Mechanical properties :
#
#
# Convention : Reuss Voigt Hill
#
# Bulk Modulus (GPa) = 32.12547 43.68817 37.90682
# Shear Modulus (GPa) = 25.79789 29.25284 27.52537
#
# Velocity S-wave (km/s) = 3.56684 3.79818 3.68433
# Velocity P-wave (km/s) = 5.72765 6.38591 6.06572
#
# Compressibility (1/GPa) = 0.03112795
#
# Stress axis : x y z
#
# Youngs Moduli (GPa) = 65.65200 52.69820 63.55354
#
# Poissons Ratio (x) = -0.00394 0.61598
# Poissons Ratio (y) = -0.00491 -0.01336
# Poissons Ratio (z) = 0.63632 -0.01108
#
# Static dielectric constant tensor:
#      x y z
#    x 3.892100 0.000000 0.000000 
#    y 0.000000 3.496490 0.000000 
#    z 0.000000 0.000000 3.682570 
# 
# 
# High freq. dielectric constant tensor:
#      x y z
#    x 1.807930 0.000000 0.000000 
#    y 0.000000 1.784490 0.000000 
#    z 0.000000 0.000000 1.791470 
# 
# From -- ./inp_files/6416.got.cif
#   From: 2010.03.12/outbox.cif.g09.slc.cpg/sg62_4_cif.got.tgz:6416.got - 2010.04.10 19:12:36.
