data_PCOD8253742
_publ_section_title
;
Structure prediction by ZEFSAII (Michael W. Deem and Ramdas Pophale) SiO2 
 PCOD8253742
Probable space group: P N M A
;
_chemical_formula_sum "Si O2"
_cell_formula_units_Z 64
_cell_length_a 15.288227
_cell_length_b 8.515990
_cell_length_c 24.776193
_cell_angle_alpha 90.000000
_cell_angle_beta 90.000000
_cell_angle_gamma 90.000000
_cell_volume 3225.721291
_symmetry_space_group_name_H-M "P N M A"
_symmetry_group_IT_number 62
_symmetry_cell_setting 'orthorhombic'
loop_
_space_group_symop_operation_xyz
x,y,z
1/2-x,-y,1/2+z
1/2+x,1/2-y,1/2-z
-x,1/2+y,-z
-x,-y,-z
1/2+x,y,1/2-z
1/2-x,1/2+y,1/2+z
x,1/2-y,z
loop_
_atom_site_type_symbol
_atom_site_label
_atom_site_fract_x
_atom_site_fract_y
_atom_site_fract_z
Si Si1 0.992155 0.566176 0.108362
Si Si2 0.684053 0.065286 0.556251
Si Si3 0.180043 0.064291 0.361899
Si Si4 0.721882 0.431480 0.253944
Si Si5 0.505854 0.067670 0.842915
Si Si6 0.542433 0.931299 0.275905
Si Si7 0.813836 0.065157 0.357954
Si Si8 0.825347 0.435052 0.939359
O O1 0.992820 0.750000 0.098399
O O2 0.983193 0.526701 0.172130
O O3 0.082822 0.499051 0.084308
O O4 0.908161 0.494228 0.077871
O O5 0.690500 0.250000 0.566807
O O6 0.762599 0.981170 0.587153
O O7 0.694465 0.028006 0.493801
O O8 0.168597 0.250000 0.357986
O O9 0.224713 0.994594 0.306612
O O10 0.084303 0.990010 0.369102
O O11 0.739238 0.250000 0.247039
O O12 0.627357 0.460828 0.279882
O O13 0.792865 0.496420 0.296756
O O14 0.517436 0.250000 0.855480
O O15 0.509746 0.032342 0.778772
O O16 0.585418 0.974111 0.870537
O O17 0.573036 0.750000 0.277814
O O18 0.795909 0.250000 0.364383
O O19 0.752727 0.970531 0.398552
O O20 0.829266 0.250000 0.950658
#
# Coordination Sequence:
#
# PCOD8253742 Si02
#       8
#     8   8   8   8   8   8   8   8
#     4   9  19  35  57  86 119 155 194 239 288 345
#     4  11  23  39  60  86 118 156 200 247 297 350
#     4  10  21  40  60  84 119 157 198 244 295 350
#     4   9  19  34  54  82 117 153 189 235 290 344
#     4  10  21  36  59  88 119 156 196 242 297 351
#     4   9  17  33  55  83 117 152 191 234 282 341
#     4  11  22  37  58  87 121 157 196 242 296 351
#     4  11  22  40  62  85 117 156 202 248 293 347
#
# _framework density 19.840525
#
# number of rings (size 3 to 8) (size 9 to 14) (size 15 to 20)
#    0.000    2.000    1.250    2.250    1.750    1.500 
#    0.000    3.750    0.000    0.000    0.000    0.000 
#    0.000    0.000    0.000    0.000    0.000    0.000 
#
# Total GULP energy -793516.797648 kJ/mol
# GULP energy per Si atom -12398.699963 kJ/mol
# Density = 1.979537 g / cm^3
# Si number density = 19.840525 Si / 1000 Ang^3
#
#
#
# Elastic Constant Matrix: (Units=GPa)
#
#
# Indices 1 2 3 4 5 6 
#
# 1 120.8344 6.6684 47.5093 0.0000 0.0000 0.0000
# 2 6.6684 26.6339 10.0042 0.0000 0.0000 0.0000
# 3 47.5093 10.0042 76.6064 0.0000 0.0000 0.0000
# 4 0.0000 0.0000 0.0000 23.2567 0.0000 0.0000
# 5 0.0000 0.0000 0.0000 0.0000 24.7918 0.0000
# 6 0.0000 0.0000 0.0000 0.0000 0.0000 27.1227
#
#
#
# Elastic Compliance Matrix: (Units=1/GPa)
#
#
# Indices 1 2 3 4 5 6 
#
# 1 0.010945 -0.000201 -0.006762 0.000000 0.000000 0.000000
# 2 -0.000201 0.039487 -0.005032 0.000000 0.000000 0.000000
# 3 -0.006762 -0.005032 0.017904 0.000000 0.000000 0.000000
# 4 0.000000 0.000000 0.000000 0.042998 0.000000 0.000000
# 5 0.000000 0.000000 0.000000 0.000000 0.040336 0.000000
# 6 0.000000 0.000000 0.000000 0.000000 0.000000 0.036869
#
#
# Mechanical properties :
#
#
# Convention : Reuss Voigt Hill
#
# Bulk Modulus (GPa) = 22.54942 39.15985 30.85463
# Shear Modulus (GPa) = 21.99619 25.69376 23.84498
#
# Velocity S-wave (km/s) = 3.33325 3.60253 3.47051
# Velocity P-wave (km/s) = 5.11899 6.08970 5.62533
#
# Compressibility (1/GPa) = 0.04434704
#
# Stress axis : x y z
#
# Youngs Moduli (GPa) = 91.36184 25.32511 55.85196
#
# Poissons Ratio (x) = 0.00508 0.37767
# Poissons Ratio (y) = 0.01832 0.28106
# Poissons Ratio (z) = 0.61778 0.12744
#
# Static dielectric constant tensor:
#      x y z
#    x 3.586090 0.000000 0.000000 
#    y 0.000000 3.421990 0.000000 
#    z 0.000000 0.000000 3.629590 
# 
# 
# High freq. dielectric constant tensor:
#      x y z
#    x 1.771270 0.000000 0.000000 
#    y 0.000000 1.762220 0.000000 
#    z 0.000000 0.000000 1.770050 
# 
# From -- ./inp_files/29728.got.cif
#   From: 2010.03.12/outbox.cif.g09.slc.cpg/sg62_15_cif.got.tgz:29728.got - 2010.04.10 19:12:36.
