data_PCOD8253785
_publ_section_title
;
Structure prediction by ZEFSAII (Michael W. Deem and Ramdas Pophale) SiO2 
 PCOD8253785
Probable space group: P N M A
;
_chemical_formula_sum "Si O2"
_cell_formula_units_Z 56
_cell_length_a 16.459899
_cell_length_b 9.199105
_cell_length_c 19.352969
_cell_angle_alpha 90.000000
_cell_angle_beta 90.000000
_cell_angle_gamma 90.000000
_cell_volume 2930.355718
_symmetry_space_group_name_H-M "P N M A"
_symmetry_group_IT_number 62
_symmetry_cell_setting 'orthorhombic'
loop_
_space_group_symop_operation_xyz
x,y,z
1/2-x,-y,1/2+z
1/2+x,1/2-y,1/2-z
-x,1/2+y,-z
-x,-y,-z
1/2+x,y,1/2-z
1/2-x,1/2+y,1/2+z
x,1/2-y,z
loop_
_atom_site_type_symbol
_atom_site_label
_atom_site_fract_x
_atom_site_fract_y
_atom_site_fract_z
Si Si1 0.675475 0.581476 0.779862
Si Si2 0.255525 0.416693 0.975854
Si Si3 0.318472 0.915846 0.624353
Si Si4 0.137718 0.920835 0.875089
Si Si5 0.522674 0.578803 0.344702
Si Si6 0.061413 0.919963 0.449924
Si Si7 0.518656 0.418556 0.808761
O O1 0.659140 0.750000 0.792982
O O2 0.761774 0.535129 0.811762
O O3 0.676898 0.541947 0.699088
O O4 0.603496 0.499947 0.819507
O O5 0.245389 0.250000 0.950646
O O6 0.197667 0.521065 0.932893
O O7 0.347341 0.471499 0.965318
O O8 0.234419 0.433063 0.055798
O O9 0.348586 0.750000 0.633725
O O10 0.395186 0.021428 0.620926
O O11 0.123734 0.750000 0.885090
O O12 0.051886 0.001588 0.883326
O O13 0.515679 0.750000 0.357095
O O14 0.523106 0.536689 0.263597
O O15 0.051431 0.750000 0.463790
O O16 0.042047 0.960710 0.370463
O O17 0.000000 0.000000 0.500000
O O18 0.540072 0.250000 0.808891
#
# Coordination Sequence:
#
# PCOD8253785 Si02
#       7
#     8   8   8   8   8   8   8
#     4   9  19  36  58  83 112 146 185 229 280 332
#     4  10  22  38  57  81 114 153 188 229 282 337
#     4  10  21  37  56  81 112 147 188 230 278 334
#     4  10  21  38  59  84 113 146 187 236 283 334
#     4  10  21  37  58  84 110 144 187 233 284 333
#     4  10  21  37  57  83 116 152 188 228 278 337
#     4   9  19  35  55  82 112 142 183 229 276 332
#
# _framework density 19.110308
#
# number of rings (size 3 to 8) (size 9 to 14) (size 15 to 20)
#    0.000    2.286    0.000    1.714    2.000    5.143 
#    0.000    0.000    0.000    0.000    0.000    0.000 
#    0.000    0.000    0.000    0.000    0.000    0.000 
#
# Total GULP energy -694632.231132 kJ/mol
# GULP energy per Si atom -12404.146984 kJ/mol
# Density = 1.906681 g / cm^3
# Si number density = 19.110308 Si / 1000 Ang^3
#
#
#
# Elastic Constant Matrix: (Units=GPa)
#
#
# Indices 1 2 3 4 5 6 
#
# 1 119.4691 44.1598 26.6617 0.0000 0.0000 0.0000
# 2 44.1598 63.6863 20.6702 0.0000 0.0000 0.0000
# 3 26.6617 20.6702 44.9666 0.0000 0.0000 0.0000
# 4 0.0000 0.0000 0.0000 27.8778 0.0000 0.0000
# 5 0.0000 0.0000 0.0000 0.0000 35.3576 0.0000
# 6 0.0000 0.0000 0.0000 0.0000 0.0000 37.3457
#
#
#
# Elastic Compliance Matrix: (Units=1/GPa)
#
#
# Indices 1 2 3 4 5 6 
#
# 1 0.011782 -0.006937 -0.003797 0.000000 0.000000 0.000000
# 2 -0.006937 0.022540 -0.006248 0.000000 0.000000 0.000000
# 3 -0.003797 -0.006248 0.027362 0.000000 0.000000 0.000000
# 4 0.000000 0.000000 0.000000 0.035871 0.000000 0.000000
# 5 0.000000 0.000000 0.000000 0.000000 0.028282 0.000000
# 6 0.000000 0.000000 0.000000 0.000000 0.000000 0.026777
#
#
# Mechanical properties :
#
#
# Convention : Reuss Voigt Hill
#
# Bulk Modulus (GPa) = 36.07515 45.67839 40.87677
# Shear Modulus (GPa) = 25.53387 29.22490 27.37938
#
# Velocity S-wave (km/s) = 3.65928 3.91484 3.78921
# Velocity P-wave (km/s) = 6.06400 6.66250 6.37028
#
# Compressibility (1/GPa) = 0.02771991
#
# Stress axis : x y z
#
# Youngs Moduli (GPa) = 84.87561 44.36540 36.54696
#
# Poissons Ratio (x) = 0.30777 0.13876
# Poissons Ratio (y) = 0.58880 0.22834
# Poissons Ratio (z) = 0.32226 0.27719
#
# Static dielectric constant tensor:
#      x y z
#    x 3.504240 0.000000 0.000000 
#    y 0.000000 3.461150 0.000000 
#    z 0.000000 0.000000 3.587130 
# 
# 
# High freq. dielectric constant tensor:
#      x y z
#    x 1.746790 0.000000 0.000000 
#    y 0.000000 1.741090 0.000000 
#    z 0.000000 0.000000 1.746290 
# 
# From -- ./inp_files/27119.got.cif
#   From: 2010.03.12/outbox.cif.g09.slc.cpg/sg62_14_cif.got.tgz:27119.got - 2010.04.10 19:12:36.
