data_PCOD8253624
_publ_section_title
;
Structure prediction by ZEFSAII (Michael W. Deem and Ramdas Pophale) SiO2 
 PCOD8253624
Probable space group: P N M A
;
_chemical_formula_sum "Si O2"
_cell_formula_units_Z 52
_cell_length_a 9.676316
_cell_length_b 11.689600
_cell_length_c 24.734192
_cell_angle_alpha 90.000000
_cell_angle_beta 90.000000
_cell_angle_gamma 90.000000
_cell_volume 2797.740443
_symmetry_space_group_name_H-M "P N M A"
_symmetry_group_IT_number 62
_symmetry_cell_setting 'orthorhombic'
loop_
_space_group_symop_operation_xyz
x,y,z
1/2-x,-y,1/2+z
1/2+x,1/2-y,1/2-z
-x,1/2+y,-z
-x,-y,-z
1/2+x,y,1/2-z
1/2-x,1/2+y,1/2+z
x,1/2-y,z
loop_
_atom_site_type_symbol
_atom_site_label
_atom_site_fract_x
_atom_site_fract_y
_atom_site_fract_z
Si Si1 0.124401 0.750000 0.682099
Si Si2 0.776026 0.010900 0.144156
Si Si3 0.478789 0.617925 0.279547
Si Si4 0.596388 0.250000 0.382771
Si Si5 0.476750 0.496010 0.166152
Si Si6 0.489701 0.519076 0.563053
Si Si7 0.159346 0.750000 0.808598
Si Si8 0.793279 0.118637 0.865894
O O1 0.252412 0.750000 0.641562
O O2 0.032550 0.640147 0.669383
O O3 0.170465 0.750000 0.744228
O O4 0.618200 0.970133 0.135049
O O5 0.766558 0.137080 0.169497
O O6 0.855819 0.009680 0.087204
O O7 0.851410 0.923631 0.184406
O O8 0.454040 0.750000 0.265123
O O9 0.483958 0.544271 0.226181
O O10 0.624389 0.598486 0.309947
O O11 0.574508 0.140822 0.420924
O O12 0.497722 0.250000 0.330344
O O13 0.347508 0.547137 0.133897
O O14 0.500000 0.500000 0.500000
O O15 0.390196 0.419921 0.585063
O O16 0.754849 0.250000 0.874382
#
# Coordination Sequence:
#
# PCOD8253624 Si02
#       8
#     4   8   8   4   8   8   4   8
#     4  12  23  32  57  86 129 159 177 233 298 361
#     4  10  22  37  57  88 115 150 199 237 286 348
#     4  10  21  36  54  80 116 159 196 226 267 339
#     4  10  22  40  62  92 114 154 206 238 293 362
#     4  12  22  34  55  84 123 152 181 230 293 347
#     4  10  22  43  67  83 107 149 203 257 293 340
#     4  10  21  34  57  88 121 155 195 227 279 361
#     4  10  22  39  58  84 115 152 198 236 284 347
#
# _framework density 18.586428000000002
#
# number of rings (size 3 to 8) (size 9 to 14) (size 15 to 20)
#    0.000    1.538    3.077    1.846    3.231    2.462 
#    0.000    0.769    0.000    0.000    0.000    0.000 
#    0.000    0.000    0.000    0.000    0.000    0.000 
#
# Total GULP energy -644916.246669 kJ/mol
# GULP energy per Si atom -12402.235513 kJ/mol
# Density = 1.854412 g / cm^3
# Si number density = 18.586428 Si / 1000 Ang^3
#
#
#
# Elastic Constant Matrix: (Units=GPa)
#
#
# Indices 1 2 3 4 5 6 
#
# 1 138.5506 51.0725 50.4120 0.0000 0.0000 0.0000
# 2 51.0725 115.3110 34.6190 0.0000 0.0000 0.0000
# 3 50.4120 34.6190 119.5998 0.0000 0.0000 0.0000
# 4 0.0000 0.0000 0.0000 19.3144 0.0000 0.0000
# 5 0.0000 0.0000 0.0000 0.0000 9.4387 0.0000
# 6 0.0000 0.0000 0.0000 0.0000 0.0000 14.9705
#
#
#
# Elastic Compliance Matrix: (Units=1/GPa)
#
#
# Indices 1 2 3 4 5 6 
#
# 1 0.009555 -0.003310 -0.003069 0.000000 0.000000 0.000000
# 2 -0.003310 0.010645 -0.001686 0.000000 0.000000 0.000000
# 3 -0.003069 -0.001686 0.010143 0.000000 0.000000 0.000000
# 4 0.000000 0.000000 0.000000 0.051775 0.000000 0.000000
# 5 0.000000 0.000000 0.000000 0.000000 0.105947 0.000000
# 6 0.000000 0.000000 0.000000 0.000000 0.000000 0.066798
#
#
# Mechanical properties :
#
#
# Convention : Reuss Voigt Hill
#
# Bulk Modulus (GPa) = 70.36625 71.74096 71.05360
# Shear Modulus (GPa) = 18.13371 24.56857 21.35114
#
# Velocity S-wave (km/s) = 3.12692 3.63968 3.39300
# Velocity P-wave (km/s) = 7.13988 7.50636 7.32541
#
# Compressibility (1/GPa) = 0.01421136
#
# Stress axis : x y z
#
# Youngs Moduli (GPa) = 104.66207 93.94503 98.59199
#
# Poissons Ratio (x) = 0.31100 0.30259
# Poissons Ratio (y) = 0.34647 0.16620
# Poissons Ratio (z) = 0.32122 0.15837
#
# Static dielectric constant tensor:
#      x y z
#    x 3.512520 0.000000 0.000000 
#    y 0.000000 3.831630 0.000000 
#    z 0.000000 0.000000 3.081870 
# 
# 
# High freq. dielectric constant tensor:
#      x y z
#    x 1.729780 0.000000 0.000000 
#    y 0.000000 1.740270 0.000000 
#    z 0.000000 0.000000 1.685460 
# 
# From -- ./inp_files/30825.got.cif
#   From: 2010.03.12/outbox.cif.g09.slc.cpg/sg62_16_cif.got.tgz:30825.got - 2010.04.10 19:12:36.
