data_PCOD8253723
_publ_section_title
;
Structure prediction by ZEFSAII (Michael W. Deem and Ramdas Pophale) SiO2 
 PCOD8253723
Probable space group: P N M A
;
_chemical_formula_sum "Si O2"
_cell_formula_units_Z 56
_cell_length_a 14.592374
_cell_length_b 8.872907
_cell_length_c 21.070731
_cell_angle_alpha 90.000000
_cell_angle_beta 90.000000
_cell_angle_gamma 90.000000
_cell_volume 2728.170348
_symmetry_space_group_name_H-M "P N M A"
_symmetry_group_IT_number 62
_symmetry_cell_setting 'orthorhombic'
loop_
_space_group_symop_operation_xyz
x,y,z
1/2-x,-y,1/2+z
1/2+x,1/2-y,1/2-z
-x,1/2+y,-z
-x,-y,-z
1/2+x,y,1/2-z
1/2-x,1/2+y,1/2+z
x,1/2-y,z
loop_
_atom_site_type_symbol
_atom_site_label
_atom_site_fract_x
_atom_site_fract_y
_atom_site_fract_z
Si Si1 0.961039 0.577926 0.594670
Si Si2 0.640422 0.577901 0.987879
Si Si3 0.280220 0.424392 0.599040
Si Si4 0.989027 0.074862 0.932020
Si Si5 0.073445 0.923297 0.277573
Si Si6 0.438608 0.072819 0.313508
Si Si7 0.275135 0.923195 0.239859
O O1 0.941481 0.750000 0.614231
O O2 0.878727 0.522189 0.549824
O O3 0.968143 0.473259 0.655773
O O4 0.057950 0.558793 0.561092
O O5 0.651917 0.750000 0.009660
O O6 0.733398 0.522808 0.955541
O O7 0.257596 0.250000 0.586714
O O8 0.388134 0.454364 0.595854
O O9 0.242035 0.475031 0.667499
O O10 0.011249 0.250000 0.938682
O O11 0.062226 0.002964 0.883123
O O12 0.000000 0.000000 0.000000
O O13 0.047357 0.750000 0.264098
O O14 0.182204 0.945978 0.279307
O O15 0.030781 0.023472 0.222125
O O16 0.437381 0.250000 0.322747
O O17 0.351297 0.025759 0.272040
O O18 0.307511 0.750000 0.241905
#
# Coordination Sequence:
#
# PCOD8253723 Si02
#       7
#     8   8   8   8   8   8   8
#     4  10  21  37  57  87 123 160 202 254 310 367
#     4  10  21  36  57  86 120 160 204 249 306 372
#     4  10  21  40  64  89 120 161 210 259 313 377
#     4  11  24  45  68  93 125 167 215 265 321 383
#     4  11  22  40  64  90 122 162 204 255 312 370
#     4  12  25  41  64  96 130 167 210 264 322 382
#     4  10  22  41  65  91 121 164 211 259 314 375
#
# _framework density 20.526577
#
# number of rings (size 3 to 8) (size 9 to 14) (size 15 to 20)
#    0.000    1.429    1.429    3.857    0.000    8.000 
#    0.000    0.000    0.000    0.000    0.000    0.000 
#    0.000    0.000    0.000    0.000    0.000    0.000 
#
# Total GULP energy -694715.997117 kJ/mol
# GULP energy per Si atom -12405.642806 kJ/mol
# Density = 2.047986 g / cm^3
# Si number density = 20.526577 Si / 1000 Ang^3
#
#
#
# Elastic Constant Matrix: (Units=GPa)
#
#
# Indices 1 2 3 4 5 6 
#
# 1 67.2345 48.6019 28.0844 0.0000 0.0000 0.0000
# 2 48.6019 117.9942 48.8388 0.0000 0.0000 0.0000
# 3 28.0844 48.8388 117.4655 0.0000 0.0000 0.0000
# 4 0.0000 0.0000 0.0000 37.5456 0.0000 0.0000
# 5 0.0000 0.0000 0.0000 0.0000 32.6521 0.0000
# 6 0.0000 0.0000 0.0000 0.0000 0.0000 30.8035
#
#
#
# Elastic Compliance Matrix: (Units=1/GPa)
#
#
# Indices 1 2 3 4 5 6 
#
# 1 0.021476 -0.008118 -0.001760 0.000000 0.000000 0.000000
# 2 -0.008118 0.013305 -0.003591 0.000000 0.000000 0.000000
# 3 -0.001760 -0.003591 0.010427 0.000000 0.000000 0.000000
# 4 0.000000 0.000000 0.000000 0.026634 0.000000 0.000000
# 5 0.000000 0.000000 0.000000 0.000000 0.030626 0.000000
# 6 0.000000 0.000000 0.000000 0.000000 0.000000 0.032464
#
#
# Mechanical properties :
#
#
# Convention : Reuss Voigt Hill
#
# Bulk Modulus (GPa) = 54.72987 61.52716 58.12851
# Shear Modulus (GPa) = 29.76902 32.01151 30.89026
#
# Velocity S-wave (km/s) = 3.81237 3.95335 3.88350
# Velocity P-wave (km/s) = 6.78967 7.13289 6.96340
#
# Compressibility (1/GPa) = 0.01827156
#
# Stress axis : x y z
#
# Youngs Moduli (GPa) = 46.56258 75.15918 95.90615
#
# Poissons Ratio (x) = 0.61013 0.16875
# Poissons Ratio (y) = 0.37799 0.34440
# Poissons Ratio (z) = 0.08193 0.26990
#
# Static dielectric constant tensor:
#      x y z
#    x 3.638220 0.000000 0.000000 
#    y 0.000000 3.750710 0.000000 
#    z 0.000000 0.000000 3.886140 
# 
# 
# High freq. dielectric constant tensor:
#      x y z
#    x 1.799400 0.000000 0.000000 
#    y 0.000000 1.806650 0.000000 
#    z 0.000000 0.000000 1.811110 
# 
# From -- ./inp_files/27288.got.cif
#   From: 2010.03.12/outbox.cif.g09.slc.cpg/sg62_14_cif.got.tgz:27288.got - 2010.04.10 19:12:36.
