data_PCOD8253358
_publ_section_title
;
Structure prediction by ZEFSAII (Michael W. Deem and Ramdas Pophale) SiO2 
 PCOD8253358
Probable space group: P N M A
;
_chemical_formula_sum "Si O2"
_cell_formula_units_Z 64
_cell_length_a 20.173839
_cell_length_b 17.478873
_cell_length_c 9.162419
_cell_angle_alpha 90.000000
_cell_angle_beta 90.000000
_cell_angle_gamma 90.000000
_cell_volume 3230.815261
_symmetry_space_group_name_H-M "P N M A"
_symmetry_group_IT_number 62
_symmetry_cell_setting 'orthorhombic'
loop_
_space_group_symop_operation_xyz
x,y,z
1/2-x,-y,1/2+z
1/2+x,1/2-y,1/2-z
-x,1/2+y,-z
-x,-y,-z
1/2+x,y,1/2-z
1/2-x,1/2+y,1/2+z
x,1/2-y,z
loop_
_atom_site_type_symbol
_atom_site_label
_atom_site_fract_x
_atom_site_fract_y
_atom_site_fract_z
Si Si1 0.372898 0.335950 0.113081
Si Si2 0.106298 0.161995 0.388028
Si Si3 0.109790 0.161549 0.051805
Si Si4 0.486907 0.413090 0.955439
Si Si5 0.732563 0.067268 0.088102
Si Si6 0.485103 0.160028 0.646322
Si Si7 0.860741 0.337787 0.054829
Si Si8 0.257160 0.916572 0.575625
O O1 0.392434 0.250000 0.070183
O O2 0.388480 0.351883 0.282730
O O3 0.295352 0.347342 0.078041
O O4 0.414688 0.393755 0.015904
O O5 0.124736 0.250000 0.410266
O O6 0.092316 0.143408 0.219160
O O7 0.040345 0.143015 0.474867
O O8 0.167307 0.114683 0.454835
O O9 0.127438 0.250000 0.030602
O O10 0.174237 0.112861 0.005173
O O11 0.047845 0.137805 0.952972
O O12 0.487135 0.397380 0.782694
O O13 0.500000 0.500000 0.000000
O O14 0.797175 0.109694 0.024314
O O15 0.733480 0.054724 0.260362
O O16 0.727136 0.984399 0.018530
O O17 0.487013 0.250000 0.690816
O O18 0.418338 0.141016 0.558195
O O19 0.838183 0.250000 0.037772
#
# Coordination Sequence:
#
# PCOD8253358 Si02
#       8
#     8   8   8   8   8   8   8   8
#     4  10  20  38  61  82 108 147 191 229 272 330
#     4  10  20  38  61  82 108 147 191 229 272 330
#     4   9  19  37  61  85 109 144 190 235 276 324
#     4  12  25  38  54  82 118 150 183 226 280 336
#     4  10  21  36  56  84 116 147 182 228 280 333
#     4  10  21  38  59  84 113 144 185 234 278 324
#     4   9  19  37  61  85 109 144 190 235 276 324
#     4  10  21  36  56  84 116 147 182 228 280 333
#
# _framework density 19.809241
#
# number of rings (size 3 to 8) (size 9 to 14) (size 15 to 20)
#    0.000    2.000    0.000    3.375    0.000   11.000 
#    0.000    1.875    0.000    6.000    0.000    0.000 
#    0.000    0.000    0.000    0.000    0.000    0.000 
#
# Total GULP energy -793777.156411 kJ/mol
# GULP energy per Si atom -12402.768069 kJ/mol
# Density = 1.976415 g / cm^3
# Si number density = 19.809241 Si / 1000 Ang^3
#
#
#
# Elastic Constant Matrix: (Units=GPa)
#
#
# Indices 1 2 3 4 5 6 
#
# 1 92.7122 25.9405 48.4279 0.0000 0.0000 0.0000
# 2 25.9405 73.7422 41.8954 0.0000 0.0000 0.0000
# 3 48.4279 41.8954 88.0255 0.0000 0.0000 0.0000
# 4 0.0000 0.0000 0.0000 32.2407 0.0000 0.0000
# 5 0.0000 0.0000 0.0000 0.0000 25.8357 0.0000
# 6 0.0000 0.0000 0.0000 0.0000 0.0000 34.4578
#
#
#
# Elastic Compliance Matrix: (Units=1/GPa)
#
#
# Indices 1 2 3 4 5 6 
#
# 1 0.015171 -0.000815 -0.007959 0.000000 0.000000 0.000000
# 2 -0.000815 0.018630 -0.008419 0.000000 0.000000 0.000000
# 3 -0.007959 -0.008419 0.019746 0.000000 0.000000 0.000000
# 4 0.000000 0.000000 0.000000 0.031017 0.000000 0.000000
# 5 0.000000 0.000000 0.000000 0.000000 0.038706 0.000000
# 6 0.000000 0.000000 0.000000 0.000000 0.000000 0.029021
#
#
# Mechanical properties :
#
#
# Convention : Reuss Voigt Hill
#
# Bulk Modulus (GPa) = 52.18532 54.11195 53.14863
# Shear Modulus (GPa) = 25.89824 27.72126 26.80975
#
# Velocity S-wave (km/s) = 3.61970 3.74493 3.68284
# Velocity P-wave (km/s) = 6.62350 6.78787 6.70619
#
# Compressibility (1/GPa) = 0.01916248
#
# Stress axis : x y z
#
# Youngs Moduli (GPa) = 65.91384 53.67568 50.64433
#
# Poissons Ratio (x) = 0.04376 0.40306
# Poissons Ratio (y) = 0.05374 0.42635
# Poissons Ratio (z) = 0.52458 0.45187
#
# Static dielectric constant tensor:
#      x y z
#    x 3.724190 0.000000 0.000000 
#    y 0.000000 3.495040 0.000000 
#    z 0.000000 0.000000 3.544790 
# 
# 
# High freq. dielectric constant tensor:
#      x y z
#    x 1.786340 0.000000 0.000000 
#    y 0.000000 1.770310 0.000000 
#    z 0.000000 0.000000 1.763870 
# 
# From -- ./inp_files/8905.got.cif
#   From: 2010.03.12/outbox.cif.g09.slc.cpg/sg62_5_cif.got.tgz:8905.got - 2010.04.10 19:12:36.
