data_PCOD8253536
_publ_section_title
;
Structure prediction by ZEFSAII (Michael W. Deem and Ramdas Pophale) SiO2 
 PCOD8253536
Probable space group: P N M A
;
_chemical_formula_sum "Si O2"
_cell_formula_units_Z 64
_cell_length_a 17.772159
_cell_length_b 13.614920
_cell_length_c 12.322469
_cell_angle_alpha 90.000000
_cell_angle_beta 90.000000
_cell_angle_gamma 90.000000
_cell_volume 2981.624979
_symmetry_space_group_name_H-M "P N M A"
_symmetry_group_IT_number 62
_symmetry_cell_setting 'orthorhombic'
loop_
_space_group_symop_operation_xyz
x,y,z
1/2-x,-y,1/2+z
1/2+x,1/2-y,1/2-z
-x,1/2+y,-z
-x,-y,-z
1/2+x,y,1/2-z
1/2-x,1/2+y,1/2+z
x,1/2-y,z
loop_
_atom_site_type_symbol
_atom_site_label
_atom_site_fract_x
_atom_site_fract_y
_atom_site_fract_z
Si Si1 0.695409 0.962699 0.973608
Si Si2 0.687365 0.858306 0.193938
Si Si3 0.521507 0.858818 0.283142
Si Si4 0.281511 0.137257 0.427034
Si Si5 0.284882 0.940293 0.722052
Si Si6 0.050958 0.866298 0.977486
Si Si7 0.049875 0.135836 0.223087
Si Si8 0.536200 0.515443 0.882763
O O1 0.762605 0.917416 0.901439
O O2 0.624655 0.972367 0.894577
O O3 0.718171 0.070358 0.016380
O O4 0.677190 0.886209 0.068134
O O5 0.726318 0.750000 0.203407
O O6 0.607575 0.851849 0.250251
O O7 0.735019 0.944673 0.251799
O O8 0.485122 0.750000 0.280548
O O9 0.519103 0.902553 0.406178
O O10 0.476416 0.925586 0.199531
O O11 0.272423 0.250000 0.465899
O O12 0.264739 0.130245 0.298659
O O13 0.364493 0.094469 0.453847
O O14 0.373771 0.925233 0.736499
O O15 0.057191 0.750000 0.976108
O O16 0.993376 0.901158 0.884473
O O17 0.069233 0.250000 0.218917
O O18 0.999326 0.112994 0.328741
O O19 0.500000 0.500000 0.000000
#
# Coordination Sequence:
#
# PCOD8253536 Si02
#       8
#     8   8   8   8   8   8   8   8
#     4  11  24  39  63  94 127 165 217 267 327 395
#     4  10  21  41  63  88 123 169 214 262 324 387
#     4  10  20  39  65  90 123 163 211 269 316 375
#     4  10  21  40  65  92 129 172 214 263 324 392
#     4  11  22  41  61  95 130 165 212 269 328 390
#     4   9  20  40  67  96 124 168 222 263 320 394
#     4  11  24  42  65  95 131 170 217 273 329 389
#     4  12  23  41  62  93 129 166 219 263 323 390
#
# _framework density 21.464805999999999
#
# number of rings (size 3 to 8) (size 9 to 14) (size 15 to 20)
#    0.000    1.500    2.500    2.625    0.000    4.500 
#    4.500    0.000    0.000    0.000    0.000    0.000 
#    0.000    0.000    0.000    0.000    0.000    0.000 
#
# Total GULP energy -793522.401430 kJ/mol
# GULP energy per Si atom -12398.787522 kJ/mol
# Density = 2.141595 g / cm^3
# Si number density = 21.464806 Si / 1000 Ang^3
#
#
#
# Elastic Constant Matrix: (Units=GPa)
#
#
# Indices 1 2 3 4 5 6 
#
# 1 65.5559 20.7674 34.0366 0.0000 0.0000 0.0000
# 2 20.7674 93.5387 22.5288 0.0000 0.0000 0.0000
# 3 34.0366 22.5288 155.8801 0.0000 0.0000 0.0000
# 4 0.0000 0.0000 0.0000 14.5221 0.0000 0.0000
# 5 0.0000 0.0000 0.0000 0.0000 38.8864 0.0000
# 6 0.0000 0.0000 0.0000 0.0000 0.0000 20.5432
#
#
#
# Elastic Compliance Matrix: (Units=1/GPa)
#
#
# Indices 1 2 3 4 5 6 
#
# 1 0.018069 -0.003172 -0.003487 0.000000 0.000000 0.000000
# 2 -0.003172 0.011633 -0.000989 0.000000 0.000000 0.000000
# 3 -0.003487 -0.000989 0.007319 0.000000 0.000000 0.000000
# 4 0.000000 0.000000 0.000000 0.068861 0.000000 0.000000
# 5 0.000000 0.000000 0.000000 0.000000 0.025716 0.000000
# 6 0.000000 0.000000 0.000000 0.000000 0.000000 0.048678
#
#
# Mechanical properties :
#
#
# Convention : Reuss Voigt Hill
#
# Bulk Modulus (GPa) = 46.02630 52.18225 49.10427
# Shear Modulus (GPa) = 24.65310 30.63312 27.64311
#
# Velocity S-wave (km/s) = 3.39268 3.78184 3.59253
# Velocity P-wave (km/s) = 6.06929 6.59038 6.33520
#
# Compressibility (1/GPa) = 0.02172671
#
# Stress axis : x y z
#
# Youngs Moduli (GPa) = 55.34194 85.96143 136.62158
#
# Poissons Ratio (x) = 0.27266 0.47641
# Poissons Ratio (y) = 0.17554 0.13508
# Poissons Ratio (z) = 0.19298 0.08499
#
# Static dielectric constant tensor:
#      x y z
#    x 3.727460 0.000000 0.000000 
#    y 0.000000 4.034730 0.000000 
#    z 0.000000 0.000000 4.164990 
# 
# 
# High freq. dielectric constant tensor:
#      x y z
#    x 1.826310 0.000000 0.000000 
#    y 0.000000 1.843760 0.000000 
#    z 0.000000 0.000000 1.857940 
# 
# From -- ./inp_files/14310.got.cif
#   From: 2010.03.12/outbox.cif.g09.slc.cpg/sg62_8_cif.got.tgz:14310.got - 2010.04.10 19:12:36.
