data_PCOD8253931
_publ_section_title
;
Structure prediction by ZEFSAII (Michael W. Deem and Ramdas Pophale) SiO2 
 PCOD8253931
Probable space group: P N M A
;
_chemical_formula_sum "Si O2"
_cell_formula_units_Z 40
_cell_length_a 12.365418
_cell_length_b 9.029673
_cell_length_c 18.837190
_cell_angle_alpha 90.000000
_cell_angle_beta 90.000000
_cell_angle_gamma 90.000000
_cell_volume 2103.279278
_symmetry_space_group_name_H-M "P N M A"
_symmetry_group_IT_number 62
_symmetry_cell_setting 'orthorhombic'
loop_
_space_group_symop_operation_xyz
x,y,z
1/2-x,-y,1/2+z
1/2+x,1/2-y,1/2-z
-x,1/2+y,-z
-x,-y,-z
1/2+x,y,1/2-z
1/2-x,1/2+y,1/2+z
x,1/2-y,z
loop_
_atom_site_type_symbol
_atom_site_label
_atom_site_fract_x
_atom_site_fract_y
_atom_site_fract_z
Si Si1 0.317535 0.574289 0.890281
Si Si2 0.956403 0.421866 0.930189
Si Si3 0.292874 0.579066 0.050068
Si Si4 0.450768 0.425071 0.158255
Si Si5 0.399790 0.074311 0.316876
O O1 0.315234 0.750000 0.890512
O O2 0.428267 0.513906 0.855973
O O3 0.216681 0.516706 0.843784
O O4 0.305792 0.515252 0.970502
O O5 0.987907 0.250000 0.934361
O O6 0.828688 0.444117 0.923911
O O7 0.006284 0.495953 0.860837
O O8 0.000000 0.500000 0.000000
O O9 0.327218 0.750000 0.052823
O O10 0.370594 0.488214 0.100346
O O11 0.448674 0.250000 0.151289
O O12 0.412570 0.476225 0.235747
O O13 0.412783 0.250000 0.326276
#
# Coordination Sequence:
#
# PCOD8253931 Si02
#       5
#     8   8   8   8   8
#     4   9  18  37  57  81 117 151 186 234 292 339
#     4  11  22  38  60  86 115 153 195 238 288 343
#     4  10  21  38  59  81 117 155 186 238 295 339
#     4  10  22  36  60  88 113 152 196 236 285 348
#     4  10  21  38  59  85 119 153 188 240 293 340
#
# _framework density 19.017921000000001
#
# number of rings (size 3 to 8) (size 9 to 14) (size 15 to 20)
#    0.000    2.000    2.000    1.200    2.800    2.400 
#    0.000    1.000    0.000    0.000    0.000    0.000 
#    0.000    0.000    0.000    0.000    0.000    0.000 
#
# Total GULP energy -496110.856824 kJ/mol
# GULP energy per Si atom -12402.771421 kJ/mol
# Density = 1.897464 g / cm^3
# Si number density = 19.017921 Si / 1000 Ang^3
#
#
#
# Elastic Constant Matrix: (Units=GPa)
#
#
# Indices 1 2 3 4 5 6 
#
# 1 131.8458 33.0128 94.1180 0.0000 0.0000 0.0000
# 2 33.0128 34.1419 35.3343 0.0000 0.0000 0.0000
# 3 94.1180 35.3343 174.0211 0.0000 0.0000 0.0000
# 4 0.0000 0.0000 0.0000 31.2705 0.0000 0.0000
# 5 0.0000 0.0000 0.0000 0.0000 39.5949 0.0000
# 6 0.0000 0.0000 0.0000 0.0000 0.0000 30.3142
#
#
#
# Elastic Compliance Matrix: (Units=1/GPa)
#
#
# Indices 1 2 3 4 5 6 
#
# 1 0.013555 -0.006988 -0.005912 0.000000 0.000000 0.000000
# 2 -0.006988 0.040684 -0.004481 0.000000 0.000000 0.000000
# 3 -0.005912 -0.004481 0.009854 0.000000 0.000000 0.000000
# 4 0.000000 0.000000 0.000000 0.031979 0.000000 0.000000
# 5 0.000000 0.000000 0.000000 0.000000 0.025256 0.000000
# 6 0.000000 0.000000 0.000000 0.000000 0.000000 0.032988
#
#
# Mechanical properties :
#
#
# Convention : Reuss Voigt Hill
#
# Bulk Modulus (GPa) = 34.09479 73.88215 53.98847
# Shear Modulus (GPa) = 25.14400 32.07218 28.60809
#
# Velocity S-wave (km/s) = 3.64004 4.11106 3.88270
# Velocity P-wave (km/s) = 5.96935 7.84012 6.96781
#
# Compressibility (1/GPa) = 0.02933000
#
# Stress axis : x y z
#
# Youngs Moduli (GPa) = 73.77561 24.57956 101.48298
#
# Poissons Ratio (x) = 0.17176 0.59997
# Poissons Ratio (y) = 0.51553 0.45479
# Poissons Ratio (z) = 0.43617 0.11015
#
# Static dielectric constant tensor:
#      x y z
#    x 3.819470 0.000000 0.000000 
#    y 0.000000 3.395540 0.000000 
#    z 0.000000 0.000000 3.741980 
# 
# 
# High freq. dielectric constant tensor:
#      x y z
#    x 1.755590 0.000000 0.000000 
#    y 0.000000 1.712940 0.000000 
#    z 0.000000 0.000000 1.751470 
# 
# From -- ./inp_files/22762.got.cif
#   From: 2010.03.12/outbox.cif.g09.slc.cpg/sg62_12_cif.got.tgz:22762.got - 2010.04.10 19:12:36.
