data_PCOD8253562
_publ_section_title
;
Structure prediction by ZEFSAII (Michael W. Deem and Ramdas Pophale) SiO2 
 PCOD8253562
Probable space group: P N M A
;
_chemical_formula_sum "Si O2"
_cell_formula_units_Z 40
_cell_length_a 21.607082
_cell_length_b 9.929716
_cell_length_c 8.821232
_cell_angle_alpha 90.000000
_cell_angle_beta 90.000000
_cell_angle_gamma 90.000000
_cell_volume 1892.614625
_symmetry_space_group_name_H-M "P N M A"
_symmetry_group_IT_number 62
_symmetry_cell_setting 'orthorhombic'
loop_
_space_group_symop_operation_xyz
x,y,z
1/2-x,-y,1/2+z
1/2+x,1/2-y,1/2-z
-x,1/2+y,-z
-x,-y,-z
1/2+x,y,1/2-z
1/2-x,1/2+y,1/2+z
x,1/2-y,z
loop_
_atom_site_type_symbol
_atom_site_label
_atom_site_fract_x
_atom_site_fract_y
_atom_site_fract_z
Si Si1 0.489573 0.525721 0.246693
Si Si2 0.424711 0.106017 0.501040
Si Si3 0.184255 0.094192 0.038857
Si Si4 0.413082 0.600178 0.975333
Si Si5 0.719893 0.403909 0.115726
O O1 0.520133 0.618001 0.375754
O O2 0.454954 0.404305 0.333570
O O3 0.543452 0.485560 0.132145
O O4 0.437040 0.601277 0.148439
O O5 0.388735 0.250000 0.505476
O O6 0.382613 0.977106 0.538500
O O7 0.177944 0.250000 0.984477
O O8 0.212619 0.088120 0.204740
O O9 0.226947 0.009355 0.925470
O O10 0.412347 0.750000 0.908096
O O11 0.342827 0.545695 0.967594
O O12 0.736729 0.250000 0.067320
#
# Coordination Sequence:
#
# PCOD8253562 Si02
#       5
#     8   8   8   8   8
#     4  10  22  38  62  96 126 166 206 252 310 373
#     4  11  23  40  64  95 131 166 206 256 311 374
#     4  11  25  44  66  92 124 164 211 260 312 372
#     4  10  20  40  64  90 125 163 206 256 310 370
#     4  10  23  44  66  91 124 164 208 259 313 367
#
# _framework density 21.134784
#
# number of rings (size 3 to 8) (size 9 to 14) (size 15 to 20)
#    0.000    1.600    2.000    1.800    2.800    5.600 
#    0.000    1.000    0.000    0.000    0.000    0.000 
#    0.000    0.000    0.000    0.000    0.000    0.000 
#
# Total GULP energy -495806.101273 kJ/mol
# GULP energy per Si atom -12395.152532 kJ/mol
# Density = 2.108668 g / cm^3
# Si number density = 21.134784 Si / 1000 Ang^3
#
#
#
# Elastic Constant Matrix: (Units=GPa)
#
#
# Indices 1 2 3 4 5 6 
#
# 1 66.9924 41.2352 22.4069 0.0000 0.0000 0.0000
# 2 41.2352 138.9072 28.7336 0.0000 0.0000 0.0000
# 3 22.4069 28.7336 80.7996 0.0000 0.0000 0.0000
# 4 0.0000 0.0000 0.0000 17.2277 0.0000 0.0000
# 5 0.0000 0.0000 0.0000 0.0000 33.2853 0.0000
# 6 0.0000 0.0000 0.0000 0.0000 0.0000 27.0056
#
#
#
# Elastic Compliance Matrix: (Units=1/GPa)
#
#
# Indices 1 2 3 4 5 6 
#
# 1 0.019165 -0.004954 -0.003553 0.000000 0.000000 0.000000
# 2 -0.004954 0.009051 -0.001845 0.000000 0.000000 0.000000
# 3 -0.003553 -0.001845 0.014018 0.000000 0.000000 0.000000
# 4 0.000000 0.000000 0.000000 0.058046 0.000000 0.000000
# 5 0.000000 0.000000 0.000000 0.000000 0.030043 0.000000
# 6 0.000000 0.000000 0.000000 0.000000 0.000000 0.037029
#
#
# Mechanical properties :
#
#
# Convention : Reuss Voigt Hill
#
# Bulk Modulus (GPa) = 46.44733 52.38339 49.41536
# Shear Modulus (GPa) = 25.61039 28.45861 27.03450
#
# Velocity S-wave (km/s) = 3.48482 3.67349 3.58040
# Velocity P-wave (km/s) = 6.18194 6.54461 6.36586
#
# Compressibility (1/GPa) = 0.02152976
#
# Stress axis : x y z
#
# Youngs Moduli (GPa) = 52.17897 110.48055 71.33868
#
# Poissons Ratio (x) = 0.54735 0.25346
# Poissons Ratio (y) = 0.25851 0.13161
# Poissons Ratio (z) = 0.18539 0.20383
#
# Static dielectric constant tensor:
#      x y z
#    x 3.850050 0.000000 0.000000 
#    y 0.000000 3.767240 0.000000 
#    z 0.000000 0.000000 3.897380 
# 
# 
# High freq. dielectric constant tensor:
#      x y z
#    x 1.830290 0.000000 0.000000 
#    y 0.000000 1.820680 0.000000 
#    z 0.000000 0.000000 1.834660 
# 
# From -- ./inp_files/9063.got.cif
#   From: 2010.03.12/outbox.cif.g09.slc.cpg/sg62_5_cif.got.tgz:9063.got - 2010.04.10 19:12:36.
