data_PCOD8253920
_publ_section_title
;
Structure prediction by ZEFSAII (Michael W. Deem and Ramdas Pophale) SiO2 
 PCOD8253920
Probable space group: P N M A
;
_chemical_formula_sum "Si O2"
_cell_formula_units_Z 48
_cell_length_a 16.347638
_cell_length_b 8.901548
_cell_length_c 17.881598
_cell_angle_alpha 90.000000
_cell_angle_beta 90.000000
_cell_angle_gamma 90.000000
_cell_volume 2602.117344
_symmetry_space_group_name_H-M "P N M A"
_symmetry_group_IT_number 62
_symmetry_cell_setting 'orthorhombic'
loop_
_space_group_symop_operation_xyz
x,y,z
1/2-x,-y,1/2+z
1/2+x,1/2-y,1/2-z
-x,1/2+y,-z
-x,-y,-z
1/2+x,y,1/2-z
1/2-x,1/2+y,1/2+z
x,1/2-y,z
loop_
_atom_site_type_symbol
_atom_site_label
_atom_site_fract_x
_atom_site_fract_y
_atom_site_fract_z
Si Si1 0.856619 0.925397 0.179746
Si Si2 0.491978 0.425651 0.579838
Si Si3 0.330760 0.921313 0.593742
Si Si4 0.585505 0.427867 0.978634
Si Si5 0.338298 0.075446 0.163651
Si Si6 0.766271 0.076300 0.552732
O O1 0.861627 0.750000 0.200201
O O2 0.773761 0.959251 0.133065
O O3 0.934836 0.978861 0.132841
O O4 0.859219 0.023467 0.253736
O O5 0.500000 0.500000 0.500000
O O6 0.495908 0.250000 0.567965
O O7 0.405997 0.472947 0.617048
O O8 0.360662 0.750000 0.598025
O O9 0.257794 0.953533 0.651329
O O10 0.301664 0.960095 0.509828
O O11 0.577509 0.250000 0.979027
O O12 0.609485 0.482189 0.895975
O O13 0.500000 0.500000 0.000000
O O14 0.653279 0.476386 0.039950
O O15 0.360007 0.250000 0.152945
O O16 0.792738 0.250000 0.545599
#
# Coordination Sequence:
#
# PCOD8253920 Si02
#       6
#     8   8   8   8   8   8
#     4  10  21  38  57  83 119 154 189 234 288 341
#     4  11  21  34  56  86 117 151 190 231 279 336
#     4   9  18  36  57  80 111 148 186 228 279 334
#     4  11  22  39  63  88 113 148 196 241 288 344
#     4  10  22  40  60  83 115 152 191 240 291 337
#     4   9  18  36  59  82 114 151 186 232 284 335
#
# _framework density 18.446515999999999
#
# number of rings (size 3 to 8) (size 9 to 14) (size 15 to 20)
#    0.000    2.000    1.667    3.500    0.000    5.333 
#    3.000    0.000    0.000    0.000    0.000    0.000 
#    0.000    0.000    0.000    0.000    0.000    0.000 
#
# Total GULP energy -595304.117959 kJ/mol
# GULP energy per Si atom -12402.169124 kJ/mol
# Density = 1.840453 g / cm^3
# Si number density = 18.446516 Si / 1000 Ang^3
#
#
#
# Elastic Constant Matrix: (Units=GPa)
#
#
# Indices 1 2 3 4 5 6 
#
# 1 130.1712 65.5631 60.0981 0.0000 0.0000 0.0000
# 2 65.5631 101.3784 49.3509 0.0000 0.0000 0.0000
# 3 60.0981 49.3509 92.2044 0.0000 0.0000 0.0000
# 4 0.0000 0.0000 0.0000 32.4668 0.0000 0.0000
# 5 0.0000 0.0000 0.0000 0.0000 23.4237 0.0000
# 6 0.0000 0.0000 0.0000 0.0000 0.0000 36.7780
#
#
#
# Elastic Compliance Matrix: (Units=1/GPa)
#
#
# Indices 1 2 3 4 5 6 
#
# 1 0.013137 -0.005852 -0.005430 0.000000 0.000000 0.000000
# 2 -0.005852 0.015947 -0.004721 0.000000 0.000000 0.000000
# 3 -0.005430 -0.004721 0.016911 0.000000 0.000000 0.000000
# 4 0.000000 0.000000 0.000000 0.030801 0.000000 0.000000
# 5 0.000000 0.000000 0.000000 0.000000 0.042692 0.000000
# 6 0.000000 0.000000 0.000000 0.000000 0.000000 0.027190
#
#
# Mechanical properties :
#
#
# Convention : Reuss Voigt Hill
#
# Bulk Modulus (GPa) = 71.48627 74.86423 73.17525
# Shear Modulus (GPa) = 27.27061 28.44982 27.86022
#
# Velocity S-wave (km/s) = 3.84912 3.93146 3.89050
# Velocity P-wave (km/s) = 7.65452 7.82822 7.74186
#
# Compressibility (1/GPa) = 0.01398870
#
# Stress axis : x y z
#
# Youngs Moduli (GPa) = 76.12159 62.70778 59.13153
#
# Poissons Ratio (x) = 0.36700 0.32109
# Poissons Ratio (y) = 0.44550 0.27915
# Poissons Ratio (z) = 0.41335 0.29603
#
# Static dielectric constant tensor:
#      x y z
#    x 3.667750 0.000000 0.000000 
#    y 0.000000 3.413850 0.000000 
#    z 0.000000 0.000000 3.383110 
# 
# 
# High freq. dielectric constant tensor:
#      x y z
#    x 1.722290 0.000000 0.000000 
#    y 0.000000 1.718130 0.000000 
#    z 0.000000 0.000000 1.703620 
# 
# From -- ./inp_files/23744.got.cif
#   From: 2010.03.12/outbox.cif.g09.slc.cpg/sg62_12_cif.got.tgz:23744.got - 2010.04.10 19:12:36.
