data_PCOD8253707
_publ_section_title
;
Structure prediction by ZEFSAII (Michael W. Deem and Ramdas Pophale) SiO2 
 PCOD8253707
Probable space group: P N M A
;
_chemical_formula_sum "Si O2"
_cell_formula_units_Z 48
_cell_length_a 16.954132
_cell_length_b 8.996255
_cell_length_c 16.937815
_cell_angle_alpha 90.000000
_cell_angle_beta 90.000000
_cell_angle_gamma 90.000000
_cell_volume 2583.418125
_symmetry_space_group_name_H-M "P N M A"
_symmetry_group_IT_number 62
_symmetry_cell_setting 'orthorhombic'
loop_
_space_group_symop_operation_xyz
x,y,z
1/2-x,-y,1/2+z
1/2+x,1/2-y,1/2-z
-x,1/2+y,-z
-x,-y,-z
1/2+x,y,1/2-z
1/2-x,1/2+y,1/2+z
x,1/2-y,z
loop_
_atom_site_type_symbol
_atom_site_label
_atom_site_fract_x
_atom_site_fract_y
_atom_site_fract_z
Si Si1 0.842723 0.424626 0.676217
Si Si2 0.316636 0.075913 0.647708
Si Si3 0.501975 0.925385 0.084192
Si Si4 0.855139 0.926414 0.312172
Si Si5 0.415765 0.074791 0.502344
Si Si6 0.819075 0.424758 0.153119
O O1 0.826208 0.250000 0.666861
O O2 0.855784 0.465221 0.768283
O O3 0.768565 0.511696 0.640930
O O4 0.919763 0.477092 0.629596
O O5 0.315337 0.250000 0.633700
O O6 0.226059 0.019022 0.646674
O O7 0.367274 0.005513 0.576619
O O8 0.499677 0.750000 0.073123
O O9 0.426873 0.980844 0.133796
O O10 0.500000 0.000000 0.000000
O O11 0.855602 0.750000 0.299133
O O12 0.863563 0.001173 0.226797
O O13 0.427664 0.250000 0.511382
O O14 0.368586 0.033586 0.423826
O O15 0.500000 0.000000 0.500000
O O16 0.813257 0.250000 0.166854
#
# Coordination Sequence:
#
# PCOD8253707 Si02
#       6
#     8   8   8   8   8   8
#     4   9  19  37  58  81 108 145 190 224 264 330
#     4   8  16  34  57  77 102 139 183 222 257 316
#     4  10  22  36  57  87 113 145 186 228 276 330
#     4   9  19  37  61  81 105 148 190 221 269 334
#     4  10  22  36  55  82 110 142 181 226 275 325
#     4  10  21  36  56  84 114 143 180 229 283 325
#
# _framework density 18.580034000000001
#
# number of rings (size 3 to 8) (size 9 to 14) (size 15 to 20)
#    0.000    2.667    0.000    1.500    4.667    2.667 
#    0.000    3.333    0.000    0.000    0.000    0.000 
#    0.000    0.000    0.000    0.000    0.000    0.000 
#
# Total GULP energy -595201.599007 kJ/mol
# GULP energy per Si atom -12400.033313 kJ/mol
# Density = 1.853775 g / cm^3
# Si number density = 18.580034 Si / 1000 Ang^3
#
#
#
# Elastic Constant Matrix: (Units=GPa)
#
#
# Indices 1 2 3 4 5 6 
#
# 1 160.0386 45.5555 117.6189 0.0000 0.0000 0.0000
# 2 45.5555 36.6351 49.9088 0.0000 0.0000 0.0000
# 3 117.6189 49.9088 171.8724 0.0000 0.0000 0.0000
# 4 0.0000 0.0000 0.0000 30.7864 0.0000 0.0000
# 5 0.0000 0.0000 0.0000 0.0000 36.9644 0.0000
# 6 0.0000 0.0000 0.0000 0.0000 0.0000 27.8661
#
#
#
# Elastic Compliance Matrix: (Units=1/GPa)
#
#
# Indices 1 2 3 4 5 6 
#
# 1 0.013573 -0.006989 -0.007259 0.000000 0.000000 0.000000
# 2 -0.006989 0.048761 -0.009377 0.000000 0.000000 0.000000
# 3 -0.007259 -0.009377 0.013509 0.000000 0.000000 0.000000
# 4 0.000000 0.000000 0.000000 0.032482 0.000000 0.000000
# 5 0.000000 0.000000 0.000000 0.000000 0.027053 0.000000
# 6 0.000000 0.000000 0.000000 0.000000 0.000000 0.035886
#
#
# Mechanical properties :
#
#
# Convention : Reuss Voigt Hill
#
# Bulk Modulus (GPa) = 34.97293 88.30139 61.63716
# Shear Modulus (GPa) = 21.92573 29.48757 25.70665
#
# Velocity S-wave (km/s) = 3.43894 3.98811 3.72366
# Velocity P-wave (km/s) = 5.88491 8.29667 7.19260
#
# Compressibility (1/GPa) = 0.02859354
#
# Stress axis : x y z
#
# Youngs Moduli (GPa) = 73.67718 20.50837 74.02630
#
# Poissons Ratio (x) = 0.14332 0.53736
# Poissons Ratio (y) = 0.51490 0.69412
# Poissons Ratio (z) = 0.53482 0.19230
#
# Static dielectric constant tensor:
#      x y z
#    x 3.640990 0.000000 0.000000 
#    y 0.000000 3.169590 0.000000 
#    z 0.000000 0.000000 3.597560 
# 
# 
# High freq. dielectric constant tensor:
#      x y z
#    x 1.731910 0.000000 0.000000 
#    y 0.000000 1.696290 0.000000 
#    z 0.000000 0.000000 1.731180 
# 
# From -- ./inp_files/19551.got.cif
#   From: 2010.03.12/outbox.cif.g09.slc.cpg/sg62_10_cif.got.tgz:19551.got - 2010.04.10 19:12:36.
