data_PCOD8253052
_publ_section_title
;
Structure prediction by ZEFSAII (Michael W. Deem and Ramdas Pophale) SiO2 
 PCOD8253052
Probable space group: P N M A
;
_chemical_formula_sum "Si O2"
_cell_formula_units_Z 64
_cell_length_a 14.731723
_cell_length_b 22.524820
_cell_length_c 9.902642
_cell_angle_alpha 90.000000
_cell_angle_beta 90.000000
_cell_angle_gamma 90.000000
_cell_volume 3285.987841
_symmetry_space_group_name_H-M "P N M A"
_symmetry_group_IT_number 62
_symmetry_cell_setting 'orthorhombic'
loop_
_space_group_symop_operation_xyz
x,y,z
1/2-x,-y,1/2+z
1/2+x,1/2-y,1/2-z
-x,1/2+y,-z
-x,-y,-z
1/2+x,y,1/2-z
1/2-x,1/2+y,1/2+z
x,1/2-y,z
loop_
_atom_site_type_symbol
_atom_site_label
_atom_site_fract_x
_atom_site_fract_y
_atom_site_fract_z
Si Si1 0.989205 0.933512 0.453081
Si Si2 0.146593 0.181627 0.904043
Si Si3 0.971503 0.112203 0.996337
Si Si4 0.058335 0.413419 0.262572
Si Si5 0.699324 0.108009 0.842181
Si Si6 0.301120 0.317696 0.445171
Si Si7 0.201104 0.183460 0.188342
Si Si8 0.377825 0.455545 0.733231
O O1 0.989670 0.897567 0.594055
O O2 0.895610 0.924855 0.369726
O O3 0.074303 0.917964 0.355326
O O4 0.000000 0.000000 0.500000
O O5 0.116161 0.250000 0.887828
O O6 0.192630 0.160398 0.766980
O O7 0.219009 0.174111 0.027960
O O8 0.061471 0.139330 0.932069
O O9 0.902555 0.166858 0.011891
O O10 0.985374 0.082067 0.142479
O O11 0.931316 0.060172 0.903510
O O12 0.121705 0.358483 0.235580
O O13 0.115698 0.474597 0.265624
O O14 0.772040 0.060662 0.783930
O O15 0.731165 0.138380 0.980597
O O16 0.281304 0.250000 0.487231
O O17 0.289173 0.327122 0.282808
O O18 0.164206 0.250000 0.211276
#
# Coordination Sequence:
#
# PCOD8253052 Si02
#       8
#     8   8   8   8   8   8   8   8
#     4  10  21  41  58  85 123 154 195 246 296 357
#     4  10  20  36  59  84 118 158 196 243 298 350
#     4  10  20  36  59  86 117 153 199 243 292 355
#     4  10  20  39  57  83 116 156 192 242 301 350
#     4  11  21  39  61  87 119 159 197 244 303 352
#     4  10  20  36  59  85 116 154 201 248 292 352
#     4   9  19  36  56  82 114 151 200 243 288 352
#     4  10  22  39  59  89 119 153 201 243 295 359
#
# _framework density 19.476638999999999
#
# number of rings (size 3 to 8) (size 9 to 14) (size 15 to 20)
#    0.000    2.000    2.500    1.125    0.000    1.500 
#   13.500    0.000    0.000    0.000    0.000    0.000 
#    0.000    0.000    0.000    0.000    0.000    0.000 
#
# Total GULP energy -793177.632184 kJ/mol
# GULP energy per Si atom -12393.400503 kJ/mol
# Density = 1.943231 g / cm^3
# Si number density = 19.476639 Si / 1000 Ang^3
#
#
#
# Elastic Constant Matrix: (Units=GPa)
#
#
# Indices 1 2 3 4 5 6 
#
# 1 54.7969 16.8972 27.7033 0.0000 0.0000 0.0000
# 2 16.8972 66.0293 23.4924 0.0000 0.0000 0.0000
# 3 27.7033 23.4924 121.6617 0.0000 0.0000 0.0000
# 4 0.0000 0.0000 0.0000 30.1030 0.0000 0.0000
# 5 0.0000 0.0000 0.0000 0.0000 22.5002 0.0000
# 6 0.0000 0.0000 0.0000 0.0000 0.0000 22.1083
#
#
#
# Elastic Compliance Matrix: (Units=1/GPa)
#
#
# Indices 1 2 3 4 5 6 
#
# 1 0.021589 -0.004054 -0.004133 0.000000 0.000000 0.000000
# 2 -0.004054 0.017023 -0.002364 0.000000 0.000000 0.000000
# 3 -0.004133 -0.002364 0.009617 0.000000 0.000000 0.000000
# 4 0.000000 0.000000 0.000000 0.033219 0.000000 0.000000
# 5 0.000000 0.000000 0.000000 0.000000 0.044444 0.000000
# 6 0.000000 0.000000 0.000000 0.000000 0.000000 0.045232
#
#
# Mechanical properties :
#
#
# Convention : Reuss Voigt Hill
#
# Bulk Modulus (GPa) = 36.86385 42.07484 39.46934
# Shear Modulus (GPa) = 24.84232 26.56863 25.70548
#
# Velocity S-wave (km/s) = 3.57528 3.69742 3.63686
# Velocity P-wave (km/s) = 6.00098 6.31486 6.15992
#
# Compressibility (1/GPa) = 0.02712685
#
# Stress axis : x y z
#
# Youngs Moduli (GPa) = 46.32013 58.74286 103.98114
#
# Poissons Ratio (x) = 0.23815 0.42977
# Poissons Ratio (y) = 0.18779 0.24581
# Poissons Ratio (z) = 0.19145 0.13887
#
# Static dielectric constant tensor:
#      x y z
#    x 3.430980 0.000000 0.000000 
#    y 0.000000 3.444320 0.000000 
#    z 0.000000 0.000000 4.687000 
# 
# 
# High freq. dielectric constant tensor:
#      x y z
#    x 1.736120 0.000000 0.000000 
#    y 0.000000 1.753070 0.000000 
#    z 0.000000 0.000000 1.781060 
# 
# From -- ./inp_files/6954.got.cif
#   From: 2010.03.12/outbox.cif.g09.slc.cpg/sg62_4_cif.got.tgz:6954.got - 2010.04.10 19:12:36.
