data_PCOD8253058
_publ_section_title
;
Structure prediction by ZEFSAII (Michael W. Deem and Ramdas Pophale) SiO2 
 PCOD8253058
Probable space group: P N M A
;
_chemical_formula_sum "Si O2"
_cell_formula_units_Z 48
_cell_length_a 14.244468
_cell_length_b 16.798679
_cell_length_c 9.404541
_cell_angle_alpha 90.000000
_cell_angle_beta 90.000000
_cell_angle_gamma 90.000000
_cell_volume 2250.396115
_symmetry_space_group_name_H-M "P N M A"
_symmetry_group_IT_number 62
_symmetry_cell_setting 'orthorhombic'
loop_
_space_group_symop_operation_xyz
x,y,z
1/2-x,-y,1/2+z
1/2+x,1/2-y,1/2-z
-x,1/2+y,-z
-x,-y,-z
1/2+x,y,1/2-z
1/2-x,1/2+y,1/2+z
x,1/2-y,z
loop_
_atom_site_type_symbol
_atom_site_label
_atom_site_fract_x
_atom_site_fract_y
_atom_site_fract_z
Si Si1 0.528500 0.452103 0.136276
Si Si2 0.275407 0.155903 0.820280
Si Si3 0.860286 0.158161 0.376603
Si Si4 0.396848 0.901279 0.474371
Si Si5 0.408987 0.438874 0.620192
Si Si6 0.171355 0.160622 0.264106
O O1 0.449289 0.389251 0.177380
O O2 0.534406 0.515447 0.258872
O O3 0.626333 0.402062 0.124009
O O4 0.500000 0.500000 0.000000
O O5 0.276666 0.250000 0.792257
O O6 0.168041 0.125798 0.840755
O O7 0.323299 0.112996 0.684050
O O8 0.330429 0.131752 0.964233
O O9 0.887114 0.250000 0.379758
O O10 0.780646 0.140413 0.258990
O O11 0.507494 0.885157 0.444941
O O12 0.376461 0.845655 0.609476
O O13 0.372457 0.994409 0.508889
O O14 0.158453 0.250000 0.322979
#
# Coordination Sequence:
#
# PCOD8253058 Si02
#       6
#     8   8   8   8   8   8
#     4  11  20  34  56  90 118 152 194 246 300 357
#     4  10  20  36  59  85 117 157 198 245 302 359
#     4   9  18  35  56  82 115 156 201 244 295 351
#     4   9  20  37  59  85 115 154 205 246 298 356
#     4  10  21  37  57  88 119 157 198 246 302 360
#     4   9  19  36  60  83 113 157 200 243 297 356
#
# _framework density 21.329575999999999
#
# number of rings (size 3 to 8) (size 9 to 14) (size 15 to 20)
#    0.000    2.333    1.667    2.000    0.000    5.333 
#    0.000    0.000    0.000    0.000    0.000    1.167 
#    0.000    0.000    0.000    0.000    0.000    0.000 
#
# Total GULP energy -594951.645075 kJ/mol
# GULP energy per Si atom -12394.825939 kJ/mol
# Density = 2.128103 g / cm^3
# Si number density = 21.329576 Si / 1000 Ang^3
#
#
#
# Elastic Constant Matrix: (Units=GPa)
#
#
# Indices 1 2 3 4 5 6 
#
# 1 91.0261 43.6657 22.9044 0.0000 0.0000 0.0000
# 2 43.6657 77.6395 24.6699 0.0000 0.0000 0.0000
# 3 22.9044 24.6699 38.8497 0.0000 0.0000 0.0000
# 4 0.0000 0.0000 0.0000 32.3740 0.0000 0.0000
# 5 0.0000 0.0000 0.0000 0.0000 41.2653 0.0000
# 6 0.0000 0.0000 0.0000 0.0000 0.0000 39.1592
#
#
#
# Elastic Compliance Matrix: (Units=1/GPa)
#
#
# Indices 1 2 3 4 5 6 
#
# 1 0.015665 -0.007361 -0.004561 0.000000 0.000000 0.000000
# 2 -0.007361 0.019595 -0.008103 0.000000 0.000000 0.000000
# 3 -0.004561 -0.008103 0.033575 0.000000 0.000000 0.000000
# 4 0.000000 0.000000 0.000000 0.030889 0.000000 0.000000
# 5 0.000000 0.000000 0.000000 0.000000 0.024233 0.000000
# 6 0.000000 0.000000 0.000000 0.000000 0.000000 0.025537
#
#
# Mechanical properties :
#
#
# Convention : Reuss Voigt Hill
#
# Bulk Modulus (GPa) = 34.74146 43.33282 39.03714
# Shear Modulus (GPa) = 25.10825 30.31138 27.70982
#
# Velocity S-wave (km/s) = 3.43469 3.77383 3.60825
# Velocity P-wave (km/s) = 5.66152 6.27288 5.97502
#
# Compressibility (1/GPa) = 0.02878406
#
# Stress axis : x y z
#
# Youngs Moduli (GPa) = 63.83857 51.03456 29.78420
#
# Poissons Ratio (x) = 0.37565 0.13585
# Poissons Ratio (y) = 0.46990 0.24134
# Poissons Ratio (z) = 0.29118 0.41354
#
# Static dielectric constant tensor:
#      x y z
#    x 4.040870 0.000000 0.000000 
#    y 0.000000 3.847700 0.000000 
#    z 0.000000 0.000000 3.037040 
# 
# 
# High freq. dielectric constant tensor:
#      x y z
#    x 1.838740 0.000000 0.000000 
#    y 0.000000 1.838270 0.000000 
#    z 0.000000 0.000000 1.807780 
# 
# From -- ./inp_files/6518.got.cif
#   From: 2010.03.12/outbox.cif.g09.slc.cpg/sg62_4_cif.got.tgz:6518.got - 2010.04.10 19:12:36.
