data_PCOD8253505
_publ_section_title
;
Structure prediction by ZEFSAII (Michael W. Deem and Ramdas Pophale) SiO2 
 PCOD8253505
Probable space group: P N M A
;
_chemical_formula_sum "Si O2"
_cell_formula_units_Z 48
_cell_length_a 14.424501
_cell_length_b 8.392623
_cell_length_c 20.354168
_cell_angle_alpha 90.000000
_cell_angle_beta 90.000000
_cell_angle_gamma 90.000000
_cell_volume 2464.063342
_symmetry_space_group_name_H-M "P N M A"
_symmetry_group_IT_number 62
_symmetry_cell_setting 'orthorhombic'
loop_
_space_group_symop_operation_xyz
x,y,z
1/2-x,-y,1/2+z
1/2+x,1/2-y,1/2-z
-x,1/2+y,-z
-x,-y,-z
1/2+x,y,1/2-z
1/2-x,1/2+y,1/2+z
x,1/2-y,z
loop_
_atom_site_type_symbol
_atom_site_label
_atom_site_fract_x
_atom_site_fract_y
_atom_site_fract_z
Si Si1 0.186289 0.438543 0.072354
Si Si2 0.000314 0.567176 0.264482
Si Si3 0.490566 0.064709 0.377047
Si Si4 0.801289 0.565049 0.075258
Si Si5 0.815458 0.438373 0.311709
Si Si6 0.186796 0.434000 0.309383
O O1 0.181229 0.250000 0.078622
O O2 0.084131 0.503523 0.089994
O O3 0.261110 0.503695 0.124403
O O4 0.215275 0.492374 0.999510
O O5 0.995453 0.750000 0.242315
O O6 0.997542 0.454311 0.201123
O O7 0.093726 0.536852 0.305253
O O8 0.913949 0.525860 0.311244
O O9 0.472982 0.250000 0.392749
O O10 0.407868 0.961014 0.406209
O O11 0.777068 0.750000 0.084098
O O12 0.733624 0.461601 0.120265
O O13 0.831104 0.250000 0.314689
O O14 0.758146 0.487990 0.247038
O O15 0.160559 0.250000 0.300988
#
# Coordination Sequence:
#
# PCOD8253505 Si02
#       6
#     8   8   8   8   8   8
#     4   9  20  38  60  85 117 156 196 241 289 346
#     4  12  24  37  58  91 122 148 193 252 297 334
#     4  11  20  36  59  86 121 160 197 232 288 358
#     4  11  22  37  58  89 123 152 191 244 298 342
#     4  10  20  39  63  84 113 155 200 238 285 351
#     4  11  22  39  63  85 115 158 199 236 286 354
#
# _framework density 19.480018000000001
#
# number of rings (size 3 to 8) (size 9 to 14) (size 15 to 20)
#    0.000    1.333    3.333    3.500    0.000    0.667 
#    0.000    5.000    0.000    0.000    0.000    0.000 
#    0.000    0.000    0.000    0.000    0.000    0.000 
#
# Total GULP energy -595474.037992 kJ/mol
# GULP energy per Si atom -12405.709125 kJ/mol
# Density = 1.943568 g / cm^3
# Si number density = 19.480018 Si / 1000 Ang^3
#
#
#
# Elastic Constant Matrix: (Units=GPa)
#
#
# Indices 1 2 3 4 5 6 
#
# 1 121.8462 24.5626 50.5818 0.0000 0.0000 0.0000
# 2 24.5626 46.8628 13.9675 0.0000 0.0000 0.0000
# 3 50.5818 13.9675 133.5027 0.0000 0.0000 0.0000
# 4 0.0000 0.0000 0.0000 23.8360 0.0000 0.0000
# 5 0.0000 0.0000 0.0000 0.0000 24.7096 0.0000
# 6 0.0000 0.0000 0.0000 0.0000 0.0000 25.2569
#
#
#
# Elastic Compliance Matrix: (Units=1/GPa)
#
#
# Indices 1 2 3 4 5 6 
#
# 1 0.010582 -0.004491 -0.003539 0.000000 0.000000 0.000000
# 2 -0.004491 0.023932 -0.000802 0.000000 0.000000 0.000000
# 3 -0.003539 -0.000802 0.008915 0.000000 0.000000 0.000000
# 4 0.000000 0.000000 0.000000 0.041953 0.000000 0.000000
# 5 0.000000 0.000000 0.000000 0.000000 0.040470 0.000000
# 6 0.000000 0.000000 0.000000 0.000000 0.000000 0.039593
#
#
# Mechanical properties :
#
#
# Convention : Reuss Voigt Hill
#
# Bulk Modulus (GPa) = 38.81461 53.38172 46.09816
# Shear Modulus (GPa) = 26.08250 28.96715 27.52483
#
# Velocity S-wave (km/s) = 3.66312 3.86037 3.76304
# Velocity P-wave (km/s) = 6.15304 6.87988 6.52658
#
# Compressibility (1/GPa) = 0.02576349
#
# Stress axis : x y z
#
# Youngs Moduli (GPa) = 94.50236 41.78489 112.16548
#
# Poissons Ratio (x) = 0.18767 0.39699
# Poissons Ratio (y) = 0.42445 0.08997
# Poissons Ratio (z) = 0.33448 0.03352
#
# Static dielectric constant tensor:
#      x y z
#    x 3.630900 0.000000 0.000000 
#    y 0.000000 3.302260 0.000000 
#    z 0.000000 0.000000 3.638140 
# 
# 
# High freq. dielectric constant tensor:
#      x y z
#    x 1.761190 0.000000 0.000000 
#    y 0.000000 1.747300 0.000000 
#    z 0.000000 0.000000 1.754380 
# 
# From -- ./inp_files/23720.got.cif
#   From: 2010.03.12/outbox.cif.g09.slc.cpg/sg62_12_cif.got.tgz:23720.got - 2010.04.10 19:12:36.
