data_PCOD8253708
_publ_section_title
;
Structure prediction by ZEFSAII (Michael W. Deem and Ramdas Pophale) SiO2 
 PCOD8253708
Probable space group: P N M A
;
_chemical_formula_sum "Si O2"
_cell_formula_units_Z 32
_cell_length_a 16.652746
_cell_length_b 10.645427
_cell_length_c 8.859339
_cell_angle_alpha 90.000000
_cell_angle_beta 90.000000
_cell_angle_gamma 90.000000
_cell_volume 1570.544565
_symmetry_space_group_name_H-M "P N M A"
_symmetry_group_IT_number 62
_symmetry_cell_setting 'orthorhombic'
loop_
_space_group_symop_operation_xyz
x,y,z
1/2-x,-y,1/2+z
1/2+x,1/2-y,1/2-z
-x,1/2+y,-z
-x,-y,-z
1/2+x,y,1/2-z
1/2-x,1/2+y,1/2+z
x,1/2-y,z
loop_
_atom_site_type_symbol
_atom_site_label
_atom_site_fract_x
_atom_site_fract_y
_atom_site_fract_z
Si Si1 0.402982 0.250000 0.725099
Si Si2 0.106291 0.002522 0.353982
Si Si3 0.582076 0.250000 0.800029
Si Si4 0.078226 0.981059 0.703018
Si Si5 0.635565 0.750000 0.604980
Si Si6 0.819436 0.750000 0.602691
O O1 0.356994 0.378154 0.772603
O O2 0.485674 0.250000 0.819867
O O3 0.418485 0.250000 0.545231
O O4 0.161608 0.121514 0.305736
O O5 0.017529 0.033157 0.292548
O O6 0.109347 0.976016 0.532238
O O7 0.604765 0.383212 0.721736
O O8 0.617954 0.250000 0.966350
O O9 0.119090 0.872771 0.797793
O O10 0.727566 0.750000 0.550598
#
# Coordination Sequence:
#
# PCOD8253708 Si02
#       6
#     4   8   4   8   4   4
#     4  10  21  36  58  88 114 148 193 242 286 336
#     4   9  18  37  62  79 105 154 200 224 271 350
#     4   8  18  37  60  79 107 150 196 230 274 337
#     4   9  18  36  61  85 108 145 194 239 275 334
#     4  12  24  33  52  91 128 142 176 246 304 327
#     4  10  21  36  56  84 115 152 191 236 284 342
#
# _framework density 20.375098000000001
#
# number of rings (size 3 to 8) (size 9 to 14) (size 15 to 20)
#    0.000    2.500    0.000    3.000    0.000   10.000 
#    0.000    1.250    0.000    6.000    0.000    0.000 
#    0.000    0.000    0.000    0.000    0.000    0.000 
#
# Total GULP energy -396476.736176 kJ/mol
# GULP energy per Si atom -12389.898006 kJ/mol
# Density = 2.032872 g / cm^3
# Si number density = 20.375098 Si / 1000 Ang^3
#
#
#
# Elastic Constant Matrix: (Units=GPa)
#
#
# Indices 1 2 3 4 5 6 
#
# 1 53.5484 42.2876 35.7084 0.0000 0.0000 0.0000
# 2 42.2876 222.8470 51.1627 0.0000 0.0000 0.0000
# 3 35.7084 51.1627 64.0979 0.0000 0.0000 0.0000
# 4 0.0000 0.0000 0.0000 8.7828 0.0000 0.0000
# 5 0.0000 0.0000 0.0000 0.0000 14.2456 0.0000
# 6 0.0000 0.0000 0.0000 0.0000 0.0000 18.0941
#
#
#
# Elastic Compliance Matrix: (Units=1/GPa)
#
#
# Indices 1 2 3 4 5 6 
#
# 1 0.030664 -0.002322 -0.015229 0.000000 0.000000 0.000000
# 2 -0.002322 0.005670 -0.003232 0.000000 0.000000 0.000000
# 3 -0.015229 -0.003232 0.026665 0.000000 0.000000 0.000000
# 4 0.000000 0.000000 0.000000 0.113859 0.000000 0.000000
# 5 0.000000 0.000000 0.000000 0.000000 0.070197 0.000000
# 6 0.000000 0.000000 0.000000 0.000000 0.000000 0.055267
#
#
# Mechanical properties :
#
#
# Convention : Reuss Voigt Hill
#
# Bulk Modulus (GPa) = 46.65879 66.53453 56.59666
# Shear Modulus (GPa) = 14.24366 22.31346 18.27856
#
# Velocity S-wave (km/s) = 2.64687 3.31287 2.99842
# Velocity P-wave (km/s) = 5.68250 6.88180 6.31071
#
# Compressibility (1/GPa) = 0.02143219
#
# Stress axis : x y z
#
# Youngs Moduli (GPa) = 32.61138 176.36268 37.50247
#
# Poissons Ratio (x) = 0.40960 0.57112
# Poissons Ratio (y) = 0.07574 0.12121
# Poissons Ratio (z) = 0.49664 0.57001
#
# Static dielectric constant tensor:
#      x y z
#    x 3.327150 0.000000 0.000000 
#    y 0.000000 4.655520 0.000000 
#    z 0.000000 0.000000 3.259240 
# 
# 
# High freq. dielectric constant tensor:
#      x y z
#    x 1.760780 0.000000 0.000000 
#    y 0.000000 1.838210 0.000000 
#    z 0.000000 0.000000 1.753870 
# 
# From -- ./inp_files/5889.got.cif
#   From: 2010.03.12/outbox.cif.g09.slc.cpg/sg62_3_cif.got.tgz:5889.got - 2010.04.10 19:12:36.
