data_PCOD8253576
_publ_section_title
;
Structure prediction by ZEFSAII (Michael W. Deem and Ramdas Pophale) SiO2 
 PCOD8253576
Probable space group: P N M A
;
_chemical_formula_sum "Si O2"
_cell_formula_units_Z 36
_cell_length_a 13.821115
_cell_length_b 10.583716
_cell_length_c 11.532142
_cell_angle_alpha 90.000000
_cell_angle_beta 90.000000
_cell_angle_gamma 90.000000
_cell_volume 1686.907385
_symmetry_space_group_name_H-M "P N M A"
_symmetry_group_IT_number 62
_symmetry_cell_setting 'orthorhombic'
loop_
_space_group_symop_operation_xyz
x,y,z
1/2-x,-y,1/2+z
1/2+x,1/2-y,1/2-z
-x,1/2+y,-z
-x,-y,-z
1/2+x,y,1/2-z
1/2-x,1/2+y,1/2+z
x,1/2-y,z
loop_
_atom_site_type_symbol
_atom_site_label
_atom_site_fract_x
_atom_site_fract_y
_atom_site_fract_z
Si Si1 0.168636 0.497537 0.394277
Si Si2 0.377119 0.895492 0.412327
Si Si3 0.916442 0.250000 0.595215
Si Si4 0.423263 0.003831 0.644876
Si Si5 0.828988 0.250000 0.850065
Si Si6 0.634766 0.250000 0.956346
O O1 0.281376 0.527288 0.377717
O O2 0.120252 0.618622 0.462151
O O3 0.120093 0.469925 0.269710
O O4 0.149923 0.373683 0.467505
O O5 0.366953 0.750000 0.374111
O O6 0.462911 0.965515 0.341992
O O7 0.401017 0.895701 0.550603
O O8 0.866970 0.250000 0.719984
O O9 0.031331 0.250000 0.603972
O O10 0.370689 0.126209 0.587730
O O11 0.712610 0.250000 0.852893
#
# Coordination Sequence:
#
# PCOD8253576 Si02
#       6
#     8   8   4   8   4   4
#     4  11  24  43  67  98 131 175 217 271 341 389
#     4  11  22  41  68  92 135 169 220 279 316 409
#     4  10  24  42  65  95 130 173 229 260 330 395
#     4  10  23  41  63  98 126 173 218 264 338 389
#     4  10  20  40  67  91 124 177 216 257 332 388
#     4  12  24  44  66  98 140 170 213 293 324 393
#
# _framework density 21.340827999999998
#
# number of rings (size 3 to 8) (size 9 to 14) (size 15 to 20)
#    0.000    1.333    4.444    0.667    1.556    7.111 
#    4.000    0.000    0.000    0.000    0.000    0.000 
#    0.000    0.000    0.000    0.000    0.000    0.000 
#
# Total GULP energy -446234.916741 kJ/mol
# GULP energy per Si atom -12395.414354 kJ/mol
# Density = 2.129226 g / cm^3
# Si number density = 21.340828 Si / 1000 Ang^3
#
#
#
# Elastic Constant Matrix: (Units=GPa)
#
#
# Indices 1 2 3 4 5 6 
#
# 1 214.3582 56.6816 53.4105 0.0000 0.0000 0.0000
# 2 56.6816 117.3579 39.0606 0.0000 0.0000 0.0000
# 3 53.4105 39.0606 84.3568 0.0000 0.0000 0.0000
# 4 0.0000 0.0000 0.0000 3.4836 0.0000 0.0000
# 5 0.0000 0.0000 0.0000 0.0000 31.2667 0.0000
# 6 0.0000 0.0000 0.0000 0.0000 0.0000 169.1161
#
#
#
# Elastic Compliance Matrix: (Units=1/GPa)
#
#
# Indices 1 2 3 4 5 6 
#
# 1 0.005873 -0.001890 -0.002843 0.000000 0.000000 0.000000
# 2 -0.001890 0.010682 -0.003749 0.000000 0.000000 0.000000
# 3 -0.002843 -0.003749 0.015391 0.000000 0.000000 0.000000
# 4 0.000000 0.000000 0.000000 0.287061 0.000000 0.000000
# 5 0.000000 0.000000 0.000000 0.000000 0.031983 0.000000
# 6 0.000000 0.000000 0.000000 0.000000 0.000000 0.005913
#
#
# Mechanical properties :
#
#
# Convention : Reuss Voigt Hill
#
# Bulk Modulus (GPa) = 66.75589 79.37537 73.06563
# Shear Modulus (GPa) = 13.19741 58.56796 35.88269
#
# Velocity S-wave (km/s) = 2.48949 5.24439 4.10495
# Velocity P-wave (km/s) = 6.29382 8.59921 7.53520
#
# Compressibility (1/GPa) = 0.01497995
#
# Stress axis : x y z
#
# Youngs Moduli (GPa) = 170.25806 93.61707 64.97395
#
# Poissons Ratio (x) = 0.17697 0.18475
# Poissons Ratio (y) = 0.32185 0.24360
# Poissons Ratio (z) = 0.48412 0.35099
#
# Static dielectric constant tensor:
#      x y z
#    x 4.151040 0.000000 0.000000 
#    y 0.000000 4.724860 0.000000 
#    z 0.000000 0.000000 3.460580 
# 
# 
# High freq. dielectric constant tensor:
#      x y z
#    x 1.860530 0.000000 0.000000 
#    y 0.000000 1.844710 0.000000 
#    z 0.000000 0.000000 1.809080 
# 
# From -- ./inp_files/11891.got.cif
#   From: 2010.03.12/outbox.cif.g09.slc.cpg/sg62_6_cif.got.tgz:11891.got - 2010.04.10 19:12:36.
