data_PCOD8253675
_publ_section_title
;
Structure prediction by ZEFSAII (Michael W. Deem and Ramdas Pophale) SiO2 
 PCOD8253675
Probable space group: P N M A
;
_chemical_formula_sum "Si O2"
_cell_formula_units_Z 64
_cell_length_a 34.961787
_cell_length_b 18.557182
_cell_length_c 4.988586
_cell_angle_alpha 90.000000
_cell_angle_beta 90.000000
_cell_angle_gamma 90.000000
_cell_volume 3236.555907
_symmetry_space_group_name_H-M "P N M A"
_symmetry_group_IT_number 62
_symmetry_cell_setting 'orthorhombic'
loop_
_space_group_symop_operation_xyz
x,y,z
1/2-x,-y,1/2+z
1/2+x,1/2-y,1/2-z
-x,1/2+y,-z
-x,-y,-z
1/2+x,y,1/2-z
1/2-x,1/2+y,1/2+z
x,1/2-y,z
loop_
_atom_site_type_symbol
_atom_site_label
_atom_site_fract_x
_atom_site_fract_y
_atom_site_fract_z
Si Si1 0.399127 0.168892 0.863525
Si Si2 0.651053 0.669916 0.646028
Si Si3 0.456381 0.952726 0.241503
Si Si4 0.104984 0.330983 0.672857
Si Si5 0.775207 0.416239 0.037313
Si Si6 0.154921 0.170100 0.182756
Si Si7 0.773387 0.584409 0.030150
Si Si8 0.957952 0.452109 0.771668
O O1 0.412044 0.250000 0.951673
O O2 0.382150 0.172011 0.569536
O O3 0.435139 0.116362 0.840800
O O4 0.367803 0.139273 0.079128
O O5 0.667516 0.750000 0.700638
O O6 0.684180 0.621949 0.515031
O O7 0.431175 0.882096 0.200882
O O8 0.498638 0.927252 0.335256
O O9 0.440005 0.010204 0.461124
O O10 0.457991 0.987432 0.952175
O O11 0.092645 0.250000 0.580444
O O12 0.136523 0.361310 0.458481
O O13 0.121693 0.327308 0.967614
O O14 0.782904 0.500530 0.011559
O O15 0.743385 0.391650 0.818425
O O16 0.759749 0.394156 0.325772
O O17 0.171427 0.250000 0.239932
O O18 0.188092 0.122692 0.055753
#
# Coordination Sequence:
#
# PCOD8253675 Si02
#       8
#     8   8   8   8   8   8   8   8
#     4  10  21  37  56  81 112 144 182 226 272 326
#     4  10  21  36  55  80 108 140 181 225 269 324
#     4  10  21  37  57  83 113 145 185 229 273 327
#     4  10  21  37  56  81 112 144 182 226 272 326
#     4  10  21  36  53  76 106 139 178 224 273 327
#     4  10  21  36  55  80 108 140 181 225 269 324
#     4  10  21  36  53  76 106 139 178 224 273 327
#     4  10  21  37  57  83 113 145 185 229 273 327
#
# _framework density 19.774107000000001
#
# number of rings (size 3 to 8) (size 9 to 14) (size 15 to 20)
#    0.000    2.000    0.000    3.000    0.000    4.500 
#    0.000    0.000    0.000    9.000    0.000    0.000 
#    0.000    0.000    0.000    0.000    0.000    0.000 
#
# Total GULP energy -793393.018842 kJ/mol
# GULP energy per Si atom -12396.765919 kJ/mol
# Density = 1.972910 g / cm^3
# Si number density = 19.774107 Si / 1000 Ang^3
#
#
#
# Elastic Constant Matrix: (Units=GPa)
#
#
# Indices 1 2 3 4 5 6 
#
# 1 94.3187 63.7983 14.1417 0.0000 0.0000 0.0000
# 2 63.7983 79.7752 22.4215 0.0000 0.0000 0.0000
# 3 14.1417 22.4215 85.9939 0.0000 0.0000 0.0000
# 4 0.0000 0.0000 0.0000 24.7269 0.0000 0.0000
# 5 0.0000 0.0000 0.0000 0.0000 26.2870 0.0000
# 6 0.0000 0.0000 0.0000 0.0000 0.0000 124.6071
#
#
#
# Elastic Compliance Matrix: (Units=1/GPa)
#
#
# Indices 1 2 3 4 5 6 
#
# 1 0.023193 -0.018858 0.001103 0.000000 0.000000 0.000000
# 2 -0.018858 0.028859 -0.004423 0.000000 0.000000 0.000000
# 3 0.001103 -0.004423 0.012601 0.000000 0.000000 0.000000
# 4 0.000000 0.000000 0.000000 0.040442 0.000000 0.000000
# 5 0.000000 0.000000 0.000000 0.000000 0.038042 0.000000
# 6 0.000000 0.000000 0.000000 0.000000 0.000000 0.008025
#
#
# Mechanical properties :
#
#
# Convention : Reuss Voigt Hill
#
# Bulk Modulus (GPa) = 49.27061 51.20118 50.23589
# Shear Modulus (GPa) = 24.71779 45.77259 35.24519
#
# Velocity S-wave (km/s) = 3.53938 4.81643 4.22642
# Velocity P-wave (km/s) = 6.45552 7.54188 7.01975
#
# Compressibility (1/GPa) = 0.02029608
#
# Stress axis : x y z
#
# Youngs Moduli (GPa) = 43.11730 34.65071 79.36052
#
# Poissons Ratio (x) = 0.65343 -0.08752
# Poissons Ratio (y) = 0.81309 0.35105
# Poissons Ratio (z) = -0.04755 0.15328
#
# Static dielectric constant tensor:
#      x y z
#    x 3.452740 0.000000 0.000000 
#    y 0.000000 3.677030 0.000000 
#    z 0.000000 0.000000 3.892520 
# 
# 
# High freq. dielectric constant tensor:
#      x y z
#    x 1.758610 0.000000 0.000000 
#    y 0.000000 1.761140 0.000000 
#    z 0.000000 0.000000 1.794090 
# 
# From -- ./inp_files/3705.got.cif
#   From: 2010.03.12/outbox.cif.g09.slc.cpg/sg62_2_cif.got.tgz:3705.got - 2010.04.10 19:12:36.
