data_PCOD8253987
_publ_section_title
;
Structure prediction by ZEFSAII (Michael W. Deem and Ramdas Pophale) SiO2 
 PCOD8253987
Probable space group: P N M A
;
_chemical_formula_sum "Si O2"
_cell_formula_units_Z 64
_cell_length_a 10.945734
_cell_length_b 8.618262
_cell_length_c 32.550209
_cell_angle_alpha 90.000000
_cell_angle_beta 90.000000
_cell_angle_gamma 90.000000
_cell_volume 3070.565486
_symmetry_space_group_name_H-M "P N M A"
_symmetry_group_IT_number 62
_symmetry_cell_setting 'orthorhombic'
loop_
_space_group_symop_operation_xyz
x,y,z
1/2-x,-y,1/2+z
1/2+x,1/2-y,1/2-z
-x,1/2+y,-z
-x,-y,-z
1/2+x,y,1/2-z
1/2-x,1/2+y,1/2+z
x,1/2-y,z
loop_
_atom_site_type_symbol
_atom_site_label
_atom_site_fract_x
_atom_site_fract_y
_atom_site_fract_z
Si Si1 0.865764 0.067155 0.509927
Si Si2 0.497151 0.424478 0.687883
Si Si3 0.475011 0.572974 0.772641
Si Si4 0.601821 0.924879 0.100807
Si Si5 0.866548 0.932047 0.885400
Si Si6 0.723947 0.921236 0.181314
Si Si7 0.885386 0.066372 0.973925
Si Si8 0.111714 0.932252 0.649061
O O1 0.866114 0.250000 0.500621
O O2 0.843587 0.024157 0.557341
O O3 0.749941 0.994590 0.486223
O O4 0.000000 0.000000 0.500000
O O5 0.452709 0.250000 0.678020
O O6 0.447252 0.477196 0.731767
O O7 0.463718 0.537112 0.650501
O O8 0.639515 0.435530 0.695217
O O9 0.503277 0.750000 0.761024
O O10 0.348193 0.560103 0.797106
O O11 0.577200 0.504427 0.804889
O O12 0.550768 0.750000 0.098110
O O13 0.714318 0.941024 0.132157
O O14 0.488773 0.029520 0.114863
O O15 0.859125 0.750000 0.895352
O O16 0.739389 0.999730 0.867217
O O17 0.905751 0.021575 0.926440
O O18 0.671191 0.750000 0.193303
O O19 0.887296 0.250000 0.979145
O O20 0.000000 0.000000 0.000000
O O21 0.121226 0.750000 0.653411
#
# Coordination Sequence:
#
# PCOD8253987 Si02
#       8
#     8   8   8   8   8   8   8   8
#     4  11  23  40  66  99 133 171 217 273 330 392
#     4  11  24  39  60  89 121 161 207 256 307 371
#     4  10  21  38  60  88 121 160 202 254 311 365
#     4   9  19  36  61  89 120 158 200 249 307 364
#     4  11  24  43  65  93 126 166 211 259 315 382
#     4   9  20  39  59  84 117 154 201 252 301 361
#     4  12  27  47  69  97 133 176 222 275 336 400
#     4   9  20  38  61  90 126 163 204 254 308 367
#
# _framework density 20.843066
#
# number of rings (size 3 to 8) (size 9 to 14) (size 15 to 20)
#    0.000    1.750    0.000    3.375    3.500    5.500 
#    0.000    0.000    0.000    0.000    0.000    0.000 
#    0.000    0.000    0.000    0.000    0.000    0.000 
#
# Total GULP energy -793231.225431 kJ/mol
# GULP energy per Si atom -12394.237897 kJ/mol
# Density = 2.079563 g / cm^3
# Si number density = 20.843066 Si / 1000 Ang^3
#
#
#
# Elastic Constant Matrix: (Units=GPa)
#
#
# Indices 1 2 3 4 5 6 
#
# 1 79.3325 34.8783 40.5780 0.0000 0.0000 0.0000
# 2 34.8783 75.1341 32.3490 0.0000 0.0000 0.0000
# 3 40.5780 32.3490 141.3925 0.0000 0.0000 0.0000
# 4 0.0000 0.0000 0.0000 34.3610 0.0000 0.0000
# 5 0.0000 0.0000 0.0000 0.0000 28.0903 0.0000
# 6 0.0000 0.0000 0.0000 0.0000 0.0000 30.9370
#
#
#
# Elastic Compliance Matrix: (Units=1/GPa)
#
#
# Indices 1 2 3 4 5 6 
#
# 1 0.017237 -0.006513 -0.003457 0.000000 0.000000 0.000000
# 2 -0.006513 0.017225 -0.002072 0.000000 0.000000 0.000000
# 3 -0.003457 -0.002072 0.008538 0.000000 0.000000 0.000000
# 4 0.000000 0.000000 0.000000 0.029103 0.000000 0.000000
# 5 0.000000 0.000000 0.000000 0.000000 0.035599 0.000000
# 6 0.000000 0.000000 0.000000 0.000000 0.000000 0.032324
#
#
# Mechanical properties :
#
#
# Convention : Reuss Voigt Hill
#
# Bulk Modulus (GPa) = 52.86192 56.82995 54.84594
# Shear Modulus (GPa) = 29.34014 31.21459 30.27737
#
# Velocity S-wave (km/s) = 3.75596 3.87408 3.81548
# Velocity P-wave (km/s) = 6.65031 6.88013 6.76619
#
# Compressibility (1/GPa) = 0.01891721
#
# Stress axis : x y z
#
# Youngs Moduli (GPa) = 58.01566 58.05500 117.11688
#
# Poissons Ratio (x) = 0.37813 0.40482
# Poissons Ratio (y) = 0.37787 0.24263
# Poissons Ratio (z) = 0.20054 0.12027
#
# Static dielectric constant tensor:
#      x y z
#    x 3.769520 0.000000 0.000000 
#    y 0.000000 3.843300 0.000000 
#    z 0.000000 0.000000 4.039470 
# 
# 
# High freq. dielectric constant tensor:
#      x y z
#    x 1.811260 0.000000 0.000000 
#    y 0.000000 1.813390 0.000000 
#    z 0.000000 0.000000 1.831160 
# 
# From -- ./inp_files/32531.got.cif
#   From: 2010.03.12/outbox.cif.g09.slc.cpg/sg62_17_cif.got.tgz:32531.got - 2010.04.10 19:12:36.
