data_PCOD8253314
_publ_section_title
;
Structure prediction by ZEFSAII (Michael W. Deem and Ramdas Pophale) SiO2 
 PCOD8253314
Probable space group: P N M A
;
_chemical_formula_sum "Si O2"
_cell_formula_units_Z 40
_cell_length_a 21.605701
_cell_length_b 13.916077
_cell_length_c 6.793913
_cell_angle_alpha 90.000000
_cell_angle_beta 90.000000
_cell_angle_gamma 90.000000
_cell_volume 2042.702714
_symmetry_space_group_name_H-M "P N M A"
_symmetry_group_IT_number 62
_symmetry_cell_setting 'orthorhombic'
loop_
_space_group_symop_operation_xyz
x,y,z
1/2-x,-y,1/2+z
1/2+x,1/2-y,1/2-z
-x,1/2+y,-z
-x,-y,-z
1/2+x,y,1/2-z
1/2-x,1/2+y,1/2+z
x,1/2-y,z
loop_
_atom_site_type_symbol
_atom_site_label
_atom_site_fract_x
_atom_site_fract_y
_atom_site_fract_z
Si Si1 0.819496 0.518446 0.036988
Si Si2 0.646566 0.355611 0.185089
Si Si3 0.457600 0.507329 0.308209
Si Si4 0.756776 0.640579 0.358185
Si Si5 0.487532 0.860812 0.965321
O O1 0.886007 0.517638 0.138394
O O2 0.769357 0.578334 0.162800
O O3 0.822406 0.568170 0.826129
O O4 0.795436 0.410338 0.994326
O O5 0.652568 0.250000 0.282151
O O6 0.575352 0.380567 0.152308
O O7 0.678862 0.357054 0.973922
O O8 0.500000 0.500000 0.500000
O O9 0.460824 0.415012 0.164049
O O10 0.482297 0.599561 0.187406
O O11 0.735305 0.750000 0.307703
O O12 0.505873 0.750000 0.980204
#
# Coordination Sequence:
#
# PCOD8253314 Si02
#       5
#     8   8   8   8   8
#     4  12  22  40  66  88 125 164 203 260 312 366
#     4  10  20  37  63  91 116 154 206 253 297 359
#     4  11  23  38  63  93 126 160 205 254 316 369
#     4  11  24  40  61  91 122 160 208 255 311 369
#     4  10  22  40  62  90 125 162 205 253 301 369
#
# _framework density 19.581899
#
# number of rings (size 3 to 8) (size 9 to 14) (size 15 to 20)
#    0.000    1.200    6.000    0.600    0.000    2.400 
#    0.000    0.000    0.000    0.000    0.000    0.000 
#    0.000    0.000    0.000    0.000    0.000    0.000 
#
# Total GULP energy -496004.023262 kJ/mol
# GULP energy per Si atom -12400.100582 kJ/mol
# Density = 1.953733 g / cm^3
# Si number density = 19.581899 Si / 1000 Ang^3
#
#
#
# Elastic Constant Matrix: (Units=GPa)
#
#
# Indices 1 2 3 4 5 6 
#
# 1 46.7100 30.7846 25.0029 0.0000 0.0000 0.0000
# 2 30.7846 151.0108 56.7331 0.0000 0.0000 0.0000
# 3 25.0029 56.7331 88.2366 0.0000 0.0000 0.0000
# 4 0.0000 0.0000 0.0000 28.9430 0.0000 0.0000
# 5 0.0000 0.0000 0.0000 0.0000 27.8074 0.0000
# 6 0.0000 0.0000 0.0000 0.0000 0.0000 27.4383
#
#
#
# Elastic Compliance Matrix: (Units=1/GPa)
#
#
# Indices 1 2 3 4 5 6 
#
# 1 0.026500 -0.003403 -0.005321 0.000000 0.000000 0.000000
# 2 -0.003403 0.009168 -0.004930 0.000000 0.000000 0.000000
# 3 -0.005321 -0.004930 0.016011 0.000000 0.000000 0.000000
# 4 0.000000 0.000000 0.000000 0.034551 0.000000 0.000000
# 5 0.000000 0.000000 0.000000 0.000000 0.035962 0.000000
# 6 0.000000 0.000000 0.000000 0.000000 0.000000 0.036445
#
#
# Mechanical properties :
#
#
# Convention : Reuss Voigt Hill
#
# Bulk Modulus (GPa) = 41.03434 56.77764 48.90599
# Shear Modulus (GPa) = 25.76404 28.40018 27.08211
#
# Velocity S-wave (km/s) = 3.63120 3.81245 3.72293
# Velocity P-wave (km/s) = 6.21141 6.95971 6.59618
#
# Compressibility (1/GPa) = 0.02436983
#
# Stress axis : x y z
#
# Youngs Moduli (GPa) = 37.73625 109.07356 62.45694
#
# Poissons Ratio (x) = 0.37119 0.33233
# Poissons Ratio (y) = 0.12842 0.30794
# Poissons Ratio (z) = 0.20079 0.53778
#
# Static dielectric constant tensor:
#      x y z
#    x 3.391710 0.000000 0.000000 
#    y 0.000000 3.775070 0.000000 
#    z 0.000000 0.000000 3.547250 
# 
# 
# High freq. dielectric constant tensor:
#      x y z
#    x 1.751270 0.000000 0.000000 
#    y 0.000000 1.768320 0.000000 
#    z 0.000000 0.000000 1.770450 
# 
# From -- ./inp_files/2643.got.cif
#   From: 2010.03.12/outbox.cif.g09.slc.cpg/sg62_2_cif.got.tgz:2643.got - 2010.04.10 19:12:36.
