data_PCOD8253131
_publ_section_title
;
Structure prediction by ZEFSAII (Michael W. Deem and Ramdas Pophale) SiO2 
 PCOD8253131
Probable space group: P N M A
;
_chemical_formula_sum "Si O2"
_cell_formula_units_Z 48
_cell_length_a 13.948240
_cell_length_b 16.792408
_cell_length_c 9.802550
_cell_angle_alpha 90.000000
_cell_angle_beta 90.000000
_cell_angle_gamma 90.000000
_cell_volume 2295.997735
_symmetry_space_group_name_H-M "P N M A"
_symmetry_group_IT_number 62
_symmetry_cell_setting 'orthorhombic'
loop_
_space_group_symop_operation_xyz
x,y,z
1/2-x,-y,1/2+z
1/2+x,1/2-y,1/2-z
-x,1/2+y,-z
-x,-y,-z
1/2+x,y,1/2-z
1/2-x,1/2+y,1/2+z
x,1/2-y,z
loop_
_atom_site_type_symbol
_atom_site_label
_atom_site_fract_x
_atom_site_fract_y
_atom_site_fract_z
Si Si1 0.766805 0.978127 0.224892
Si Si2 0.718366 0.093765 0.443947
Si Si3 0.091198 0.890968 0.229192
Si Si4 0.008284 0.340453 0.042202
Si Si5 0.532381 0.961804 0.769609
Si Si6 0.081434 0.662905 0.520929
O O1 0.707637 0.900162 0.279161
O O2 0.717374 0.056447 0.291854
O O3 0.876573 0.978611 0.276076
O O4 0.765003 0.975645 0.059051
O O5 0.619804 0.138824 0.475321
O O6 0.805162 0.156041 0.450621
O O7 0.059788 0.840916 0.360365
O O8 0.059143 0.983175 0.247484
O O9 0.046408 0.847966 0.100472
O O10 0.998120 0.250000 0.094393
O O11 0.955646 0.400244 0.144785
O O12 0.523070 0.908399 0.905854
O O13 0.047691 0.750000 0.573022
#
# Coordination Sequence:
#
# PCOD8253131 Si02
#       6
#     8   8   8   8   8   8
#     4  10  20  36  62  88 114 150 202 254 284 346
#     4  10  20  37  59  87 118 155 201 242 298 351
#     4  11  21  38  63  87 115 157 203 244 291 355
#     4  12  23  38  62  91 124 157 196 253 305 352
#     4  11  21  38  63  87 115 157 203 244 291 355
#     4  10  22  38  56  85 123 157 191 241 304 359
#
# _framework density 20.905944999999999
#
# number of rings (size 3 to 8) (size 9 to 14) (size 15 to 20)
#    0.000    1.333    3.333    3.500    0.000    0.000 
#    0.000    0.000    0.000    2.000    0.000    0.000 
#    0.000    0.000    0.000    0.000    0.000    0.000 
#
# Total GULP energy -594898.026458 kJ/mol
# GULP energy per Si atom -12393.708885 kJ/mol
# Density = 2.085836 g / cm^3
# Si number density = 20.905945 Si / 1000 Ang^3
#
#
#
# Elastic Constant Matrix: (Units=GPa)
#
#
# Indices 1 2 3 4 5 6 
#
# 1 68.3255 17.3684 13.8137 0.0000 0.0000 0.0000
# 2 17.3684 96.4940 23.5191 0.0000 0.0000 0.0000
# 3 13.8137 23.5191 80.2416 0.0000 0.0000 0.0000
# 4 0.0000 0.0000 0.0000 22.7234 0.0000 0.0000
# 5 0.0000 0.0000 0.0000 0.0000 27.7358 0.0000
# 6 0.0000 0.0000 0.0000 0.0000 0.0000 12.9981
#
#
#
# Elastic Compliance Matrix: (Units=1/GPa)
#
#
# Indices 1 2 3 4 5 6 
#
# 1 0.015633 -0.002324 -0.002010 0.000000 0.000000 0.000000
# 2 -0.002324 0.011506 -0.002972 0.000000 0.000000 0.000000
# 3 -0.002010 -0.002972 0.013680 0.000000 0.000000 0.000000
# 4 0.000000 0.000000 0.000000 0.044007 0.000000 0.000000
# 5 0.000000 0.000000 0.000000 0.000000 0.036055 0.000000
# 6 0.000000 0.000000 0.000000 0.000000 0.000000 0.076934
#
#
# Mechanical properties :
#
#
# Convention : Reuss Voigt Hill
#
# Bulk Modulus (GPa) = 38.15942 39.38484 38.77213
# Shear Modulus (GPa) = 22.60776 25.38212 23.99494
#
# Velocity S-wave (km/s) = 3.29204 3.48819 3.39153
# Velocity P-wave (km/s) = 5.72211 5.92480 5.82434
#
# Compressibility (1/GPa) = 0.02620585
#
# Stress axis : x y z
#
# Youngs Moduli (GPa) = 63.96746 86.91031 73.10132
#
# Poissons Ratio (x) = 0.20197 0.14694
# Poissons Ratio (y) = 0.14865 0.21729
# Poissons Ratio (z) = 0.12858 0.25833
#
# Static dielectric constant tensor:
#      x y z
#    x 3.805090 0.000000 0.000000 
#    y 0.000000 3.551820 0.000000 
#    z 0.000000 0.000000 3.854170 
# 
# 
# High freq. dielectric constant tensor:
#      x y z
#    x 1.819770 0.000000 0.000000 
#    y 0.000000 1.796490 0.000000 
#    z 0.000000 0.000000 1.822430 
# 
# From -- ./inp_files/6460.got.cif
#   From: 2010.03.12/outbox.cif.g09.slc.cpg/sg62_4_cif.got.tgz:6460.got - 2010.04.10 19:12:36.
