data_PCOD8253320
_publ_section_title
;
Structure prediction by ZEFSAII (Michael W. Deem and Ramdas Pophale) SiO2 
 PCOD8253320
Probable space group: P N M A
;
_chemical_formula_sum "Si O2"
_cell_formula_units_Z 40
_cell_length_a 16.533168
_cell_length_b 8.666916
_cell_length_c 12.664951
_cell_angle_alpha 90.000000
_cell_angle_beta 90.000000
_cell_angle_gamma 90.000000
_cell_volume 1814.780818
_symmetry_space_group_name_H-M "P N M A"
_symmetry_group_IT_number 62
_symmetry_cell_setting 'orthorhombic'
loop_
_space_group_symop_operation_xyz
x,y,z
1/2-x,-y,1/2+z
1/2+x,1/2-y,1/2-z
-x,1/2+y,-z
-x,-y,-z
1/2+x,y,1/2-z
1/2-x,1/2+y,1/2+z
x,1/2-y,z
loop_
_atom_site_type_symbol
_atom_site_label
_atom_site_fract_x
_atom_site_fract_y
_atom_site_fract_z
Si Si1 0.318668 0.066492 0.794352
Si Si2 0.590720 0.066786 0.004160
Si Si3 0.841339 0.069933 0.293786
Si Si4 0.393401 0.419512 0.579904
Si Si5 0.420446 0.918739 0.380300
O O1 0.325318 0.250000 0.810302
O O2 0.362869 0.006881 0.688504
O O3 0.227040 0.011882 0.778077
O O4 0.362818 0.983449 0.890865
O O5 0.584168 0.250000 0.998660
O O6 0.645312 0.006480 0.907309
O O7 0.500000 0.000000 0.000000
O O8 0.825036 0.250000 0.309061
O O9 0.918902 0.035976 0.219521
O O10 0.354035 0.250000 0.565427
O O11 0.488883 0.404274 0.581447
O O12 0.366665 0.521892 0.479628
O O13 0.387510 0.750000 0.346775
#
# Coordination Sequence:
#
# PCOD8253320 Si02
#       5
#     8   8   8   8   8
#     4  11  24  43  67  96 133 175 224 278 336 399
#     4  12  26  47  73 102 137 181 232 283 343 412
#     4  12  26  43  65  95 134 177 224 276 336 398
#     4   9  20  38  62  91 125 164 209 261 322 390
#     4  10  20  37  63  93 126 165 211 264 324 390
#
# _framework density 22.041229999999999
#
# number of rings (size 3 to 8) (size 9 to 14) (size 15 to 20)
#    0.000    1.200    0.000    6.000    2.800    4.000 
#    0.000    0.000    0.000    0.000    0.000    0.000 
#    0.000    0.000    0.000    0.000    0.000    0.000 
#
# Total GULP energy -495894.737187 kJ/mol
# GULP energy per Si atom -12397.368430 kJ/mol
# Density = 2.199106 g / cm^3
# Si number density = 22.041230 Si / 1000 Ang^3
#
#
#
# Elastic Constant Matrix: (Units=GPa)
#
#
# Indices 1 2 3 4 5 6 
#
# 1 56.0484 31.2635 18.3020 0.0000 0.0000 0.0000
# 2 31.2635 143.5093 53.0672 0.0000 0.0000 0.0000
# 3 18.3020 53.0672 131.7343 0.0000 0.0000 0.0000
# 4 0.0000 0.0000 0.0000 35.6181 0.0000 0.0000
# 5 0.0000 0.0000 0.0000 0.0000 41.2742 0.0000
# 6 0.0000 0.0000 0.0000 0.0000 0.0000 29.8943
#
#
#
# Elastic Compliance Matrix: (Units=1/GPa)
#
#
# Indices 1 2 3 4 5 6 
#
# 1 0.020478 -0.004006 -0.001231 0.000000 0.000000 0.000000
# 2 -0.004006 0.008971 -0.003057 0.000000 0.000000 0.000000
# 3 -0.001231 -0.003057 0.008994 0.000000 0.000000 0.000000
# 4 0.000000 0.000000 0.000000 0.028076 0.000000 0.000000
# 5 0.000000 0.000000 0.000000 0.000000 0.024228 0.000000
# 6 0.000000 0.000000 0.000000 0.000000 0.000000 0.033451
#
#
# Mechanical properties :
#
#
# Convention : Reuss Voigt Hill
#
# Bulk Modulus (GPa) = 45.75800 59.61746 52.68773
# Shear Modulus (GPa) = 33.76724 36.60130 35.18427
#
# Velocity S-wave (km/s) = 3.91833 4.07945 3.99970
# Velocity P-wave (km/s) = 6.42466 7.02111 6.72950
#
# Compressibility (1/GPa) = 0.02185410
#
# Stress axis : x y z
#
# Youngs Moduli (GPa) = 48.83229 111.46454 111.18802
#
# Poissons Ratio (x) = 0.44651 0.13691
# Poissons Ratio (y) = 0.19561 0.33996
# Poissons Ratio (z) = 0.06013 0.34080
#
# Static dielectric constant tensor:
#      x y z
#    x 3.931960 0.000000 0.000000 
#    y 0.000000 4.316280 0.000000 
#    z 0.000000 0.000000 4.269780 
# 
# 
# High freq. dielectric constant tensor:
#      x y z
#    x 1.859980 0.000000 0.000000 
#    y 0.000000 1.874420 0.000000 
#    z 0.000000 0.000000 1.887580 
# 
# From -- ./inp_files/13825.got.cif
#   From: 2010.03.12/outbox.cif.g09.slc.cpg/sg62_7_cif.got.tgz:13825.got - 2010.04.10 19:12:36.
