data_PCOD8253381
_publ_section_title
;
Structure prediction by ZEFSAII (Michael W. Deem and Ramdas Pophale) SiO2 
 PCOD8253381
Probable space group: P N M A
;
_chemical_formula_sum "Si O2"
_cell_formula_units_Z 36
_cell_length_a 12.918805
_cell_length_b 11.012820
_cell_length_c 13.281560
_cell_angle_alpha 90.000000
_cell_angle_beta 90.000000
_cell_angle_gamma 90.000000
_cell_volume 1889.600401
_symmetry_space_group_name_H-M "P N M A"
_symmetry_group_IT_number 62
_symmetry_cell_setting 'orthorhombic'
loop_
_space_group_symop_operation_xyz
x,y,z
1/2-x,-y,1/2+z
1/2+x,1/2-y,1/2-z
-x,1/2+y,-z
-x,-y,-z
1/2+x,y,1/2-z
1/2-x,1/2+y,1/2+z
x,1/2-y,z
loop_
_atom_site_type_symbol
_atom_site_label
_atom_site_fract_x
_atom_site_fract_y
_atom_site_fract_z
Si Si1 0.166667 0.250000 0.184452
Si Si2 0.913358 0.892213 0.375403
Si Si3 0.786718 0.041547 0.214169
Si Si4 0.141284 0.750000 0.568036
Si Si5 0.877346 0.476621 0.566766
Si Si6 0.069595 0.750000 0.795308
O O1 0.195579 0.371673 0.244775
O O2 0.234012 0.250000 0.082188
O O3 0.045664 0.250000 0.162331
O O4 0.922961 0.750000 0.349298
O O5 0.022911 0.963779 0.359448
O O6 0.830186 0.952129 0.299630
O O7 0.877758 0.906006 0.492867
O O8 0.875677 0.126656 0.165120
O O9 0.730265 0.964712 0.126863
O O10 0.106118 0.866400 0.509119
O O11 0.081736 0.750000 0.674476
#
# Coordination Sequence:
#
# PCOD8253381 Si02
#       6
#     4   8   8   4   8   4
#     4  10  20  38  62  81 119 148 193 247 278 345
#     4  11  23  36  60  91 116 150 200 241 290 347
#     4  10  22  36  58  88 118 151 193 239 295 338
#     4  10  20  40  60  90 110 155 194 241 293 334
#     4  11  22  39  61  86 117 153 196 248 283 346
#     4  10  20  40  60  85 111 157 199 236 285 347
#
# _framework density 19.051646000000002
#
# number of rings (size 3 to 8) (size 9 to 14) (size 15 to 20)
#    0.000    1.778    5.556    1.333    7.778    0.000 
#    0.000    1.111    0.000    0.000    0.000    0.000 
#    0.000    0.000    0.000    0.000    0.000    0.000 
#
# Total GULP energy -446112.814886 kJ/mol
# GULP energy per Si atom -12392.022636 kJ/mol
# Density = 1.900828 g / cm^3
# Si number density = 19.051646 Si / 1000 Ang^3
#
#
#
# Elastic Constant Matrix: (Units=GPa)
#
#
# Indices 1 2 3 4 5 6 
#
# 1 128.9350 19.5020 35.2631 0.0000 0.0000 0.0000
# 2 19.5020 79.1860 12.5643 0.0000 0.0000 0.0000
# 3 35.2631 12.5643 51.2648 0.0000 0.0000 0.0000
# 4 0.0000 0.0000 0.0000 16.7512 0.0000 0.0000
# 5 0.0000 0.0000 0.0000 0.0000 37.5210 0.0000
# 6 0.0000 0.0000 0.0000 0.0000 0.0000 22.3808
#
#
#
# Elastic Compliance Matrix: (Units=1/GPa)
#
#
# Indices 1 2 3 4 5 6 
#
# 1 0.009697 -0.001384 -0.006331 0.000000 0.000000 0.000000
# 2 -0.001384 0.013337 -0.002317 0.000000 0.000000 0.000000
# 3 -0.006331 -0.002317 0.024429 0.000000 0.000000 0.000000
# 4 0.000000 0.000000 0.000000 0.059697 0.000000 0.000000
# 5 0.000000 0.000000 0.000000 0.000000 0.026652 0.000000
# 6 0.000000 0.000000 0.000000 0.000000 0.000000 0.044681
#
#
# Mechanical properties :
#
#
# Convention : Reuss Voigt Hill
#
# Bulk Modulus (GPa) = 36.49654 43.78274 40.13964
# Shear Modulus (GPa) = 24.07449 28.13435 26.10442
#
# Velocity S-wave (km/s) = 3.55863 3.84701 3.70563
# Velocity P-wave (km/s) = 6.00694 6.53939 6.27881
#
# Compressibility (1/GPa) = 0.02739986
#
# Stress axis : x y z
#
# Youngs Moduli (GPa) = 103.12941 74.98004 40.93476
#
# Poissons Ratio (x) = 0.10374 0.25915
# Poissons Ratio (y) = 0.14269 0.09484
# Poissons Ratio (z) = 0.65289 0.17373
#
# Static dielectric constant tensor:
#      x y z
#    x 3.511920 0.000000 0.000000 
#    y 0.000000 4.191280 0.000000 
#    z 0.000000 0.000000 3.200770 
# 
# 
# High freq. dielectric constant tensor:
#      x y z
#    x 1.742230 0.000000 0.000000 
#    y 0.000000 1.749930 0.000000 
#    z 0.000000 0.000000 1.705930 
# 
# From -- ./inp_files/11888.got.cif
#   From: 2010.03.12/outbox.cif.g09.slc.cpg/sg62_6_cif.got.tgz:11888.got - 2010.04.10 19:12:36.
