data_PCOD8253084
_publ_section_title
;
Structure prediction by ZEFSAII (Michael W. Deem and Ramdas Pophale) SiO2 
 PCOD8253084
Probable space group: P N M A
;
_chemical_formula_sum "Si O2"
_cell_formula_units_Z 64
_cell_length_a 11.230608
_cell_length_b 15.496660
_cell_length_c 18.748819
_cell_angle_alpha 90.000000
_cell_angle_beta 90.000000
_cell_angle_gamma 90.000000
_cell_volume 3262.986596
_symmetry_space_group_name_H-M "P N M A"
_symmetry_group_IT_number 62
_symmetry_cell_setting 'orthorhombic'
loop_
_space_group_symop_operation_xyz
x,y,z
1/2-x,-y,1/2+z
1/2+x,1/2-y,1/2-z
-x,1/2+y,-z
-x,-y,-z
1/2+x,y,1/2-z
1/2-x,1/2+y,1/2+z
x,1/2-y,z
loop_
_atom_site_type_symbol
_atom_site_label
_atom_site_fract_x
_atom_site_fract_y
_atom_site_fract_z
Si Si1 0.292951 0.650560 0.089845
Si Si2 0.278390 0.155021 0.007078
Si Si3 0.115669 0.845769 0.656705
Si Si4 0.458132 0.933615 0.559298
Si Si5 0.387904 0.939467 0.829003
Si Si6 0.027986 0.936347 0.436462
Si Si7 0.800348 0.995125 0.819097
Si Si8 0.797321 0.149674 0.065937
O O1 0.267256 0.750000 0.111975
O O2 0.432228 0.639972 0.071892
O O3 0.255776 0.586127 0.154292
O O4 0.225195 0.624787 0.016836
O O5 0.254715 0.250000 0.978296
O O6 0.376158 0.153504 0.070658
O O7 0.151689 0.118570 0.027983
O O8 0.338733 0.101288 0.943872
O O9 0.153341 0.750000 0.684457
O O10 0.981005 0.861500 0.686099
O O11 0.208118 0.916408 0.683348
O O12 0.564519 0.869589 0.581240
O O13 0.500000 0.000000 0.500000
O O14 0.415023 0.979702 0.631278
O O15 0.281638 0.907043 0.880049
O O16 0.475112 0.007628 0.865846
O O17 0.342605 0.994770 0.762102
O O18 0.000000 0.000000 0.500000
O O19 0.769436 0.250000 0.079589
#
# Coordination Sequence:
#
# PCOD8253084 Si02
#       8
#     8   8   8   8   8   8   8   8
#     4  11  22  42  69  94 126 171 224 276 320 380
#     4  10  20  36  59  91 123 156 203 262 319 370
#     4  10  21  40  63  89 126 165 203 259 325 394
#     4  11  21  39  62  87 126 172 212 254 314 393
#     4  12  24  38  64  93 129 161 212 267 331 384
#     4  12  19  37  65  94 122 159 210 270 328 389
#     4  11  25  43  61  93 131 174 209 266 334 384
#     4  11  23  38  63  98 125 166 222 267 317 394
#
# _framework density 19.613932999999999
#
# number of rings (size 3 to 8) (size 9 to 14) (size 15 to 20)
#    0.000    1.000    5.000    2.625    1.750    3.500 
#    0.000    1.250    0.000    0.000    0.000    0.000 
#    0.000    0.000    0.000    0.000    0.000    0.000 
#
# Total GULP energy -793270.447547 kJ/mol
# GULP energy per Si atom -12394.850743 kJ/mol
# Density = 1.956929 g / cm^3
# Si number density = 19.613933 Si / 1000 Ang^3
#
#
#
# Elastic Constant Matrix: (Units=GPa)
#
#
# Indices 1 2 3 4 5 6 
#
# 1 118.2803 42.1166 34.8447 0.0000 0.0000 0.0000
# 2 42.1166 119.7977 53.2351 0.0000 0.0000 0.0000
# 3 34.8447 53.2351 98.1503 0.0000 0.0000 0.0000
# 4 0.0000 0.0000 0.0000 20.3412 0.0000 0.0000
# 5 0.0000 0.0000 0.0000 0.0000 28.9759 0.0000
# 6 0.0000 0.0000 0.0000 0.0000 0.0000 29.8810
#
#
#
# Elastic Compliance Matrix: (Units=1/GPa)
#
#
# Indices 1 2 3 4 5 6 
#
# 1 0.010002 -0.002554 -0.002166 0.000000 0.000000 0.000000
# 2 -0.002554 0.011650 -0.005412 0.000000 0.000000 0.000000
# 3 -0.002166 -0.005412 0.013893 0.000000 0.000000 0.000000
# 4 0.000000 0.000000 0.000000 0.049161 0.000000 0.000000
# 5 0.000000 0.000000 0.000000 0.000000 0.034511 0.000000
# 6 0.000000 0.000000 0.000000 0.000000 0.000000 0.033466
#
#
# Mechanical properties :
#
#
# Convention : Reuss Voigt Hill
#
# Bulk Modulus (GPa) = 65.43902 66.29121 65.86512
# Shear Modulus (GPa) = 28.08339 29.57509 28.82924
#
# Velocity S-wave (km/s) = 3.78803 3.88733 3.83800
# Velocity P-wave (km/s) = 7.25039 7.34982 7.30028
#
# Compressibility (1/GPa) = 0.01528140
#
# Stress axis : x y z
#
# Youngs Moduli (GPa) = 99.98143 85.83423 71.97985
#
# Poissons Ratio (x) = 0.21922 0.15588
# Poissons Ratio (y) = 0.25535 0.38957
# Poissons Ratio (z) = 0.21652 0.46456
#
# Static dielectric constant tensor:
#      x y z
#    x 1.631050 0.000000 0.000000 
#    y 0.000000 3.400600 0.000000 
#    z 0.000000 0.000000 3.536300 
# 
# 
# High freq. dielectric constant tensor:
#      x y z
#    x 1.775630 0.000000 0.000000 
#    y 0.000000 1.770190 0.000000 
#    z 0.000000 0.000000 1.736540 
# 
# From -- ./inp_files/23246.got.cif
#   From: 2010.03.12/outbox.cif.g09.slc.cpg/sg62_12_cif.got.tgz:23246.got - 2010.04.10 19:12:36.
