data_PCOD8253677
_publ_section_title
;
Structure prediction by ZEFSAII (Michael W. Deem and Ramdas Pophale) SiO2 
 PCOD8253677
Probable space group: P N M A
;
_chemical_formula_sum "Si O2"
_cell_formula_units_Z 64
_cell_length_a 8.933268
_cell_length_b 21.367124
_cell_length_c 18.769620
_cell_angle_alpha 90.000000
_cell_angle_beta 90.000000
_cell_angle_gamma 90.000000
_cell_volume 3582.712126
_symmetry_space_group_name_H-M "P N M A"
_symmetry_group_IT_number 62
_symmetry_cell_setting 'orthorhombic'
loop_
_space_group_symop_operation_xyz
x,y,z
1/2-x,-y,1/2+z
1/2+x,1/2-y,1/2-z
-x,1/2+y,-z
-x,-y,-z
1/2+x,y,1/2-z
1/2-x,1/2+y,1/2+z
x,1/2-y,z
loop_
_atom_site_type_symbol
_atom_site_label
_atom_site_fract_x
_atom_site_fract_y
_atom_site_fract_z
Si Si1 0.708999 0.132763 0.816655
Si Si2 0.680981 0.460350 0.447148
Si Si3 0.348922 0.006581 0.186009
Si Si4 0.196940 0.389743 0.912484
Si Si5 0.106536 0.822884 0.057758
Si Si6 0.295602 0.511544 0.830770
Si Si7 0.891164 0.320859 0.684745
Si Si8 0.848943 0.073990 0.045493
O O1 0.757837 0.170219 0.887052
O O2 0.532209 0.135169 0.807012
O O3 0.779798 0.165479 0.748780
O O4 0.740304 0.059060 0.821289
O O5 0.790352 0.451468 0.379896
O O6 0.734586 0.411647 0.507711
O O7 0.510992 0.446065 0.424089
O O8 0.692688 0.530663 0.477807
O O9 0.528348 0.002612 0.183324
O O10 0.291564 0.035485 0.260485
O O11 0.217856 0.446931 0.856791
O O12 0.310312 0.334902 0.890445
O O13 0.030590 0.361585 0.907858
O O14 0.067754 0.750000 0.044998
O O15 0.151903 0.854232 0.982001
O O16 0.271090 0.564693 0.891283
O O17 0.945161 0.250000 0.686047
#
# Coordination Sequence:
#
# PCOD8253677 Si02
#       8
#     8   8   8   8   8   8   8   8
#     4  12  23  36  49  76 105 149 187 221 258 316
#     4   9  19  34  57  75 109 136 173 221 271 319
#     4  12  21  36  55  82 110 146 176 223 278 324
#     4  10  21  36  53  80 103 144 180 221 266 312
#     4  11  22  37  57  78 107 146 184 219 264 316
#     4  11  23  34  55  79 111 142 179 223 274 320
#     4  12  23  36  49  70 107 148 189 223 255 302
#     4   9  19  36  54  79 106 140 178 220 268 322
#
# _framework density 17.863562000000002
#
# number of rings (size 3 to 8) (size 9 to 14) (size 15 to 20)
#    0.000    1.250    3.750    3.750    1.750    3.000 
#    0.000    0.000    0.000    0.000    0.000    8.750 
#    0.000    0.000    0.000    0.000    0.000    0.000 
#
# Total GULP energy -793615.080301 kJ/mol
# GULP energy per Si atom -12400.235630 kJ/mol
# Density = 1.782290 g / cm^3
# Si number density = 17.863562 Si / 1000 Ang^3
#
#
#
# Elastic Constant Matrix: (Units=GPa)
#
#
# Indices 1 2 3 4 5 6 
#
# 1 88.0086 23.4330 47.8642 0.0000 0.0000 0.0000
# 2 23.4330 59.0810 37.7515 0.0000 0.0000 0.0000
# 3 47.8642 37.7515 107.5753 0.0000 0.0000 0.0000
# 4 0.0000 0.0000 0.0000 23.7496 0.0000 0.0000
# 5 0.0000 0.0000 0.0000 0.0000 31.1535 0.0000
# 6 0.0000 0.0000 0.0000 0.0000 0.0000 19.7267
#
#
#
# Elastic Compliance Matrix: (Units=1/GPa)
#
#
# Indices 1 2 3 4 5 6 
#
# 1 0.015209 -0.002202 -0.005994 0.000000 0.000000 0.000000
# 2 -0.002202 0.022137 -0.006789 0.000000 0.000000 0.000000
# 3 -0.005994 -0.006789 0.014345 0.000000 0.000000 0.000000
# 4 0.000000 0.000000 0.000000 0.042106 0.000000 0.000000
# 5 0.000000 0.000000 0.000000 0.000000 0.032099 0.000000
# 6 0.000000 0.000000 0.000000 0.000000 0.000000 0.050693
#
#
# Mechanical properties :
#
#
# Convention : Reuss Voigt Hill
#
# Bulk Modulus (GPa) = 46.03812 52.52914 49.28363
# Shear Modulus (GPa) = 23.38638 24.63372 24.01005
#
# Velocity S-wave (km/s) = 3.62217 3.71751 3.67015
# Velocity P-wave (km/s) = 6.58191 6.92070 6.75343
#
# Compressibility (1/GPa) = 0.02172113
#
# Stress axis : x y z
#
# Youngs Moduli (GPa) = 65.75132 45.17269 69.70929
#
# Poissons Ratio (x) = 0.09947 0.41785
# Poissons Ratio (y) = 0.14479 0.47325
# Poissons Ratio (z) = 0.39413 0.30667
#
# Static dielectric constant tensor:
#      x y z
#    x 3.280020 0.000000 0.000000 
#    y 0.000000 3.149450 0.000000 
#    z 0.000000 0.000000 3.338090 
# 
# 
# High freq. dielectric constant tensor:
#      x y z
#    x 1.697120 0.000000 0.000000 
#    y 0.000000 1.658000 0.000000 
#    z 0.000000 0.000000 1.687690 
# 
# From -- ./inp_files/22635.got.cif
#   From: 2010.03.12/outbox.cif.g09.slc.cpg/sg62_12_cif.got.tgz:22635.got - 2010.04.10 19:12:36.
