data_PCOD8253425
_publ_section_title
;
Structure prediction by ZEFSAII (Michael W. Deem and Ramdas Pophale) SiO2 
 PCOD8253425
Probable space group: P N M A
;
_chemical_formula_sum "Si O2"
_cell_formula_units_Z 56
_cell_length_a 9.892234
_cell_length_b 14.034969
_cell_length_c 19.868277
_cell_angle_alpha 90.000000
_cell_angle_beta 90.000000
_cell_angle_gamma 90.000000
_cell_volume 2758.455898
_symmetry_space_group_name_H-M "P N M A"
_symmetry_group_IT_number 62
_symmetry_cell_setting 'orthorhombic'
loop_
_space_group_symop_operation_xyz
x,y,z
1/2-x,-y,1/2+z
1/2+x,1/2-y,1/2-z
-x,1/2+y,-z
-x,-y,-z
1/2+x,y,1/2-z
1/2-x,1/2+y,1/2+z
x,1/2-y,z
loop_
_atom_site_type_symbol
_atom_site_label
_atom_site_fract_x
_atom_site_fract_y
_atom_site_fract_z
Si Si1 0.694511 0.641868 0.818898
Si Si2 0.483071 0.860464 0.305865
Si Si3 0.807387 0.856916 0.960799
Si Si4 0.556029 0.857811 0.455132
Si Si5 0.038502 0.032086 0.386911
Si Si6 0.170176 0.039746 0.519464
Si Si7 0.283651 0.468920 0.767782
O O1 0.682217 0.750000 0.791131
O O2 0.802067 0.637634 0.879845
O O3 0.546287 0.609390 0.844626
O O4 0.748648 0.573892 0.760141
O O5 0.486952 0.750000 0.284147
O O6 0.474460 0.872145 0.386080
O O7 0.618918 0.911939 0.281821
O O8 0.353592 0.909473 0.272814
O O9 0.776540 0.750000 0.986955
O O10 0.694856 0.926229 0.992709
O O11 0.957581 0.888670 0.983910
O O12 0.603987 0.750000 0.464183
O O13 0.690901 0.918359 0.454867
O O14 0.117162 0.083912 0.449190
O O15 0.146395 0.979555 0.340087
O O16 0.939487 0.951956 0.420220
#
# Coordination Sequence:
#
# PCOD8253425 Si02
#       7
#     8   8   8   8   8   8   8
#     4  10  22  41  63  89 130 173 216 266 320 380
#     4  11  24  41  65  93 128 167 211 265 320 382
#     4   9  18  35  60  88 120 159 206 259 316 373
#     4  10  21  37  61  94 123 156 207 262 317 376
#     4  10  22  39  62  88 122 164 212 258 319 378
#     4  10  20  38  63  89 121 162 206 265 322 370
#     4  12  23  43  63  91 129 171 217 260 313 389
#
# _framework density 20.301212
#
# number of rings (size 3 to 8) (size 9 to 14) (size 15 to 20)
#    0.000    1.714    1.429    3.429    0.000    2.286 
#    0.000    3.571    0.000    0.000    0.000    0.000 
#    0.000    0.000    0.000    0.000    0.000    0.000 
#
# Total GULP energy -694339.754504 kJ/mol
# GULP energy per Si atom -12398.924188 kJ/mol
# Density = 2.025501 g / cm^3
# Si number density = 20.301212 Si / 1000 Ang^3
#
#
#
# Elastic Constant Matrix: (Units=GPa)
#
#
# Indices 1 2 3 4 5 6 
#
# 1 108.7587 44.6550 32.7316 0.0000 0.0000 0.0000
# 2 44.6550 97.0692 34.8512 0.0000 0.0000 0.0000
# 3 32.7316 34.8512 70.8241 0.0000 0.0000 0.0000
# 4 0.0000 0.0000 0.0000 24.6536 0.0000 0.0000
# 5 0.0000 0.0000 0.0000 0.0000 36.7873 0.0000
# 6 0.0000 0.0000 0.0000 0.0000 0.0000 18.3832
#
#
#
# Elastic Compliance Matrix: (Units=1/GPa)
#
#
# Indices 1 2 3 4 5 6 
#
# 1 0.011986 -0.004281 -0.003432 0.000000 0.000000 0.000000
# 2 -0.004281 0.014042 -0.004931 0.000000 0.000000 0.000000
# 3 -0.003432 -0.004931 0.018132 0.000000 0.000000 0.000000
# 4 0.000000 0.000000 0.000000 0.040562 0.000000 0.000000
# 5 0.000000 0.000000 0.000000 0.000000 0.027183 0.000000
# 6 0.000000 0.000000 0.000000 0.000000 0.000000 0.054398
#
#
# Mechanical properties :
#
#
# Convention : Reuss Voigt Hill
#
# Bulk Modulus (GPa) = 52.99415 55.68085 54.33750
# Shear Modulus (GPa) = 25.26752 26.92575 26.09664
#
# Velocity S-wave (km/s) = 3.53176 3.64581 3.58924
# Velocity P-wave (km/s) = 6.54154 6.72380 6.63329
#
# Compressibility (1/GPa) = 0.01887001
#
# Stress axis : x y z
#
# Youngs Moduli (GPa) = 83.43384 71.21516 55.15025
#
# Poissons Ratio (x) = 0.30490 0.18930
# Poissons Ratio (y) = 0.35721 0.27195
# Poissons Ratio (z) = 0.28638 0.35117
#
# Static dielectric constant tensor:
#      x y z
#    x 3.703000 0.000000 0.000000 
#    y 0.000000 3.739600 0.000000 
#    z 0.000000 0.000000 3.646070 
# 
# 
# High freq. dielectric constant tensor:
#      x y z
#    x 1.800440 0.000000 0.000000 
#    y 0.000000 1.784810 0.000000 
#    z 0.000000 0.000000 1.791040 
# 
# From -- ./inp_files/26012.got.cif
#   From: 2010.03.12/outbox.cif.g09.slc.cpg/sg62_14_cif.got.tgz:26012.got - 2010.04.10 19:12:36.
