data_PCOD8253656
_publ_section_title
;
Structure prediction by ZEFSAII (Michael W. Deem and Ramdas Pophale) SiO2 
 PCOD8253656
Probable space group: P N M A
;
_chemical_formula_sum "Si O2"
_cell_formula_units_Z 56
_cell_length_a 20.008378
_cell_length_b 8.696479
_cell_length_c 16.166164
_cell_angle_alpha 90.000000
_cell_angle_beta 90.000000
_cell_angle_gamma 90.000000
_cell_volume 2812.951967
_symmetry_space_group_name_H-M "P N M A"
_symmetry_group_IT_number 62
_symmetry_cell_setting 'orthorhombic'
loop_
_space_group_symop_operation_xyz
x,y,z
1/2-x,-y,1/2+z
1/2+x,1/2-y,1/2-z
-x,1/2+y,-z
-x,-y,-z
1/2+x,y,1/2-z
1/2-x,1/2+y,1/2+z
x,1/2-y,z
loop_
_atom_site_type_symbol
_atom_site_label
_atom_site_fract_x
_atom_site_fract_y
_atom_site_fract_z
Si Si1 0.696709 0.570550 0.832249
Si Si2 0.532219 0.070977 0.241623
Si Si3 0.108113 0.572757 0.820538
Si Si4 0.181716 0.431071 0.491784
Si Si5 0.846907 0.928850 0.848022
Si Si6 0.047903 0.568955 0.431160
Si Si7 0.821545 0.568775 0.029590
O O1 0.684994 0.750000 0.851825
O O2 0.652238 0.513309 0.756236
O O3 0.674417 0.476891 0.912526
O O4 0.773970 0.537596 0.809679
O O5 0.541870 0.250000 0.218622
O O6 0.469333 0.047820 0.301564
O O7 0.596212 0.998157 0.289555
O O8 0.519555 0.976986 0.158270
O O9 0.124939 0.750000 0.839053
O O10 0.125201 0.472154 0.900425
O O11 0.177174 0.250000 0.482544
O O12 0.122544 0.505040 0.439047
O O13 0.250792 0.488912 0.451815
O O14 0.862954 0.750000 0.851859
O O15 0.849676 0.993878 0.941730
O O16 0.048121 0.750000 0.441527
O O17 0.000000 0.500000 0.500000
O O18 0.809040 0.750000 0.024765
#
# Coordination Sequence:
#
# PCOD8253656 Si02
#       7
#     8   8   8   8   8   8   8
#     4   9  18  35  57  82 116 156 196 246 301 356
#     4  10  21  38  59  86 119 160 202 244 298 360
#     4  10  21  35  56  86 118 154 198 246 299 357
#     4  11  22  38  61  88 117 153 196 246 304 359
#     4   8  17  35  57  80 112 156 198 241 298 354
#     4  12  25  41  61  89 123 159 198 245 299 360
#     4  10  21  38  59  85 116 155 202 249 297 352
#
# _framework density 19.907913000000001
#
# number of rings (size 3 to 8) (size 9 to 14) (size 15 to 20)
#    0.000    2.000    0.000    4.714    2.000    2.857 
#    0.000    3.571    0.000    0.000    0.000    0.000 
#    0.000    0.000    0.000    0.000    0.000    0.000 
#
# Total GULP energy -694584.940980 kJ/mol
# GULP energy per Si atom -12403.302518 kJ/mol
# Density = 1.986260 g / cm^3
# Si number density = 19.907913 Si / 1000 Ang^3
#
#
#
# Elastic Constant Matrix: (Units=GPa)
#
#
# Indices 1 2 3 4 5 6 
#
# 1 95.0759 30.8839 34.2785 0.0000 0.0000 0.0000
# 2 30.8839 98.2871 30.1850 0.0000 0.0000 0.0000
# 3 34.2785 30.1850 72.5383 0.0000 0.0000 0.0000
# 4 0.0000 0.0000 0.0000 30.4420 0.0000 0.0000
# 5 0.0000 0.0000 0.0000 0.0000 36.7655 0.0000
# 6 0.0000 0.0000 0.0000 0.0000 0.0000 25.1240
#
#
#
# Elastic Compliance Matrix: (Units=1/GPa)
#
#
# Indices 1 2 3 4 5 6 
#
# 1 0.013218 -0.002563 -0.005180 0.000000 0.000000 0.000000
# 2 -0.002563 0.012162 -0.003850 0.000000 0.000000 0.000000
# 3 -0.005180 -0.003850 0.017836 0.000000 0.000000 0.000000
# 4 0.000000 0.000000 0.000000 0.032849 0.000000 0.000000
# 5 0.000000 0.000000 0.000000 0.000000 0.027199 0.000000
# 6 0.000000 0.000000 0.000000 0.000000 0.000000 0.039803
#
#
# Mechanical properties :
#
#
# Convention : Reuss Voigt Hill
#
# Bulk Modulus (GPa) = 49.92331 50.73293 50.32812
# Shear Modulus (GPa) = 28.91374 29.83656 29.37515
#
# Velocity S-wave (km/s) = 3.81514 3.87554 3.84546
# Velocity P-wave (km/s) = 6.67372 6.75023 6.71208
#
# Compressibility (1/GPa) = 0.02003072
#
# Stress axis : x y z
#
# Youngs Moduli (GPa) = 75.65523 82.22454 56.06751
#
# Poissons Ratio (x) = 0.21070 0.29042
# Poissons Ratio (y) = 0.19387 0.21585
# Poissons Ratio (z) = 0.39188 0.31656
#
# Static dielectric constant tensor:
#      x y z
#    x 3.659060 0.000000 0.000000 
#    y 0.000000 3.430600 0.000000 
#    z 0.000000 0.000000 3.658540 
# 
# 
# High freq. dielectric constant tensor:
#      x y z
#    x 1.786220 0.000000 0.000000 
#    y 0.000000 1.757980 0.000000 
#    z 0.000000 0.000000 1.779510 
# 
# From -- ./inp_files/20268.got.cif
#   From: 2010.03.12/outbox.cif.g09.slc.cpg/sg62_11_cif.got.tgz:20268.got - 2010.04.10 19:12:36.
