data_PCOD8253274
_publ_section_title
;
Structure prediction by ZEFSAII (Michael W. Deem and Ramdas Pophale) SiO2 
 PCOD8253274
Probable space group: P N M A
;
_chemical_formula_sum "Si O2"
_cell_formula_units_Z 48
_cell_length_a 15.016563
_cell_length_b 8.746323
_cell_length_c 18.587819
_cell_angle_alpha 90.000000
_cell_angle_beta 90.000000
_cell_angle_gamma 90.000000
_cell_volume 2441.318763
_symmetry_space_group_name_H-M "P N M A"
_symmetry_group_IT_number 62
_symmetry_cell_setting 'orthorhombic'
loop_
_space_group_symop_operation_xyz
x,y,z
1/2-x,-y,1/2+z
1/2+x,1/2-y,1/2-z
-x,1/2+y,-z
-x,-y,-z
1/2+x,y,1/2-z
1/2-x,1/2+y,1/2+z
x,1/2-y,z
loop_
_atom_site_type_symbol
_atom_site_label
_atom_site_fract_x
_atom_site_fract_y
_atom_site_fract_z
Si Si1 0.750963 0.567875 0.579880
Si Si2 0.700412 0.069050 0.237672
Si Si3 0.907988 0.571491 0.476230
Si Si4 0.867831 0.425433 0.327760
Si Si5 0.487380 0.573279 0.705157
Si Si6 0.939913 0.569578 0.062123
O O1 0.739328 0.750000 0.580176
O O2 0.777070 0.503823 0.658717
O O3 0.827673 0.511088 0.525868
O O4 0.659231 0.494840 0.553804
O O5 0.696523 0.250000 0.230849
O O6 0.775712 0.017041 0.293455
O O7 0.606619 0.007127 0.266966
O O8 0.917720 0.750000 0.486583
O O9 0.887919 0.533183 0.394223
O O10 0.000000 0.500000 0.500000
O O11 0.861534 0.250000 0.353637
O O12 0.944549 0.445291 0.269813
O O13 0.480552 0.750000 0.680643
O O14 0.518979 0.472788 0.638840
O O15 0.937407 0.750000 0.053369
O O16 0.000000 0.500000 0.000000
#
# Coordination Sequence:
#
# PCOD8253274 Si02
#       6
#     8   8   8   8   8   8
#     4  10  21  43  67  91 122 164 210 254 306 365
#     4   9  18  35  63  90 115 154 202 247 300 363
#     4  11  24  40  63  92 127 163 206 258 307 367
#     4  10  20  37  61  89 124 161 201 248 303 369
#     4  10  20  39  65  91 121 161 204 249 302 368
#     4  12  26  42  62  90 124 164 208 260 314 370
#
# _framework density 19.661505999999999
#
# number of rings (size 3 to 8) (size 9 to 14) (size 15 to 20)
#    0.000    1.667    1.667    3.000    2.333    4.667 
#    0.000    0.833    0.000    0.000    0.000    0.000 
#    0.000    0.000    0.000    0.000    0.000    0.000 
#
# Total GULP energy -595380.272665 kJ/mol
# GULP energy per Si atom -12403.755681 kJ/mol
# Density = 1.961676 g / cm^3
# Si number density = 19.661506 Si / 1000 Ang^3
#
#
#
# Elastic Constant Matrix: (Units=GPa)
#
#
# Indices 1 2 3 4 5 6 
#
# 1 190.7022 48.7567 64.7802 0.0000 0.0000 0.0000
# 2 48.7567 61.2491 37.8073 0.0000 0.0000 0.0000
# 3 64.7802 37.8073 114.7654 0.0000 0.0000 0.0000
# 4 0.0000 0.0000 0.0000 31.6775 0.0000 0.0000
# 5 0.0000 0.0000 0.0000 0.0000 34.3334 0.0000
# 6 0.0000 0.0000 0.0000 0.0000 0.0000 26.2539
#
#
#
# Elastic Compliance Matrix: (Units=1/GPa)
#
#
# Indices 1 2 3 4 5 6 
#
# 1 0.007208 -0.004050 -0.002734 0.000000 0.000000 0.000000
# 2 -0.004050 0.022770 -0.005215 0.000000 0.000000 0.000000
# 3 -0.002734 -0.005215 0.011975 0.000000 0.000000 0.000000
# 4 0.000000 0.000000 0.000000 0.031568 0.000000 0.000000
# 5 0.000000 0.000000 0.000000 0.000000 0.029126 0.000000
# 6 0.000000 0.000000 0.000000 0.000000 0.000000 0.038090
#
#
# Mechanical properties :
#
#
# Convention : Reuss Voigt Hill
#
# Bulk Modulus (GPa) = 55.69847 74.37835 65.03841
# Shear Modulus (GPa) = 29.28764 32.81112 31.04938
#
# Velocity S-wave (km/s) = 3.86371 4.08953 3.97822
# Velocity P-wave (km/s) = 6.94943 7.75954 7.36563
#
# Compressibility (1/GPa) = 0.01795382
#
# Stress axis : x y z
#
# Youngs Moduli (GPa) = 138.73211 43.91773 83.50796
#
# Poissons Ratio (x) = 0.17787 0.22835
# Poissons Ratio (y) = 0.56187 0.43549
# Poissons Ratio (z) = 0.37936 0.22903
#
# Static dielectric constant tensor:
#      x y z
#    x 3.890200 0.000000 0.000000 
#    y 0.000000 3.269570 0.000000 
#    z 0.000000 0.000000 3.774670 
# 
# 
# High freq. dielectric constant tensor:
#      x y z
#    x 1.789450 0.000000 0.000000 
#    y 0.000000 1.740770 0.000000 
#    z 0.000000 0.000000 1.778880 
# 
# From -- ./inp_files/23696.got.cif
#   From: 2010.03.12/outbox.cif.g09.slc.cpg/sg62_12_cif.got.tgz:23696.got - 2010.04.10 19:12:36.
