data_PCOD8253062
_publ_section_title
;
Structure prediction by ZEFSAII (Michael W. Deem and Ramdas Pophale) SiO2 
 PCOD8253062
Probable space group: P N M A
;
_chemical_formula_sum "Si O2"
_cell_formula_units_Z 48
_cell_length_a 28.834693
_cell_length_b 8.737224
_cell_length_c 10.216969
_cell_angle_alpha 90.000000
_cell_angle_beta 90.000000
_cell_angle_gamma 90.000000
_cell_volume 2574.013839
_symmetry_space_group_name_H-M "P N M A"
_symmetry_group_IT_number 62
_symmetry_cell_setting 'orthorhombic'
loop_
_space_group_symop_operation_xyz
x,y,z
1/2-x,-y,1/2+z
1/2+x,1/2-y,1/2-z
-x,1/2+y,-z
-x,-y,-z
1/2+x,y,1/2-z
1/2-x,1/2+y,1/2+z
x,1/2-y,z
loop_
_atom_site_type_symbol
_atom_site_label
_atom_site_fract_x
_atom_site_fract_y
_atom_site_fract_z
Si Si1 0.609558 0.575715 0.782954
Si Si2 0.980475 0.570069 0.368984
Si Si3 0.883155 0.425192 0.979568
Si Si4 0.714179 0.929610 0.781185
Si Si5 0.471739 0.930467 0.618868
Si Si6 0.785013 0.570140 0.007338
O O1 0.601430 0.750000 0.828805
O O2 0.574272 0.466120 0.859124
O O3 0.600294 0.560002 0.628789
O O4 0.661661 0.521406 0.816157
O O5 0.988390 0.750000 0.365729
O O6 0.000000 0.500000 0.500000
O O7 0.008270 0.491948 0.253003
O O8 0.884035 0.250000 0.933009
O O9 0.831661 0.488255 0.960986
O O10 0.917845 0.522689 0.889865
O O11 0.715752 0.750000 0.749539
O O12 0.731389 0.015729 0.650647
O O13 0.745678 0.976308 0.903438
O O14 0.476989 0.750000 0.614535
O O15 0.500000 0.000000 0.500000
O O16 0.793641 0.750000 0.009940
#
# Coordination Sequence:
#
# PCOD8253062 Si02
#       6
#     8   8   8   8   8   8
#     4   9  18  36  60  82 113 153 196 239 286 345
#     4  12  25  41  60  85 119 157 196 242 294 349
#     4  10  20  36  60  88 118 153 192 241 291 341
#     4   9  20  38  59  84 116 152 191 239 289 344
#     4  12  23  38  62  90 118 152 195 240 286 343
#     4  10  20  36  59  86 116 152 193 241 291 346
#
# _framework density 18.647919000000002
#
# number of rings (size 3 to 8) (size 9 to 14) (size 15 to 20)
#    0.000    1.667    1.667    5.000    0.000    4.000 
#    3.000    0.000    0.000    0.000    0.000    0.000 
#    0.000    0.000    0.000    0.000    0.000    0.000 
#
# Total GULP energy -595387.863303 kJ/mol
# GULP energy per Si atom -12403.913819 kJ/mol
# Density = 1.860548 g / cm^3
# Si number density = 18.647919 Si / 1000 Ang^3
#
#
#
# Elastic Constant Matrix: (Units=GPa)
#
#
# Indices 1 2 3 4 5 6 
#
# 1 122.2947 60.0378 77.9506 0.0000 0.0000 0.0000
# 2 60.0378 140.0527 64.5043 0.0000 0.0000 0.0000
# 3 77.9506 64.5043 124.6962 0.0000 0.0000 0.0000
# 4 0.0000 0.0000 0.0000 31.6529 0.0000 0.0000
# 5 0.0000 0.0000 0.0000 0.0000 35.2840 0.0000
# 6 0.0000 0.0000 0.0000 0.0000 0.0000 34.0909
#
#
#
# Elastic Compliance Matrix: (Units=1/GPa)
#
#
# Indices 1 2 3 4 5 6 
#
# 1 0.014301 -0.002643 -0.007573 0.000000 0.000000 0.000000
# 2 -0.002643 0.009862 -0.003449 0.000000 0.000000 0.000000
# 3 -0.007573 -0.003449 0.014538 0.000000 0.000000 0.000000
# 4 0.000000 0.000000 0.000000 0.031593 0.000000 0.000000
# 5 0.000000 0.000000 0.000000 0.000000 0.028341 0.000000
# 6 0.000000 0.000000 0.000000 0.000000 0.000000 0.029333
#
#
# Mechanical properties :
#
#
# Convention : Reuss Voigt Hill
#
# Bulk Modulus (GPa) = 87.94530 88.00322 87.97426
# Shear Modulus (GPa) = 31.42889 32.50895 31.96892
#
# Velocity S-wave (km/s) = 4.10980 4.17982 4.14495
# Velocity P-wave (km/s) = 8.35367 8.40172 8.37773
#
# Compressibility (1/GPa) = 0.01137070
#
# Stress axis : x y z
#
# Youngs Moduli (GPa) = 69.92282 101.40188 68.78570
#
# Poissons Ratio (x) = 0.26799 0.52092
# Poissons Ratio (y) = 0.18479 0.23726
# Poissons Ratio (z) = 0.52953 0.34977
#
# Static dielectric constant tensor:
#      x y z
#    x 3.617320 0.000000 0.000000 
#    y 0.000000 3.587470 0.000000 
#    z 0.000000 0.000000 3.274030 
# 
# 
# High freq. dielectric constant tensor:
#      x y z
#    x 1.734860 0.000000 0.000000 
#    y 0.000000 1.733940 0.000000 
#    z 0.000000 0.000000 1.709640 
# 
# From -- ./inp_files/10152.got.cif
#   From: 2010.03.12/outbox.cif.g09.slc.cpg/sg62_6_cif.got.tgz:10152.got - 2010.04.10 19:12:36.
