data_PCOD8253112
_publ_section_title
;
Structure prediction by ZEFSAII (Michael W. Deem and Ramdas Pophale) SiO2 
 PCOD8253112
Probable space group: P N M A
;
_chemical_formula_sum "Si O2"
_cell_formula_units_Z 40
_cell_length_a 10.120433
_cell_length_b 7.439595
_cell_length_c 25.500190
_cell_angle_alpha 90.000000
_cell_angle_beta 90.000000
_cell_angle_gamma 90.000000
_cell_volume 1919.958335
_symmetry_space_group_name_H-M "P N M A"
_symmetry_group_IT_number 62
_symmetry_cell_setting 'orthorhombic'
loop_
_space_group_symop_operation_xyz
x,y,z
1/2-x,-y,1/2+z
1/2+x,1/2-y,1/2-z
-x,1/2+y,-z
-x,-y,-z
1/2+x,y,1/2-z
1/2-x,1/2+y,1/2+z
x,1/2-y,z
loop_
_atom_site_type_symbol
_atom_site_label
_atom_site_fract_x
_atom_site_fract_y
_atom_site_fract_z
Si Si1 0.096175 0.250000 0.699460
Si Si2 0.023436 0.962442 0.616260
Si Si3 0.969999 0.964115 0.879192
Si Si4 0.897910 0.250000 0.795390
Si Si5 0.245115 0.549726 0.920505
Si Si6 0.248729 0.042479 0.037636
O O1 0.077276 0.431017 0.666044
O O2 0.244749 0.250000 0.722375
O O3 0.989707 0.250000 0.745048
O O4 0.026529 0.750000 0.629325
O O5 0.114720 0.004676 0.566297
O O6 0.878861 0.041048 0.601252
O O7 0.964682 0.750000 0.868474
O O8 0.113679 0.039549 0.896514
O O9 0.871759 0.018885 0.925839
O O10 0.926859 0.068076 0.827301
O O11 0.247209 0.750000 0.898603
O O12 0.241389 0.561427 0.983218
O O13 0.238071 0.250000 0.023496
#
# Coordination Sequence:
#
# PCOD8253112 Si02
#       6
#     4   8   8   4   8   8
#     4  12  28  46  72  96 122 170 222 276 335 374
#     4  10  23  43  63  94 135 169 212 269 320 385
#     4  10  23  43  63  94 135 169 212 269 320 385
#     4  12  28  46  72  96 122 170 222 276 335 374
#     4  10  22  36  62  97 133 176 214 252 315 388
#     4  10  20  36  60  93 133 178 212 252 321 380
#
# _framework density 20.833787999999998
#
# number of rings (size 3 to 8) (size 9 to 14) (size 15 to 20)
#    0.000    1.600    2.000    1.200    8.400    0.800 
#    0.000    0.000    0.000    0.000    0.000    0.000 
#    0.000    0.000    0.000    0.000    0.000    0.000 
#
# Total GULP energy -495991.933877 kJ/mol
# GULP energy per Si atom -12399.798347 kJ/mol
# Density = 2.078637 g / cm^3
# Si number density = 20.833788 Si / 1000 Ang^3
#
#
#
# Elastic Constant Matrix: (Units=GPa)
#
#
# Indices 1 2 3 4 5 6 
#
# 1 120.6043 20.7843 12.1196 0.0000 0.0000 0.0000
# 2 20.7843 68.6280 26.0284 0.0000 0.0000 0.0000
# 3 12.1196 26.0284 76.0521 0.0000 0.0000 0.0000
# 4 0.0000 0.0000 0.0000 18.3129 0.0000 0.0000
# 5 0.0000 0.0000 0.0000 0.0000 41.9356 0.0000
# 6 0.0000 0.0000 0.0000 0.0000 0.0000 8.0574
#
#
#
# Elastic Compliance Matrix: (Units=1/GPa)
#
#
# Indices 1 2 3 4 5 6 
#
# 1 0.008769 -0.002443 -0.000561 0.000000 0.000000 0.000000
# 2 -0.002443 0.017425 -0.005574 0.000000 0.000000 0.000000
# 3 -0.000561 -0.005574 0.015146 0.000000 0.000000 0.000000
# 4 0.000000 0.000000 0.000000 0.054606 0.000000 0.000000
# 5 0.000000 0.000000 0.000000 0.000000 0.023846 0.000000
# 6 0.000000 0.000000 0.000000 0.000000 0.000000 0.124109
#
#
# Mechanical properties :
#
#
# Convention : Reuss Voigt Hill
#
# Bulk Modulus (GPa) = 41.35099 42.57211 41.96155
# Shear Modulus (GPa) = 18.57908 27.41800 22.99854
#
# Velocity S-wave (km/s) = 2.98950 3.63166 3.32611
# Velocity P-wave (km/s) = 5.63980 6.16958 5.91063
#
# Compressibility (1/GPa) = 0.02418322
#
# Stress axis : x y z
#
# Youngs Moduli (GPa) = 114.03849 57.38773 66.02331
#
# Poissons Ratio (x) = 0.14019 0.03706
# Poissons Ratio (y) = 0.27857 0.36804
# Poissons Ratio (z) = 0.06402 0.31990
#
# Static dielectric constant tensor:
#      x y z
#    x 4.297380 0.000000 0.000000 
#    y 0.000000 3.805910 0.000000 
#    z 0.000000 0.000000 3.473830 
# 
# 
# High freq. dielectric constant tensor:
#      x y z
#    x 1.842400 0.000000 0.000000 
#    y 0.000000 1.817450 0.000000 
#    z 0.000000 0.000000 1.791400 
# 
# From -- ./inp_files/30684.got.cif
#   From: 2010.03.12/outbox.cif.g09.slc.cpg/sg62_16_cif.got.tgz:30684.got - 2010.04.10 19:12:36.
