data_PCOD8253761
_publ_section_title
;
Structure prediction by ZEFSAII (Michael W. Deem and Ramdas Pophale) SiO2 
 PCOD8253761
Probable space group: P N M A
;
_chemical_formula_sum "Si O2"
_cell_formula_units_Z 64
_cell_length_a 12.675503
_cell_length_b 9.059628
_cell_length_c 27.588115
_cell_angle_alpha 90.000000
_cell_angle_beta 90.000000
_cell_angle_gamma 90.000000
_cell_volume 3168.090618
_symmetry_space_group_name_H-M "P N M A"
_symmetry_group_IT_number 62
_symmetry_cell_setting 'orthorhombic'
loop_
_space_group_symop_operation_xyz
x,y,z
1/2-x,-y,1/2+z
1/2+x,1/2-y,1/2-z
-x,1/2+y,-z
-x,-y,-z
1/2+x,y,1/2-z
1/2-x,1/2+y,1/2+z
x,1/2-y,z
loop_
_atom_site_type_symbol
_atom_site_label
_atom_site_fract_x
_atom_site_fract_y
_atom_site_fract_z
Si Si1 0.490723 0.074874 0.947202
Si Si2 0.254643 0.090432 0.937517
Si Si3 0.703806 0.076618 0.318494
Si Si4 0.866085 0.922230 0.713050
Si Si5 0.434235 0.421802 0.460052
Si Si6 0.938397 0.424358 0.351402
Si Si7 0.316856 0.592134 0.329915
Si Si8 0.025903 0.920904 0.130484
O O1 0.514567 0.250000 0.950782
O O2 0.373264 0.037247 0.929659
O O3 0.562416 0.003226 0.904452
O O4 0.500000 0.000000 0.000000
O O5 0.254114 0.250000 0.964715
O O6 0.197777 0.110958 0.886837
O O7 0.188012 0.970561 0.967433
O O8 0.684067 0.250000 0.326801
O O9 0.652097 0.022772 0.267781
O O10 0.828469 0.041137 0.323624
O O11 0.642316 0.978724 0.357403
O O12 0.880828 0.750000 0.712439
O O13 0.967812 0.987851 0.684017
O O14 0.755554 0.959830 0.687613
O O15 0.500000 0.500000 0.500000
O O16 0.441088 0.250000 0.467115
O O17 0.483098 0.468851 0.409606
O O18 0.951893 0.250000 0.360415
O O19 0.286493 0.750000 0.304808
O O20 0.442952 0.562093 0.324064
O O21 0.033282 0.750000 0.113455
#
# Coordination Sequence:
#
# PCOD8253761 Si02
#       8
#     8   8   8   8   8   8   8   8
#     4  11  23  40  63  90 122 164 210 259 314 375
#     4   9  19  37  57  82 117 153 197 253 307 360
#     4  10  23  40  60  89 126 167 206 253 314 370
#     4  10  21  36  61  90 119 157 204 252 302 365
#     4  11  22  37  61  89 118 156 200 249 306 368
#     4  10  22  41  61  90 129 164 208 264 312 369
#     4   9  18  35  58  83 113 148 191 247 303 354
#     4  10  22  40  59  85 121 156 198 251 304 364
#
# _framework density 20.201442
#
# number of rings (size 3 to 8) (size 9 to 14) (size 15 to 20)
#    0.000    2.000    1.250    2.625    1.750    5.500 
#    0.000    1.250    0.000    0.000    0.000    0.000 
#    0.000    0.000    0.000    0.000    0.000    0.000 
#
# Total GULP energy -792903.319141 kJ/mol
# GULP energy per Si atom -12389.114362 kJ/mol
# Density = 2.015546 g / cm^3
# Si number density = 20.201442 Si / 1000 Ang^3
#
#
#
# Elastic Constant Matrix: (Units=GPa)
#
#
# Indices 1 2 3 4 5 6 
#
# 1 112.9863 39.7103 31.2882 0.0000 0.0000 0.0000
# 2 39.7103 82.4171 32.2225 0.0000 0.0000 0.0000
# 3 31.2882 32.2225 73.8845 0.0000 0.0000 0.0000
# 4 0.0000 0.0000 0.0000 27.2372 0.0000 0.0000
# 5 0.0000 0.0000 0.0000 0.0000 27.8317 0.0000
# 6 0.0000 0.0000 0.0000 0.0000 0.0000 34.9755
#
#
#
# Elastic Compliance Matrix: (Units=1/GPa)
#
#
# Indices 1 2 3 4 5 6 
#
# 1 0.011136 -0.004246 -0.002864 0.000000 0.000000 0.000000
# 2 -0.004246 0.016246 -0.005287 0.000000 0.000000 0.000000
# 3 -0.002864 -0.005287 0.017053 0.000000 0.000000 0.000000
# 4 0.000000 0.000000 0.000000 0.036714 0.000000 0.000000
# 5 0.000000 0.000000 0.000000 0.000000 0.035930 0.000000
# 6 0.000000 0.000000 0.000000 0.000000 0.000000 0.028591
#
#
# Mechanical properties :
#
#
# Convention : Reuss Voigt Hill
#
# Bulk Modulus (GPa) = 50.91338 52.85887 51.88613
# Shear Modulus (GPa) = 28.24642 29.07999 28.66321
#
# Velocity S-wave (km/s) = 3.74336 3.79819 3.77087
# Velocity P-wave (km/s) = 6.62882 6.74223 6.68577
#
# Compressibility (1/GPa) = 0.01964120
#
# Stress axis : x y z
#
# Youngs Moduli (GPa) = 89.79889 61.55253 58.63911
#
# Poissons Ratio (x) = 0.26134 0.16795
# Poissons Ratio (y) = 0.38126 0.31005
# Poissons Ratio (z) = 0.25720 0.32545
#
# Static dielectric constant tensor:
#      x y z
#    x 3.964240 0.000000 0.000000 
#    y 0.000000 3.476620 0.000000 
#    z 0.000000 0.000000 3.497120 
# 
# 
# High freq. dielectric constant tensor:
#      x y z
#    x 1.799740 0.000000 0.000000 
#    y 0.000000 1.786820 0.000000 
#    z 0.000000 0.000000 1.769580 
# 
# From -- ./inp_files/32554.got.cif
#   From: 2010.03.12/outbox.cif.g09.slc.cpg/sg62_17_cif.got.tgz:32554.got - 2010.04.10 19:12:36.
