data_PCOD8253512
_publ_section_title
;
Structure prediction by ZEFSAII (Michael W. Deem and Ramdas Pophale) SiO2 
 PCOD8253512
Probable space group: P N M A
;
_chemical_formula_sum "Si O2"
_cell_formula_units_Z 48
_cell_length_a 13.972967
_cell_length_b 9.207853
_cell_length_c 17.908528
_cell_angle_alpha 90.000000
_cell_angle_beta 90.000000
_cell_angle_gamma 90.000000
_cell_volume 2304.129589
_symmetry_space_group_name_H-M "P N M A"
_symmetry_group_IT_number 62
_symmetry_cell_setting 'orthorhombic'
loop_
_space_group_symop_operation_xyz
x,y,z
1/2-x,-y,1/2+z
1/2+x,1/2-y,1/2-z
-x,1/2+y,-z
-x,-y,-z
1/2+x,y,1/2-z
1/2-x,1/2+y,1/2+z
x,1/2-y,z
loop_
_atom_site_type_symbol
_atom_site_label
_atom_site_fract_x
_atom_site_fract_y
_atom_site_fract_z
Si Si1 0.534615 0.089133 0.609436
Si Si2 0.361380 0.579597 0.850249
Si Si3 0.078626 0.584847 0.654861
Si Si4 0.329653 0.418351 0.003578
Si Si5 0.808799 0.577094 0.225090
Si Si6 0.625899 0.089156 0.447433
O O1 0.510307 0.250000 0.637778
O O2 0.615514 0.021645 0.662878
O O3 0.573597 0.090227 0.526295
O O4 0.435241 0.001177 0.612842
O O5 0.337205 0.750000 0.852654
O O6 0.469490 0.551171 0.822339
O O7 0.292312 0.498254 0.792256
O O8 0.351459 0.516427 0.932992
O O9 0.106411 0.750000 0.676155
O O10 0.087633 0.563325 0.565386
O O11 0.151341 0.475685 0.695490
O O12 0.317788 0.250000 0.977842
O O13 0.231637 0.475328 0.041866
O O14 0.795257 0.750000 0.224431
O O15 0.633164 0.250000 0.413698
#
# Coordination Sequence:
#
# PCOD8253512 Si02
#       6
#     8   8   8   8   8   8
#     4   9  18  33  52  80 114 149 192 238 288 347
#     4  11  23  40  64  91 121 159 203 250 306 367
#     4  10  24  42  61  90 124 158 201 255 308 361
#     4  10  20  39  63  88 122 159 201 251 302 360
#     4  11  23  41  63  87 121 164 206 251 306 366
#     4   9  17  31  54  83 113 148 187 238 295 344
#
# _framework density 20.832159999999998
#
# number of rings (size 3 to 8) (size 9 to 14) (size 15 to 20)
#    0.000    2.000    1.667    1.500    0.000    5.333 
#    0.000    5.000    0.000    0.000    0.000    0.000 
#    0.000    0.000    0.000    0.000    0.000    0.000 
#
# Total GULP energy -595227.678954 kJ/mol
# GULP energy per Si atom -12400.576645 kJ/mol
# Density = 2.078475 g / cm^3
# Si number density = 20.832160 Si / 1000 Ang^3
#
#
#
# Elastic Constant Matrix: (Units=GPa)
#
#
# Indices 1 2 3 4 5 6 
#
# 1 109.4849 55.2350 34.0403 0.0000 0.0000 0.0000
# 2 55.2350 98.6261 41.1362 0.0000 0.0000 0.0000
# 3 34.0403 41.1362 58.6960 0.0000 0.0000 0.0000
# 4 0.0000 0.0000 0.0000 31.7813 0.0000 0.0000
# 5 0.0000 0.0000 0.0000 0.0000 26.6403 0.0000
# 6 0.0000 0.0000 0.0000 0.0000 0.0000 31.8871
#
#
#
# Elastic Compliance Matrix: (Units=1/GPa)
#
#
# Indices 1 2 3 4 5 6 
#
# 1 0.013221 -0.005944 -0.003502 0.000000 0.000000 0.000000
# 2 -0.005944 0.017000 -0.008467 0.000000 0.000000 0.000000
# 3 -0.003502 -0.008467 0.025002 0.000000 0.000000 0.000000
# 4 0.000000 0.000000 0.000000 0.031465 0.000000 0.000000
# 5 0.000000 0.000000 0.000000 0.000000 0.037537 0.000000
# 6 0.000000 0.000000 0.000000 0.000000 0.000000 0.031361
#
#
# Mechanical properties :
#
#
# Convention : Reuss Voigt Hill
#
# Bulk Modulus (GPa) = 51.55344 58.62556 55.08950
# Shear Modulus (GPa) = 25.26840 27.15479 26.21159
#
# Velocity S-wave (km/s) = 3.48652 3.61432 3.55100
# Velocity P-wave (km/s) = 6.40379 6.75431 6.58139
#
# Compressibility (1/GPa) = 0.01939735
#
# Stress axis : x y z
#
# Youngs Moduli (GPa) = 75.63665 58.82514 39.99742
#
# Poissons Ratio (x) = 0.34965 0.14007
# Poissons Ratio (y) = 0.44957 0.33865
# Poissons Ratio (z) = 0.26487 0.49806
#
# Static dielectric constant tensor:
#      x y z
#    x 3.957240 0.000000 0.000000 
#    y 0.000000 3.840360 0.000000 
#    z 0.000000 0.000000 3.494920 
# 
# 
# High freq. dielectric constant tensor:
#      x y z
#    x 1.826640 0.000000 0.000000 
#    y 0.000000 1.807910 0.000000 
#    z 0.000000 0.000000 1.801130 
# 
# From -- ./inp_files/23702.got.cif
#   From: 2010.03.12/outbox.cif.g09.slc.cpg/sg62_12_cif.got.tgz:23702.got - 2010.04.10 19:12:36.
