data_PCOD8253678
_publ_section_title
;
Structure prediction by ZEFSAII (Michael W. Deem and Ramdas Pophale) SiO2 
 PCOD8253678
Probable space group: P N M A
;
_chemical_formula_sum "Si O2"
_cell_formula_units_Z 64
_cell_length_a 11.622888
_cell_length_b 9.232063
_cell_length_c 32.721234
_cell_angle_alpha 90.000000
_cell_angle_beta 90.000000
_cell_angle_gamma 90.000000
_cell_volume 3511.094237
_symmetry_space_group_name_H-M "P N M A"
_symmetry_group_IT_number 62
_symmetry_cell_setting 'orthorhombic'
loop_
_space_group_symop_operation_xyz
x,y,z
1/2-x,-y,1/2+z
1/2+x,1/2-y,1/2-z
-x,1/2+y,-z
-x,-y,-z
1/2+x,y,1/2-z
1/2-x,1/2+y,1/2+z
x,1/2-y,z
loop_
_atom_site_type_symbol
_atom_site_label
_atom_site_fract_x
_atom_site_fract_y
_atom_site_fract_z
Si Si1 0.890183 0.419949 0.280900
Si Si2 0.829958 0.583484 0.404084
Si Si3 0.302286 0.084263 0.677798
Si Si4 0.521941 0.082267 0.136488
Si Si5 0.940457 0.580154 0.199326
Si Si6 0.215443 0.579080 0.864395
Si Si7 0.643603 0.580892 0.465647
Si Si8 0.920842 0.081192 0.055240
O O1 0.881910 0.250000 0.271209
O O2 0.762593 0.479852 0.290264
O O3 0.973652 0.454477 0.318773
O O4 0.943922 0.504893 0.243191
O O5 0.865801 0.750000 0.405465
O O6 0.740923 0.551040 0.367645
O O7 0.947533 0.495535 0.398570
O O8 0.765701 0.535303 0.445810
O O9 0.277238 0.250000 0.690589
O O10 0.437233 0.050498 0.678225
O O11 0.512790 0.250000 0.126598
O O12 0.652589 0.028736 0.133836
O O13 0.914688 0.750000 0.204188
O O14 0.842162 0.507785 0.172241
O O15 0.204103 0.750000 0.855690
O O16 0.158531 0.533701 0.907193
O O17 0.621768 0.750000 0.458527
O O18 0.541301 0.500792 0.442030
O O19 0.646027 0.539561 0.513470
O O20 0.948935 0.250000 0.056593
#
# Coordination Sequence:
#
# PCOD8253678 Si02
#       8
#     8   8   8   8   8   8   8   8
#     4  10  21  36  54  75 100 133 174 216 261 313
#     4   9  17  32  54  76 101 136 176 216 260 310
#     4   9  19  35  52  74 102 131 168 215 261 308
#     4   9  20  37  54  73 102 139 176 217 261 309
#     4  11  23  36  54  79 104 133 171 217 267 316
#     4  10  21  37  54  76 107 142 178 214 262 319
#     4   9  17  31  53  80 110 140 174 219 267 312
#     4   9  18  32  52  79 110 143 176 216 264 315
#
# _framework density 18.227934999999999
#
# number of rings (size 3 to 8) (size 9 to 14) (size 15 to 20)
#    0.000    2.500    0.000    1.500    1.750    4.000 
#    0.000    3.125    0.000    0.000    0.000    0.000 
#    0.000    0.000    0.000    0.000    0.000    0.000 
#
# Total GULP energy -793740.674431 kJ/mol
# GULP energy per Si atom -12402.198038 kJ/mol
# Density = 1.818645 g / cm^3
# Si number density = 18.227935 Si / 1000 Ang^3
#
#
#
# Elastic Constant Matrix: (Units=GPa)
#
#
# Indices 1 2 3 4 5 6 
#
# 1 109.7571 38.2581 38.5938 0.0000 0.0000 0.0000
# 2 38.2581 54.5587 30.8095 0.0000 0.0000 0.0000
# 3 38.5938 30.8095 70.2704 0.0000 0.0000 0.0000
# 4 0.0000 0.0000 0.0000 24.3226 0.0000 0.0000
# 5 0.0000 0.0000 0.0000 0.0000 24.5343 0.0000
# 6 0.0000 0.0000 0.0000 0.0000 0.0000 31.7565
#
#
#
# Elastic Compliance Matrix: (Units=1/GPa)
#
#
# Indices 1 2 3 4 5 6 
#
# 1 0.012908 -0.006709 -0.004148 0.000000 0.000000 0.000000
# 2 -0.006709 0.027848 -0.008525 0.000000 0.000000 0.000000
# 3 -0.004148 -0.008525 0.020246 0.000000 0.000000 0.000000
# 4 0.000000 0.000000 0.000000 0.041114 0.000000 0.000000
# 5 0.000000 0.000000 0.000000 0.000000 0.040759 0.000000
# 6 0.000000 0.000000 0.000000 0.000000 0.000000 0.031490
#
#
# Mechanical properties :
#
#
# Convention : Reuss Voigt Hill
#
# Bulk Modulus (GPa) = 44.96689 49.98989 47.47839
# Shear Modulus (GPa) = 22.67150 24.58434 23.62792
#
# Velocity S-wave (km/s) = 3.53055 3.67647 3.60425
# Velocity P-wave (km/s) = 6.42981 6.74584 6.58972
#
# Compressibility (1/GPa) = 0.02223859
#
# Stress axis : x y z
#
# Youngs Moduli (GPa) = 77.47031 35.90981 49.39168
#
# Poissons Ratio (x) = 0.24093 0.20486
# Poissons Ratio (y) = 0.51977 0.42105
# Poissons Ratio (z) = 0.32133 0.30612
#
# Static dielectric constant tensor:
#      x y z
#    x 3.392880 0.000000 0.000000 
#    y 0.000000 3.354980 0.000000 
#    z 0.000000 0.000000 3.428890 
# 
# 
# High freq. dielectric constant tensor:
#      x y z
#    x 1.704080 0.000000 0.000000 
#    y 0.000000 1.705240 0.000000 
#    z 0.000000 0.000000 1.704760 
# 
# From -- ./inp_files/32537.got.cif
#   From: 2010.03.12/outbox.cif.g09.slc.cpg/sg62_17_cif.got.tgz:32537.got - 2010.04.10 19:12:36.
