data_PCOD8253091
_publ_section_title
;
Structure prediction by ZEFSAII (Michael W. Deem and Ramdas Pophale) SiO2 
 PCOD8253091
Probable space group: P N M A
;
_chemical_formula_sum "Si O2"
_cell_formula_units_Z 56
_cell_length_a 21.808214
_cell_length_b 9.149853
_cell_length_c 14.617156
_cell_angle_alpha 90.000000
_cell_angle_beta 90.000000
_cell_angle_gamma 90.000000
_cell_volume 2916.735845
_symmetry_space_group_name_H-M "P N M A"
_symmetry_group_IT_number 62
_symmetry_cell_setting 'orthorhombic'
loop_
_space_group_symop_operation_xyz
x,y,z
1/2-x,-y,1/2+z
1/2+x,1/2-y,1/2-z
-x,1/2+y,-z
-x,-y,-z
1/2+x,y,1/2-z
1/2-x,1/2+y,1/2+z
x,1/2-y,z
loop_
_atom_site_type_symbol
_atom_site_label
_atom_site_fract_x
_atom_site_fract_y
_atom_site_fract_z
Si Si1 0.898980 0.578622 0.125383
Si Si2 0.755662 0.577891 0.887409
Si Si3 0.958306 0.922158 0.574000
Si Si4 0.780597 0.417061 0.184548
Si Si5 0.820361 0.916981 0.537170
Si Si6 0.608788 0.421538 0.418851
Si Si7 0.007845 0.076556 0.221519
O O1 0.902837 0.750000 0.145223
O O2 0.830156 0.525507 0.142390
O O3 0.943848 0.494778 0.193351
O O4 0.915948 0.542248 0.020236
O O5 0.757461 0.750000 0.902415
O O6 0.733117 0.534609 0.787314
O O7 0.823469 0.510039 0.904285
O O8 0.706959 0.513490 0.957022
O O9 0.966189 0.750000 0.562895
O O10 0.888650 0.971828 0.558210
O O11 0.977937 0.971873 0.675355
O O12 0.000000 0.000000 0.500000
O O13 0.804506 0.250000 0.179399
O O14 0.717570 0.435538 0.130021
O O15 0.820245 0.750000 0.503826
O O16 0.614162 0.250000 0.402444
O O17 0.561247 0.486151 0.344827
O O18 0.001806 0.250000 0.211910
#
# Coordination Sequence:
#
# PCOD8253091 Si02
#       7
#     8   8   8   8   8   8   8
#     4  11  22  36  57  87 120 149 186 241 295 337
#     4  10  20  36  60  86 113 150 192 232 281 343
#     4  10  23  41  61  84 114 153 197 241 286 338
#     4  10  21  37  59  85 116 154 195 233 281 348
#     4  10  21  39  60  86 116 150 190 239 288 335
#     4   9  18  36  60  86 114 149 190 234 284 341
#     4  10  21  39  61  82 111 155 199 235 281 345
#
# _framework density 19.199546000000002
#
# number of rings (size 3 to 8) (size 9 to 14) (size 15 to 20)
#    0.000    2.000    1.429    1.714    2.000    5.143 
#    0.000    1.429    0.000    3.429    0.000    0.000 
#    0.000    0.000    0.000    0.000    0.000    0.000 
#
# Total GULP energy -694584.046518 kJ/mol
# GULP energy per Si atom -12403.286545 kJ/mol
# Density = 1.915585 g / cm^3
# Si number density = 19.199546 Si / 1000 Ang^3
#
#
#
# Elastic Constant Matrix: (Units=GPa)
#
#
# Indices 1 2 3 4 5 6 
#
# 1 122.4884 25.2413 50.0773 0.0000 0.0000 0.0000
# 2 25.2413 30.0060 35.5437 0.0000 0.0000 0.0000
# 3 50.0773 35.5437 131.9911 0.0000 0.0000 0.0000
# 4 0.0000 0.0000 0.0000 29.0854 0.0000 0.0000
# 5 0.0000 0.0000 0.0000 0.0000 34.0474 0.0000
# 6 0.0000 0.0000 0.0000 0.0000 0.0000 26.1079
#
#
#
# Elastic Compliance Matrix: (Units=1/GPa)
#
#
# Indices 1 2 3 4 5 6 
#
# 1 0.010339 -0.005948 -0.002321 0.000000 0.000000 0.000000
# 2 -0.005948 0.052359 -0.011843 0.000000 0.000000 0.000000
# 3 -0.002321 -0.011843 0.011646 0.000000 0.000000 0.000000
# 4 0.000000 0.000000 0.000000 0.034382 0.000000 0.000000
# 5 0.000000 0.000000 0.000000 0.000000 0.029371 0.000000
# 6 0.000000 0.000000 0.000000 0.000000 0.000000 0.038303
#
#
# Mechanical properties :
#
#
# Convention : Reuss Voigt Hill
#
# Bulk Modulus (GPa) = 29.30829 56.24555 42.77692
# Shear Modulus (GPa) = 21.93034 29.42300 25.67667
#
# Velocity S-wave (km/s) = 3.38336 3.91894 3.66096
# Velocity P-wave (km/s) = 5.52821 7.05949 6.34024
#
# Compressibility (1/GPa) = 0.03412004
#
# Stress axis : x y z
#
# Youngs Moduli (GPa) = 96.72577 19.09902 85.86680
#
# Poissons Ratio (x) = 0.11360 0.19927
# Poissons Ratio (y) = 0.57531 1.01692
# Poissons Ratio (z) = 0.22448 0.22619
#
# Static dielectric constant tensor:
#      x y z
#    x 3.622800 0.000000 0.000000 
#    y 0.000000 3.266750 0.000000 
#    z 0.000000 0.000000 3.673490 
# 
# 
# High freq. dielectric constant tensor:
#      x y z
#    x 1.759160 0.000000 0.000000 
#    y 0.000000 1.722170 0.000000 
#    z 0.000000 0.000000 1.761430 
# 
# From -- ./inp_files/20207.got.cif
#   From: 2010.03.12/outbox.cif.g09.slc.cpg/sg62_11_cif.got.tgz:20207.got - 2010.04.10 19:12:36.
