data_PCOD8253221
_publ_section_title
;
Structure prediction by ZEFSAII (Michael W. Deem and Ramdas Pophale) SiO2 
 PCOD8253221
Probable space group: P N M A
;
_chemical_formula_sum "Si O2"
_cell_formula_units_Z 48
_cell_length_a 15.068007
_cell_length_b 8.594203
_cell_length_c 18.640705
_cell_angle_alpha 90.000000
_cell_angle_beta 90.000000
_cell_angle_gamma 90.000000
_cell_volume 2413.924900
_symmetry_space_group_name_H-M "P N M A"
_symmetry_group_IT_number 62
_symmetry_cell_setting 'orthorhombic'
loop_
_space_group_symop_operation_xyz
x,y,z
1/2-x,-y,1/2+z
1/2+x,1/2-y,1/2-z
-x,1/2+y,-z
-x,-y,-z
1/2+x,y,1/2-z
1/2-x,1/2+y,1/2+z
x,1/2-y,z
loop_
_atom_site_type_symbol
_atom_site_label
_atom_site_fract_x
_atom_site_fract_y
_atom_site_fract_z
Si Si1 0.403598 0.931588 0.153330
Si Si2 0.244863 0.431966 0.919939
Si Si3 0.593974 0.431656 0.157068
Si Si4 0.738262 0.071411 0.415112
Si Si5 0.602552 0.567384 0.307588
Si Si6 0.094224 0.067777 0.816276
O O1 0.390941 0.750000 0.138050
O O2 0.377715 0.973684 0.235190
O O3 0.504549 0.976946 0.137411
O O4 0.339808 0.028271 0.101398
O O5 0.261069 0.250000 0.903884
O O6 0.333982 0.525763 0.902796
O O7 0.165113 0.503928 0.871659
O O8 0.218576 0.460938 0.001919
O O9 0.573557 0.250000 0.155869
O O10 0.631822 0.481905 0.234654
O O11 0.720968 0.250000 0.395174
O O12 0.672436 0.964289 0.369777
O O13 0.599093 0.750000 0.290496
O O14 0.505285 0.504455 0.331421
O O15 0.093200 0.250000 0.828803
#
# Coordination Sequence:
#
# PCOD8253221 Si02
#       6
#     8   8   8   8   8   8
#     4  10  20  37  61  83 108 147 191 233 283 343
#     4  10  21  38  57  80 115 153 188 229 282 342
#     4  11  22  37  59  86 113 141 185 241 288 335
#     4  11  23  36  54  84 118 150 186 233 284 333
#     4  10  20  37  60  83 111 149 191 231 278 338
#     4   8  17  35  59  82 103 140 189 229 269 325
#
# _framework density 19.884627999999999
#
# number of rings (size 3 to 8) (size 9 to 14) (size 15 to 20)
#    0.000    2.000    0.000    5.000    0.000    4.000 
#    0.000    4.167    0.000    0.000    0.000    0.000 
#    0.000    0.000    0.000    0.000    0.000    0.000 
#
# Total GULP energy -595365.253247 kJ/mol
# GULP energy per Si atom -12403.442776 kJ/mol
# Density = 1.983937 g / cm^3
# Si number density = 19.884628 Si / 1000 Ang^3
#
#
#
# Elastic Constant Matrix: (Units=GPa)
#
#
# Indices 1 2 3 4 5 6 
#
# 1 72.5625 13.2041 21.4601 0.0000 0.0000 0.0000
# 2 13.2041 51.1063 22.9879 0.0000 0.0000 0.0000
# 3 21.4601 22.9879 50.5401 0.0000 0.0000 0.0000
# 4 0.0000 0.0000 0.0000 25.3092 0.0000 0.0000
# 5 0.0000 0.0000 0.0000 0.0000 20.5544 0.0000
# 6 0.0000 0.0000 0.0000 0.0000 0.0000 27.8466
#
#
#
# Elastic Compliance Matrix: (Units=1/GPa)
#
#
# Indices 1 2 3 4 5 6 
#
# 1 0.015833 -0.001341 -0.006113 0.000000 0.000000 0.000000
# 2 -0.001341 0.024714 -0.010671 0.000000 0.000000 0.000000
# 3 -0.006113 -0.010671 0.027236 0.000000 0.000000 0.000000
# 4 0.000000 0.000000 0.000000 0.039511 0.000000 0.000000
# 5 0.000000 0.000000 0.000000 0.000000 0.048651 0.000000
# 6 0.000000 0.000000 0.000000 0.000000 0.000000 0.035911
#
#
# Mechanical properties :
#
#
# Convention : Reuss Voigt Hill
#
# Bulk Modulus (GPa) = 31.71431 32.16815 31.94123
# Shear Modulus (GPa) = 20.95399 22.51248 21.73324
#
# Velocity S-wave (km/s) = 3.24972 3.36840 3.30959
# Velocity P-wave (km/s) = 5.48313 5.59828 5.54100
#
# Compressibility (1/GPa) = 0.03153151
#
# Stress axis : x y z
#
# Youngs Moduli (GPa) = 63.15862 40.46350 36.71639
#
# Poissons Ratio (x) = 0.05426 0.22445
# Poissons Ratio (y) = 0.08470 0.39182
# Poissons Ratio (z) = 0.38609 0.43180
#
# Static dielectric constant tensor:
#      x y z
#    x 3.798260 0.000000 0.000000 
#    y 0.000000 3.452500 0.000000 
#    z 0.000000 0.000000 3.569490 
# 
# 
# High freq. dielectric constant tensor:
#      x y z
#    x 1.786280 0.000000 0.000000 
#    y 0.000000 1.763610 0.000000 
#    z 0.000000 0.000000 1.768090 
# 
# From -- ./inp_files/23644.got.cif
#   From: 2010.03.12/outbox.cif.g09.slc.cpg/sg62_12_cif.got.tgz:23644.got - 2010.04.10 19:12:36.
