data_PCOD8253342
_publ_section_title
;
Structure prediction by ZEFSAII (Michael W. Deem and Ramdas Pophale) SiO2 
 PCOD8253342
Probable space group: P N M A
;
_chemical_formula_sum "Si O2"
_cell_formula_units_Z 64
_cell_length_a 21.697913
_cell_length_b 18.517969
_cell_length_c 8.035619
_cell_angle_alpha 90.000000
_cell_angle_beta 90.000000
_cell_angle_gamma 90.000000
_cell_volume 3228.722002
_symmetry_space_group_name_H-M "P N M A"
_symmetry_group_IT_number 62
_symmetry_cell_setting 'orthorhombic'
loop_
_space_group_symop_operation_xyz
x,y,z
1/2-x,-y,1/2+z
1/2+x,1/2-y,1/2-z
-x,1/2+y,-z
-x,-y,-z
1/2+x,y,1/2-z
1/2-x,1/2+y,1/2+z
x,1/2-y,z
loop_
_atom_site_type_symbol
_atom_site_label
_atom_site_fract_x
_atom_site_fract_y
_atom_site_fract_z
Si Si1 0.676418 0.668356 0.905714
Si Si2 0.941982 0.423668 0.332789
Si Si3 0.739279 0.418078 0.619702
Si Si4 0.542867 0.565352 0.459527
Si Si5 0.179857 0.534347 0.109227
Si Si6 0.970474 0.589672 0.358785
Si Si7 0.764302 0.170209 0.062696
Si Si8 0.153178 0.168664 0.646915
O O1 0.650199 0.750000 0.923005
O O2 0.622074 0.610246 0.892210
O O3 0.724158 0.660119 0.755806
O O4 0.719378 0.649020 0.060329
O O5 0.939640 0.510727 0.335732
O O6 0.993389 0.400909 0.466706
O O7 0.951551 0.394131 0.140612
O O8 0.787298 0.471347 0.712395
O O9 0.705923 0.465439 0.483396
O O10 0.684147 0.386724 0.727206
O O11 0.500000 0.500000 0.500000
O O12 0.606195 0.532406 0.387370
O O13 0.512363 0.609679 0.304681
O O14 0.196165 0.612383 0.036311
O O15 0.917392 0.648230 0.378096
O O16 0.786891 0.250000 0.004461
O O17 0.691079 0.162278 0.026703
O O18 0.155721 0.250000 0.717249
#
# Coordination Sequence:
#
# PCOD8253342 Si02
#       8
#     8   8   8   8   8   8   8   8
#     4  11  22  39  61  90 125 159 208 259 315 383
#     4  10  21  39  63  88 125 161 208 261 314 360
#     4  11  23  36  61  94 123 162 206 260 315 380
#     4  10  20  38  59  88 122 159 203 261 307 363
#     4  11  21  37  61  90 122 160 207 255 312 377
#     4  10  22  40  61  90 120 167 211 259 307 375
#     4   9  20  37  59  86 121 159 194 252 317 371
#     4  10  22  42  61  86 128 166 203 257 319 377
#
# _framework density 19.822084
#
# number of rings (size 3 to 8) (size 9 to 14) (size 15 to 20)
#    0.000    1.750    1.250    3.375    3.500    1.000 
#    9.000    1.250    0.000    0.000    0.000    0.000 
#    0.000    0.000    0.000    0.000    0.000    0.000 
#
# Total GULP energy -793005.098324 kJ/mol
# GULP energy per Si atom -12390.704661 kJ/mol
# Density = 1.977697 g / cm^3
# Si number density = 19.822084 Si / 1000 Ang^3
#
#
#
# Elastic Constant Matrix: (Units=GPa)
#
#
# Indices 1 2 3 4 5 6 
#
# 1 125.5214 37.1181 37.1856 0.0000 0.0000 0.0000
# 2 37.1181 66.4487 21.3721 0.0000 0.0000 0.0000
# 3 37.1856 21.3721 64.3375 0.0000 0.0000 0.0000
# 4 0.0000 0.0000 0.0000 23.4758 0.0000 0.0000
# 5 0.0000 0.0000 0.0000 0.0000 26.1249 0.0000
# 6 0.0000 0.0000 0.0000 0.0000 0.0000 28.8344
#
#
#
# Elastic Compliance Matrix: (Units=1/GPa)
#
#
# Indices 1 2 3 4 5 6 
#
# 1 0.010673 -0.004454 -0.004689 0.000000 0.000000 0.000000
# 2 -0.004454 0.018708 -0.003640 0.000000 0.000000 0.000000
# 3 -0.004689 -0.003640 0.019463 0.000000 0.000000 0.000000
# 4 0.000000 0.000000 0.000000 0.042597 0.000000 0.000000
# 5 0.000000 0.000000 0.000000 0.000000 0.038278 0.000000
# 6 0.000000 0.000000 0.000000 0.000000 0.000000 0.034681
#
#
# Mechanical properties :
#
#
# Convention : Reuss Voigt Hill
#
# Bulk Modulus (GPa) = 42.96128 49.73991 46.35060
# Shear Modulus (GPa) = 25.28769 26.39580 25.84174
#
# Velocity S-wave (km/s) = 3.57562 3.65312 3.61457
# Velocity P-wave (km/s) = 6.22633 6.55296 6.39173
#
# Compressibility (1/GPa) = 0.02327677
#
# Stress axis : x y z
#
# Youngs Moduli (GPa) = 93.69475 53.45341 51.38052
#
# Poissons Ratio (x) = 0.23806 0.24094
# Poissons Ratio (y) = 0.41729 0.18705
# Poissons Ratio (z) = 0.43936 0.19459
#
# Static dielectric constant tensor:
#      x y z
#    x 3.798190 0.000000 0.000000 
#    y 0.000000 3.505550 0.000000 
#    z 0.000000 0.000000 4.744910 
# 
# 
# High freq. dielectric constant tensor:
#      x y z
#    x 1.777640 0.000000 0.000000 
#    y 0.000000 1.758140 0.000000 
#    z 0.000000 0.000000 1.780650 
# 
# From -- ./inp_files/8093.got.cif
#   From: 2010.03.12/outbox.cif.g09.slc.cpg/sg62_5_cif.got.tgz:8093.got - 2010.04.10 19:12:36.
