data_PCOD8253713
_publ_section_title
;
Structure prediction by ZEFSAII (Michael W. Deem and Ramdas Pophale) SiO2 
 PCOD8253713
Probable space group: P N M A
;
_chemical_formula_sum "Si O2"
_cell_formula_units_Z 48
_cell_length_a 11.893993
_cell_length_b 8.467127
_cell_length_c 23.769198
_cell_angle_alpha 90.000000
_cell_angle_beta 90.000000
_cell_angle_gamma 90.000000
_cell_volume 2393.747186
_symmetry_space_group_name_H-M "P N M A"
_symmetry_group_IT_number 62
_symmetry_cell_setting 'orthorhombic'
loop_
_space_group_symop_operation_xyz
x,y,z
1/2-x,-y,1/2+z
1/2+x,1/2-y,1/2-z
-x,1/2+y,-z
-x,-y,-z
1/2+x,y,1/2-z
1/2-x,1/2+y,1/2+z
x,1/2-y,z
loop_
_atom_site_type_symbol
_atom_site_label
_atom_site_fract_x
_atom_site_fract_y
_atom_site_fract_z
Si Si1 0.973206 0.068598 0.559045
Si Si2 0.980673 0.436188 0.063286
Si Si3 0.100358 0.930937 0.654928
Si Si4 0.612281 0.437753 0.217159
Si Si5 0.743031 0.069061 0.618681
Si Si6 0.653075 0.438039 0.342919
O O1 0.011477 0.250000 0.566204
O O2 0.842593 0.049647 0.573761
O O3 0.000000 0.000000 0.500000
O O4 0.049340 0.949741 0.593980
O O5 0.990400 0.250000 0.058928
O O6 0.075851 0.504594 0.106257
O O7 0.861321 0.477440 0.091313
O O8 0.000000 0.500000 0.000000
O O9 0.117431 0.750000 0.672050
O O10 0.222083 0.013129 0.654209
O O11 0.007956 0.007773 0.696760
O O12 0.618323 0.250000 0.210415
O O13 0.716256 0.504434 0.179810
O O14 0.612159 0.492475 0.281585
O O15 0.707728 0.250000 0.626718
O O16 0.654931 0.250000 0.347857
#
# Coordination Sequence:
#
# PCOD8253713 Si02
#       6
#     8   8   8   8   8   8
#     4  10  21  36  57  82 111 145 189 238 288 342
#     4  11  24  41  61  87 122 162 207 250 298 360
#     4   9  18  34  56  84 115 145 184 232 287 345
#     4   9  18  35  62  90 113 146 193 238 292 354
#     4  10  22  40  59  84 119 155 192 241 296 353
#     4   9  20  36  60  89 116 150 191 241 292 349
#
# _framework density 20.052240999999999
#
# number of rings (size 3 to 8) (size 9 to 14) (size 15 to 20)
#    0.000    2.333    0.000    1.500    4.667    2.000 
#    0.000    3.333    0.000    0.000    0.000    0.000 
#    0.000    0.000    0.000    0.000    0.000    0.000 
#
# Total GULP energy -594706.607857 kJ/mol
# GULP energy per Si atom -12389.720997 kJ/mol
# Density = 2.000660 g / cm^3
# Si number density = 20.052241 Si / 1000 Ang^3
#
#
#
# Elastic Constant Matrix: (Units=GPa)
#
#
# Indices 1 2 3 4 5 6 
#
# 1 151.1231 23.2858 89.8108 0.0000 0.0000 0.0000
# 2 23.2858 38.4618 17.3971 0.0000 0.0000 0.0000
# 3 89.8108 17.3971 171.4824 0.0000 0.0000 0.0000
# 4 0.0000 0.0000 0.0000 25.8966 0.0000 0.0000
# 5 0.0000 0.0000 0.0000 0.0000 18.7997 0.0000
# 6 0.0000 0.0000 0.0000 0.0000 0.0000 23.3470
#
#
#
# Elastic Compliance Matrix: (Units=1/GPa)
#
#
# Indices 1 2 3 4 5 6 
#
# 1 0.010141 -0.003917 -0.004914 0.000000 0.000000 0.000000
# 2 -0.003917 0.028763 -0.000867 0.000000 0.000000 0.000000
# 3 -0.004914 -0.000867 0.008493 0.000000 0.000000 0.000000
# 4 0.000000 0.000000 0.000000 0.038615 0.000000 0.000000
# 5 0.000000 0.000000 0.000000 0.000000 0.053192 0.000000
# 6 0.000000 0.000000 0.000000 0.000000 0.000000 0.042832
#
#
# Mechanical properties :
#
#
# Convention : Reuss Voigt Hill
#
# Bulk Modulus (GPa) = 35.71125 69.11719 52.41422
# Shear Modulus (GPa) = 23.72310 28.98024 26.35167
#
# Velocity S-wave (km/s) = 3.44330 3.80575 3.62905
# Velocity P-wave (km/s) = 5.80140 7.33860 6.61480
#
# Compressibility (1/GPa) = 0.02800238
#
# Stress axis : x y z
#
# Youngs Moduli (GPa) = 98.61138 34.76661 117.74570
#
# Poissons Ratio (x) = 0.13618 0.57857
# Poissons Ratio (y) = 0.38626 0.10204
# Poissons Ratio (z) = 0.48455 0.03013
#
# Static dielectric constant tensor:
#      x y z
#    x 4.319130 0.000000 0.000000 
#    y 0.000000 3.462700 0.000000 
#    z 0.000000 0.000000 3.627570 
# 
# 
# High freq. dielectric constant tensor:
#      x y z
#    x 1.793370 0.000000 0.000000 
#    y 0.000000 1.758580 0.000000 
#    z 0.000000 0.000000 1.792880 
# 
# From -- ./inp_files/29236.got.cif
#   From: 2010.03.12/outbox.cif.g09.slc.cpg/sg62_15_cif.got.tgz:29236.got - 2010.04.10 19:12:36.
