data_PCOD8253788
_publ_section_title
;
Structure prediction by ZEFSAII (Michael W. Deem and Ramdas Pophale) SiO2 
 PCOD8253788
Probable space group: P N M A
;
_chemical_formula_sum "Si O2"
_cell_formula_units_Z 64
_cell_length_a 9.877067
_cell_length_b 16.253991
_cell_length_c 20.703667
_cell_angle_alpha 90.000000
_cell_angle_beta 90.000000
_cell_angle_gamma 90.000000
_cell_volume 3323.803100
_symmetry_space_group_name_H-M "P N M A"
_symmetry_group_IT_number 62
_symmetry_cell_setting 'orthorhombic'
loop_
_space_group_symop_operation_xyz
x,y,z
1/2-x,-y,1/2+z
1/2+x,1/2-y,1/2-z
-x,1/2+y,-z
-x,-y,-z
1/2+x,y,1/2-z
1/2-x,1/2+y,1/2+z
x,1/2-y,z
loop_
_atom_site_type_symbol
_atom_site_label
_atom_site_fract_x
_atom_site_fract_y
_atom_site_fract_z
Si Si1 0.097223 0.100650 0.889751
Si Si2 0.461672 0.655176 0.106424
Si Si3 0.472218 0.657698 0.523366
Si Si4 0.764157 0.068670 0.419950
Si Si5 0.314091 0.344975 0.796448
Si Si6 0.224793 0.544975 0.958151
Si Si7 0.026737 0.152247 0.460230
Si Si8 0.296980 0.077608 0.659800
O O1 0.171294 0.150909 0.833479
O O2 0.942291 0.088057 0.871859
O O3 0.172070 0.013201 0.900494
O O4 0.106302 0.154217 0.955018
O O5 0.494423 0.750000 0.106164
O O6 0.567131 0.617253 0.158127
O O7 0.307004 0.640848 0.126469
O O8 0.491914 0.622186 0.034545
O O9 0.515624 0.750000 0.540427
O O10 0.369275 0.625242 0.577859
O O11 0.602868 0.601507 0.517744
O O12 0.895865 0.126722 0.418939
O O13 0.772766 0.006871 0.480316
O O14 0.757916 0.014840 0.354114
O O15 0.340258 0.250000 0.775379
O O16 0.305523 0.404813 0.735428
O O17 0.344630 0.603139 0.931530
O O18 0.051417 0.250000 0.454850
#
# Coordination Sequence:
#
# PCOD8253788 Si02
#       8
#     8   8   8   8   8   8   8   8
#     4  11  22  39  58  86 120 156 193 238 292 340
#     4  10  21  37  56  84 119 156 196 236 285 340
#     4  11  20  35  59  87 119 152 190 240 297 350
#     4  11  21  36  54  84 117 155 193 240 291 352
#     4  11  25  40  57  85 120 160 201 235 277 341
#     4  11  20  37  59  87 118 154 194 240 294 354
#     4  11  22  36  59  89 119 153 190 238 303 358
#     4  12  22  37  56  79 118 162 199 234 277 334
#
# _framework density 19.255053
#
# number of rings (size 3 to 8) (size 9 to 14) (size 15 to 20)
#    0.000    1.000    3.750    4.875    1.750    5.000 
#    0.000    0.000    0.000    0.000    0.000    5.250 
#    0.000    0.000    0.000    0.000    0.000    0.000 
#
# Total GULP energy -793691.657279 kJ/mol
# GULP energy per Si atom -12401.432145 kJ/mol
# Density = 1.921123 g / cm^3
# Si number density = 19.255053 Si / 1000 Ang^3
#
#
#
# Elastic Constant Matrix: (Units=GPa)
#
#
# Indices 1 2 3 4 5 6 
#
# 1 111.6930 30.1280 22.2683 0.0000 0.0000 0.0000
# 2 30.1280 79.2526 22.3405 0.0000 0.0000 0.0000
# 3 22.2683 22.3405 73.1878 0.0000 0.0000 0.0000
# 4 0.0000 0.0000 0.0000 25.1328 0.0000 0.0000
# 5 0.0000 0.0000 0.0000 0.0000 22.8394 0.0000
# 6 0.0000 0.0000 0.0000 0.0000 0.0000 34.6946
#
#
#
# Elastic Compliance Matrix: (Units=1/GPa)
#
#
# Indices 1 2 3 4 5 6 
#
# 1 0.010267 -0.003307 -0.002114 0.000000 0.000000 0.000000
# 2 -0.003307 0.014871 -0.003533 0.000000 0.000000 0.000000
# 3 -0.002114 -0.003533 0.015385 0.000000 0.000000 0.000000
# 4 0.000000 0.000000 0.000000 0.039789 0.000000 0.000000
# 5 0.000000 0.000000 0.000000 0.000000 0.043784 0.000000
# 6 0.000000 0.000000 0.000000 0.000000 0.000000 0.028823
#
#
# Mechanical properties :
#
#
# Convention : Reuss Voigt Hill
#
# Bulk Modulus (GPa) = 44.22016 45.95633 45.08824
# Shear Modulus (GPa) = 28.03235 29.15979 28.59607
#
# Velocity S-wave (km/s) = 3.81969 3.89575 3.85791
# Velocity P-wave (km/s) = 6.51680 6.64490 6.58117
#
# Compressibility (1/GPa) = 0.02261412
#
# Stress axis : x y z
#
# Youngs Moduli (GPa) = 97.40283 67.24510 64.99713
#
# Poissons Ratio (x) = 0.22237 0.13743
# Poissons Ratio (y) = 0.32210 0.22965
# Poissons Ratio (z) = 0.20594 0.23759
#
# Static dielectric constant tensor:
#      x y z
#    x 3.686170 0.000000 0.000000 
#    y 0.000000 3.606750 0.000000 
#    z 0.000000 0.000000 3.344880 
# 
# 
# High freq. dielectric constant tensor:
#      x y z
#    x 1.770880 0.000000 0.000000 
#    y 0.000000 1.744270 0.000000 
#    z 0.000000 0.000000 1.706060 
# 
# From -- ./inp_files/26203.got.cif
#   From: 2010.03.12/outbox.cif.g09.slc.cpg/sg62_14_cif.got.tgz:26203.got - 2010.04.10 19:12:36.
