data_PCOD8253853
_publ_section_title
;
Structure prediction by ZEFSAII (Michael W. Deem and Ramdas Pophale) SiO2 
 PCOD8253853
Probable space group: P N M A
;
_chemical_formula_sum "Si O2"
_cell_formula_units_Z 40
_cell_length_a 23.677486
_cell_length_b 12.572291
_cell_length_c 7.112631
_cell_angle_alpha 90.000000
_cell_angle_beta 90.000000
_cell_angle_gamma 90.000000
_cell_volume 2117.289733
_symmetry_space_group_name_H-M "P N M A"
_symmetry_group_IT_number 62
_symmetry_cell_setting 'orthorhombic'
loop_
_space_group_symop_operation_xyz
x,y,z
1/2-x,-y,1/2+z
1/2+x,1/2-y,1/2-z
-x,1/2+y,-z
-x,-y,-z
1/2+x,y,1/2-z
1/2-x,1/2+y,1/2+z
x,1/2-y,z
loop_
_atom_site_type_symbol
_atom_site_label
_atom_site_fract_x
_atom_site_fract_y
_atom_site_fract_z
Si Si1 0.361423 0.869815 0.671724
Si Si2 0.316380 0.022981 0.978809
Si Si3 0.435833 0.374581 0.004793
Si Si4 0.289606 0.870613 0.319118
Si Si5 0.519286 0.033131 0.294860
O O1 0.348162 0.750000 0.737937
O O2 0.342852 0.887031 0.456645
O O3 0.427844 0.888621 0.689389
O O4 0.326089 0.949313 0.799395
O O5 0.372123 0.086912 0.035507
O O6 0.296181 0.950482 0.148819
O O7 0.268076 0.107699 0.931637
O O8 0.437036 0.250000 0.966815
O O9 0.469245 0.402883 0.194262
O O10 0.464800 0.428469 0.823917
O O11 0.287876 0.750000 0.242846
O O12 0.500000 0.000000 0.500000
#
# Coordination Sequence:
#
# PCOD8253853 Si02
#       5
#     8   8   8   8   8
#     4  10  21  37  59  85 115 153 196 239 289 347
#     4  11  21  39  58  83 120 152 195 248 291 351
#     4  10  22  38  59  88 120 156 196 243 300 350
#     4  11  22  37  59  84 114 155 197 244 300 351
#     4  10  21  39  61  86 121 154 194 244 289 353
#
# _framework density 18.892075999999999
#
# number of rings (size 3 to 8) (size 9 to 14) (size 15 to 20)
#    0.000    1.600    2.000    3.000    0.000    1.600 
#    0.000    5.000    0.000    0.000    0.000    0.000 
#    0.000    0.000    0.000    0.000    0.000    0.000 
#
# Total GULP energy -496178.677146 kJ/mol
# GULP energy per Si atom -12404.466929 kJ/mol
# Density = 1.884908 g / cm^3
# Si number density = 18.892076 Si / 1000 Ang^3
#
#
#
# Elastic Constant Matrix: (Units=GPa)
#
#
# Indices 1 2 3 4 5 6 
#
# 1 87.2695 36.5874 34.2899 0.0000 0.0000 0.0000
# 2 36.5874 104.4316 29.8818 0.0000 0.0000 0.0000
# 3 34.2899 29.8818 92.4379 0.0000 0.0000 0.0000
# 4 0.0000 0.0000 0.0000 6.9505 0.0000 0.0000
# 5 0.0000 0.0000 0.0000 0.0000 31.4497 0.0000
# 6 0.0000 0.0000 0.0000 0.0000 0.0000 17.2101
#
#
#
# Elastic Compliance Matrix: (Units=1/GPa)
#
#
# Indices 1 2 3 4 5 6 
#
# 1 0.014774 -0.003976 -0.004195 0.000000 0.000000 0.000000
# 2 -0.003976 0.011621 -0.002282 0.000000 0.000000 0.000000
# 3 -0.004195 -0.002282 0.013112 0.000000 0.000000 0.000000
# 4 0.000000 0.000000 0.000000 0.143874 0.000000 0.000000
# 5 0.000000 0.000000 0.000000 0.000000 0.031797 0.000000
# 6 0.000000 0.000000 0.000000 0.000000 0.000000 0.058105
#
#
# Mechanical properties :
#
#
# Convention : Reuss Voigt Hill
#
# Bulk Modulus (GPa) = 53.75873 53.96192 53.86032
# Shear Modulus (GPa) = 16.64504 23.34740 19.99622
#
# Velocity S-wave (km/s) = 2.97148 3.51925 3.25690
# Velocity P-wave (km/s) = 6.34747 6.71854 6.53564
#
# Compressibility (1/GPa) = 0.01860163
#
# Stress axis : x y z
#
# Youngs Moduli (GPa) = 67.68698 86.04764 76.26600
#
# Poissons Ratio (x) = 0.34209 0.31995
# Poissons Ratio (y) = 0.26910 0.17404
# Poissons Ratio (z) = 0.28396 0.19636
#
# Static dielectric constant tensor:
#      x y z
#    x 3.808240 0.000000 0.000000 
#    y 0.000000 3.446320 0.000000 
#    z 0.000000 0.000000 3.464920 
# 
# 
# High freq. dielectric constant tensor:
#      x y z
#    x 1.748190 0.000000 0.000000 
#    y 0.000000 1.740190 0.000000 
#    z 0.000000 0.000000 1.735980 
# 
# From -- ./inp_files/3021.got.cif
#   From: 2010.03.12/outbox.cif.g09.slc.cpg/sg62_2_cif.got.tgz:3021.got - 2010.04.10 19:12:36.
