data_PCOD8253316
_publ_section_title
;
Structure prediction by ZEFSAII (Michael W. Deem and Ramdas Pophale) SiO2 
 PCOD8253316
Probable space group: P N M A
;
_chemical_formula_sum "Si O2"
_cell_formula_units_Z 64
_cell_length_a 15.497627
_cell_length_b 8.314096
_cell_length_c 24.271461
_cell_angle_alpha 90.000000
_cell_angle_beta 90.000000
_cell_angle_gamma 90.000000
_cell_volume 3127.347620
_symmetry_space_group_name_H-M "P N M A"
_symmetry_group_IT_number 62
_symmetry_cell_setting 'orthorhombic'
loop_
_space_group_symop_operation_xyz
x,y,z
1/2-x,-y,1/2+z
1/2+x,1/2-y,1/2-z
-x,1/2+y,-z
-x,-y,-z
1/2+x,y,1/2-z
1/2-x,1/2+y,1/2+z
x,1/2-y,z
loop_
_atom_site_type_symbol
_atom_site_label
_atom_site_fract_x
_atom_site_fract_y
_atom_site_fract_z
Si Si1 0.148435 0.433652 0.120144
Si Si2 0.094619 0.566812 0.007561
Si Si3 0.246131 0.057661 0.435996
Si Si4 0.828862 0.933731 0.378155
Si Si5 0.408231 0.940654 0.737500
Si Si6 0.902001 0.440700 0.269662
Si Si7 0.251146 0.940722 0.810128
Si Si8 0.595194 0.560390 0.988294
O O1 0.120046 0.250000 0.108567
O O2 0.119034 0.546575 0.070864
O O3 0.250857 0.441196 0.126259
O O4 0.107978 0.504278 0.175926
O O5 0.090508 0.750000 0.990672
O O6 0.169139 0.489918 0.968477
O O7 0.000000 0.500000 0.000000
O O8 0.239812 0.250000 0.440095
O O9 0.253034 0.996325 0.372904
O O10 0.159963 0.982420 0.462001
O O11 0.795944 0.750000 0.377698
O O12 0.889582 0.966617 0.326474
O O13 0.879070 0.964700 0.434024
O O14 0.399269 0.750000 0.737265
O O15 0.503361 0.997916 0.752294
O O16 0.336856 0.010678 0.780026
O O17 0.896567 0.250000 0.278827
O O18 0.833361 0.498004 0.223525
O O19 0.254432 0.750000 0.811011
O O20 0.596244 0.750000 0.977597
O O21 0.500000 0.500000 0.000000
#
# Coordination Sequence:
#
# PCOD8253316 Si02
#       8
#     8   8   8   8   8   8   8   8
#     4  11  21  39  66  92 120 159 209 261 312 369
#     4  11  24  40  61  91 127 167 212 262 315 372
#     4  10  22  40  63  91 127 166 210 259 311 370
#     4  12  24  41  63  91 126 162 205 257 311 370
#     4   9  19  34  60  93 118 151 203 252 301 366
#     4  10  20  37  63  91 119 159 206 251 301 360
#     4   9  18  35  58  88 122 158 202 249 297 361
#     4  12  26  44  67  93 124 163 208 259 313 374
#
# _framework density 20.464627
#
# number of rings (size 3 to 8) (size 9 to 14) (size 15 to 20)
#    0.000    1.500    2.500    3.000    3.500    0.500 
#    0.000    1.875    0.000    0.000    0.000    0.000 
#    0.000    0.000    0.000    0.000    0.000    0.000 
#
# Total GULP energy -793633.672552 kJ/mol
# GULP energy per Si atom -12400.526134 kJ/mol
# Density = 2.041805 g / cm^3
# Si number density = 20.464627 Si / 1000 Ang^3
#
#
#
# Elastic Constant Matrix: (Units=GPa)
#
#
# Indices 1 2 3 4 5 6 
#
# 1 150.2476 6.4828 47.2914 0.0000 0.0000 0.0000
# 2 6.4828 43.6228 4.3572 0.0000 0.0000 0.0000
# 3 47.2914 4.3572 139.1486 0.0000 0.0000 0.0000
# 4 0.0000 0.0000 0.0000 28.1013 0.0000 0.0000
# 5 0.0000 0.0000 0.0000 0.0000 35.5901 0.0000
# 6 0.0000 0.0000 0.0000 0.0000 0.0000 23.4137
#
#
#
# Elastic Compliance Matrix: (Units=1/GPa)
#
#
# Indices 1 2 3 4 5 6 
#
# 1 0.007485 -0.000861 -0.002517 0.000000 0.000000 0.000000
# 2 -0.000861 0.023095 -0.000431 0.000000 0.000000 0.000000
# 3 -0.002517 -0.000431 0.008055 0.000000 0.000000 0.000000
# 4 0.000000 0.000000 0.000000 0.035586 0.000000 0.000000
# 5 0.000000 0.000000 0.000000 0.000000 0.028098 0.000000
# 6 0.000000 0.000000 0.000000 0.000000 0.000000 0.042710
#
#
# Mechanical properties :
#
#
# Convention : Reuss Voigt Hill
#
# Bulk Modulus (GPa) = 32.23899 49.92019 41.07959
# Shear Modulus (GPa) = 30.67771 35.74688 33.21230
#
# Velocity S-wave (km/s) = 3.87597 4.18397 4.03291
# Velocity P-wave (km/s) = 5.98486 6.91282 6.46551
#
# Compressibility (1/GPa) = 0.03101834
#
# Stress axis : x y z
#
# Youngs Moduli (GPa) = 133.59974 43.29992 124.13950
#
# Poissons Ratio (x) = 0.03728 0.31245
# Poissons Ratio (y) = 0.11502 0.05345
# Poissons Ratio (z) = 0.33626 0.01864
#
# Static dielectric constant tensor:
#      x y z
#    x 3.932030 0.000000 0.000000 
#    y 0.000000 3.363550 0.000000 
#    z 0.000000 0.000000 3.593720 
# 
# 
# High freq. dielectric constant tensor:
#      x y z
#    x 1.811520 0.000000 0.000000 
#    y 0.000000 1.771670 0.000000 
#    z 0.000000 0.000000 1.815320 
# 
# From -- ./inp_files/29896.got.cif
#   From: 2010.03.12/outbox.cif.g09.slc.cpg/sg62_15_cif.got.tgz:29896.got - 2010.04.10 19:12:36.
