data_PCOD8253758
_publ_section_title
;
Structure prediction by ZEFSAII (Michael W. Deem and Ramdas Pophale) SiO2 
 PCOD8253758
Probable space group: P N M A
;
_chemical_formula_sum "Si O2"
_cell_formula_units_Z 32
_cell_length_a 17.362531
_cell_length_b 13.595591
_cell_length_c 7.482742
_cell_angle_alpha 90.000000
_cell_angle_beta 90.000000
_cell_angle_gamma 90.000000
_cell_volume 1766.330209
_symmetry_space_group_name_H-M "P N M A"
_symmetry_group_IT_number 62
_symmetry_cell_setting 'orthorhombic'
loop_
_space_group_symop_operation_xyz
x,y,z
1/2-x,-y,1/2+z
1/2+x,1/2-y,1/2-z
-x,1/2+y,-z
-x,-y,-z
1/2+x,y,1/2-z
1/2-x,1/2+y,1/2+z
x,1/2-y,z
loop_
_atom_site_type_symbol
_atom_site_label
_atom_site_fract_x
_atom_site_fract_y
_atom_site_fract_z
Si Si1 0.409386 0.362474 0.754571
Si Si2 0.677835 0.525783 0.945465
Si Si3 0.086246 0.362922 0.704463
Si Si4 0.347913 0.485068 0.441462
O O1 0.388628 0.250000 0.714038
O O2 0.495415 0.373776 0.828483
O O3 0.401728 0.421694 0.570315
O O4 0.350213 0.400574 0.902943
O O5 0.630378 0.422059 0.954383
O O6 0.664668 0.572555 0.747395
O O7 0.767715 0.504934 0.961745
O O8 0.112685 0.250000 0.701663
O O9 0.110181 0.410688 0.896187
#
# Coordination Sequence:
#
# PCOD8253758 Si02
#       4
#     8   8   8   8
#     4  11  21  39  60  85 116 151 191 240 284 339
#     4  10  21  36  61  84 117 149 192 231 289 335
#     4   9  21  39  60  83 116 151 191 238 288 337
#     4  10  21  36  61  84 117 149 192 231 289 335
#
# _framework density 18.116658000000001
#
# number of rings (size 3 to 8) (size 9 to 14) (size 15 to 20)
#    1.500    0.500    2.500    1.500    0.000    5.000 
#    0.000    1.250    0.000    0.000    0.000    0.000 
#    0.000    0.000    0.000    0.000    0.000    0.000 
#
# Total GULP energy -396581.276527 kJ/mol
# GULP energy per Si atom -12393.164891 kJ/mol
# Density = 1.807542 g / cm^3
# Si number density = 18.116658 Si / 1000 Ang^3
#
#
#
# Elastic Constant Matrix: (Units=GPa)
#
#
# Indices 1 2 3 4 5 6 
#
# 1 65.8704 27.0199 -6.7442 0.0000 0.0000 0.0000
# 2 27.0199 77.5952 -4.0462 0.0000 0.0000 0.0000
# 3 -6.7442 -4.0462 53.9422 0.0000 0.0000 0.0000
# 4 0.0000 0.0000 0.0000 27.5086 0.0000 0.0000
# 5 0.0000 0.0000 0.0000 0.0000 33.2913 0.0000
# 6 0.0000 0.0000 0.0000 0.0000 0.0000 14.9530
#
#
#
# Elastic Compliance Matrix: (Units=1/GPa)
#
#
# Indices 1 2 3 4 5 6 
#
# 1 0.017879 -0.006133 0.001775 0.000000 0.000000 0.000000
# 2 -0.006133 0.015042 0.000362 0.000000 0.000000 0.000000
# 3 0.001775 0.000362 0.018787 0.000000 0.000000 0.000000
# 4 0.000000 0.000000 0.000000 0.036352 0.000000 0.000000
# 5 0.000000 0.000000 0.000000 0.000000 0.030038 0.000000
# 6 0.000000 0.000000 0.000000 0.000000 0.000000 0.066876
#
#
# Mechanical properties :
#
#
# Convention : Reuss Voigt Hill
#
# Bulk Modulus (GPa) = 22.87519 25.54075 24.20797
# Shear Modulus (GPa) = 24.09183 27.22913 25.66048
#
# Velocity S-wave (km/s) = 3.65062 3.88105 3.76760
# Velocity P-wave (km/s) = 5.51574 5.84909 5.68486
#
# Compressibility (1/GPa) = 0.04371548
#
# Stress axis : x y z
#
# Youngs Moduli (GPa) = 55.93182 66.48086 53.22709
#
# Poissons Ratio (x) = 0.40774 -0.09449
# Poissons Ratio (y) = 0.34304 -0.01924
# Poissons Ratio (z) = -0.09929 -0.02403
#
# Static dielectric constant tensor:
#      x y z
#    x 3.326110 0.000000 0.000000 
#    y 0.000000 3.203360 0.000000 
#    z 0.000000 0.000000 3.200420 
# 
# 
# High freq. dielectric constant tensor:
#      x y z
#    x 1.716670 0.000000 0.000000 
#    y 0.000000 1.684430 0.000000 
#    z 0.000000 0.000000 1.692900 
# 
# From -- ./inp_files/2002.got.cif
#   From: 2010.03.12/outbox.cif.g09.slc.cpg/sg62_2_cif.got.tgz:2002.got - 2010.04.10 19:12:36.
