data_PCOD8253660
_publ_section_title
;
Structure prediction by ZEFSAII (Michael W. Deem and Ramdas Pophale) SiO2 
 PCOD8253660
Probable space group: P N M A
;
_chemical_formula_sum "Si O2"
_cell_formula_units_Z 64
_cell_length_a 15.147157
_cell_length_b 17.691027
_cell_length_c 12.494659
_cell_angle_alpha 90.000000
_cell_angle_beta 90.000000
_cell_angle_gamma 90.000000
_cell_volume 3348.178322
_symmetry_space_group_name_H-M "P N M A"
_symmetry_group_IT_number 62
_symmetry_cell_setting 'orthorhombic'
loop_
_space_group_symop_operation_xyz
x,y,z
1/2-x,-y,1/2+z
1/2+x,1/2-y,1/2-z
-x,1/2+y,-z
-x,-y,-z
1/2+x,y,1/2-z
1/2-x,1/2+y,1/2+z
x,1/2-y,z
loop_
_atom_site_type_symbol
_atom_site_label
_atom_site_fract_x
_atom_site_fract_y
_atom_site_fract_z
Si Si1 0.296438 0.071068 0.074545
Si Si2 0.543129 0.663662 0.954036
Si Si3 0.617157 0.337580 0.429350
Si Si4 0.899719 0.334251 0.687273
Si Si5 0.630203 0.015574 0.737659
Si Si6 0.805827 0.021578 0.650539
Si Si7 0.956691 0.580923 0.732519
Si Si8 0.441624 0.665930 0.334777
O O1 0.360673 0.142606 0.093473
O O2 0.199055 0.105050 0.066553
O O3 0.309241 0.006313 0.161750
O O4 0.332456 0.025389 0.972466
O O5 0.523249 0.750000 0.929631
O O6 0.472227 0.616773 0.884543
O O7 0.539271 0.646470 0.081938
O O8 0.647010 0.250000 0.420278
O O9 0.557371 0.357556 0.326104
O O10 0.561047 0.351124 0.537938
O O11 0.859720 0.250000 0.672023
O O12 0.819158 0.392950 0.697458
O O13 0.957538 0.338696 0.794831
O O14 0.702602 0.996912 0.646231
O O15 0.613197 0.105188 0.733577
O O16 0.538782 0.970687 0.729030
O O17 0.867692 0.966935 0.719727
O O18 0.403287 0.750000 0.311513
#
# Coordination Sequence:
#
# PCOD8253660 Si02
#       8
#     8   8   8   8   8   8   8   8
#     4  10  21  35  59  87 113 147 196 241 286 341
#     4   9  19  35  58  83 111 146 189 240 290 336
#     4  11  22  39  60  83 116 157 198 237 282 348
#     4   9  19  36  59  85 112 147 192 240 288 341
#     4  11  22  38  58  88 118 153 190 241 292 341
#     4  11  21  37  58  87 116 149 192 237 291 343
#     4  11  23  37  59  86 117 152 193 236 293 345
#     4  10  21  37  58  86 116 151 194 236 285 347
#
# _framework density 19.114872999999999
#
# number of rings (size 3 to 8) (size 9 to 14) (size 15 to 20)
#    0.000    1.750    3.750    0.750    1.750    3.000 
#    2.250    0.000    0.000    0.000    0.000    0.000 
#    0.000    0.000    0.000    0.000    0.000    0.000 
#
# Total GULP energy -792869.846236 kJ/mol
# GULP energy per Si atom -12388.591347 kJ/mol
# Density = 1.907137 g / cm^3
# Si number density = 19.114873 Si / 1000 Ang^3
#
#
#
# Elastic Constant Matrix: (Units=GPa)
#
#
# Indices 1 2 3 4 5 6 
#
# 1 68.0722 20.4648 11.8826 0.0000 0.0000 0.0000
# 2 20.4648 81.7887 35.4829 0.0000 0.0000 0.0000
# 3 11.8826 35.4829 71.9205 0.0000 0.0000 0.0000
# 4 0.0000 0.0000 0.0000 29.9611 0.0000 0.0000
# 5 0.0000 0.0000 0.0000 0.0000 24.9689 0.0000
# 6 0.0000 0.0000 0.0000 0.0000 0.0000 16.5855
#
#
#
# Elastic Compliance Matrix: (Units=1/GPa)
#
#
# Indices 1 2 3 4 5 6 
#
# 1 0.015926 -0.003618 -0.000846 0.000000 0.000000 0.000000
# 2 -0.003618 0.016378 -0.007483 0.000000 0.000000 0.000000
# 3 -0.000846 -0.007483 0.017736 0.000000 0.000000 0.000000
# 4 0.000000 0.000000 0.000000 0.033377 0.000000 0.000000
# 5 0.000000 0.000000 0.000000 0.000000 0.040050 0.000000
# 6 0.000000 0.000000 0.000000 0.000000 0.000000 0.060293
#
#
# Mechanical properties :
#
#
# Convention : Reuss Voigt Hill
#
# Bulk Modulus (GPa) = 38.24665 39.71577 38.98121
# Shear Modulus (GPa) = 23.10878 24.56651 23.83765
#
# Velocity S-wave (km/s) = 3.48076 3.58886 3.53522
# Velocity P-wave (km/s) = 6.01718 6.16407 6.09107
#
# Compressibility (1/GPa) = 0.02614608
#
# Stress axis : x y z
#
# Youngs Moduli (GPa) = 62.79198 61.05742 56.38342
#
# Poissons Ratio (x) = 0.22088 0.04772
# Poissons Ratio (y) = 0.22716 0.42189
# Poissons Ratio (z) = 0.05315 0.45687
#
# Static dielectric constant tensor:
#      x y z
#    x 3.389170 0.000000 0.000000 
#    y 0.000000 3.611900 0.000000 
#    z 0.000000 0.000000 3.571570 
# 
# 
# High freq. dielectric constant tensor:
#      x y z
#    x 1.728250 0.000000 0.000000 
#    y 0.000000 1.747340 0.000000 
#    z 0.000000 0.000000 1.741950 
# 
# From -- ./inp_files/13586.got.cif
#   From: 2010.03.12/outbox.cif.g09.slc.cpg/sg62_7_cif.got.tgz:13586.got - 2010.04.10 19:12:36.
