data_PCOD8253027
_publ_section_title
;
Structure prediction by ZEFSAII (Michael W. Deem and Ramdas Pophale) SiO2 
 PCOD8253027
Probable space group: P N M A
;
_chemical_formula_sum "Si O2"
_cell_formula_units_Z 40
_cell_length_a 23.424805
_cell_length_b 13.807005
_cell_length_c 6.336119
_cell_angle_alpha 90.000000
_cell_angle_beta 90.000000
_cell_angle_gamma 90.000000
_cell_volume 2049.268157
_symmetry_space_group_name_H-M "P N M A"
_symmetry_group_IT_number 62
_symmetry_cell_setting 'orthorhombic'
loop_
_space_group_symop_operation_xyz
x,y,z
1/2-x,-y,1/2+z
1/2+x,1/2-y,1/2-z
-x,1/2+y,-z
-x,-y,-z
1/2+x,y,1/2-z
1/2-x,1/2+y,1/2+z
x,1/2-y,z
loop_
_atom_site_type_symbol
_atom_site_label
_atom_site_fract_x
_atom_site_fract_y
_atom_site_fract_z
Si Si1 0.217693 0.639938 0.202873
Si Si2 0.532792 0.641062 0.907420
Si Si3 0.184829 0.016256 0.532701
Si Si4 0.426838 0.975750 0.789911
Si Si5 0.622448 0.927243 0.588624
O O1 0.230991 0.750000 0.269482
O O2 0.268184 0.600010 0.054113
O O3 0.211751 0.576744 0.414887
O O4 0.158534 0.638157 0.072943
O O5 0.527386 0.750000 0.992967
O O6 0.472505 0.609674 0.807985
O O7 0.581277 0.639053 0.728319
O O8 0.549621 0.573636 0.102592
O O9 0.131678 0.058763 0.400883
O O10 0.165562 0.987261 0.766100
O O11 0.415828 0.996366 0.543454
#
# Coordination Sequence:
#
# PCOD8253027 Si02
#       5
#     8   8   8   8   8
#     4  11  22  37  59  84 112 154 198 240 294 347
#     4  10  20  36  58  86 114 149 192 232 285 347
#     4  10  21  39  56  83 117 149 196 245 288 347
#     4   9  21  37  57  83 117 151 185 239 289 337
#     4  10  20  37  59  81 117 149 190 244 288 335
#
# _framework density 19.519165000000001
#
# number of rings (size 3 to 8) (size 9 to 14) (size 15 to 20)
#    0.000    2.000    2.000    1.200    0.000    9.600 
#    0.000    1.000    0.000    0.000    0.000    0.000 
#    0.000    0.000    0.000    0.000    0.000    0.000 
#
# Total GULP energy -496110.230326 kJ/mol
# GULP energy per Si atom -12402.755758 kJ/mol
# Density = 1.947474 g / cm^3
# Si number density = 19.519165 Si / 1000 Ang^3
#
#
#
# Elastic Constant Matrix: (Units=GPa)
#
#
# Indices 1 2 3 4 5 6 
#
# 1 100.1765 54.6171 12.7248 0.0000 0.0000 0.0000
# 2 54.6171 90.4629 25.8091 0.0000 0.0000 0.0000
# 3 12.7248 25.8091 73.0990 0.0000 0.0000 0.0000
# 4 0.0000 0.0000 0.0000 19.4138 0.0000 0.0000
# 5 0.0000 0.0000 0.0000 0.0000 25.8556 0.0000
# 6 0.0000 0.0000 0.0000 0.0000 0.0000 14.2640
#
#
#
# Elastic Compliance Matrix: (Units=1/GPa)
#
#
# Indices 1 2 3 4 5 6 
#
# 1 0.014908 -0.009186 0.000648 0.000000 0.000000 0.000000
# 2 -0.009186 0.017952 -0.004739 0.000000 0.000000 0.000000
# 3 0.000648 -0.004739 0.015241 0.000000 0.000000 0.000000
# 4 0.000000 0.000000 0.000000 0.051510 0.000000 0.000000
# 5 0.000000 0.000000 0.000000 0.000000 0.038676 0.000000
# 6 0.000000 0.000000 0.000000 0.000000 0.000000 0.070106
#
#
# Mechanical properties :
#
#
# Convention : Reuss Voigt Hill
#
# Bulk Modulus (GPa) = 46.41035 50.00451 48.20743
# Shear Modulus (GPa) = 20.65006 23.27918 21.96462
#
# Velocity S-wave (km/s) = 3.25612 3.45720 3.35817
# Velocity P-wave (km/s) = 6.16157 6.45059 6.30773
#
# Compressibility (1/GPa) = 0.02154692
#
# Stress axis : x y z
#
# Youngs Moduli (GPa) = 67.07722 55.70319 65.61419
#
# Poissons Ratio (x) = 0.51167 -0.04252
# Poissons Ratio (y) = 0.61615 0.31097
# Poissons Ratio (z) = -0.04347 0.26400
#
# Static dielectric constant tensor:
#      x y z
#    x 3.828300 0.000000 0.000000 
#    y 0.000000 3.165570 0.000000 
#    z 0.000000 0.000000 3.540090 
# 
# 
# High freq. dielectric constant tensor:
#      x y z
#    x 1.778990 0.000000 0.000000 
#    y 0.000000 1.727280 0.000000 
#    z 0.000000 0.000000 1.763450 
# 
# From -- ./inp_files/2654.got.cif
#   From: 2010.03.12/outbox.cif.g09.slc.cpg/sg62_2_cif.got.tgz:2654.got - 2010.04.10 19:12:36.
