data_PCOD8253525
_publ_section_title
;
Structure prediction by ZEFSAII (Michael W. Deem and Ramdas Pophale) SiO2 
 PCOD8253525
Probable space group: P N M A
;
_chemical_formula_sum "Si O2"
_cell_formula_units_Z 56
_cell_length_a 19.673388
_cell_length_b 8.602922
_cell_length_c 16.178944
_cell_angle_alpha 90.000000
_cell_angle_beta 90.000000
_cell_angle_gamma 90.000000
_cell_volume 2738.263985
_symmetry_space_group_name_H-M "P N M A"
_symmetry_group_IT_number 62
_symmetry_cell_setting 'orthorhombic'
loop_
_space_group_symop_operation_xyz
x,y,z
1/2-x,-y,1/2+z
1/2+x,1/2-y,1/2-z
-x,1/2+y,-z
-x,-y,-z
1/2+x,y,1/2-z
1/2-x,1/2+y,1/2+z
x,1/2-y,z
loop_
_atom_site_type_symbol
_atom_site_label
_atom_site_fract_x
_atom_site_fract_y
_atom_site_fract_z
Si Si1 0.477638 0.070177 0.730346
Si Si2 0.374983 0.570800 0.855089
Si Si3 0.300350 0.428271 0.566775
Si Si4 0.840327 0.069350 0.476915
Si Si5 0.879633 0.930660 0.309307
Si Si6 0.442414 0.568233 0.557954
Si Si7 0.735923 0.926690 0.246789
O O1 0.469045 0.250000 0.705195
O O2 0.554468 0.031772 0.756017
O O3 0.429171 0.034161 0.807083
O O4 0.459397 0.963758 0.653097
O O5 0.394099 0.750000 0.844034
O O6 0.299649 0.538577 0.819290
O O7 0.377160 0.526206 0.950938
O O8 0.290293 0.250000 0.540465
O O9 0.238919 0.525833 0.528368
O O10 0.371076 0.491795 0.531406
O O11 0.301858 0.445731 0.665659
O O12 0.847033 0.250000 0.496459
O O13 0.880259 0.029983 0.392947
O O14 0.873982 0.750000 0.334825
O O15 0.814479 0.977389 0.254218
O O16 0.500000 0.500000 0.500000
O O17 0.436610 0.750000 0.542882
O O18 0.729825 0.750000 0.215052
#
# Coordination Sequence:
#
# PCOD8253525 Si02
#       7
#     8   8   8   8   8   8   8
#     4  11  23  42  65  91 125 166 209 259 319 377
#     4  12  24  38  60  90 125 165 213 258 309 376
#     4  10  20  39  64  88 120 156 199 254 310 367
#     4  11  23  39  62  91 124 162 208 259 313 369
#     4   9  21  41  64  89 123 163 206 257 315 374
#     4  12  25  41  63  92 127 167 210 256 313 375
#     4   9  18  36  62  87 116 155 201 255 313 369
#
# _framework density 20.450913
#
# number of rings (size 3 to 8) (size 9 to 14) (size 15 to 20)
#    0.000    1.429    1.429    5.571    0.000    5.143 
#    0.000    4.286    0.000    0.000    0.000    0.000 
#    0.000    0.000    0.000    0.000    0.000    0.000 
#
# Total GULP energy -694756.189446 kJ/mol
# GULP energy per Si atom -12406.360526 kJ/mol
# Density = 2.040437 g / cm^3
# Si number density = 20.450913 Si / 1000 Ang^3
#
#
#
# Elastic Constant Matrix: (Units=GPa)
#
#
# Indices 1 2 3 4 5 6 
#
# 1 81.8371 13.3797 12.8938 0.0000 0.0000 0.0000
# 2 13.3797 77.8012 15.0690 0.0000 0.0000 0.0000
# 3 12.8938 15.0690 33.6955 0.0000 0.0000 0.0000
# 4 0.0000 0.0000 0.0000 34.4248 0.0000 0.0000
# 5 0.0000 0.0000 0.0000 0.0000 28.3874 0.0000
# 6 0.0000 0.0000 0.0000 0.0000 0.0000 31.0360
#
#
#
# Elastic Compliance Matrix: (Units=1/GPa)
#
#
# Indices 1 2 3 4 5 6 
#
# 1 0.013143 -0.001408 -0.004399 0.000000 0.000000 0.000000
# 2 -0.001408 0.014223 -0.005822 0.000000 0.000000 0.000000
# 3 -0.004399 -0.005822 0.033965 0.000000 0.000000 0.000000
# 4 0.000000 0.000000 0.000000 0.029049 0.000000 0.000000
# 5 0.000000 0.000000 0.000000 0.000000 0.035227 0.000000
# 6 0.000000 0.000000 0.000000 0.000000 0.000000 0.032221
#
#
# Mechanical properties :
#
#
# Convention : Reuss Voigt Hill
#
# Bulk Modulus (GPa) = 26.26629 30.66874 28.46751
# Shear Modulus (GPa) = 25.80296 28.90239 27.35267
#
# Velocity S-wave (km/s) = 3.55590 3.76341 3.66112
# Velocity P-wave (km/s) = 5.45258 5.82350 5.64109
#
# Compressibility (1/GPa) = 0.03807161
#
# Stress axis : x y z
#
# Youngs Moduli (GPa) = 76.08744 70.30851 29.44236
#
# Poissons Ratio (x) = 0.09900 0.12953
# Poissons Ratio (y) = 0.10714 0.17141
# Poissons Ratio (z) = 0.33475 0.40933
#
# Static dielectric constant tensor:
#      x y z
#    x 3.869670 0.000000 0.000000 
#    y 0.000000 3.667710 0.000000 
#    z 0.000000 0.000000 3.590660 
# 
# 
# High freq. dielectric constant tensor:
#      x y z
#    x 1.808840 0.000000 0.000000 
#    y 0.000000 1.802540 0.000000 
#    z 0.000000 0.000000 1.790490 
# 
# From -- ./inp_files/20200.got.cif
#   From: 2010.03.12/outbox.cif.g09.slc.cpg/sg62_11_cif.got.tgz:20200.got - 2010.04.10 19:12:36.
