data_PCOD8253663
_publ_section_title
;
Structure prediction by ZEFSAII (Michael W. Deem and Ramdas Pophale) SiO2 
 PCOD8253663
Probable space group: P N M A
;
_chemical_formula_sum "Si O2"
_cell_formula_units_Z 52
_cell_length_a 10.322352
_cell_length_b 25.453618
_cell_length_c 9.124249
_cell_angle_alpha 90.000000
_cell_angle_beta 90.000000
_cell_angle_gamma 90.000000
_cell_volume 2397.316174
_symmetry_space_group_name_H-M "P N M A"
_symmetry_group_IT_number 62
_symmetry_cell_setting 'orthorhombic'
loop_
_space_group_symop_operation_xyz
x,y,z
1/2-x,-y,1/2+z
1/2+x,1/2-y,1/2-z
-x,1/2+y,-z
-x,-y,-z
1/2+x,y,1/2-z
1/2-x,1/2+y,1/2+z
x,1/2-y,z
loop_
_atom_site_type_symbol
_atom_site_label
_atom_site_fract_x
_atom_site_fract_y
_atom_site_fract_z
Si Si1 0.037481 0.135961 0.384341
Si Si2 0.548410 0.750000 0.948255
Si Si3 0.724535 0.853876 0.432240
Si Si4 0.541501 0.546775 0.103618
Si Si5 0.849552 0.750000 0.992103
Si Si6 0.318612 0.572262 0.319022
Si Si7 0.450081 0.863340 0.560339
Si Si8 0.669621 0.250000 0.826806
O O1 0.984318 0.195449 0.366706
O O2 0.189443 0.137025 0.423427
O O3 0.027817 0.111403 0.221478
O O4 0.964980 0.101551 0.510014
O O5 0.698350 0.750000 0.973128
O O6 0.470352 0.750000 0.098732
O O7 0.773417 0.886111 0.296736
O O8 0.578761 0.868138 0.465704
O O9 0.735787 0.795534 0.375498
O O10 0.445623 0.544628 0.246504
O O11 0.691123 0.535914 0.152575
O O12 0.500000 0.500000 0.000000
O O13 0.907692 0.697374 0.919801
O O14 0.878382 0.750000 0.162436
O O15 0.348012 0.600955 0.472972
#
# Coordination Sequence:
#
# PCOD8253663 Si02
#       8
#     8   4   8   8   4   8   8   4
#     4  10  25  44  67  96 141 181 217 292 338 402
#     4  10  23  42  59  93 141 179 228 273 346 405
#     4  10  22  40  63  95 135 173 230 274 332 404
#     4  11  26  50  74 103 140 176 232 284 343 404
#     4  12  24  31  63  92 133 182 229 274 337 410
#     4  11  23  46  73 100 130 178 226 282 332 410
#     4  12  24  39  67  99 135 180 230 274 349 410
#     4  10  21  35  60  91 132 181 227 281 329 395
#
# _framework density 21.690923000000002
#
# number of rings (size 3 to 8) (size 9 to 14) (size 15 to 20)
#    0.000    1.231    3.077    1.846    6.462    1.231 
#    2.769    1.538    0.000    0.000    0.000    0.000 
#    0.000    0.000    0.000    0.000    0.000    0.000 
#
# Total GULP energy -644464.942677 kJ/mol
# GULP energy per Si atom -12393.556590 kJ/mol
# Density = 2.164155 g / cm^3
# Si number density = 21.690923 Si / 1000 Ang^3
#
#
#
# Elastic Constant Matrix: (Units=GPa)
#
#
# Indices 1 2 3 4 5 6 
#
# 1 127.3213 4.7542 28.9938 0.0000 0.0000 0.0000
# 2 4.7542 55.4939 3.1894 0.0000 0.0000 0.0000
# 3 28.9938 3.1894 115.6643 0.0000 0.0000 0.0000
# 4 0.0000 0.0000 0.0000 11.3578 0.0000 0.0000
# 5 0.0000 0.0000 0.0000 0.0000 29.6931 0.0000
# 6 0.0000 0.0000 0.0000 0.0000 0.0000 23.0846
#
#
#
# Elastic Compliance Matrix: (Units=1/GPa)
#
#
# Indices 1 2 3 4 5 6 
#
# 1 0.008349 -0.000596 -0.002076 0.000000 0.000000 0.000000
# 2 -0.000596 0.018091 -0.000349 0.000000 0.000000 0.000000
# 3 -0.002076 -0.000349 0.009176 0.000000 0.000000 0.000000
# 4 0.000000 0.000000 0.000000 0.088045 0.000000 0.000000
# 5 0.000000 0.000000 0.000000 0.000000 0.033678 0.000000
# 6 0.000000 0.000000 0.000000 0.000000 0.000000 0.043319
#
#
# Mechanical properties :
#
#
# Convention : Reuss Voigt Hill
#
# Bulk Modulus (GPa) = 33.81524 41.37269 37.59397
# Shear Modulus (GPa) = 23.08831 30.26324 26.67577
#
# Velocity S-wave (km/s) = 3.26609 3.73929 3.51067
# Velocity P-wave (km/s) = 5.46320 6.14477 5.81398
#
# Compressibility (1/GPa) = 0.02957246
#
# Stress axis : x y z
#
# Youngs Moduli (GPa) = 119.77110 55.27565 108.98159
#
# Poissons Ratio (x) = 0.03294 0.22630
# Poissons Ratio (y) = 0.07138 0.03809
# Poissons Ratio (z) = 0.24870 0.01932
#
# Static dielectric constant tensor:
#      x y z
#    x 4.886660 0.000000 0.000000 
#    y 0.000000 3.862170 0.000000 
#    z 0.000000 0.000000 4.057890 
# 
# 
# High freq. dielectric constant tensor:
#      x y z
#    x 1.864500 0.000000 0.000000 
#    y 0.000000 1.831100 0.000000 
#    z 0.000000 0.000000 1.860440 
# 
# From -- ./inp_files/5425.got.cif
#   From: 2010.03.12/outbox.cif.g09.slc.cpg/sg62_3_cif.got.tgz:5425.got - 2010.04.10 19:12:36.
