data_PCOD8253334
_publ_section_title
;
Structure prediction by ZEFSAII (Michael W. Deem and Ramdas Pophale) SiO2 
 PCOD8253334
Probable space group: P N M A
;
_chemical_formula_sum "Si O2"
_cell_formula_units_Z 40
_cell_length_a 18.022576
_cell_length_b 8.381554
_cell_length_c 13.546609
_cell_angle_alpha 90.000000
_cell_angle_beta 90.000000
_cell_angle_gamma 90.000000
_cell_volume 2046.312743
_symmetry_space_group_name_H-M "P N M A"
_symmetry_group_IT_number 62
_symmetry_cell_setting 'orthorhombic'
loop_
_space_group_symop_operation_xyz
x,y,z
1/2-x,-y,1/2+z
1/2+x,1/2-y,1/2-z
-x,1/2+y,-z
-x,-y,-z
1/2+x,y,1/2-z
1/2-x,1/2+y,1/2+z
x,1/2-y,z
loop_
_atom_site_type_symbol
_atom_site_label
_atom_site_fract_x
_atom_site_fract_y
_atom_site_fract_z
Si Si1 0.339572 0.435837 0.405319
Si Si2 0.470419 0.560784 0.896897
Si Si3 0.871193 0.935279 0.887103
Si Si4 0.814480 0.938211 0.678324
Si Si5 0.518080 0.434664 0.696518
O O1 0.348301 0.250000 0.379016
O O2 0.343725 0.458230 0.522524
O O3 0.261137 0.507184 0.367283
O O4 0.402298 0.536528 0.351160
O O5 0.475350 0.750000 0.890611
O O6 0.385905 0.498508 0.882406
O O7 0.521335 0.488111 0.810469
O O8 0.500000 0.500000 0.000000
O O9 0.860505 0.750000 0.912982
O O10 0.822136 0.988331 0.792894
O O11 0.957724 0.963842 0.864044
O O12 0.813702 0.750000 0.669445
O O13 0.497016 0.250000 0.688280
#
# Coordination Sequence:
#
# PCOD8253334 Si02
#       5
#     8   8   8   8   8
#     4  11  21  36  57  83 111 144 181 226 277 328
#     4  10  20  38  60  84 112 147 185 226 270 323
#     4  10  20  38  58  79 108 145 183 227 275 326
#     4   8  19  37  56  78 110 144 181 225 272 321
#     4  11  22  37  56  82 110 144 186 228 271 326
#
# _framework density 19.547353999999999
#
# number of rings (size 3 to 8) (size 9 to 14) (size 15 to 20)
#    0.000    2.000    0.000    5.400    0.000    1.600 
#    0.000   16.000    0.000    0.000    0.000    0.000 
#    0.000    0.000    0.000    0.000    0.000    0.000 
#
# Total GULP energy -496105.091797 kJ/mol
# GULP energy per Si atom -12402.627295 kJ/mol
# Density = 1.950286 g / cm^3
# Si number density = 19.547354 Si / 1000 Ang^3
#
#
#
# Elastic Constant Matrix: (Units=GPa)
#
#
# Indices 1 2 3 4 5 6 
#
# 1 116.5884 8.6284 75.2801 0.0000 0.0000 0.0000
# 2 8.6284 56.7680 14.4018 0.0000 0.0000 0.0000
# 3 75.2801 14.4018 142.6097 0.0000 0.0000 0.0000
# 4 0.0000 0.0000 0.0000 35.2263 0.0000 0.0000
# 5 0.0000 0.0000 0.0000 0.0000 29.2579 0.0000
# 6 0.0000 0.0000 0.0000 0.0000 0.0000 21.2097
#
#
#
# Elastic Compliance Matrix: (Units=1/GPa)
#
#
# Indices 1 2 3 4 5 6 
#
# 1 0.013016 -0.000241 -0.006846 0.000000 0.000000 0.000000
# 2 -0.000241 0.018083 -0.001699 0.000000 0.000000 0.000000
# 3 -0.006846 -0.001699 0.010798 0.000000 0.000000 0.000000
# 4 0.000000 0.000000 0.000000 0.028388 0.000000 0.000000
# 5 0.000000 0.000000 0.000000 0.000000 0.034179 0.000000
# 6 0.000000 0.000000 0.000000 0.000000 0.000000 0.047148
#
#
# Mechanical properties :
#
#
# Convention : Reuss Voigt Hill
#
# Bulk Modulus (GPa) = 41.11220 56.95406 49.03313
# Shear Modulus (GPa) = 28.20205 31.64916 29.92560
#
# Velocity S-wave (km/s) = 3.80248 4.02817 3.91695
# Velocity P-wave (km/s) = 6.35266 7.12984 6.75244
#
# Compressibility (1/GPa) = 0.02432368
#
# Stress axis : x y z
#
# Youngs Moduli (GPa) = 76.83081 55.29991 92.61267
#
# Poissons Ratio (x) = 0.01335 0.63405
# Poissons Ratio (y) = 0.01855 0.15732
# Poissons Ratio (z) = 0.52600 0.09394
#
# Static dielectric constant tensor:
#      x y z
#    x 3.662250 0.000000 0.000000 
#    y 0.000000 3.403670 0.000000 
#    z 0.000000 0.000000 3.651830 
# 
# 
# High freq. dielectric constant tensor:
#      x y z
#    x 1.758720 0.000000 0.000000 
#    y 0.000000 1.755510 0.000000 
#    z 0.000000 0.000000 1.768870 
# 
# From -- ./inp_files/13840.got.cif
#   From: 2010.03.12/outbox.cif.g09.slc.cpg/sg62_7_cif.got.tgz:13840.got - 2010.04.10 19:12:36.
