data_PCOD8253696
_publ_section_title
;
Structure prediction by ZEFSAII (Michael W. Deem and Ramdas Pophale) SiO2 
 PCOD8253696
Probable space group: P N M A
;
_chemical_formula_sum "Si O2"
_cell_formula_units_Z 48
_cell_length_a 9.595344
_cell_length_b 8.769888
_cell_length_c 29.096928
_cell_angle_alpha 90.000000
_cell_angle_beta 90.000000
_cell_angle_gamma 90.000000
_cell_volume 2448.509174
_symmetry_space_group_name_H-M "P N M A"
_symmetry_group_IT_number 62
_symmetry_cell_setting 'orthorhombic'
loop_
_space_group_symop_operation_xyz
x,y,z
1/2-x,-y,1/2+z
1/2+x,1/2-y,1/2-z
-x,1/2+y,-z
-x,-y,-z
1/2+x,y,1/2-z
1/2-x,1/2+y,1/2+z
x,1/2-y,z
loop_
_atom_site_type_symbol
_atom_site_label
_atom_site_fract_x
_atom_site_fract_y
_atom_site_fract_z
Si Si1 0.892445 0.069744 0.273590
Si Si2 0.183919 0.927164 0.293131
Si Si3 0.185227 0.071775 0.633361
Si Si4 0.879918 0.075888 0.603396
Si Si5 0.184366 0.573535 0.967247
Si Si6 0.875408 0.927106 0.939614
O O1 0.895458 0.250000 0.271442
O O2 0.819270 0.004632 0.228272
O O3 0.808190 0.017018 0.318634
O O4 0.048143 0.007338 0.272821
O O5 0.176470 0.750000 0.280219
O O6 0.193355 0.951035 0.347707
O O7 0.192085 0.250000 0.644770
O O8 0.042608 0.032447 0.606553
O O9 0.315804 0.022355 0.602864
O O10 0.860570 0.250000 0.587345
O O11 0.811053 0.965379 0.566309
O O12 0.190755 0.750000 0.981061
O O13 0.039031 0.534032 0.942278
O O14 0.200609 0.476052 0.013467
O O15 0.846875 0.750000 0.931021
#
# Coordination Sequence:
#
# PCOD8253696 Si02
#       6
#     8   8   8   8   8   8
#     4  11  22  37  58  85 114 145 185 233 280 326
#     4  10  21  39  59  81 112 150 188 226 275 334
#     4  10  21  38  58  81 110 145 184 224 273 331
#     4   9  20  37  57  80 107 141 181 223 268 322
#     4  10  21  36  56  81 109 142 180 223 273 326
#     4  10  21  37  56  80 110 143 182 226 271 323
#
# _framework density 19.603766
#
# number of rings (size 3 to 8) (size 9 to 14) (size 15 to 20)
#    0.000    2.000    0.000    4.500    0.000    8.000 
#    0.000    3.333    0.000    0.000    0.000    0.000 
#    0.000    0.000    0.000    0.000    0.000    0.000 
#
# Total GULP energy -595470.652613 kJ/mol
# GULP energy per Si atom -12405.638596 kJ/mol
# Density = 1.955915 g / cm^3
# Si number density = 19.603766 Si / 1000 Ang^3
#
#
#
# Elastic Constant Matrix: (Units=GPa)
#
#
# Indices 1 2 3 4 5 6 
#
# 1 21.6665 10.1580 0.0712 0.0000 0.0000 0.0000
# 2 10.1580 94.8686 9.3046 0.0000 0.0000 0.0000
# 3 0.0712 9.3046 26.4856 0.0000 0.0000 0.0000
# 4 0.0000 0.0000 0.0000 35.6022 0.0000 0.0000
# 5 0.0000 0.0000 0.0000 0.0000 38.6534 0.0000
# 6 0.0000 0.0000 0.0000 0.0000 0.0000 35.1253
#
#
#
# Elastic Compliance Matrix: (Units=1/GPa)
#
#
# Indices 1 2 3 4 5 6 
#
# 1 0.048673 -0.005384 0.001761 0.000000 0.000000 0.000000
# 2 -0.005384 0.011513 -0.004030 0.000000 0.000000 0.000000
# 3 0.001761 -0.004030 0.039167 0.000000 0.000000 0.000000
# 4 0.000000 0.000000 0.000000 0.028088 0.000000 0.000000
# 5 0.000000 0.000000 0.000000 0.000000 0.025871 0.000000
# 6 0.000000 0.000000 0.000000 0.000000 0.000000 0.028469
#
#
# Mechanical properties :
#
#
# Convention : Reuss Voigt Hill
#
# Bulk Modulus (GPa) = 11.89829 20.23202 16.06515
# Shear Modulus (GPa) = 22.21197 30.10865 26.16031
#
# Velocity S-wave (km/s) = 3.36973 3.92326 3.65698
# Velocity P-wave (km/s) = 4.60680 5.55567 5.10334
#
# Compressibility (1/GPa) = 0.08404572
#
# Stress axis : x y z
#
# Youngs Moduli (GPa) = 20.54537 86.86081 25.53140
#
# Poissons Ratio (x) = 0.46768 -0.04495
# Poissons Ratio (y) = 0.11062 0.10289
# Poissons Ratio (z) = -0.03617 0.35005
#
# Static dielectric constant tensor:
#      x y z
#    x 3.493060 0.000000 0.000000 
#    y 0.000000 3.597710 0.000000 
#    z 0.000000 0.000000 3.495980 
# 
# 
# High freq. dielectric constant tensor:
#      x y z
#    x 1.759890 0.000000 0.000000 
#    y 0.000000 1.775240 0.000000 
#    z 0.000000 0.000000 1.762390 
# 
# From -- ./inp_files/31932.got.cif
#   From: 2010.03.12/outbox.cif.g09.slc.cpg/sg62_16_cif.got.tgz:31932.got - 2010.04.10 19:12:36.
