data_PCOD8253442
_publ_section_title
;
Structure prediction by ZEFSAII (Michael W. Deem and Ramdas Pophale) SiO2 
 PCOD8253442
Probable space group: P N M A
;
_chemical_formula_sum "Si O2"
_cell_formula_units_Z 48
_cell_length_a 10.234120
_cell_length_b 8.573564
_cell_length_c 26.349276
_cell_angle_alpha 90.000000
_cell_angle_beta 90.000000
_cell_angle_gamma 90.000000
_cell_volume 2311.961436
_symmetry_space_group_name_H-M "P N M A"
_symmetry_group_IT_number 62
_symmetry_cell_setting 'orthorhombic'
loop_
_space_group_symop_operation_xyz
x,y,z
1/2-x,-y,1/2+z
1/2+x,1/2-y,1/2-z
-x,1/2+y,-z
-x,-y,-z
1/2+x,y,1/2-z
1/2-x,1/2+y,1/2+z
x,1/2-y,z
loop_
_atom_site_type_symbol
_atom_site_label
_atom_site_fract_x
_atom_site_fract_y
_atom_site_fract_z
Si Si1 0.133260 0.065662 0.978546
Si Si2 0.594069 0.567387 0.198110
Si Si3 0.111365 0.567733 0.184377
Si Si4 0.881673 0.932595 0.468364
Si Si5 0.157926 0.434991 0.864259
Si Si6 0.365578 0.430979 0.138701
O O1 0.124551 0.250000 0.977475
O O2 0.158082 0.000697 0.921748
O O3 0.247996 0.013513 0.015402
O O4 0.000000 0.000000 0.000000
O O5 0.569185 0.750000 0.188907
O O6 0.626056 0.533392 0.256357
O O7 0.714292 0.501510 0.164722
O O8 0.463358 0.474663 0.184075
O O9 0.131488 0.750000 0.172161
O O10 0.218657 0.469704 0.154561
O O11 0.971161 0.507267 0.164926
O O12 0.871261 0.750000 0.477782
O O13 0.908060 0.967513 0.409648
O O14 0.000000 0.000000 0.500000
O O15 0.162059 0.250000 0.863336
O O16 0.375901 0.250000 0.125013
#
# Coordination Sequence:
#
# PCOD8253442 Si02
#       6
#     8   8   8   8   8   8
#     4  11  22  38  60  88 123 163 206 251 303 363
#     4  10  20  38  64  90 118 157 204 251 300 357
#     4  10  20  38  64  91 119 157 204 249 297 356
#     4  12  25  43  65  90 121 159 207 260 313 371
#     4   9  19  35  58  87 116 149 194 247 297 350
#     4  12  25  40  60  90 126 163 203 248 305 369
#
# _framework density 20.761592
#
# number of rings (size 3 to 8) (size 9 to 14) (size 15 to 20)
#    0.000    1.333    0.000    6.500    0.000    6.000 
#    0.000    2.500    0.000    0.000    0.000    0.000 
#    0.000    0.000    0.000    0.000    0.000    0.000 
#
# Total GULP energy -595522.820287 kJ/mol
# GULP energy per Si atom -12406.725423 kJ/mol
# Density = 2.071434 g / cm^3
# Si number density = 20.761592 Si / 1000 Ang^3
#
#
#
# Elastic Constant Matrix: (Units=GPa)
#
#
# Indices 1 2 3 4 5 6 
#
# 1 111.2538 26.4812 14.4882 0.0000 0.0000 0.0000
# 2 26.4812 62.7489 27.8129 0.0000 0.0000 0.0000
# 3 14.4882 27.8129 91.1405 0.0000 0.0000 0.0000
# 4 0.0000 0.0000 0.0000 25.3564 0.0000 0.0000
# 5 0.0000 0.0000 0.0000 0.0000 44.1529 0.0000
# 6 0.0000 0.0000 0.0000 0.0000 0.0000 34.2328
#
#
#
# Elastic Compliance Matrix: (Units=1/GPa)
#
#
# Indices 1 2 3 4 5 6 
#
# 1 0.010002 -0.004066 -0.000349 0.000000 0.000000 0.000000
# 2 -0.004066 0.020082 -0.005482 0.000000 0.000000 0.000000
# 3 -0.000349 -0.005482 0.012700 0.000000 0.000000 0.000000
# 4 0.000000 0.000000 0.000000 0.039438 0.000000 0.000000
# 5 0.000000 0.000000 0.000000 0.000000 0.022649 0.000000
# 6 0.000000 0.000000 0.000000 0.000000 0.000000 0.029212
#
#
# Mechanical properties :
#
#
# Convention : Reuss Voigt Hill
#
# Bulk Modulus (GPa) = 43.49719 44.74533 44.12126
# Shear Modulus (GPa) = 30.95194 33.83916 32.39555
#
# Velocity S-wave (km/s) = 3.86531 4.04157 3.95442
# Velocity P-wave (km/s) = 6.39665 6.58618 6.49211
#
# Compressibility (1/GPa) = 0.02298999
#
# Stress axis : x y z
#
# Youngs Moduli (GPa) = 99.98230 49.79478 78.73707
#
# Poissons Ratio (x) = 0.20248 0.02748
# Poissons Ratio (y) = 0.40655 0.43164
# Poissons Ratio (z) = 0.03490 0.27298
#
# Static dielectric constant tensor:
#      x y z
#    x 3.753180 0.000000 0.000000 
#    y 0.000000 3.540000 0.000000 
#    z 0.000000 0.000000 3.936630 
# 
# 
# High freq. dielectric constant tensor:
#      x y z
#    x 1.830380 0.000000 0.000000 
#    y 0.000000 1.791570 0.000000 
#    z 0.000000 0.000000 1.829040 
# 
# From -- ./inp_files/32027.got.cif
#   From: 2010.03.12/outbox.cif.g09.slc.cpg/sg62_17_cif.got.tgz:32027.got - 2010.04.10 19:12:36.
