data_PCOD8253832
_publ_section_title
;
Structure prediction by ZEFSAII (Michael W. Deem and Ramdas Pophale) SiO2 
 PCOD8253832
Probable space group: P N M A
;
_chemical_formula_sum "Si O2"
_cell_formula_units_Z 56
_cell_length_a 23.142329
_cell_length_b 13.506206
_cell_length_c 9.535988
_cell_angle_alpha 90.000000
_cell_angle_beta 90.000000
_cell_angle_gamma 90.000000
_cell_volume 2980.616688
_symmetry_space_group_name_H-M "P N M A"
_symmetry_group_IT_number 62
_symmetry_cell_setting 'orthorhombic'
loop_
_space_group_symop_operation_xyz
x,y,z
1/2-x,-y,1/2+z
1/2+x,1/2-y,1/2-z
-x,1/2+y,-z
-x,-y,-z
1/2+x,y,1/2-z
1/2-x,1/2+y,1/2+z
x,1/2-y,z
loop_
_atom_site_type_symbol
_atom_site_label
_atom_site_fract_x
_atom_site_fract_y
_atom_site_fract_z
Si Si1 0.182241 0.864338 0.813967
Si Si2 0.233498 0.964109 0.332425
Si Si3 0.575770 0.362145 0.828031
Si Si4 0.367538 0.044678 0.044040
Si Si5 0.856710 0.449206 0.901574
Si Si6 0.844898 0.860805 0.066375
Si Si7 0.443198 0.134619 0.807804
O O1 0.197925 0.750000 0.795275
O O2 0.241854 0.925596 0.808655
O O3 0.139170 0.899533 0.691541
O O4 0.149125 0.882653 0.960059
O O5 0.194667 0.964384 0.471404
O O6 0.197632 0.926882 0.198932
O O7 0.286072 0.888179 0.352391
O O8 0.580813 0.250000 0.886363
O O9 0.608379 0.433933 0.935647
O O10 0.602336 0.369712 0.673654
O O11 0.509608 0.396367 0.817647
O O12 0.412010 0.107687 0.952516
O O13 0.915919 0.424485 0.822676
O O14 0.856969 0.565687 0.937754
O O15 0.839638 0.750000 0.005945
O O16 0.435214 0.250000 0.777917
#
# Coordination Sequence:
#
# PCOD8253832 Si02
#       7
#     8   8   8   8   8   8   8
#     4  11  21  34  55  84 116 147 187 236 287 339
#     4  10  22  36  55  82 116 152 186 233 286 347
#     4  10  21  39  62  85 113 154 195 235 287 342
#     4  11  21  39  58  85 117 149 193 238 286 334
#     4  10  21  38  57  84 115 148 196 237 283 343
#     4  10  21  37  58  85 117 153 190 235 290 341
#     4  10  22  39  61  85 114 153 194 235 289 344
#
# _framework density 18.788057999999999
#
# number of rings (size 3 to 8) (size 9 to 14) (size 15 to 20)
#    0.000    1.714    2.857    3.000    0.000    6.286 
#    0.000    2.143    0.000    0.857    0.000    0.000 
#    0.000    0.000    0.000    0.000    0.000    0.000 
#
# Total GULP energy -694583.936303 kJ/mol
# GULP energy per Si atom -12403.284577 kJ/mol
# Density = 1.874530 g / cm^3
# Si number density = 18.788058 Si / 1000 Ang^3
#
#
#
# Elastic Constant Matrix: (Units=GPa)
#
#
# Indices 1 2 3 4 5 6 
#
# 1 95.8510 37.2718 43.1930 0.0000 0.0000 0.0000
# 2 37.2718 113.6525 32.1833 0.0000 0.0000 0.0000
# 3 43.1930 32.1833 110.0391 0.0000 0.0000 0.0000
# 4 0.0000 0.0000 0.0000 24.4244 0.0000 0.0000
# 5 0.0000 0.0000 0.0000 0.0000 19.5806 0.0000
# 6 0.0000 0.0000 0.0000 0.0000 0.0000 23.5471
#
#
#
# Elastic Compliance Matrix: (Units=1/GPa)
#
#
# Indices 1 2 3 4 5 6 
#
# 1 0.013685 -0.003235 -0.004426 0.000000 0.000000 0.000000
# 2 -0.003235 0.010358 -0.001760 0.000000 0.000000 0.000000
# 3 -0.004426 -0.001760 0.011339 0.000000 0.000000 0.000000
# 4 0.000000 0.000000 0.000000 0.040943 0.000000 0.000000
# 5 0.000000 0.000000 0.000000 0.000000 0.051071 0.000000
# 6 0.000000 0.000000 0.000000 0.000000 0.000000 0.042468
#
#
# Mechanical properties :
#
#
# Convention : Reuss Voigt Hill
#
# Bulk Modulus (GPa) = 60.45103 60.53764 60.49434
# Shear Modulus (GPa) = 25.74427 27.30341 26.52384
#
# Velocity S-wave (km/s) = 3.70570 3.81626 3.76139
# Velocity P-wave (km/s) = 7.11018 7.19095 7.15068
#
# Compressibility (1/GPa) = 0.01654231
#
# Stress axis : x y z
#
# Youngs Moduli (GPa) = 73.07287 96.54517 88.18739
#
# Poissons Ratio (x) = 0.31229 0.39028
# Poissons Ratio (y) = 0.23637 0.15518
# Poissons Ratio (z) = 0.32339 0.16989
#
# Static dielectric constant tensor:
#      x y z
#    x 3.469580 0.000000 0.000000 
#    y 0.000000 3.528120 0.000000 
#    z 0.000000 0.000000 3.431650 
# 
# 
# High freq. dielectric constant tensor:
#      x y z
#    x 1.731020 0.000000 0.000000 
#    y 0.000000 1.733650 0.000000 
#    z 0.000000 0.000000 1.730940 
# 
# From -- ./inp_files/8699.got.cif
#   From: 2010.03.12/outbox.cif.g09.slc.cpg/sg62_5_cif.got.tgz:8699.got - 2010.04.10 19:12:36.
