data_PCOD8253045
_publ_section_title
;
Structure prediction by ZEFSAII (Michael W. Deem and Ramdas Pophale) SiO2 
 PCOD8253045
Probable space group: P N M A
;
_chemical_formula_sum "Si O2"
_cell_formula_units_Z 64
_cell_length_a 12.792540
_cell_length_b 8.825623
_cell_length_c 29.005318
_cell_angle_alpha 90.000000
_cell_angle_beta 90.000000
_cell_angle_gamma 90.000000
_cell_volume 3274.762336
_symmetry_space_group_name_H-M "P N M A"
_symmetry_group_IT_number 62
_symmetry_cell_setting 'orthorhombic'
loop_
_space_group_symop_operation_xyz
x,y,z
1/2-x,-y,1/2+z
1/2+x,1/2-y,1/2-z
-x,1/2+y,-z
-x,-y,-z
1/2+x,y,1/2-z
1/2-x,1/2+y,1/2+z
x,1/2-y,z
loop_
_atom_site_type_symbol
_atom_site_label
_atom_site_fract_x
_atom_site_fract_y
_atom_site_fract_z
Si Si1 0.877620 0.924727 0.806103
Si Si2 0.953616 0.070641 0.894683
Si Si3 0.124890 0.569524 0.384494
Si Si4 0.330003 0.570306 0.437184
Si Si5 0.957961 0.927159 0.705315
Si Si6 0.283836 0.571555 0.539397
Si Si7 0.335241 0.919332 0.180249
Si Si8 0.591481 0.081787 0.923211
O O1 0.895079 0.750000 0.818262
O O2 0.905667 0.962429 0.753891
O O3 0.757356 0.965251 0.811172
O O4 0.948339 0.021284 0.841400
O O5 0.948078 0.250000 0.897938
O O6 0.062106 0.007761 0.915841
O O7 0.855056 0.005151 0.922014
O O8 0.121807 0.750000 0.376796
O O9 0.231580 0.510640 0.407680
O O10 0.116882 0.489338 0.335007
O O11 0.027752 0.521791 0.417784
O O12 0.327857 0.750000 0.436214
O O13 0.321554 0.512269 0.489584
O O14 0.978131 0.750000 0.697149
O O15 0.066079 0.016472 0.707304
O O16 0.295217 0.750000 0.544181
O O17 0.161552 0.527936 0.545115
O O18 0.308744 0.750000 0.198371
O O19 0.356823 0.913074 0.126525
O O20 0.591755 0.250000 0.945175
#
# Coordination Sequence:
#
# PCOD8253045 Si02
#       8
#     8   8   8   8   8   8   8   8
#     4  11  23  38  58  85 116 150 190 240 293 345
#     4  11  22  38  59  83 115 151 198 247 290 347
#     4   9  19  39  61  81 113 154 197 241 289 345
#     4   9  21  39  58  83 116 155 195 243 293 345
#     4  10  22  38  57  85 119 150 186 235 293 350
#     4  11  21  35  58  85 115 153 194 239 297 349
#     4  10  20  36  59  83 111 148 189 236 284 337
#     4   9  18  33  56  84 112 143 187 241 283 333
#
# _framework density 19.543402
#
# number of rings (size 3 to 8) (size 9 to 14) (size 15 to 20)
#    0.000    2.000    1.250    3.000    0.000    5.500 
#    0.000    6.875    0.000    0.000    0.000    0.000 
#    0.000    0.000    0.000    0.000    0.000    0.000 
#
# Total GULP energy -793660.050870 kJ/mol
# GULP energy per Si atom -12400.938295 kJ/mol
# Density = 1.949892 g / cm^3
# Si number density = 19.543402 Si / 1000 Ang^3
#
#
#
# Elastic Constant Matrix: (Units=GPa)
#
#
# Indices 1 2 3 4 5 6 
#
# 1 103.3923 20.4340 39.9668 0.0000 0.0000 0.0000
# 2 20.4340 58.2582 27.1530 0.0000 0.0000 0.0000
# 3 39.9668 27.1530 64.3050 0.0000 0.0000 0.0000
# 4 0.0000 0.0000 0.0000 27.4727 0.0000 0.0000
# 5 0.0000 0.0000 0.0000 0.0000 14.7010 0.0000
# 6 0.0000 0.0000 0.0000 0.0000 0.0000 24.5655
#
#
#
# Elastic Compliance Matrix: (Units=1/GPa)
#
#
# Indices 1 2 3 4 5 6 
#
# 1 0.012774 -0.000971 -0.007529 0.000000 0.000000 0.000000
# 2 -0.000971 0.021445 -0.008451 0.000000 0.000000 0.000000
# 3 -0.007529 -0.008451 0.023799 0.000000 0.000000 0.000000
# 4 0.000000 0.000000 0.000000 0.036400 0.000000 0.000000
# 5 0.000000 0.000000 0.000000 0.000000 0.068023 0.000000
# 6 0.000000 0.000000 0.000000 0.000000 0.000000 0.040707
#
#
# Mechanical properties :
#
#
# Convention : Reuss Voigt Hill
#
# Bulk Modulus (GPa) = 41.46960 44.56258 43.01609
# Shear Modulus (GPa) = 20.40064 22.57463 21.48763
#
# Velocity S-wave (km/s) = 3.23439 3.40237 3.31944
# Velocity P-wave (km/s) = 5.93411 6.18758 6.06217
#
# Compressibility (1/GPa) = 0.02411405
#
# Stress axis : x y z
#
# Youngs Moduli (GPa) = 78.28157 46.63158 42.01815
#
# Poissons Ratio (x) = 0.04529 0.31637
# Poissons Ratio (y) = 0.07603 0.35511
# Poissons Ratio (z) = 0.58941 0.39410
#
# Static dielectric constant tensor:
#      x y z
#    x 3.898660 0.000000 0.000000 
#    y 0.000000 3.514020 0.000000 
#    z 0.000000 0.000000 3.587440 
# 
# 
# High freq. dielectric constant tensor:
#      x y z
#    x 1.769340 0.000000 0.000000 
#    y 0.000000 1.754470 0.000000 
#    z 0.000000 0.000000 1.757510 
# 
# From -- ./inp_files/32571.got.cif
#   From: 2010.03.12/outbox.cif.g09.slc.cpg/sg62_17_cif.got.tgz:32571.got - 2010.04.10 19:12:36.
