data_PCOD8253646
_publ_section_title
;
Structure prediction by ZEFSAII (Michael W. Deem and Ramdas Pophale) SiO2 
 PCOD8253646
Probable space group: P N M A
;
_chemical_formula_sum "Si O2"
_cell_formula_units_Z 56
_cell_length_a 16.509890
_cell_length_b 9.233992
_cell_length_c 19.691852
_cell_angle_alpha 90.000000
_cell_angle_beta 90.000000
_cell_angle_gamma 90.000000
_cell_volume 3002.066006
_symmetry_space_group_name_H-M "P N M A"
_symmetry_group_IT_number 62
_symmetry_cell_setting 'orthorhombic'
loop_
_space_group_symop_operation_xyz
x,y,z
1/2-x,-y,1/2+z
1/2+x,1/2-y,1/2-z
-x,1/2+y,-z
-x,-y,-z
1/2+x,y,1/2-z
1/2-x,1/2+y,1/2+z
x,1/2-y,z
loop_
_atom_site_type_symbol
_atom_site_label
_atom_site_fract_x
_atom_site_fract_y
_atom_site_fract_z
Si Si1 0.751327 0.415002 0.244965
Si Si2 0.822072 0.081317 0.386076
Si Si3 0.934234 0.078834 0.045923
Si Si4 0.428553 0.416239 0.299645
Si Si5 0.651651 0.916362 0.145624
Si Si6 0.529247 0.418284 0.830610
Si Si7 0.765773 0.578876 0.024170
O O1 0.725276 0.250000 0.237529
O O2 0.763256 0.457152 0.323492
O O3 0.832850 0.448721 0.203011
O O4 0.678110 0.506433 0.214822
O O5 0.845556 0.250000 0.385224
O O6 0.775611 0.036174 0.453495
O O7 0.905252 0.993410 0.379053
O O8 0.932337 0.250000 0.030354
O O9 0.958819 0.050253 0.124335
O O10 0.847259 0.011621 0.030329
O O11 0.000000 0.000000 0.000000
O O12 0.444980 0.250000 0.279237
O O13 0.474336 0.516031 0.245354
O O14 0.670501 0.750000 0.157289
O O15 0.556835 0.944002 0.133026
O O16 0.702721 0.973170 0.081523
O O17 0.550489 0.250000 0.823740
O O18 0.785021 0.750000 0.028035
#
# Coordination Sequence:
#
# PCOD8253646 Si02
#       7
#     8   8   8   8   8   8   8
#     4   9  17  33  56  78 102 139 188 233 275 331
#     4   9  20  38  57  80 113 152 192 234 282 340
#     4  11  23  39  59  85 116 149 191 237 288 347
#     4   9  19  37  57  78 107 143 186 231 279 339
#     4  10  21  35  54  83 115 146 186 234 287 338
#     4  10  21  35  54  84 116 147 188 238 286 335
#     4  10  21  39  60  82 114 154 192 234 288 343
#
# _framework density 18.653821000000001
#
# number of rings (size 3 to 8) (size 9 to 14) (size 15 to 20)
#    0.000    2.286    1.429    1.714    0.000    6.857 
#    0.000    4.286    0.000    0.000    0.000    0.000 
#    0.000    0.000    0.000    0.000    0.000    0.000 
#
# Total GULP energy -694461.831180 kJ/mol
# GULP energy per Si atom -12401.104128 kJ/mol
# Density = 1.861136 g / cm^3
# Si number density = 18.653821 Si / 1000 Ang^3
#
#
#
# Elastic Constant Matrix: (Units=GPa)
#
#
# Indices 1 2 3 4 5 6 
#
# 1 103.5718 64.7219 64.9270 0.0000 0.0000 0.0000
# 2 64.7219 83.8782 53.7936 0.0000 0.0000 0.0000
# 3 64.9270 53.7936 113.9297 0.0000 0.0000 0.0000
# 4 0.0000 0.0000 0.0000 26.9481 0.0000 0.0000
# 5 0.0000 0.0000 0.0000 0.0000 28.4385 0.0000
# 6 0.0000 0.0000 0.0000 0.0000 0.0000 34.3281
#
#
#
# Elastic Compliance Matrix: (Units=1/GPa)
#
#
# Indices 1 2 3 4 5 6 
#
# 1 0.021401 -0.012467 -0.006310 0.000000 0.000000 0.000000
# 2 -0.012467 0.024363 -0.004398 0.000000 0.000000 0.000000
# 3 -0.006310 -0.004398 0.014450 0.000000 0.000000 0.000000
# 4 0.000000 0.000000 0.000000 0.037108 0.000000 0.000000
# 5 0.000000 0.000000 0.000000 0.000000 0.035164 0.000000
# 6 0.000000 0.000000 0.000000 0.000000 0.000000 0.029131
#
#
# Mechanical properties :
#
#
# Convention : Reuss Voigt Hill
#
# Bulk Modulus (GPa) = 72.13192 74.25162 73.19177
# Shear Modulus (GPa) = 23.51970 25.80542 24.66256
#
# Velocity S-wave (km/s) = 3.55470 3.72342 3.64004
# Velocity P-wave (km/s) = 7.45657 7.64046 7.54908
#
# Compressibility (1/GPa) = 0.01386349
#
# Stress axis : x y z
#
# Youngs Moduli (GPa) = 46.72642 41.04666 69.20402
#
# Poissons Ratio (x) = 0.51172 0.43667
# Poissons Ratio (y) = 0.58253 0.30439
# Poissons Ratio (z) = 0.29484 0.18054
#
# Static dielectric constant tensor:
#      x y z
#    x 3.356560 0.000000 0.000000 
#    y 0.000000 3.410030 0.000000 
#    z 0.000000 0.000000 3.767010 
# 
# 
# High freq. dielectric constant tensor:
#      x y z
#    x 1.718970 0.000000 0.000000 
#    y 0.000000 1.723660 0.000000 
#    z 0.000000 0.000000 1.728890 
# 
# From -- ./inp_files/27076.got.cif
#   From: 2010.03.12/outbox.cif.g09.slc.cpg/sg62_14_cif.got.tgz:27076.got - 2010.04.10 19:12:36.
