data_PCOD8253941
_publ_section_title
;
Structure prediction by ZEFSAII (Michael W. Deem and Ramdas Pophale) SiO2 
 PCOD8253941
Probable space group: P N M A
;
_chemical_formula_sum "Si O2"
_cell_formula_units_Z 56
_cell_length_a 22.448118
_cell_length_b 8.819557
_cell_length_c 14.242839
_cell_angle_alpha 90.000000
_cell_angle_beta 90.000000
_cell_angle_gamma 90.000000
_cell_volume 2819.832249
_symmetry_space_group_name_H-M "P N M A"
_symmetry_group_IT_number 62
_symmetry_cell_setting 'orthorhombic'
loop_
_space_group_symop_operation_xyz
x,y,z
1/2-x,-y,1/2+z
1/2+x,1/2-y,1/2-z
-x,1/2+y,-z
-x,-y,-z
1/2+x,y,1/2-z
1/2-x,1/2+y,1/2+z
x,1/2-y,z
loop_
_atom_site_type_symbol
_atom_site_label
_atom_site_fract_x
_atom_site_fract_y
_atom_site_fract_z
Si Si1 0.649028 0.075495 0.891429
Si Si2 0.720315 0.427427 0.598778
Si Si3 0.501862 0.428222 0.397965
Si Si4 0.284898 0.423038 0.591109
Si Si5 0.383378 0.426992 0.288060
Si Si6 0.652686 0.072217 0.104372
Si Si7 0.605382 0.574858 0.279790
O O1 0.634160 0.250000 0.870308
O O2 0.718703 0.040762 0.873328
O O3 0.610467 0.969709 0.822104
O O4 0.632146 0.033902 0.998446
O O5 0.732967 0.250000 0.607260
O O6 0.696851 0.468749 0.494886
O O7 0.670588 0.474030 0.672858
O O8 0.780627 0.515486 0.621856
O O9 0.500000 0.500000 0.500000
O O10 0.506530 0.250000 0.410101
O O11 0.443253 0.475545 0.340878
O O12 0.558616 0.485579 0.341906
O O13 0.288526 0.250000 0.554020
O O14 0.329282 0.450997 0.676817
O O15 0.370153 0.250000 0.300720
O O16 0.651143 0.250000 0.123980
O O17 0.606714 0.989898 0.174267
O O18 0.587099 0.750000 0.277588
#
# Coordination Sequence:
#
# PCOD8253941 Si02
#       7
#     8   8   8   8   8   8   8
#     4   9  19  36  58  84 114 147 184 230 282 336
#     4  11  21  33  55  86 117 150 189 231 279 338
#     4  11  25  43  61  84 114 149 191 237 285 337
#     4   9  19  35  54  82 118 149 181 227 281 335
#     4  11  23  38  57  81 112 150 191 236 284 335
#     4  10  21  38  59  84 117 151 184 229 282 335
#     4  11  22  37  60  87 115 150 192 236 283 338
#
# _framework density 19.859335999999999
#
# number of rings (size 3 to 8) (size 9 to 14) (size 15 to 20)
#    0.000    1.714    0.000    5.571    0.000   10.857 
#    0.000    0.714    0.000    0.000    0.000    0.000 
#    0.000    0.000    0.000    0.000    0.000    0.000 
#
# Total GULP energy -694649.609464 kJ/mol
# GULP energy per Si atom -12404.457312 kJ/mol
# Density = 1.981414 g / cm^3
# Si number density = 19.859336 Si / 1000 Ang^3
#
#
#
# Elastic Constant Matrix: (Units=GPa)
#
#
# Indices 1 2 3 4 5 6 
#
# 1 64.0277 29.5056 60.7189 0.0000 0.0000 0.0000
# 2 29.5056 62.1234 45.8121 0.0000 0.0000 0.0000
# 3 60.7189 45.8121 140.6993 0.0000 0.0000 0.0000
# 4 0.0000 0.0000 0.0000 40.6959 0.0000 0.0000
# 5 0.0000 0.0000 0.0000 0.0000 30.1050 0.0000
# 6 0.0000 0.0000 0.0000 0.0000 0.0000 27.0789
#
#
#
# Elastic Compliance Matrix: (Units=1/GPa)
#
#
# Indices 1 2 3 4 5 6 
#
# 1 0.027920 -0.005758 -0.010174 0.000000 0.000000 0.000000
# 2 -0.005758 0.022371 -0.004799 0.000000 0.000000 0.000000
# 3 -0.010174 -0.004799 0.013061 0.000000 0.000000 0.000000
# 4 0.000000 0.000000 0.000000 0.024573 0.000000 0.000000
# 5 0.000000 0.000000 0.000000 0.000000 0.033217 0.000000
# 6 0.000000 0.000000 0.000000 0.000000 0.000000 0.036929
#
#
# Mechanical properties :
#
#
# Convention : Reuss Voigt Hill
#
# Bulk Modulus (GPa) = 45.68487 59.88039 52.78263
# Shear Modulus (GPa) = 24.17460 28.29688 26.23574
#
# Velocity S-wave (km/s) = 3.49276 3.77883 3.63861
# Velocity P-wave (km/s) = 6.27056 7.01834 6.65497
#
# Compressibility (1/GPa) = 0.02188908
#
# Stress axis : x y z
#
# Youngs Moduli (GPa) = 35.81670 44.70118 76.56606
#
# Poissons Ratio (x) = 0.25738 0.77899
# Poissons Ratio (y) = 0.20623 0.36745
# Poissons Ratio (z) = 0.36440 0.21453
#
# Static dielectric constant tensor:
#      x y z
#    x 3.420940 0.000000 0.000000 
#    y 0.000000 3.650580 0.000000 
#    z 0.000000 0.000000 3.762180 
# 
# 
# High freq. dielectric constant tensor:
#      x y z
#    x 1.753450 0.000000 0.000000 
#    y 0.000000 1.780610 0.000000 
#    z 0.000000 0.000000 1.789860 
# 
# From -- ./inp_files/20186.got.cif
#   From: 2010.03.12/outbox.cif.g09.slc.cpg/sg62_11_cif.got.tgz:20186.got - 2010.04.10 19:12:36.
