data_PCOD8253500
_publ_section_title
;
Structure prediction by ZEFSAII (Michael W. Deem and Ramdas Pophale) SiO2 
 PCOD8253500
Probable space group: P N M A
;
_chemical_formula_sum "Si O2"
_cell_formula_units_Z 48
_cell_length_a 16.923815
_cell_length_b 15.734150
_cell_length_c 8.892808
_cell_angle_alpha 90.000000
_cell_angle_beta 90.000000
_cell_angle_gamma 90.000000
_cell_volume 2367.993311
_symmetry_space_group_name_H-M "P N M A"
_symmetry_group_IT_number 62
_symmetry_cell_setting 'orthorhombic'
loop_
_space_group_symop_operation_xyz
x,y,z
1/2-x,-y,1/2+z
1/2+x,1/2-y,1/2-z
-x,1/2+y,-z
-x,-y,-z
1/2+x,y,1/2-z
1/2-x,1/2+y,1/2+z
x,1/2-y,z
loop_
_atom_site_type_symbol
_atom_site_label
_atom_site_fract_x
_atom_site_fract_y
_atom_site_fract_z
Si Si1 0.375355 0.654138 0.323006
Si Si2 0.241428 0.845639 0.740809
Si Si3 0.985090 0.052235 0.722271
Si Si4 0.886030 0.049382 0.446364
Si Si5 0.227861 0.403546 0.556132
Si Si6 0.143594 0.463938 0.101603
O O1 0.373134 0.750000 0.391364
O O2 0.465684 0.634540 0.275290
O O3 0.313439 0.653342 0.184669
O O4 0.352640 0.577479 0.435457
O O5 0.243162 0.750000 0.683456
O O6 0.169097 0.888104 0.650149
O O7 0.326020 0.888437 0.708443
O O8 0.233661 0.848261 0.921802
O O9 0.923876 0.089229 0.597477
O O10 0.942139 0.000561 0.856600
O O11 0.043464 0.980567 0.659616
O O12 0.836987 0.969050 0.507502
O O13 0.298971 0.456644 0.626048
#
# Coordination Sequence:
#
# PCOD8253500 Si02
#       6
#     8   8   8   8   8   8
#     4  11  24  39  59  93 131 157 199 263 314 355
#     4  11  22  37  60  90 121 152 199 259 303 343
#     4  10  20  39  63  85 116 164 207 238 302 378
#     4   9  20  37  61  88 115 158 208 248 294 372
#     4  10  20  39  62  86 118 163 207 241 302 371
#     4  11  21  39  63  88 113 166 208 245 292 371
#
# _framework density 20.270327000000002
#
# number of rings (size 3 to 8) (size 9 to 14) (size 15 to 20)
#    0.000    1.667    1.667    4.500    2.333    0.667 
#    0.000    5.000    0.000    0.000    0.000    0.000 
#    0.000    0.000    0.000    0.000    0.000    0.000 
#
# Total GULP energy -594818.239548 kJ/mol
# GULP energy per Si atom -12392.046657 kJ/mol
# Density = 2.022419 g / cm^3
# Si number density = 20.270327 Si / 1000 Ang^3
#
#
#
# Elastic Constant Matrix: (Units=GPa)
#
#
# Indices 1 2 3 4 5 6 
#
# 1 99.5334 40.3351 37.4540 0.0000 0.0000 0.0000
# 2 40.3351 95.8078 33.7853 0.0000 0.0000 0.0000
# 3 37.4540 33.7853 90.7166 0.0000 0.0000 0.0000
# 4 0.0000 0.0000 0.0000 21.1868 0.0000 0.0000
# 5 0.0000 0.0000 0.0000 0.0000 37.8236 0.0000
# 6 0.0000 0.0000 0.0000 0.0000 0.0000 18.1774
#
#
#
# Elastic Compliance Matrix: (Units=1/GPa)
#
#
# Indices 1 2 3 4 5 6 
#
# 1 0.013209 -0.004188 -0.003894 0.000000 0.000000 0.000000
# 2 -0.004188 0.013343 -0.003240 0.000000 0.000000 0.000000
# 3 -0.003894 -0.003240 0.013838 0.000000 0.000000 0.000000
# 4 0.000000 0.000000 0.000000 0.047199 0.000000 0.000000
# 5 0.000000 0.000000 0.000000 0.000000 0.026439 0.000000
# 6 0.000000 0.000000 0.000000 0.000000 0.000000 0.055013
#
#
# Mechanical properties :
#
#
# Convention : Reuss Voigt Hill
#
# Bulk Modulus (GPa) = 56.35105 56.57852 56.46478
# Shear Modulus (GPa) = 25.30347 27.06980 26.18664
#
# Velocity S-wave (km/s) = 3.53696 3.65833 3.59816
# Velocity P-wave (km/s) = 6.67385 6.76883 6.72151
#
# Compressibility (1/GPa) = 0.01774590
#
# Stress axis : x y z
#
# Youngs Moduli (GPa) = 75.70422 74.94364 72.26555
#
# Poissons Ratio (x) = 0.31386 0.28140
# Poissons Ratio (y) = 0.31705 0.23417
# Poissons Ratio (z) = 0.29479 0.24284
#
# Static dielectric constant tensor:
#      x y z
#    x 3.966920 0.000000 0.000000 
#    y 0.000000 3.434720 0.000000 
#    z 0.000000 0.000000 3.701750 
# 
# 
# High freq. dielectric constant tensor:
#      x y z
#    x 1.797020 0.000000 0.000000 
#    y 0.000000 1.766160 0.000000 
#    z 0.000000 0.000000 1.799170 
# 
# From -- ./inp_files/7668.got.cif
#   From: 2010.03.12/outbox.cif.g09.slc.cpg/sg62_4_cif.got.tgz:7668.got - 2010.04.10 19:12:36.
