data_PCOD8253716
_publ_section_title
;
Structure prediction by ZEFSAII (Michael W. Deem and Ramdas Pophale) SiO2 
 PCOD8253716
Probable space group: P N M A
;
_chemical_formula_sum "Si O2"
_cell_formula_units_Z 64
_cell_length_a 10.831644
_cell_length_b 30.061618
_cell_length_c 9.496549
_cell_angle_alpha 90.000000
_cell_angle_beta 90.000000
_cell_angle_gamma 90.000000
_cell_volume 3092.235367
_symmetry_space_group_name_H-M "P N M A"
_symmetry_group_IT_number 62
_symmetry_cell_setting 'orthorhombic'
loop_
_space_group_symop_operation_xyz
x,y,z
1/2-x,-y,1/2+z
1/2+x,1/2-y,1/2-z
-x,1/2+y,-z
-x,-y,-z
1/2+x,y,1/2-z
1/2-x,1/2+y,1/2+z
x,1/2-y,z
loop_
_atom_site_type_symbol
_atom_site_label
_atom_site_fract_x
_atom_site_fract_y
_atom_site_fract_z
Si Si1 0.747956 0.162552 0.198951
Si Si2 0.802706 0.120017 0.911491
Si Si3 0.225152 0.405705 0.075273
Si Si4 0.518357 0.801627 0.880431
Si Si5 0.433755 0.033166 0.162832
Si Si6 0.109842 0.639568 0.378278
Si Si7 0.019369 0.948652 0.970595
Si Si8 0.066070 0.436621 0.594278
O O1 0.708809 0.116110 0.270837
O O2 0.617427 0.189720 0.189581
O O3 0.864062 0.185270 0.281304
O O4 0.801328 0.152749 0.044216
O O5 0.852087 0.151362 0.782407
O O6 0.669347 0.100148 0.879325
O O7 0.879819 0.074664 0.932711
O O8 0.312213 0.448815 0.086221
O O9 0.103550 0.421807 0.999168
O O10 0.269402 0.365862 0.974273
O O11 0.530199 0.750000 0.912508
O O12 0.523197 0.825970 0.034779
O O13 0.447409 0.058932 0.307965
O O14 0.420315 0.980240 0.192193
O O15 0.554187 0.044746 0.066762
O O16 0.056494 0.589795 0.366417
O O17 0.000000 0.000000 0.000000
#
# Coordination Sequence:
#
# PCOD8253716 Si02
#       8
#     8   8   8   8   8   8   8   8
#     4  11  22  43  75 100 131 171 221 276 339 415
#     4  12  23  38  65  91 126 172 221 263 328 398
#     4  10  22  40  58  86 125 167 220 262 325 376
#     4  11  24  47  73 104 132 166 215 281 352 423
#     4  10  21  36  57  83 124 176 217 276 307 368
#     4  10  24  40  65  89 124 174 206 271 329 408
#     4  12  24  34  55  89 126 168 225 277 314 367
#     4  10  21  40  58  83 125 172 226 257 322 375
#
# _framework density 20.697002999999999
#
# number of rings (size 3 to 8) (size 9 to 14) (size 15 to 20)
#    0.000    1.250    2.500    3.375    5.250    0.000 
#    0.000    1.250    0.000    0.000    0.000    0.000 
#    0.000    0.000    0.000    0.000    0.000    0.000 
#
# Total GULP energy -792994.061027 kJ/mol
# GULP energy per Si atom -12390.532204 kJ/mol
# Density = 2.064990 g / cm^3
# Si number density = 20.697003 Si / 1000 Ang^3
#
#
#
# Elastic Constant Matrix: (Units=GPa)
#
#
# Indices 1 2 3 4 5 6 
#
# 1 78.2082 23.6145 35.6045 0.0000 0.0000 0.0000
# 2 23.6145 97.4046 32.9032 0.0000 0.0000 0.0000
# 3 35.6045 32.9032 106.9878 0.0000 0.0000 0.0000
# 4 0.0000 0.0000 0.0000 22.4881 0.0000 0.0000
# 5 0.0000 0.0000 0.0000 0.0000 22.4845 0.0000
# 6 0.0000 0.0000 0.0000 0.0000 0.0000 27.7055
#
#
#
# Elastic Compliance Matrix: (Units=1/GPa)
#
#
# Indices 1 2 3 4 5 6 
#
# 1 0.015499 -0.002249 -0.004466 0.000000 0.000000 0.000000
# 2 -0.002249 0.011783 -0.002875 0.000000 0.000000 0.000000
# 3 -0.004466 -0.002875 0.011717 0.000000 0.000000 0.000000
# 4 0.000000 0.000000 0.000000 0.044468 0.000000 0.000000
# 5 0.000000 0.000000 0.000000 0.000000 0.044475 0.000000
# 6 0.000000 0.000000 0.000000 0.000000 0.000000 0.036094
#
#
# Mechanical properties :
#
#
# Convention : Reuss Voigt Hill
#
# Bulk Modulus (GPa) = 50.45828 51.87166 51.16497
# Shear Modulus (GPa) = 26.34036 27.23419 26.78728
#
# Velocity S-wave (km/s) = 3.57131 3.63140 3.60148
# Velocity P-wave (km/s) = 6.43725 6.53449 6.48605
#
# Compressibility (1/GPa) = 0.01981835
#
# Stress axis : x y z
#
# Youngs Moduli (GPa) = 64.52179 84.86847 85.34261
#
# Poissons Ratio (x) = 0.19085 0.38116
# Poissons Ratio (y) = 0.14509 0.24539
# Poissons Ratio (z) = 0.28817 0.24403
#
# Static dielectric constant tensor:
#      x y z
#    x 3.866200 0.000000 0.000000 
#    y 0.000000 3.573740 0.000000 
#    z 0.000000 0.000000 4.219580 
# 
# 
# High freq. dielectric constant tensor:
#      x y z
#    x 1.816030 0.000000 0.000000 
#    y 0.000000 1.780170 0.000000 
#    z 0.000000 0.000000 1.814130 
# 
# From -- ./inp_files/5513.got.cif
#   From: 2010.03.12/outbox.cif.g09.slc.cpg/sg62_3_cif.got.tgz:5513.got - 2010.04.10 19:12:36.
