data_PCOD8253492
_publ_section_title
;
Structure prediction by ZEFSAII (Michael W. Deem and Ramdas Pophale) SiO2 
 PCOD8253492
Probable space group: P N M A
;
_chemical_formula_sum "Si O2"
_cell_formula_units_Z 48
_cell_length_a 20.324933
_cell_length_b 8.698120
_cell_length_c 14.030356
_cell_angle_alpha 90.000000
_cell_angle_beta 90.000000
_cell_angle_gamma 90.000000
_cell_volume 2480.408485
_symmetry_space_group_name_H-M "P N M A"
_symmetry_group_IT_number 62
_symmetry_cell_setting 'orthorhombic'
loop_
_space_group_symop_operation_xyz
x,y,z
1/2-x,-y,1/2+z
1/2+x,1/2-y,1/2-z
-x,1/2+y,-z
-x,-y,-z
1/2+x,y,1/2-z
1/2-x,1/2+y,1/2+z
x,1/2-y,z
loop_
_atom_site_type_symbol
_atom_site_label
_atom_site_fract_x
_atom_site_fract_y
_atom_site_fract_z
Si Si1 0.191048 0.574235 0.450159
Si Si2 0.109669 0.931460 0.755348
Si Si3 0.685206 0.425685 0.417375
Si Si4 0.253195 0.431150 0.756006
Si Si5 0.564756 0.067739 0.547204
Si Si6 0.936808 0.067772 0.449918
O O1 0.174865 0.750000 0.427841
O O2 0.247877 0.557536 0.526223
O O3 0.214732 0.498009 0.351758
O O4 0.125703 0.496402 0.493408
O O5 0.110274 0.750000 0.770486
O O6 0.067793 0.978678 0.661553
O O7 0.184073 0.985980 0.738859
O O8 0.074640 0.008165 0.845740
O O9 0.672582 0.250000 0.385977
O O10 0.693270 0.532720 0.325279
O O11 0.625679 0.486901 0.482193
O O12 0.239547 0.250000 0.764312
O O13 0.560163 0.250000 0.551118
O O14 0.500000 0.000000 0.500000
O O15 0.937426 0.250000 0.458374
O O16 0.000000 0.000000 0.500000
#
# Coordination Sequence:
#
# PCOD8253492 Si02
#       6
#     8   8   8   8   8   8
#     4   9  18  37  59  82 116 155 193 241 299 348
#     4  11  22  39  63  89 121 162 203 248 309 368
#     4  10  20  39  61  84 119 159 197 246 303 356
#     4  11  21  35  61  94 121 154 205 255 301 359
#     4  11  24  42  64  90 125 163 203 253 308 370
#     4  10  22  40  61  85 119 159 198 245 300 358
#
# _framework density 19.351652000000001
#
# number of rings (size 3 to 8) (size 9 to 14) (size 15 to 20)
#    0.000    1.667    3.333    1.500    0.000    4.000 
#    0.000    5.000    0.000    0.000    0.000    0.000 
#    0.000    0.000    0.000    0.000    0.000    0.000 
#
# Total GULP energy -595165.010677 kJ/mol
# GULP energy per Si atom -12399.271056 kJ/mol
# Density = 1.930761 g / cm^3
# Si number density = 19.351652 Si / 1000 Ang^3
#
#
#
# Elastic Constant Matrix: (Units=GPa)
#
#
# Indices 1 2 3 4 5 6 
#
# 1 119.5727 26.0287 42.5105 0.0000 0.0000 0.0000
# 2 26.0287 50.8026 36.8356 0.0000 0.0000 0.0000
# 3 42.5105 36.8356 128.8133 0.0000 0.0000 0.0000
# 4 0.0000 0.0000 0.0000 32.5150 0.0000 0.0000
# 5 0.0000 0.0000 0.0000 0.0000 32.0892 0.0000
# 6 0.0000 0.0000 0.0000 0.0000 0.0000 30.5237
#
#
#
# Elastic Compliance Matrix: (Units=1/GPa)
#
#
# Indices 1 2 3 4 5 6 
#
# 1 0.009924 -0.003419 -0.002297 0.000000 0.000000 0.000000
# 2 -0.003419 0.026011 -0.006310 0.000000 0.000000 0.000000
# 3 -0.002297 -0.006310 0.010326 0.000000 0.000000 0.000000
# 4 0.000000 0.000000 0.000000 0.030755 0.000000 0.000000
# 5 0.000000 0.000000 0.000000 0.000000 0.031163 0.000000
# 6 0.000000 0.000000 0.000000 0.000000 0.000000 0.032761
#
#
# Mechanical properties :
#
#
# Convention : Reuss Voigt Hill
#
# Bulk Modulus (GPa) = 45.02789 56.65978 50.84383
# Shear Modulus (GPa) = 29.00315 31.94650 30.47483
#
# Velocity S-wave (km/s) = 3.87556 4.06746 3.97267
# Velocity P-wave (km/s) = 6.58372 7.16949 6.88284
#
# Compressibility (1/GPa) = 0.02220846
#
# Stress axis : x y z
#
# Youngs Moduli (GPa) = 100.76460 38.44569 96.84545
#
# Poissons Ratio (x) = 0.13144 0.22250
# Poissons Ratio (y) = 0.34449 0.61107
# Poissons Ratio (z) = 0.23150 0.24258
#
# Static dielectric constant tensor:
#      x y z
#    x 3.523420 0.000000 0.000000 
#    y 0.000000 3.383750 0.000000 
#    z 0.000000 0.000000 3.926720 
# 
# 
# High freq. dielectric constant tensor:
#      x y z
#    x 1.754300 0.000000 0.000000 
#    y 0.000000 1.736730 0.000000 
#    z 0.000000 0.000000 1.772430 
# 
# From -- ./inp_files/19646.got.cif
#   From: 2010.03.12/outbox.cif.g09.slc.cpg/sg62_10_cif.got.tgz:19646.got - 2010.04.10 19:12:36.
