data_PCOD8253287
_publ_section_title
;
Structure prediction by ZEFSAII (Michael W. Deem and Ramdas Pophale) SiO2 
 PCOD8253287
Probable space group: P N M A
;
_chemical_formula_sum "Si O2"
_cell_formula_units_Z 48
_cell_length_a 13.715089
_cell_length_b 13.741727
_cell_length_c 11.822276
_cell_angle_alpha 90.000000
_cell_angle_beta 90.000000
_cell_angle_gamma 90.000000
_cell_volume 2228.132640
_symmetry_space_group_name_H-M "P N M A"
_symmetry_group_IT_number 62
_symmetry_cell_setting 'orthorhombic'
loop_
_space_group_symop_operation_xyz
x,y,z
1/2-x,-y,1/2+z
1/2+x,1/2-y,1/2-z
-x,1/2+y,-z
-x,-y,-z
1/2+x,y,1/2-z
1/2-x,1/2+y,1/2+z
x,1/2-y,z
loop_
_atom_site_type_symbol
_atom_site_label
_atom_site_fract_x
_atom_site_fract_y
_atom_site_fract_z
Si Si1 0.775725 0.942551 0.295746
Si Si2 0.896686 0.364562 0.924608
Si Si3 0.838360 0.138662 0.594402
Si Si4 0.729143 0.358545 0.363838
Si Si5 0.494423 0.859955 0.649321
Si Si6 0.005919 0.455242 0.716831
O O1 0.709933 0.911529 0.403821
O O2 0.745028 0.883007 0.185780
O O3 0.887925 0.918567 0.320959
O O4 0.758047 0.058667 0.272931
O O5 0.888892 0.250000 0.912349
O O6 0.972378 0.402234 0.831171
O O7 0.934422 0.394622 0.048461
O O8 0.871838 0.250000 0.608129
O O9 0.794961 0.118216 0.472278
O O10 0.931725 0.069168 0.615047
O O11 0.751130 0.250000 0.315601
O O12 0.615804 0.367117 0.397321
O O13 0.518688 0.750000 0.688063
O O14 0.508885 0.928779 0.758370
#
# Coordination Sequence:
#
# PCOD8253287 Si02
#       6
#     8   8   8   8   8   8
#     4  11  22  34  61  87 120 152 197 243 296 353
#     4  10  21  36  56  88 119 148 197 252 293 340
#     4  10  22  39  59  87 120 154 197 246 296 351
#     4  10  21  39  62  86 117 158 198 241 299 357
#     4  10  20  37  62  86 113 152 201 250 293 343
#     4  11  21  35  59  88 116 156 194 243 295 353
#
# _framework density 21.542704000000001
#
# number of rings (size 3 to 8) (size 9 to 14) (size 15 to 20)
#    0.000    1.667    3.333    3.500    2.333    5.333 
#    0.000    0.000    0.000    2.000    0.000    0.000 
#    0.000    0.000    0.000    0.000    0.000    0.000 
#
# Total GULP energy -595179.579743 kJ/mol
# GULP energy per Si atom -12399.574578 kJ/mol
# Density = 2.149367 g / cm^3
# Si number density = 21.542704 Si / 1000 Ang^3
#
#
#
# Elastic Constant Matrix: (Units=GPa)
#
#
# Indices 1 2 3 4 5 6 
#
# 1 151.2885 28.9529 20.2707 0.0000 0.0000 0.0000
# 2 28.9529 106.9671 22.0937 0.0000 0.0000 0.0000
# 3 20.2707 22.0937 31.7824 0.0000 0.0000 0.0000
# 4 0.0000 0.0000 0.0000 22.1998 0.0000 0.0000
# 5 0.0000 0.0000 0.0000 0.0000 16.8354 0.0000
# 6 0.0000 0.0000 0.0000 0.0000 0.0000 22.8448
#
#
#
# Elastic Compliance Matrix: (Units=1/GPa)
#
#
# Indices 1 2 3 4 5 6 
#
# 1 0.007356 -0.001193 -0.003862 0.000000 0.000000 0.000000
# 2 -0.001193 0.011110 -0.006962 0.000000 0.000000 0.000000
# 3 -0.003862 -0.006962 0.038767 0.000000 0.000000 0.000000
# 4 0.000000 0.000000 0.000000 0.045046 0.000000 0.000000
# 5 0.000000 0.000000 0.000000 0.000000 0.059399 0.000000
# 6 0.000000 0.000000 0.000000 0.000000 0.000000 0.043774
#
#
# Mechanical properties :
#
#
# Convention : Reuss Voigt Hill
#
# Bulk Modulus (GPa) = 30.12240 48.07471 39.09855
# Shear Modulus (GPa) = 20.78571 26.95737 23.87154
#
# Velocity S-wave (km/s) = 3.10959 3.54127 3.33243
# Velocity P-wave (km/s) = 5.18707 6.25182 5.74417
#
# Compressibility (1/GPa) = 0.03319789
#
# Stress axis : x y z
#
# Youngs Moduli (GPa) = 135.94889 90.01227 25.79539
#
# Poissons Ratio (x) = 0.10741 0.09962
# Poissons Ratio (y) = 0.16223 0.17958
# Poissons Ratio (z) = 0.52502 0.62665
#
# Static dielectric constant tensor:
#      x y z
#    x 3.987030 0.000000 0.000000 
#    y 0.000000 4.244870 0.000000 
#    z 0.000000 0.000000 3.440230 
# 
# 
# High freq. dielectric constant tensor:
#      x y z
#    x 1.852870 0.000000 0.000000 
#    y 0.000000 1.864780 0.000000 
#    z 0.000000 0.000000 1.805760 
# 
# From -- ./inp_files/13280.got.cif
#   From: 2010.03.12/outbox.cif.g09.slc.cpg/sg62_7_cif.got.tgz:13280.got - 2010.04.10 19:12:36.
