data_PCOD8253178
_publ_section_title
;
Structure prediction by ZEFSAII (Michael W. Deem and Ramdas Pophale) SiO2 
 PCOD8253178
Probable space group: P N M A
;
_chemical_formula_sum "Si O2"
_cell_formula_units_Z 64
_cell_length_a 18.542703
_cell_length_b 8.929866
_cell_length_c 20.250461
_cell_angle_alpha 90.000000
_cell_angle_beta 90.000000
_cell_angle_gamma 90.000000
_cell_volume 3353.149359
_symmetry_space_group_name_H-M "P N M A"
_symmetry_group_IT_number 62
_symmetry_cell_setting 'orthorhombic'
loop_
_space_group_symop_operation_xyz
x,y,z
1/2-x,-y,1/2+z
1/2+x,1/2-y,1/2-z
-x,1/2+y,-z
-x,-y,-z
1/2+x,y,1/2-z
1/2-x,1/2+y,1/2+z
x,1/2-y,z
loop_
_atom_site_type_symbol
_atom_site_label
_atom_site_fract_x
_atom_site_fract_y
_atom_site_fract_z
Si Si1 0.707972 0.425560 0.934309
Si Si2 0.542167 0.422600 0.326068
Si Si3 0.542319 0.426990 0.560056
Si Si4 0.538733 0.075595 0.172764
Si Si5 0.207284 0.074534 0.179631
Si Si6 0.303031 0.072450 0.441668
Si Si7 0.455710 0.573184 0.058711
Si Si8 0.300268 0.927654 0.825779
O O1 0.710456 0.250000 0.924697
O O2 0.735693 0.496739 0.867134
O O3 0.626934 0.479003 0.948909
O O4 0.758652 0.476228 0.994136
O O5 0.527031 0.250000 0.344391
O O6 0.492717 0.528246 0.370408
O O7 0.522486 0.452059 0.249869
O O8 0.625277 0.463227 0.340826
O O9 0.500000 0.500000 0.500000
O O10 0.539932 0.250000 0.551797
O O11 0.623627 0.482560 0.558132
O O12 0.529918 0.250000 0.154861
O O13 0.619330 0.017693 0.155364
O O14 0.483197 0.980045 0.130012
O O15 0.220794 0.250000 0.176187
O O16 0.221995 0.012679 0.253503
O O17 0.317573 0.250000 0.439299
O O18 0.257537 0.016374 0.378662
O O19 0.463423 0.750000 0.053146
O O20 0.500000 0.500000 0.000000
O O21 0.304151 0.750000 0.822999
#
# Coordination Sequence:
#
# PCOD8253178 Si02
#       8
#     8   8   8   8   8   8   8   8
#     4  10  22  37  54  78 109 143 177 223 278 326
#     4   9  19  37  60  85 113 145 182 223 269 324
#     4  12  25  39  56  80 111 144 183 230 277 326
#     4   9  18  36  61  86 113 146 183 223 269 322
#     4   9  18  34  58  84 108 139 180 222 262 316
#     4  10  20  37  59  79 104 141 183 224 272 326
#     4  11  23  38  56  81 113 147 186 229 274 325
#     4   8  16  34  59  83 108 141 180 220 265 319
#
# _framework density 19.086534
#
# number of rings (size 3 to 8) (size 9 to 14) (size 15 to 20)
#    0.000    2.250    0.000    4.500    0.000    7.500 
#    0.000    8.125    0.000    0.000    0.000    0.000 
#    0.000    0.000    0.000    0.000    0.000    0.000 
#
# Total GULP energy -793687.612201 kJ/mol
# GULP energy per Si atom -12401.368941 kJ/mol
# Density = 1.904309 g / cm^3
# Si number density = 19.086534 Si / 1000 Ang^3
#
#
#
# Elastic Constant Matrix: (Units=GPa)
#
#
# Indices 1 2 3 4 5 6 
#
# 1 121.6640 53.1968 64.8084 0.0000 0.0000 0.0000
# 2 53.1968 51.9909 46.4590 0.0000 0.0000 0.0000
# 3 64.8084 46.4590 112.1505 0.0000 0.0000 0.0000
# 4 0.0000 0.0000 0.0000 33.1781 0.0000 0.0000
# 5 0.0000 0.0000 0.0000 0.0000 38.6620 0.0000
# 6 0.0000 0.0000 0.0000 0.0000 0.0000 31.0349
#
#
#
# Elastic Compliance Matrix: (Units=1/GPa)
#
#
# Indices 1 2 3 4 5 6 
#
# 1 0.015870 -0.012771 -0.003881 0.000000 0.000000 0.000000
# 2 -0.012771 0.040815 -0.009528 0.000000 0.000000 0.000000
# 3 -0.003881 -0.009528 0.015106 0.000000 0.000000 0.000000
# 4 0.000000 0.000000 0.000000 0.030140 0.000000 0.000000
# 5 0.000000 0.000000 0.000000 0.000000 0.025865 0.000000
# 6 0.000000 0.000000 0.000000 0.000000 0.000000 0.032222
#
#
# Mechanical properties :
#
#
# Convention : Reuss Voigt Hill
#
# Bulk Modulus (GPa) = 51.45930 68.30375 59.88152
# Shear Modulus (GPa) = 22.84603 28.66442 25.75522
#
# Velocity S-wave (km/s) = 3.46348 3.87953 3.67739
# Velocity P-wave (km/s) = 6.55849 7.47875 7.03369
#
# Compressibility (1/GPa) = 0.01943283
#
# Stress axis : x y z
#
# Youngs Moduli (GPa) = 63.01004 24.50054 66.19778
#
# Poissons Ratio (x) = 0.31289 0.25690
# Poissons Ratio (y) = 0.80469 0.63074
# Poissons Ratio (z) = 0.24452 0.23345
#
# Static dielectric constant tensor:
#      x y z
#    x 3.624620 0.000000 0.000000 
#    y 0.000000 3.275100 0.000000 
#    z 0.000000 0.000000 4.540830 
# 
# 
# High freq. dielectric constant tensor:
#      x y z
#    x 1.748800 0.000000 0.000000 
#    y 0.000000 1.721070 0.000000 
#    z 0.000000 0.000000 1.757660 
# 
# From -- ./inp_files/27760.got.cif
#   From: 2010.03.12/outbox.cif.g09.slc.cpg/sg62_14_cif.got.tgz:27760.got - 2010.04.10 19:12:36.
