data_PCOD8253021
_publ_section_title
;
Structure prediction by ZEFSAII (Michael W. Deem and Ramdas Pophale) SiO2 
 PCOD8253021
Probable space group: P N M A
;
_chemical_formula_sum "Si O2"
_cell_formula_units_Z 40
_cell_length_a 13.550405
_cell_length_b 8.485739
_cell_length_c 17.883017
_cell_angle_alpha 90.000000
_cell_angle_beta 90.000000
_cell_angle_gamma 90.000000
_cell_volume 2056.282289
_symmetry_space_group_name_H-M "P N M A"
_symmetry_group_IT_number 62
_symmetry_cell_setting 'orthorhombic'
loop_
_space_group_symop_operation_xyz
x,y,z
1/2-x,-y,1/2+z
1/2+x,1/2-y,1/2-z
-x,1/2+y,-z
-x,-y,-z
1/2+x,y,1/2-z
1/2-x,1/2+y,1/2+z
x,1/2-y,z
loop_
_atom_site_type_symbol
_atom_site_label
_atom_site_fract_x
_atom_site_fract_y
_atom_site_fract_z
Si Si1 0.589455 0.434479 0.173107
Si Si2 0.869784 0.066453 0.370751
Si Si3 0.196726 0.065517 0.477754
Si Si4 0.672480 0.568241 0.322688
Si Si5 0.103080 0.434204 0.027061
O O1 0.601537 0.250000 0.189799
O O2 0.476410 0.481534 0.159625
O O3 0.653418 0.485715 0.101728
O O4 0.628035 0.534019 0.242224
O O5 0.848992 0.250000 0.359735
O O6 0.863235 0.026571 0.458435
O O7 0.788775 0.971489 0.323131
O O8 0.182554 0.250000 0.491941
O O9 0.311896 0.021507 0.480005
O O10 0.657576 0.750000 0.343115
O O11 0.615991 0.465206 0.384728
O O12 0.109582 0.250000 0.010957
O O13 0.000000 0.500000 0.000000
#
# Coordination Sequence:
#
# PCOD8253021 Si02
#       5
#     8   8   8   8   8
#     4  10  22  38  58  84 114 150 186 227 280 332
#     4  10  20  37  59  81 111 148 184 226 278 332
#     4  10  20  36  58  85 115 146 186 230 275 331
#     4  11  23  38  57  83 114 147 186 232 279 328
#     4  11  22  39  61  83 112 149 189 231 279 333
#
# _framework density 19.452582
#
# number of rings (size 3 to 8) (size 9 to 14) (size 15 to 20)
#    0.000    1.600    0.000    7.800    0.000    4.800 
#    0.000    2.000    0.000    0.000    0.000    0.000 
#    0.000    0.000    0.000    0.000    0.000    0.000 
#
# Total GULP energy -496206.172129 kJ/mol
# GULP energy per Si atom -12405.154303 kJ/mol
# Density = 1.940831 g / cm^3
# Si number density = 19.452582 Si / 1000 Ang^3
#
#
#
# Elastic Constant Matrix: (Units=GPa)
#
#
# Indices 1 2 3 4 5 6 
#
# 1 125.8327 24.5722 74.4399 0.0000 0.0000 0.0000
# 2 24.5722 52.3608 17.4344 0.0000 0.0000 0.0000
# 3 74.4399 17.4344 102.9287 0.0000 0.0000 0.0000
# 4 0.0000 0.0000 0.0000 34.7035 0.0000 0.0000
# 5 0.0000 0.0000 0.0000 0.0000 28.4699 0.0000
# 6 0.0000 0.0000 0.0000 0.0000 0.0000 30.2750
#
#
#
# Elastic Compliance Matrix: (Units=1/GPa)
#
#
# Indices 1 2 3 4 5 6 
#
# 1 0.014472 -0.003504 -0.009873 0.000000 0.000000 0.000000
# 2 -0.003504 0.021088 -0.001038 0.000000 0.000000 0.000000
# 3 -0.009873 -0.001038 0.017031 0.000000 0.000000 0.000000
# 4 0.000000 0.000000 0.000000 0.028816 0.000000 0.000000
# 5 0.000000 0.000000 0.000000 0.000000 0.035125 0.000000
# 6 0.000000 0.000000 0.000000 0.000000 0.000000 0.033031
#
#
# Mechanical properties :
#
#
# Convention : Reuss Voigt Hill
#
# Bulk Modulus (GPa) = 42.08365 57.11279 49.59822
# Shear Modulus (GPa) = 26.83666 29.66807 28.25236
#
# Velocity S-wave (km/s) = 3.71832 3.90955 3.81513
# Velocity P-wave (km/s) = 6.33368 7.05714 6.70517
#
# Compressibility (1/GPa) = 0.02376220
#
# Stress axis : x y z
#
# Youngs Moduli (GPa) = 69.09973 47.41985 58.71511
#
# Poissons Ratio (x) = 0.16617 0.57968
# Poissons Ratio (y) = 0.24213 0.06093
# Poissons Ratio (z) = 0.68220 0.04921
#
# Static dielectric constant tensor:
#      x y z
#    x 3.666280 0.000000 0.000000 
#    y 0.000000 3.641310 0.000000 
#    z 0.000000 0.000000 3.465620 
# 
# 
# High freq. dielectric constant tensor:
#      x y z
#    x 1.767290 0.000000 0.000000 
#    y 0.000000 1.768080 0.000000 
#    z 0.000000 0.000000 1.753840 
# 
# From -- ./inp_files/18631.got.cif
#   From: 2010.03.12/outbox.cif.g09.slc.cpg/sg62_10_cif.got.tgz:18631.got - 2010.04.10 19:12:36.
