data_PCOD8253227
_publ_section_title
;
Structure prediction by ZEFSAII (Michael W. Deem and Ramdas Pophale) SiO2 
 PCOD8253227
Probable space group: P N M A
;
_chemical_formula_sum "Si O2"
_cell_formula_units_Z 64
_cell_length_a 25.100779
_cell_length_b 8.839040
_cell_length_c 14.383994
_cell_angle_alpha 90.000000
_cell_angle_beta 90.000000
_cell_angle_gamma 90.000000
_cell_volume 3191.330571
_symmetry_space_group_name_H-M "P N M A"
_symmetry_group_IT_number 62
_symmetry_cell_setting 'orthorhombic'
loop_
_space_group_symop_operation_xyz
x,y,z
1/2-x,-y,1/2+z
1/2+x,1/2-y,1/2-z
-x,1/2+y,-z
-x,-y,-z
1/2+x,y,1/2-z
1/2-x,1/2+y,1/2+z
x,1/2-y,z
loop_
_atom_site_type_symbol
_atom_site_label
_atom_site_fract_x
_atom_site_fract_y
_atom_site_fract_z
Si Si1 0.715619 0.576898 0.847138
Si Si2 0.451423 0.929712 0.554468
Si Si3 0.921526 0.071844 0.755635
Si Si4 0.189883 0.072227 0.287390
Si Si5 0.108669 0.070998 0.707827
Si Si6 0.365292 0.929403 0.409684
Si Si7 0.252340 0.424573 0.944019
Si Si8 0.494756 0.571768 0.100787
O O1 0.699957 0.750000 0.827511
O O2 0.759792 0.520505 0.774237
O O3 0.662812 0.477408 0.842250
O O4 0.741301 0.555409 0.947107
O O5 0.456791 0.750000 0.557455
O O6 0.398578 0.982759 0.499093
O O7 0.500000 0.000000 0.500000
O O8 0.450706 0.993923 0.658034
O O9 0.921864 0.250000 0.772409
O O10 0.953739 0.028915 0.662263
O O11 0.861793 0.013069 0.748844
O O12 0.179039 0.250000 0.280414
O O13 0.202316 0.022153 0.392616
O O14 0.105514 0.250000 0.708570
O O15 0.108152 0.009518 0.814141
O O16 0.057865 0.005822 0.652162
O O17 0.362762 0.750000 0.408303
O O18 0.305354 0.992381 0.417171
O O19 0.258441 0.250000 0.913813
O O20 0.489869 0.750000 0.087865
O O21 0.500000 0.500000 0.000000
#
# Coordination Sequence:
#
# PCOD8253227 Si02
#       8
#     8   8   8   8   8   8   8   8
#     4  10  22  38  58  88 125 160 197 246 305 364
#     4  11  22  39  64  94 126 162 204 254 310 369
#     4  11  24  43  64  89 124 165 208 255 310 373
#     4  11  23  40  61  90 126 160 200 253 305 361
#     4  10  20  38  63  87 114 154 203 251 300 360
#     4   9  18  36  62  87 119 159 198 245 303 364
#     4  10  20  37  60  84 115 159 201 241 303 368
#     4  10  24  43  63  88 120 160 208 259 310 363
#
# _framework density 20.054331000000001
#
# number of rings (size 3 to 8) (size 9 to 14) (size 15 to 20)
#    0.000    1.750    1.250    2.625    1.750    6.500 
#    0.000    5.000    0.000    0.000    0.000    0.000 
#    0.000    0.000    0.000    0.000    0.000    0.000 
#
# Total GULP energy -793782.932241 kJ/mol
# GULP energy per Si atom -12402.858316 kJ/mol
# Density = 2.000869 g / cm^3
# Si number density = 20.054331 Si / 1000 Ang^3
#
#
#
# Elastic Constant Matrix: (Units=GPa)
#
#
# Indices 1 2 3 4 5 6 
#
# 1 103.3507 36.6098 38.1900 0.0000 0.0000 0.0000
# 2 36.6098 55.4076 40.1383 0.0000 0.0000 0.0000
# 3 38.1900 40.1383 122.2870 0.0000 0.0000 0.0000
# 4 0.0000 0.0000 0.0000 33.1759 0.0000 0.0000
# 5 0.0000 0.0000 0.0000 0.0000 38.5323 0.0000
# 6 0.0000 0.0000 0.0000 0.0000 0.0000 31.1228
#
#
#
# Elastic Compliance Matrix: (Units=1/GPa)
#
#
# Indices 1 2 3 4 5 6 
#
# 1 0.012870 -0.007336 -0.001611 0.000000 0.000000 0.000000
# 2 -0.007336 0.027860 -0.006853 0.000000 0.000000 0.000000
# 3 -0.001611 -0.006853 0.010930 0.000000 0.000000 0.000000
# 4 0.000000 0.000000 0.000000 0.030142 0.000000 0.000000
# 5 0.000000 0.000000 0.000000 0.000000 0.025952 0.000000
# 6 0.000000 0.000000 0.000000 0.000000 0.000000 0.032131
#
#
# Mechanical properties :
#
#
# Convention : Reuss Voigt Hill
#
# Bulk Modulus (GPa) = 49.85489 56.76906 53.31197
# Shear Modulus (GPa) = 28.06246 31.64002 29.85124
#
# Velocity S-wave (km/s) = 3.74481 3.97636 3.86232
# Velocity P-wave (km/s) = 6.60394 7.03214 6.82140
#
# Compressibility (1/GPa) = 0.02005821
#
# Stress axis : x y z
#
# Youngs Moduli (GPa) = 77.70043 35.89341 91.48993
#
# Poissons Ratio (x) = 0.26333 0.14741
# Poissons Ratio (y) = 0.57004 0.62702
# Poissons Ratio (z) = 0.12519 0.24599
#
# Static dielectric constant tensor:
#      x y z
#    x 3.746460 0.000000 0.000000 
#    y 0.000000 3.493030 0.000000 
#    z 0.000000 0.000000 4.189710 
# 
# 
# High freq. dielectric constant tensor:
#      x y z
#    x 1.794060 0.000000 0.000000 
#    y 0.000000 1.764260 0.000000 
#    z 0.000000 0.000000 1.797220 
# 
# From -- ./inp_files/20879.got.cif
#   From: 2010.03.12/outbox.cif.g09.slc.cpg/sg62_11_cif.got.tgz:20879.got - 2010.04.10 19:12:36.
