data_PCOD8253747
_publ_section_title
;
Structure prediction by ZEFSAII (Michael W. Deem and Ramdas Pophale) SiO2 
 PCOD8253747
Probable space group: P N M A
;
_chemical_formula_sum "Si O2"
_cell_formula_units_Z 56
_cell_length_a 22.265711
_cell_length_b 22.562464
_cell_length_c 5.329192
_cell_angle_alpha 90.000000
_cell_angle_beta 90.000000
_cell_angle_gamma 90.000000
_cell_volume 2677.222470
_symmetry_space_group_name_H-M "P N M A"
_symmetry_group_IT_number 62
_symmetry_cell_setting 'orthorhombic'
loop_
_space_group_symop_operation_xyz
x,y,z
1/2-x,-y,1/2+z
1/2+x,1/2-y,1/2-z
-x,1/2+y,-z
-x,-y,-z
1/2+x,y,1/2-z
1/2-x,1/2+y,1/2+z
x,1/2-y,z
loop_
_atom_site_type_symbol
_atom_site_label
_atom_site_fract_x
_atom_site_fract_y
_atom_site_fract_z
Si Si1 0.749675 0.036240 0.267587
Si Si2 0.572379 0.971347 0.403386
Si Si3 0.621443 0.081211 0.190946
Si Si4 0.566160 0.184755 0.394312
Si Si5 0.542977 0.816790 0.933600
Si Si6 0.961160 0.907921 0.271485
Si Si7 0.874525 0.415968 0.398519
O O1 0.692476 0.074378 0.180647
O O2 0.803830 0.079327 0.343740
O O3 0.731307 0.000174 0.518681
O O4 0.500978 0.959352 0.362071
O O5 0.588238 0.944469 0.671576
O O6 0.589967 0.042089 0.415516
O O7 0.612314 0.945941 0.169820
O O8 0.605966 0.151828 0.181756
O O9 0.586319 0.056745 0.945295
O O10 0.591867 0.250000 0.452445
O O11 0.495776 0.188304 0.322372
O O12 0.577722 0.139132 0.616165
O O13 0.548114 0.750000 0.050886
O O14 0.608799 0.845453 0.891758
O O15 0.510526 0.865034 0.103852
#
# Coordination Sequence:
#
# PCOD8253747 Si02
#       7
#     8   8   8   8   8   8   8
#     4  12  24  42  64  88 125 166 208 254 310 378
#     4  11  22  38  62  93 129 154 200 260 320 369
#     4  11  24  37  60  91 124 165 210 257 315 379
#     4  10  21  38  60  86 124 165 207 248 307 376
#     4   9  19  37  60  88 121 162 203 251 308 366
#     4  10  21  36  59  95 125 165 199 262 316 385
#     4  11  21  40  61  93 121 159 207 255 304 368
#
# _framework density 20.917202
#
# number of rings (size 3 to 8) (size 9 to 14) (size 15 to 20)
#    0.000    1.429    4.286    0.857    4.000    1.143 
#    0.000    0.714    0.000    0.000    0.000    0.000 
#    0.000    0.000    0.000    0.000    0.000    0.000 
#
# Total GULP energy -693750.012563 kJ/mol
# GULP energy per Si atom -12388.393081 kJ/mol
# Density = 2.086959 g / cm^3
# Si number density = 20.917202 Si / 1000 Ang^3
#
#
#
# Elastic Constant Matrix: (Units=GPa)
#
#
# Indices 1 2 3 4 5 6 
#
# 1 132.7496 36.6101 9.4369 0.0000 0.0000 0.0000
# 2 36.6101 127.4893 19.0153 0.0000 0.0000 0.0000
# 3 9.4369 19.0153 79.2645 0.0000 0.0000 0.0000
# 4 0.0000 0.0000 0.0000 16.4717 0.0000 0.0000
# 5 0.0000 0.0000 0.0000 0.0000 26.0828 0.0000
# 6 0.0000 0.0000 0.0000 0.0000 0.0000 20.5012
#
#
#
# Elastic Compliance Matrix: (Units=1/GPa)
#
#
# Indices 1 2 3 4 5 6 
#
# 1 0.008195 -0.002290 -0.000426 0.000000 0.000000 0.000000
# 2 -0.002290 0.008775 -0.001832 0.000000 0.000000 0.000000
# 3 -0.000426 -0.001832 0.013106 0.000000 0.000000 0.000000
# 4 0.000000 0.000000 0.000000 0.060710 0.000000 0.000000
# 5 0.000000 0.000000 0.000000 0.000000 0.038339 0.000000
# 6 0.000000 0.000000 0.000000 0.000000 0.000000 0.048778
#
#
# Mechanical properties :
#
#
# Convention : Reuss Voigt Hill
#
# Bulk Modulus (GPa) = 47.66695 52.18088 49.92392
# Shear Modulus (GPa) = 25.77417 30.90722 28.34070
#
# Velocity S-wave (km/s) = 3.51408 3.84812 3.68489
# Velocity P-wave (km/s) = 6.26920 6.68914 6.48257
#
# Compressibility (1/GPa) = 0.02097889
#
# Stress axis : x y z
#
# Youngs Moduli (GPa) = 122.02966 113.96538 76.29899
#
# Poissons Ratio (x) = 0.26094 0.03253
# Poissons Ratio (y) = 0.27940 0.13981
# Poissons Ratio (z) = 0.05203 0.20883
#
# Static dielectric constant tensor:
#      x y z
#    x 3.668090 0.000000 0.000000 
#    y 0.000000 3.923330 0.000000 
#    z 0.000000 0.000000 4.103920 
# 
# 
# High freq. dielectric constant tensor:
#      x y z
#    x 1.797860 0.000000 0.000000 
#    y 0.000000 1.815340 0.000000 
#    z 0.000000 0.000000 1.834960 
# 
# From -- ./inp_files/2279.got.cif
#   From: 2010.03.12/outbox.cif.g09.slc.cpg/sg62_2_cif.got.tgz:2279.got - 2010.04.10 19:12:36.
