data_PCOD8253324
_publ_section_title
;
Structure prediction by ZEFSAII (Michael W. Deem and Ramdas Pophale) SiO2 
 PCOD8253324
Probable space group: P N M A
;
_chemical_formula_sum "Si O2"
_cell_formula_units_Z 32
_cell_length_a 17.641967
_cell_length_b 17.339891
_cell_length_c 4.907738
_cell_angle_alpha 90.000000
_cell_angle_beta 90.000000
_cell_angle_gamma 90.000000
_cell_volume 1501.325075
_symmetry_space_group_name_H-M "P N M A"
_symmetry_group_IT_number 62
_symmetry_cell_setting 'orthorhombic'
loop_
_space_group_symop_operation_xyz
x,y,z
1/2-x,-y,1/2+z
1/2+x,1/2-y,1/2-z
-x,1/2+y,-z
-x,-y,-z
1/2+x,y,1/2-z
1/2-x,1/2+y,1/2+z
x,1/2-y,z
loop_
_atom_site_type_symbol
_atom_site_label
_atom_site_fract_x
_atom_site_fract_y
_atom_site_fract_z
Si Si1 0.133200 0.102582 0.205640
Si Si2 0.029305 0.924706 0.656100
Si Si3 0.371022 0.428182 0.689695
Si Si4 0.217068 0.337685 0.693417
O O1 0.176809 0.160640 0.402340
O O2 0.043397 0.122264 0.233921
O O3 0.151484 0.014115 0.290152
O O4 0.162591 0.117627 0.901719
O O5 0.079808 0.883108 0.422758
O O6 0.082100 0.942098 0.913874
O O7 0.000000 0.000000 0.500000
O O8 0.297393 0.377706 0.647500
O O9 0.229571 0.250000 0.786984
#
# Coordination Sequence:
#
# PCOD8253324 Si02
#       4
#     8   8   8   8
#     4  11  21  40  64  88 116 156 201 247 298 354
#     4  10  20  37  64  94 118 146 198 258 300 349
#     4  11  21  39  65  91 118 154 200 249 301 355
#     4  12  25  40  57  87 126 162 199 244 294 356
#
# _framework density 21.314505
#
# number of rings (size 3 to 8) (size 9 to 14) (size 15 to 20)
#    0.000    1.000    0.000   11.250    0.000    0.000 
#    0.000    7.500    0.000    0.000    0.000    0.000 
#    0.000    0.000    0.000    0.000    0.000    0.000 
#
# Total GULP energy -396702.594553 kJ/mol
# GULP energy per Si atom -12396.956080 kJ/mol
# Density = 2.126599 g / cm^3
# Si number density = 21.314505 Si / 1000 Ang^3
#
#
#
# Elastic Constant Matrix: (Units=GPa)
#
#
# Indices 1 2 3 4 5 6 
#
# 1 136.1092 46.3256 51.3167 0.0000 0.0000 0.0000
# 2 46.3256 79.4810 12.6179 0.0000 0.0000 0.0000
# 3 51.3167 12.6179 115.0805 0.0000 0.0000 0.0000
# 4 0.0000 0.0000 0.0000 14.4673 0.0000 0.0000
# 5 0.0000 0.0000 0.0000 0.0000 35.6437 0.0000
# 6 0.0000 0.0000 0.0000 0.0000 0.0000 1.1737
#
#
#
# Elastic Compliance Matrix: (Units=1/GPa)
#
#
# Indices 1 2 3 4 5 6 
#
# 1 0.010868 -0.005663 -0.004225 0.000000 0.000000 0.000000
# 2 -0.005663 0.015756 0.000798 0.000000 0.000000 0.000000
# 3 -0.004225 0.000798 0.010486 0.000000 0.000000 0.000000
# 4 0.000000 0.000000 0.000000 0.069122 0.000000 0.000000
# 5 0.000000 0.000000 0.000000 0.000000 0.028055 0.000000
# 6 0.000000 0.000000 0.000000 0.000000 0.000000 0.852028
#
#
# Mechanical properties :
#
#
# Convention : Reuss Voigt Hill
#
# Bulk Modulus (GPa) = 52.83089 61.24347 57.03718
# Shear Modulus (GPa) = 4.94655 24.95096 14.94875
#
# Velocity S-wave (km/s) = 1.52505 3.42513 2.65116
# Velocity P-wave (km/s) = 5.28594 6.66615 6.01576
#
# Compressibility (1/GPa) = 0.01892832
#
# Stress axis : x y z
#
# Youngs Moduli (GPa) = 92.01649 63.46830 95.36393
#
# Poissons Ratio (x) = 0.35945 0.40292
# Poissons Ratio (y) = 0.52113 -0.07609
# Poissons Ratio (z) = 0.38878 -0.05064
#
# Static dielectric constant tensor:
#      x y z
#    x 4.420630 0.000000 0.000000 
#    y 0.000000 3.383320 0.000000 
#    z 0.000000 0.000000 4.106460 
# 
# 
# High freq. dielectric constant tensor:
#      x y z
#    x 1.858290 0.000000 0.000000 
#    y 0.000000 1.786840 0.000000 
#    z 0.000000 0.000000 1.858620 
# 
# From -- ./inp_files/922.got.cif
#   From: 2010.03.12/outbox.cif.g09.slc.cpg/sg62_1_cif.got.tgz:922.got - 2010.04.10 19:12:36.
