data_PCOD8253428
_publ_section_title
;
Structure prediction by ZEFSAII (Michael W. Deem and Ramdas Pophale) SiO2 
 PCOD8253428
Probable space group: P N M A
;
_chemical_formula_sum "Si O2"
_cell_formula_units_Z 56
_cell_length_a 14.546698
_cell_length_b 11.438953
_cell_length_c 16.183015
_cell_angle_alpha 90.000000
_cell_angle_beta 90.000000
_cell_angle_gamma 90.000000
_cell_volume 2692.837428
_symmetry_space_group_name_H-M "P N M A"
_symmetry_group_IT_number 62
_symmetry_cell_setting 'orthorhombic'
loop_
_space_group_symop_operation_xyz
x,y,z
1/2-x,-y,1/2+z
1/2+x,1/2-y,1/2-z
-x,1/2+y,-z
-x,-y,-z
1/2+x,y,1/2-z
1/2-x,1/2+y,1/2+z
x,1/2-y,z
loop_
_atom_site_type_symbol
_atom_site_label
_atom_site_fract_x
_atom_site_fract_y
_atom_site_fract_z
Si Si1 0.614094 0.881321 0.794738
Si Si2 0.457733 0.117753 0.955777
Si Si3 0.234227 0.119582 0.340021
Si Si4 0.987134 0.119123 0.890521
Si Si5 0.361227 0.471252 0.472868
Si Si6 0.438185 0.026805 0.782610
Si Si7 0.717999 0.619246 0.947649
O O1 0.595086 0.750000 0.823738
O O2 0.676089 0.889995 0.715074
O O3 0.665315 0.945442 0.871552
O O4 0.515324 0.929908 0.772790
O O5 0.495416 0.250000 0.983555
O O6 0.469451 0.112152 0.856951
O O7 0.348840 0.114626 0.973180
O O8 0.500000 0.000000 0.000000
O O9 0.192116 0.250000 0.339630
O O10 0.273802 0.092224 0.431059
O O11 0.158581 0.030415 0.306925
O O12 0.026388 0.250000 0.884048
O O13 0.932236 0.091850 0.805474
O O14 0.919078 0.115498 0.969252
O O15 0.073044 0.032536 0.904993
O O16 0.317182 0.565501 0.534533
O O17 0.742144 0.750000 0.919723
#
# Coordination Sequence:
#
# PCOD8253428 Si02
#       7
#     8   8   8   8   8   8   8
#     4  10  21  38  61  93 130 165 211 273 326 391
#     4  11  23  39  63  93 132 172 216 266 329 399
#     4  11  23  39  63  96 129 167 219 273 331 398
#     4  11  25  43  65  93 128 172 221 271 330 402
#     4  11  22  43  66  91 128 170 217 270 326 397
#     4  12  22  41  65  94 133 174 219 271 343 395
#     4  10  20  38  63  90 124 163 208 263 323 395
#
# _framework density 20.795908000000001
#
# number of rings (size 3 to 8) (size 9 to 14) (size 15 to 20)
#    0.000    1.143    4.286    2.571    0.000    0.571 
#    0.000    1.429    0.000    0.000    0.000    0.000 
#    0.000    0.000    0.000    0.000    0.000    0.000 
#
# Total GULP energy -693948.083500 kJ/mol
# GULP energy per Si atom -12391.930062 kJ/mol
# Density = 2.074858 g / cm^3
# Si number density = 20.795908 Si / 1000 Ang^3
#
#
#
# Elastic Constant Matrix: (Units=GPa)
#
#
# Indices 1 2 3 4 5 6 
#
# 1 67.8869 31.0378 8.7299 0.0000 0.0000 0.0000
# 2 31.0378 103.6058 36.0224 0.0000 0.0000 0.0000
# 3 8.7299 36.0224 101.5314 0.0000 0.0000 0.0000
# 4 0.0000 0.0000 0.0000 25.3602 0.0000 0.0000
# 5 0.0000 0.0000 0.0000 0.0000 36.9427 0.0000
# 6 0.0000 0.0000 0.0000 0.0000 0.0000 28.5703
#
#
#
# Elastic Compliance Matrix: (Units=1/GPa)
#
#
# Indices 1 2 3 4 5 6 
#
# 1 0.017082 -0.005255 0.000396 0.000000 0.000000 0.000000
# 2 -0.005255 0.012627 -0.004028 0.000000 0.000000 0.000000
# 3 0.000396 -0.004028 0.011244 0.000000 0.000000 0.000000
# 4 0.000000 0.000000 0.000000 0.039432 0.000000 0.000000
# 5 0.000000 0.000000 0.000000 0.000000 0.027069 0.000000
# 6 0.000000 0.000000 0.000000 0.000000 0.000000 0.035001
#
#
# Mechanical properties :
#
#
# Convention : Reuss Voigt Hill
#
# Bulk Modulus (GPa) = 43.14359 47.17826 45.16092
# Shear Modulus (GPa) = 29.76972 31.32357 30.54664
#
# Velocity S-wave (km/s) = 3.78765 3.88524 3.83675
# Velocity P-wave (km/s) = 6.31819 6.54693 6.43358
#
# Compressibility (1/GPa) = 0.02317841
#
# Stress axis : x y z
#
# Youngs Moduli (GPa) = 58.54099 79.19724 88.93435
#
# Poissons Ratio (x) = 0.41618 -0.03519
# Poissons Ratio (y) = 0.30763 0.35823
# Poissons Ratio (z) = -0.02316 0.31901
#
# Static dielectric constant tensor:
#      x y z
#    x 3.626950 0.000000 0.000000 
#    y 0.000000 3.796340 0.000000 
#    z 0.000000 0.000000 3.915940 
# 
# 
# High freq. dielectric constant tensor:
#      x y z
#    x 1.807330 0.000000 0.000000 
#    y 0.000000 1.803020 0.000000 
#    z 0.000000 0.000000 1.826040 
# 
# From -- ./inp_files/19030.got.cif
#   From: 2010.03.12/outbox.cif.g09.slc.cpg/sg62_10_cif.got.tgz:19030.got - 2010.04.10 19:12:36.
