data_PCOD8253973
_publ_section_title
;
Structure prediction by ZEFSAII (Michael W. Deem and Ramdas Pophale) SiO2 
 PCOD8253973
Probable space group: P N M A
;
_chemical_formula_sum "Si O2"
_cell_formula_units_Z 56
_cell_length_a 14.594958
_cell_length_b 8.745085
_cell_length_c 21.829703
_cell_angle_alpha 90.000000
_cell_angle_beta 90.000000
_cell_angle_gamma 90.000000
_cell_volume 2786.215550
_symmetry_space_group_name_H-M "P N M A"
_symmetry_group_IT_number 62
_symmetry_cell_setting 'orthorhombic'
loop_
_space_group_symop_operation_xyz
x,y,z
1/2-x,-y,1/2+z
1/2+x,1/2-y,1/2-z
-x,1/2+y,-z
-x,-y,-z
1/2+x,y,1/2-z
1/2-x,1/2+y,1/2+z
x,1/2-y,z
loop_
_atom_site_type_symbol
_atom_site_label
_atom_site_fract_x
_atom_site_fract_y
_atom_site_fract_z
Si Si1 0.657888 0.928523 0.648442
Si Si2 0.010003 0.068510 0.067624
Si Si3 0.807179 0.073872 0.882072
Si Si4 0.323278 0.070588 0.214837
Si Si5 0.668192 0.923971 0.097170
Si Si6 0.143869 0.422066 0.525472
Si Si7 0.526563 0.424447 0.860998
O O1 0.642516 0.750000 0.654530
O O2 0.572530 0.996268 0.610137
O O3 0.667741 0.997775 0.716621
O O4 0.750865 0.961314 0.612563
O O5 0.005734 0.250000 0.061162
O O6 0.103045 0.021445 0.101329
O O7 0.000000 0.000000 0.000000
O O8 0.833924 0.250000 0.871636
O O9 0.738076 0.054230 0.938096
O O10 0.760231 0.012282 0.819903
O O11 0.302729 0.250000 0.214337
O O12 0.421636 0.039160 0.184026
O O13 0.702065 0.750000 0.103174
O O14 0.582170 0.953550 0.142391
O O15 0.637631 0.954382 0.027869
O O16 0.139390 0.250000 0.498783
O O17 0.058461 0.455103 0.569632
O O18 0.552168 0.250000 0.842930
#
# Coordination Sequence:
#
# PCOD8253973 Si02
#       7
#     8   8   8   8   8   8   8
#     4  10  24  42  57  78 113 150 187 235 286 336
#     4  11  23  40  61  87 118 155 200 247 294 348
#     4  10  21  38  60  86 116 150 186 234 291 342
#     4  10  21  39  61  83 107 145 193 233 276 339
#     4  11  22  34  54  84 113 143 183 226 272 327
#     4   9  18  34  55  79 113 149 177 215 273 331
#     4   9  20  37  55  81 115 146 178 224 276 327
#
# _framework density 20.098948
#
# number of rings (size 3 to 8) (size 9 to 14) (size 15 to 20)
#    0.000    2.000    0.000    3.857    0.000   10.857 
#    0.000    4.286    0.000    0.000    0.000    0.000 
#    0.000    0.000    0.000    0.000    0.000    0.000 
#
# Total GULP energy -694472.059462 kJ/mol
# GULP energy per Si atom -12401.286776 kJ/mol
# Density = 2.005320 g / cm^3
# Si number density = 20.098948 Si / 1000 Ang^3
#
#
#
# Elastic Constant Matrix: (Units=GPa)
#
#
# Indices 1 2 3 4 5 6 
#
# 1 114.5040 22.2049 43.1897 0.0000 0.0000 0.0000
# 2 22.2049 50.0186 33.3197 0.0000 0.0000 0.0000
# 3 43.1897 33.3197 113.5043 0.0000 0.0000 0.0000
# 4 0.0000 0.0000 0.0000 29.8560 0.0000 0.0000
# 5 0.0000 0.0000 0.0000 0.0000 19.7945 0.0000
# 6 0.0000 0.0000 0.0000 0.0000 0.0000 31.5991
#
#
#
# Elastic Compliance Matrix: (Units=1/GPa)
#
#
# Indices 1 2 3 4 5 6 
#
# 1 0.010437 -0.002471 -0.003246 0.000000 0.000000 0.000000
# 2 -0.002471 0.025438 -0.006527 0.000000 0.000000 0.000000
# 3 -0.003246 -0.006527 0.011961 0.000000 0.000000 0.000000
# 4 0.000000 0.000000 0.000000 0.033494 0.000000 0.000000
# 5 0.000000 0.000000 0.000000 0.000000 0.050519 0.000000
# 6 0.000000 0.000000 0.000000 0.000000 0.000000 0.031646
#
#
# Mechanical properties :
#
#
# Convention : Reuss Voigt Hill
#
# Bulk Modulus (GPa) = 42.83067 52.82839 47.82953
# Shear Modulus (GPa) = 25.54071 28.20411 26.87241
#
# Velocity S-wave (km/s) = 3.56862 3.75008 3.66048
# Velocity P-wave (km/s) = 6.19163 6.71506 6.45865
#
# Compressibility (1/GPa) = 0.02334775
#
# Stress axis : x y z
#
# Youngs Moduli (GPa) = 95.81442 39.31204 83.60211
#
# Poissons Ratio (x) = 0.09714 0.27137
# Poissons Ratio (y) = 0.23675 0.54568
# Poissons Ratio (z) = 0.31101 0.25659
#
# Static dielectric constant tensor:
#      x y z
#    x 3.696970 0.000000 0.000000 
#    y 0.000000 3.530970 0.000000 
#    z 0.000000 0.000000 3.702760 
# 
# 
# High freq. dielectric constant tensor:
#      x y z
#    x 1.792620 0.000000 0.000000 
#    y 0.000000 1.780770 0.000000 
#    z 0.000000 0.000000 1.781850 
# 
# From -- ./inp_files/27082.got.cif
#   From: 2010.03.12/outbox.cif.g09.slc.cpg/sg62_14_cif.got.tgz:27082.got - 2010.04.10 19:12:36.
