data_PCOD8253301
_publ_section_title
;
Structure prediction by ZEFSAII (Michael W. Deem and Ramdas Pophale) SiO2 
 PCOD8253301
Probable space group: P N M A
;
_chemical_formula_sum "Si O2"
_cell_formula_units_Z 64
_cell_length_a 17.925646
_cell_length_b 13.646756
_cell_length_c 11.566914
_cell_angle_alpha 90.000000
_cell_angle_beta 90.000000
_cell_angle_gamma 90.000000
_cell_volume 2829.578512
_symmetry_space_group_name_H-M "P N M A"
_symmetry_group_IT_number 62
_symmetry_cell_setting 'orthorhombic'
loop_
_space_group_symop_operation_xyz
x,y,z
1/2-x,-y,1/2+z
1/2+x,1/2-y,1/2-z
-x,1/2+y,-z
-x,-y,-z
1/2+x,y,1/2-z
1/2-x,1/2+y,1/2+z
x,1/2-y,z
loop_
_atom_site_type_symbol
_atom_site_label
_atom_site_fract_x
_atom_site_fract_y
_atom_site_fract_z
Si Si1 0.513184 0.446913 0.152782
Si Si2 0.632736 0.134939 0.305594
Si Si3 0.607554 0.644527 0.493234
Si Si4 0.502923 0.856955 0.283722
Si Si5 0.379151 0.003874 0.031107
Si Si6 0.758287 0.641513 0.381553
Si Si7 0.280503 0.031577 0.828376
Si Si8 0.378877 0.555259 0.434517
O O1 0.548256 0.380482 0.254924
O O2 0.514221 0.561688 0.187035
O O3 0.426165 0.424523 0.118643
O O4 0.562598 0.434170 0.037277
O O5 0.653599 0.250000 0.298834
O O6 0.635986 0.099052 0.437952
O O7 0.691041 0.072012 0.227713
O O8 0.586995 0.750000 0.552034
O O9 0.574687 0.641300 0.365170
O O10 0.697767 0.634334 0.484409
O O11 0.576653 0.549727 0.561067
O O12 0.495267 0.750000 0.224704
O O13 0.428186 0.871371 0.360423
O O14 0.324849 0.935183 0.104734
O O15 0.331621 0.064151 0.936899
O O16 0.792704 0.750000 0.374937
O O17 0.713482 0.617656 0.264576
O O18 0.196245 0.026855 0.869965
#
# Coordination Sequence:
#
# PCOD8253301 Si02
#       8
#     8   8   8   8   8   8   8   8
#     4  10  22  41  63  92 129 170 216 268 325 388
#     4  11  24  43  64  93 133 178 223 270 332 400
#     4  10  20  37  62  93 128 167 213 265 325 384
#     4  11  23  40  67  98 130 171 221 274 329 391
#     4  10  21  40  63  91 131 169 210 264 328 381
#     4  11  22  41  69 100 130 171 222 268 327 397
#     4  11  22  40  65  97 131 170 214 273 330 384
#     4  12  22  40  66  97 134 174 216 275 336 387
#
# _framework density 22.618210999999999
#
# number of rings (size 3 to 8) (size 9 to 14) (size 15 to 20)
#    0.000    1.250    3.750    2.250    0.000    5.000 
#    0.000    3.750    0.000    4.500    0.000    0.000 
#    0.000    0.000    0.000    0.000    0.000    0.000 
#
# Total GULP energy -792957.758751 kJ/mol
# GULP energy per Si atom -12389.964980 kJ/mol
# Density = 2.256673 g / cm^3
# Si number density = 22.618211 Si / 1000 Ang^3
#
#
#
# Elastic Constant Matrix: (Units=GPa)
#
#
# Indices 1 2 3 4 5 6 
#
# 1 105.1884 24.0175 22.3496 0.0000 0.0000 0.0000
# 2 24.0175 81.1245 32.6963 0.0000 0.0000 0.0000
# 3 22.3496 32.6963 51.1712 0.0000 0.0000 0.0000
# 4 0.0000 0.0000 0.0000 10.6995 0.0000 0.0000
# 5 0.0000 0.0000 0.0000 0.0000 40.3075 0.0000
# 6 0.0000 0.0000 0.0000 0.0000 0.0000 24.5478
#
#
#
# Elastic Compliance Matrix: (Units=1/GPa)
#
#
# Indices 1 2 3 4 5 6 
#
# 1 0.010655 -0.001722 -0.003553 0.000000 0.000000 0.000000
# 2 -0.001722 0.016881 -0.010034 0.000000 0.000000 0.000000
# 3 -0.003553 -0.010034 0.027505 0.000000 0.000000 0.000000
# 4 0.000000 0.000000 0.000000 0.093462 0.000000 0.000000
# 5 0.000000 0.000000 0.000000 0.000000 0.024809 0.000000
# 6 0.000000 0.000000 0.000000 0.000000 0.000000 0.040737
#
#
# Mechanical properties :
#
#
# Convention : Reuss Voigt Hill
#
# Bulk Modulus (GPa) = 40.94625 43.95679 42.45152
# Shear Modulus (GPa) = 19.77778 25.67232 22.72505
#
# Velocity S-wave (km/s) = 2.96026 3.37267 3.17318
# Velocity P-wave (km/s) = 5.46139 5.88583 5.67758
#
# Compressibility (1/GPa) = 0.02442226
#
# Stress axis : x y z
#
# Youngs Moduli (GPa) = 93.85283 59.23932 36.35668
#
# Poissons Ratio (x) = 0.10204 0.12918
# Poissons Ratio (y) = 0.16166 0.36479
# Poissons Ratio (z) = 0.33347 0.59439
#
# Static dielectric constant tensor:
#      x y z
#    x 4.362990 0.000000 0.000000 
#    y 0.000000 4.078330 0.000000 
#    z 0.000000 0.000000 4.200830 
# 
# 
# High freq. dielectric constant tensor:
#      x y z
#    x 1.905060 0.000000 0.000000 
#    y 0.000000 1.865020 0.000000 
#    z 0.000000 0.000000 1.888890 
# 
# From -- ./inp_files/14333.got.cif
#   From: 2010.03.12/outbox.cif.g09.slc.cpg/sg62_8_cif.got.tgz:14333.got - 2010.04.10 19:12:36.
