data_PCOD8253549
_publ_section_title
;
Structure prediction by ZEFSAII (Michael W. Deem and Ramdas Pophale) SiO2 
 PCOD8253549
Probable space group: P N M A
;
_chemical_formula_sum "Si O2"
_cell_formula_units_Z 56
_cell_length_a 15.180213
_cell_length_b 19.981978
_cell_length_c 8.951151
_cell_angle_alpha 90.000000
_cell_angle_beta 90.000000
_cell_angle_gamma 90.000000
_cell_volume 2715.158739
_symmetry_space_group_name_H-M "P N M A"
_symmetry_group_IT_number 62
_symmetry_cell_setting 'orthorhombic'
loop_
_space_group_symop_operation_xyz
x,y,z
1/2-x,-y,1/2+z
1/2+x,1/2-y,1/2-z
-x,1/2+y,-z
-x,-y,-z
1/2+x,y,1/2-z
1/2-x,1/2+y,1/2+z
x,1/2-y,z
loop_
_atom_site_type_symbol
_atom_site_label
_atom_site_fract_x
_atom_site_fract_y
_atom_site_fract_z
Si Si1 0.115665 0.823591 0.498753
Si Si2 0.720603 0.967931 0.722985
Si Si3 0.941398 0.376739 0.209048
Si Si4 0.494373 0.586323 0.163286
Si Si5 0.056386 0.170397 0.950558
Si Si6 0.590791 0.042960 0.120767
Si Si7 0.224523 0.089596 0.970858
O O1 0.128153 0.750000 0.439729
O O2 0.109008 0.826278 0.678931
O O3 0.025365 0.851277 0.433970
O O4 0.196650 0.862236 0.426666
O O5 0.631996 0.931469 0.665078
O O6 0.807836 0.937522 0.645116
O O7 0.703206 0.044724 0.674527
O O8 0.739085 0.959981 0.899478
O O9 0.025693 0.408997 0.288813
O O10 0.974511 0.336638 0.063853
O O11 0.458821 0.620055 0.312710
O O12 0.573216 0.532225 0.185679
O O13 0.422690 0.546777 0.060154
O O14 0.067794 0.250000 0.911030
O O15 0.144581 0.138251 0.022617
#
# Coordination Sequence:
#
# PCOD8253549 Si02
#       7
#     8   8   8   8   8   8   8
#     4  10  20  40  61  82 117 167 210 242 300 385
#     4  11  23  39  65  98 124 156 207 271 318 371
#     4  10  23  39  64  92 120 164 210 256 314 366
#     4  10  22  37  64  90 121 163 205 259 319 374
#     4  12  25  42  61  92 132 167 208 257 310 375
#     4  10  20  42  63  90 126 158 207 264 320 376
#     4  11  24  39  63  92 123 163 204 260 319 372
#
# _framework density 20.624946000000001
#
# number of rings (size 3 to 8) (size 9 to 14) (size 15 to 20)
#    0.000    1.429    2.857    2.143    6.000    1.143 
#    0.000    0.000    0.000    0.000    0.000    0.000 
#    0.000    0.000    0.000    0.000    0.000    0.000 
#
# Total GULP energy -693903.293239 kJ/mol
# GULP energy per Si atom -12391.130236 kJ/mol
# Density = 2.057800 g / cm^3
# Si number density = 20.624946 Si / 1000 Ang^3
#
#
#
# Elastic Constant Matrix: (Units=GPa)
#
#
# Indices 1 2 3 4 5 6 
#
# 1 89.5333 18.7842 9.5203 0.0000 0.0000 0.0000
# 2 18.7842 115.7074 29.7934 0.0000 0.0000 0.0000
# 3 9.5203 29.7934 62.8770 0.0000 0.0000 0.0000
# 4 0.0000 0.0000 0.0000 20.4674 0.0000 0.0000
# 5 0.0000 0.0000 0.0000 0.0000 19.7828 0.0000
# 6 0.0000 0.0000 0.0000 0.0000 0.0000 23.7593
#
#
#
# Elastic Compliance Matrix: (Units=1/GPa)
#
#
# Indices 1 2 3 4 5 6 
#
# 1 0.011616 -0.001632 -0.000986 0.000000 0.000000 0.000000
# 2 -0.001632 0.010073 -0.004526 0.000000 0.000000 0.000000
# 3 -0.000986 -0.004526 0.018198 0.000000 0.000000 0.000000
# 4 0.000000 0.000000 0.000000 0.048858 0.000000 0.000000
# 5 0.000000 0.000000 0.000000 0.000000 0.050549 0.000000
# 6 0.000000 0.000000 0.000000 0.000000 0.000000 0.042089
#
#
# Mechanical properties :
#
#
# Convention : Reuss Voigt Hill
#
# Bulk Modulus (GPa) = 39.06224 42.70150 40.88187
# Shear Modulus (GPa) = 24.48548 26.80321 25.64435
#
# Velocity S-wave (km/s) = 3.44928 3.60884 3.52996
# Velocity P-wave (km/s) = 5.90287 6.17363 6.03977
#
# Compressibility (1/GPa) = 0.02560017
#
# Stress axis : x y z
#
# Youngs Moduli (GPa) = 86.08648 99.27754 54.95184
#
# Poissons Ratio (x) = 0.16203 0.05416
# Poissons Ratio (y) = 0.14050 0.24870
# Poissons Ratio (z) = 0.08484 0.44930
#
# Static dielectric constant tensor:
#      x y z
#    x 3.830210 0.000000 0.000000 
#    y 0.000000 3.717240 0.000000 
#    z 0.000000 0.000000 3.673190 
# 
# 
# High freq. dielectric constant tensor:
#      x y z
#    x 1.816920 0.000000 0.000000 
#    y 0.000000 1.797950 0.000000 
#    z 0.000000 0.000000 1.795240 
# 
# From -- ./inp_files/6776.got.cif
#   From: 2010.03.12/outbox.cif.g09.slc.cpg/sg62_4_cif.got.tgz:6776.got - 2010.04.10 19:12:36.
