data_PCOD8253631
_publ_section_title
;
Structure prediction by ZEFSAII (Michael W. Deem and Ramdas Pophale) SiO2 
 PCOD8253631
Probable space group: P N M A
;
_chemical_formula_sum "Si O2"
_cell_formula_units_Z 56
_cell_length_a 23.664815
_cell_length_b 8.973527
_cell_length_c 13.888237
_cell_angle_alpha 90.000000
_cell_angle_beta 90.000000
_cell_angle_gamma 90.000000
_cell_volume 2949.262350
_symmetry_space_group_name_H-M "P N M A"
_symmetry_group_IT_number 62
_symmetry_cell_setting 'orthorhombic'
loop_
_space_group_symop_operation_xyz
x,y,z
1/2-x,-y,1/2+z
1/2+x,1/2-y,1/2-z
-x,1/2+y,-z
-x,-y,-z
1/2+x,y,1/2-z
1/2-x,1/2+y,1/2+z
x,1/2-y,z
loop_
_atom_site_type_symbol
_atom_site_label
_atom_site_fract_x
_atom_site_fract_y
_atom_site_fract_z
Si Si1 0.441916 0.926287 0.026516
Si Si2 0.564061 0.075763 0.596967
Si Si3 0.121694 0.426332 0.711628
Si Si4 0.767123 0.926730 0.394008
Si Si5 0.167872 0.426228 0.421010
Si Si6 0.835343 0.926914 0.794190
Si Si7 0.433557 0.076703 0.601440
O O1 0.449162 0.750000 0.023714
O O2 0.423048 0.982624 0.132206
O O3 0.394442 0.981753 0.951068
O O4 0.500000 0.000000 0.000000
O O5 0.573947 0.250000 0.575762
O O6 0.603306 0.014245 0.683630
O O7 0.498995 0.045960 0.624912
O O8 0.582217 0.983033 0.504140
O O9 0.119443 0.250000 0.711731
O O10 0.184908 0.477345 0.682929
O O11 0.757375 0.750000 0.390145
O O12 0.785614 0.980835 0.501171
O O13 0.709545 0.010143 0.369752
O O14 0.167423 0.250000 0.425428
O O15 0.181510 0.482569 0.313324
O O16 0.837063 0.750000 0.800520
O O17 0.897065 0.989858 0.819339
O O18 0.418480 0.250000 0.605845
#
# Coordination Sequence:
#
# PCOD8253631 Si02
#       7
#     8   8   8   8   8   8   8
#     4   9  17  31  51  77 106 138 172 209 259 318
#     4   9  18  35  56  78 107 141 178 221 267 318
#     4   8  16  32  55  77 102 138 175 215 268 322
#     4   9  18  37  58  76 102 137 180 222 266 318
#     4   8  18  36  54  74 106 142 172 211 267 323
#     4  11  22  36  55  78 107 143 180 220 268 319
#     4  10  21  35  52  78 109 140 178 221 267 319
#
# _framework density 18.987797
#
# number of rings (size 3 to 8) (size 9 to 14) (size 15 to 20)
#    0.000    2.857    0.000    2.571    2.000    1.714 
#    0.000    9.286    0.000    0.000    0.000    0.000 
#    0.000    0.000    0.000    0.000    0.000    0.000 
#
# Total GULP energy -694233.281286 kJ/mol
# GULP energy per Si atom -12397.022880 kJ/mol
# Density = 1.894458 g / cm^3
# Si number density = 18.987797 Si / 1000 Ang^3
#
#
#
# Elastic Constant Matrix: (Units=GPa)
#
#
# Indices 1 2 3 4 5 6 
#
# 1 66.7182 24.3847 36.9504 0.0000 0.0000 0.0000
# 2 24.3847 50.5237 32.8237 0.0000 0.0000 0.0000
# 3 36.9504 32.8237 114.1058 0.0000 0.0000 0.0000
# 4 0.0000 0.0000 0.0000 23.2339 0.0000 0.0000
# 5 0.0000 0.0000 0.0000 0.0000 29.3537 0.0000
# 6 0.0000 0.0000 0.0000 0.0000 0.0000 30.4147
#
#
#
# Elastic Compliance Matrix: (Units=1/GPa)
#
#
# Indices 1 2 3 4 5 6 
#
# 1 0.019941 -0.006677 -0.004537 0.000000 0.000000 0.000000
# 2 -0.006677 0.026577 -0.005483 0.000000 0.000000 0.000000
# 3 -0.004537 -0.005483 0.011810 0.000000 0.000000 0.000000
# 4 0.000000 0.000000 0.000000 0.043041 0.000000 0.000000
# 5 0.000000 0.000000 0.000000 0.000000 0.034067 0.000000
# 6 0.000000 0.000000 0.000000 0.000000 0.000000 0.032879
#
#
# Mechanical properties :
#
#
# Convention : Reuss Voigt Hill
#
# Bulk Modulus (GPa) = 40.10399 46.62948 43.36673
# Shear Modulus (GPa) = 23.80709 25.74638 24.77674
#
# Velocity S-wave (km/s) = 3.54476 3.68631 3.61623
# Velocity P-wave (km/s) = 6.15797 6.53677 6.35019
#
# Compressibility (1/GPa) = 0.02493518
#
# Stress axis : x y z
#
# Youngs Moduli (GPa) = 50.14683 37.62587 84.67261
#
# Poissons Ratio (x) = 0.25123 0.38415
# Poissons Ratio (y) = 0.33483 0.46427
# Poissons Ratio (z) = 0.22751 0.20630
#
# Static dielectric constant tensor:
#      x y z
#    x 3.469250 0.000000 0.000000 
#    y 0.000000 3.139340 0.000000 
#    z 0.000000 0.000000 3.935510 
# 
# 
# High freq. dielectric constant tensor:
#      x y z
#    x 1.738280 0.000000 0.000000 
#    y 0.000000 1.707260 0.000000 
#    z 0.000000 0.000000 1.745710 
# 
# From -- ./inp_files/20334.got.cif
#   From: 2010.03.12/outbox.cif.g09.slc.cpg/sg62_11_cif.got.tgz:20334.got - 2010.04.10 19:12:36.
