data_PCOD8253745
_publ_section_title
;
Structure prediction by ZEFSAII (Michael W. Deem and Ramdas Pophale) SiO2 
 PCOD8253745
Probable space group: P N M A
;
_chemical_formula_sum "Si O2"
_cell_formula_units_Z 64
_cell_length_a 15.359555
_cell_length_b 8.751470
_cell_length_c 24.165411
_cell_angle_alpha 90.000000
_cell_angle_beta 90.000000
_cell_angle_gamma 90.000000
_cell_volume 3248.282764
_symmetry_space_group_name_H-M "P N M A"
_symmetry_group_IT_number 62
_symmetry_cell_setting 'orthorhombic'
loop_
_space_group_symop_operation_xyz
x,y,z
1/2-x,-y,1/2+z
1/2+x,1/2-y,1/2-z
-x,1/2+y,-z
-x,-y,-z
1/2+x,y,1/2-z
1/2-x,1/2+y,1/2+z
x,1/2-y,z
loop_
_atom_site_type_symbol
_atom_site_label
_atom_site_fract_x
_atom_site_fract_y
_atom_site_fract_z
Si Si1 0.347488 0.578478 0.374620
Si Si2 0.750743 0.568193 0.803482
Si Si3 0.246340 0.932009 0.569981
Si Si4 0.096094 0.430750 0.496034
Si Si5 0.353300 0.076783 0.883279
Si Si6 0.407857 0.931627 0.772939
Si Si7 0.907820 0.429194 0.232422
Si Si8 0.094926 0.430252 0.994141
O O1 0.383520 0.750000 0.367167
O O2 0.245604 0.573490 0.364160
O O3 0.393162 0.468992 0.331176
O O4 0.368243 0.515852 0.435345
O O5 0.750540 0.750000 0.803258
O O6 0.753515 0.510296 0.866711
O O7 0.833429 0.507901 0.768692
O O8 0.665095 0.500091 0.773294
O O9 0.236946 0.750000 0.565205
O O10 0.335160 0.988089 0.539756
O O11 0.159730 0.003830 0.543349
O O12 0.090397 0.250000 0.502806
O O13 0.135211 0.472686 0.436767
O O14 0.000000 0.500000 0.500000
O O15 0.383834 0.250000 0.896295
O O16 0.406897 0.007004 0.833016
O O17 0.402253 0.750000 0.779899
O O18 0.497986 0.991274 0.748063
O O19 0.904385 0.250000 0.239073
O O20 0.086296 0.250000 0.998549
O O21 0.000000 0.500000 0.000000
#
# Coordination Sequence:
#
# PCOD8253745 Si02
#       8
#     8   8   8   8   8   8   8   8
#     4  10  21  39  60  85 119 157 198 250 305 355
#     4   9  19  36  57  84 121 158 194 243 295 349
#     4  10  21  41  63  86 124 166 204 251 308 363
#     4  12  26  43  65  93 123 159 203 253 305 368
#     4  11  22  41  65  89 119 158 202 251 308 361
#     4  10  21  37  59  91 121 155 203 247 296 357
#     4  10  21  36  59  89 117 153 201 244 292 358
#     4  10  22  39  60  87 120 158 203 253 304 362
#
# _framework density 19.702718000000001
#
# number of rings (size 3 to 8) (size 9 to 14) (size 15 to 20)
#    0.000    1.750    2.500    1.500    3.500    2.000 
#    0.000    1.250    0.000    0.000    0.000    0.000 
#    0.000    0.000    0.000    0.000    0.000    0.000 
#
# Total GULP energy -793628.360125 kJ/mol
# GULP energy per Si atom -12400.443127 kJ/mol
# Density = 1.965787 g / cm^3
# Si number density = 19.702718 Si / 1000 Ang^3
#
#
#
# Elastic Constant Matrix: (Units=GPa)
#
#
# Indices 1 2 3 4 5 6 
#
# 1 131.1641 28.1706 46.4760 0.0000 0.0000 0.0000
# 2 28.1706 41.9628 19.8626 0.0000 0.0000 0.0000
# 3 46.4760 19.8626 134.8534 0.0000 0.0000 0.0000
# 4 0.0000 0.0000 0.0000 32.7131 0.0000 0.0000
# 5 0.0000 0.0000 0.0000 0.0000 32.8591 0.0000
# 6 0.0000 0.0000 0.0000 0.0000 0.0000 24.3408
#
#
#
# Elastic Compliance Matrix: (Units=1/GPa)
#
#
# Indices 1 2 3 4 5 6 
#
# 1 0.009662 -0.005278 -0.002553 0.000000 0.000000 0.000000
# 2 -0.005278 0.028500 -0.002379 0.000000 0.000000 0.000000
# 3 -0.002553 -0.002379 0.008646 0.000000 0.000000 0.000000
# 4 0.000000 0.000000 0.000000 0.030569 0.000000 0.000000
# 5 0.000000 0.000000 0.000000 0.000000 0.030433 0.000000
# 6 0.000000 0.000000 0.000000 0.000000 0.000000 0.041083
#
#
# Mechanical properties :
#
#
# Convention : Reuss Voigt Hill
#
# Bulk Modulus (GPa) = 37.89494 55.22207 46.55850
# Shear Modulus (GPa) = 28.07291 32.21400 30.14346
#
# Velocity S-wave (km/s) = 3.77878 4.04790 3.91565
# Velocity P-wave (km/s) = 6.18983 7.06653 6.64266
#
# Compressibility (1/GPa) = 0.02638875
#
# Stress axis : x y z
#
# Youngs Moduli (GPa) = 103.49715 35.08785 115.66679
#
# Poissons Ratio (x) = 0.18520 0.29524
# Poissons Ratio (y) = 0.54628 0.27513
# Poissons Ratio (z) = 0.26418 0.08346
#
# Static dielectric constant tensor:
#      x y z
#    x 3.801770 0.000000 0.000000 
#    y 0.000000 3.432660 0.000000 
#    z 0.000000 0.000000 3.788580 
# 
# 
# High freq. dielectric constant tensor:
#      x y z
#    x 1.779590 0.000000 0.000000 
#    y 0.000000 1.743700 0.000000 
#    z 0.000000 0.000000 1.781870 
# 
# From -- ./inp_files/29801.got.cif
#   From: 2010.03.12/outbox.cif.g09.slc.cpg/sg62_15_cif.got.tgz:29801.got - 2010.04.10 19:12:36.
