data_PCOD8253948
_publ_section_title
;
Structure prediction by ZEFSAII (Michael W. Deem and Ramdas Pophale) SiO2 
 PCOD8253948
Probable space group: P N M A
;
_chemical_formula_sum "Si O2"
_cell_formula_units_Z 56
_cell_length_a 13.833000
_cell_length_b 29.441886
_cell_length_c 7.102603
_cell_angle_alpha 90.000000
_cell_angle_beta 90.000000
_cell_angle_gamma 90.000000
_cell_volume 2892.674347
_symmetry_space_group_name_H-M "P N M A"
_symmetry_group_IT_number 62
_symmetry_cell_setting 'orthorhombic'
loop_
_space_group_symop_operation_xyz
x,y,z
1/2-x,-y,1/2+z
1/2+x,1/2-y,1/2-z
-x,1/2+y,-z
-x,-y,-z
1/2+x,y,1/2-z
1/2-x,1/2+y,1/2+z
x,1/2-y,z
loop_
_atom_site_type_symbol
_atom_site_label
_atom_site_fract_x
_atom_site_fract_y
_atom_site_fract_z
Si Si1 0.168136 0.453422 0.485952
Si Si2 0.640434 0.499531 0.633063
Si Si3 0.697064 0.198109 0.576223
Si Si4 0.336893 0.197366 0.251172
Si Si5 0.538479 0.061719 0.352355
Si Si6 0.701877 0.149474 0.972929
Si Si7 0.451553 0.835136 0.709905
O O1 0.251084 0.482977 0.388010
O O2 0.126204 0.479650 0.662049
O O3 0.074001 0.449129 0.356852
O O4 0.211839 0.404657 0.540445
O O5 0.565724 0.540634 0.602603
O O6 0.619786 0.458476 0.490181
O O7 0.710597 0.250000 0.639917
O O8 0.785974 0.181484 0.443778
O O9 0.691536 0.167729 0.761876
O O10 0.599693 0.193873 0.453281
O O11 0.313302 0.250000 0.287022
O O12 0.297986 0.169058 0.429228
O O13 0.450143 0.189236 0.231409
O O14 0.530190 0.115449 0.378806
O O15 0.610329 0.163856 0.098714
#
# Coordination Sequence:
#
# PCOD8253948 Si02
#       7
#     8   8   8   8   8   8   8
#     4  11  21  38  58  84 113 152 194 232 291 334
#     4  11  21  37  59  83 112 151 191 236 282 336
#     4  10  21  38  60  86 115 149 191 239 290 347
#     4  10  21  38  59  86 117 150 190 236 290 346
#     4  10  22  38  56  83 117 145 192 237 279 339
#     4  10  22  38  58  85 119 152 192 241 286 343
#     4  10  21  39  59  84 115 155 190 234 291 342
#
# _framework density 19.359247
#
# number of rings (size 3 to 8) (size 9 to 14) (size 15 to 20)
#    0.000    1.714    1.429    3.000    0.000    2.857 
#    2.571    4.286    0.000    0.000    0.000    0.000 
#    0.000    0.000    0.000    0.000    0.000    0.000 
#
# Total GULP energy -694609.454467 kJ/mol
# GULP energy per Si atom -12403.740258 kJ/mol
# Density = 1.931518 g / cm^3
# Si number density = 19.359247 Si / 1000 Ang^3
#
#
#
# Elastic Constant Matrix: (Units=GPa)
#
#
# Indices 1 2 3 4 5 6 
#
# 1 73.4724 3.6019 17.4701 0.0000 0.0000 0.0000
# 2 3.6019 52.0327 13.9141 0.0000 0.0000 0.0000
# 3 17.4701 13.9141 94.2607 0.0000 0.0000 0.0000
# 4 0.0000 0.0000 0.0000 -1.4251 0.0000 0.0000
# 5 0.0000 0.0000 0.0000 0.0000 17.2057 0.0000
# 6 0.0000 0.0000 0.0000 0.0000 0.0000 23.8775
#
#
#
# Elastic Compliance Matrix: (Units=1/GPa)
#
#
# Indices 1 2 3 4 5 6 
#
# 1 0.014242 -0.000292 -0.002597 0.000000 0.000000 0.000000
# 2 -0.000292 0.020014 -0.002900 0.000000 0.000000 0.000000
# 3 -0.002597 -0.002900 0.011518 0.000000 0.000000 0.000000
# 4 0.000000 0.000000 0.000000 -0.701711 0.000000 0.000000
# 5 0.000000 0.000000 0.000000 0.000000 0.058120 0.000000
# 6 0.000000 0.000000 0.000000 0.000000 0.000000 0.041880
#
#
# Mechanical properties :
#
#
# Convention : Reuss Voigt Hill
#
# Bulk Modulus (GPa) = 29.24150 32.19310 30.71730
# Shear Modulus (GPa) = -9.38159 20.25025 5.43433
#
# Velocity S-wave (km/s) = -2.20376 3.23774 1.67726
# Velocity P-wave (km/s) = 2.94313 5.53558 4.43310
#
# Compressibility (1/GPa) = 0.03419797
#
# Stress axis : x y z
#
# Youngs Moduli (GPa) = 70.21354 49.96389 86.81869
#
# Poissons Ratio (x) = 0.01457 0.22543
# Poissons Ratio (y) = 0.02047 0.25180
# Poissons Ratio (z) = 0.18232 0.14491
#
# Static dielectric constant tensor:
#      x y z
#    x 3.414270 0.000000 0.000000 
#    y 0.000000 3.601860 0.000000 
#    z 0.000000 0.000000 3.475580 
# 
# 
# High freq. dielectric constant tensor:
#      x y z
#    x 1.752040 0.000000 0.000000 
#    y 0.000000 1.763990 0.000000 
#    z 0.000000 0.000000 1.755870 
# 
# From -- ./inp_files/1281.got.cif
#   From: 2010.03.12/outbox.cif.g09.slc.cpg/sg62_1_cif.got.tgz:1281.got - 2010.04.10 19:12:36.
