data_PCOD8253548
_publ_section_title
;
Structure prediction by ZEFSAII (Michael W. Deem and Ramdas Pophale) SiO2 
 PCOD8253548
Probable space group: P N M A
;
_chemical_formula_sum "Si O2"
_cell_formula_units_Z 24
_cell_length_a 9.940848
_cell_length_b 7.767112
_cell_length_c 18.253161
_cell_angle_alpha 90.000000
_cell_angle_beta 90.000000
_cell_angle_gamma 90.000000
_cell_volume 1409.357222
_symmetry_space_group_name_H-M "P N M A"
_symmetry_group_IT_number 62
_symmetry_cell_setting 'orthorhombic'
loop_
_space_group_symop_operation_xyz
x,y,z
1/2-x,-y,1/2+z
1/2+x,1/2-y,1/2-z
-x,1/2+y,-z
-x,-y,-z
1/2+x,y,1/2-z
1/2-x,1/2+y,1/2+z
x,1/2-y,z
loop_
_atom_site_type_symbol
_atom_site_label
_atom_site_fract_x
_atom_site_fract_y
_atom_site_fract_z
Si Si1 0.591621 0.556434 0.066749
Si Si2 0.592064 0.250000 0.179063
Si Si3 0.876653 0.060898 0.048018
Si Si4 0.896408 0.250000 0.185101
O O1 0.553439 0.750000 0.092285
O O2 0.567709 0.422279 0.132210
O O3 0.747695 0.561632 0.040742
O O4 0.500000 0.500000 0.000000
O O5 0.741829 0.250000 0.211886
O O6 0.490127 0.250000 0.245568
O O7 0.829635 0.250000 0.020163
O O8 0.922110 0.080415 0.133740
O O9 0.000000 0.000000 0.000000
#
# Coordination Sequence:
#
# PCOD8253548 Si02
#       4
#     8   4   8   4
#     4  11  20  35  57  83 111 145 186 233 273 329
#     4  10  20  40  52  82 115 144 189 220 285 330
#     4   9  18  34  54  85 109 143 185 223 278 325
#     4   8  20  34  56  76 117 150 173 232 277 322
#
# _framework density 17.029039000000001
#
# number of rings (size 3 to 8) (size 9 to 14) (size 15 to 20)
#    1.000    1.333    3.333    1.000    0.000    2.667 
#    0.000    8.333    0.000    0.000    0.000    0.000 
#    0.000    0.000    0.000    0.000    0.000    0.000 
#
# Total GULP energy -297318.623671 kJ/mol
# GULP energy per Si atom -12388.275986 kJ/mol
# Density = 1.699028 g / cm^3
# Si number density = 17.029039 Si / 1000 Ang^3
#
#
#
# Elastic Constant Matrix: (Units=GPa)
#
#
# Indices 1 2 3 4 5 6 
#
# 1 119.5270 36.8937 100.1228 0.0000 0.0000 0.0000
# 2 36.8937 123.0900 47.2514 0.0000 0.0000 0.0000
# 3 100.1228 47.2514 121.4020 0.0000 0.0000 0.0000
# 4 0.0000 0.0000 0.0000 19.7733 0.0000 0.0000
# 5 0.0000 0.0000 0.0000 0.0000 43.5651 0.0000
# 6 0.0000 0.0000 0.0000 0.0000 0.0000 26.2898
#
#
#
# Elastic Compliance Matrix: (Units=1/GPa)
#
#
# Indices 1 2 3 4 5 6 
#
# 1 0.027091 0.000537 -0.022552 0.000000 0.000000 0.000000
# 2 0.000537 0.009562 -0.004165 0.000000 0.000000 0.000000
# 3 -0.022552 -0.004165 0.028457 0.000000 0.000000 0.000000
# 4 0.000000 0.000000 0.000000 0.050573 0.000000 0.000000
# 5 0.000000 0.000000 0.000000 0.000000 0.022954 0.000000
# 6 0.000000 0.000000 0.000000 0.000000 0.000000 0.038038
#
#
# Mechanical properties :
#
#
# Convention : Reuss Voigt Hill
#
# Bulk Modulus (GPa) = 78.42198 81.39498 79.90848
# Shear Modulus (GPa) = 21.43316 29.90905 25.67110
#
# Velocity S-wave (km/s) = 3.55156 4.19544 3.88685
# Velocity P-wave (km/s) = 7.93536 8.44810 8.19574
#
# Compressibility (1/GPa) = 0.01275153
#
# Stress axis : x y z
#
# Youngs Moduli (GPa) = 36.91245 104.58250 35.14099
#
# Poissons Ratio (x) = -0.05616 0.79249
# Poissons Ratio (y) = -0.01982 0.14634
# Poissons Ratio (z) = 0.83244 0.43553
#
# Static dielectric constant tensor:
#      x y z
#    x 3.161720 0.000000 0.000000 
#    y 0.000000 3.499340 0.000000 
#    z 0.000000 0.000000 3.012950 
# 
# 
# High freq. dielectric constant tensor:
#      x y z
#    x 1.663550 0.000000 0.000000 
#    y 0.000000 1.657400 0.000000 
#    z 0.000000 0.000000 1.635320 
# 
# From -- ./inp_files/21741.got.cif
#   From: 2010.03.12/outbox.cif.g09.slc.cpg/sg62_11_cif.got.tgz:21741.got - 2010.04.10 19:12:36.
