data_PCOD8253245
_publ_section_title
;
Structure prediction by ZEFSAII (Michael W. Deem and Ramdas Pophale) SiO2 
 PCOD8253245
Probable space group: P N M A
;
_chemical_formula_sum "Si O2"
_cell_formula_units_Z 48
_cell_length_a 28.555991
_cell_length_b 9.145968
_cell_length_c 9.282399
_cell_angle_alpha 90.000000
_cell_angle_beta 90.000000
_cell_angle_gamma 90.000000
_cell_volume 2424.304381
_symmetry_space_group_name_H-M "P N M A"
_symmetry_group_IT_number 62
_symmetry_cell_setting 'orthorhombic'
loop_
_space_group_symop_operation_xyz
x,y,z
1/2-x,-y,1/2+z
1/2+x,1/2-y,1/2-z
-x,1/2+y,-z
-x,-y,-z
1/2+x,y,1/2-z
1/2-x,1/2+y,1/2+z
x,1/2-y,z
loop_
_atom_site_type_symbol
_atom_site_label
_atom_site_fract_x
_atom_site_fract_y
_atom_site_fract_z
Si Si1 0.862462 0.578775 0.492381
Si Si2 0.537345 0.414390 0.089062
Si Si3 0.981206 0.414420 0.133190
Si Si4 0.302069 0.922984 0.470270
Si Si5 0.122724 0.924026 0.798320
Si Si6 0.722441 0.420441 0.201912
O O1 0.862976 0.750000 0.453680
O O2 0.910547 0.524550 0.566710
O O3 0.854206 0.487060 0.347408
O O4 0.822706 0.541656 0.607179
O O5 0.535073 0.250000 0.032316
O O6 0.523419 0.426333 0.254700
O O7 0.500000 0.500000 0.000000
O O8 0.972177 0.250000 0.083008
O O9 0.931767 0.473934 0.195209
O O10 0.000000 0.500000 0.000000
O O11 0.308500 0.750000 0.451866
O O12 0.287414 0.963577 0.632729
O O13 0.350932 0.004031 0.434667
O O14 0.264307 0.980387 0.355774
O O15 0.129007 0.750000 0.799346
O O16 0.736177 0.250000 0.189052
#
# Coordination Sequence:
#
# PCOD8253245 Si02
#       6
#     8   8   8   8   8   8
#     4  10  21  38  63  90 119 158 200 243 294 351
#     4  10  20  37  60  87 120 159 201 245 289 343
#     4  10  23  39  58  86 122 160 200 247 296 346
#     4  11  24  41  64  90 118 156 196 240 297 355
#     4  11  23  40  60  88 123 158 197 247 297 349
#     4  10  23  42  63  90 121 153 194 245 295 351
#
# _framework density 19.799495
#
# number of rings (size 3 to 8) (size 9 to 14) (size 15 to 20)
#    0.000    1.667    1.667    2.000    2.333    6.667 
#    0.000    0.000    0.000    0.000    0.000    0.000 
#    0.000    0.000    0.000    0.000    0.000    0.000 
#
# Total GULP energy -595294.277133 kJ/mol
# GULP energy per Si atom -12401.964107 kJ/mol
# Density = 1.975443 g / cm^3
# Si number density = 19.799495 Si / 1000 Ang^3
#
#
#
# Elastic Constant Matrix: (Units=GPa)
#
#
# Indices 1 2 3 4 5 6 
#
# 1 85.5382 30.8151 32.4190 0.0000 0.0000 0.0000
# 2 30.8151 67.3359 47.1987 0.0000 0.0000 0.0000
# 3 32.4190 47.1987 113.4063 0.0000 0.0000 0.0000
# 4 0.0000 0.0000 0.0000 37.9463 0.0000 0.0000
# 5 0.0000 0.0000 0.0000 0.0000 39.5504 0.0000
# 6 0.0000 0.0000 0.0000 0.0000 0.0000 33.0103
#
#
#
# Elastic Compliance Matrix: (Units=1/GPa)
#
#
# Indices 1 2 3 4 5 6 
#
# 1 0.014290 -0.005190 -0.001925 0.000000 0.000000 0.000000
# 2 -0.005190 0.022853 -0.008027 0.000000 0.000000 0.000000
# 3 -0.001925 -0.008027 0.012709 0.000000 0.000000 0.000000
# 4 0.000000 0.000000 0.000000 0.026353 0.000000 0.000000
# 5 0.000000 0.000000 0.000000 0.000000 0.025284 0.000000
# 6 0.000000 0.000000 0.000000 0.000000 0.000000 0.030294
#
#
# Mechanical properties :
#
#
# Convention : Reuss Voigt Hill
#
# Bulk Modulus (GPa) = 51.10716 54.12731 52.61723
# Shear Modulus (GPa) = 29.65766 32.49124 31.07445
#
# Velocity S-wave (km/s) = 3.87447 4.05534 3.96593
# Velocity P-wave (km/s) = 6.77375 7.02316 6.89958
#
# Compressibility (1/GPa) = 0.01956673
#
# Stress axis : x y z
#
# Youngs Moduli (GPa) = 69.97885 43.75794 78.68401
#
# Poissons Ratio (x) = 0.22712 0.15145
# Poissons Ratio (y) = 0.36322 0.63163
# Poissons Ratio (z) = 0.13470 0.35127
#
# Static dielectric constant tensor:
#      x y z
#    x 3.705210 0.000000 0.000000 
#    y 0.000000 3.859300 0.000000 
#    z 0.000000 0.000000 3.642870 
# 
# 
# High freq. dielectric constant tensor:
#      x y z
#    x 1.786950 0.000000 0.000000 
#    y 0.000000 1.767990 0.000000 
#    z 0.000000 0.000000 1.776960 
# 
# From -- ./inp_files/10221.got.cif
#   From: 2010.03.12/outbox.cif.g09.slc.cpg/sg62_6_cif.got.tgz:10221.got - 2010.04.10 19:12:36.
