data_PCOD8253356
_publ_section_title
;
Structure prediction by ZEFSAII (Michael W. Deem and Ramdas Pophale) SiO2 
 PCOD8253356
Probable space group: P N M A
;
_chemical_formula_sum "Si O2"
_cell_formula_units_Z 56
_cell_length_a 14.338142
_cell_length_b 13.604321
_cell_length_c 14.636448
_cell_angle_alpha 90.000000
_cell_angle_beta 90.000000
_cell_angle_gamma 90.000000
_cell_volume 2854.995592
_symmetry_space_group_name_H-M "P N M A"
_symmetry_group_IT_number 62
_symmetry_cell_setting 'orthorhombic'
loop_
_space_group_symop_operation_xyz
x,y,z
1/2-x,-y,1/2+z
1/2+x,1/2-y,1/2-z
-x,1/2+y,-z
-x,-y,-z
1/2+x,y,1/2-z
1/2-x,1/2+y,1/2+z
x,1/2-y,z
loop_
_atom_site_type_symbol
_atom_site_label
_atom_site_fract_x
_atom_site_fract_y
_atom_site_fract_z
Si Si1 0.538245 0.360143 0.429634
Si Si2 0.064159 0.452508 0.884452
Si Si3 0.257682 0.489169 0.817722
Si Si4 0.728421 0.137404 0.335638
Si Si5 0.418994 0.362025 0.744744
Si Si6 0.848298 0.474514 0.486189
Si Si7 0.482945 0.861949 0.065455
O O1 0.497442 0.250000 0.434872
O O2 0.452782 0.432656 0.407361
O O3 0.585645 0.389697 0.525428
O O4 0.617917 0.366348 0.352973
O O5 0.153664 0.444202 0.819244
O O6 0.970416 0.410379 0.840446
O O7 0.254958 0.593478 0.765430
O O8 0.320685 0.414602 0.760155
O O9 0.294006 0.500754 0.920905
O O10 0.764625 0.250000 0.337932
O O11 0.780779 0.073582 0.412127
O O12 0.395875 0.250000 0.722079
O O13 0.486922 0.372890 0.830279
O O14 0.933429 0.399534 0.501351
O O15 0.888600 0.576747 0.448195
O O16 0.461622 0.750000 0.038742
#
# Coordination Sequence:
#
# PCOD8253356 Si02
#       7
#     8   8   8   8   8   8   8
#     4  10  22  39  63  88 118 164 209 253 308 372
#     4  11  21  40  63  87 127 163 203 257 314 370
#     4  11  23  38  62  92 123 161 206 255 314 366
#     4  11  22  40  62  89 122 161 209 253 304 372
#     4  10  21  37  57  89 121 152 204 256 306 371
#     4  10  20  38  60  86 122 160 203 254 308 372
#     4   9  19  36  59  85 118 157 197 251 311 367
#
# _framework density 19.614740999999999
#
# number of rings (size 3 to 8) (size 9 to 14) (size 15 to 20)
#    0.000    1.714    2.857    1.714    0.000    2.857 
#    0.000    0.714    0.000    0.000    0.000    0.000 
#    0.000    0.000    0.000    0.000    0.000    0.000 
#
# Total GULP energy -694552.058219 kJ/mol
# GULP energy per Si atom -12402.715325 kJ/mol
# Density = 1.957010 g / cm^3
# Si number density = 19.614741 Si / 1000 Ang^3
#
#
#
# Elastic Constant Matrix: (Units=GPa)
#
#
# Indices 1 2 3 4 5 6 
#
# 1 89.4408 39.5492 32.3400 0.0000 0.0000 0.0000
# 2 39.5492 131.0186 47.0265 0.0000 0.0000 0.0000
# 3 32.3400 47.0265 83.4962 0.0000 0.0000 0.0000
# 4 0.0000 0.0000 0.0000 28.0008 0.0000 0.0000
# 5 0.0000 0.0000 0.0000 0.0000 24.1602 0.0000
# 6 0.0000 0.0000 0.0000 0.0000 0.0000 25.6433
#
#
#
# Elastic Compliance Matrix: (Units=1/GPa)
#
#
# Indices 1 2 3 4 5 6 
#
# 1 0.013782 -0.002813 -0.003754 0.000000 0.000000 0.000000
# 2 -0.002813 0.010140 -0.004622 0.000000 0.000000 0.000000
# 3 -0.003754 -0.004622 0.016034 0.000000 0.000000 0.000000
# 4 0.000000 0.000000 0.000000 0.035713 0.000000 0.000000
# 5 0.000000 0.000000 0.000000 0.000000 0.041390 0.000000
# 6 0.000000 0.000000 0.000000 0.000000 0.000000 0.038997
#
#
# Mechanical properties :
#
#
# Convention : Reuss Voigt Hill
#
# Bulk Modulus (GPa) = 56.88610 60.19858 58.54234
# Shear Modulus (GPa) = 27.13081 27.89684 27.51383
#
# Velocity S-wave (km/s) = 3.72315 3.77535 3.74934
# Velocity P-wave (km/s) = 6.89545 7.05418 6.97526
#
# Compressibility (1/GPa) = 0.01757899
#
# Stress axis : x y z
#
# Youngs Moduli (GPa) = 72.56036 98.61464 62.36904
#
# Poissons Ratio (x) = 0.27738 0.23412
# Poissons Ratio (y) = 0.20410 0.28826
# Poissons Ratio (z) = 0.27237 0.45578
#
# Static dielectric constant tensor:
#      x y z
#    x 3.424830 0.000000 0.000000 
#    y 0.000000 3.682120 0.000000 
#    z 0.000000 0.000000 3.514490 
# 
# 
# High freq. dielectric constant tensor:
#      x y z
#    x 1.759810 0.000000 0.000000 
#    y 0.000000 1.769200 0.000000 
#    z 0.000000 0.000000 1.763940 
# 
# From -- ./inp_files/19013.got.cif
#   From: 2010.03.12/outbox.cif.g09.slc.cpg/sg62_10_cif.got.tgz:19013.got - 2010.04.10 19:12:36.
