data_PCOD8253527
_publ_section_title
;
Structure prediction by ZEFSAII (Michael W. Deem and Ramdas Pophale) SiO2 
 PCOD8253527
Probable space group: P N M A
;
_chemical_formula_sum "Si O2"
_cell_formula_units_Z 48
_cell_length_a 10.954862
_cell_length_b 15.722625
_cell_length_c 13.780824
_cell_angle_alpha 90.000000
_cell_angle_beta 90.000000
_cell_angle_gamma 90.000000
_cell_volume 2373.597924
_symmetry_space_group_name_H-M "P N M A"
_symmetry_group_IT_number 62
_symmetry_cell_setting 'orthorhombic'
loop_
_space_group_symop_operation_xyz
x,y,z
1/2-x,-y,1/2+z
1/2+x,1/2-y,1/2-z
-x,1/2+y,-z
-x,-y,-z
1/2+x,y,1/2-z
1/2-x,1/2+y,1/2+z
x,1/2-y,z
loop_
_atom_site_type_symbol
_atom_site_label
_atom_site_fract_x
_atom_site_fract_y
_atom_site_fract_z
Si Si1 0.700556 0.156402 0.192563
Si Si2 0.910678 0.486186 0.911511
Si Si3 0.240581 0.344415 0.519205
Si Si4 0.461137 0.346802 0.940970
Si Si5 0.975908 0.004465 0.699506
Si Si6 0.312686 0.403956 0.122394
O O1 0.635175 0.250000 0.192955
O O2 0.778613 0.148127 0.093825
O O3 0.795083 0.153998 0.282150
O O4 0.604136 0.080414 0.191872
O O5 0.988063 0.473561 0.813034
O O6 0.821468 0.567079 0.910491
O O7 0.828749 0.402657 0.919012
O O8 0.000000 0.500000 0.000000
O O9 0.260817 0.250000 0.559846
O O10 0.098425 0.369825 0.527764
O O11 0.450838 0.250000 0.900852
O O12 0.418717 0.415004 0.859069
O O13 0.375316 0.353154 0.035241
O O14 0.108148 0.986044 0.653908
#
# Coordination Sequence:
#
# PCOD8253527 Si02
#       6
#     8   8   8   8   8   8
#     4  10  21  35  60  94 126 163 206 259 322 378
#     4  11  24  41  63  91 126 166 212 260 325 383
#     4  10  20  39  64  89 125 167 209 261 319 379
#     4  11  22  39  66  96 127 171 220 264 315 385
#     4  11  22  38  63  90 126 168 214 261 315 380
#     4  11  21  39  63  93 127 165 212 267 318 381
#
# _framework density 20.222465
#
# number of rings (size 3 to 8) (size 9 to 14) (size 15 to 20)
#    0.000    1.333    3.333    3.000    0.000    2.667 
#    0.000    5.833    0.000    0.000    0.000    0.000 
#    0.000    0.000    0.000    0.000    0.000    0.000 
#
# Total GULP energy -595055.909256 kJ/mol
# GULP energy per Si atom -12396.998109 kJ/mol
# Density = 2.017644 g / cm^3
# Si number density = 20.222465 Si / 1000 Ang^3
#
#
#
# Elastic Constant Matrix: (Units=GPa)
#
#
# Indices 1 2 3 4 5 6 
#
# 1 57.5724 25.1642 17.7873 0.0000 0.0000 0.0000
# 2 25.1642 122.3665 54.5462 0.0000 0.0000 0.0000
# 3 17.7873 54.5462 108.8126 0.0000 0.0000 0.0000
# 4 0.0000 0.0000 0.0000 29.4518 0.0000 0.0000
# 5 0.0000 0.0000 0.0000 0.0000 31.6421 0.0000
# 6 0.0000 0.0000 0.0000 0.0000 0.0000 21.5990
#
#
#
# Elastic Compliance Matrix: (Units=1/GPa)
#
#
# Indices 1 2 3 4 5 6 
#
# 1 0.019273 -0.003295 -0.001499 0.000000 0.000000 0.000000
# 2 -0.003295 0.011087 -0.005019 0.000000 0.000000 0.000000
# 3 -0.001499 -0.005019 0.011951 0.000000 0.000000 0.000000
# 4 0.000000 0.000000 0.000000 0.033954 0.000000 0.000000
# 5 0.000000 0.000000 0.000000 0.000000 0.031603 0.000000
# 6 0.000000 0.000000 0.000000 0.000000 0.000000 0.046299
#
#
# Mechanical properties :
#
#
# Convention : Reuss Voigt Hill
#
# Bulk Modulus (GPa) = 44.08216 53.74964 48.91590
# Shear Modulus (GPa) = 27.57029 29.28883 28.42956
#
# Velocity S-wave (km/s) = 3.69636 3.80982 3.75352
# Velocity P-wave (km/s) = 6.32956 6.78158 6.55947
#
# Compressibility (1/GPa) = 0.02268491
#
# Stress axis : x y z
#
# Youngs Moduli (GPa) = 51.88666 90.19404 83.67418
#
# Poissons Ratio (x) = 0.29722 0.12539
# Poissons Ratio (y) = 0.17099 0.41998
# Poissons Ratio (z) = 0.07775 0.45270
#
# Static dielectric constant tensor:
#      x y z
#    x 3.504650 0.000000 0.000000 
#    y 0.000000 3.724760 0.000000 
#    z 0.000000 0.000000 3.852510 
# 
# 
# High freq. dielectric constant tensor:
#      x y z
#    x 1.768250 0.000000 0.000000 
#    y 0.000000 1.795280 0.000000 
#    z 0.000000 0.000000 1.797140 
# 
# From -- ./inp_files/17970.got.cif
#   From: 2010.03.12/outbox.cif.g09.slc.cpg/sg62_9_cif.got.tgz:17970.got - 2010.04.10 19:12:36.
