data_PCOD8253096
_publ_section_title
;
Structure prediction by ZEFSAII (Michael W. Deem and Ramdas Pophale) SiO2 
 PCOD8253096
Probable space group: P N M A
;
_chemical_formula_sum "Si O2"
_cell_formula_units_Z 40
_cell_length_a 16.554398
_cell_length_b 9.246893
_cell_length_c 12.634565
_cell_angle_alpha 90.000000
_cell_angle_beta 90.000000
_cell_angle_gamma 90.000000
_cell_volume 1934.058110
_symmetry_space_group_name_H-M "P N M A"
_symmetry_group_IT_number 62
_symmetry_cell_setting 'orthorhombic'
loop_
_space_group_symop_operation_xyz
x,y,z
1/2-x,-y,1/2+z
1/2+x,1/2-y,1/2-z
-x,1/2+y,-z
-x,-y,-z
1/2+x,y,1/2-z
1/2-x,1/2+y,1/2+z
x,1/2-y,z
loop_
_atom_site_type_symbol
_atom_site_label
_atom_site_fract_x
_atom_site_fract_y
_atom_site_fract_z
Si Si1 0.080322 0.590992 0.609961
Si Si2 0.914391 0.919785 0.995415
Si Si3 0.345340 0.919787 0.278575
Si Si4 0.185114 0.420650 0.209851
Si Si5 0.894513 0.908247 0.575969
O O1 0.117061 0.750000 0.634390
O O2 0.080290 0.488703 0.713404
O O3 0.133726 0.519166 0.515402
O O4 0.989991 0.608158 0.570891
O O5 0.933512 0.750000 0.988118
O O6 0.859742 0.955751 0.098304
O O7 0.862220 0.973183 0.894983
O O8 0.000000 0.000000 0.000000
O O9 0.339971 0.750000 0.258685
O O10 0.268421 0.996128 0.225832
O O11 0.201464 0.250000 0.203956
O O12 0.130562 0.465849 0.309448
O O13 0.855438 0.750000 0.554237
#
# Coordination Sequence:
#
# PCOD8253096 Si02
#       5
#     8   8   8   8   8
#     4  10  20  36  60  86 117 156 195 241 299 357
#     4  10  23  43  66  92 125 163 208 257 307 370
#     4  11  24  39  58  89 125 158 202 254 301 359
#     4  10  22  40  61  87 122 160 200 249 305 363
#     4   9  19  36  59  87 117 151 196 244 293 356
#
# _framework density 20.681901
#
# number of rings (size 3 to 8) (size 9 to 14) (size 15 to 20)
#    0.000    2.000    0.000    2.400    2.800    5.600 
#    0.000    0.000    0.000    0.000    0.000    0.000 
#    0.000    0.000    0.000    0.000    0.000    0.000 
#
# Total GULP energy -495865.196260 kJ/mol
# GULP energy per Si atom -12396.629906 kJ/mol
# Density = 2.063483 g / cm^3
# Si number density = 20.681901 Si / 1000 Ang^3
#
#
#
# Elastic Constant Matrix: (Units=GPa)
#
#
# Indices 1 2 3 4 5 6 
#
# 1 63.8977 30.3241 21.8059 0.0000 0.0000 0.0000
# 2 30.3241 91.4181 55.9244 0.0000 0.0000 0.0000
# 3 21.8059 55.9244 138.9453 0.0000 0.0000 0.0000
# 4 0.0000 0.0000 0.0000 20.0339 0.0000 0.0000
# 5 0.0000 0.0000 0.0000 0.0000 35.5582 0.0000
# 6 0.0000 0.0000 0.0000 0.0000 0.0000 30.5387
#
#
#
# Elastic Compliance Matrix: (Units=1/GPa)
#
#
# Indices 1 2 3 4 5 6 
#
# 1 0.018609 -0.005819 -0.000578 0.000000 0.000000 0.000000
# 2 -0.005819 0.016331 -0.005660 0.000000 0.000000 0.000000
# 3 -0.000578 -0.005660 0.009566 0.000000 0.000000 0.000000
# 4 0.000000 0.000000 0.000000 0.049915 0.000000 0.000000
# 5 0.000000 0.000000 0.000000 0.000000 0.028123 0.000000
# 6 0.000000 0.000000 0.000000 0.000000 0.000000 0.032745
#
#
# Mechanical properties :
#
#
# Convention : Reuss Voigt Hill
#
# Bulk Modulus (GPa) = 49.03981 56.70779 52.87380
# Shear Modulus (GPa) = 26.85258 29.63994 28.24626
#
# Velocity S-wave (km/s) = 3.60719 3.78978 3.69961
# Velocity P-wave (km/s) = 6.41186 6.82851 6.62346
#
# Compressibility (1/GPa) = 0.02039159
#
# Stress axis : x y z
#
# Youngs Moduli (GPa) = 53.73774 61.23166 104.53714
#
# Poissons Ratio (x) = 0.35630 0.06046
# Poissons Ratio (y) = 0.31269 0.59169
# Poissons Ratio (z) = 0.03108 0.34657
#
# Static dielectric constant tensor:
#      x y z
#    x 3.568730 0.000000 0.000000 
#    y 0.000000 4.118900 0.000000 
#    z 0.000000 0.000000 4.115960 
# 
# 
# High freq. dielectric constant tensor:
#      x y z
#    x 1.794110 0.000000 0.000000 
#    y 0.000000 1.809690 0.000000 
#    z 0.000000 0.000000 1.826150 
# 
# From -- ./inp_files/13841.got.cif
#   From: 2010.03.12/outbox.cif.g09.slc.cpg/sg62_7_cif.got.tgz:13841.got - 2010.04.10 19:12:36.
