data_PCOD8253878
_publ_section_title
;
Structure prediction by ZEFSAII (Michael W. Deem and Ramdas Pophale) SiO2 
 PCOD8253878
Probable space group: P N M A
;
_chemical_formula_sum "Si O2"
_cell_formula_units_Z 56
_cell_length_a 21.861484
_cell_length_b 8.619644
_cell_length_c 14.530920
_cell_angle_alpha 90.000000
_cell_angle_beta 90.000000
_cell_angle_gamma 90.000000
_cell_volume 2738.180546
_symmetry_space_group_name_H-M "P N M A"
_symmetry_group_IT_number 62
_symmetry_cell_setting 'orthorhombic'
loop_
_space_group_symop_operation_xyz
x,y,z
1/2-x,-y,1/2+z
1/2+x,1/2-y,1/2-z
-x,1/2+y,-z
-x,-y,-z
1/2+x,y,1/2-z
1/2-x,1/2+y,1/2+z
x,1/2-y,z
loop_
_atom_site_type_symbol
_atom_site_label
_atom_site_fract_x
_atom_site_fract_y
_atom_site_fract_z
Si Si1 0.446798 0.429038 0.886802
Si Si2 0.342163 0.934085 0.384129
Si Si3 0.076755 0.927671 0.592964
Si Si4 0.911044 0.565954 0.791306
Si Si5 0.480603 0.934517 0.402637
Si Si6 0.302299 0.933158 0.580005
Si Si7 0.309943 0.569438 0.185384
O O1 0.463731 0.250000 0.870618
O O2 0.508014 0.530095 0.879998
O O3 0.400114 0.491822 0.809352
O O4 0.413365 0.452880 0.984025
O O5 0.342463 0.750000 0.386527
O O6 0.412057 0.992015 0.381600
O O7 0.308608 0.000009 0.475818
O O8 0.307388 0.990274 0.291555
O O9 0.089498 0.750000 0.620634
O O10 0.122589 0.039684 0.646471
O O11 0.909659 0.750000 0.785569
O O12 0.857967 0.501672 0.858281
O O13 0.976793 0.507504 0.824898
O O14 0.486218 0.750000 0.402589
O O15 0.500000 0.000000 0.500000
O O16 0.307081 0.750000 0.576127
O O17 0.238080 0.978203 0.623559
O O18 0.294729 0.750000 0.179588
#
# Coordination Sequence:
#
# PCOD8253878 Si02
#       7
#     8   8   8   8   8   8   8
#     4  10  21  37  60  89 121 155 193 243 297 352
#     4   9  20  40  61  82 116 157 192 238 302 359
#     4  10  21  39  61  86 118 157 197 239 295 357
#     4  11  22  37  59  88 121 158 199 246 301 361
#     4  11  20  35  60  89 120 156 196 245 307 367
#     4  10  22  42  60  79 115 158 199 242 294 355
#     4  11  23  39  62  88 115 153 203 251 297 355
#
# _framework density 20.451539
#
# number of rings (size 3 to 8) (size 9 to 14) (size 15 to 20)
#    0.000    1.714    1.429    3.000    0.000    5.143 
#    0.000    7.857    0.000    0.000    0.000    0.000 
#    0.000    0.000    0.000    0.000    0.000    0.000 
#
# Total GULP energy -694514.095544 kJ/mol
# GULP energy per Si atom -12402.037420 kJ/mol
# Density = 2.040499 g / cm^3
# Si number density = 20.451539 Si / 1000 Ang^3
#
#
#
# Elastic Constant Matrix: (Units=GPa)
#
#
# Indices 1 2 3 4 5 6 
#
# 1 67.9588 1.5013 39.9250 0.0000 0.0000 0.0000
# 2 1.5013 33.7312 28.0061 0.0000 0.0000 0.0000
# 3 39.9250 28.0061 145.9552 0.0000 0.0000 0.0000
# 4 0.0000 0.0000 0.0000 31.4261 0.0000 0.0000
# 5 0.0000 0.0000 0.0000 0.0000 29.7284 0.0000
# 6 0.0000 0.0000 0.0000 0.0000 0.0000 31.8842
#
#
#
# Elastic Compliance Matrix: (Units=1/GPa)
#
#
# Indices 1 2 3 4 5 6 
#
# 1 0.017953 0.003900 -0.005659 0.000000 0.000000 0.000000
# 2 0.003900 0.036111 -0.007996 0.000000 0.000000 0.000000
# 3 -0.005659 -0.007996 0.009934 0.000000 0.000000 0.000000
# 4 0.000000 0.000000 0.000000 0.031821 0.000000 0.000000
# 5 0.000000 0.000000 0.000000 0.000000 0.033638 0.000000
# 6 0.000000 0.000000 0.000000 0.000000 0.000000 0.031363
#
#
# Mechanical properties :
#
#
# Convention : Reuss Voigt Hill
#
# Bulk Modulus (GPa) = 22.47818 42.94555 32.71186
# Shear Modulus (GPa) = 25.61993 30.48859 28.05426
#
# Velocity S-wave (km/s) = 3.54321 3.86524 3.70772
# Velocity P-wave (km/s) = 5.26820 6.40034 5.86167
#
# Compressibility (1/GPa) = 0.04448759
#
# Stress axis : x y z
#
# Youngs Moduli (GPa) = 55.69969 27.69219 100.66715
#
# Poissons Ratio (x) = -0.10799 0.56971
# Poissons Ratio (y) = -0.21721 0.80492
# Poissons Ratio (z) = 0.31522 0.22142
#
# Static dielectric constant tensor:
#      x y z
#    x 3.575150 0.000000 0.000000 
#    y 0.000000 3.530680 0.000000 
#    z 0.000000 0.000000 4.208330 
# 
# 
# High freq. dielectric constant tensor:
#      x y z
#    x 1.785220 0.000000 0.000000 
#    y 0.000000 1.787770 0.000000 
#    z 0.000000 0.000000 1.822410 
# 
# From -- ./inp_files/20325.got.cif
#   From: 2010.03.12/outbox.cif.g09.slc.cpg/sg62_11_cif.got.tgz:20325.got - 2010.04.10 19:12:36.
