data_PCOD8253856
_publ_section_title
;
Structure prediction by ZEFSAII (Michael W. Deem and Ramdas Pophale) SiO2 
 PCOD8253856
Probable space group: P N M A
;
_chemical_formula_sum "Si O2"
_cell_formula_units_Z 48
_cell_length_a 15.070200
_cell_length_b 8.960886
_cell_length_c 18.117345
_cell_angle_alpha 90.000000
_cell_angle_beta 90.000000
_cell_angle_gamma 90.000000
_cell_volume 2446.608739
_symmetry_space_group_name_H-M "P N M A"
_symmetry_group_IT_number 62
_symmetry_cell_setting 'orthorhombic'
loop_
_space_group_symop_operation_xyz
x,y,z
1/2-x,-y,1/2+z
1/2+x,1/2-y,1/2-z
-x,1/2+y,-z
-x,-y,-z
1/2+x,y,1/2-z
1/2-x,1/2+y,1/2+z
x,1/2-y,z
loop_
_atom_site_type_symbol
_atom_site_label
_atom_site_fract_x
_atom_site_fract_y
_atom_site_fract_z
Si Si1 0.416232 0.923127 0.185082
Si Si2 0.268777 0.424918 0.922505
Si Si3 0.596779 0.423795 0.185255
Si Si4 0.762582 0.925997 0.425601
Si Si5 0.595858 0.423131 0.357275
Si Si6 0.082786 0.078360 0.854247
O O1 0.439058 0.750000 0.172539
O O2 0.332588 0.974065 0.136796
O O3 0.391624 0.957411 0.269693
O O4 0.500650 0.018974 0.159425
O O5 0.285915 0.250000 0.929921
O O6 0.327665 0.486572 0.856410
O O7 0.166376 0.460387 0.905017
O O8 0.296189 0.505245 0.997812
O O9 0.604352 0.250000 0.166749
O O10 0.610894 0.457633 0.271382
O O11 0.756005 0.750000 0.433784
O O12 0.666784 0.988713 0.405213
O O13 0.605252 0.250000 0.376009
O O14 0.498255 0.476531 0.381446
O O15 0.054009 0.250000 0.862220
#
# Coordination Sequence:
#
# PCOD8253856 Si02
#       6
#     8   8   8   8   8   8
#     4   9  19  37  60  83 107 141 186 231 275 326
#     4  11  23  38  57  82 114 151 188 229 278 331
#     4  10  21  37  59  86 113 143 182 229 279 331
#     4  11  23  38  57  82 114 151 188 229 278 331
#     4  10  21  37  59  86 113 143 182 229 279 331
#     4   9  19  37  60  83 107 141 186 231 275 326
#
# _framework density 19.618995000000002
#
# number of rings (size 3 to 8) (size 9 to 14) (size 15 to 20)
#    0.000    2.000    0.000    3.000    0.000    7.333 
#    0.000    3.333    0.000    0.000    0.000    0.000 
#    0.000    0.000    0.000    0.000    0.000    0.000 
#
# Total GULP energy -595483.409654 kJ/mol
# GULP energy per Si atom -12405.904368 kJ/mol
# Density = 1.957434 g / cm^3
# Si number density = 19.618995 Si / 1000 Ang^3
#
#
#
# Elastic Constant Matrix: (Units=GPa)
#
#
# Indices 1 2 3 4 5 6 
#
# 1 64.4301 37.1032 11.5181 0.0000 0.0000 0.0000
# 2 37.1032 85.3253 26.5233 0.0000 0.0000 0.0000
# 3 11.5181 26.5233 40.9834 0.0000 0.0000 0.0000
# 4 0.0000 0.0000 0.0000 33.9015 0.0000 0.0000
# 5 0.0000 0.0000 0.0000 0.0000 11.5700 0.0000
# 6 0.0000 0.0000 0.0000 0.0000 0.0000 32.4780
#
#
#
# Elastic Compliance Matrix: (Units=1/GPa)
#
#
# Indices 1 2 3 4 5 6 
#
# 1 0.020706 -0.009007 0.000010 0.000000 0.000000 0.000000
# 2 -0.009007 0.018589 -0.009499 0.000000 0.000000 0.000000
# 3 0.000010 -0.009499 0.030545 0.000000 0.000000 0.000000
# 4 0.000000 0.000000 0.000000 0.029497 0.000000 0.000000
# 5 0.000000 0.000000 0.000000 0.000000 0.086431 0.000000
# 6 0.000000 0.000000 0.000000 0.000000 0.000000 0.030790
#
#
# Mechanical properties :
#
#
# Convention : Reuss Voigt Hill
#
# Bulk Modulus (GPa) = 30.44368 37.89200 34.16784
# Shear Modulus (GPa) = 18.90364 23.29616 21.09990
#
# Velocity S-wave (km/s) = 3.10746 3.44965 3.28301
# Velocity P-wave (km/s) = 5.33162 5.93486 5.64131
#
# Compressibility (1/GPa) = 0.03284754
#
# Stress axis : x y z
#
# Youngs Moduli (GPa) = 48.29599 53.79469 32.73860
#
# Poissons Ratio (x) = 0.48452 -0.00032
# Poissons Ratio (y) = 0.43499 0.31099
# Poissons Ratio (z) = -0.00047 0.51100
#
# Static dielectric constant tensor:
#      x y z
#    x 3.581730 0.000000 0.000000 
#    y 0.000000 3.597550 0.000000 
#    z 0.000000 0.000000 3.550840 
# 
# 
# High freq. dielectric constant tensor:
#      x y z
#    x 1.770170 0.000000 0.000000 
#    y 0.000000 1.770900 0.000000 
#    z 0.000000 0.000000 1.762170 
# 
# From -- ./inp_files/6458.got.cif
#   From: 2010.03.12/outbox.cif.g09.slc.cpg/sg62_4_cif.got.tgz:6458.got - 2010.04.10 19:12:36.
