data_PCOD8253986
_publ_section_title
;
Structure prediction by ZEFSAII (Michael W. Deem and Ramdas Pophale) SiO2 
 PCOD8253986
Probable space group: P N M A
;
_chemical_formula_sum "Si O2"
_cell_formula_units_Z 48
_cell_length_a 27.408771
_cell_length_b 9.107783
_cell_length_c 9.871074
_cell_angle_alpha 90.000000
_cell_angle_beta 90.000000
_cell_angle_gamma 90.000000
_cell_volume 2464.147184
_symmetry_space_group_name_H-M "P N M A"
_symmetry_group_IT_number 62
_symmetry_cell_setting 'orthorhombic'
loop_
_space_group_symop_operation_xyz
x,y,z
1/2-x,-y,1/2+z
1/2+x,1/2-y,1/2-z
-x,1/2+y,-z
-x,-y,-z
1/2+x,y,1/2-z
1/2-x,1/2+y,1/2+z
x,1/2-y,z
loop_
_atom_site_type_symbol
_atom_site_label
_atom_site_fract_x
_atom_site_fract_y
_atom_site_fract_z
Si Si1 0.961300 0.420960 0.405691
Si Si2 0.290482 0.579195 0.266904
Si Si3 0.144062 0.919458 0.973765
Si Si4 0.962479 0.080579 0.095732
Si Si5 0.638546 0.077104 0.972866
Si Si6 0.678765 0.580712 0.228599
O O1 0.958185 0.250000 0.444659
O O2 0.978306 0.442172 0.250943
O O3 0.908976 0.492945 0.423793
O O4 0.000000 0.500000 0.500000
O O5 0.295811 0.750000 0.294758
O O6 0.312536 0.499602 0.396602
O O7 0.318077 0.534798 0.129348
O O8 0.234544 0.531680 0.250029
O O9 0.148082 0.750000 0.933359
O O10 0.149673 0.944053 0.133114
O O11 0.091772 0.984156 0.928069
O O12 0.962750 0.250000 0.053606
O O13 0.000000 0.000000 0.000000
O O14 0.627814 0.250000 0.976440
O O15 0.653347 0.024215 0.121028
O O16 0.675547 0.750000 0.181198
#
# Coordination Sequence:
#
# PCOD8253986 Si02
#       6
#     8   8   8   8   8   8
#     4  11  24  43  65  92 122 158 201 247 302 362
#     4  10  21  38  60  88 121 159 202 247 298 352
#     4  10  21  40  62  86 119 159 199 245 300 356
#     4  10  23  41  63  90 119 156 199 244 299 357
#     4  11  23  40  62  91 124 160 202 250 300 356
#     4  10  22  38  59  89 123 160 202 247 296 353
#
# _framework density 19.479355000000002
#
# number of rings (size 3 to 8) (size 9 to 14) (size 15 to 20)
#    0.000    1.667    1.667    2.000    2.333    5.333 
#    0.000    0.000    0.000    0.000    0.000    0.000 
#    0.000    0.000    0.000    0.000    0.000    0.000 
#
# Total GULP energy -595457.443888 kJ/mol
# GULP energy per Si atom -12405.363414 kJ/mol
# Density = 1.943502 g / cm^3
# Si number density = 19.479355 Si / 1000 Ang^3
#
#
#
# Elastic Constant Matrix: (Units=GPa)
#
#
# Indices 1 2 3 4 5 6 
#
# 1 90.4343 41.7844 35.6694 0.0000 0.0000 0.0000
# 2 41.7844 76.0440 46.6795 0.0000 0.0000 0.0000
# 3 35.6694 46.6795 95.7774 0.0000 0.0000 0.0000
# 4 0.0000 0.0000 0.0000 37.1041 0.0000 0.0000
# 5 0.0000 0.0000 0.0000 0.0000 42.1677 0.0000
# 6 0.0000 0.0000 0.0000 0.0000 0.0000 35.4564
#
#
#
# Elastic Compliance Matrix: (Units=1/GPa)
#
#
# Indices 1 2 3 4 5 6 
#
# 1 0.015156 -0.006939 -0.002263 0.000000 0.000000 0.000000
# 2 -0.006939 0.021941 -0.008109 0.000000 0.000000 0.000000
# 3 -0.002263 -0.008109 0.015236 0.000000 0.000000 0.000000
# 4 0.000000 0.000000 0.000000 0.026951 0.000000 0.000000
# 5 0.000000 0.000000 0.000000 0.000000 0.023715 0.000000
# 6 0.000000 0.000000 0.000000 0.000000 0.000000 0.028204
#
#
# Mechanical properties :
#
#
# Convention : Reuss Voigt Hill
#
# Bulk Modulus (GPa) = 56.46144 56.72470 56.59307
# Shear Modulus (GPa) = 29.11573 32.15378 30.63475
#
# Velocity S-wave (km/s) = 3.87032 4.06724 3.97000
# Velocity P-wave (km/s) = 7.00148 7.15823 7.08029
#
# Compressibility (1/GPa) = 0.01771120
#
# Stress axis : x y z
#
# Youngs Moduli (GPa) = 65.97894 45.57670 65.63522
#
# Poissons Ratio (x) = 0.31627 0.14850
# Poissons Ratio (y) = 0.45784 0.53225
# Poissons Ratio (z) = 0.14928 0.36959
#
# Static dielectric constant tensor:
#      x y z
#    x 1.814980 0.000000 0.000000 
#    y 0.000000 3.542650 0.000000 
#    z 0.000000 0.000000 3.079800 
# 
# 
# High freq. dielectric constant tensor:
#      x y z
#    x 1.769580 0.000000 0.000000 
#    y 0.000000 1.756290 0.000000 
#    z 0.000000 0.000000 1.769980 
# 
# From -- ./inp_files/10154.got.cif
#   From: 2010.03.12/outbox.cif.g09.slc.cpg/sg62_6_cif.got.tgz:10154.got - 2010.04.10 19:12:36.
