data_PCOD8253190
_publ_section_title
;
Structure prediction by ZEFSAII (Michael W. Deem and Ramdas Pophale) SiO2 
 PCOD8253190
Probable space group: P N M A
;
_chemical_formula_sum "Si O2"
_cell_formula_units_Z 48
_cell_length_a 16.345267
_cell_length_b 15.734278
_cell_length_c 9.147540
_cell_angle_alpha 90.000000
_cell_angle_beta 90.000000
_cell_angle_gamma 90.000000
_cell_volume 2352.573256
_symmetry_space_group_name_H-M "P N M A"
_symmetry_group_IT_number 62
_symmetry_cell_setting 'orthorhombic'
loop_
_space_group_symop_operation_xyz
x,y,z
1/2-x,-y,1/2+z
1/2+x,1/2-y,1/2-z
-x,1/2+y,-z
-x,-y,-z
1/2+x,y,1/2-z
1/2-x,1/2+y,1/2+z
x,1/2-y,z
loop_
_atom_site_type_symbol
_atom_site_label
_atom_site_fract_x
_atom_site_fract_y
_atom_site_fract_z
Si Si1 0.569901 0.250000 0.646978
Si Si2 0.338616 0.421924 0.884298
Si Si3 0.347459 0.923505 0.388223
Si Si4 0.087832 0.750000 0.675648
Si Si5 0.079479 0.250000 0.187436
Si Si6 0.094341 0.434506 0.197119
Si Si7 0.908993 0.432524 0.304940
Si Si8 0.593911 0.750000 0.169810
O O1 0.623133 0.333975 0.679219
O O2 0.541828 0.250000 0.477371
O O3 0.494500 0.250000 0.757292
O O4 0.245975 0.413834 0.940632
O O5 0.344752 0.503040 0.779399
O O6 0.361070 0.338128 0.787263
O O7 0.400565 0.436501 0.019491
O O8 0.403305 0.954100 0.523938
O O9 0.352881 0.995197 0.264158
O O10 0.122927 0.837821 0.745055
O O11 0.098385 0.750000 0.503898
O O12 0.991232 0.750000 0.694907
O O13 0.129549 0.337337 0.213971
O O14 0.002829 0.446187 0.257696
#
# Coordination Sequence:
#
# PCOD8253190 Si02
#       8
#     4   8   8   4   4   8   8   4
#     4  10  21  37  58  81 109 148 189 228 276 341
#     4  11  22  37  56  84 117 150 188 240 293 338
#     4  11  22  37  56  84 117 150 188 240 293 338
#     4   8  18  35  56  81 106 138 184 232 274 323
#     4   8  18  35  56  81 106 138 184 232 274 323
#     4  10  20  37  59  83 112 151 194 234 283 348
#     4  10  20  37  59  83 112 151 194 234 283 348
#     4  10  21  37  58  81 109 148 189 228 276 341
#
# _framework density 20.403192000000001
#
# number of rings (size 3 to 8) (size 9 to 14) (size 15 to 20)
#    0.000    2.000    0.000    3.500    0.000    5.333 
#    0.000    2.500    0.000    0.000    0.000    2.333 
#    0.000    0.000    0.000    0.000    0.000    0.000 
#
# Total GULP energy -594824.194869 kJ/mol
# GULP energy per Si atom -12392.170726 kJ/mol
# Density = 2.035675 g / cm^3
# Si number density = 20.403192 Si / 1000 Ang^3
#
#
#
# Elastic Constant Matrix: (Units=GPa)
#
#
# Indices 1 2 3 4 5 6 
#
# 1 96.0562 39.2462 26.2256 0.0000 0.0000 0.0000
# 2 39.2462 180.7280 52.9860 0.0000 0.0000 0.0000
# 3 26.2256 52.9860 42.5137 0.0000 0.0000 0.0000
# 4 0.0000 0.0000 0.0000 33.2524 0.0000 0.0000
# 5 0.0000 0.0000 0.0000 0.0000 27.5737 0.0000
# 6 0.0000 0.0000 0.0000 0.0000 0.0000 23.8484
#
#
#
# Elastic Compliance Matrix: (Units=1/GPa)
#
#
# Indices 1 2 3 4 5 6 
#
# 1 0.012578 -0.000719 -0.006862 0.000000 0.000000 0.000000
# 2 -0.000719 0.008760 -0.010474 0.000000 0.000000 0.000000
# 3 -0.006862 -0.010474 0.040810 0.000000 0.000000 0.000000
# 4 0.000000 0.000000 0.000000 0.030073 0.000000 0.000000
# 5 0.000000 0.000000 0.000000 0.000000 0.036266 0.000000
# 6 0.000000 0.000000 0.000000 0.000000 0.000000 0.041932
#
#
# Mechanical properties :
#
#
# Convention : Reuss Voigt Hill
#
# Bulk Modulus (GPa) = 38.40916 61.80150 50.10533
# Shear Modulus (GPa) = 23.23312 30.32424 26.77868
#
# Velocity S-wave (km/s) = 3.37812 3.85937 3.62674
# Velocity P-wave (km/s) = 5.83794 7.08629 6.49219
#
# Compressibility (1/GPa) = 0.02603546
#
# Stress axis : x y z
#
# Youngs Moduli (GPa) = 79.50303 114.15134 24.50408
#
# Poissons Ratio (x) = 0.08213 0.16816
# Poissons Ratio (y) = 0.05720 0.25666
# Poissons Ratio (z) = 0.54558 1.19566
#
# Static dielectric constant tensor:
#      x y z
#    x 3.328240 0.000000 0.000000 
#    y 0.000000 4.416800 0.000000 
#    z 0.000000 0.000000 3.460280 
# 
# 
# High freq. dielectric constant tensor:
#      x y z
#    x 1.770910 0.000000 0.000000 
#    y 0.000000 1.829460 0.000000 
#    z 0.000000 0.000000 1.779060 
# 
# From -- ./inp_files/6582.got.cif
#   From: 2010.03.12/outbox.cif.g09.slc.cpg/sg62_4_cif.got.tgz:6582.got - 2010.04.10 19:12:36.
