data_PCOD8253671
_publ_section_title
;
Structure prediction by ZEFSAII (Michael W. Deem and Ramdas Pophale) SiO2 
 PCOD8253671
Probable space group: P N M A
;
_chemical_formula_sum "Si O2"
_cell_formula_units_Z 48
_cell_length_a 10.239193
_cell_length_b 9.094494
_cell_length_c 29.580148
_cell_angle_alpha 90.000000
_cell_angle_beta 90.000000
_cell_angle_gamma 90.000000
_cell_volume 2754.511644
_symmetry_space_group_name_H-M "P N M A"
_symmetry_group_IT_number 62
_symmetry_cell_setting 'orthorhombic'
loop_
_space_group_symop_operation_xyz
x,y,z
1/2-x,-y,1/2+z
1/2+x,1/2-y,1/2-z
-x,1/2+y,-z
-x,-y,-z
1/2+x,y,1/2-z
1/2-x,1/2+y,1/2+z
x,1/2-y,z
loop_
_atom_site_type_symbol
_atom_site_label
_atom_site_fract_x
_atom_site_fract_y
_atom_site_fract_z
Si Si1 0.731704 0.575772 0.386075
Si Si2 0.518538 0.923764 0.215285
Si Si3 0.887511 0.577359 0.528413
Si Si4 0.621440 0.922010 0.478028
Si Si5 0.472069 0.422743 0.886646
Si Si6 0.725484 0.574254 0.286397
O O1 0.731549 0.750000 0.385983
O O2 0.639771 0.517613 0.426542
O O3 0.879674 0.525904 0.395520
O O4 0.684362 0.519466 0.336788
O O5 0.514972 0.750000 0.220985
O O6 0.566437 0.963575 0.164800
O O7 0.371933 0.984115 0.224698
O O8 0.621605 0.992784 0.250867
O O9 0.915326 0.750000 0.528844
O O10 0.749417 0.539566 0.506393
O O11 0.000000 0.500000 0.500000
O O12 0.881543 0.514502 0.579362
O O13 0.593370 0.750000 0.477646
O O14 0.500000 0.000000 0.500000
O O15 0.453322 0.250000 0.895915
O O16 0.725692 0.750000 0.284593
#
# Coordination Sequence:
#
# PCOD8253671 Si02
#       6
#     8   8   8   8   8   8
#     4   8  14  28  47  65  96 133 157 191 244 294
#     4   8  14  24  41  65  95 125 154 194 240 289
#     4  11  21  34  54  76  99 128 167 210 249 292
#     4  10  21  36  50  70 101 133 164 202 248 296
#     4   9  16  30  50  73 100 128 161 202 247 293
#     4   8  13  23  40  63  92 123 152 188 239 286
#
# _framework density 17.425957
#
# number of rings (size 3 to 8) (size 9 to 14) (size 15 to 20)
#    0.000    3.000    1.667    2.500    0.000    1.333 
#    3.000    0.000    0.000    0.000    0.000    5.833 
#    0.000    0.000    0.000    0.000    0.000    0.000 
#
# Total GULP energy -594866.386564 kJ/mol
# GULP energy per Si atom -12393.049720 kJ/mol
# Density = 1.738629 g / cm^3
# Si number density = 17.425957 Si / 1000 Ang^3
#
#
#
# Elastic Constant Matrix: (Units=GPa)
#
#
# Indices 1 2 3 4 5 6 
#
# 1 111.5361 39.5616 94.8734 0.0000 0.0000 0.0000
# 2 39.5616 31.2073 35.7965 0.0000 0.0000 0.0000
# 3 94.8734 35.7965 175.1731 0.0000 0.0000 0.0000
# 4 0.0000 0.0000 0.0000 20.7208 0.0000 0.0000
# 5 0.0000 0.0000 0.0000 0.0000 35.8633 0.0000
# 6 0.0000 0.0000 0.0000 0.0000 0.0000 20.2253
#
#
#
# Elastic Compliance Matrix: (Units=1/GPa)
#
#
# Indices 1 2 3 4 5 6 
#
# 1 0.023192 -0.019583 -0.008559 0.000000 0.000000 0.000000
# 2 -0.019583 0.058390 -0.001326 0.000000 0.000000 0.000000
# 3 -0.008559 -0.001326 0.010615 0.000000 0.000000 0.000000
# 4 0.000000 0.000000 0.000000 0.048261 0.000000 0.000000
# 5 0.000000 0.000000 0.000000 0.000000 0.027884 0.000000
# 6 0.000000 0.000000 0.000000 0.000000 0.000000 0.049443
#
#
# Mechanical properties :
#
#
# Convention : Reuss Voigt Hill
#
# Bulk Modulus (GPa) = 30.06477 73.15328 51.60903
# Shear Modulus (GPa) = 17.37270 25.20755 21.29012
#
# Velocity S-wave (km/s) = 3.16087 3.80748 3.49914
# Velocity P-wave (km/s) = 5.53279 7.83581 6.78276
#
# Compressibility (1/GPa) = 0.03326152
#
# Stress axis : x y z
#
# Youngs Moduli (GPa) = 43.11795 17.12618 94.20506
#
# Poissons Ratio (x) = 0.33538 0.80631
# Poissons Ratio (y) = 0.84438 0.12490
# Poissons Ratio (z) = 0.36905 0.02271
#
# Static dielectric constant tensor:
#      x y z
#    x 3.369670 0.000000 0.000000 
#    y 0.000000 2.698950 0.000000 
#    z 0.000000 0.000000 3.763300 
# 
# 
# High freq. dielectric constant tensor:
#      x y z
#    x 1.659640 0.000000 0.000000 
#    y 0.000000 1.617510 0.000000 
#    z 0.000000 0.000000 1.692690 
# 
# From -- ./inp_files/31979.got.cif
#   From: 2010.03.12/outbox.cif.g09.slc.cpg/sg62_16_cif.got.tgz:31979.got - 2010.04.10 19:12:36.
