data_PCOD8253019
_publ_section_title
;
Structure prediction by ZEFSAII (Michael W. Deem and Ramdas Pophale) SiO2 
 PCOD8253019
Probable space group: P N M A
;
_chemical_formula_sum "Si O2"
_cell_formula_units_Z 64
_cell_length_a 15.914066
_cell_length_b 11.394800
_cell_length_c 18.046836
_cell_angle_alpha 90.000000
_cell_angle_beta 90.000000
_cell_angle_gamma 90.000000
_cell_volume 3272.569914
_symmetry_space_group_name_H-M "P N M A"
_symmetry_group_IT_number 62
_symmetry_cell_setting 'orthorhombic'
loop_
_space_group_symop_operation_xyz
x,y,z
1/2-x,-y,1/2+z
1/2+x,1/2-y,1/2-z
-x,1/2+y,-z
-x,-y,-z
1/2+x,y,1/2-z
1/2-x,1/2+y,1/2+z
x,1/2-y,z
loop_
_atom_site_type_symbol
_atom_site_label
_atom_site_fract_x
_atom_site_fract_y
_atom_site_fract_z
Si Si1 0.838189 0.379720 0.072845
Si Si2 0.520399 0.387736 0.372197
Si Si3 0.935683 0.994420 0.397184
Si Si4 0.590337 0.623335 0.043136
Si Si5 0.368213 0.384141 0.593895
Si Si6 0.790234 0.881222 0.305624
Si Si7 0.441196 0.880761 0.794057
Si Si8 0.289127 0.466448 0.838950
O O1 0.824315 0.250000 0.103882
O O2 0.767988 0.455567 0.109932
O O3 0.931875 0.419620 0.092065
O O4 0.824121 0.386394 0.985323
O O5 0.548528 0.250000 0.393279
O O6 0.575209 0.498135 0.401266
O O7 0.512468 0.397514 0.284054
O O8 0.862779 0.962492 0.339453
O O9 0.000052 0.889989 0.416391
O O10 0.895241 0.033672 0.475409
O O11 0.992468 0.094572 0.359271
O O12 0.593029 0.750000 0.005933
O O13 0.663151 0.619844 0.104967
O O14 0.409638 0.250000 0.604513
O O15 0.297429 0.402391 0.654592
O O16 0.823366 0.750000 0.316064
O O17 0.772826 0.903077 0.218829
O O18 0.408020 0.750000 0.805140
O O19 0.358817 0.960511 0.794709
#
# Coordination Sequence:
#
# PCOD8253019 Si02
#       8
#     8   8   8   8   8   8   8   8
#     4  10  21  37  60  84 113 150 195 243 286 349
#     4  10  20  38  59  86 117 149 194 246 296 345
#     4  10  21  37  60  85 114 154 200 239 290 360
#     4  10  21  38  58  85 118 153 191 245 301 347
#     4  10  21  39  60  85 116 157 198 238 295 357
#     4  11  22  38  58  83 117 154 199 245 293 357
#     4  10  20  36  58  84 117 152 191 239 293 353
#     4  11  21  37  59  83 120 149 196 235 300 348
#
# _framework density 19.556495999999999
#
# number of rings (size 3 to 8) (size 9 to 14) (size 15 to 20)
#    0.000    1.750    1.250    3.375    0.000    0.000 
#    0.000   12.500    0.000    0.000    0.000    0.000 
#    0.000    0.000    0.000    0.000    0.000    0.000 
#
# Total GULP energy -792963.374198 kJ/mol
# GULP energy per Si atom -12390.052722 kJ/mol
# Density = 1.951198 g / cm^3
# Si number density = 19.556496 Si / 1000 Ang^3
#
#
#
# Elastic Constant Matrix: (Units=GPa)
#
#
# Indices 1 2 3 4 5 6 
#
# 1 59.7191 42.2616 32.9156 0.0000 0.0000 0.0000
# 2 42.2616 89.9035 18.8243 0.0000 0.0000 0.0000
# 3 32.9156 18.8243 92.8261 0.0000 0.0000 0.0000
# 4 0.0000 0.0000 0.0000 32.7817 0.0000 0.0000
# 5 0.0000 0.0000 0.0000 0.0000 8.6107 0.0000
# 6 0.0000 0.0000 0.0000 0.0000 0.0000 -48.9428
#
#
#
# Elastic Compliance Matrix: (Units=1/GPa)
#
#
# Indices 1 2 3 4 5 6 
#
# 1 0.029997 -0.012400 -0.008122 0.000000 0.000000 0.000000
# 2 -0.012400 0.016742 0.001002 0.000000 0.000000 0.000000
# 3 -0.008122 0.001002 0.013450 0.000000 0.000000 0.000000
# 4 0.000000 0.000000 0.000000 0.030505 0.000000 0.000000
# 5 0.000000 0.000000 0.000000 0.000000 0.116135 0.000000
# 6 0.000000 0.000000 0.000000 0.000000 0.000000 -0.020432
#
#
# Mechanical properties :
#
#
# Convention : Reuss Voigt Hill
#
# Bulk Modulus (GPa) = 47.28566 47.82797 47.55681
# Shear Modulus (GPa) = 21.50654 8.38640 14.94647
#
# Velocity S-wave (km/s) = 3.31979 2.07307 2.76754
# Velocity P-wave (km/s) = 6.23908 5.49905 5.88072
#
# Compressibility (1/GPa) = 0.02114806
#
# Stress axis : x y z
#
# Youngs Moduli (GPa) = 33.33654 59.72869 74.35103
#
# Poissons Ratio (x) = 0.74066 0.60389
# Poissons Ratio (y) = 0.41338 -0.07449
# Poissons Ratio (z) = 0.27076 -0.05984
#
# Static dielectric constant tensor:
#      x y z
#    x 3.418760 0.000000 0.000000 
#    y 0.000000 2.456170 0.000000 
#    z 0.000000 0.000000 3.748590 
# 
# 
# High freq. dielectric constant tensor:
#      x y z
#    x 1.749760 0.000000 0.000000 
#    y 0.000000 1.765400 0.000000 
#    z 0.000000 0.000000 1.775580 
# 
# From -- ./inp_files/24035.got.cif
#   From: 2010.03.12/outbox.cif.g09.slc.cpg/sg62_13_cif.got.tgz:24035.got - 2010.04.10 19:12:36.
