data_PCOD8253984
_publ_section_title
;
Structure prediction by ZEFSAII (Michael W. Deem and Ramdas Pophale) SiO2 
 PCOD8253984
Probable space group: P N M A
;
_chemical_formula_sum "Si O2"
_cell_formula_units_Z 56
_cell_length_a 19.128165
_cell_length_b 8.888156
_cell_length_c 16.452198
_cell_angle_alpha 90.000000
_cell_angle_beta 90.000000
_cell_angle_gamma 90.000000
_cell_volume 2797.105875
_symmetry_space_group_name_H-M "P N M A"
_symmetry_group_IT_number 62
_symmetry_cell_setting 'orthorhombic'
loop_
_space_group_symop_operation_xyz
x,y,z
1/2-x,-y,1/2+z
1/2+x,1/2-y,1/2-z
-x,1/2+y,-z
-x,-y,-z
1/2+x,y,1/2-z
1/2-x,1/2+y,1/2+z
x,1/2-y,z
loop_
_atom_site_type_symbol
_atom_site_label
_atom_site_fract_x
_atom_site_fract_y
_atom_site_fract_z
Si Si1 0.623521 0.076128 0.864087
Si Si2 0.131186 0.423144 0.307928
Si Si3 0.780552 0.424712 0.822273
Si Si4 0.555735 0.927076 0.559446
Si Si5 0.654121 0.574955 0.026834
Si Si6 0.478607 0.422159 0.257343
Si Si7 0.687199 0.425513 0.485701
O O1 0.615112 0.250000 0.887184
O O2 0.698088 0.043755 0.822860
O O3 0.564126 0.030195 0.801460
O O4 0.614999 0.979878 0.945912
O O5 0.153924 0.250000 0.311640
O O6 0.191901 0.516995 0.263904
O O7 0.121333 0.484982 0.398480
O O8 0.060111 0.445471 0.258673
O O9 0.797987 0.250000 0.833027
O O10 0.819208 0.514495 0.893977
O O11 0.554932 0.750000 0.545674
O O12 0.535671 0.971480 0.650740
O O13 0.500000 0.000000 0.500000
O O14 0.632843 0.989875 0.543077
O O15 0.639057 0.750000 0.038628
O O16 0.736466 0.540105 0.021312
O O17 0.455735 0.250000 0.241777
O O18 0.669492 0.250000 0.484464
#
# Coordination Sequence:
#
# PCOD8253984 Si02
#       7
#     8   8   8   8   8   8   8
#     4  10  22  40  63  90 119 155 202 251 303 362
#     4  11  23  39  61  88 121 159 203 250 300 362
#     4  10  21  38  61  90 122 155 198 249 303 361
#     4  11  23  39  61  89 123 162 204 250 303 365
#     4  10  22  40  62  88 120 157 200 250 303 359
#     4  10  24  42  59  86 121 160 203 246 301 363
#     4  10  21  38  60  87 119 156 199 247 301 360
#
# _framework density 20.020693000000001
#
# number of rings (size 3 to 8) (size 9 to 14) (size 15 to 20)
#    0.000    1.714    0.000    3.429    2.000    7.429 
#    0.000    0.000    0.000    0.000    0.000    0.000 
#    0.000    0.000    0.000    0.000    0.000    0.000 
#
# Total GULP energy -694825.765558 kJ/mol
# GULP energy per Si atom -12407.602956 kJ/mol
# Density = 1.997512 g / cm^3
# Si number density = 20.020693 Si / 1000 Ang^3
#
#
#
# Elastic Constant Matrix: (Units=GPa)
#
#
# Indices 1 2 3 4 5 6 
#
# 1 28.1938 19.7637 15.8772 0.0000 0.0000 0.0000
# 2 19.7637 79.8377 33.1355 0.0000 0.0000 0.0000
# 3 15.8772 33.1355 103.0302 0.0000 0.0000 0.0000
# 4 0.0000 0.0000 0.0000 40.4051 0.0000 0.0000
# 5 0.0000 0.0000 0.0000 0.0000 38.4860 0.0000
# 6 0.0000 0.0000 0.0000 0.0000 0.0000 34.8220
#
#
#
# Elastic Compliance Matrix: (Units=1/GPa)
#
#
# Indices 1 2 3 4 5 6 
#
# 1 0.044167 -0.009358 -0.003797 0.000000 0.000000 0.000000
# 2 -0.009358 0.016437 -0.003844 0.000000 0.000000 0.000000
# 3 -0.003797 -0.003844 0.011527 0.000000 0.000000 0.000000
# 4 0.000000 0.000000 0.000000 0.024749 0.000000 0.000000
# 5 0.000000 0.000000 0.000000 0.000000 0.025983 0.000000
# 6 0.000000 0.000000 0.000000 0.000000 0.000000 0.028717
#
#
# Mechanical properties :
#
#
# Convention : Reuss Voigt Hill
#
# Bulk Modulus (GPa) = 26.22333 38.73493 32.47913
# Shear Modulus (GPa) = 25.21555 32.22829 28.72192
#
# Velocity S-wave (km/s) = 3.55276 4.01652 3.79174
# Velocity P-wave (km/s) = 5.47321 6.39526 5.95212
#
# Compressibility (1/GPa) = 0.03813398
#
# Stress axis : x y z
#
# Youngs Moduli (GPa) = 22.64159 60.83678 86.75005
#
# Poissons Ratio (x) = 0.56929 0.32936
# Poissons Ratio (y) = 0.21187 0.33350
# Poissons Ratio (z) = 0.08596 0.23388
#
# Static dielectric constant tensor:
#      x y z
#    x 3.584330 0.000000 0.000000 
#    y 0.000000 3.714690 0.000000 
#    z 0.000000 0.000000 3.636580 
# 
# 
# High freq. dielectric constant tensor:
#      x y z
#    x 1.780160 0.000000 0.000000 
#    y 0.000000 1.794080 0.000000 
#    z 0.000000 0.000000 1.789800 
# 
# From -- ./inp_files/20339.got.cif
#   From: 2010.03.12/outbox.cif.g09.slc.cpg/sg62_11_cif.got.tgz:20339.got - 2010.04.10 19:12:36.
