data_PCOD8253901
_publ_section_title
;
Structure prediction by ZEFSAII (Michael W. Deem and Ramdas Pophale) SiO2 
 PCOD8253901
Probable space group: P N M A
;
_chemical_formula_sum "Si O2"
_cell_formula_units_Z 64
_cell_length_a 14.570501
_cell_length_b 16.563485
_cell_length_c 11.749708
_cell_angle_alpha 90.000000
_cell_angle_beta 90.000000
_cell_angle_gamma 90.000000
_cell_volume 2835.654258
_symmetry_space_group_name_H-M "P N M A"
_symmetry_group_IT_number 62
_symmetry_cell_setting 'orthorhombic'
loop_
_space_group_symop_operation_xyz
x,y,z
1/2-x,-y,1/2+z
1/2+x,1/2-y,1/2-z
-x,1/2+y,-z
-x,-y,-z
1/2+x,y,1/2-z
1/2-x,1/2+y,1/2+z
x,1/2-y,z
loop_
_atom_site_type_symbol
_atom_site_label
_atom_site_fract_x
_atom_site_fract_y
_atom_site_fract_z
Si Si1 0.054547 0.159575 0.652748
Si Si2 0.766269 0.600379 0.439744
Si Si3 0.276381 0.425130 0.967391
Si Si4 0.968517 0.086552 0.449838
Si Si5 0.136693 0.846598 0.250484
Si Si6 0.643441 0.343622 0.381140
Si Si7 0.540787 0.844912 0.716260
Si Si8 0.258200 0.340867 0.326232
O O1 0.086858 0.250000 0.682220
O O2 0.146533 0.103509 0.648331
O O3 0.010037 0.156900 0.527862
O O4 0.972827 0.132103 0.739982
O O5 0.755589 0.518891 0.512597
O O6 0.673641 0.624975 0.372545
O O7 0.782724 0.660645 0.545644
O O8 0.304862 0.400047 0.839991
O O9 0.359063 0.402415 0.051627
O O10 0.184588 0.378568 0.002633
O O11 0.998757 0.102393 0.321500
O O12 0.000000 0.000000 0.500000
O O13 0.151143 0.750000 0.269259
O O14 0.663102 0.250000 0.382684
O O15 0.534567 0.361200 0.381636
O O16 0.692464 0.383213 0.268331
O O17 0.542401 0.750000 0.748960
O O18 0.638853 0.878739 0.674680
O O19 0.268794 0.250000 0.285499
#
# Coordination Sequence:
#
# PCOD8253901 Si02
#       8
#     8   8   8   8   8   8   8   8
#     4  10  21  39  65  93 122 169 223 267 321 385
#     4  12  24  42  66  95 131 168 220 273 325 392
#     4  11  24  39  64  92 127 169 212 267 324 389
#     4  11  20  35  58  92 129 164 205 267 315 376
#     4  10  24  43  65  93 131 176 220 271 332 399
#     4  10  21  39  63  92 126 167 213 262 321 388
#     4  10  21  37  62  94 127 163 210 266 324 383
#     4  10  21  38  64  93 125 163 209 271 327 377
#
# _framework density 22.569748000000001
#
# number of rings (size 3 to 8) (size 9 to 14) (size 15 to 20)
#    0.000    1.500    2.500    2.625    1.750    3.000 
#    2.250    0.625    0.000    0.000    0.000    0.000 
#    0.000    0.000    0.000    0.000    0.000    0.000 
#
# Total GULP energy -792915.724791 kJ/mol
# GULP energy per Si atom -12389.308200 kJ/mol
# Density = 2.251838 g / cm^3
# Si number density = 22.569748 Si / 1000 Ang^3
#
#
#
# Elastic Constant Matrix: (Units=GPa)
#
#
# Indices 1 2 3 4 5 6 
#
# 1 92.1732 22.4443 2.1953 0.0000 0.0000 0.0000
# 2 22.4443 58.4262 7.5707 0.0000 0.0000 0.0000
# 3 2.1953 7.5707 45.0070 0.0000 0.0000 0.0000
# 4 0.0000 0.0000 0.0000 31.9869 0.0000 0.0000
# 5 0.0000 0.0000 0.0000 0.0000 32.7800 0.0000
# 6 0.0000 0.0000 0.0000 0.0000 0.0000 24.0026
#
#
#
# Elastic Compliance Matrix: (Units=1/GPa)
#
#
# Indices 1 2 3 4 5 6 
#
# 1 0.011970 -0.004624 0.000194 0.000000 0.000000 0.000000
# 2 -0.004624 0.019283 -0.003018 0.000000 0.000000 0.000000
# 3 0.000194 -0.003018 0.022717 0.000000 0.000000 0.000000
# 4 0.000000 0.000000 0.000000 0.031263 0.000000 0.000000
# 5 0.000000 0.000000 0.000000 0.000000 0.030506 0.000000
# 6 0.000000 0.000000 0.000000 0.000000 0.000000 0.041662
#
#
# Mechanical properties :
#
#
# Convention : Reuss Voigt Hill
#
# Bulk Modulus (GPa) = 25.59203 28.89190 27.24196
# Shear Modulus (GPa) = 26.98008 28.64697 27.81352
#
# Velocity S-wave (km/s) = 3.46122 3.56654 3.51427
# Velocity P-wave (km/s) = 5.22849 5.45795 5.34445
#
# Compressibility (1/GPa) = 0.03907467
#
# Stress axis : x y z
#
# Youngs Moduli (GPa) = 83.53968 51.85971 44.01990
#
# Poissons Ratio (x) = 0.23977 -0.00853
# Poissons Ratio (y) = 0.38625 0.13286
# Poissons Ratio (z) = -0.01619 0.15652
#
# Static dielectric constant tensor:
#      x y z
#    x 4.323830 0.000000 0.000000 
#    y 0.000000 3.869640 0.000000 
#    z 0.000000 0.000000 3.834320 
# 
# 
# High freq. dielectric constant tensor:
#      x y z
#    x 1.901620 0.000000 0.000000 
#    y 0.000000 1.872410 0.000000 
#    z 0.000000 0.000000 1.863540 
# 
# From -- ./inp_files/13560.got.cif
#   From: 2010.03.12/outbox.cif.g09.slc.cpg/sg62_7_cif.got.tgz:13560.got - 2010.04.10 19:12:36.
