data_PCOD8253380
_publ_section_title
;
Structure prediction by ZEFSAII (Michael W. Deem and Ramdas Pophale) SiO2 
 PCOD8253380
Probable space group: P N M A
;
_chemical_formula_sum "Si O2"
_cell_formula_units_Z 48
_cell_length_a 9.322124
_cell_length_b 8.655056
_cell_length_c 28.658546
_cell_angle_alpha 90.000000
_cell_angle_beta 90.000000
_cell_angle_gamma 90.000000
_cell_volume 2312.271947
_symmetry_space_group_name_H-M "P N M A"
_symmetry_group_IT_number 62
_symmetry_cell_setting 'orthorhombic'
loop_
_space_group_symop_operation_xyz
x,y,z
1/2-x,-y,1/2+z
1/2+x,1/2-y,1/2-z
-x,1/2+y,-z
-x,-y,-z
1/2+x,y,1/2-z
1/2-x,1/2+y,1/2+z
x,1/2-y,z
loop_
_atom_site_type_symbol
_atom_site_label
_atom_site_fract_x
_atom_site_fract_y
_atom_site_fract_z
Si Si1 0.594805 0.923443 0.038503
Si Si2 0.692641 0.568531 0.380006
Si Si3 0.862927 0.925254 0.978090
Si Si4 0.020166 0.432273 0.199472
Si Si5 0.790633 0.434259 0.721117
Si Si6 0.485840 0.432174 0.862685
O O1 0.537481 0.750000 0.043698
O O2 0.576452 0.004175 0.089058
O O3 0.756975 0.931270 0.021927
O O4 0.500000 0.000000 0.000000
O O5 0.662790 0.750000 0.376114
O O6 0.694547 0.521323 0.434157
O O7 0.566419 0.478221 0.353067
O O8 0.846771 0.524191 0.357608
O O9 0.890516 0.750000 0.961753
O O10 0.000000 0.000000 0.000000
O O11 0.999732 0.250000 0.203618
O O12 0.872382 0.514982 0.212971
O O13 0.149681 0.491111 0.231787
O O14 0.795189 0.250000 0.725875
O O15 0.892579 0.499715 0.679811
O O16 0.463913 0.250000 0.862356
#
# Coordination Sequence:
#
# PCOD8253380 Si02
#       6
#     8   8   8   8   8   8
#     4  10  20  38  61  90 123 164 210 257 308 366
#     4  11  22  41  67  92 124 168 215 264 319 383
#     4  11  24  39  60  91 129 169 213 263 321 380
#     4  12  26  44  65  96 134 166 207 266 327 381
#     4  11  23  43  70  97 125 168 218 260 314 387
#     4   9  20  38  64  93 122 159 211 262 308 371
#
# _framework density 20.758803
#
# number of rings (size 3 to 8) (size 9 to 14) (size 15 to 20)
#    0.000    1.333    1.667    4.000    2.333    2.000 
#    0.000    4.167    0.000    0.000    0.000    0.000 
#    0.000    0.000    0.000    0.000    0.000    0.000 
#
# Total GULP energy -595262.361500 kJ/mol
# GULP energy per Si atom -12401.299198 kJ/mol
# Density = 2.071155 g / cm^3
# Si number density = 20.758803 Si / 1000 Ang^3
#
#
#
# Elastic Constant Matrix: (Units=GPa)
#
#
# Indices 1 2 3 4 5 6 
#
# 1 90.6925 24.5179 18.3668 0.0000 0.0000 0.0000
# 2 24.5179 75.4246 19.1231 0.0000 0.0000 0.0000
# 3 18.3668 19.1231 86.9045 0.0000 0.0000 0.0000
# 4 0.0000 0.0000 0.0000 33.1384 0.0000 0.0000
# 5 0.0000 0.0000 0.0000 0.0000 44.3449 0.0000
# 6 0.0000 0.0000 0.0000 0.0000 0.0000 29.0308
#
#
#
# Elastic Compliance Matrix: (Units=1/GPa)
#
#
# Indices 1 2 3 4 5 6 
#
# 1 0.012357 -0.003553 -0.001830 0.000000 0.000000 0.000000
# 2 -0.003553 0.015063 -0.002564 0.000000 0.000000 0.000000
# 3 -0.001830 -0.002564 0.012458 0.000000 0.000000 0.000000
# 4 0.000000 0.000000 0.000000 0.030176 0.000000 0.000000
# 5 0.000000 0.000000 0.000000 0.000000 0.022551 0.000000
# 6 0.000000 0.000000 0.000000 0.000000 0.000000 0.034446
#
#
# Mechanical properties :
#
#
# Convention : Reuss Voigt Hill
#
# Bulk Modulus (GPa) = 41.69233 41.89303 41.79268
# Shear Modulus (GPa) = 33.12580 34.03706 33.58143
#
# Velocity S-wave (km/s) = 3.99901 4.05365 4.02642
# Velocity P-wave (km/s) = 6.43821 6.49107 6.46470
#
# Compressibility (1/GPa) = 0.02398523
#
# Stress axis : x y z
#
# Youngs Moduli (GPa) = 80.92340 66.38683 80.27135
#
# Poissons Ratio (x) = 0.23587 0.14688
# Poissons Ratio (y) = 0.28752 0.20579
# Poissons Ratio (z) = 0.14808 0.17020
#
# Static dielectric constant tensor:
#      x y z
#    x 4.072320 0.000000 0.000000 
#    y 0.000000 3.678130 0.000000 
#    z 0.000000 0.000000 4.161990 
# 
# 
# High freq. dielectric constant tensor:
#      x y z
#    x 1.822290 0.000000 0.000000 
#    y 0.000000 1.798780 0.000000 
#    z 0.000000 0.000000 1.828520 
# 
# From -- ./inp_files/31935.got.cif
#   From: 2010.03.12/outbox.cif.g09.slc.cpg/sg62_16_cif.got.tgz:31935.got - 2010.04.10 19:12:36.
