data_PCOD8253174
_publ_section_title
;
Structure prediction by ZEFSAII (Michael W. Deem and Ramdas Pophale) SiO2 
 PCOD8253174
Probable space group: P N M A
;
_chemical_formula_sum "Si O2"
_cell_formula_units_Z 48
_cell_length_a 10.089697
_cell_length_b 13.132659
_cell_length_c 19.269490
_cell_angle_alpha 90.000000
_cell_angle_beta 90.000000
_cell_angle_gamma 90.000000
_cell_volume 2553.295103
_symmetry_space_group_name_H-M "P N M A"
_symmetry_group_IT_number 62
_symmetry_cell_setting 'orthorhombic'
loop_
_space_group_symop_operation_xyz
x,y,z
1/2-x,-y,1/2+z
1/2+x,1/2-y,1/2-z
-x,1/2+y,-z
-x,-y,-z
1/2+x,y,1/2-z
1/2-x,1/2+y,1/2+z
x,1/2-y,z
loop_
_atom_site_type_symbol
_atom_site_label
_atom_site_fract_x
_atom_site_fract_y
_atom_site_fract_z
Si Si1 0.178954 0.131591 0.144383
Si Si2 0.058663 0.368702 0.808941
Si Si3 0.182202 0.969020 0.261230
Si Si4 0.350713 0.528292 0.916602
Si Si5 0.603111 0.632381 0.967271
Si Si6 0.055823 0.973292 0.925912
O O1 0.192304 0.250000 0.162564
O O2 0.290250 0.095846 0.089711
O O3 0.034421 0.110007 0.112405
O O4 0.197728 0.070350 0.215385
O O5 0.078973 0.250000 0.820807
O O6 0.176718 0.413483 0.762379
O O7 0.060211 0.420981 0.884051
O O8 0.920511 0.389514 0.771057
O O9 0.130171 0.001020 0.336457
O O10 0.456059 0.614075 0.937688
O O11 0.203857 0.572603 0.931101
O O12 0.374292 0.426748 0.961329
O O13 0.621979 0.750000 0.984905
O O14 0.000000 0.000000 0.000000
#
# Coordination Sequence:
#
# PCOD8253174 Si02
#       6
#     8   8   8   8   8   8
#     4  10  21  38  61  86 116 155 191 235 294 352
#     4  10  21  36  58  83 113 151 191 234 289 346
#     4  10  21  38  58  85 118 150 190 239 289 345
#     4  10  21  37  58  81 116 149 188 238 286 339
#     4  10  21  37  58  83 112 150 191 233 286 344
#     4  10  20  37  58  84 115 147 191 241 293 342
#
# _framework density 18.799237000000002
#
# number of rings (size 3 to 8) (size 9 to 14) (size 15 to 20)
#    0.000    2.000    1.667    1.500    0.000    5.333 
#    0.000   10.000    0.000    0.000    0.000    0.000 
#    0.000    0.000    0.000    0.000    0.000    0.000 
#
# Total GULP energy -595392.381926 kJ/mol
# GULP energy per Si atom -12404.007957 kJ/mol
# Density = 1.875645 g / cm^3
# Si number density = 18.799237 Si / 1000 Ang^3
#
#
#
# Elastic Constant Matrix: (Units=GPa)
#
#
# Indices 1 2 3 4 5 6 
#
# 1 133.4546 37.9386 41.1281 0.0000 0.0000 0.0000
# 2 37.9386 87.9531 42.4578 0.0000 0.0000 0.0000
# 3 41.1281 42.4578 111.8188 0.0000 0.0000 0.0000
# 4 0.0000 0.0000 0.0000 18.8036 0.0000 0.0000
# 5 0.0000 0.0000 0.0000 0.0000 30.8248 0.0000
# 6 0.0000 0.0000 0.0000 0.0000 0.0000 22.4057
#
#
#
# Elastic Compliance Matrix: (Units=1/GPa)
#
#
# Indices 1 2 3 4 5 6 
#
# 1 0.008977 -0.002790 -0.002243 0.000000 0.000000 0.000000
# 2 -0.002790 0.014788 -0.004589 0.000000 0.000000 0.000000
# 3 -0.002243 -0.004589 0.011510 0.000000 0.000000 0.000000
# 4 0.000000 0.000000 0.000000 0.053181 0.000000 0.000000
# 5 0.000000 0.000000 0.000000 0.000000 0.032441 0.000000
# 6 0.000000 0.000000 0.000000 0.000000 0.000000 0.044631
#
#
# Mechanical properties :
#
#
# Convention : Reuss Voigt Hill
#
# Bulk Modulus (GPa) = 62.37099 64.03060 63.20079
# Shear Modulus (GPa) = 26.29949 28.52030 27.40989
#
# Velocity S-wave (km/s) = 3.74433 3.89922 3.82256
# Velocity P-wave (km/s) = 7.20714 7.37605 7.29208
#
# Compressibility (1/GPa) = 0.01603310
#
# Stress axis : x y z
#
# Youngs Moduli (GPa) = 111.39053 67.62079 86.87800
#
# Poissons Ratio (x) = 0.18865 0.19484
# Poissons Ratio (y) = 0.31076 0.39869
# Poissons Ratio (z) = 0.24982 0.31032
#
# Static dielectric constant tensor:
#      x y z
#    x 3.856140 0.000000 0.000000 
#    y 0.000000 3.207970 0.000000 
#    z 0.000000 0.000000 3.474430 
# 
# 
# High freq. dielectric constant tensor:
#      x y z
#    x 1.751340 0.000000 0.000000 
#    y 0.000000 1.715030 0.000000 
#    z 0.000000 0.000000 1.739600 
# 
# From -- ./inp_files/23040.got.cif
#   From: 2010.03.12/outbox.cif.g09.slc.cpg/sg62_12_cif.got.tgz:23040.got - 2010.04.10 19:12:36.
