data_PCOD8253843
_publ_section_title
;
Structure prediction by ZEFSAII (Michael W. Deem and Ramdas Pophale) SiO2 
 PCOD8253843
Probable space group: P N M A
;
_chemical_formula_sum "Si O2"
_cell_formula_units_Z 40
_cell_length_a 28.523826
_cell_length_b 8.834747
_cell_length_c 7.743501
_cell_angle_alpha 90.000000
_cell_angle_beta 90.000000
_cell_angle_gamma 90.000000
_cell_volume 1951.368340
_symmetry_space_group_name_H-M "P N M A"
_symmetry_group_IT_number 62
_symmetry_cell_setting 'orthorhombic'
loop_
_space_group_symop_operation_xyz
x,y,z
1/2-x,-y,1/2+z
1/2+x,1/2-y,1/2-z
-x,1/2+y,-z
-x,-y,-z
1/2+x,y,1/2-z
1/2-x,1/2+y,1/2+z
x,1/2-y,z
loop_
_atom_site_type_symbol
_atom_site_label
_atom_site_fract_x
_atom_site_fract_y
_atom_site_fract_z
Si Si1 0.109962 0.926360 0.791485
Si Si2 0.300035 0.573398 0.177671
Si Si3 0.700378 0.923145 0.178933
Si Si4 0.398955 0.078343 0.677932
Si Si5 0.449400 0.572145 0.988475
O O1 0.108751 0.750000 0.744497
O O2 0.163663 0.982105 0.796576
O O3 0.081842 0.016008 0.646745
O O4 0.087254 0.957196 0.979586
O O5 0.308643 0.750000 0.205701
O O6 0.247375 0.523873 0.224730
O O7 0.309598 0.532529 0.980101
O O8 0.704971 0.750000 0.114002
O O9 0.657065 0.942343 0.308846
O O10 0.412974 0.250000 0.726829
O O11 0.426377 0.967272 0.804697
O O12 0.454504 0.750000 0.002158
O O13 0.500000 0.500000 0.000000
#
# Coordination Sequence:
#
# PCOD8253843 Si02
#       5
#     8   8   8   8   8
#     4  11  23  42  67  95 132 173 213 266 326 386
#     4  11  22  36  58  92 128 171 221 266 318 380
#     4  10  21  37  58  87 128 172 215 265 320 379
#     4  10  22  42  67  94 129 173 216 265 324 384
#     4  12  26  45  70  98 129 169 216 272 329 390
#
# _framework density 20.498435000000001
#
# number of rings (size 3 to 8) (size 9 to 14) (size 15 to 20)
#    0.000    1.200    2.000    4.200    0.000    5.600 
#    0.000    0.000    0.000    0.000    0.000    0.000 
#    0.000    0.000    0.000    0.000    0.000    0.000 
#
# Total GULP energy -496183.082974 kJ/mol
# GULP energy per Si atom -12404.577074 kJ/mol
# Density = 2.045178 g / cm^3
# Si number density = 20.498435 Si / 1000 Ang^3
#
#
#
# Elastic Constant Matrix: (Units=GPa)
#
#
# Indices 1 2 3 4 5 6 
#
# 1 103.2825 45.2467 25.2127 0.0000 0.0000 0.0000
# 2 45.2467 124.8186 48.2982 0.0000 0.0000 0.0000
# 3 25.2127 48.2982 105.6041 0.0000 0.0000 0.0000
# 4 0.0000 0.0000 0.0000 22.7130 0.0000 0.0000
# 5 0.0000 0.0000 0.0000 0.0000 24.1422 0.0000
# 6 0.0000 0.0000 0.0000 0.0000 0.0000 36.5312
#
#
#
# Elastic Compliance Matrix: (Units=1/GPa)
#
#
# Indices 1 2 3 4 5 6 
#
# 1 0.011601 -0.003808 -0.001028 0.000000 0.000000 0.000000
# 2 -0.003808 0.010984 -0.004114 0.000000 0.000000 0.000000
# 3 -0.001028 -0.004114 0.011597 0.000000 0.000000 0.000000
# 4 0.000000 0.000000 0.000000 0.044028 0.000000 0.000000
# 5 0.000000 0.000000 0.000000 0.000000 0.041421 0.000000
# 6 0.000000 0.000000 0.000000 0.000000 0.000000 0.027374
#
#
# Mechanical properties :
#
#
# Convention : Reuss Voigt Hill
#
# Bulk Modulus (GPa) = 61.42123 63.46893 62.44508
# Shear Modulus (GPa) = 29.35438 31.00713 30.18076
#
# Velocity S-wave (km/s) = 3.78832 3.89351 3.84128
# Velocity P-wave (km/s) = 7.01171 7.15839 7.08543
#
# Compressibility (1/GPa) = 0.01628102
#
# Stress axis : x y z
#
# Youngs Moduli (GPa) = 86.19763 91.04203 86.23204
#
# Poissons Ratio (x) = 0.34664 0.08868
# Poissons Ratio (y) = 0.32820 0.35480
# Poissons Ratio (z) = 0.08865 0.37459
#
# Static dielectric constant tensor:
#      x y z
#    x 3.939880 0.000000 0.000000 
#    y 0.000000 3.742640 0.000000 
#    z 0.000000 0.000000 3.764900 
# 
# 
# High freq. dielectric constant tensor:
#      x y z
#    x 1.805060 0.000000 0.000000 
#    y 0.000000 1.803640 0.000000 
#    z 0.000000 0.000000 1.807540 
# 
# From -- ./inp_files/9718.got.cif
#   From: 2010.03.12/outbox.cif.g09.slc.cpg/sg62_5_cif.got.tgz:9718.got - 2010.04.10 19:12:36.
