data_PCOD8253475
_publ_section_title
;
Structure prediction by ZEFSAII (Michael W. Deem and Ramdas Pophale) SiO2 
 PCOD8253475
Probable space group: P N M A
;
_chemical_formula_sum "Si O2"
_cell_formula_units_Z 56
_cell_length_a 15.455419
_cell_length_b 14.815515
_cell_length_c 11.692221
_cell_angle_alpha 90.000000
_cell_angle_beta 90.000000
_cell_angle_gamma 90.000000
_cell_volume 2677.284671
_symmetry_space_group_name_H-M "P N M A"
_symmetry_group_IT_number 62
_symmetry_cell_setting 'orthorhombic'
loop_
_space_group_symop_operation_xyz
x,y,z
1/2-x,-y,1/2+z
1/2+x,1/2-y,1/2-z
-x,1/2+y,-z
-x,-y,-z
1/2+x,y,1/2-z
1/2-x,1/2+y,1/2+z
x,1/2-y,z
loop_
_atom_site_type_symbol
_atom_site_label
_atom_site_fract_x
_atom_site_fract_y
_atom_site_fract_z
Si Si1 0.482393 0.646076 0.311836
Si Si2 0.264281 0.027834 0.154412
Si Si3 0.675140 0.647838 0.387282
Si Si4 0.463841 0.001339 0.125711
Si Si5 0.191850 0.851153 0.851923
Si Si6 0.497560 0.850209 0.713157
Si Si7 0.859921 0.646298 0.984103
O O1 0.472631 0.750000 0.277856
O O2 0.572736 0.629769 0.377932
O O3 0.477943 0.591690 0.193786
O O4 0.403811 0.616672 0.395770
O O5 0.251290 0.083491 0.272093
O O6 0.216948 0.077783 0.047950
O O7 0.226787 0.928212 0.183284
O O8 0.363459 0.025378 0.118661
O O9 0.696399 0.750000 0.343846
O O10 0.711523 0.634703 0.515120
O O11 0.520111 0.079016 0.186798
O O12 0.500000 0.000000 0.000000
O O13 0.215991 0.750000 0.813445
O O14 0.090954 0.870308 0.838625
O O15 0.491028 0.750000 0.765319
O O16 0.431241 0.864657 0.612347
O O17 0.826673 0.750000 0.991134
#
# Coordination Sequence:
#
# PCOD8253475 Si02
#       7
#     8   8   8   8   8   8   8
#     4  10  22  43  70  95 125 168 217 271 327 387
#     4  11  24  35  60  93 134 167 209 262 323 376
#     4  10  21  39  66  95 126 165 215 268 325 380
#     4  11  26  44  59  88 133 180 218 252 312 395
#     4   9  18  37  60  88 125 162 204 259 320 379
#     4   9  18  36  65  90 116 156 205 260 317 374
#     4  10  20  38  67 102 125 153 211 274 329 379
#
# _framework density 20.916713999999999
#
# number of rings (size 3 to 8) (size 9 to 14) (size 15 to 20)
#    0.000    2.000    1.429    1.286    4.000    5.143 
#    0.000    1.429    0.000    0.000    0.000    0.000 
#    0.000    0.000    0.000    0.000    0.000    0.000 
#
# Total GULP energy -694348.991120 kJ/mol
# GULP energy per Si atom -12399.089127 kJ/mol
# Density = 2.086911 g / cm^3
# Si number density = 20.916714 Si / 1000 Ang^3
#
#
#
# Elastic Constant Matrix: (Units=GPa)
#
#
# Indices 1 2 3 4 5 6 
#
# 1 61.3557 44.5990 31.2965 0.0000 0.0000 0.0000
# 2 44.5990 131.8629 59.0285 0.0000 0.0000 0.0000
# 3 31.2965 59.0285 101.2702 0.0000 0.0000 0.0000
# 4 0.0000 0.0000 0.0000 35.8634 0.0000 0.0000
# 5 0.0000 0.0000 0.0000 0.0000 17.1016 0.0000
# 6 0.0000 0.0000 0.0000 0.0000 0.0000 33.1460
#
#
#
# Elastic Compliance Matrix: (Units=1/GPa)
#
#
# Indices 1 2 3 4 5 6 
#
# 1 0.022444 -0.006070 -0.003398 0.000000 0.000000 0.000000
# 2 -0.006070 0.011903 -0.005062 0.000000 0.000000 0.000000
# 3 -0.003398 -0.005062 0.013875 0.000000 0.000000 0.000000
# 4 0.000000 0.000000 0.000000 0.027884 0.000000 0.000000
# 5 0.000000 0.000000 0.000000 0.000000 0.058474 0.000000
# 6 0.000000 0.000000 0.000000 0.000000 0.000000 0.030170
#
#
# Mechanical properties :
#
#
# Convention : Reuss Voigt Hill
#
# Bulk Modulus (GPa) = 52.18683 62.70408 57.44546
# Shear Modulus (GPa) = 24.97555 27.85987 26.41771
#
# Velocity S-wave (km/s) = 3.45925 3.65354 3.55772
# Velocity P-wave (km/s) = 6.39994 6.91671 6.66333
#
# Compressibility (1/GPa) = 0.01916192
#
# Stress axis : x y z
#
# Youngs Moduli (GPa) = 44.55568 84.01529 72.07100
#
# Poissons Ratio (x) = 0.50996 0.24490
# Poissons Ratio (y) = 0.27045 0.36482
# Poissons Ratio (z) = 0.15140 0.42528
#
# Static dielectric constant tensor:
#      x y z
#    x 3.728920 0.000000 0.000000 
#    y 0.000000 4.173280 0.000000 
#    z 0.000000 0.000000 3.753300 
# 
# 
# High freq. dielectric constant tensor:
#      x y z
#    x 1.808490 0.000000 0.000000 
#    y 0.000000 1.836230 0.000000 
#    z 0.000000 0.000000 1.801910 
# 
# From -- ./inp_files/13365.got.cif
#   From: 2010.03.12/outbox.cif.g09.slc.cpg/sg62_7_cif.got.tgz:13365.got - 2010.04.10 19:12:36.
