data_PCOD8253046
_publ_section_title
;
Structure prediction by ZEFSAII (Michael W. Deem and Ramdas Pophale) SiO2 
 PCOD8253046
Probable space group: P N M A
;
_chemical_formula_sum "Si O2"
_cell_formula_units_Z 56
_cell_length_a 19.976121
_cell_length_b 9.137915
_cell_length_c 15.435266
_cell_angle_alpha 90.000000
_cell_angle_beta 90.000000
_cell_angle_gamma 90.000000
_cell_volume 2817.554933
_symmetry_space_group_name_H-M "P N M A"
_symmetry_group_IT_number 62
_symmetry_cell_setting 'orthorhombic'
loop_
_space_group_symop_operation_xyz
x,y,z
1/2-x,-y,1/2+z
1/2+x,1/2-y,1/2-z
-x,1/2+y,-z
-x,-y,-z
1/2+x,y,1/2-z
1/2-x,1/2+y,1/2+z
x,1/2-y,z
loop_
_atom_site_type_symbol
_atom_site_label
_atom_site_fract_x
_atom_site_fract_y
_atom_site_fract_z
Si Si1 0.787199 0.924101 0.494300
Si Si2 0.365400 0.420040 0.512220
Si Si3 0.124451 0.423812 0.667203
Si Si4 0.081188 0.580066 0.822669
Si Si5 0.363546 0.590961 0.841974
Si Si6 0.072596 0.424686 0.173444
Si Si7 0.491255 0.089575 0.085223
O O1 0.795670 0.750000 0.499447
O O2 0.711038 0.975557 0.490506
O O3 0.823489 0.979794 0.406210
O O4 0.820819 0.992590 0.582741
O O5 0.367965 0.250000 0.537187
O O6 0.399833 0.451775 0.421216
O O7 0.405797 0.510668 0.582308
O O8 0.123035 0.250000 0.671087
O O9 0.135343 0.489812 0.763695
O O10 0.052174 0.490346 0.648001
O O11 0.089680 0.750000 0.798984
O O12 0.004264 0.529303 0.808336
O O13 0.329387 0.750000 0.826740
O O14 0.375403 0.513067 0.748012
O O15 0.437674 0.617445 0.874345
O O16 0.077460 0.250000 0.169793
O O17 0.458166 0.250000 0.068559
O O18 0.500000 0.000000 0.000000
#
# Coordination Sequence:
#
# PCOD8253046 Si02
#       7
#     8   8   8   8   8   8   8
#     4   9  19  36  55  80 114 153 186 219 281 347
#     4  10  22  39  58  78 109 151 194 234 275 335
#     4  11  21  34  57  86 115 149 186 230 286 340
#     4  10  21  38  59  85 112 143 187 239 286 332
#     4   9  17  32  55  79 109 146 178 219 278 338
#     4  10  20  36  59  84 111 142 183 236 289 330
#     4  11  19  32  54  83 117 148 184 230 281 334
#
# _framework density 19.875389999999999
#
# number of rings (size 3 to 8) (size 9 to 14) (size 15 to 20)
#    0.000    2.000    2.857    1.286    0.000    2.286 
#    0.000    2.857    0.000    0.000    0.000    0.000 
#    0.000    0.000    0.000    0.000    0.000    0.000 
#
# Total GULP energy -693771.007130 kJ/mol
# GULP energy per Si atom -12388.767984 kJ/mol
# Density = 1.983015 g / cm^3
# Si number density = 19.875390 Si / 1000 Ang^3
#
#
#
# Elastic Constant Matrix: (Units=GPa)
#
#
# Indices 1 2 3 4 5 6 
#
# 1 79.6227 20.1674 47.6509 0.0000 0.0000 0.0000
# 2 20.1674 47.2937 45.0414 0.0000 0.0000 0.0000
# 3 47.6509 45.0414 142.6818 0.0000 0.0000 0.0000
# 4 0.0000 0.0000 0.0000 26.7938 0.0000 0.0000
# 5 0.0000 0.0000 0.0000 0.0000 1.4209 0.0000
# 6 0.0000 0.0000 0.0000 0.0000 0.0000 14.0823
#
#
#
# Elastic Compliance Matrix: (Units=1/GPa)
#
#
# Indices 1 2 3 4 5 6 
#
# 1 0.015895 -0.002463 -0.004531 0.000000 0.000000 0.000000
# 2 -0.002463 0.030616 -0.008842 0.000000 0.000000 0.000000
# 3 -0.004531 -0.008842 0.011313 0.000000 0.000000 0.000000
# 4 0.000000 0.000000 0.000000 0.037322 0.000000 0.000000
# 5 0.000000 0.000000 0.000000 0.000000 0.703791 0.000000
# 6 0.000000 0.000000 0.000000 0.000000 0.000000 0.071011
#
#
# Mechanical properties :
#
#
# Convention : Reuss Voigt Hill
#
# Bulk Modulus (GPa) = 38.23853 55.03528 46.63691
# Shear Modulus (GPa) = 5.49248 18.90863 12.20055
#
# Velocity S-wave (km/s) = 1.66417 3.08776 2.48029
# Velocity P-wave (km/s) = 4.79307 6.36102 5.63188
#
# Compressibility (1/GPa) = 0.02615163
#
# Stress axis : x y z
#
# Youngs Moduli (GPa) = 62.91476 32.66288 88.39395
#
# Poissons Ratio (x) = 0.08045 0.40049
# Poissons Ratio (y) = 0.15495 0.78160
# Poissons Ratio (z) = 0.28505 0.28881
#
# Static dielectric constant tensor:
#      x y z
#    x 3.563190 0.000000 0.000000 
#    y 0.000000 3.248180 0.000000 
#    z 0.000000 0.000000 3.766870 
# 
# 
# High freq. dielectric constant tensor:
#      x y z
#    x 1.761430 0.000000 0.000000 
#    y 0.000000 1.737350 0.000000 
#    z 0.000000 0.000000 1.800210 
# 
# From -- ./inp_files/20218.got.cif
#   From: 2010.03.12/outbox.cif.g09.slc.cpg/sg62_11_cif.got.tgz:20218.got - 2010.04.10 19:12:36.
