data_PCOD8253985
_publ_section_title
;
Structure prediction by ZEFSAII (Michael W. Deem and Ramdas Pophale) SiO2 
 PCOD8253985
Probable space group: P N M A
;
_chemical_formula_sum "Si O2"
_cell_formula_units_Z 48
_cell_length_a 15.048135
_cell_length_b 8.627759
_cell_length_c 18.877608
_cell_angle_alpha 90.000000
_cell_angle_beta 90.000000
_cell_angle_gamma 90.000000
_cell_volume 2450.911602
_symmetry_space_group_name_H-M "P N M A"
_symmetry_group_IT_number 62
_symmetry_cell_setting 'orthorhombic'
loop_
_space_group_symop_operation_xyz
x,y,z
1/2-x,-y,1/2+z
1/2+x,1/2-y,1/2-z
-x,1/2+y,-z
-x,-y,-z
1/2+x,y,1/2-z
1/2-x,1/2+y,1/2+z
x,1/2-y,z
loop_
_atom_site_type_symbol
_atom_site_label
_atom_site_fract_x
_atom_site_fract_y
_atom_site_fract_z
Si Si1 0.648965 0.072990 0.332317
Si Si2 0.500471 0.929995 0.422988
Si Si3 0.853798 0.428641 0.331462
Si Si4 0.996197 0.432187 0.577904
Si Si5 0.659472 0.067786 0.171102
Si Si6 0.846076 0.932905 0.179114
O O1 0.620385 0.250000 0.344597
O O2 0.751518 0.047886 0.352587
O O3 0.631586 0.023856 0.251092
O O4 0.592067 0.965153 0.383143
O O5 0.490187 0.750000 0.432662
O O6 0.417008 0.993141 0.378249
O O7 0.500000 0.000000 0.500000
O O8 0.883060 0.250000 0.339438
O O9 0.869752 0.478491 0.251005
O O10 0.910908 0.534724 0.383605
O O11 0.977808 0.250000 0.575682
O O12 0.917414 0.517182 0.618771
O O13 0.000000 0.500000 0.500000
O O14 0.678358 0.250000 0.165153
O O15 0.748982 0.977400 0.150208
O O16 0.852355 0.750000 0.192618
#
# Coordination Sequence:
#
# PCOD8253985 Si02
#       6
#     8   8   8   8   8   8
#     4   9  20  38  61  86 114 147 187 234 283 336
#     4  11  24  38  56  82 115 153 191 233 284 337
#     4  10  21  39  62  88 117 152 192 238 289 343
#     4  12  25  40  59  85 118 156 194 239 292 351
#     4  10  21  39  63  89 115 150 192 238 291 346
#     4  10  21  38  60  88 117 150 194 242 288 339
#
# _framework density 19.58455
#
# number of rings (size 3 to 8) (size 9 to 14) (size 15 to 20)
#    0.000    1.667    0.000    5.500    0.000   10.667 
#    0.000    1.667    0.000    0.000    0.000    0.000 
#    0.000    0.000    0.000    0.000    0.000    0.000 
#
# Total GULP energy -595449.354550 kJ/mol
# GULP energy per Si atom -12405.194886 kJ/mol
# Density = 1.953997 g / cm^3
# Si number density = 19.584550 Si / 1000 Ang^3
#
#
#
# Elastic Constant Matrix: (Units=GPa)
#
#
# Indices 1 2 3 4 5 6 
#
# 1 107.0016 21.3125 69.8167 0.0000 0.0000 0.0000
# 2 21.3125 51.8793 21.7551 0.0000 0.0000 0.0000
# 3 69.8167 21.7551 117.8252 0.0000 0.0000 0.0000
# 4 0.0000 0.0000 0.0000 35.8418 0.0000 0.0000
# 5 0.0000 0.0000 0.0000 0.0000 2.5339 0.0000
# 6 0.0000 0.0000 0.0000 0.0000 0.0000 37.4811
#
#
#
# Elastic Compliance Matrix: (Units=1/GPa)
#
#
# Indices 1 2 3 4 5 6 
#
# 1 0.015588 -0.002743 -0.008730 0.000000 0.000000 0.000000
# 2 -0.002743 0.021376 -0.002322 0.000000 0.000000 0.000000
# 3 -0.008730 -0.002322 0.014089 0.000000 0.000000 0.000000
# 4 0.000000 0.000000 0.000000 0.027900 0.000000 0.000000
# 5 0.000000 0.000000 0.000000 0.000000 0.394644 0.000000
# 6 0.000000 0.000000 0.000000 0.000000 0.000000 0.026680
#
#
# Mechanical properties :
#
#
# Convention : Reuss Voigt Hill
#
# Bulk Modulus (GPa) = 42.61923 55.83053 49.22488
# Shear Modulus (GPa) = 9.33379 26.09283 17.71331
#
# Velocity S-wave (km/s) = 2.18546 3.65405 3.01068
# Velocity P-wave (km/s) = 5.30822 6.80971 6.10530
#
# Compressibility (1/GPa) = 0.02346359
#
# Stress axis : x y z
#
# Youngs Moduli (GPa) = 64.15021 46.78188 70.97763
#
# Poissons Ratio (x) = 0.12832 0.61966
# Poissons Ratio (y) = 0.17595 0.16478
# Poissons Ratio (z) = 0.56006 0.10861
#
# Static dielectric constant tensor:
#      x y z
#    x 3.795300 0.000000 0.000000 
#    y 0.000000 3.651930 0.000000 
#    z 0.000000 0.000000 3.738180 
# 
# 
# High freq. dielectric constant tensor:
#      x y z
#    x 1.775160 0.000000 0.000000 
#    y 0.000000 1.773090 0.000000 
#    z 0.000000 0.000000 1.761540 
# 
# From -- ./inp_files/23676.got.cif
#   From: 2010.03.12/outbox.cif.g09.slc.cpg/sg62_12_cif.got.tgz:23676.got - 2010.04.10 19:12:36.
