data_PCOD8253014
_publ_section_title
;
Structure prediction by ZEFSAII (Michael W. Deem and Ramdas Pophale) SiO2 
 PCOD8253014
Probable space group: P N M A
;
_chemical_formula_sum "Si O2"
_cell_formula_units_Z 40
_cell_length_a 15.600508
_cell_length_b 10.276328
_cell_length_c 11.727604
_cell_angle_alpha 90.000000
_cell_angle_beta 90.000000
_cell_angle_gamma 90.000000
_cell_volume 1880.121826
_symmetry_space_group_name_H-M "P N M A"
_symmetry_group_IT_number 62
_symmetry_cell_setting 'orthorhombic'
loop_
_space_group_symop_operation_xyz
x,y,z
1/2-x,-y,1/2+z
1/2+x,1/2-y,1/2-z
-x,1/2+y,-z
-x,-y,-z
1/2+x,y,1/2-z
1/2-x,1/2+y,1/2+z
x,1/2-y,z
loop_
_atom_site_type_symbol
_atom_site_label
_atom_site_fract_x
_atom_site_fract_y
_atom_site_fract_z
Si Si1 0.481112 0.111210 0.870071
Si Si2 0.869375 0.048247 0.424810
Si Si3 0.685171 0.097777 0.506088
Si Si4 0.380283 0.897070 0.737785
Si Si5 0.189313 0.607230 0.814914
O O1 0.475555 0.250000 0.805368
O O2 0.580702 0.087752 0.903676
O O3 0.448894 0.996078 0.788747
O O4 0.426689 0.127716 0.985814
O O5 0.775305 0.028903 0.476602
O O6 0.861280 0.120934 0.303995
O O7 0.697382 0.250000 0.541362
O O8 0.621502 0.087272 0.399100
O O9 0.648103 0.008766 0.608828
O O10 0.407991 0.750000 0.768821
O O11 0.287796 0.929043 0.789983
O O12 0.182172 0.750000 0.874329
#
# Coordination Sequence:
#
# PCOD8253014 Si02
#       5
#     8   8   8   8   8
#     4  11  22  37  60  88 116 149 192 235 279 334
#     4  10  22  37  56  84 121 151 180 229 292 336
#     4  10  20  38  60  84 114 151 190 234 284 337
#     4   9  20  36  56  82 115 150 186 230 289 343
#     4  10  20  36  58  84 112 149 191 231 280 340
#
# _framework density 21.275217000000001
#
# number of rings (size 3 to 8) (size 9 to 14) (size 15 to 20)
#    0.000    2.000    2.000    3.000    0.000    7.200 
#    0.000    5.000    0.000    0.000    0.000    0.000 
#    0.000    0.000    0.000    0.000    0.000    0.000 
#
# Total GULP energy -495640.062928 kJ/mol
# GULP energy per Si atom -12391.001573 kJ/mol
# Density = 2.122679 g / cm^3
# Si number density = 21.275217 Si / 1000 Ang^3
#
#
#
# Elastic Constant Matrix: (Units=GPa)
#
#
# Indices 1 2 3 4 5 6 
#
# 1 44.0497 14.6717 0.6665 0.0000 0.0000 0.0000
# 2 14.6717 118.1476 43.7878 0.0000 0.0000 0.0000
# 3 0.6665 43.7878 88.3370 0.0000 0.0000 0.0000
# 4 0.0000 0.0000 0.0000 -4.5446 0.0000 0.0000
# 5 0.0000 0.0000 0.0000 0.0000 19.2281 0.0000
# 6 0.0000 0.0000 0.0000 0.0000 0.0000 11.8895
#
#
#
# Elastic Compliance Matrix: (Units=1/GPa)
#
#
# Indices 1 2 3 4 5 6 
#
# 1 0.023859 -0.003548 0.001579 0.000000 0.000000 0.000000
# 2 -0.003548 0.010896 -0.005375 0.000000 0.000000 0.000000
# 3 0.001579 -0.005375 0.013972 0.000000 0.000000 0.000000
# 4 0.000000 0.000000 0.000000 -0.220041 0.000000 0.000000
# 5 0.000000 0.000000 0.000000 0.000000 0.052007 0.000000
# 6 0.000000 0.000000 0.000000 0.000000 0.000000 0.084108
#
#
# Mechanical properties :
#
#
# Convention : Reuss Voigt Hill
#
# Bulk Modulus (GPa) = 29.37649 40.97624 35.17636
# Shear Modulus (GPa) = -545.68890 18.07514 -263.80688
#
# Velocity S-wave (km/s) = -16.03269 2.91793 -11.14749
# Velocity P-wave (km/s) = 18.13537 5.53663 12.21142
#
# Compressibility (1/GPa) = 0.03404082
#
# Stress axis : x y z
#
# Youngs Moduli (GPa) = 41.91204 91.77284 71.56934
#
# Poissons Ratio (x) = 0.32561 -0.11299
# Poissons Ratio (y) = 0.14870 0.38465
# Poissons Ratio (z) = -0.06617 0.49323
#
# Static dielectric constant tensor:
#      x y z
#    x 3.652690 0.000000 0.000000 
#    y 0.000000 3.701000 0.000000 
#    z 0.000000 0.000000 3.857400 
# 
# 
# High freq. dielectric constant tensor:
#      x y z
#    x 1.812930 0.000000 0.000000 
#    y 0.000000 1.831900 0.000000 
#    z 0.000000 0.000000 1.827410 
# 
# From -- ./inp_files/13871.got.cif
#   From: 2010.03.12/outbox.cif.g09.slc.cpg/sg62_7_cif.got.tgz:13871.got - 2010.04.10 19:12:36.
