data_PCOD8253435
_publ_section_title
;
Structure prediction by ZEFSAII (Michael W. Deem and Ramdas Pophale) SiO2 
 PCOD8253435
Probable space group: P N M A
;
_chemical_formula_sum "Si O2"
_cell_formula_units_Z 56
_cell_length_a 14.495541
_cell_length_b 8.816022
_cell_length_c 21.684963
_cell_angle_alpha 90.000000
_cell_angle_beta 90.000000
_cell_angle_gamma 90.000000
_cell_volume 2771.186658
_symmetry_space_group_name_H-M "P N M A"
_symmetry_group_IT_number 62
_symmetry_cell_setting 'orthorhombic'
loop_
_space_group_symop_operation_xyz
x,y,z
1/2-x,-y,1/2+z
1/2+x,1/2-y,1/2-z
-x,1/2+y,-z
-x,-y,-z
1/2+x,y,1/2-z
1/2-x,1/2+y,1/2+z
x,1/2-y,z
loop_
_atom_site_type_symbol
_atom_site_label
_atom_site_fract_x
_atom_site_fract_y
_atom_site_fract_z
Si Si1 0.880374 0.072683 0.246403
Si Si2 0.433044 0.927366 0.674377
Si Si3 0.230965 0.927390 0.512230
Si Si4 0.585985 0.925937 0.884586
Si Si5 0.897569 0.428706 0.598039
Si Si6 0.579019 0.570933 0.458742
Si Si7 0.807880 0.070972 0.725287
O O1 0.855257 0.250000 0.245342
O O2 0.896133 0.013404 0.315816
O O3 0.970825 0.036358 0.207236
O O4 0.798139 0.976474 0.216628
O O5 0.418850 0.750000 0.662063
O O6 0.431068 0.014230 0.610552
O O7 0.349007 0.984903 0.716026
O O8 0.254971 0.750000 0.505821
O O9 0.176206 0.959931 0.575280
O O10 0.171397 0.987721 0.454668
O O11 0.323685 0.023399 0.512546
O O12 0.561330 0.750000 0.883276
O O13 0.498923 0.008095 0.915010
O O14 0.903127 0.250000 0.594247
O O15 0.861901 0.483834 0.664518
O O16 0.500000 0.500000 0.500000
O O17 0.569465 0.750000 0.460270
O O18 0.816146 0.250000 0.735012
#
# Coordination Sequence:
#
# PCOD8253435 Si02
#       7
#     8   8   8   8   8   8   8
#     4  10  22  38  61  91 122 162 211 262 316 374
#     4  11  23  43  67  93 126 166 212 264 319 376
#     4  10  22  41  64  92 129 170 211 260 313 371
#     4  10  20  38  63  92 124 165 211 257 313 373
#     4  10  22  38  59  92 130 166 207 258 316 371
#     4  12  27  46  68  95 126 166 213 262 319 382
#     4  11  23  38  60  93 129 169 213 263 319 375
#
# _framework density 20.207948999999999
#
# number of rings (size 3 to 8) (size 9 to 14) (size 15 to 20)
#    0.000    1.429    1.429    3.429    2.000    4.571 
#    0.000    0.000    0.000    0.000    0.000    0.000 
#    0.000    0.000    0.000    0.000    0.000    0.000 
#
# Total GULP energy -694783.838582 kJ/mol
# GULP energy per Si atom -12406.854260 kJ/mol
# Density = 2.016195 g / cm^3
# Si number density = 20.207949 Si / 1000 Ang^3
#
#
#
# Elastic Constant Matrix: (Units=GPa)
#
#
# Indices 1 2 3 4 5 6 
#
# 1 108.9101 40.1869 16.4447 0.0000 0.0000 0.0000
# 2 40.1869 74.2981 24.9961 0.0000 0.0000 0.0000
# 3 16.4447 24.9961 70.5044 0.0000 0.0000 0.0000
# 4 0.0000 0.0000 0.0000 19.1291 0.0000 0.0000
# 5 0.0000 0.0000 0.0000 0.0000 28.5345 0.0000
# 6 0.0000 0.0000 0.0000 0.0000 0.0000 40.3371
#
#
#
# Elastic Compliance Matrix: (Units=1/GPa)
#
#
# Indices 1 2 3 4 5 6 
#
# 1 0.011490 -0.006032 -0.000541 0.000000 0.000000 0.000000
# 2 -0.006032 0.018449 -0.005134 0.000000 0.000000 0.000000
# 3 -0.000541 -0.005134 0.016130 0.000000 0.000000 0.000000
# 4 0.000000 0.000000 0.000000 0.052276 0.000000 0.000000
# 5 0.000000 0.000000 0.000000 0.000000 0.035045 0.000000
# 6 0.000000 0.000000 0.000000 0.000000 0.000000 0.024791
#
#
# Mechanical properties :
#
#
# Convention : Reuss Voigt Hill
#
# Bulk Modulus (GPa) = 44.14280 46.32981 45.23631
# Shear Modulus (GPa) = 26.43437 29.07248 27.75342
#
# Velocity S-wave (km/s) = 3.62071 3.79709 3.70995
# Velocity P-wave (km/s) = 6.27464 6.49616 6.38636
#
# Compressibility (1/GPa) = 0.02265375
#
# Stress axis : x y z
#
# Youngs Moduli (GPa) = 87.03572 54.20232 61.99685
#
# Poissons Ratio (x) = 0.32698 0.03355
# Poissons Ratio (y) = 0.52504 0.31828
# Poissons Ratio (z) = 0.04710 0.27827
#
# Static dielectric constant tensor:
#      x y z
#    x 3.708880 0.000000 0.000000 
#    y 0.000000 3.579230 0.000000 
#    z 0.000000 0.000000 3.826830 
# 
# 
# High freq. dielectric constant tensor:
#      x y z
#    x 1.803400 0.000000 0.000000 
#    y 0.000000 1.783510 0.000000 
#    z 0.000000 0.000000 1.802270 
# 
# From -- ./inp_files/27286.got.cif
#   From: 2010.03.12/outbox.cif.g09.slc.cpg/sg62_14_cif.got.tgz:27286.got - 2010.04.10 19:12:36.
