data_PCOD8253416
_publ_section_title
;
Structure prediction by ZEFSAII (Michael W. Deem and Ramdas Pophale) SiO2 
 PCOD8253416
Probable space group: P N M A
;
_chemical_formula_sum "Si O2"
_cell_formula_units_Z 64
_cell_length_a 19.663543
_cell_length_b 9.079043
_cell_length_c 18.701315
_cell_angle_alpha 90.000000
_cell_angle_beta 90.000000
_cell_angle_gamma 90.000000
_cell_volume 3338.673812
_symmetry_space_group_name_H-M "P N M A"
_symmetry_group_IT_number 62
_symmetry_cell_setting 'orthorhombic'
loop_
_space_group_symop_operation_xyz
x,y,z
1/2-x,-y,1/2+z
1/2+x,1/2-y,1/2-z
-x,1/2+y,-z
-x,-y,-z
1/2+x,y,1/2-z
1/2-x,1/2+y,1/2+z
x,1/2-y,z
loop_
_atom_site_type_symbol
_atom_site_label
_atom_site_fract_x
_atom_site_fract_y
_atom_site_fract_z
Si Si1 0.336184 0.924467 0.294647
Si Si2 0.946715 0.575041 0.447989
Si Si3 0.093460 0.917883 0.194375
Si Si4 0.437743 0.083675 0.533983
Si Si5 0.734594 0.076478 0.307543
Si Si6 0.468955 0.924314 0.213538
Si Si7 0.307461 0.080727 0.046008
Si Si8 0.821851 0.919128 0.042276
O O1 0.328932 0.750000 0.285778
O O2 0.405310 0.986430 0.258987
O O3 0.334448 0.972203 0.377171
O O4 0.272288 0.999760 0.257697
O O5 0.951499 0.750000 0.455397
O O6 0.963515 0.520765 0.367796
O O7 0.871397 0.523236 0.468834
O O8 0.000000 0.500000 0.500000
O O9 0.116408 0.750000 0.211306
O O10 0.054629 0.923659 0.119063
O O11 0.040180 0.978765 0.253261
O O12 0.157277 0.024472 0.193727
O O13 0.439723 0.250000 0.506145
O O14 0.500000 0.000000 0.500000
O O15 0.366407 0.014232 0.511520
O O16 0.736076 0.250000 0.297160
O O17 0.769742 0.029580 0.381774
O O18 0.466048 0.750000 0.217953
O O19 0.331639 0.250000 0.052130
O O20 0.256906 0.060043 0.978990
O O21 0.844082 0.750000 0.032707
#
# Coordination Sequence:
#
# PCOD8253416 Si02
#       8
#     8   8   8   8   8   8   8   8
#     4  10  20  38  63  87 114 154 203 244 289 355
#     4  11  23  40  64  89 117 155 203 253 301 355
#     4  10  21  38  60  85 114 154 200 241 288 354
#     4  11  22  35  56  84 119 157 196 243 294 355
#     4  11  22  37  59  87 121 156 193 243 297 353
#     4   9  19  37  60  85 113 150 200 247 286 345
#     4  10  21  39  61  86 120 158 195 241 301 358
#     4  10  21  38  61  87 119 156 198 247 297 355
#
# _framework density 19.169288000000002
#
# number of rings (size 3 to 8) (size 9 to 14) (size 15 to 20)
#    0.000    1.750    2.500    1.875    0.000    5.000 
#    0.000    6.875    0.000    0.000    0.000    0.000 
#    0.000    0.000    0.000    0.000    0.000    0.000 
#
# Total GULP energy -793858.258487 kJ/mol
# GULP energy per Si atom -12404.035289 kJ/mol
# Density = 1.912566 g / cm^3
# Si number density = 19.169288 Si / 1000 Ang^3
#
#
#
# Elastic Constant Matrix: (Units=GPa)
#
#
# Indices 1 2 3 4 5 6 
#
# 1 121.2710 40.7093 52.5121 0.0000 0.0000 0.0000
# 2 40.7093 62.8476 38.2072 0.0000 0.0000 0.0000
# 3 52.5121 38.2072 116.3240 0.0000 0.0000 0.0000
# 4 0.0000 0.0000 0.0000 26.5767 0.0000 0.0000
# 5 0.0000 0.0000 0.0000 0.0000 38.9041 0.0000
# 6 0.0000 0.0000 0.0000 0.0000 0.0000 36.4993
#
#
#
# Elastic Compliance Matrix: (Units=1/GPa)
#
#
# Indices 1 2 3 4 5 6 
#
# 1 0.011544 -0.005385 -0.003443 0.000000 0.000000 0.000000
# 2 -0.005385 0.022393 -0.004924 0.000000 0.000000 0.000000
# 3 -0.003443 -0.004924 0.011768 0.000000 0.000000 0.000000
# 4 0.000000 0.000000 0.000000 0.037627 0.000000 0.000000
# 5 0.000000 0.000000 0.000000 0.000000 0.025704 0.000000
# 6 0.000000 0.000000 0.000000 0.000000 0.000000 0.027398
#
#
# Mechanical properties :
#
#
# Convention : Reuss Voigt Hill
#
# Bulk Modulus (GPa) = 54.93907 62.58888 58.76397
# Shear Modulus (GPa) = 29.41074 31.66362 30.53718
#
# Velocity S-wave (km/s) = 3.92122 4.06863 3.99560
# Velocity P-wave (km/s) = 7.01594 7.40224 7.21168
#
# Compressibility (1/GPa) = 0.01820198
#
# Stress axis : x y z
#
# Youngs Moduli (GPa) = 86.62199 44.65651 84.97430
#
# Poissons Ratio (x) = 0.24047 0.29255
# Poissons Ratio (y) = 0.46645 0.41844
# Poissons Ratio (z) = 0.29822 0.21990
#
# Static dielectric constant tensor:
#      x y z
#    x 3.565200 0.000000 0.000000 
#    y 0.000000 3.416900 0.000000 
#    z 0.000000 0.000000 3.664670 
# 
# 
# High freq. dielectric constant tensor:
#      x y z
#    x 1.754270 0.000000 0.000000 
#    y 0.000000 1.732730 0.000000 
#    z 0.000000 0.000000 1.751090 
# 
# From -- ./inp_files/24754.got.cif
#   From: 2010.03.12/outbox.cif.g09.slc.cpg/sg62_13_cif.got.tgz:24754.got - 2010.04.10 19:12:36.
