data_PCOD8253662
_publ_section_title
;
Structure prediction by ZEFSAII (Michael W. Deem and Ramdas Pophale) SiO2 
 PCOD8253662
Probable space group: P N M A
;
_chemical_formula_sum "Si O2"
_cell_formula_units_Z 40
_cell_length_a 18.268216
_cell_length_b 18.638681
_cell_length_c 6.152880
_cell_angle_alpha 90.000000
_cell_angle_beta 90.000000
_cell_angle_gamma 90.000000
_cell_volume 2095.027647
_symmetry_space_group_name_H-M "P N M A"
_symmetry_group_IT_number 62
_symmetry_cell_setting 'orthorhombic'
loop_
_space_group_symop_operation_xyz
x,y,z
1/2-x,-y,1/2+z
1/2+x,1/2-y,1/2-z
-x,1/2+y,-z
-x,-y,-z
1/2+x,y,1/2-z
1/2-x,1/2+y,1/2+z
x,1/2-y,z
loop_
_atom_site_type_symbol
_atom_site_label
_atom_site_fract_x
_atom_site_fract_y
_atom_site_fract_z
Si Si1 0.043903 0.461327 0.808236
Si Si2 0.306460 0.914141 0.437229
Si Si3 0.192753 0.666013 0.702273
Si Si4 0.911179 0.073718 0.546837
Si Si5 0.201428 0.932092 0.091397
O O1 0.084950 0.519393 0.656712
O O2 0.991453 0.413687 0.652387
O O3 0.105267 0.410110 0.919515
O O4 0.000000 0.500000 0.000000
O O5 0.272855 0.861532 0.620345
O O6 0.270992 0.894114 0.205185
O O7 0.276092 0.994857 0.472177
O O8 0.196118 0.750000 0.738532
O O9 0.127472 0.647222 0.532334
O O10 0.171353 0.627456 0.926093
O O11 0.861353 0.042672 0.740074
#
# Coordination Sequence:
#
# PCOD8253662 Si02
#       5
#     8   8   8   8   8
#     4  11  20  35  61  97 123 151 199 256 304 360
#     4  11  20  34  61  91 116 152 203 250 300 362
#     4  11  24  39  58  87 124 163 205 259 315 368
#     4  10  21  35  60  90 121 157 202 252 305 368
#     4  11  19  36  60  88 116 156 203 254 299 355
#
# _framework density 19.092825999999999
#
# number of rings (size 3 to 8) (size 9 to 14) (size 15 to 20)
#    0.000    1.200    6.000    1.200    0.000    3.200 
#    0.000    1.000    0.000    6.000    0.000    0.000 
#    0.000    0.000    0.000    0.000    0.000    0.000 
#
# Total GULP energy -495746.589274 kJ/mol
# GULP energy per Si atom -12393.664732 kJ/mol
# Density = 1.904937 g / cm^3
# Si number density = 19.092826 Si / 1000 Ang^3
#
#
#
# Elastic Constant Matrix: (Units=GPa)
#
#
# Indices 1 2 3 4 5 6 
#
# 1 120.3953 19.6379 42.5240 0.0000 0.0000 0.0000
# 2 19.6379 93.8769 33.4781 0.0000 0.0000 0.0000
# 3 42.5240 33.4781 100.2360 0.0000 0.0000 0.0000
# 4 0.0000 0.0000 0.0000 18.4344 0.0000 0.0000
# 5 0.0000 0.0000 0.0000 0.0000 39.5491 0.0000
# 6 0.0000 0.0000 0.0000 0.0000 0.0000 17.6442
#
#
#
# Elastic Compliance Matrix: (Units=1/GPa)
#
#
# Indices 1 2 3 4 5 6 
#
# 1 0.009804 -0.000644 -0.003944 0.000000 0.000000 0.000000
# 2 -0.000644 0.012135 -0.003780 0.000000 0.000000 0.000000
# 3 -0.003944 -0.003780 0.012912 0.000000 0.000000 0.000000
# 4 0.000000 0.000000 0.000000 0.054246 0.000000 0.000000
# 5 0.000000 0.000000 0.000000 0.000000 0.025285 0.000000
# 6 0.000000 0.000000 0.000000 0.000000 0.000000 0.056676
#
#
# Mechanical properties :
#
#
# Convention : Reuss Voigt Hill
#
# Bulk Modulus (GPa) = 55.20294 56.19868 55.70081
# Shear Modulus (GPa) = 25.79543 29.71675 27.75609
#
# Velocity S-wave (km/s) = 3.67966 3.94945 3.81694
# Velocity P-wave (km/s) = 6.85776 7.09196 6.97584
#
# Compressibility (1/GPa) = 0.01811498
#
# Stress axis : x y z
#
# Youngs Moduli (GPa) = 101.99773 82.40679 77.44702
#
# Poissons Ratio (x) = 0.05310 0.30546
# Poissons Ratio (y) = 0.06573 0.29272
# Poissons Ratio (z) = 0.40229 0.31147
#
# Static dielectric constant tensor:
#      x y z
#    x 3.670000 0.000000 0.000000 
#    y 0.000000 2.919380 0.000000 
#    z 0.000000 0.000000 3.812890 
# 
# 
# High freq. dielectric constant tensor:
#      x y z
#    x 1.750050 0.000000 0.000000 
#    y 0.000000 1.676970 0.000000 
#    z 0.000000 0.000000 1.769660 
# 
# From -- ./inp_files/1544.got.cif
#   From: 2010.03.12/outbox.cif.g09.slc.cpg/sg62_1_cif.got.tgz:1544.got - 2010.04.10 19:12:36.
