data_PCOD8253203
_publ_section_title
;
Structure prediction by ZEFSAII (Michael W. Deem and Ramdas Pophale) SiO2 
 PCOD8253203
Probable space group: P N M A
;
_chemical_formula_sum "Si O2"
_cell_formula_units_Z 64
_cell_length_a 12.881960
_cell_length_b 8.761692
_cell_length_c 28.200505
_cell_angle_alpha 90.000000
_cell_angle_beta 90.000000
_cell_angle_gamma 90.000000
_cell_volume 3182.927996
_symmetry_space_group_name_H-M "P N M A"
_symmetry_group_IT_number 62
_symmetry_cell_setting 'orthorhombic'
loop_
_space_group_symop_operation_xyz
x,y,z
1/2-x,-y,1/2+z
1/2+x,1/2-y,1/2-z
-x,1/2+y,-z
-x,-y,-z
1/2+x,y,1/2-z
1/2-x,1/2+y,1/2+z
x,1/2-y,z
loop_
_atom_site_type_symbol
_atom_site_label
_atom_site_fract_x
_atom_site_fract_y
_atom_site_fract_z
Si Si1 0.632496 0.073651 0.638752
Si Si2 0.249238 0.919825 0.452864
Si Si3 0.226539 0.069560 0.695054
Si Si4 0.537895 0.073055 0.049448
Si Si5 0.483414 0.431287 0.155120
Si Si6 0.089388 0.076453 0.030062
Si Si7 0.686059 0.568968 0.202453
Si Si8 0.591639 0.569150 0.370832
O O1 0.629426 0.250000 0.653141
O O2 0.657152 0.048402 0.583518
O O3 0.723831 0.998212 0.669202
O O4 0.518566 0.002041 0.648557
O O5 0.202151 0.750000 0.443908
O O6 0.299488 0.929718 0.504341
O O7 0.160324 0.044214 0.446288
O O8 0.207537 0.250000 0.691576
O O9 0.274740 0.023475 0.745510
O O10 0.312925 0.006633 0.659148
O O11 0.119625 0.987492 0.681838
O O12 0.514152 0.250000 0.044554
O O13 0.486944 0.012576 0.099396
O O14 0.500000 0.000000 0.000000
O O15 0.487781 0.250000 0.155895
O O16 0.578652 0.493041 0.186589
O O17 0.057253 0.250000 0.041558
O O18 0.110589 0.979995 0.076155
O O19 0.000000 0.000000 0.000000
O O20 0.671009 0.750000 0.197219
O O21 0.585954 0.750000 0.368412
#
# Coordination Sequence:
#
# PCOD8253203 Si02
#       8
#     8   8   8   8   8   8   8   8
#     4   9  17  34  61  89 119 152 192 251 309 359
#     4  10  20  37  59  85 118 159 200 248 309 367
#     4  10  24  41  66  96 123 162 211 260 306 366
#     4  11  25  42  62  89 122 164 211 258 310 371
#     4  11  25  44  64  91 132 168 204 257 317 380
#     4  11  22  36  56  84 121 161 198 242 300 363
#     4  10  21  40  69  95 118 156 209 260 307 363
#     4  10  21  39  59  88 124 159 204 255 308 363
#
# _framework density 20.107271000000001
#
# number of rings (size 3 to 8) (size 9 to 14) (size 15 to 20)
#    0.000    1.750    2.500    1.125    3.500    3.500 
#    0.000    0.625    0.000    0.000    0.000    0.000 
#    0.000    0.000    0.000    0.000    0.000    0.000 
#
# Total GULP energy -793241.378195 kJ/mol
# GULP energy per Si atom -12394.396534 kJ/mol
# Density = 2.006151 g / cm^3
# Si number density = 20.107271 Si / 1000 Ang^3
#
#
#
# Elastic Constant Matrix: (Units=GPa)
#
#
# Indices 1 2 3 4 5 6 
#
# 1 161.2559 35.6091 80.5227 0.0000 0.0000 0.0000
# 2 35.6091 24.3180 22.3362 0.0000 0.0000 0.0000
# 3 80.5227 22.3362 140.2321 0.0000 0.0000 0.0000
# 4 0.0000 0.0000 0.0000 27.7775 0.0000 0.0000
# 5 0.0000 0.0000 0.0000 0.0000 31.9584 0.0000
# 6 0.0000 0.0000 0.0000 0.0000 0.0000 25.9333
#
#
#
# Elastic Compliance Matrix: (Units=1/GPa)
#
#
# Indices 1 2 3 4 5 6 
#
# 1 0.011109 -0.012192 -0.004437 0.000000 0.000000 0.000000
# 2 -0.012192 0.061549 -0.002803 0.000000 0.000000 0.000000
# 3 -0.004437 -0.002803 0.010125 0.000000 0.000000 0.000000
# 4 0.000000 0.000000 0.000000 0.036000 0.000000 0.000000
# 5 0.000000 0.000000 0.000000 0.000000 0.031291 0.000000
# 6 0.000000 0.000000 0.000000 0.000000 0.000000 0.038560
#
#
# Mechanical properties :
#
#
# Convention : Reuss Voigt Hill
#
# Bulk Modulus (GPa) = 22.76877 66.97133 44.87005
# Shear Modulus (GPa) = 20.64934 29.62304 25.13619
#
# Velocity S-wave (km/s) = 3.20810 3.84246 3.53952
# Velocity P-wave (km/s) = 5.00707 7.28459 6.25044
#
# Compressibility (1/GPa) = 0.04391982
#
# Stress axis : x y z
#
# Youngs Moduli (GPa) = 90.01516 16.24725 98.76253
#
# Poissons Ratio (x) = 0.19808 0.43822
# Poissons Ratio (y) = 1.09745 0.27681
# Poissons Ratio (z) = 0.39941 0.04554
#
# Static dielectric constant tensor:
#      x y z
#    x 3.862630 0.000000 0.000000 
#    y 0.000000 3.435390 0.000000 
#    z 0.000000 0.000000 3.881590 
# 
# 
# High freq. dielectric constant tensor:
#      x y z
#    x 1.797350 0.000000 0.000000 
#    y 0.000000 1.759650 0.000000 
#    z 0.000000 0.000000 1.796000 
# 
# From -- ./inp_files/32456.got.cif
#   From: 2010.03.12/outbox.cif.g09.slc.cpg/sg62_17_cif.got.tgz:32456.got - 2010.04.10 19:12:36.
