data_PCOD8253594
_publ_section_title
;
Structure prediction by ZEFSAII (Michael W. Deem and Ramdas Pophale) SiO2 
 PCOD8253594
Probable space group: P N M A
;
_chemical_formula_sum "Si O2"
_cell_formula_units_Z 32
_cell_length_a 9.567180
_cell_length_b 7.876912
_cell_length_c 22.857107
_cell_angle_alpha 90.000000
_cell_angle_beta 90.000000
_cell_angle_gamma 90.000000
_cell_volume 1722.507811
_symmetry_space_group_name_H-M "P N M A"
_symmetry_group_IT_number 62
_symmetry_cell_setting 'orthorhombic'
loop_
_space_group_symop_operation_xyz
x,y,z
1/2-x,-y,1/2+z
1/2+x,1/2-y,1/2-z
-x,1/2+y,-z
-x,-y,-z
1/2+x,y,1/2-z
1/2-x,1/2+y,1/2+z
x,1/2-y,z
loop_
_atom_site_type_symbol
_atom_site_label
_atom_site_fract_x
_atom_site_fract_y
_atom_site_fract_z
Si Si1 0.844827 0.557444 0.514118
Si Si2 0.357436 0.250000 0.301010
Si Si3 0.136072 0.438897 0.079131
Si Si4 0.842444 0.560547 0.113380
Si Si5 0.672782 0.250000 0.311791
O O1 0.846117 0.750000 0.535517
O O2 0.750622 0.543602 0.456062
O O3 0.783076 0.446435 0.566744
O O4 0.000000 0.500000 0.500000
O O5 0.318394 0.419419 0.336875
O O6 0.519117 0.250000 0.284169
O O7 0.282834 0.250000 0.239256
O O8 0.115755 0.250000 0.051438
O O9 0.188943 0.417265 0.146677
O O10 0.986541 0.531400 0.078003
O O11 0.842464 0.750000 0.141187
#
# Coordination Sequence:
#
# PCOD8253594 Si02
#       5
#     8   4   8   8   4
#     4  12  23  36  54  88 123 153 194 243 297 354
#     4  10  20  42  58  90 112 158 203 238 299 342
#     4   9  19  38  58  86 111 156 195 235 293 345
#     4  11  21  38  61  86 117 157 199 241 288 353
#     4   8  20  36  64  80 118 156 193 244 295 344
#
# _framework density 18.577563999999999
#
# number of rings (size 3 to 8) (size 9 to 14) (size 15 to 20)
#    0.750    1.000    2.500    3.750    0.000    2.000 
#    0.000    6.250    0.000    0.000    0.000    0.000 
#    0.000    0.000    0.000    0.000    0.000    0.000 
#
# Total GULP energy -396665.901980 kJ/mol
# GULP energy per Si atom -12395.809437 kJ/mol
# Density = 1.853528 g / cm^3
# Si number density = 18.577564 Si / 1000 Ang^3
#
#
#
# Elastic Constant Matrix: (Units=GPa)
#
#
# Indices 1 2 3 4 5 6 
#
# 1 55.4541 5.3698 10.9354 0.0000 0.0000 0.0000
# 2 5.3698 120.5031 4.4814 0.0000 0.0000 0.0000
# 3 10.9354 4.4814 37.0970 0.0000 0.0000 0.0000
# 4 0.0000 0.0000 0.0000 15.8467 0.0000 0.0000
# 5 0.0000 0.0000 0.0000 0.0000 38.9677 0.0000
# 6 0.0000 0.0000 0.0000 0.0000 0.0000 23.9362
#
#
#
# Elastic Compliance Matrix: (Units=1/GPa)
#
#
# Indices 1 2 3 4 5 6 
#
# 1 0.019196 -0.000648 -0.005580 0.000000 0.000000 0.000000
# 2 -0.000648 0.008358 -0.000819 0.000000 0.000000 0.000000
# 3 -0.005580 -0.000819 0.028700 0.000000 0.000000 0.000000
# 4 0.000000 0.000000 0.000000 0.063105 0.000000 0.000000
# 5 0.000000 0.000000 0.000000 0.000000 0.025662 0.000000
# 6 0.000000 0.000000 0.000000 0.000000 0.000000 0.041778
#
#
# Mechanical properties :
#
#
# Convention : Reuss Voigt Hill
#
# Bulk Modulus (GPa) = 23.71893 28.29193 26.00543
# Shear Modulus (GPa) = 23.26164 28.56795 25.91479
#
# Velocity S-wave (km/s) = 3.54239 3.92569 3.73896
# Velocity P-wave (km/s) = 5.43384 5.98416 5.71563
#
# Compressibility (1/GPa) = 0.04216042
#
# Stress axis : x y z
#
# Youngs Moduli (GPa) = 52.09391 119.64784 34.84289
#
# Poissons Ratio (x) = 0.07752 0.19444
# Poissons Ratio (y) = 0.03375 0.02852
# Poissons Ratio (z) = 0.29070 0.09795
#
# Static dielectric constant tensor:
#      x y z
#    x 3.310570 0.000000 0.000000 
#    y 0.000000 3.477390 0.000000 
#    z 0.000000 0.000000 3.132300 
# 
# 
# High freq. dielectric constant tensor:
#      x y z
#    x 1.722020 0.000000 0.000000 
#    y 0.000000 1.722190 0.000000 
#    z 0.000000 0.000000 1.701450 
# 
# From -- ./inp_files/28547.got.cif
#   From: 2010.03.12/outbox.cif.g09.slc.cpg/sg62_15_cif.got.tgz:28547.got - 2010.04.10 19:12:36.
