data_PCOD8253196
_publ_section_title
;
Structure prediction by ZEFSAII (Michael W. Deem and Ramdas Pophale) SiO2 
 PCOD8253196
Probable space group: P N M A
;
_chemical_formula_sum "Si O2"
_cell_formula_units_Z 48
_cell_length_a 16.503589
_cell_length_b 8.774369
_cell_length_c 17.674488
_cell_angle_alpha 90.000000
_cell_angle_beta 90.000000
_cell_angle_gamma 90.000000
_cell_volume 2559.417504
_symmetry_space_group_name_H-M "P N M A"
_symmetry_group_IT_number 62
_symmetry_cell_setting 'orthorhombic'
loop_
_space_group_symop_operation_xyz
x,y,z
1/2-x,-y,1/2+z
1/2+x,1/2-y,1/2-z
-x,1/2+y,-z
-x,-y,-z
1/2+x,y,1/2-z
1/2-x,1/2+y,1/2+z
x,1/2-y,z
loop_
_atom_site_type_symbol
_atom_site_label
_atom_site_fract_x
_atom_site_fract_y
_atom_site_fract_z
Si Si1 0.989861 0.070439 0.582011
Si Si2 0.586530 0.570367 0.516316
Si Si3 0.172825 0.074116 0.411437
Si Si4 0.334045 0.076303 0.326362
Si Si5 0.849652 0.927398 0.329917
Si Si6 0.740613 0.070142 0.448475
O O1 0.979854 0.250000 0.575467
O O2 0.065434 0.023395 0.633436
O O3 0.000000 0.000000 0.500000
O O4 0.909656 0.999029 0.620361
O O5 0.500000 0.500000 0.500000
O O6 0.584841 0.750000 0.503764
O O7 0.611572 0.529025 0.601891
O O8 0.651598 0.501151 0.458203
O O9 0.159767 0.250000 0.433316
O O10 0.239783 0.055350 0.346773
O O11 0.197891 0.989203 0.488048
O O12 0.351953 0.250000 0.302517
O O13 0.355644 0.964283 0.258567
O O14 0.832322 0.750000 0.341790
O O15 0.776116 0.021576 0.367180
O O16 0.732987 0.250000 0.453382
#
# Coordination Sequence:
#
# PCOD8253196 Si02
#       6
#     8   8   8   8   8   8
#     4  11  22  35  57  87 118 154 194 237 287 345
#     4  10  21  40  64  89 117 152 198 245 288 344
#     4  10  20  37  59  84 114 149 192 237 283 344
#     4   9  21  40  60  83 115 154 192 237 293 345
#     4  11  23  38  57  85 120 153 193 243 292 345
#     4  11  21  35  60  86 113 152 193 234 288 347
#
# _framework density 18.754266999999999
#
# number of rings (size 3 to 8) (size 9 to 14) (size 15 to 20)
#    0.000    1.667    1.667    4.500    0.000    6.000 
#    3.000    0.000    0.000    0.000    0.000    0.000 
#    0.000    0.000    0.000    0.000    0.000    0.000 
#
# Total GULP energy -595425.955687 kJ/mol
# GULP energy per Si atom -12404.707410 kJ/mol
# Density = 1.871158 g / cm^3
# Si number density = 18.754267 Si / 1000 Ang^3
#
#
#
# Elastic Constant Matrix: (Units=GPa)
#
#
# Indices 1 2 3 4 5 6 
#
# 1 159.5862 68.9511 58.7843 0.0000 0.0000 0.0000
# 2 68.9511 117.2479 48.8505 0.0000 0.0000 0.0000
# 3 58.7843 48.8505 92.8889 0.0000 0.0000 0.0000
# 4 0.0000 0.0000 0.0000 32.7179 0.0000 0.0000
# 5 0.0000 0.0000 0.0000 0.0000 21.9170 0.0000
# 6 0.0000 0.0000 0.0000 0.0000 0.0000 38.1829
#
#
#
# Elastic Compliance Matrix: (Units=1/GPa)
#
#
# Indices 1 2 3 4 5 6 
#
# 1 0.009382 -0.003898 -0.003888 0.000000 0.000000 0.000000
# 2 -0.003898 0.012541 -0.004129 0.000000 0.000000 0.000000
# 3 -0.003888 -0.004129 0.015397 0.000000 0.000000 0.000000
# 4 0.000000 0.000000 0.000000 0.030564 0.000000 0.000000
# 5 0.000000 0.000000 0.000000 0.000000 0.045627 0.000000
# 6 0.000000 0.000000 0.000000 0.000000 0.000000 0.026190
#
#
# Mechanical properties :
#
#
# Convention : Reuss Voigt Hill
#
# Bulk Modulus (GPa) = 74.11647 80.32165 77.21906
# Shear Modulus (GPa) = 29.75697 31.43937 30.59817
#
# Velocity S-wave (km/s) = 3.98763 4.09881 4.04360
# Velocity P-wave (km/s) = 7.79790 8.08219 7.94132
#
# Compressibility (1/GPa) = 0.01349228
#
# Stress axis : x y z
#
# Youngs Moduli (GPa) = 106.58314 79.73584 64.94656
#
# Poissons Ratio (x) = 0.31079 0.25249
# Poissons Ratio (y) = 0.41544 0.26816
# Poissons Ratio (z) = 0.41437 0.32922
#
# Static dielectric constant tensor:
#      x y z
#    x 3.761150 0.000000 0.000000 
#    y 0.000000 3.513670 0.000000 
#    z 0.000000 0.000000 3.251070 
# 
# 
# High freq. dielectric constant tensor:
#      x y z
#    x 1.737740 0.000000 0.000000 
#    y 0.000000 1.742460 0.000000 
#    z 0.000000 0.000000 1.710890 
# 
# From -- ./inp_files/23709.got.cif
#   From: 2010.03.12/outbox.cif.g09.slc.cpg/sg62_12_cif.got.tgz:23709.got - 2010.04.10 19:12:36.
