data_PCOD8253489
_publ_section_title
;
Structure prediction by ZEFSAII (Michael W. Deem and Ramdas Pophale) SiO2 
 PCOD8253489
Probable space group: P N M A
;
_chemical_formula_sum "Si O2"
_cell_formula_units_Z 64
_cell_length_a 23.789031
_cell_length_b 8.841875
_cell_length_c 15.579801
_cell_angle_alpha 90.000000
_cell_angle_beta 90.000000
_cell_angle_gamma 90.000000
_cell_volume 3277.049710
_symmetry_space_group_name_H-M "P N M A"
_symmetry_group_IT_number 62
_symmetry_cell_setting 'orthorhombic'
loop_
_space_group_symop_operation_xyz
x,y,z
1/2-x,-y,1/2+z
1/2+x,1/2-y,1/2-z
-x,1/2+y,-z
-x,-y,-z
1/2+x,y,1/2-z
1/2-x,1/2+y,1/2+z
x,1/2-y,z
loop_
_atom_site_type_symbol
_atom_site_label
_atom_site_fract_x
_atom_site_fract_y
_atom_site_fract_z
Si Si1 0.995452 0.424263 0.679086
Si Si2 0.000461 0.577149 0.124731
Si Si3 0.791701 0.071782 0.995964
Si Si4 0.266896 0.929351 0.831220
Si Si5 0.392103 0.570852 0.086993
Si Si6 0.589661 0.075306 0.485192
Si Si7 0.717482 0.570276 0.847690
Si Si8 0.113910 0.071174 0.392226
O O1 0.981713 0.250000 0.661757
O O2 0.046663 0.479537 0.619947
O O3 0.013393 0.454111 0.776722
O O4 0.940116 0.517653 0.658999
O O5 0.019185 0.750000 0.108053
O O6 0.943672 0.540955 0.072835
O O7 0.050706 0.467924 0.095440
O O8 0.783153 0.250000 0.985040
O O9 0.771921 0.016115 0.089857
O O10 0.856124 0.029330 0.983425
O O11 0.754422 0.990113 0.925349
O O12 0.267992 0.750000 0.828339
O O13 0.242721 0.993169 0.741894
O O14 0.330264 0.991397 0.845195
O O15 0.383522 0.750000 0.095100
O O16 0.345841 0.489584 0.145335
O O17 0.386565 0.511617 0.989814
O O18 0.607390 0.250000 0.476958
O O19 0.717632 0.750000 0.849281
O O20 0.113792 0.250000 0.393596
#
# Coordination Sequence:
#
# PCOD8253489 Si02
#       8
#     8   8   8   8   8   8   8   8
#     4  10  22  37  58  88 116 146 194 246 290 342
#     4   9  20  39  57  82 119 155 191 238 292 345
#     4  11  22  41  64  87 119 159 195 236 299 359
#     4   9  21  40  60  85 120 156 191 237 293 354
#     4  10  21  40  62  83 116 156 190 236 297 351
#     4  10  21  37  59  86 117 152 195 241 285 340
#     4  11  23  39  61  91 121 151 198 248 288 345
#     4  10  20  39  61  82 113 154 193 232 291 355
#
# _framework density 19.529762999999999
#
# number of rings (size 3 to 8) (size 9 to 14) (size 15 to 20)
#    0.000    2.000    1.250    1.500    3.500    2.000 
#    0.000    2.500    0.000    0.000    0.000    0.000 
#    0.000    0.000    0.000    0.000    0.000    0.000 
#
# Total GULP energy -793823.014514 kJ/mol
# GULP energy per Si atom -12403.484602 kJ/mol
# Density = 1.948531 g / cm^3
# Si number density = 19.529763 Si / 1000 Ang^3
#
#
#
# Elastic Constant Matrix: (Units=GPa)
#
#
# Indices 1 2 3 4 5 6 
#
# 1 86.7865 16.0727 6.0255 0.0000 0.0000 0.0000
# 2 16.0727 33.1422 15.2493 0.0000 0.0000 0.0000
# 3 6.0255 15.2493 77.5630 0.0000 0.0000 0.0000
# 4 0.0000 0.0000 0.0000 21.5546 0.0000 0.0000
# 5 0.0000 0.0000 0.0000 0.0000 28.6120 0.0000
# 6 0.0000 0.0000 0.0000 0.0000 0.0000 32.4232
#
#
#
# Elastic Compliance Matrix: (Units=1/GPa)
#
#
# Indices 1 2 3 4 5 6 
#
# 1 0.012664 -0.006255 0.000246 0.000000 0.000000 0.000000
# 2 -0.006255 0.036263 -0.006644 0.000000 0.000000 0.000000
# 3 0.000246 -0.006644 0.014180 0.000000 0.000000 0.000000
# 4 0.000000 0.000000 0.000000 0.046394 0.000000 0.000000
# 5 0.000000 0.000000 0.000000 0.000000 0.034950 0.000000
# 6 0.000000 0.000000 0.000000 0.000000 0.000000 0.030842
#
#
# Mechanical properties :
#
#
# Convention : Reuss Voigt Hill
#
# Bulk Modulus (GPa) = 26.45362 30.24299 28.34830
# Shear Modulus (GPa) = 23.45234 27.19424 25.32329
#
# Velocity S-wave (km/s) = 3.46909 3.73560 3.60481
# Velocity P-wave (km/s) = 5.44250 5.84171 5.64563
#
# Compressibility (1/GPa) = 0.03780201
#
# Stress axis : x y z
#
# Youngs Moduli (GPa) = 78.96525 27.57622 70.52272
#
# Poissons Ratio (x) = 0.17248 -0.01734
# Poissons Ratio (y) = 0.49390 0.46853
# Poissons Ratio (z) = -0.01942 0.18321
#
# Static dielectric constant tensor:
#      x y z
#    x 3.655850 0.000000 0.000000 
#    y 0.000000 3.412990 0.000000 
#    z 0.000000 0.000000 3.780950 
# 
# 
# High freq. dielectric constant tensor:
#      x y z
#    x 1.771560 0.000000 0.000000 
#    y 0.000000 1.744770 0.000000 
#    z 0.000000 0.000000 1.770890 
# 
# From -- ./inp_files/20839.got.cif
#   From: 2010.03.12/outbox.cif.g09.slc.cpg/sg62_11_cif.got.tgz:20839.got - 2010.04.10 19:12:36.
