data_PCOD8253241
_publ_section_title
;
Structure prediction by ZEFSAII (Michael W. Deem and Ramdas Pophale) SiO2 
 PCOD8253241
Probable space group: P N M A
;
_chemical_formula_sum "Si O2"
_cell_formula_units_Z 56
_cell_length_a 16.954289
_cell_length_b 9.061841
_cell_length_c 18.507040
_cell_angle_alpha 90.000000
_cell_angle_beta 90.000000
_cell_angle_gamma 90.000000
_cell_volume 2843.367422
_symmetry_space_group_name_H-M "P N M A"
_symmetry_group_IT_number 62
_symmetry_cell_setting 'orthorhombic'
loop_
_space_group_symop_operation_xyz
x,y,z
1/2-x,-y,1/2+z
1/2+x,1/2-y,1/2-z
-x,1/2+y,-z
-x,-y,-z
1/2+x,y,1/2-z
1/2-x,1/2+y,1/2+z
x,1/2-y,z
loop_
_atom_site_type_symbol
_atom_site_label
_atom_site_fract_x
_atom_site_fract_y
_atom_site_fract_z
Si Si1 0.687136 0.921642 0.544235
Si Si2 0.544591 0.579582 0.648733
Si Si3 0.389858 0.076121 0.604520
Si Si4 0.394975 0.421004 0.199125
Si Si5 0.766529 0.423520 0.777748
Si Si6 0.981881 0.923407 0.575359
Si Si7 0.176736 0.924704 0.380138
O O1 0.710944 0.750000 0.540475
O O2 0.626117 0.952730 0.608296
O O3 0.650319 0.977561 0.469354
O O4 0.765280 0.017782 0.557415
O O5 0.521086 0.750000 0.644277
O O6 0.476429 0.490204 0.609582
O O7 0.554820 0.525614 0.731320
O O8 0.399884 0.250000 0.604293
O O9 0.337369 0.020617 0.671441
O O10 0.374558 0.250000 0.208949
O O11 0.313478 0.506499 0.193413
O O12 0.443899 0.452794 0.127069
O O13 0.756079 0.250000 0.784127
O O14 0.786503 0.471963 0.696552
O O15 0.967128 0.750000 0.563844
O O16 0.906648 0.996181 0.612573
O O17 0.000000 0.000000 0.500000
O O18 0.164981 0.750000 0.387203
#
# Coordination Sequence:
#
# PCOD8253241 Si02
#       7
#     8   8   8   8   8   8   8
#     4  10  21  38  60  87 122 158 194 244 299 356
#     4  10  20  37  60  87 118 155 195 238 294 356
#     4  10  22  37  57  87 119 152 193 240 298 356
#     4  10  22  40  62  88 119 156 203 249 298 359
#     4  10  22  39  60  89 122 158 202 251 300 354
#     4  11  25  43  64  91 124 164 208 259 313 365
#     4  11  23  40  62  89 121 161 207 250 302 362
#
# _framework density 19.694956999999999
#
# number of rings (size 3 to 8) (size 9 to 14) (size 15 to 20)
#    0.000    1.714    1.429    2.143    2.000    4.000 
#    0.000    0.000    0.000    0.000    0.000    0.000 
#    0.000    0.000    0.000    0.000    0.000    0.000 
#
# Total GULP energy -694706.116701 kJ/mol
# GULP energy per Si atom -12405.466370 kJ/mol
# Density = 1.965013 g / cm^3
# Si number density = 19.694957 Si / 1000 Ang^3
#
#
#
# Elastic Constant Matrix: (Units=GPa)
#
#
# Indices 1 2 3 4 5 6 
#
# 1 94.8847 46.3250 19.2441 0.0000 0.0000 0.0000
# 2 46.3250 62.6821 35.5047 0.0000 0.0000 0.0000
# 3 19.2441 35.5047 81.3832 0.0000 0.0000 0.0000
# 4 0.0000 0.0000 0.0000 28.0068 0.0000 0.0000
# 5 0.0000 0.0000 0.0000 0.0000 28.3072 0.0000
# 6 0.0000 0.0000 0.0000 0.0000 0.0000 40.5469
#
#
#
# Elastic Compliance Matrix: (Units=1/GPa)
#
#
# Indices 1 2 3 4 5 6 
#
# 1 0.016709 -0.013429 0.001908 0.000000 0.000000 0.000000
# 2 -0.013429 0.031983 -0.010778 0.000000 0.000000 0.000000
# 3 0.001908 -0.010778 0.016538 0.000000 0.000000 0.000000
# 4 0.000000 0.000000 0.000000 0.035706 0.000000 0.000000
# 5 0.000000 0.000000 0.000000 0.000000 0.035327 0.000000
# 6 0.000000 0.000000 0.000000 0.000000 0.000000 0.024663
#
#
# Mechanical properties :
#
#
# Convention : Reuss Voigt Hill
#
# Bulk Modulus (GPa) = 48.46842 49.01082 48.73962
# Shear Modulus (GPa) = 23.54050 28.56392 26.05221
#
# Velocity S-wave (km/s) = 3.46100 3.81243 3.64096
# Velocity P-wave (km/s) = 6.37451 6.65722 6.51739
#
# Compressibility (1/GPa) = 0.02063199
#
# Stress axis : x y z
#
# Youngs Moduli (GPa) = 59.84966 31.26678 60.46548
#
# Poissons Ratio (x) = 0.41988 -0.11535
# Poissons Ratio (y) = 0.80372 0.65167
# Poissons Ratio (z) = -0.11417 0.33698
#
# Static dielectric constant tensor:
#      x y z
#    x 3.540700 0.000000 0.000000 
#    y 0.000000 3.481350 0.000000 
#    z 0.000000 0.000000 3.804320 
# 
# 
# High freq. dielectric constant tensor:
#      x y z
#    x 1.776210 0.000000 0.000000 
#    y 0.000000 1.761450 0.000000 
#    z 0.000000 0.000000 1.782270 
# 
# From -- ./inp_files/27162.got.cif
#   From: 2010.03.12/outbox.cif.g09.slc.cpg/sg62_14_cif.got.tgz:27162.got - 2010.04.10 19:12:36.
