data_PCOD8253950
_publ_section_title
;
Structure prediction by ZEFSAII (Michael W. Deem and Ramdas Pophale) SiO2 
 PCOD8253950
Probable space group: P N M A
;
_chemical_formula_sum "Si O2"
_cell_formula_units_Z 48
_cell_length_a 30.311346
_cell_length_b 8.707999
_cell_length_c 9.283559
_cell_angle_alpha 90.000000
_cell_angle_beta 90.000000
_cell_angle_gamma 90.000000
_cell_volume 2450.406266
_symmetry_space_group_name_H-M "P N M A"
_symmetry_group_IT_number 62
_symmetry_cell_setting 'orthorhombic'
loop_
_space_group_symop_operation_xyz
x,y,z
1/2-x,-y,1/2+z
1/2+x,1/2-y,1/2-z
-x,1/2+y,-z
-x,-y,-z
1/2+x,y,1/2-z
1/2-x,1/2+y,1/2+z
x,1/2-y,z
loop_
_atom_site_type_symbol
_atom_site_label
_atom_site_fract_x
_atom_site_fract_y
_atom_site_fract_z
Si Si1 0.134901 0.925241 0.915455
Si Si2 0.460435 0.570150 0.087982
Si Si3 0.035079 0.926851 0.895280
Si Si4 0.709486 0.428765 0.085490
Si Si5 0.369258 0.430035 0.086793
Si Si6 0.710931 0.428390 0.419729
O O1 0.151426 0.750000 0.931934
O O2 0.083931 0.939505 0.962898
O O3 0.141537 0.981113 0.750481
O O4 0.162317 0.035200 0.020577
O O5 0.461609 0.750000 0.069476
O O6 0.467005 0.524717 0.251956
O O7 0.413516 0.510298 0.028932
O O8 0.500000 0.500000 0.000000
O O9 0.023387 0.750000 0.862259
O O10 0.000000 0.000000 0.000000
O O11 0.698793 0.250000 0.065271
O O12 0.713630 0.473201 0.252537
O O13 0.670579 0.527506 0.016917
O O14 0.754975 0.468551 0.007831
O O15 0.378150 0.250000 0.083901
O O16 0.722117 0.250000 0.442493
#
# Coordination Sequence:
#
# PCOD8253950 Si02
#       6
#     8   8   8   8   8   8
#     4   9  20  38  59  83 113 148 187 233 283 338
#     4  11  22  38  60  86 117 155 196 240 292 345
#     4  10  21  38  59  86 119 155 196 242 292 346
#     4  11  24  40  58  84 116 149 188 233 283 340
#     4  10  21  39  61  86 115 148 190 237 286 342
#     4  11  24  39  58  85 114 147 189 235 282 337
#
# _framework density 19.588587
#
# number of rings (size 3 to 8) (size 9 to 14) (size 15 to 20)
#    0.000    1.667    0.000    5.500    0.000   12.000 
#    0.000    3.333    0.000    0.000    0.000    0.000 
#    0.000    0.000    0.000    0.000    0.000    0.000 
#
# Total GULP energy -595430.515516 kJ/mol
# GULP energy per Si atom -12404.802407 kJ/mol
# Density = 1.954400 g / cm^3
# Si number density = 19.588587 Si / 1000 Ang^3
#
#
#
# Elastic Constant Matrix: (Units=GPa)
#
#
# Indices 1 2 3 4 5 6 
#
# 1 118.1155 38.8856 56.5046 0.0000 0.0000 0.0000
# 2 38.8856 93.1068 38.5347 0.0000 0.0000 0.0000
# 3 56.5046 38.5347 96.0623 0.0000 0.0000 0.0000
# 4 0.0000 0.0000 0.0000 33.3305 0.0000 0.0000
# 5 0.0000 0.0000 0.0000 0.0000 41.5560 0.0000
# 6 0.0000 0.0000 0.0000 0.0000 0.0000 40.2546
#
#
#
# Elastic Compliance Matrix: (Units=1/GPa)
#
#
# Indices 1 2 3 4 5 6 
#
# 1 0.012271 -0.002563 -0.006190 0.000000 0.000000 0.000000
# 2 -0.002563 0.013414 -0.003873 0.000000 0.000000 0.000000
# 3 -0.006190 -0.003873 0.015605 0.000000 0.000000 0.000000
# 4 0.000000 0.000000 0.000000 0.030003 0.000000 0.000000
# 5 0.000000 0.000000 0.000000 0.000000 0.024064 0.000000
# 6 0.000000 0.000000 0.000000 0.000000 0.000000 0.024842
#
#
# Mechanical properties :
#
#
# Convention : Reuss Voigt Hill
#
# Bulk Modulus (GPa) = 62.35500 63.90382 63.12941
# Shear Modulus (GPa) = 33.15733 34.58554 33.87144
#
# Velocity S-wave (km/s) = 4.11869 4.20646 4.16281
# Velocity P-wave (km/s) = 7.38374 7.50241 7.44331
#
# Compressibility (1/GPa) = 0.01603721
#
# Stress axis : x y z
#
# Youngs Moduli (GPa) = 81.49115 74.54959 64.08400
#
# Poissons Ratio (x) = 0.19109 0.39667
# Poissons Ratio (y) = 0.20888 0.24821
# Poissons Ratio (z) = 0.50442 0.28874
#
# Static dielectric constant tensor:
#      x y z
#    x 3.974720 0.000000 0.000000 
#    y 0.000000 3.681400 0.000000 
#    z 0.000000 0.000000 3.487240 
# 
# 
# High freq. dielectric constant tensor:
#      x y z
#    x 1.776840 0.000000 0.000000 
#    y 0.000000 1.774290 0.000000 
#    z 0.000000 0.000000 1.758830 
# 
# From -- ./inp_files/10125.got.cif
#   From: 2010.03.12/outbox.cif.g09.slc.cpg/sg62_6_cif.got.tgz:10125.got - 2010.04.10 19:12:36.
