data_PCOD8253401
_publ_section_title
;
Structure prediction by ZEFSAII (Michael W. Deem and Ramdas Pophale) SiO2 
 PCOD8253401
Probable space group: P N M A
;
_chemical_formula_sum "Si O2"
_cell_formula_units_Z 48
_cell_length_a 20.095211
_cell_length_b 9.063009
_cell_length_c 13.908708
_cell_angle_alpha 90.000000
_cell_angle_beta 90.000000
_cell_angle_gamma 90.000000
_cell_volume 2533.096714
_symmetry_space_group_name_H-M "P N M A"
_symmetry_group_IT_number 62
_symmetry_cell_setting 'orthorhombic'
loop_
_space_group_symop_operation_xyz
x,y,z
1/2-x,-y,1/2+z
1/2+x,1/2-y,1/2-z
-x,1/2+y,-z
-x,-y,-z
1/2+x,y,1/2-z
1/2-x,1/2+y,1/2+z
x,1/2-y,z
loop_
_atom_site_type_symbol
_atom_site_label
_atom_site_fract_x
_atom_site_fract_y
_atom_site_fract_z
Si Si1 0.945378 0.418900 0.061800
Si Si2 0.808433 0.079945 0.951940
Si Si3 0.560935 0.418138 0.952061
Si Si4 0.987747 0.917286 0.240033
Si Si5 0.637808 0.575347 0.248857
Si Si6 0.184139 0.925283 0.458334
O O1 0.966087 0.250000 0.069354
O O2 0.943491 0.487554 0.167657
O O3 0.874547 0.438945 0.013176
O O4 0.000000 0.500000 0.000000
O O5 0.784258 0.250000 0.951124
O O6 0.821740 0.022505 0.843041
O O7 0.754713 0.976823 0.002196
O O8 0.563836 0.250000 0.989598
O O9 0.552016 0.422254 0.838559
O O10 0.500000 0.500000 0.000000
O O11 0.628409 0.501894 0.975704
O O12 0.993176 0.750000 0.201086
O O13 0.062094 0.985952 0.250247
O O14 0.632985 0.750000 0.248926
O O15 0.675073 0.521088 0.152288
O O16 0.177995 0.750000 0.466110
#
# Coordination Sequence:
#
# PCOD8253401 Si02
#       6
#     8   8   8   8   8   8
#     4  11  22  37  61  91 122 155 199 252 300 355
#     4  10  22  41  61  84 120 160 198 244 301 358
#     4  11  22  38  62  90 121 157 199 247 300 356
#     4  10  20  38  62  88 120 159 201 244 298 361
#     4   9  18  38  62  82 114 160 199 239 299 362
#     4  11  23  40  62  89 121 157 203 250 298 361
#
# _framework density 18.949138999999999
#
# number of rings (size 3 to 8) (size 9 to 14) (size 15 to 20)
#    0.000    1.667    3.333    1.500    0.000    4.000 
#    0.000    6.667    0.000    0.000    0.000    0.000 
#    0.000    0.000    0.000    0.000    0.000    0.000 
#
# Total GULP energy -595296.618183 kJ/mol
# GULP energy per Si atom -12402.012879 kJ/mol
# Density = 1.890601 g / cm^3
# Si number density = 18.949139 Si / 1000 Ang^3
#
#
#
# Elastic Constant Matrix: (Units=GPa)
#
#
# Indices 1 2 3 4 5 6 
#
# 1 88.6398 56.0467 55.6453 0.0000 0.0000 0.0000
# 2 56.0467 106.8683 55.3977 0.0000 0.0000 0.0000
# 3 55.6453 55.3977 133.7281 0.0000 0.0000 0.0000
# 4 0.0000 0.0000 0.0000 32.9021 0.0000 0.0000
# 5 0.0000 0.0000 0.0000 0.0000 32.7374 0.0000
# 6 0.0000 0.0000 0.0000 0.0000 0.0000 37.1854
#
#
#
# Elastic Compliance Matrix: (Units=1/GPa)
#
#
# Indices 1 2 3 4 5 6 
#
# 1 0.019043 -0.007487 -0.004822 0.000000 0.000000 0.000000
# 2 -0.007487 0.014860 -0.003040 0.000000 0.000000 0.000000
# 3 -0.004822 -0.003040 0.010744 0.000000 0.000000 0.000000
# 4 0.000000 0.000000 0.000000 0.030393 0.000000 0.000000
# 5 0.000000 0.000000 0.000000 0.000000 0.030546 0.000000
# 6 0.000000 0.000000 0.000000 0.000000 0.000000 0.026892
#
#
# Mechanical properties :
#
#
# Convention : Reuss Voigt Hill
#
# Bulk Modulus (GPa) = 71.69926 73.71286 72.70606
# Shear Modulus (GPa) = 29.79243 31.37473 30.58358
#
# Velocity S-wave (km/s) = 3.96944 4.07349 4.02180
# Velocity P-wave (km/s) = 7.67649 7.81724 7.74718
#
# Compressibility (1/GPa) = 0.01394715
#
# Stress axis : x y z
#
# Youngs Moduli (GPa) = 52.51229 67.29448 93.07572
#
# Poissons Ratio (x) = 0.50386 0.44884
# Poissons Ratio (y) = 0.39318 0.28298
# Poissons Ratio (z) = 0.25323 0.20460
#
# Static dielectric constant tensor:
#      x y z
#    x 3.025380 0.000000 0.000000 
#    y 0.000000 3.477980 0.000000 
#    z 0.000000 0.000000 3.825570 
# 
# 
# High freq. dielectric constant tensor:
#      x y z
#    x 1.734650 0.000000 0.000000 
#    y 0.000000 1.727250 0.000000 
#    z 0.000000 0.000000 1.751920 
# 
# From -- ./inp_files/19545.got.cif
#   From: 2010.03.12/outbox.cif.g09.slc.cpg/sg62_10_cif.got.tgz:19545.got - 2010.04.10 19:12:36.
