data_PCOD8253012
_publ_section_title
;
Structure prediction by ZEFSAII (Michael W. Deem and Ramdas Pophale) SiO2 
 PCOD8253012
Probable space group: P N M A
;
_chemical_formula_sum "Si O2"
_cell_formula_units_Z 56
_cell_length_a 21.643258
_cell_length_b 12.717776
_cell_length_c 10.364911
_cell_angle_alpha 90.000000
_cell_angle_beta 90.000000
_cell_angle_gamma 90.000000
_cell_volume 2852.984323
_symmetry_space_group_name_H-M "P N M A"
_symmetry_group_IT_number 62
_symmetry_cell_setting 'orthorhombic'
loop_
_space_group_symop_operation_xyz
x,y,z
1/2-x,-y,1/2+z
1/2+x,1/2-y,1/2-z
-x,1/2+y,-z
-x,-y,-z
1/2+x,y,1/2-z
1/2-x,1/2+y,1/2+z
x,1/2-y,z
loop_
_atom_site_type_symbol
_atom_site_label
_atom_site_fract_x
_atom_site_fract_y
_atom_site_fract_z
Si Si1 0.953755 0.873620 0.057152
Si Si2 0.969324 0.970446 0.789243
Si Si3 0.652522 0.990801 0.670436
Si Si4 0.860450 0.015054 0.608196
Si Si5 0.074161 0.625154 0.627763
Si Si6 0.752110 0.363752 0.743133
Si Si7 0.758112 0.865796 0.531694
O O1 0.942148 0.750000 0.085932
O O2 0.894458 0.948903 0.076035
O O3 0.972722 0.887082 0.907399
O O4 0.006184 0.916685 0.156274
O O5 0.009313 0.926320 0.669557
O O6 0.900607 0.982317 0.732966
O O7 0.621836 0.902641 0.759152
O O8 0.707964 0.936218 0.598862
O O9 0.686058 0.079402 0.753311
O O10 0.903964 0.075872 0.507252
O O11 0.805560 0.088118 0.656696
O O12 0.827174 0.914907 0.542168
O O13 0.068035 0.750000 0.612317
O O14 0.740223 0.250000 0.681457
O O15 0.771282 0.356399 0.890810
O O16 0.762751 0.750000 0.594646
#
# Coordination Sequence:
#
# PCOD8253012 Si02
#       7
#     8   8   8   8   8   8   8
#     4  10  21  39  63  87 114 156 199 246 302 350
#     4  10  23  40  59  86 122 151 198 253 289 355
#     4  10  20  37  58  86 117 149 193 247 285 355
#     4  11  22  39  58  86 120 155 197 245 288 350
#     4  11  22  38  59  84 118 158 195 239 295 349
#     4  10  20  36  58  83 114 151 191 240 292 345
#     4  10  21  37  59  85 116 155 194 240 301 350
#
# _framework density 19.62857
#
# number of rings (size 3 to 8) (size 9 to 14) (size 15 to 20)
#    0.000    1.714    1.429    3.000    0.000    2.286 
#    0.000    3.571    0.000    0.000    0.000    0.000 
#    0.000    0.000    0.000    0.000    0.000    0.000 
#
# Total GULP energy -694039.963382 kJ/mol
# GULP energy per Si atom -12393.570775 kJ/mol
# Density = 1.958389 g / cm^3
# Si number density = 19.628570 Si / 1000 Ang^3
#
#
#
# Elastic Constant Matrix: (Units=GPa)
#
#
# Indices 1 2 3 4 5 6 
#
# 1 76.7155 31.9379 25.7330 0.0000 0.0000 0.0000
# 2 31.9379 127.0412 31.7083 0.0000 0.0000 0.0000
# 3 25.7330 31.7083 74.2108 0.0000 0.0000 0.0000
# 4 0.0000 0.0000 0.0000 20.8620 0.0000 0.0000
# 5 0.0000 0.0000 0.0000 0.0000 29.8892 0.0000
# 6 0.0000 0.0000 0.0000 0.0000 0.0000 14.7709
#
#
#
# Elastic Compliance Matrix: (Units=1/GPa)
#
#
# Indices 1 2 3 4 5 6 
#
# 1 0.015643 -0.002887 -0.004191 0.000000 0.000000 0.000000
# 2 -0.002887 0.009344 -0.002991 0.000000 0.000000 0.000000
# 3 -0.004191 -0.002991 0.016206 0.000000 0.000000 0.000000
# 4 0.000000 0.000000 0.000000 0.047934 0.000000 0.000000
# 5 0.000000 0.000000 0.000000 0.000000 0.033457 0.000000
# 6 0.000000 0.000000 0.000000 0.000000 0.000000 0.067700
#
#
# Mechanical properties :
#
#
# Convention : Reuss Voigt Hill
#
# Bulk Modulus (GPa) = 47.49395 50.74732 49.12064
# Shear Modulus (GPa) = 22.99482 25.67698 24.33590
#
# Velocity S-wave (km/s) = 3.42643 3.62075 3.52493
# Velocity P-wave (km/s) = 6.31686 6.58709 6.45339
#
# Compressibility (1/GPa) = 0.02105531
#
# Stress axis : x y z
#
# Youngs Moduli (GPa) = 63.92785 107.02325 61.70371
#
# Poissons Ratio (x) = 0.30893 0.25859
# Poissons Ratio (y) = 0.18453 0.18458
# Poissons Ratio (z) = 0.26791 0.32015
#
# Static dielectric constant tensor:
#      x y z
#    x 3.645700 0.000000 0.000000 
#    y 0.000000 3.689180 0.000000 
#    z 0.000000 0.000000 3.506420 
# 
# 
# High freq. dielectric constant tensor:
#      x y z
#    x 1.769760 0.000000 0.000000 
#    y 0.000000 1.769200 0.000000 
#    z 0.000000 0.000000 1.764690 
# 
# From -- ./inp_files/8718.got.cif
#   From: 2010.03.12/outbox.cif.g09.slc.cpg/sg62_5_cif.got.tgz:8718.got - 2010.04.10 19:12:36.
