data_PCOD8253590
_publ_section_title
;
Structure prediction by ZEFSAII (Michael W. Deem and Ramdas Pophale) SiO2 
 PCOD8253590
Probable space group: P N M A
;
_chemical_formula_sum "Si O2"
_cell_formula_units_Z 64
_cell_length_a 11.800699
_cell_length_b 8.485152
_cell_length_c 30.541136
_cell_angle_alpha 90.000000
_cell_angle_beta 90.000000
_cell_angle_gamma 90.000000
_cell_volume 3058.106081
_symmetry_space_group_name_H-M "P N M A"
_symmetry_group_IT_number 62
_symmetry_cell_setting 'orthorhombic'
loop_
_space_group_symop_operation_xyz
x,y,z
1/2-x,-y,1/2+z
1/2+x,1/2-y,1/2-z
-x,1/2+y,-z
-x,-y,-z
1/2+x,y,1/2-z
1/2-x,1/2+y,1/2+z
x,1/2-y,z
loop_
_atom_site_type_symbol
_atom_site_label
_atom_site_fract_x
_atom_site_fract_y
_atom_site_fract_z
Si Si1 0.238699 0.930255 0.801136
Si Si2 0.493960 0.569127 0.670680
Si Si3 0.250450 0.936241 0.958390
Si Si4 0.510404 0.565613 0.571302
Si Si5 0.263825 0.937673 0.549567
Si Si6 0.127479 0.566331 0.634933
Si Si7 0.276338 0.430393 0.709276
Si Si8 0.383377 0.432348 0.877102
O O1 0.265718 0.750000 0.813640
O O2 0.103964 0.959909 0.799689
O O3 0.283194 0.966036 0.752916
O O4 0.297149 0.038919 0.837351
O O5 0.450889 0.750000 0.673267
O O6 0.528564 0.523313 0.621758
O O7 0.395066 0.453222 0.685016
O O8 0.258173 0.750000 0.950559
O O9 0.120769 0.000207 0.953879
O O10 0.329242 0.020424 0.923203
O O11 0.292694 0.983887 0.006751
O O12 0.502865 0.750000 0.564246
O O13 0.392089 0.493972 0.553914
O O14 0.259888 0.750000 0.545229
O O15 0.193058 0.994301 0.591738
O O16 0.150293 0.750000 0.641621
O O17 0.173431 0.478855 0.677848
O O18 0.995071 0.534936 0.630372
O O19 0.259953 0.250000 0.722743
O O20 0.416835 0.250000 0.878315
#
# Coordination Sequence:
#
# PCOD8253590 Si02
#       8
#     8   8   8   8   8   8   8   8
#     4  11  24  44  70  95 126 171 219 258 313 384
#     4  10  20  41  69  94 124 167 216 260 309 377
#     4  11  22  39  64  94 128 167 210 255 315 388
#     4   9  17  36  63  93 126 160 205 258 308 368
#     4  10  21  39  64  93 125 163 209 263 317 371
#     4  11  24  45  69  90 123 172 219 261 316 383
#     4  12  26  42  64  98 136 166 209 266 320 372
#     4  12  26  44  65  93 129 164 210 271 326 376
#
# _framework density 20.927983999999999
#
# number of rings (size 3 to 8) (size 9 to 14) (size 15 to 20)
#    0.000    1.250    2.500    3.750    1.750    2.500 
#    0.000    0.625    0.000    0.000    0.000    0.000 
#    0.000    0.000    0.000    0.000    0.000    0.000 
#
# Total GULP energy -793887.757890 kJ/mol
# GULP energy per Si atom -12404.496217 kJ/mol
# Density = 2.088035 g / cm^3
# Si number density = 20.927984 Si / 1000 Ang^3
#
#
#
# Elastic Constant Matrix: (Units=GPa)
#
#
# Indices 1 2 3 4 5 6 
#
# 1 80.5567 19.6572 13.0974 0.0000 0.0000 0.0000
# 2 19.6572 51.0549 19.6122 0.0000 0.0000 0.0000
# 3 13.0974 19.6122 95.1316 0.0000 0.0000 0.0000
# 4 0.0000 0.0000 0.0000 32.9744 0.0000 0.0000
# 5 0.0000 0.0000 0.0000 0.0000 17.5570 0.0000
# 6 0.0000 0.0000 0.0000 0.0000 0.0000 21.9386
#
#
#
# Elastic Compliance Matrix: (Units=1/GPa)
#
#
# Indices 1 2 3 4 5 6 
#
# 1 0.013767 -0.004966 -0.000872 0.000000 0.000000 0.000000
# 2 -0.004966 0.023062 -0.004071 0.000000 0.000000 0.000000
# 3 -0.000872 -0.004071 0.011471 0.000000 0.000000 0.000000
# 4 0.000000 0.000000 0.000000 0.030327 0.000000 0.000000
# 5 0.000000 0.000000 0.000000 0.000000 0.056957 0.000000
# 6 0.000000 0.000000 0.000000 0.000000 0.000000 0.045582
#
#
# Mechanical properties :
#
#
# Convention : Reuss Voigt Hill
#
# Bulk Modulus (GPa) = 35.10749 36.83075 35.96912
# Shear Modulus (GPa) = 23.75551 26.11909 24.93730
#
# Velocity S-wave (km/s) = 3.37279 3.53660 3.45567
# Velocity P-wave (km/s) = 5.65503 5.85779 5.75731
#
# Compressibility (1/GPa) = 0.02848395
#
# Stress axis : x y z
#
# Youngs Moduli (GPa) = 72.63706 43.36051 87.17636
#
# Poissons Ratio (x) = 0.21532 0.07599
# Poissons Ratio (y) = 0.36070 0.35488
# Poissons Ratio (z) = 0.06331 0.17651
#
# Static dielectric constant tensor:
#      x y z
#    x 3.850850 0.000000 0.000000 
#    y 0.000000 3.538770 0.000000 
#    z 0.000000 0.000000 3.843680 
# 
# 
# High freq. dielectric constant tensor:
#      x y z
#    x 1.823220 0.000000 0.000000 
#    y 0.000000 1.804790 0.000000 
#    z 0.000000 0.000000 1.831580 
# 
# From -- ./inp_files/32596.got.cif
#   From: 2010.03.12/outbox.cif.g09.slc.cpg/sg62_17_cif.got.tgz:32596.got - 2010.04.10 19:12:36.
