data_PCOD8253866
_publ_section_title
;
Structure prediction by ZEFSAII (Michael W. Deem and Ramdas Pophale) SiO2 
 PCOD8253866
Probable space group: P N M A
;
_chemical_formula_sum "Si O2"
_cell_formula_units_Z 64
_cell_length_a 12.153661
_cell_length_b 15.790655
_cell_length_c 16.013149
_cell_angle_alpha 90.000000
_cell_angle_beta 90.000000
_cell_angle_gamma 90.000000
_cell_volume 3073.151766
_symmetry_space_group_name_H-M "P N M A"
_symmetry_group_IT_number 62
_symmetry_cell_setting 'orthorhombic'
loop_
_space_group_symop_operation_xyz
x,y,z
1/2-x,-y,1/2+z
1/2+x,1/2-y,1/2-z
-x,1/2+y,-z
-x,-y,-z
1/2+x,y,1/2-z
1/2-x,1/2+y,1/2+z
x,1/2-y,z
loop_
_atom_site_type_symbol
_atom_site_label
_atom_site_fract_x
_atom_site_fract_y
_atom_site_fract_z
Si Si1 0.406128 0.551845 0.222790
Si Si2 0.591455 0.154255 0.458706
Si Si3 0.807662 0.652763 0.687507
Si Si4 0.895168 0.434039 0.131128
Si Si5 0.991945 0.347850 0.418256
Si Si6 0.560289 0.651690 0.101866
Si Si7 0.274552 0.082233 0.146184
Si Si8 0.312326 0.609458 0.381687
O O1 0.445393 0.470841 0.280663
O O2 0.505927 0.594621 0.173837
O O3 0.315025 0.515399 0.156963
O O4 0.349758 0.620753 0.284680
O O5 0.588173 0.250000 0.421344
O O6 0.486708 0.100173 0.431313
O O7 0.699836 0.100579 0.433800
O O8 0.602193 0.160652 0.559130
O O9 0.835256 0.750000 0.704265
O O10 0.688511 0.643535 0.644781
O O11 0.803160 0.605741 0.775892
O O12 0.903412 0.611004 0.629709
O O13 0.823700 0.510493 0.091030
O O14 0.015639 0.250000 0.429385
O O15 0.978282 0.385265 0.511895
O O16 0.883599 0.360622 0.362474
O O17 0.526454 0.750000 0.113120
O O18 0.690705 0.644653 0.108476
#
# Coordination Sequence:
#
# PCOD8253866 Si02
#       8
#     8   8   8   8   8   8   8   8
#     4   9  25  40  65  91 129 173 217 270 336 381
#     4  12  23  40  68  97 132 175 219 272 328 393
#     4  10  21  37  59  90 133 172 210 264 327 396
#     4   9  23  40  62  91 132 166 219 265 330 390
#     4  10  22  39  62  96 132 167 217 272 328 394
#     4  11  23  44  68  95 129 170 228 281 333 396
#     4  11  23  38  61  95 132 167 218 264 328 397
#     4  10  23  43  65  93 131 170 221 274 329 398
#
# _framework density 20.825524999999999
#
# number of rings (size 3 to 8) (size 9 to 14) (size 15 to 20)
#    0.750    1.000    1.250    2.250    7.000    2.500 
#    0.000    1.250    0.000    1.500    0.000    0.000 
#    0.000    0.000    0.000    0.000    0.000    0.000 
#
# Total GULP energy -792984.925006 kJ/mol
# GULP energy per Si atom -12390.389453 kJ/mol
# Density = 2.077813 g / cm^3
# Si number density = 20.825525 Si / 1000 Ang^3
#
#
#
# Elastic Constant Matrix: (Units=GPa)
#
#
# Indices 1 2 3 4 5 6 
#
# 1 90.4672 18.1848 47.5489 0.0000 0.0000 0.0000
# 2 18.1848 52.0259 24.6711 0.0000 0.0000 0.0000
# 3 47.5489 24.6711 99.6701 0.0000 0.0000 0.0000
# 4 0.0000 0.0000 0.0000 21.2882 0.0000 0.0000
# 5 0.0000 0.0000 0.0000 0.0000 40.8000 0.0000
# 6 0.0000 0.0000 0.0000 0.0000 0.0000 33.1587
#
#
#
# Elastic Compliance Matrix: (Units=1/GPa)
#
#
# Indices 1 2 3 4 5 6 
#
# 1 0.014951 -0.002089 -0.006615 0.000000 0.000000 0.000000
# 2 -0.002089 0.022069 -0.004466 0.000000 0.000000 0.000000
# 3 -0.006615 -0.004466 0.014295 0.000000 0.000000 0.000000
# 4 0.000000 0.000000 0.000000 0.046974 0.000000 0.000000
# 5 0.000000 0.000000 0.000000 0.000000 0.024510 0.000000
# 6 0.000000 0.000000 0.000000 0.000000 0.000000 0.030158
#
#
# Mechanical properties :
#
#
# Convention : Reuss Voigt Hill
#
# Bulk Modulus (GPa) = 40.04213 46.99696 43.51954
# Shear Modulus (GPa) = 26.64937 29.16661 27.90799
#
# Velocity S-wave (km/s) = 3.58110 3.74641 3.66469
# Velocity P-wave (km/s) = 6.03061 6.42885 6.23291
#
# Compressibility (1/GPa) = 0.02497370
#
# Stress axis : x y z
#
# Youngs Moduli (GPa) = 66.88713 45.31196 69.95657
#
# Poissons Ratio (x) = 0.09464 0.46279
# Poissons Ratio (y) = 0.13970 0.31245
# Poissons Ratio (z) = 0.44248 0.20238
#
# Static dielectric constant tensor:
#      x y z
#    x 3.653640 0.000000 0.000000 
#    y 0.000000 3.573190 0.000000 
#    z 0.000000 0.000000 3.905920 
# 
# 
# High freq. dielectric constant tensor:
#      x y z
#    x 1.808280 0.000000 0.000000 
#    y 0.000000 1.798810 0.000000 
#    z 0.000000 0.000000 1.817250 
# 
# From -- ./inp_files/23224.got.cif
#   From: 2010.03.12/outbox.cif.g09.slc.cpg/sg62_12_cif.got.tgz:23224.got - 2010.04.10 19:12:36.
