data_PCOD8253234
_publ_section_title
;
Structure prediction by ZEFSAII (Michael W. Deem and Ramdas Pophale) SiO2 
 PCOD8253234
Probable space group: P N M A
;
_chemical_formula_sum "Si O2"
_cell_formula_units_Z 48
_cell_length_a 16.178155
_cell_length_b 16.668915
_cell_length_c 8.615690
_cell_angle_alpha 90.000000
_cell_angle_beta 90.000000
_cell_angle_gamma 90.000000
_cell_volume 2323.412857
_symmetry_space_group_name_H-M "P N M A"
_symmetry_group_IT_number 62
_symmetry_cell_setting 'orthorhombic'
loop_
_space_group_symop_operation_xyz
x,y,z
1/2-x,-y,1/2+z
1/2+x,1/2-y,1/2-z
-x,1/2+y,-z
-x,-y,-z
1/2+x,y,1/2-z
1/2-x,1/2+y,1/2+z
x,1/2-y,z
loop_
_atom_site_type_symbol
_atom_site_label
_atom_site_fract_x
_atom_site_fract_y
_atom_site_fract_z
Si Si1 0.249620 0.942545 0.014107
Si Si2 0.992852 0.921505 0.391731
Si Si3 0.612456 0.340659 0.132954
Si Si4 0.966965 0.341187 0.158591
Si Si5 0.136867 0.515262 0.756835
Si Si6 0.887840 0.343195 0.834249
O O1 0.183667 0.994808 0.919391
O O2 0.308594 0.897685 0.889418
O O3 0.202183 0.878090 0.122204
O O4 0.300926 0.005813 0.113346
O O5 0.078239 0.891220 0.316122
O O6 0.951501 0.850158 0.489651
O O7 0.000000 0.000000 0.500000
O O8 0.932115 0.945793 0.250037
O O9 0.645141 0.250000 0.136391
O O10 0.561883 0.361555 0.291805
O O11 0.946066 0.250000 0.206071
O O12 0.904386 0.396789 0.256582
O O13 0.953218 0.354517 0.975253
O O14 0.877023 0.250000 0.792253
#
# Coordination Sequence:
#
# PCOD8253234 Si02
#       6
#     8   8   8   8   8   8
#     4  10  23  35  60  85 123 155 192 242 300 353
#     4  11  22  37  60  85 114 151 203 242 288 351
#     4  10  20  37  60  85 117 155 195 242 291 349
#     4   9  19  37  60  85 115 157 205 245 291 349
#     4  10  22  37  55  87 118 153 196 243 290 351
#     4  10  22  40  61  86 116 154 198 245 298 355
#
# _framework density 20.659265000000001
#
# number of rings (size 3 to 8) (size 9 to 14) (size 15 to 20)
#    0.000    2.000    1.667    1.000    4.667    4.667 
#    0.000    0.000    0.000    2.000    0.000    0.000 
#    0.000    0.000    0.000    0.000    0.000    0.000 
#
# Total GULP energy -595027.022932 kJ/mol
# GULP energy per Si atom -12396.396311 kJ/mol
# Density = 2.061224 g / cm^3
# Si number density = 20.659265 Si / 1000 Ang^3
#
#
#
# Elastic Constant Matrix: (Units=GPa)
#
#
# Indices 1 2 3 4 5 6 
#
# 1 77.7788 19.1163 22.2089 0.0000 0.0000 0.0000
# 2 19.1163 67.9575 35.1441 0.0000 0.0000 0.0000
# 3 22.2089 35.1441 49.8652 0.0000 0.0000 0.0000
# 4 0.0000 0.0000 0.0000 34.1526 0.0000 0.0000
# 5 0.0000 0.0000 0.0000 0.0000 47.7043 0.0000
# 6 0.0000 0.0000 0.0000 0.0000 0.0000 19.5800
#
#
#
# Elastic Compliance Matrix: (Units=1/GPa)
#
#
# Indices 1 2 3 4 5 6 
#
# 1 0.014791 -0.001186 -0.005751 0.000000 0.000000 0.000000
# 2 -0.001186 0.023249 -0.015857 0.000000 0.000000 0.000000
# 3 -0.005751 -0.015857 0.033792 0.000000 0.000000 0.000000
# 4 0.000000 0.000000 0.000000 0.029280 0.000000 0.000000
# 5 0.000000 0.000000 0.000000 0.000000 0.020962 0.000000
# 6 0.000000 0.000000 0.000000 0.000000 0.000000 0.051073
#
#
# Mechanical properties :
#
#
# Convention : Reuss Voigt Hill
#
# Bulk Modulus (GPa) = 38.10746 38.72669 38.41708
# Shear Modulus (GPa) = 21.97949 28.22950 25.10450
#
# Velocity S-wave (km/s) = 3.26529 3.70054 3.48971
# Velocity P-wave (km/s) = 5.71856 6.08644 5.90537
#
# Compressibility (1/GPa) = 0.02624158
#
# Stress axis : x y z
#
# Youngs Moduli (GPa) = 67.60954 43.01186 29.59314
#
# Poissons Ratio (x) = 0.05102 0.17020
# Poissons Ratio (y) = 0.08020 0.46927
# Poissons Ratio (z) = 0.38885 0.68206
#
# Static dielectric constant tensor:
#      x y z
#    x 3.880410 0.000000 0.000000 
#    y 0.000000 3.704260 0.000000 
#    z 0.000000 0.000000 3.669810 
# 
# 
# High freq. dielectric constant tensor:
#      x y z
#    x 1.808170 0.000000 0.000000 
#    y 0.000000 1.803730 0.000000 
#    z 0.000000 0.000000 1.796810 
# 
# From -- ./inp_files/6425.got.cif
#   From: 2010.03.12/outbox.cif.g09.slc.cpg/sg62_4_cif.got.tgz:6425.got - 2010.04.10 19:12:36.
