data_PCOD8253057
_publ_section_title
;
Structure prediction by ZEFSAII (Michael W. Deem and Ramdas Pophale) SiO2 
 PCOD8253057
Probable space group: P N M A
;
_chemical_formula_sum "Si O2"
_cell_formula_units_Z 56
_cell_length_a 21.687077
_cell_length_b 9.136291
_cell_length_c 14.585925
_cell_angle_alpha 90.000000
_cell_angle_beta 90.000000
_cell_angle_gamma 90.000000
_cell_volume 2890.047105
_symmetry_space_group_name_H-M "P N M A"
_symmetry_group_IT_number 62
_symmetry_cell_setting 'orthorhombic'
loop_
_space_group_symop_operation_xyz
x,y,z
1/2-x,-y,1/2+z
1/2+x,1/2-y,1/2-z
-x,1/2+y,-z
-x,-y,-z
1/2+x,y,1/2-z
1/2-x,1/2+y,1/2+z
x,1/2-y,z
loop_
_atom_site_type_symbol
_atom_site_label
_atom_site_fract_x
_atom_site_fract_y
_atom_site_fract_z
Si Si1 0.744357 0.922957 0.386436
Si Si2 0.955931 0.423563 0.572338
Si Si3 0.401969 0.418997 0.376413
Si Si4 0.007151 0.577266 0.223413
Si Si5 0.728802 0.916287 0.706757
Si Si6 0.392022 0.075879 0.580690
Si Si7 0.327564 0.920610 0.944042
O O1 0.740923 0.750000 0.382298
O O2 0.675632 0.989231 0.397689
O O3 0.786516 0.973183 0.470658
O O4 0.775022 0.979184 0.293643
O O5 0.958344 0.250000 0.558725
O O6 0.977820 0.470314 0.673433
O O7 0.887117 0.478553 0.556913
O O8 0.000000 0.500000 0.500000
O O9 0.420190 0.250000 0.365534
O O10 0.441868 0.510160 0.304516
O O11 0.330088 0.444891 0.357003
O O12 0.414361 0.474985 0.479979
O O13 0.002339 0.750000 0.214007
O O14 0.060373 0.515133 0.156212
O O15 0.729437 0.750000 0.741934
O O16 0.789817 0.950417 0.648560
O O17 0.388195 0.250000 0.583133
O O18 0.345925 0.750000 0.953098
#
# Coordination Sequence:
#
# PCOD8253057 Si02
#       7
#     8   8   8   8   8   8   8
#     4  10  20  36  61  86 113 153 195 237 287 347
#     4  11  25  43  62  86 118 156 200 246 293 349
#     4  10  20  36  59  85 116 152 188 232 291 349
#     4  10  22  38  58  84 114 150 195 241 284 341
#     4  10  21  37  57  87 121 153 192 241 294 350
#     4   9  17  36  61  85 114 151 190 230 287 349
#     4  10  21  40  63  87 118 155 195 242 296 351
#
# _framework density 19.376846
#
# number of rings (size 3 to 8) (size 9 to 14) (size 15 to 20)
#    0.000    2.000    1.429    1.714    2.000    4.000 
#    0.000    1.429    0.000    0.000    0.000    0.000 
#    0.000    0.000    0.000    0.000    0.000    0.000 
#
# Total GULP energy -694583.593432 kJ/mol
# GULP energy per Si atom -12403.278454 kJ/mol
# Density = 1.933274 g / cm^3
# Si number density = 19.376846 Si / 1000 Ang^3
#
#
#
# Elastic Constant Matrix: (Units=GPa)
#
#
# Indices 1 2 3 4 5 6 
#
# 1 119.3973 38.8434 50.4793 0.0000 0.0000 0.0000
# 2 38.8434 30.2045 35.6748 0.0000 0.0000 0.0000
# 3 50.4793 35.6748 128.1167 0.0000 0.0000 0.0000
# 4 0.0000 0.0000 0.0000 27.8449 0.0000 0.0000
# 5 0.0000 0.0000 0.0000 0.0000 27.8966 0.0000
# 6 0.0000 0.0000 0.0000 0.0000 0.0000 33.3948
#
#
#
# Elastic Compliance Matrix: (Units=1/GPa)
#
#
# Indices 1 2 3 4 5 6 
#
# 1 0.014451 -0.017671 -0.000773 0.000000 0.000000 0.000000
# 2 -0.017671 0.070941 -0.012791 0.000000 0.000000 0.000000
# 3 -0.000773 -0.012791 0.011672 0.000000 0.000000 0.000000
# 4 0.000000 0.000000 0.000000 0.035913 0.000000 0.000000
# 5 0.000000 0.000000 0.000000 0.000000 0.035847 0.000000
# 6 0.000000 0.000000 0.000000 0.000000 0.000000 0.029945
#
#
# Mechanical properties :
#
#
# Convention : Reuss Voigt Hill
#
# Bulk Modulus (GPa) = 28.90792 58.63481 43.77137
# Shear Modulus (GPa) = 18.33038 28.00866 23.16952
#
# Velocity S-wave (km/s) = 3.07904 3.80606 3.46169
# Velocity P-wave (km/s) = 5.25279 7.04562 6.21420
#
# Compressibility (1/GPa) = 0.03459259
#
# Stress axis : x y z
#
# Youngs Moduli (GPa) = 69.19787 14.09622 85.67612
#
# Poissons Ratio (x) = 0.24910 0.06625
# Poissons Ratio (y) = 1.22281 1.09590
# Poissons Ratio (z) = 0.05351 0.18031
#
# Static dielectric constant tensor:
#      x y z
#    x 3.615840 0.000000 0.000000 
#    y 0.000000 3.268170 0.000000 
#    z 0.000000 0.000000 3.711740 
# 
# 
# High freq. dielectric constant tensor:
#      x y z
#    x 1.765430 0.000000 0.000000 
#    y 0.000000 1.729470 0.000000 
#    z 0.000000 0.000000 1.768490 
# 
# From -- ./inp_files/20310.got.cif
#   From: 2010.03.12/outbox.cif.g09.slc.cpg/sg62_11_cif.got.tgz:20310.got - 2010.04.10 19:12:36.
