data_PCOD8253904
_publ_section_title
;
Structure prediction by ZEFSAII (Michael W. Deem and Ramdas Pophale) SiO2 
 PCOD8253904
Probable space group: P N M A
;
_chemical_formula_sum "Si O2"
_cell_formula_units_Z 40
_cell_length_a 17.671943
_cell_length_b 9.918611
_cell_length_c 10.819714
_cell_angle_alpha 90.000000
_cell_angle_beta 90.000000
_cell_angle_gamma 90.000000
_cell_volume 1896.491677
_symmetry_space_group_name_H-M "P N M A"
_symmetry_group_IT_number 62
_symmetry_cell_setting 'orthorhombic'
loop_
_space_group_symop_operation_xyz
x,y,z
1/2-x,-y,1/2+z
1/2+x,1/2-y,1/2-z
-x,1/2+y,-z
-x,-y,-z
1/2+x,y,1/2-z
1/2-x,1/2+y,1/2+z
x,1/2-y,z
loop_
_atom_site_type_symbol
_atom_site_label
_atom_site_fract_x
_atom_site_fract_y
_atom_site_fract_z
Si Si1 0.157319 0.098551 0.628635
Si Si2 0.094955 0.605057 0.017565
Si Si3 0.407121 0.901920 0.871914
Si Si4 0.703322 0.093531 0.351897
Si Si5 0.026881 0.470037 0.795885
O O1 0.191011 0.250000 0.608190
O O2 0.119215 0.040638 0.503773
O O3 0.219805 0.988944 0.665176
O O4 0.096685 0.112018 0.739001
O O5 0.137770 0.750000 0.021072
O O6 0.151082 0.480777 0.045912
O O7 0.026898 0.618359 0.116507
O O8 0.059667 0.590135 0.881085
O O9 0.434015 0.750000 0.889528
O O10 0.336531 0.913108 0.779880
O O11 0.479409 0.979777 0.821394
O O12 0.716893 0.250000 0.392114
#
# Coordination Sequence:
#
# PCOD8253904 Si02
#       5
#     8   8   8   8   8
#     4  11  23  39  62  91 124 160 202 252 307 362
#     4  10  21  39  64  91 123 163 205 251 305 359
#     4   9  20  40  61  86 121 159 200 250 305 365
#     4  10  23  41  60  87 123 162 206 251 303 364
#     4  10  21  37  63  94 122 157 203 255 301 361
#
# _framework density 21.091578999999999
#
# number of rings (size 3 to 8) (size 9 to 14) (size 15 to 20)
#    0.000    2.000    0.000    2.400    2.800    7.200 
#    0.000    5.000    0.000    0.000    0.000    0.000 
#    0.000    0.000    0.000    0.000    0.000    0.000 
#
# Total GULP energy -495809.310681 kJ/mol
# GULP energy per Si atom -12395.232767 kJ/mol
# Density = 2.104357 g / cm^3
# Si number density = 21.091579 Si / 1000 Ang^3
#
#
#
# Elastic Constant Matrix: (Units=GPa)
#
#
# Indices 1 2 3 4 5 6 
#
# 1 100.7265 51.1347 24.3875 0.0000 0.0000 0.0000
# 2 51.1347 136.9684 23.8627 0.0000 0.0000 0.0000
# 3 24.3875 23.8627 65.4155 0.0000 0.0000 0.0000
# 4 0.0000 0.0000 0.0000 4.5293 0.0000 0.0000
# 5 0.0000 0.0000 0.0000 0.0000 22.8427 0.0000
# 6 0.0000 0.0000 0.0000 0.0000 0.0000 9.6791
#
#
#
# Elastic Compliance Matrix: (Units=1/GPa)
#
#
# Indices 1 2 3 4 5 6 
#
# 1 0.012866 -0.004237 -0.003251 0.000000 0.000000 0.000000
# 2 -0.004237 0.009192 -0.001773 0.000000 0.000000 0.000000
# 3 -0.003251 -0.001773 0.017146 0.000000 0.000000 0.000000
# 4 0.000000 0.000000 0.000000 0.220786 0.000000 0.000000
# 5 0.000000 0.000000 0.000000 0.000000 0.043778 0.000000
# 6 0.000000 0.000000 0.000000 0.000000 0.000000 0.103316
#
#
# Mechanical properties :
#
#
# Convention : Reuss Voigt Hill
#
# Bulk Modulus (GPa) = 48.35402 55.76447 52.05925
# Shear Modulus (GPa) = 11.56073 20.99191 16.27632
#
# Velocity S-wave (km/s) = 2.34374 3.15822 2.78096
# Velocity P-wave (km/s) = 5.50451 6.30839 5.92011
#
# Compressibility (1/GPa) = 0.02068080
#
# Stress axis : x y z
#
# Youngs Moduli (GPa) = 77.72507 108.79406 58.32320
#
# Poissons Ratio (x) = 0.46094 0.18961
# Poissons Ratio (y) = 0.32931 0.10343
# Poissons Ratio (z) = 0.25268 0.19294
#
# Static dielectric constant tensor:
#      x y z
#    x 3.701010 0.000000 0.000000 
#    y 0.000000 3.669940 0.000000 
#    z 0.000000 0.000000 3.846920 
# 
# 
# High freq. dielectric constant tensor:
#      x y z
#    x 1.820860 0.000000 0.000000 
#    y 0.000000 1.819400 0.000000 
#    z 0.000000 0.000000 1.831320 
# 
# From -- ./inp_files/13876.got.cif
#   From: 2010.03.12/outbox.cif.g09.slc.cpg/sg62_7_cif.got.tgz:13876.got - 2010.04.10 19:12:36.
