data_PCOD8253855
_publ_section_title
;
Structure prediction by ZEFSAII (Michael W. Deem and Ramdas Pophale) SiO2 
 PCOD8253855
Probable space group: P N M A
;
_chemical_formula_sum "Si O2"
_cell_formula_units_Z 64
_cell_length_a 14.590109
_cell_length_b 9.045781
_cell_length_c 24.437691
_cell_angle_alpha 90.000000
_cell_angle_beta 90.000000
_cell_angle_gamma 90.000000
_cell_volume 3225.260329
_symmetry_space_group_name_H-M "P N M A"
_symmetry_group_IT_number 62
_symmetry_cell_setting 'orthorhombic'
loop_
_space_group_symop_operation_xyz
x,y,z
1/2-x,-y,1/2+z
1/2+x,1/2-y,1/2-z
-x,1/2+y,-z
-x,-y,-z
1/2+x,y,1/2-z
1/2-x,1/2+y,1/2+z
x,1/2-y,z
loop_
_atom_site_type_symbol
_atom_site_label
_atom_site_fract_x
_atom_site_fract_y
_atom_site_fract_z
Si Si1 0.042299 0.916890 0.128869
Si Si2 0.135634 0.923853 0.240726
Si Si3 0.594394 0.580975 0.487889
Si Si4 0.014872 0.075083 0.670554
Si Si5 0.171367 0.579712 0.733638
Si Si6 0.365740 0.418611 0.355518
Si Si7 0.047313 0.922684 0.449182
Si Si8 0.741890 0.076714 0.560618
O O1 0.004805 0.750000 0.137276
O O2 0.092605 0.971291 0.183085
O O3 0.111550 0.924115 0.077638
O O4 0.957085 0.022934 0.114924
O O5 0.155698 0.750000 0.244081
O O6 0.068244 0.974924 0.289692
O O7 0.229993 0.010239 0.243722
O O8 0.500000 0.500000 0.500000
O O9 0.588996 0.750000 0.508633
O O10 0.679916 0.500711 0.515148
O O11 0.027344 0.250000 0.674374
O O12 0.993044 0.021825 0.608946
O O13 0.111048 0.001783 0.687886
O O14 0.182424 0.750000 0.716521
O O15 0.119481 0.561205 0.791124
O O16 0.348458 0.250000 0.371845
O O17 0.280859 0.513669 0.378962
O O18 0.029738 0.750000 0.454666
O O19 0.153875 0.961796 0.452303
O O20 0.000000 0.000000 0.500000
O O21 0.722709 0.250000 0.560115
#
# Coordination Sequence:
#
# PCOD8253855 Si02
#       8
#     8   8   8   8   8   8   8   8
#     4  10  21  37  59  85 117 158 199 244 298 354
#     4  10  21  39  63  90 120 161 206 248 296 358
#     4  11  22  36  57  89 124 158 200 247 300 362
#     4  10  21  41  67  91 119 160 209 254 298 360
#     4  11  24  38  58  92 128 161 196 247 312 366
#     4  11  22  36  58  88 122 158 199 247 305 363
#     4  10  24  44  66  92 120 158 207 259 308 356
#     4  11  23  40  63  89 120 161 209 255 305 364
#
# _framework density 19.843360000000001
#
# number of rings (size 3 to 8) (size 9 to 14) (size 15 to 20)
#    0.000    1.500    2.500    2.250    0.000    6.500 
#    0.000    3.750    0.000    0.000    0.000    0.000 
#    0.000    0.000    0.000    0.000    0.000    0.000 
#
# Total GULP energy -793709.038405 kJ/mol
# GULP energy per Si atom -12401.703725 kJ/mol
# Density = 1.979820 g / cm^3
# Si number density = 19.843360 Si / 1000 Ang^3
#
#
#
# Elastic Constant Matrix: (Units=GPa)
#
#
# Indices 1 2 3 4 5 6 
#
# 1 97.5739 51.5664 46.8070 0.0000 0.0000 0.0000
# 2 51.5664 87.7604 39.5484 0.0000 0.0000 0.0000
# 3 46.8070 39.5484 134.3455 0.0000 0.0000 0.0000
# 4 0.0000 0.0000 0.0000 31.3450 0.0000 0.0000
# 5 0.0000 0.0000 0.0000 0.0000 33.9167 0.0000
# 6 0.0000 0.0000 0.0000 0.0000 0.0000 32.0180
#
#
#
# Elastic Compliance Matrix: (Units=1/GPa)
#
#
# Indices 1 2 3 4 5 6 
#
# 1 0.015998 -0.007942 -0.003236 0.000000 0.000000 0.000000
# 2 -0.007942 0.017080 -0.002261 0.000000 0.000000 0.000000
# 3 -0.003236 -0.002261 0.009236 0.000000 0.000000 0.000000
# 4 0.000000 0.000000 0.000000 0.031903 0.000000 0.000000
# 5 0.000000 0.000000 0.000000 0.000000 0.029484 0.000000
# 6 0.000000 0.000000 0.000000 0.000000 0.000000 0.031232
#
#
# Mechanical properties :
#
#
# Convention : Reuss Voigt Hill
#
# Bulk Modulus (GPa) = 64.77942 66.16928 65.47435
# Shear Modulus (GPa) = 29.94770 31.57314 30.76042
#
# Velocity S-wave (km/s) = 3.88906 3.99321 3.94148
# Velocity P-wave (km/s) = 7.27205 7.39454 7.33355
#
# Compressibility (1/GPa) = 0.01543700
#
# Stress axis : x y z
#
# Youngs Moduli (GPa) = 62.50707 58.54758 108.26613
#
# Poissons Ratio (x) = 0.46499 0.35034
# Poissons Ratio (y) = 0.49643 0.24479
# Poissons Ratio (z) = 0.20227 0.13237
#
# Static dielectric constant tensor:
#      x y z
#    x 3.538710 0.000000 0.000000 
#    y 0.000000 3.598700 0.000000 
#    z 0.000000 0.000000 3.925180 
# 
# 
# High freq. dielectric constant tensor:
#      x y z
#    x 1.767750 0.000000 0.000000 
#    y 0.000000 1.774400 0.000000 
#    z 0.000000 0.000000 1.788520 
# 
# From -- ./inp_files/29889.got.cif
#   From: 2010.03.12/outbox.cif.g09.slc.cpg/sg62_15_cif.got.tgz:29889.got - 2010.04.10 19:12:36.
