data_PCOD8253154
_publ_section_title
;
Structure prediction by ZEFSAII (Michael W. Deem and Ramdas Pophale) SiO2 
 PCOD8253154
Probable space group: P N M A
;
_chemical_formula_sum "Si O2"
_cell_formula_units_Z 64
_cell_length_a 15.029898
_cell_length_b 9.433044
_cell_length_c 23.546928
_cell_angle_alpha 90.000000
_cell_angle_beta 90.000000
_cell_angle_gamma 90.000000
_cell_volume 3338.429038
_symmetry_space_group_name_H-M "P N M A"
_symmetry_group_IT_number 62
_symmetry_cell_setting 'orthorhombic'
loop_
_space_group_symop_operation_xyz
x,y,z
1/2-x,-y,1/2+z
1/2+x,1/2-y,1/2-z
-x,1/2+y,-z
-x,-y,-z
1/2+x,y,1/2-z
1/2-x,1/2+y,1/2+z
x,1/2-y,z
loop_
_atom_site_type_symbol
_atom_site_label
_atom_site_fract_x
_atom_site_fract_y
_atom_site_fract_z
Si Si1 0.929693 0.417184 0.244711
Si Si2 0.271763 0.918453 0.749309
Si Si3 0.242612 0.912110 0.019227
Si Si4 0.810326 0.092707 0.859402
Si Si5 0.509530 0.094635 0.643791
Si Si6 0.574399 0.082219 0.166820
Si Si7 0.430680 0.915132 0.962267
Si Si8 0.581160 0.413870 0.525373
O O1 0.931343 0.250000 0.240004
O O2 0.828839 0.474619 0.242012
O O3 0.981618 0.475511 0.190896
O O4 0.983441 0.465800 0.301222
O O5 0.274841 0.750000 0.745818
O O6 0.338005 0.974683 0.799023
O O7 0.301350 0.976463 0.688822
O O8 0.210773 0.750000 0.008801
O O9 0.335348 0.941511 0.989379
O O10 0.174302 0.022164 0.993121
O O11 0.252924 0.940629 0.086819
O O12 0.789046 0.250000 0.834988
O O13 0.910977 0.085669 0.883057
O O14 0.524259 0.250000 0.671710
O O15 0.579411 0.071584 0.593439
O O16 0.581944 0.250000 0.165073
O O17 0.571227 0.024121 0.102410
O O18 0.457335 0.750000 0.962666
O O19 0.500000 0.000000 0.000000
O O20 0.500000 0.500000 0.500000
O O21 0.574561 0.250000 0.506054
#
# Coordination Sequence:
#
# PCOD8253154 Si02
#       8
#     8   8   8   8   8   8   8   8
#     4  10  21  36  59  85 111 149 192 235 287 349
#     4  10  21  36  58  88 113 146 193 237 289 349
#     4  10  22  40  60  85 117 159 202 242 294 354
#     4  10  20  37  57  81 117 152 189 239 291 347
#     4  10  21  37  55  81 118 151 184 233 287 344
#     4   9  19  38  57  83 119 146 187 247 291 333
#     4  10  23  42  64  85 116 159 201 253 300 343
#     4  11  22  37  57  85 121 157 191 237 290 350
#
# _framework density 19.170694000000001
#
# number of rings (size 3 to 8) (size 9 to 14) (size 15 to 20)
#    0.000    2.000    2.500    0.375    3.500    2.500 
#    0.000    1.250    0.000    0.000    0.000    0.000 
#    0.000    0.000    0.000    0.000    0.000    0.000 
#
# Total GULP energy -793467.463734 kJ/mol
# GULP energy per Si atom -12397.929121 kJ/mol
# Density = 1.912706 g / cm^3
# Si number density = 19.170694 Si / 1000 Ang^3
#
#
#
# Elastic Constant Matrix: (Units=GPa)
#
#
# Indices 1 2 3 4 5 6 
#
# 1 116.2078 46.4725 69.4955 0.0000 0.0000 0.0000
# 2 46.4725 55.6221 42.4767 0.0000 0.0000 0.0000
# 3 69.4955 42.4767 143.0069 0.0000 0.0000 0.0000
# 4 0.0000 0.0000 0.0000 29.7946 0.0000 0.0000
# 5 0.0000 0.0000 0.0000 0.0000 32.1799 0.0000
# 6 0.0000 0.0000 0.0000 0.0000 0.0000 22.8456
#
#
#
# Elastic Compliance Matrix: (Units=1/GPa)
#
#
# Indices 1 2 3 4 5 6 
#
# 1 0.014943 -0.008975 -0.004596 0.000000 0.000000 0.000000
# 2 -0.008975 0.028644 -0.004146 0.000000 0.000000 0.000000
# 3 -0.004596 -0.004146 0.010458 0.000000 0.000000 0.000000
# 4 0.000000 0.000000 0.000000 0.033563 0.000000 0.000000
# 5 0.000000 0.000000 0.000000 0.000000 0.031075 0.000000
# 6 0.000000 0.000000 0.000000 0.000000 0.000000 0.043772
#
#
# Mechanical properties :
#
#
# Convention : Reuss Voigt Hill
#
# Bulk Modulus (GPa) = 53.73577 70.19179 61.96378
# Shear Modulus (GPa) = 24.49866 27.39015 25.94440
#
# Velocity S-wave (km/s) = 3.57868 3.78398 3.68276
# Velocity P-wave (km/s) = 6.72064 7.46893 7.10464
#
# Compressibility (1/GPa) = 0.01860958
#
# Stress axis : x y z
#
# Youngs Moduli (GPa) = 66.92110 34.91162 95.62425
#
# Poissons Ratio (x) = 0.31334 0.43947
# Poissons Ratio (y) = 0.60063 0.39649
# Poissons Ratio (z) = 0.30756 0.14475
#
# Static dielectric constant tensor:
#      x y z
#    x 22.858430 0.000000 0.000000 
#    y 0.000000 3.377590 0.000000 
#    z 0.000000 0.000000 3.454760 
# 
# 
# High freq. dielectric constant tensor:
#      x y z
#    x 1.749240 0.000000 0.000000 
#    y 0.000000 1.729350 0.000000 
#    z 0.000000 0.000000 1.749710 
# 
# From -- ./inp_files/29919.got.cif
#   From: 2010.03.12/outbox.cif.g09.slc.cpg/sg62_15_cif.got.tgz:29919.got - 2010.04.10 19:12:36.
