data_PCOD8253910
_publ_section_title
;
Structure prediction by ZEFSAII (Michael W. Deem and Ramdas Pophale) SiO2 
 PCOD8253910
Probable space group: P N M A
;
_chemical_formula_sum "Si O2"
_cell_formula_units_Z 56
_cell_length_a 15.261823
_cell_length_b 21.080073
_cell_length_c 8.519517
_cell_angle_alpha 90.000000
_cell_angle_beta 90.000000
_cell_angle_gamma 90.000000
_cell_volume 2740.901931
_symmetry_space_group_name_H-M "P N M A"
_symmetry_group_IT_number 62
_symmetry_cell_setting 'orthorhombic'
loop_
_space_group_symop_operation_xyz
x,y,z
1/2-x,-y,1/2+z
1/2+x,1/2-y,1/2-z
-x,1/2+y,-z
-x,-y,-z
1/2+x,y,1/2-z
1/2-x,1/2+y,1/2+z
x,1/2-y,z
loop_
_atom_site_type_symbol
_atom_site_label
_atom_site_fract_x
_atom_site_fract_y
_atom_site_fract_z
Si Si1 0.981862 0.553219 0.633441
Si Si2 0.541801 0.179795 0.954963
Si Si3 0.247833 0.945002 0.902498
Si Si4 0.166557 0.955899 0.588221
Si Si5 0.911382 0.013904 0.909293
Si Si6 0.624805 0.869480 0.198269
Si Si7 0.735748 0.319931 0.919362
O O1 0.081778 0.554278 0.701068
O O2 0.000000 0.500000 0.500000
O O3 0.957187 0.623895 0.581760
O O4 0.909985 0.536413 0.764878
O O5 0.536229 0.250000 0.034524
O O6 0.459320 0.173536 0.839439
O O7 0.634576 0.173953 0.863240
O O8 0.247269 0.952934 0.713001
O O9 0.240476 0.871335 0.946641
O O10 0.171856 0.990660 0.975854
O O11 0.333384 0.976557 0.989349
O O12 0.166361 0.901173 0.457044
O O13 0.911212 0.082495 0.828583
O O14 0.000000 0.000000 0.000000
O O15 0.703549 0.828022 0.267425
O O16 0.752803 0.250000 0.991843
#
# Coordination Sequence:
#
# PCOD8253910 Si02
#       7
#     8   8   8   8   8   8   8
#     4  11  20  37  60  87 118 151 200 258 305 361
#     4  10  21  37  65  87 116 164 206 247 307 370
#     4  11  23  35  58  88 121 157 203 252 309 362
#     4  11  22  36  57  90 118 154 199 254 308 357
#     4  11  21  35  58  91 118 153 195 256 313 360
#     4  10  22  39  62  89 121 161 203 254 306 367
#     4  10  22  39  59  86 122 162 203 249 301 367
#
# _framework density 20.431231
#
# number of rings (size 3 to 8) (size 9 to 14) (size 15 to 20)
#    0.000    1.429    4.286    3.000    2.000    1.143 
#    0.000    3.571    0.000    0.000    0.000    0.000 
#    0.000    0.000    0.000    0.000    0.000    0.000 
#
# Total GULP energy -693746.164389 kJ/mol
# GULP energy per Si atom -12388.324364 kJ/mol
# Density = 2.038473 g / cm^3
# Si number density = 20.431231 Si / 1000 Ang^3
#
#
#
# Elastic Constant Matrix: (Units=GPa)
#
#
# Indices 1 2 3 4 5 6 
#
# 1 99.3284 43.9339 37.1094 0.0000 0.0000 0.0000
# 2 43.9339 141.9520 43.8162 0.0000 0.0000 0.0000
# 3 37.1094 43.8162 95.8439 0.0000 0.0000 0.0000
# 4 0.0000 0.0000 0.0000 19.3283 0.0000 0.0000
# 5 0.0000 0.0000 0.0000 0.0000 32.8737 0.0000
# 6 0.0000 0.0000 0.0000 0.0000 0.0000 29.1736
#
#
#
# Elastic Compliance Matrix: (Units=1/GPa)
#
#
# Indices 1 2 3 4 5 6 
#
# 1 0.012659 -0.002800 -0.003621 0.000000 0.000000 0.000000
# 2 -0.002800 0.008821 -0.002949 0.000000 0.000000 0.000000
# 3 -0.003621 -0.002949 0.013184 0.000000 0.000000 0.000000
# 4 0.000000 0.000000 0.000000 0.051738 0.000000 0.000000
# 5 0.000000 0.000000 0.000000 0.000000 0.030419 0.000000
# 6 0.000000 0.000000 0.000000 0.000000 0.000000 0.034278
#
#
# Mechanical properties :
#
#
# Convention : Reuss Voigt Hill
#
# Bulk Modulus (GPa) = 62.79802 65.20481 64.00142
# Shear Modulus (GPa) = 28.54742 30.42611 29.48676
#
# Velocity S-wave (km/s) = 3.74203 3.86320 3.80309
# Velocity P-wave (km/s) = 7.03373 7.20296 7.11885
#
# Compressibility (1/GPa) = 0.01592407
#
# Stress axis : x y z
#
# Youngs Moduli (GPa) = 78.99469 113.36019 75.85095
#
# Poissons Ratio (x) = 0.31743 0.27468
# Poissons Ratio (y) = 0.22120 0.22366
# Poissons Ratio (z) = 0.28606 0.33426
#
# Static dielectric constant tensor:
#      x y z
#    x 4.663160 0.000000 0.000000 
#    y 0.000000 3.645470 0.000000 
#    z 0.000000 0.000000 3.570490 
# 
# 
# High freq. dielectric constant tensor:
#      x y z
#    x 1.836040 0.000000 0.000000 
#    y 0.000000 1.784090 0.000000 
#    z 0.000000 0.000000 1.776140 
# 
# From -- ./inp_files/6785.got.cif
#   From: 2010.03.12/outbox.cif.g09.slc.cpg/sg62_4_cif.got.tgz:6785.got - 2010.04.10 19:12:36.
