data_PCOD8253093
_publ_section_title
;
Structure prediction by ZEFSAII (Michael W. Deem and Ramdas Pophale) SiO2 
 PCOD8253093
Probable space group: P N M A
;
_chemical_formula_sum "Si O2"
_cell_formula_units_Z 56
_cell_length_a 14.887554
_cell_length_b 8.695067
_cell_length_c 21.021774
_cell_angle_alpha 90.000000
_cell_angle_beta 90.000000
_cell_angle_gamma 90.000000
_cell_volume 2721.232476
_symmetry_space_group_name_H-M "P N M A"
_symmetry_group_IT_number 62
_symmetry_cell_setting 'orthorhombic'
loop_
_space_group_symop_operation_xyz
x,y,z
1/2-x,-y,1/2+z
1/2+x,1/2-y,1/2-z
-x,1/2+y,-z
-x,-y,-z
1/2+x,y,1/2-z
1/2-x,1/2+y,1/2+z
x,1/2-y,z
loop_
_atom_site_type_symbol
_atom_site_label
_atom_site_fract_x
_atom_site_fract_y
_atom_site_fract_z
Si Si1 0.046391 0.920448 0.368813
Si Si2 0.825775 0.432355 0.838417
Si Si3 0.074067 0.571816 0.545096
Si Si4 0.762413 0.070300 0.974577
Si Si5 0.753209 0.427234 0.604191
Si Si6 0.501228 0.576349 0.269558
Si Si7 0.309290 0.070007 0.265141
O O1 0.012148 0.750000 0.388658
O O2 0.140034 0.952396 0.405210
O O3 0.062065 0.927112 0.293793
O O4 0.970388 0.046975 0.385462
O O5 0.817047 0.250000 0.832048
O O6 0.815410 0.486359 0.911701
O O7 0.927219 0.486750 0.821176
O O8 0.748565 0.498500 0.792281
O O9 0.095968 0.750000 0.531829
O O10 0.160406 0.467992 0.539926
O O11 0.000000 0.500000 0.500000
O O12 0.775290 0.250000 0.986118
O O13 0.795054 0.985205 0.039257
O O14 0.728483 0.250000 0.615351
O O15 0.722943 0.521481 0.665208
O O16 0.469699 0.750000 0.285840
O O17 0.414075 0.472507 0.261005
O O18 0.298250 0.250000 0.258169
#
# Coordination Sequence:
#
# PCOD8253093 Si02
#       7
#     8   8   8   8   8   8   8
#     4  10  20  36  60  86 115 153 201 253 305 369
#     4  10  22  43  67  92 125 167 210 256 314 376
#     4  12  23  34  52  81 121 160 199 243 302 372
#     4  11  23  39  61  90 125 161 205 260 316 372
#     4  11  22  40  64  88 121 164 208 249 307 372
#     4  10  21  41  66  89 118 159 209 255 305 369
#     4  12  25  40  63  96 130 162 207 261 312 368
#
# _framework density 20.578911000000002
#
# number of rings (size 3 to 8) (size 9 to 14) (size 15 to 20)
#    0.000    1.143    2.857    4.286    0.000    6.286 
#    0.000    0.714    0.000    0.000    0.000    0.000 
#    0.000    0.000    0.000    0.000    0.000    0.000 
#
# Total GULP energy -694178.036902 kJ/mol
# GULP energy per Si atom -12396.036373 kJ/mol
# Density = 2.053207 g / cm^3
# Si number density = 20.578911 Si / 1000 Ang^3
#
#
#
# Elastic Constant Matrix: (Units=GPa)
#
#
# Indices 1 2 3 4 5 6 
#
# 1 55.2046 19.0718 11.3881 0.0000 0.0000 0.0000
# 2 19.0718 60.2342 25.6344 0.0000 0.0000 0.0000
# 3 11.3881 25.6344 98.1389 0.0000 0.0000 0.0000
# 4 0.0000 0.0000 0.0000 34.1152 0.0000 0.0000
# 5 0.0000 0.0000 0.0000 0.0000 30.2251 0.0000
# 6 0.0000 0.0000 0.0000 0.0000 0.0000 23.1993
#
#
#
# Elastic Compliance Matrix: (Units=1/GPa)
#
#
# Indices 1 2 3 4 5 6 
#
# 1 0.020390 -0.006131 -0.000765 0.000000 0.000000 0.000000
# 2 -0.006131 0.020521 -0.004649 0.000000 0.000000 0.000000
# 3 -0.000765 -0.004649 0.011493 0.000000 0.000000 0.000000
# 4 0.000000 0.000000 0.000000 0.029312 0.000000 0.000000
# 5 0.000000 0.000000 0.000000 0.000000 0.033085 0.000000
# 6 0.000000 0.000000 0.000000 0.000000 0.000000 0.043105
#
#
# Mechanical properties :
#
#
# Convention : Reuss Voigt Hill
#
# Bulk Modulus (GPa) = 34.11134 36.19627 35.15381
# Shear Modulus (GPa) = 26.20996 28.00680 27.10838
#
# Velocity S-wave (km/s) = 3.57267 3.69310 3.63339
# Velocity P-wave (km/s) = 5.79918 5.98436 5.89250
#
# Compressibility (1/GPa) = 0.02931576
#
# Stress axis : x y z
#
# Youngs Moduli (GPa) = 49.04320 48.72940 87.01173
#
# Poissons Ratio (x) = 0.29874 0.06654
# Poissons Ratio (y) = 0.30067 0.40451
# Poissons Ratio (z) = 0.03750 0.22654
#
# Static dielectric constant tensor:
#      x y z
#    x 3.687750 0.000000 0.000000 
#    y 0.000000 4.009640 0.000000 
#    z 0.000000 0.000000 4.108130 
# 
# 
# High freq. dielectric constant tensor:
#      x y z
#    x 1.786450 0.000000 0.000000 
#    y 0.000000 1.797630 0.000000 
#    z 0.000000 0.000000 1.823700 
# 
# From -- ./inp_files/27155.got.cif
#   From: 2010.03.12/outbox.cif.g09.slc.cpg/sg62_14_cif.got.tgz:27155.got - 2010.04.10 19:12:36.
