data_PCOD8253307
_publ_section_title
;
Structure prediction by ZEFSAII (Michael W. Deem and Ramdas Pophale) SiO2 
 PCOD8253307
Probable space group: P N M A
;
_chemical_formula_sum "Si O2"
_cell_formula_units_Z 40
_cell_length_a 8.618430
_cell_length_b 16.552204
_cell_length_c 13.702517
_cell_angle_alpha 90.000000
_cell_angle_beta 90.000000
_cell_angle_gamma 90.000000
_cell_volume 1954.719018
_symmetry_space_group_name_H-M "P N M A"
_symmetry_group_IT_number 62
_symmetry_cell_setting 'orthorhombic'
loop_
_space_group_symop_operation_xyz
x,y,z
1/2-x,-y,1/2+z
1/2+x,1/2-y,1/2-z
-x,1/2+y,-z
-x,-y,-z
1/2+x,y,1/2-z
1/2-x,1/2+y,1/2+z
x,1/2-y,z
loop_
_atom_site_type_symbol
_atom_site_label
_atom_site_fract_x
_atom_site_fract_y
_atom_site_fract_z
Si Si1 0.100376 0.750000 0.319021
Si Si2 0.248099 0.656189 0.785806
Si Si3 0.550163 0.577830 0.865629
Si Si4 0.163799 0.839366 0.992809
Si Si5 0.955959 0.750000 0.116515
Si Si6 0.463888 0.902365 0.077713
O O1 0.082158 0.750000 0.203209
O O2 0.280921 0.750000 0.347846
O O3 0.014218 0.671416 0.356606
O O4 0.239652 0.750000 0.755392
O O5 0.421313 0.633899 0.816425
O O6 0.205220 0.600677 0.693152
O O7 0.137540 0.635170 0.879664
O O8 0.511194 0.482665 0.857595
O O9 0.569644 0.597947 0.980329
O O10 0.245009 0.750000 0.990298
O O11 0.998888 0.830105 0.050864
O O12 0.281977 0.899375 0.047574
#
# Coordination Sequence:
#
# PCOD8253307 Si02
#       6
#     4   8   8   8   4   8
#     4  12  22  36  63  84 115 166 207 246 306 390
#     4  10  20  37  63  88 120 161 202 254 316 368
#     4  10  23  38  59  93 125 160 205 263 311 373
#     4   8  17  38  60  85 118 156 199 257 303 360
#     4  10  22  36  57  92 111 150 213 254 300 362
#     4  10  21  40  60  87 126 165 206 251 315 367
#
# _framework density 20.463298000000002
#
# number of rings (size 3 to 8) (size 9 to 14) (size 15 to 20)
#    0.600    1.600    1.000    1.800    2.800    4.800 
#    0.000    0.000    0.000    8.400    0.000    0.000 
#    0.000    0.000    0.000    0.000    0.000    0.000 
#
# Total GULP energy -495692.540374 kJ/mol
# GULP energy per Si atom -12392.313509 kJ/mol
# Density = 2.041672 g / cm^3
# Si number density = 20.463298 Si / 1000 Ang^3
#
#
#
# Elastic Constant Matrix: (Units=GPa)
#
#
# Indices 1 2 3 4 5 6 
#
# 1 40.9600 15.5950 11.5986 0.0000 0.0000 0.0000
# 2 15.5950 92.3149 40.0762 0.0000 0.0000 0.0000
# 3 11.5986 40.0762 72.3179 0.0000 0.0000 0.0000
# 4 0.0000 0.0000 0.0000 33.7438 0.0000 0.0000
# 5 0.0000 0.0000 0.0000 0.0000 33.4227 0.0000
# 6 0.0000 0.0000 0.0000 0.0000 0.0000 22.2826
#
#
#
# Elastic Compliance Matrix: (Units=1/GPa)
#
#
# Indices 1 2 3 4 5 6 
#
# 1 0.026385 -0.003450 -0.002320 0.000000 0.000000 0.000000
# 2 -0.003450 0.014715 -0.007601 0.000000 0.000000 0.000000
# 3 -0.002320 -0.007601 0.018412 0.000000 0.000000 0.000000
# 4 0.000000 0.000000 0.000000 0.029635 0.000000 0.000000
# 5 0.000000 0.000000 0.000000 0.000000 0.029920 0.000000
# 6 0.000000 0.000000 0.000000 0.000000 0.000000 0.044878
#
#
# Mechanical properties :
#
#
# Convention : Reuss Voigt Hill
#
# Bulk Modulus (GPa) = 30.51601 37.79248 34.15424
# Shear Modulus (GPa) = 24.80025 27.11134 25.95580
#
# Velocity S-wave (km/s) = 3.48507 3.64383 3.56533
# Velocity P-wave (km/s) = 5.58025 6.01763 5.80306
#
# Compressibility (1/GPa) = 0.03276968
#
# Stress axis : x y z
#
# Youngs Moduli (GPa) = 37.90095 67.95658 54.31154
#
# Poissons Ratio (x) = 0.23446 0.12599
# Poissons Ratio (y) = 0.13077 0.41284
# Poissons Ratio (z) = 0.08792 0.51656
#
# Static dielectric constant tensor:
#      x y z
#    x 3.301980 0.000000 0.000000 
#    y 0.000000 3.549580 0.000000 
#    z 0.000000 0.000000 3.966180 
# 
# 
# High freq. dielectric constant tensor:
#      x y z
#    x 1.770370 0.000000 0.000000 
#    y 0.000000 1.786530 0.000000 
#    z 0.000000 0.000000 1.813040 
# 
# From -- ./inp_files/11107.got.cif
#   From: 2010.03.12/outbox.cif.g09.slc.cpg/sg62_6_cif.got.tgz:11107.got - 2010.04.10 19:12:36.
