data_PCOD8253340
_publ_section_title
;
Structure prediction by ZEFSAII (Michael W. Deem and Ramdas Pophale) SiO2 
 PCOD8253340
Probable space group: P N M A
;
_chemical_formula_sum "Si O2"
_cell_formula_units_Z 56
_cell_length_a 15.929325
_cell_length_b 12.530938
_cell_length_c 13.987204
_cell_angle_alpha 90.000000
_cell_angle_beta 90.000000
_cell_angle_gamma 90.000000
_cell_volume 2791.977174
_symmetry_space_group_name_H-M "P N M A"
_symmetry_group_IT_number 62
_symmetry_cell_setting 'orthorhombic'
loop_
_space_group_symop_operation_xyz
x,y,z
1/2-x,-y,1/2+z
1/2+x,1/2-y,1/2-z
-x,1/2+y,-z
-x,-y,-z
1/2+x,y,1/2-z
1/2-x,1/2+y,1/2+z
x,1/2-y,z
loop_
_atom_site_type_symbol
_atom_site_label
_atom_site_fract_x
_atom_site_fract_y
_atom_site_fract_z
Si Si1 0.075230 0.379037 0.911255
Si Si2 0.743432 0.550718 0.147291
Si Si3 0.734165 0.628427 0.354781
Si Si4 0.650471 0.131014 0.230099
Si Si5 0.860642 0.484044 0.465757
Si Si6 0.414354 0.494869 0.602177
Si Si7 0.016015 0.367133 0.421610
O O1 0.072416 0.250000 0.907737
O O2 0.158920 0.424458 0.864242
O O3 0.996770 0.434271 0.856080
O O4 0.064384 0.423173 0.018036
O O5 0.713424 0.617328 0.240672
O O6 0.722972 0.425599 0.166163
O O7 0.694337 0.576977 0.048020
O O8 0.760442 0.750000 0.376535
O O9 0.807143 0.547765 0.387351
O O10 0.652297 0.600168 0.419825
O O11 0.682857 0.250000 0.250735
O O12 0.558981 0.130462 0.181975
O O13 0.638457 0.067130 0.326264
O O14 0.929548 0.561886 0.508533
O O15 0.917753 0.397741 0.410530
O O16 0.019605 0.250000 0.466508
#
# Coordination Sequence:
#
# PCOD8253340 Si02
#       7
#     8   8   8   8   8   8   8
#     4  11  22  39  59  85 121 163 200 251 307 357
#     4  10  22  39  58  90 119 155 200 253 297 368
#     4  11  22  39  62  87 116 159 204 250 303 359
#     4   9  19  39  62  86 117 153 195 250 305 357
#     4  10  20  38  59  86 120 154 195 247 299 363
#     4  10  22  39  60  84 120 158 206 251 293 366
#     4   9  19  35  59  86 115 149 188 241 304 359
#
# _framework density 20.057471
#
# number of rings (size 3 to 8) (size 9 to 14) (size 15 to 20)
#    0.000    2.000    1.429    1.714    2.000    1.714 
#    0.000    2.143    0.000    0.000    0.000    0.000 
#    0.000    0.000    0.000    0.000    0.000    0.000 
#
# Total GULP energy -693769.208994 kJ/mol
# GULP energy per Si atom -12388.735875 kJ/mol
# Density = 2.001182 g / cm^3
# Si number density = 20.057471 Si / 1000 Ang^3
#
#
#
# Elastic Constant Matrix: (Units=GPa)
#
#
# Indices 1 2 3 4 5 6 
#
# 1 113.9702 50.7805 3.9703 0.0000 0.0000 0.0000
# 2 50.7805 99.4305 19.8865 0.0000 0.0000 0.0000
# 3 3.9703 19.8865 42.0972 0.0000 0.0000 0.0000
# 4 0.0000 0.0000 0.0000 15.4977 0.0000 0.0000
# 5 0.0000 0.0000 0.0000 0.0000 25.0837 0.0000
# 6 0.0000 0.0000 0.0000 0.0000 0.0000 25.6318
#
#
#
# Elastic Compliance Matrix: (Units=1/GPa)
#
#
# Indices 1 2 3 4 5 6 
#
# 1 0.011490 -0.006241 0.001865 0.000000 0.000000 0.000000
# 2 -0.006241 0.014497 -0.006260 0.000000 0.000000 0.000000
# 3 0.001865 -0.006260 0.026536 0.000000 0.000000 0.000000
# 4 0.000000 0.000000 0.000000 0.064525 0.000000 0.000000
# 5 0.000000 0.000000 0.000000 0.000000 0.039867 0.000000
# 6 0.000000 0.000000 0.000000 0.000000 0.000000 0.039014
#
#
# Mechanical properties :
#
#
# Convention : Reuss Voigt Hill
#
# Bulk Modulus (GPa) = 31.99962 44.97471 38.48717
# Shear Modulus (GPa) = 21.96672 25.30002 23.63337
#
# Velocity S-wave (km/s) = 3.31295 3.55544 3.43634
# Velocity P-wave (km/s) = 5.53379 6.27108 5.91394
#
# Compressibility (1/GPa) = 0.03125037
#
# Stress axis : x y z
#
# Youngs Moduli (GPa) = 87.03196 68.98170 37.68511
#
# Poissons Ratio (x) = 0.43052 -0.07027
# Poissons Ratio (y) = 0.54317 0.23589
# Poissons Ratio (z) = -0.16228 0.43179
#
# Static dielectric constant tensor:
#      x y z
#    x 3.937650 0.000000 0.000000 
#    y 0.000000 3.793300 0.000000 
#    z 0.000000 0.000000 3.547600 
# 
# 
# High freq. dielectric constant tensor:
#      x y z
#    x 1.790030 0.000000 0.000000 
#    y 0.000000 1.784570 0.000000 
#    z 0.000000 0.000000 1.766100 
# 
# From -- ./inp_files/19019.got.cif
#   From: 2010.03.12/outbox.cif.g09.slc.cpg/sg62_10_cif.got.tgz:19019.got - 2010.04.10 19:12:36.
