data_PCOD8253553
_publ_section_title
;
Structure prediction by ZEFSAII (Michael W. Deem and Ramdas Pophale) SiO2 
 PCOD8253553
Probable space group: P N M A
;
_chemical_formula_sum "Si O2"
_cell_formula_units_Z 64
_cell_length_a 14.989151
_cell_length_b 23.319413
_cell_length_c 8.892235
_cell_angle_alpha 90.000000
_cell_angle_beta 90.000000
_cell_angle_gamma 90.000000
_cell_volume 3108.175840
_symmetry_space_group_name_H-M "P N M A"
_symmetry_group_IT_number 62
_symmetry_cell_setting 'orthorhombic'
loop_
_space_group_symop_operation_xyz
x,y,z
1/2-x,-y,1/2+z
1/2+x,1/2-y,1/2-z
-x,1/2+y,-z
-x,-y,-z
1/2+x,y,1/2-z
1/2-x,1/2+y,1/2+z
x,1/2-y,z
loop_
_atom_site_type_symbol
_atom_site_label
_atom_site_fract_x
_atom_site_fract_y
_atom_site_fract_z
Si Si1 0.743035 0.969616 0.465241
Si Si2 0.313147 0.187112 0.078561
Si Si3 0.051310 0.362658 0.135876
Si Si4 0.490027 0.684997 0.945618
Si Si5 0.040734 0.945124 0.083011
Si Si6 0.089893 0.095168 0.669352
Si Si7 0.653530 0.189224 0.613644
Si Si8 0.727505 0.078399 0.292917
O O1 0.648136 0.948278 0.394949
O O2 0.831321 0.945912 0.384149
O O3 0.745971 0.955273 0.641523
O O4 0.748335 0.037962 0.436823
O O5 0.305495 0.250000 0.159960
O O6 0.408907 0.179239 0.002845
O O7 0.285010 0.136904 0.194827
O O8 0.256912 0.186365 0.925828
O O9 0.004058 0.329606 0.269931
O O10 0.121999 0.408563 0.203772
O O11 0.102146 0.313433 0.044630
O O12 0.978388 0.391908 0.027615
O O13 0.452621 0.750000 0.972039
O O14 0.435300 0.636585 0.032321
O O15 0.992807 0.937926 0.248406
O O16 0.000000 0.000000 0.000000
O O17 0.132530 0.134193 0.793916
O O18 0.629442 0.250000 0.693751
#
# Coordination Sequence:
#
# PCOD8253553 Si02
#       8
#     8   8   8   8   8   8   8   8
#     4  12  25  42  65  94 133 173 210 271 324 388
#     4   9  21  40  66  91 121 167 215 261 316 384
#     4  10  20  40  62  91 122 163 212 256 319 387
#     4  11  22  40  63  93 128 160 211 277 326 377
#     4  11  23  43  64  89 128 171 214 258 317 394
#     4  11  25  39  62  96 127 165 214 267 326 379
#     4   9  19  38  62  85 119 166 208 251 315 382
#     4  11  23  41  65  95 128 167 216 259 322 386
#
# _framework density 20.590855000000001
#
# number of rings (size 3 to 8) (size 9 to 14) (size 15 to 20)
#    0.000    1.500    2.500    2.250    5.250    0.500 
#    0.000    1.875    0.000    2.250    0.000    0.000 
#    0.000    0.000    0.000    0.000    0.000    0.000 
#
# Total GULP energy -793027.728689 kJ/mol
# GULP energy per Si atom -12391.058261 kJ/mol
# Density = 2.054399 g / cm^3
# Si number density = 20.590855 Si / 1000 Ang^3
#
#
#
# Elastic Constant Matrix: (Units=GPa)
#
#
# Indices 1 2 3 4 5 6 
#
# 1 104.1291 33.1092 16.3060 0.0000 0.0000 0.0000
# 2 33.1092 106.2631 22.8190 0.0000 0.0000 0.0000
# 3 16.3060 22.8190 63.2468 0.0000 0.0000 0.0000
# 4 0.0000 0.0000 0.0000 13.7092 0.0000 0.0000
# 5 0.0000 0.0000 0.0000 0.0000 25.9566 0.0000
# 6 0.0000 0.0000 0.0000 0.0000 0.0000 14.4578
#
#
#
# Elastic Compliance Matrix: (Units=1/GPa)
#
#
# Indices 1 2 3 4 5 6 
#
# 1 0.010827 -0.003007 -0.001706 0.000000 0.000000 0.000000
# 2 -0.003007 0.011036 -0.003206 0.000000 0.000000 0.000000
# 3 -0.001706 -0.003206 0.017408 0.000000 0.000000 0.000000
# 4 0.000000 0.000000 0.000000 0.072944 0.000000 0.000000
# 5 0.000000 0.000000 0.000000 0.000000 0.038526 0.000000
# 6 0.000000 0.000000 0.000000 0.000000 0.000000 0.069167
#
#
# Mechanical properties :
#
#
# Convention : Reuss Voigt Hill
#
# Bulk Modulus (GPa) = 42.67848 46.45638 44.56743
# Shear Modulus (GPa) = 20.52903 24.25169 22.39036
#
# Velocity S-wave (km/s) = 3.16095 3.43562 3.30114
# Velocity P-wave (km/s) = 5.83901 6.19262 6.01842
#
# Compressibility (1/GPa) = 0.02343101
#
# Stress axis : x y z
#
# Youngs Moduli (GPa) = 92.36359 90.61198 57.44515
#
# Poissons Ratio (x) = 0.27247 0.09803
# Poissons Ratio (y) = 0.27773 0.18420
# Poissons Ratio (z) = 0.15761 0.29055
#
# Static dielectric constant tensor:
#      x y z
#    x 3.918740 0.000000 0.000000 
#    y 0.000000 3.928870 0.000000 
#    z 0.000000 0.000000 3.737080 
# 
# 
# High freq. dielectric constant tensor:
#      x y z
#    x 1.810470 0.000000 0.000000 
#    y 0.000000 1.818330 0.000000 
#    z 0.000000 0.000000 1.789020 
# 
# From -- ./inp_files/6928.got.cif
#   From: 2010.03.12/outbox.cif.g09.slc.cpg/sg62_4_cif.got.tgz:6928.got - 2010.04.10 19:12:36.
