data_PCOD8253600
_publ_section_title
;
Structure prediction by ZEFSAII (Michael W. Deem and Ramdas Pophale) SiO2 
 PCOD8253600
Probable space group: P N M A
;
_chemical_formula_sum "Si O2"
_cell_formula_units_Z 64
_cell_length_a 15.050723
_cell_length_b 16.642923
_cell_length_c 12.109463
_cell_angle_alpha 90.000000
_cell_angle_beta 90.000000
_cell_angle_gamma 90.000000
_cell_volume 3033.275458
_symmetry_space_group_name_H-M "P N M A"
_symmetry_group_IT_number 62
_symmetry_cell_setting 'orthorhombic'
loop_
_space_group_symop_operation_xyz
x,y,z
1/2-x,-y,1/2+z
1/2+x,1/2-y,1/2-z
-x,1/2+y,-z
-x,-y,-z
1/2+x,y,1/2-z
1/2-x,1/2+y,1/2+z
x,1/2-y,z
loop_
_atom_site_type_symbol
_atom_site_label
_atom_site_fract_x
_atom_site_fract_y
_atom_site_fract_z
Si Si1 0.117342 0.158856 0.889986
Si Si2 0.706562 0.154280 0.987293
Si Si3 0.532860 0.588268 0.235493
Si Si4 0.514232 0.094602 0.001477
Si Si5 0.265758 0.402551 0.745266
Si Si6 0.864594 0.842372 0.864320
Si Si7 0.523233 0.592187 0.767022
Si Si8 0.275625 0.419019 0.297588
O O1 0.085607 0.250000 0.901868
O O2 0.210642 0.157235 0.823967
O O3 0.039333 0.113283 0.825627
O O4 0.129094 0.120004 0.012036
O O5 0.711544 0.250000 0.965731
O O6 0.769278 0.128614 0.087560
O O7 0.612394 0.123767 0.027967
O O8 0.727890 0.103527 0.877912
O O9 0.514318 0.630337 0.116729
O O10 0.630707 0.619193 0.266411
O O11 0.529319 0.492307 0.226781
O O12 0.461732 0.127502 0.108769
O O13 0.500000 0.000000 0.000000
O O14 0.253172 0.488630 0.802799
O O15 0.840023 0.750000 0.874108
O O16 0.782320 0.880925 0.799769
O O17 0.959971 0.850903 0.805092
O O18 0.619754 0.583887 0.718510
#
# Coordination Sequence:
#
# PCOD8253600 Si02
#       8
#     8   8   8   8   8   8   8   8
#     4  11  26  46  66  96 141 179 222 283 346 409
#     4  12  26  46  71 104 146 185 233 298 352 405
#     4  11  23  42  69 101 130 174 227 282 339 411
#     4  10  20  42  68  98 136 176 230 281 346 416
#     4  12  25  43  73 102 137 180 234 285 343 421
#     4  11  26  46  66  96 141 179 222 283 346 409
#     4  11  23  42  69 101 130 174 227 282 339 411
#     4  12  25  43  73 102 137 180 234 285 343 421
#
# _framework density 21.099302999999999
#
# number of rings (size 3 to 8) (size 9 to 14) (size 15 to 20)
#    0.000    0.750    5.000    2.250    5.250    2.500 
#    0.000    0.000    0.000    0.000    0.000    0.000 
#    0.000    0.000    0.000    0.000    0.000    0.000 
#
# Total GULP energy -793353.289024 kJ/mol
# GULP energy per Si atom -12396.145141 kJ/mol
# Density = 2.105128 g / cm^3
# Si number density = 21.099303 Si / 1000 Ang^3
#
#
#
# Elastic Constant Matrix: (Units=GPa)
#
#
# Indices 1 2 3 4 5 6 
#
# 1 95.3122 16.4405 9.2355 0.0000 0.0000 0.0000
# 2 16.4405 56.0882 22.7458 0.0000 0.0000 0.0000
# 3 9.2355 22.7458 136.9521 0.0000 0.0000 0.0000
# 4 0.0000 0.0000 0.0000 28.3457 0.0000 0.0000
# 5 0.0000 0.0000 0.0000 0.0000 20.0069 0.0000
# 6 0.0000 0.0000 0.0000 0.0000 0.0000 25.8119
#
#
#
# Elastic Compliance Matrix: (Units=1/GPa)
#
#
# Indices 1 2 3 4 5 6 
#
# 1 0.011057 -0.003151 -0.000222 0.000000 0.000000 0.000000
# 2 -0.003151 0.020014 -0.003112 0.000000 0.000000 0.000000
# 3 -0.000222 -0.003112 0.007834 0.000000 0.000000 0.000000
# 4 0.000000 0.000000 0.000000 0.035279 0.000000 0.000000
# 5 0.000000 0.000000 0.000000 0.000000 0.049983 0.000000
# 6 0.000000 0.000000 0.000000 0.000000 0.000000 0.038742
#
#
# Mechanical properties :
#
#
# Convention : Reuss Voigt Hill
#
# Bulk Modulus (GPa) = 38.55734 42.79959 40.67847
# Shear Modulus (GPa) = 27.09690 30.82828 28.96259
#
# Velocity S-wave (km/s) = 3.58754 3.82659 3.70899
# Velocity P-wave (km/s) = 5.95605 6.31289 6.13706
#
# Compressibility (1/GPa) = 0.02593540
#
# Stress axis : x y z
#
# Youngs Moduli (GPa) = 90.44150 49.96378 127.65497
#
# Poissons Ratio (x) = 0.15743 0.02838
# Poissons Ratio (y) = 0.28496 0.39722
# Poissons Ratio (z) = 0.02011 0.15547
#
# Static dielectric constant tensor:
#      x y z
#    x 3.796850 0.000000 0.000000 
#    y 0.000000 3.717700 0.000000 
#    z 0.000000 0.000000 4.292910 
# 
# 
# High freq. dielectric constant tensor:
#      x y z
#    x 1.832240 0.000000 0.000000 
#    y 0.000000 1.811900 0.000000 
#    z 0.000000 0.000000 1.850370 
# 
# From -- ./inp_files/13615.got.cif
#   From: 2010.03.12/outbox.cif.g09.slc.cpg/sg62_7_cif.got.tgz:13615.got - 2010.04.10 19:12:36.
