data_PCOD8253681
_publ_section_title
;
Structure prediction by ZEFSAII (Michael W. Deem and Ramdas Pophale) SiO2 
 PCOD8253681
Probable space group: P N M A
;
_chemical_formula_sum "Si O2"
_cell_formula_units_Z 56
_cell_length_a 19.902194
_cell_length_b 9.634315
_cell_length_c 15.856897
_cell_angle_alpha 90.000000
_cell_angle_beta 90.000000
_cell_angle_gamma 90.000000
_cell_volume 3040.464956
_symmetry_space_group_name_H-M "P N M A"
_symmetry_group_IT_number 62
_symmetry_cell_setting 'orthorhombic'
loop_
_space_group_symop_operation_xyz
x,y,z
1/2-x,-y,1/2+z
1/2+x,1/2-y,1/2-z
-x,1/2+y,-z
-x,-y,-z
1/2+x,y,1/2-z
1/2-x,1/2+y,1/2+z
x,1/2-y,z
loop_
_atom_site_type_symbol
_atom_site_label
_atom_site_fract_x
_atom_site_fract_y
_atom_site_fract_z
Si Si1 0.709027 0.410398 0.816675
Si Si2 0.524785 0.088825 0.256346
Si Si3 0.096444 0.411139 0.815236
Si Si4 0.190695 0.409586 0.489781
Si Si5 0.834706 0.910940 0.835662
Si Si6 0.043785 0.410941 0.436849
Si Si7 0.814899 0.590876 0.027691
O O1 0.727746 0.250000 0.802281
O O2 0.650117 0.458397 0.754659
O O3 0.683306 0.439462 0.910904
O O4 0.774585 0.500455 0.795582
O O5 0.511982 0.250000 0.275897
O O6 0.597480 0.043003 0.289709
O O7 0.519533 0.057283 0.157331
O O8 0.470382 0.000193 0.306208
O O9 0.078006 0.250000 0.803900
O O10 0.125623 0.443014 0.907621
O O11 0.208428 0.250000 0.472197
O O12 0.121667 0.453152 0.445026
O O13 0.249931 0.499990 0.449401
O O14 0.818528 0.750000 0.819255
O O15 0.842411 0.943764 0.934824
O O16 0.034567 0.250000 0.460742
O O17 0.000000 0.500000 0.500000
O O18 0.792084 0.750000 0.035728
#
# Coordination Sequence:
#
# PCOD8253681 Si02
#       7
#     8   8   8   8   8   8   8
#     4   9  18  33  53  77 105 136 174 219 265 316
#     4  10  22  37  53  78 109 142 181 221 265 321
#     4  10  21  36  54  78 108 141 179 221 267 318
#     4   9  18  33  53  76 103 135 174 219 265 316
#     4   9  19  36  55  77 107 140 176 221 269 315
#     4  10  21  36  54  78 109 143 179 219 267 322
#     4   9  19  35  54  78 106 137 176 222 268 313
#
# _framework density 18.418234999999999
#
# number of rings (size 3 to 8) (size 9 to 14) (size 15 to 20)
#    0.000    2.571    0.000    0.857    2.000    4.571 
#    0.000    2.857    0.000    0.000    0.000    0.000 
#    0.000    0.000    0.000    0.000    0.000    0.000 
#
# Total GULP energy -694625.547160 kJ/mol
# GULP energy per Si atom -12404.027628 kJ/mol
# Density = 1.837631 g / cm^3
# Si number density = 18.418235 Si / 1000 Ang^3
#
#
#
# Elastic Constant Matrix: (Units=GPa)
#
#
# Indices 1 2 3 4 5 6 
#
# 1 98.0973 53.0995 20.3174 0.0000 0.0000 0.0000
# 2 53.0995 60.3536 22.1950 0.0000 0.0000 0.0000
# 3 20.3174 22.1950 42.0917 0.0000 0.0000 0.0000
# 4 0.0000 0.0000 0.0000 24.7281 0.0000 0.0000
# 5 0.0000 0.0000 0.0000 0.0000 33.7134 0.0000
# 6 0.0000 0.0000 0.0000 0.0000 0.0000 41.0385
#
#
#
# Elastic Compliance Matrix: (Units=1/GPa)
#
#
# Indices 1 2 3 4 5 6 
#
# 1 0.019470 -0.016963 -0.000453 0.000000 0.000000 0.000000
# 2 -0.016963 0.035334 -0.010444 0.000000 0.000000 0.000000
# 3 -0.000453 -0.010444 0.029483 0.000000 0.000000 0.000000
# 4 0.000000 0.000000 0.000000 0.040440 0.000000 0.000000
# 5 0.000000 0.000000 0.000000 0.000000 0.029662 0.000000
# 6 0.000000 0.000000 0.000000 0.000000 0.000000 0.024367
#
#
# Mechanical properties :
#
#
# Convention : Reuss Voigt Hill
#
# Bulk Modulus (GPa) = 35.00528 43.52961 39.26744
# Shear Modulus (GPa) = 20.49195 26.89137 23.69166
#
# Velocity S-wave (km/s) = 3.33917 3.82519 3.59042
# Velocity P-wave (km/s) = 5.82355 6.57227 6.20921
#
# Compressibility (1/GPa) = 0.02856712
#
# Stress axis : x y z
#
# Youngs Moduli (GPa) = 51.36160 28.30156 33.91737
#
# Poissons Ratio (x) = 0.48008 0.01538
# Poissons Ratio (y) = 0.87124 0.35422
# Poissons Ratio (z) = 0.02329 0.29557
#
# Static dielectric constant tensor:
#      x y z
#    x 3.341610 0.000000 0.000000 
#    y 0.000000 3.396130 0.000000 
#    z 0.000000 0.000000 3.474470 
# 
# 
# High freq. dielectric constant tensor:
#      x y z
#    x 1.712640 0.000000 0.000000 
#    y 0.000000 1.709530 0.000000 
#    z 0.000000 0.000000 1.720850 
# 
# From -- ./inp_files/20269.got.cif
#   From: 2010.03.12/outbox.cif.g09.slc.cpg/sg62_11_cif.got.tgz:20269.got - 2010.04.10 19:12:36.
