data_PCOD8253315
_publ_section_title
;
Structure prediction by ZEFSAII (Michael W. Deem and Ramdas Pophale) SiO2 
 PCOD8253315
Probable space group: P N M A
;
_chemical_formula_sum "Si O2"
_cell_formula_units_Z 64
_cell_length_a 13.782464
_cell_length_b 17.687711
_cell_length_c 12.616272
_cell_angle_alpha 90.000000
_cell_angle_beta 90.000000
_cell_angle_gamma 90.000000
_cell_volume 3075.597817
_symmetry_space_group_name_H-M "P N M A"
_symmetry_group_IT_number 62
_symmetry_cell_setting 'orthorhombic'
loop_
_space_group_symop_operation_xyz
x,y,z
1/2-x,-y,1/2+z
1/2+x,1/2-y,1/2-z
-x,1/2+y,-z
-x,-y,-z
1/2+x,y,1/2-z
1/2-x,1/2+y,1/2+z
x,1/2-y,z
loop_
_atom_site_type_symbol
_atom_site_label
_atom_site_fract_x
_atom_site_fract_y
_atom_site_fract_z
Si Si1 0.448680 0.834672 0.512973
Si Si2 0.965229 0.419979 0.204006
Si Si3 0.374256 0.923130 0.055371
Si Si4 0.299190 0.031386 0.433179
Si Si5 0.072631 0.561715 0.126895
Si Si6 0.743493 0.834313 0.294635
Si Si7 0.753667 0.365540 0.560318
Si Si8 0.431959 0.095762 0.063396
O O1 0.486056 0.750000 0.492675
O O2 0.486292 0.859879 0.626918
O O3 0.485848 0.887028 0.417283
O O4 0.332659 0.838131 0.514872
O O5 0.854187 0.434736 0.167987
O O6 0.962438 0.379996 0.318394
O O7 0.027208 0.498652 0.205313
O O8 0.287198 0.912477 0.969634
O O9 0.475084 0.892285 0.011201
O O10 0.339987 0.876448 0.159473
O O11 0.389671 0.011394 0.079569
O O12 0.376631 0.018929 0.528398
O O13 0.251882 0.952351 0.402978
O O14 0.148554 0.614814 0.186649
O O15 0.734510 0.750000 0.346144
O O16 0.750332 0.819489 0.169246
O O17 0.850521 0.351707 0.490645
#
# Coordination Sequence:
#
# PCOD8253315 Si02
#       8
#     8   8   8   8   8   8   8   8
#     4  11  22  39  60  86 121 159 202 251 309 370
#     4  11  20  37  63  95 116 160 205 257 306 369
#     4   9  21  39  59  90 122 160 201 254 304 370
#     4   9  17  35  60  88 119 149 202 251 293 348
#     4  10  20  37  63  91 117 153 205 258 295 361
#     4  11  24  39  60  90 123 163 202 250 315 367
#     4  11  21  38  57  88 122 155 196 248 303 371
#     4  10  23  37  62  92 120 157 207 257 307 362
#
# _framework density 20.808964
#
# number of rings (size 3 to 8) (size 9 to 14) (size 15 to 20)
#    0.000    1.750    2.500    2.250    5.250    1.000 
#    0.000    4.375    0.000    0.000    0.000    0.000 
#    0.000    0.000    0.000    0.000    0.000    0.000 
#
# Total GULP energy -793533.079600 kJ/mol
# GULP energy per Si atom -12398.954369 kJ/mol
# Density = 2.076160 g / cm^3
# Si number density = 20.808964 Si / 1000 Ang^3
#
#
#
# Elastic Constant Matrix: (Units=GPa)
#
#
# Indices 1 2 3 4 5 6 
#
# 1 129.8334 25.3045 41.0137 0.0000 0.0000 0.0000
# 2 25.3045 72.3220 17.9398 0.0000 0.0000 0.0000
# 3 41.0137 17.9398 101.8114 0.0000 0.0000 0.0000
# 4 0.0000 0.0000 0.0000 11.0579 0.0000 0.0000
# 5 0.0000 0.0000 0.0000 0.0000 26.8406 0.0000
# 6 0.0000 0.0000 0.0000 0.0000 0.0000 7.0501
#
#
#
# Elastic Compliance Matrix: (Units=1/GPa)
#
#
# Indices 1 2 3 4 5 6 
#
# 1 0.009209 -0.002407 -0.003286 0.000000 0.000000 0.000000
# 2 -0.002407 0.015088 -0.001689 0.000000 0.000000 0.000000
# 3 -0.003286 -0.001689 0.011443 0.000000 0.000000 0.000000
# 4 0.000000 0.000000 0.000000 0.090433 0.000000 0.000000
# 5 0.000000 0.000000 0.000000 0.000000 0.037257 0.000000
# 6 0.000000 0.000000 0.000000 0.000000 0.000000 0.141843
#
#
# Mechanical properties :
#
#
# Convention : Reuss Voigt Hill
#
# Bulk Modulus (GPa) = 47.67086 52.49811 50.08449
# Shear Modulus (GPa) = 15.28914 23.63696 19.46305
#
# Velocity S-wave (km/s) = 2.71355 3.37397 3.06162
# Velocity P-wave (km/s) = 5.72506 6.36094 6.05136
#
# Compressibility (1/GPa) = 0.02097718
#
# Stress axis : x y z
#
# Youngs Moduli (GPa) = 108.58621 66.27681 87.38734
#
# Poissons Ratio (x) = 0.15954 0.28713
# Poissons Ratio (y) = 0.26139 0.14759
# Poissons Ratio (z) = 0.35678 0.11194
#
# Static dielectric constant tensor:
#      x y z
#    x 3.934600 0.000000 0.000000 
#    y 0.000000 3.508380 0.000000 
#    z 0.000000 0.000000 3.586140 
# 
# 
# High freq. dielectric constant tensor:
#      x y z
#    x 1.827000 0.000000 0.000000 
#    y 0.000000 1.789340 0.000000 
#    z 0.000000 0.000000 1.801120 
# 
# From -- ./inp_files/13620.got.cif
#   From: 2010.03.12/outbox.cif.g09.slc.cpg/sg62_7_cif.got.tgz:13620.got - 2010.04.10 19:12:36.
