data_PCOD8253951
_publ_section_title
;
Structure prediction by ZEFSAII (Michael W. Deem and Ramdas Pophale) SiO2 
 PCOD8253951
Probable space group: P N M A
;
_chemical_formula_sum "Si O2"
_cell_formula_units_Z 48
_cell_length_a 28.787502
_cell_length_b 9.149141
_cell_length_c 9.286047
_cell_angle_alpha 90.000000
_cell_angle_beta 90.000000
_cell_angle_gamma 90.000000
_cell_volume 2445.767554
_symmetry_space_group_name_H-M "P N M A"
_symmetry_group_IT_number 62
_symmetry_cell_setting 'orthorhombic'
loop_
_space_group_symop_operation_xyz
x,y,z
1/2-x,-y,1/2+z
1/2+x,1/2-y,1/2-z
-x,1/2+y,-z
-x,-y,-z
1/2+x,y,1/2-z
1/2-x,1/2+y,1/2+z
x,1/2-y,z
loop_
_atom_site_type_symbol
_atom_site_label
_atom_site_fract_x
_atom_site_fract_y
_atom_site_fract_z
Si Si1 0.362717 0.575994 0.987255
Si Si2 0.463829 0.586985 0.908582
Si Si3 0.206527 0.917517 0.965787
Si Si4 0.979406 0.413930 0.130331
Si Si5 0.620733 0.918650 0.724593
Si Si6 0.714978 0.577120 0.200115
O O1 0.356047 0.750000 0.988750
O O2 0.412212 0.523524 0.924202
O O3 0.325219 0.505469 0.883803
O O4 0.357029 0.514728 0.148325
O O5 0.464115 0.750000 0.970668
O O6 0.479333 0.581002 0.744612
O O7 0.500000 0.500000 0.000000
O O8 0.223312 0.750000 0.946121
O O9 0.152971 0.934385 0.916622
O O10 0.236349 0.022533 0.863517
O O11 0.211657 0.965303 0.131651
O O12 0.968524 0.250000 0.079456
O O13 0.930806 0.480662 0.188705
O O14 0.000000 0.500000 0.000000
O O15 0.617692 0.750000 0.775852
O O16 0.710141 0.750000 0.177516
#
# Coordination Sequence:
#
# PCOD8253951 Si02
#       6
#     8   8   8   8   8   8
#     4  11  23  38  60  90 121 155 197 245 293 349
#     4  10  21  38  59  86 119 157 201 245 290 343
#     4  10  23  42  63  89 119 151 195 243 292 351
#     4  10  22  38  58  86 121 160 201 246 295 348
#     4  10  21  40  63  87 120 160 199 245 297 351
#     4  11  24  41  63  89 117 154 192 237 295 353
#
# _framework density 19.625741999999999
#
# number of rings (size 3 to 8) (size 9 to 14) (size 15 to 20)
#    0.000    1.667    1.667    2.000    2.333    6.667 
#    0.000    0.000    0.000    0.000    0.000    0.000 
#    0.000    0.000    0.000    0.000    0.000    0.000 
#
# Total GULP energy -595297.937547 kJ/mol
# GULP energy per Si atom -12402.040366 kJ/mol
# Density = 1.958107 g / cm^3
# Si number density = 19.625742 Si / 1000 Ang^3
#
#
#
# Elastic Constant Matrix: (Units=GPa)
#
#
# Indices 1 2 3 4 5 6 
#
# 1 104.6608 30.7123 45.2400 0.0000 0.0000 0.0000
# 2 30.7123 71.8224 49.8884 0.0000 0.0000 0.0000
# 3 45.2400 49.8884 127.4579 0.0000 0.0000 0.0000
# 4 0.0000 0.0000 0.0000 34.0008 0.0000 0.0000
# 5 0.0000 0.0000 0.0000 0.0000 41.4790 0.0000
# 6 0.0000 0.0000 0.0000 0.0000 0.0000 34.1943
#
#
#
# Elastic Compliance Matrix: (Units=1/GPa)
#
#
# Indices 1 2 3 4 5 6 
#
# 1 0.011714 -0.002913 -0.003018 0.000000 0.000000 0.000000
# 2 -0.002913 0.019846 -0.006734 0.000000 0.000000 0.000000
# 3 -0.003018 -0.006734 0.011553 0.000000 0.000000 0.000000
# 4 0.000000 0.000000 0.000000 0.029411 0.000000 0.000000
# 5 0.000000 0.000000 0.000000 0.000000 0.024109 0.000000
# 6 0.000000 0.000000 0.000000 0.000000 0.000000 0.029245
#
#
# Mechanical properties :
#
#
# Convention : Reuss Voigt Hill
#
# Bulk Modulus (GPa) = 56.23199 61.73586 58.98393
# Shear Modulus (GPa) = 31.81987 33.80816 32.81401
#
# Velocity S-wave (km/s) = 4.03095 4.15498 4.09343
# Velocity P-wave (km/s) = 7.09782 7.38534 7.24301
#
# Compressibility (1/GPa) = 0.01778347
#
# Stress axis : x y z
#
# Youngs Moduli (GPa) = 85.36923 50.38675 86.56056
#
# Poissons Ratio (x) = 0.14678 0.26120
# Poissons Ratio (y) = 0.24868 0.58292
# Poissons Ratio (z) = 0.25760 0.33931
#
# Static dielectric constant tensor:
#      x y z
#    x 4.589050 0.000000 0.000000 
#    y 0.000000 3.614720 0.000000 
#    z 0.000000 0.000000 3.521000 
# 
# 
# High freq. dielectric constant tensor:
#      x y z
#    x 1.780470 0.000000 0.000000 
#    y 0.000000 1.762670 0.000000 
#    z 0.000000 0.000000 1.766970 
# 
# From -- ./inp_files/10253.got.cif
#   From: 2010.03.12/outbox.cif.g09.slc.cpg/sg62_6_cif.got.tgz:10253.got - 2010.04.10 19:12:36.
