data_PCOD8253626
_publ_section_title
;
Structure prediction by ZEFSAII (Michael W. Deem and Ramdas Pophale) SiO2 
 PCOD8253626
Probable space group: P N M A
;
_chemical_formula_sum "Si O2"
_cell_formula_units_Z 56
_cell_length_a 9.410714
_cell_length_b 19.546719
_cell_length_c 15.774360
_cell_angle_alpha 90.000000
_cell_angle_beta 90.000000
_cell_angle_gamma 90.000000
_cell_volume 2901.671156
_symmetry_space_group_name_H-M "P N M A"
_symmetry_group_IT_number 62
_symmetry_cell_setting 'orthorhombic'
loop_
_space_group_symop_operation_xyz
x,y,z
1/2-x,-y,1/2+z
1/2+x,1/2-y,1/2-z
-x,1/2+y,-z
-x,-y,-z
1/2+x,y,1/2-z
1/2-x,1/2+y,1/2+z
x,1/2-y,z
loop_
_atom_site_type_symbol
_atom_site_label
_atom_site_fract_x
_atom_site_fract_y
_atom_site_fract_z
Si Si1 0.217839 0.906689 0.648407
Si Si2 0.512118 0.049736 0.264842
Si Si3 0.138167 0.467408 0.542852
Si Si4 0.727303 0.329781 0.673936
Si Si5 0.914709 0.442965 0.050957
Si Si6 0.631755 0.171133 0.486433
Si Si7 0.517352 0.099062 0.802122
O O1 0.341112 0.911851 0.718469
O O2 0.246324 0.844046 0.584232
O O3 0.069096 0.901063 0.697554
O O4 0.226113 0.976147 0.594432
O O5 0.419073 0.040205 0.349576
O O6 0.539734 0.975597 0.224111
O O7 0.248574 0.437952 0.473960
O O8 0.000000 0.500000 0.500000
O O9 0.092035 0.406336 0.605822
O O10 0.702470 0.250000 0.691439
O O11 0.692862 0.350092 0.577554
O O12 0.889730 0.347561 0.693001
O O13 0.628693 0.373877 0.734468
O O14 0.988445 0.370163 0.033123
O O15 0.000000 0.500000 0.000000
O O16 0.590393 0.250000 0.482949
#
# Coordination Sequence:
#
# PCOD8253626 Si02
#       7
#     8   8   8   8   8   8   8
#     4  10  21  38  56  92 118 155 200 253 303 368
#     4  10  21  34  60  88 120 149 198 257 311 354
#     4  11  23  36  60  93 124 159 200 259 313 361
#     4  11  24  40  59  84 122 168 206 248 304 379
#     4  11  21  38  63  92 123 157 206 254 308 371
#     4  10  22  41  64  85 120 165 205 250 313 376
#     4  11  23  36  59  89 121 156 203 253 309 363
#
# _framework density 19.299222
#
# number of rings (size 3 to 8) (size 9 to 14) (size 15 to 20)
#    0.000    1.429    2.857    3.857    8.000    0.000 
#    0.000    3.571    0.000    0.857    0.000    0.000 
#    0.000    0.000    0.000    0.000    0.000    0.000 
#
# Total GULP energy -694501.552125 kJ/mol
# GULP energy per Si atom -12401.813431 kJ/mol
# Density = 1.925530 g / cm^3
# Si number density = 19.299222 Si / 1000 Ang^3
#
#
#
# Elastic Constant Matrix: (Units=GPa)
#
#
# Indices 1 2 3 4 5 6 
#
# 1 91.6709 25.7088 25.4418 0.0000 0.0000 0.0000
# 2 25.7088 60.3155 24.2096 0.0000 0.0000 0.0000
# 3 25.4418 24.2096 79.4686 0.0000 0.0000 0.0000
# 4 0.0000 0.0000 0.0000 29.3803 0.0000 0.0000
# 5 0.0000 0.0000 0.0000 0.0000 41.8987 0.0000
# 6 0.0000 0.0000 0.0000 0.0000 0.0000 26.7562
#
#
#
# Elastic Compliance Matrix: (Units=1/GPa)
#
#
# Indices 1 2 3 4 5 6 
#
# 1 0.012914 -0.004381 -0.002800 0.000000 0.000000 0.000000
# 2 -0.004381 0.020375 -0.004805 0.000000 0.000000 0.000000
# 3 -0.002800 -0.004805 0.014944 0.000000 0.000000 0.000000
# 4 0.000000 0.000000 0.000000 0.034036 0.000000 0.000000
# 5 0.000000 0.000000 0.000000 0.000000 0.023867 0.000000
# 6 0.000000 0.000000 0.000000 0.000000 0.000000 0.037375
#
#
# Mechanical properties :
#
#
# Convention : Reuss Voigt Hill
#
# Bulk Modulus (GPa) = 41.21588 42.46393 41.83990
# Shear Modulus (GPa) = 28.47880 30.01338 29.24609
#
# Velocity S-wave (km/s) = 3.84558 3.94783 3.89704
# Velocity P-wave (km/s) = 6.41253 6.54455 6.47888
#
# Compressibility (1/GPa) = 0.02426250
#
# Stress axis : x y z
#
# Youngs Moduli (GPa) = 77.43404 49.07923 66.91784
#
# Poissons Ratio (x) = 0.21500 0.18737
# Poissons Ratio (y) = 0.33921 0.32152
# Poissons Ratio (z) = 0.21681 0.23581
#
# Static dielectric constant tensor:
#      x y z
#    x 3.548900 0.000000 0.000000 
#    y 0.000000 3.280430 0.000000 
#    z 0.000000 0.000000 3.906730 
# 
# 
# High freq. dielectric constant tensor:
#      x y z
#    x 1.756840 0.000000 0.000000 
#    y 0.000000 1.720900 0.000000 
#    z 0.000000 0.000000 1.769700 
# 
# From -- ./inp_files/17208.got.cif
#   From: 2010.03.12/outbox.cif.g09.slc.cpg/sg62_9_cif.got.tgz:17208.got - 2010.04.10 19:12:36.
