data_PCOD8253566
_publ_section_title
;
Structure prediction by ZEFSAII (Michael W. Deem and Ramdas Pophale) SiO2 
 PCOD8253566
Probable space group: P N M A
;
_chemical_formula_sum "Si O2"
_cell_formula_units_Z 64
_cell_length_a 23.113197
_cell_length_b 14.646932
_cell_length_c 8.754156
_cell_angle_alpha 90.000000
_cell_angle_beta 90.000000
_cell_angle_gamma 90.000000
_cell_volume 2963.609428
_symmetry_space_group_name_H-M "P N M A"
_symmetry_group_IT_number 62
_symmetry_cell_setting 'orthorhombic'
loop_
_space_group_symop_operation_xyz
x,y,z
1/2-x,-y,1/2+z
1/2+x,1/2-y,1/2-z
-x,1/2+y,-z
-x,-y,-z
1/2+x,y,1/2-z
1/2-x,1/2+y,1/2+z
x,1/2-y,z
loop_
_atom_site_type_symbol
_atom_site_label
_atom_site_fract_x
_atom_site_fract_y
_atom_site_fract_z
Si Si1 0.867701 0.575192 0.041411
Si Si2 0.781123 0.150789 0.775730
Si Si3 0.310707 0.979587 0.148279
Si Si4 0.917573 0.497604 0.540408
Si Si5 0.508345 0.392768 0.474257
Si Si6 0.097800 0.594168 0.144367
Si Si7 0.751497 0.853897 0.934654
Si Si8 0.006253 0.857085 0.619893
O O1 0.878317 0.473910 0.983024
O O2 0.820238 0.626160 0.936201
O O3 0.927462 0.634078 0.034255
O O4 0.846521 0.564654 0.214217
O O5 0.753255 0.250000 0.799635
O O6 0.745957 0.082352 0.885701
O O7 0.849217 0.158747 0.811187
O O8 0.773966 0.121100 0.600489
O O9 0.284494 0.080922 0.180790
O O10 0.351610 0.978128 0.999855
O O11 0.924351 0.464727 0.713119
O O12 0.936763 0.415391 0.426030
O O13 0.954770 0.591162 0.527917
O O14 0.500000 0.500000 0.500000
O O15 0.456607 0.347701 0.576035
O O16 0.501967 0.360542 0.301075
O O17 0.740138 0.750000 0.885002
O O18 0.010542 0.750000 0.569143
#
# Coordination Sequence:
#
# PCOD8253566 Si02
#       8
#     8   8   8   8   8   8   8   8
#     4  10  21  38  63  94 124 166 215 266 323 386
#     4  10  22  40  62  92 127 165 213 267 323 386
#     4  11  22  39  68  92 129 168 217 272 325 391
#     4  11  23  41  69  95 129 179 216 269 332 395
#     4  10  20  40  65  92 123 168 212 267 323 385
#     4  11  20  39  69  88 127 168 217 260 331 395
#     4  10  21  39  63  91 125 169 215 262 319 385
#     4  11  25  43  65  98 136 171 220 275 323 388
#
# _framework density 21.595286000000002
#
# number of rings (size 3 to 8) (size 9 to 14) (size 15 to 20)
#    0.000    1.500    5.000    1.500    1.750    2.500 
#    0.000    0.625    0.000    0.000    0.000    0.000 
#    0.000    0.000    0.000    0.000    0.000    0.000 
#
# Total GULP energy -793209.931347 kJ/mol
# GULP energy per Si atom -12393.905177 kJ/mol
# Density = 2.154613 g / cm^3
# Si number density = 21.595286 Si / 1000 Ang^3
#
#
#
# Elastic Constant Matrix: (Units=GPa)
#
#
# Indices 1 2 3 4 5 6 
#
# 1 143.8252 31.0779 33.3244 0.0000 0.0000 0.0000
# 2 31.0779 114.1856 16.8280 0.0000 0.0000 0.0000
# 3 33.3244 16.8280 53.8451 0.0000 0.0000 0.0000
# 4 0.0000 0.0000 0.0000 23.3566 0.0000 0.0000
# 5 0.0000 0.0000 0.0000 0.0000 22.0944 0.0000
# 6 0.0000 0.0000 0.0000 0.0000 0.0000 11.1559
#
#
#
# Elastic Compliance Matrix: (Units=1/GPa)
#
#
# Indices 1 2 3 4 5 6 
#
# 1 0.008384 -0.001590 -0.004692 0.000000 0.000000 0.000000
# 2 -0.001590 0.009482 -0.001979 0.000000 0.000000 0.000000
# 3 -0.004692 -0.001979 0.022094 0.000000 0.000000 0.000000
# 4 0.000000 0.000000 0.000000 0.042814 0.000000 0.000000
# 5 0.000000 0.000000 0.000000 0.000000 0.045260 0.000000
# 6 0.000000 0.000000 0.000000 0.000000 0.000000 0.089638
#
#
# Mechanical properties :
#
#
# Convention : Reuss Voigt Hill
#
# Bulk Modulus (GPa) = 42.66653 52.70185 47.68419
# Shear Modulus (GPa) = 20.66052 26.69642 23.67847
#
# Velocity S-wave (km/s) = 3.09644 3.51980 3.31488
# Velocity P-wave (km/s) = 5.70825 6.40125 6.06465
#
# Compressibility (1/GPa) = 0.02343757
#
# Stress axis : x y z
#
# Youngs Moduli (GPa) = 119.28109 105.46080 45.26135
#
# Poissons Ratio (x) = 0.16772 0.21234
# Poissons Ratio (y) = 0.18970 0.08958
# Poissons Ratio (z) = 0.55961 0.20873
#
# Static dielectric constant tensor:
#      x y z
#    x 4.643200 0.000000 0.000000 
#    y 0.000000 3.785050 0.000000 
#    z 0.000000 0.000000 3.673420 
# 
# 
# High freq. dielectric constant tensor:
#      x y z
#    x 1.869020 0.000000 0.000000 
#    y 0.000000 1.831040 0.000000 
#    z 0.000000 0.000000 1.826870 
# 
# From -- ./inp_files/9524.got.cif
#   From: 2010.03.12/outbox.cif.g09.slc.cpg/sg62_5_cif.got.tgz:9524.got - 2010.04.10 19:12:36.
