data_PCOD8253728
_publ_section_title
;
Structure prediction by ZEFSAII (Michael W. Deem and Ramdas Pophale) SiO2 
 PCOD8253728
Probable space group: P N M A
;
_chemical_formula_sum "Si O2"
_cell_formula_units_Z 40
_cell_length_a 21.629168
_cell_length_b 13.917828
_cell_length_c 6.845745
_cell_angle_alpha 90.000000
_cell_angle_beta 90.000000
_cell_angle_gamma 90.000000
_cell_volume 2060.781737
_symmetry_space_group_name_H-M "P N M A"
_symmetry_group_IT_number 62
_symmetry_cell_setting 'orthorhombic'
loop_
_space_group_symop_operation_xyz
x,y,z
1/2-x,-y,1/2+z
1/2+x,1/2-y,1/2-z
-x,1/2+y,-z
-x,-y,-z
1/2+x,y,1/2-z
1/2-x,1/2+y,1/2+z
x,1/2-y,z
loop_
_atom_site_type_symbol
_atom_site_label
_atom_site_fract_x
_atom_site_fract_y
_atom_site_fract_z
Si Si1 0.958961 0.491240 0.192123
Si Si2 0.256679 0.140005 0.576542
Si Si3 0.680625 0.519041 0.744229
Si Si4 0.851928 0.355363 0.598260
Si Si5 0.489858 0.140577 0.969378
O O1 0.886379 0.481203 0.138699
O O2 0.985224 0.399278 0.309598
O O3 0.961922 0.583366 0.335298
O O4 0.000000 0.500000 0.000000
O O5 0.235847 0.250000 0.529216
O O6 0.204903 0.088961 0.712863
O O7 0.321056 0.139768 0.691185
O O8 0.269351 0.078960 0.380899
O O9 0.677131 0.567571 0.955001
O O10 0.842684 0.250000 0.502135
O O11 0.924101 0.373462 0.635938
O O12 0.512189 0.250000 0.981761
#
# Coordination Sequence:
#
# PCOD8253728 Si02
#       5
#     8   8   8   8   8
#     4  10  21  36  58  85 113 149 192 238 292 342
#     4  11  22  36  57  84 111 150 191 231 290 345
#     4  11  21  37  58  80 117 149 189 241 288 335
#     4   9  18  35  58  82 110 147 191 231 275 338
#     4   9  19  36  57  82 113 149 189 234 282 341
#
# _framework density 19.410108999999999
#
# number of rings (size 3 to 8) (size 9 to 14) (size 15 to 20)
#    0.000    2.000    2.000    1.800    0.000    2.400 
#    0.000    0.000    0.000    0.000    0.000    0.000 
#    0.000    0.000    0.000    0.000    0.000    0.000 
#
# Total GULP energy -495922.000314 kJ/mol
# GULP energy per Si atom -12398.050008 kJ/mol
# Density = 1.936593 g / cm^3
# Si number density = 19.410109 Si / 1000 Ang^3
#
#
#
# Elastic Constant Matrix: (Units=GPa)
#
#
# Indices 1 2 3 4 5 6 
#
# 1 55.9989 29.5549 23.0065 0.0000 0.0000 0.0000
# 2 29.5549 138.9650 29.0363 0.0000 0.0000 0.0000
# 3 23.0065 29.0363 45.1336 0.0000 0.0000 0.0000
# 4 0.0000 0.0000 0.0000 24.6901 0.0000 0.0000
# 5 0.0000 0.0000 0.0000 0.0000 31.9500 0.0000
# 6 0.0000 0.0000 0.0000 0.0000 0.0000 26.1053
#
#
#
# Elastic Compliance Matrix: (Units=1/GPa)
#
#
# Indices 1 2 3 4 5 6 
#
# 1 0.023551 -0.002889 -0.010146 0.000000 0.000000 0.000000
# 2 -0.002889 0.008668 -0.004104 0.000000 0.000000 0.000000
# 3 -0.010146 -0.004104 0.029969 0.000000 0.000000 0.000000
# 4 0.000000 0.000000 0.000000 0.040502 0.000000 0.000000
# 5 0.000000 0.000000 0.000000 0.000000 0.031299 0.000000
# 6 0.000000 0.000000 0.000000 0.000000 0.000000 0.038306
#
#
# Mechanical properties :
#
#
# Convention : Reuss Voigt Hill
#
# Bulk Modulus (GPa) = 35.83034 44.81030 40.32032
# Shear Modulus (GPa) = 23.16150 27.11574 25.13862
#
# Velocity S-wave (km/s) = 3.45812 3.74169 3.60270
# Velocity P-wave (km/s) = 5.86894 6.46554 6.17445
#
# Compressibility (1/GPa) = 0.02790931
#
# Stress axis : x y z
#
# Youngs Moduli (GPa) = 42.46187 115.36792 33.36812
#
# Poissons Ratio (x) = 0.33326 0.33856
# Poissons Ratio (y) = 0.12266 0.13694
# Poissons Ratio (z) = 0.43083 0.47346
#
# Static dielectric constant tensor:
#      x y z
#    x 3.438480 0.000000 0.000000 
#    y 0.000000 3.718710 0.000000 
#    z 0.000000 0.000000 3.281330 
# 
# 
# High freq. dielectric constant tensor:
#      x y z
#    x 1.745570 0.000000 0.000000 
#    y 0.000000 1.762750 0.000000 
#    z 0.000000 0.000000 1.745830 
# 
# From -- ./inp_files/2652.got.cif
#   From: 2010.03.12/outbox.cif.g09.slc.cpg/sg62_2_cif.got.tgz:2652.got - 2010.04.10 19:12:36.
