data_PCOD8253629
_publ_section_title
;
Structure prediction by ZEFSAII (Michael W. Deem and Ramdas Pophale) SiO2 
 PCOD8253629
Probable space group: P N M A
;
_chemical_formula_sum "Si O2"
_cell_formula_units_Z 40
_cell_length_a 16.704539
_cell_length_b 13.747226
_cell_length_c 9.616896
_cell_angle_alpha 90.000000
_cell_angle_beta 90.000000
_cell_angle_gamma 90.000000
_cell_volume 2208.434315
_symmetry_space_group_name_H-M "P N M A"
_symmetry_group_IT_number 62
_symmetry_cell_setting 'orthorhombic'
loop_
_space_group_symop_operation_xyz
x,y,z
1/2-x,-y,1/2+z
1/2+x,1/2-y,1/2-z
-x,1/2+y,-z
-x,-y,-z
1/2+x,y,1/2-z
1/2-x,1/2+y,1/2+z
x,1/2-y,z
loop_
_atom_site_type_symbol
_atom_site_label
_atom_site_fract_x
_atom_site_fract_y
_atom_site_fract_z
Si Si1 0.158180 0.638993 0.575305
Si Si2 0.668288 0.139199 0.508806
Si Si3 0.049922 0.139614 0.227397
Si Si4 0.014857 0.359290 0.538059
Si Si5 0.584675 0.002297 0.728279
O O1 0.163563 0.750000 0.629657
O O2 0.238021 0.612512 0.489835
O O3 0.152703 0.567707 0.707564
O O4 0.080554 0.625049 0.478062
O O5 0.654912 0.250000 0.559270
O O6 0.633625 0.125063 0.352709
O O7 0.622374 0.068102 0.610758
O O8 0.017818 0.250000 0.207644
O O9 0.059708 0.118998 0.391880
O O10 0.984496 0.065880 0.162820
O O11 0.033151 0.250000 0.587957
O O12 0.047467 0.432210 0.651025
#
# Coordination Sequence:
#
# PCOD8253629 Si02
#       5
#     8   8   8   8   8
#     4   9  19  34  50  71 102 136 163 196 248 303
#     4  10  21  35  51  75 106 131 158 206 259 293
#     4   9  18  33  51  72 100 133 165 200 248 303
#     4   9  18  33  53  74  98 132 172 206 241 293
#     4  11  19  31  55  78  96 128 173 212 240 286
#
# _framework density 18.112380000000002
#
# number of rings (size 3 to 8) (size 9 to 14) (size 15 to 20)
#    0.000    2.400    0.000    5.400    0.000    3.200 
#    0.000    0.000    0.000    3.600    0.000    0.000 
#    0.000    0.000    0.000    0.000    0.000    0.000 
#
# Total GULP energy -495841.325879 kJ/mol
# GULP energy per Si atom -12396.033147 kJ/mol
# Density = 1.807115 g / cm^3
# Si number density = 18.112380 Si / 1000 Ang^3
#
#
#
# Elastic Constant Matrix: (Units=GPa)
#
#
# Indices 1 2 3 4 5 6 
#
# 1 87.4639 44.1728 55.9214 0.0000 0.0000 0.0000
# 2 44.1728 98.5675 42.9143 0.0000 0.0000 0.0000
# 3 55.9214 42.9143 79.0426 0.0000 0.0000 0.0000
# 4 0.0000 0.0000 0.0000 26.1851 0.0000 0.0000
# 5 0.0000 0.0000 0.0000 0.0000 21.6481 0.0000
# 6 0.0000 0.0000 0.0000 0.0000 0.0000 27.1220
#
#
#
# Elastic Compliance Matrix: (Units=1/GPa)
#
#
# Indices 1 2 3 4 5 6 
#
# 1 0.022043 -0.004045 -0.013399 0.000000 0.000000 0.000000
# 2 -0.004045 0.014028 -0.004755 0.000000 0.000000 0.000000
# 3 -0.013399 -0.004755 0.024712 0.000000 0.000000 0.000000
# 4 0.000000 0.000000 0.000000 0.038190 0.000000 0.000000
# 5 0.000000 0.000000 0.000000 0.000000 0.046193 0.000000
# 6 0.000000 0.000000 0.000000 0.000000 0.000000 0.036870
#
#
# Mechanical properties :
#
#
# Convention : Reuss Voigt Hill
#
# Bulk Modulus (GPa) = 61.02546 61.23234 61.12890
# Shear Modulus (GPa) = 21.56142 23.12876 22.34509
#
# Velocity S-wave (km/s) = 3.45400 3.57733 3.51621
# Velocity P-wave (km/s) = 7.04788 7.13746 7.09281
#
# Compressibility (1/GPa) = 0.01638660
#
# Stress axis : x y z
#
# Youngs Moduli (GPa) = 45.36596 71.28574 40.46564
#
# Poissons Ratio (x) = 0.28834 0.54220
# Poissons Ratio (y) = 0.18350 0.19239
# Poissons Ratio (z) = 0.60786 0.33893
#
# Static dielectric constant tensor:
#      x y z
#    x 3.421130 0.000000 0.000000 
#    y 0.000000 3.719390 0.000000 
#    z 0.000000 0.000000 3.111240 
# 
# 
# High freq. dielectric constant tensor:
#      x y z
#    x 1.692820 0.000000 0.000000 
#    y 0.000000 1.726320 0.000000 
#    z 0.000000 0.000000 1.673970 
# 
# From -- ./inp_files/6116.got.cif
#   From: 2010.03.12/outbox.cif.g09.slc.cpg/sg62_4_cif.got.tgz:6116.got - 2010.04.10 19:12:36.
