data_PCOD8253639
_publ_section_title
;
Structure prediction by ZEFSAII (Michael W. Deem and Ramdas Pophale) SiO2 
 PCOD8253639
Probable space group: P N M A
;
_chemical_formula_sum "Si O2"
_cell_formula_units_Z 64
_cell_length_a 12.685925
_cell_length_b 8.988074
_cell_length_c 29.454374
_cell_angle_alpha 90.000000
_cell_angle_beta 90.000000
_cell_angle_gamma 90.000000
_cell_volume 3358.447594
_symmetry_space_group_name_H-M "P N M A"
_symmetry_group_IT_number 62
_symmetry_cell_setting 'orthorhombic'
loop_
_space_group_symop_operation_xyz
x,y,z
1/2-x,-y,1/2+z
1/2+x,1/2-y,1/2-z
-x,1/2+y,-z
-x,-y,-z
1/2+x,y,1/2-z
1/2-x,1/2+y,1/2+z
x,1/2-y,z
loop_
_atom_site_type_symbol
_atom_site_label
_atom_site_fract_x
_atom_site_fract_y
_atom_site_fract_z
Si Si1 0.116568 0.424581 0.546827
Si Si2 0.496805 0.573383 0.646986
Si Si3 0.744949 0.083741 0.779663
Si Si4 0.377775 0.424077 0.951442
Si Si5 0.731295 0.574231 0.621559
Si Si6 0.211010 0.923156 0.119998
Si Si7 0.635601 0.077160 0.207212
Si Si8 0.020096 0.417594 0.757578
O O1 0.125862 0.250000 0.535988
O O2 0.139845 0.516491 0.501840
O O3 0.204474 0.477425 0.582764
O O4 0.997767 0.460270 0.564899
O O5 0.489492 0.750000 0.651297
O O6 0.608261 0.527101 0.623661
O O7 0.399732 0.512371 0.616445
O O8 0.488155 0.504177 0.696863
O O9 0.792973 0.250000 0.775724
O O10 0.730788 0.043827 0.832342
O O11 0.642731 0.075143 0.749208
O O12 0.819862 0.961806 0.757179
O O13 0.356015 0.250000 0.950808
O O14 0.289978 0.499842 0.920339
O O15 0.742025 0.750000 0.616669
O O16 0.789633 0.517824 0.667249
O O17 0.184796 0.750000 0.113291
O O18 0.614666 0.250000 0.202106
O O19 0.524966 0.990049 0.210517
O O20 0.978974 0.250000 0.762708
#
# Coordination Sequence:
#
# PCOD8253639 Si02
#       8
#     8   8   8   8   8   8   8   8
#     4   9  20  40  64  88 120 150 177 230 293 345
#     4  11  22  38  57  80 115 156 196 239 285 335
#     4  10  21  35  54  80 112 151 194 237 280 332
#     4  10  21  38  65  93 115 144 187 232 283 348
#     4  10  23  40  57  82 118 154 191 236 289 341
#     4  10  21  38  59  85 114 151 193 233 286 341
#     4  11  22  36  54  79 113 153 195 236 284 337
#     4  11  22  35  53  78 113 154 194 240 287 337
#
# _framework density 19.056424
#
# number of rings (size 3 to 8) (size 9 to 14) (size 15 to 20)
#    0.000    1.750    2.500    1.500    1.750    3.500 
#    0.000    0.625    0.000    0.000    0.000    0.000 
#    0.000    0.000    0.000    0.000    0.000    0.000 
#
# Total GULP energy -793214.305093 kJ/mol
# GULP energy per Si atom -12393.973517 kJ/mol
# Density = 1.901305 g / cm^3
# Si number density = 19.056424 Si / 1000 Ang^3
#
#
#
# Elastic Constant Matrix: (Units=GPa)
#
#
# Indices 1 2 3 4 5 6 
#
# 1 106.1549 21.8150 44.1417 0.0000 0.0000 0.0000
# 2 21.8150 40.4099 15.4160 0.0000 0.0000 0.0000
# 3 44.1417 15.4160 75.4924 0.0000 0.0000 0.0000
# 4 0.0000 0.0000 0.0000 28.7117 0.0000 0.0000
# 5 0.0000 0.0000 0.0000 0.0000 -172.6013 0.0000
# 6 0.0000 0.0000 0.0000 0.0000 0.0000 34.5483
#
#
#
# Elastic Compliance Matrix: (Units=1/GPa)
#
#
# Indices 1 2 3 4 5 6 
#
# 1 0.013167 -0.004523 -0.006775 0.000000 0.000000 0.000000
# 2 -0.004523 0.028391 -0.003153 0.000000 0.000000 0.000000
# 3 -0.006775 -0.003153 0.017852 0.000000 0.000000 0.000000
# 4 0.000000 0.000000 0.000000 0.034829 0.000000 0.000000
# 5 0.000000 0.000000 0.000000 0.000000 -0.005794 0.000000
# 6 0.000000 0.000000 0.000000 0.000000 0.000000 0.028945
#
#
# Mechanical properties :
#
#
# Convention : Reuss Voigt Hill
#
# Bulk Modulus (GPa) = 32.77930 42.75585 37.76758
# Shear Modulus (GPa) = 31.95661 -12.48928 9.73367
#
# Velocity S-wave (km/s) = 4.09950 -2.56282 2.26250
# Velocity P-wave (km/s) = 6.29654 3.70510 5.16595
#
# Compressibility (1/GPa) = 0.03050705
#
# Stress axis : x y z
#
# Youngs Moduli (GPa) = 75.94691 35.22237 56.01676
#
# Poissons Ratio (x) = 0.15933 0.37953
# Poissons Ratio (y) = 0.34354 0.17660
# Poissons Ratio (z) = 0.51456 0.11105
#
# Static dielectric constant tensor:
#      x y z
#    x 3.843380 0.000000 0.000000 
#    y 0.000000 3.473600 0.000000 
#    z 0.000000 0.000000 3.307070 
# 
# 
# High freq. dielectric constant tensor:
#      x y z
#    x 1.757890 0.000000 0.000000 
#    y 0.000000 1.740020 0.000000 
#    z 0.000000 0.000000 1.723220 
# 
# From -- ./inp_files/32523.got.cif
#   From: 2010.03.12/outbox.cif.g09.slc.cpg/sg62_17_cif.got.tgz:32523.got - 2010.04.10 19:12:36.
