data_PCOD8253030
_publ_section_title
;
Structure prediction by ZEFSAII (Michael W. Deem and Ramdas Pophale) SiO2 
 PCOD8253030
Probable space group: P N M A
;
_chemical_formula_sum "Si O2"
_cell_formula_units_Z 64
_cell_length_a 24.133280
_cell_length_b 9.361135
_cell_length_c 13.952491
_cell_angle_alpha 90.000000
_cell_angle_beta 90.000000
_cell_angle_gamma 90.000000
_cell_volume 3152.075498
_symmetry_space_group_name_H-M "P N M A"
_symmetry_group_IT_number 62
_symmetry_cell_setting 'orthorhombic'
loop_
_space_group_symop_operation_xyz
x,y,z
1/2-x,-y,1/2+z
1/2+x,1/2-y,1/2-z
-x,1/2+y,-z
-x,-y,-z
1/2+x,y,1/2-z
1/2-x,1/2+y,1/2+z
x,1/2-y,z
loop_
_atom_site_type_symbol
_atom_site_label
_atom_site_fract_x
_atom_site_fract_y
_atom_site_fract_z
Si Si1 0.231305 0.919482 0.226449
Si Si2 0.752898 0.912009 0.953590
Si Si3 0.338664 0.080943 0.908191
Si Si4 0.958131 0.087427 0.278011
Si Si5 0.032437 0.578038 0.414360
Si Si6 0.860727 0.901211 0.052479
Si Si7 0.545170 0.907905 0.550463
Si Si8 0.642578 0.406425 0.769615
O O1 0.226004 0.750000 0.217685
O O2 0.191515 0.978520 0.311460
O O3 0.295420 0.968634 0.235284
O O4 0.215704 0.994331 0.126518
O O5 0.745142 0.750000 0.916212
O O6 0.694625 0.973551 0.996335
O O7 0.794796 0.921212 0.043624
O O8 0.332274 0.250000 0.904858
O O9 0.402563 0.034621 0.915963
O O10 0.961865 0.250000 0.318417
O O11 0.962244 0.088933 0.164215
O O12 0.899835 0.020350 0.316995
O O13 0.007799 0.987691 0.316722
O O14 0.024819 0.750000 0.418215
O O15 0.000000 0.500000 0.500000
O O16 0.877316 0.750000 0.001351
O O17 0.877813 0.885520 0.162189
O O18 0.895757 0.033353 0.012456
O O19 0.540453 0.750000 0.509624
O O20 0.500000 0.000000 0.500000
O O21 0.640000 0.250000 0.821551
#
# Coordination Sequence:
#
# PCOD8253030 Si02
#       8
#     8   8   8   8   8   8   8   8
#     4  10  20  36  59  88 117 151 194 241 295 358
#     4  10  20  36  58  86 117 155 195 237 299 363
#     4   9  20  41  63  84 120 163 199 240 297 361
#     4  10  22  39  58  83 116 153 196 250 301 357
#     4  11  24  42  64  89 120 165 212 256 304 355
#     4   9  17  33  56  79 110 150 189 233 289 354
#     4  10  21  36  57  85 117 154 196 244 299 357
#     4   9  17  33  58  83 109 143 188 240 293 354
#
# _framework density 20.304082999999999
#
# number of rings (size 3 to 8) (size 9 to 14) (size 15 to 20)
#    0.000    2.250    1.250    1.125    1.750    3.500 
#    0.000    5.000    0.000    0.000    0.000    0.000 
#    0.000    0.000    0.000    0.000    0.000    0.000 
#
# Total GULP energy -792901.075448 kJ/mol
# GULP energy per Si atom -12389.079304 kJ/mol
# Density = 2.025787 g / cm^3
# Si number density = 20.304083 Si / 1000 Ang^3
#
#
#
# Elastic Constant Matrix: (Units=GPa)
#
#
# Indices 1 2 3 4 5 6 
#
# 1 137.2457 57.7609 30.3624 0.0000 0.0000 0.0000
# 2 57.7609 104.1944 24.8867 0.0000 0.0000 0.0000
# 3 30.3624 24.8867 55.2075 0.0000 0.0000 0.0000
# 4 0.0000 0.0000 0.0000 27.1489 0.0000 0.0000
# 5 0.0000 0.0000 0.0000 0.0000 31.3820 0.0000
# 6 0.0000 0.0000 0.0000 0.0000 0.0000 29.2705
#
#
#
# Elastic Compliance Matrix: (Units=1/GPa)
#
#
# Indices 1 2 3 4 5 6 
#
# 1 0.010035 -0.004757 -0.003374 0.000000 0.000000 0.000000
# 2 -0.004757 0.013010 -0.003249 0.000000 0.000000 0.000000
# 3 -0.003374 -0.003249 0.021434 0.000000 0.000000 0.000000
# 4 0.000000 0.000000 0.000000 0.036834 0.000000 0.000000
# 5 0.000000 0.000000 0.000000 0.000000 0.031865 0.000000
# 6 0.000000 0.000000 0.000000 0.000000 0.000000 0.034164
#
#
# Mechanical properties :
#
#
# Convention : Reuss Voigt Hill
#
# Bulk Modulus (GPa) = 46.04307 58.07416 52.05862
# Shear Modulus (GPa) = 28.19410 29.80277 28.99843
#
# Velocity S-wave (km/s) = 3.73042 3.83537 3.78326
# Velocity P-wave (km/s) = 6.42501 6.94822 6.69173
#
# Compressibility (1/GPa) = 0.02171879
#
# Stress axis : x y z
#
# Youngs Moduli (GPa) = 99.65458 76.86175 46.65517
#
# Poissons Ratio (x) = 0.36562 0.15744
# Poissons Ratio (y) = 0.47404 0.15157
# Poissons Ratio (z) = 0.33628 0.24971
#
# Static dielectric constant tensor:
#      x y z
#    x 3.874810 0.000000 0.000000 
#    y 0.000000 3.644630 0.000000 
#    z 0.000000 0.000000 3.720930 
# 
# 
# High freq. dielectric constant tensor:
#      x y z
#    x 1.799290 0.000000 0.000000 
#    y 0.000000 1.783960 0.000000 
#    z 0.000000 0.000000 1.777090 
# 
# From -- ./inp_files/20921.got.cif
#   From: 2010.03.12/outbox.cif.g09.slc.cpg/sg62_11_cif.got.tgz:20921.got - 2010.04.10 19:12:36.
