data_PCOD8253361
_publ_section_title
;
Structure prediction by ZEFSAII (Michael W. Deem and Ramdas Pophale) SiO2 
 PCOD8253361
Probable space group: P N M A
;
_chemical_formula_sum "Si O2"
_cell_formula_units_Z 48
_cell_length_a 23.873855
_cell_length_b 8.833122
_cell_length_c 11.811423
_cell_angle_alpha 90.000000
_cell_angle_beta 90.000000
_cell_angle_gamma 90.000000
_cell_volume 2490.800841
_symmetry_space_group_name_H-M "P N M A"
_symmetry_group_IT_number 62
_symmetry_cell_setting 'orthorhombic'
loop_
_space_group_symop_operation_xyz
x,y,z
1/2-x,-y,1/2+z
1/2+x,1/2-y,1/2-z
-x,1/2+y,-z
-x,-y,-z
1/2+x,y,1/2-z
1/2-x,1/2+y,1/2+z
x,1/2-y,z
loop_
_atom_site_type_symbol
_atom_site_label
_atom_site_fract_x
_atom_site_fract_y
_atom_site_fract_z
Si Si1 0.964404 0.570906 0.753597
Si Si2 0.295241 0.572104 0.675696
Si Si3 0.419881 0.570966 0.281374
Si Si4 0.168803 0.574065 0.622293
Si Si5 0.602211 0.071701 0.469701
Si Si6 0.362790 0.072964 0.866873
O O1 0.967396 0.750000 0.742318
O O2 0.920702 0.510668 0.661267
O O3 0.024731 0.501313 0.727214
O O4 0.944611 0.519194 0.879107
O O5 0.302474 0.750000 0.698323
O O6 0.233101 0.527554 0.639770
O O7 0.336790 0.519235 0.574724
O O8 0.311568 0.485992 0.790465
O O9 0.426866 0.750000 0.283663
O O10 0.367033 0.527667 0.206272
O O11 0.410552 0.501196 0.407365
O O12 0.158815 0.750000 0.649842
O O13 0.152108 0.534367 0.495171
O O14 0.601384 0.250000 0.482152
O O15 0.370696 0.250000 0.846256
#
# Coordination Sequence:
#
# PCOD8253361 Si02
#       6
#     8   8   8   8   8   8
#     4  10  20  38  61  82 114 152 187 229 286 340
#     4   9  19  38  60  81 112 149 186 228 283 339
#     4  11  22  35  57  87 117 146 190 237 278 331
#     4  10  23  39  56  81 116 154 187 228 283 337
#     4   8  17  34  58  85 111 146 183 230 284 330
#     4  10  21  38  60  84 111 146 191 235 279 331
#
# _framework density 19.270911999999999
#
# number of rings (size 3 to 8) (size 9 to 14) (size 15 to 20)
#    0.000    2.333    0.000    3.000    2.333    2.667 
#    0.000    7.500    0.000    0.000    0.000    0.000 
#    0.000    0.000    0.000    0.000    0.000    0.000 
#
# Total GULP energy -595300.298908 kJ/mol
# GULP energy per Si atom -12402.089561 kJ/mol
# Density = 1.922705 g / cm^3
# Si number density = 19.270912 Si / 1000 Ang^3
#
#
#
# Elastic Constant Matrix: (Units=GPa)
#
#
# Indices 1 2 3 4 5 6 
#
# 1 123.2117 35.4837 28.8201 0.0000 0.0000 0.0000
# 2 35.4837 61.2627 26.4574 0.0000 0.0000 0.0000
# 3 28.8201 26.4574 70.1658 0.0000 0.0000 0.0000
# 4 0.0000 0.0000 0.0000 26.0103 0.0000 0.0000
# 5 0.0000 0.0000 0.0000 0.0000 20.4543 0.0000
# 6 0.0000 0.0000 0.0000 0.0000 0.0000 29.0811
#
#
#
# Elastic Compliance Matrix: (Units=1/GPa)
#
#
# Indices 1 2 3 4 5 6 
#
# 1 0.010044 -0.004821 -0.002308 0.000000 0.000000 0.000000
# 2 -0.004821 0.021812 -0.006245 0.000000 0.000000 0.000000
# 3 -0.002308 -0.006245 0.017554 0.000000 0.000000 0.000000
# 4 0.000000 0.000000 0.000000 0.038446 0.000000 0.000000
# 5 0.000000 0.000000 0.000000 0.000000 0.048890 0.000000
# 6 0.000000 0.000000 0.000000 0.000000 0.000000 0.034387
#
#
# Mechanical properties :
#
#
# Convention : Reuss Voigt Hill
#
# Bulk Modulus (GPa) = 44.12208 48.46252 46.29230
# Shear Modulus (GPa) = 24.33856 26.03439 25.18648
#
# Velocity S-wave (km/s) = 3.55768 3.67954 3.61912
# Velocity P-wave (km/s) = 6.31043 6.57682 6.44500
#
# Compressibility (1/GPa) = 0.02266439
#
# Stress axis : x y z
#
# Youngs Moduli (GPa) = 99.55860 45.84547 56.96554
#
# Poissons Ratio (x) = 0.22103 0.13146
# Poissons Ratio (y) = 0.47998 0.35573
# Poissons Ratio (z) = 0.22976 0.28629
#
# Static dielectric constant tensor:
#      x y z
#    x 3.609600 0.000000 0.000000 
#    y 0.000000 3.344530 0.000000 
#    z 0.000000 0.000000 3.652220 
# 
# 
# High freq. dielectric constant tensor:
#      x y z
#    x 1.760100 0.000000 0.000000 
#    y 0.000000 1.738220 0.000000 
#    z 0.000000 0.000000 1.750640 
# 
# From -- ./inp_files/15085.got.cif
#   From: 2010.03.12/outbox.cif.g09.slc.cpg/sg62_8_cif.got.tgz:15085.got - 2010.04.10 19:12:36.
