data_PCOD8253032
_publ_section_title
;
Structure prediction by ZEFSAII (Michael W. Deem and Ramdas Pophale) SiO2 
 PCOD8253032
Probable space group: P N M A
;
_chemical_formula_sum "Si O2"
_cell_formula_units_Z 56
_cell_length_a 22.948694
_cell_length_b 8.898633
_cell_length_c 13.728651
_cell_angle_alpha 90.000000
_cell_angle_beta 90.000000
_cell_angle_gamma 90.000000
_cell_volume 2803.555357
_symmetry_space_group_name_H-M "P N M A"
_symmetry_group_IT_number 62
_symmetry_cell_setting 'orthorhombic'
loop_
_space_group_symop_operation_xyz
x,y,z
1/2-x,-y,1/2+z
1/2+x,1/2-y,1/2-z
-x,1/2+y,-z
-x,-y,-z
1/2+x,y,1/2-z
1/2-x,1/2+y,1/2+z
x,1/2-y,z
loop_
_atom_site_type_symbol
_atom_site_label
_atom_site_fract_x
_atom_site_fract_y
_atom_site_fract_z
Si Si1 0.232480 0.074724 0.291991
Si Si2 0.557380 0.917563 0.106794
Si Si3 0.661174 0.078667 0.022946
Si Si4 0.367739 0.084229 0.698760
Si Si5 0.837902 0.922879 0.304912
Si Si6 0.460775 0.427705 0.214693
Si Si7 0.019277 0.573087 0.099473
O O1 0.247141 0.250000 0.287327
O O2 0.208840 0.022246 0.398132
O O3 0.183769 0.036448 0.210174
O O4 0.290557 0.981266 0.271745
O O5 0.540496 0.750000 0.072666
O O6 0.591123 0.914734 0.207911
O O7 0.600252 0.989039 0.026815
O O8 0.498046 0.012307 0.121768
O O9 0.645969 0.250000 0.048832
O O10 0.687473 0.060998 0.914848
O O11 0.339666 0.250000 0.684165
O O12 0.410885 0.043576 0.609646
O O13 0.853158 0.750000 0.281440
O O14 0.894404 0.024708 0.296549
O O15 0.466172 0.250000 0.218405
O O16 0.483661 0.495559 0.314905
O O17 0.005710 0.750000 0.101191
O O18 0.000000 0.500000 0.000000
#
# Coordination Sequence:
#
# PCOD8253032 Si02
#       7
#     8   8   8   8   8   8   8
#     4  10  20  37  59  83 110 145 192 243 288 344
#     4   9  17  32  57  85 113 144 182 228 279 342
#     4   9  20  38  60  84 111 148 192 237 290 350
#     4   8  16  32  54  79 107 144 184 227 278 332
#     4  11  23  40  59  82 116 155 193 242 296 350
#     4  11  22  37  57  83 117 154 190 239 293 345
#     4  10  20  36  58  86 118 153 195 241 291 348
#
# _framework density 19.974636
#
# number of rings (size 3 to 8) (size 9 to 14) (size 15 to 20)
#    0.000    2.286    0.000    3.857    0.000    6.286 
#    2.571    0.000    0.000    0.000    0.000    0.000 
#    0.000    0.000    0.000    0.000    0.000    0.000 
#
# Total GULP energy -694352.598523 kJ/mol
# GULP energy per Si atom -12399.153545 kJ/mol
# Density = 1.992917 g / cm^3
# Si number density = 19.974636 Si / 1000 Ang^3
#
#
#
# Elastic Constant Matrix: (Units=GPa)
#
#
# Indices 1 2 3 4 5 6 
#
# 1 91.8846 38.7440 24.6976 0.0000 0.0000 0.0000
# 2 38.7440 116.6150 29.8541 0.0000 0.0000 0.0000
# 3 24.6976 29.8541 54.3622 0.0000 0.0000 0.0000
# 4 0.0000 0.0000 0.0000 27.1189 0.0000 0.0000
# 5 0.0000 0.0000 0.0000 0.0000 28.2199 0.0000
# 6 0.0000 0.0000 0.0000 0.0000 0.0000 39.8192
#
#
#
# Elastic Compliance Matrix: (Units=1/GPa)
#
#
# Indices 1 2 3 4 5 6 
#
# 1 0.013452 -0.003380 -0.004255 0.000000 0.000000 0.000000
# 2 -0.003380 0.010827 -0.004410 0.000000 0.000000 0.000000
# 3 -0.004255 -0.004410 0.022751 0.000000 0.000000 0.000000
# 4 0.000000 0.000000 0.000000 0.036875 0.000000 0.000000
# 5 0.000000 0.000000 0.000000 0.000000 0.035436 0.000000
# 6 0.000000 0.000000 0.000000 0.000000 0.000000 0.025113
#
#
# Mechanical properties :
#
#
# Convention : Reuss Voigt Hill
#
# Bulk Modulus (GPa) = 43.59494 49.93923 46.76709
# Shear Modulus (GPa) = 28.37816 30.33602 29.35709
#
# Velocity S-wave (km/s) = 3.77332 3.90131 3.83785
# Velocity P-wave (km/s) = 6.39191 6.73419 6.56528
#
# Compressibility (1/GPa) = 0.02293844
#
# Stress axis : x y z
#
# Youngs Moduli (GPa) = 74.33723 92.35939 43.95501
#
# Poissons Ratio (x) = 0.31217 0.18705
# Poissons Ratio (y) = 0.25126 0.19386
# Poissons Ratio (z) = 0.31633 0.40735
#
# Static dielectric constant tensor:
#      x y z
#    x 3.624500 0.000000 0.000000 
#    y 0.000000 3.741640 0.000000 
#    z 0.000000 0.000000 3.584480 
# 
# 
# High freq. dielectric constant tensor:
#      x y z
#    x 1.774030 0.000000 0.000000 
#    y 0.000000 1.787120 0.000000 
#    z 0.000000 0.000000 1.766500 
# 
# From -- ./inp_files/20347.got.cif
#   From: 2010.03.12/outbox.cif.g09.slc.cpg/sg62_11_cif.got.tgz:20347.got - 2010.04.10 19:12:36.
