data_PCOD8253088
_publ_section_title
;
Structure prediction by ZEFSAII (Michael W. Deem and Ramdas Pophale) SiO2 
 PCOD8253088
Probable space group: P N M A
;
_chemical_formula_sum "Si O2"
_cell_formula_units_Z 32
_cell_length_a 13.636877
_cell_length_b 14.965791
_cell_length_c 6.972097
_cell_angle_alpha 90.000000
_cell_angle_beta 90.000000
_cell_angle_gamma 90.000000
_cell_volume 1422.911928
_symmetry_space_group_name_H-M "P N M A"
_symmetry_group_IT_number 62
_symmetry_cell_setting 'orthorhombic'
loop_
_space_group_symop_operation_xyz
x,y,z
1/2-x,-y,1/2+z
1/2+x,1/2-y,1/2-z
-x,1/2+y,-z
-x,-y,-z
1/2+x,y,1/2-z
1/2-x,1/2+y,1/2+z
x,1/2-y,z
loop_
_atom_site_type_symbol
_atom_site_label
_atom_site_fract_x
_atom_site_fract_y
_atom_site_fract_z
Si Si1 0.933288 0.648175 0.423710
Si Si2 0.379637 0.526997 0.411725
Si Si3 0.918688 0.349622 0.247319
Si Si4 0.715956 0.415121 0.221613
O O1 0.935298 0.750000 0.358126
O O2 0.938392 0.591016 0.230643
O O3 0.026339 0.624693 0.556511
O O4 0.833353 0.628793 0.536943
O O5 0.436938 0.429474 0.412157
O O6 0.369818 0.570571 0.621478
O O7 0.267754 0.509156 0.336982
O O8 0.950979 0.250000 0.174862
O O9 0.802136 0.348777 0.296140
#
# Coordination Sequence:
#
# PCOD8253088 Si02
#       4
#     8   8   8   8
#     4  11  22  38  59  86 118 154 194 240 290 345
#     4  10  20  37  59  84 116 153 191 233 293 340
#     4   9  20  38  59  84 120 153 188 244 293 338
#     4  10  20  36  60  85 115 153 192 235 286 346
#
# _framework density 22.489093
#
# number of rings (size 3 to 8) (size 9 to 14) (size 15 to 20)
#    1.500    0.500    2.500    1.500    0.000    3.000 
#    0.000    2.500    0.000   10.500    0.000    0.000 
#    0.000    0.000    0.000    0.000    0.000    0.000 
#
# Total GULP energy -396489.300441 kJ/mol
# GULP energy per Si atom -12390.290639 kJ/mol
# Density = 2.243791 g / cm^3
# Si number density = 22.489093 Si / 1000 Ang^3
#
#
#
# Elastic Constant Matrix: (Units=GPa)
#
#
# Indices 1 2 3 4 5 6 
#
# 1 46.8692 -29.5330 -22.9687 0.0000 0.0000 0.0000
# 2 -29.5330 93.1507 2.2264 0.0000 0.0000 0.0000
# 3 -22.9687 2.2264 38.1475 0.0000 0.0000 0.0000
# 4 0.0000 0.0000 0.0000 8.3648 0.0000 0.0000
# 5 0.0000 0.0000 0.0000 0.0000 11.3105 0.0000
# 6 0.0000 0.0000 0.0000 0.0000 0.0000 27.9532
#
#
#
# Elastic Compliance Matrix: (Units=1/GPa)
#
#
# Indices 1 2 3 4 5 6 
#
# 1 0.040824 0.012373 0.023858 0.000000 0.000000 0.000000
# 2 0.012373 0.014500 0.006603 0.000000 0.000000 0.000000
# 3 0.023858 0.006603 0.040194 0.000000 0.000000 0.000000
# 4 0.000000 0.000000 0.000000 0.119549 0.000000 0.000000
# 5 0.000000 0.000000 0.000000 0.000000 0.088413 0.000000
# 6 0.000000 0.000000 0.000000 0.000000 0.000000 0.035774
#
#
# Mechanical properties :
#
#
# Convention : Reuss Voigt Hill
#
# Bulk Modulus (GPa) = 5.51913 8.62409 7.07161
# Shear Modulus (GPa) = 15.92452 24.75522 20.33987
#
# Velocity S-wave (km/s) = 2.66390 3.32138 3.01064
# Velocity P-wave (km/s) = 3.45272 4.30719 3.90340
#
# Compressibility (1/GPa) = 0.18118811
#
# Stress axis : x y z
#
# Youngs Moduli (GPa) = 24.49515 68.96438 24.87944
#
# Poissons Ratio (x) = -0.85329 -0.59358
# Poissons Ratio (y) = -0.30308 -0.16429
# Poissons Ratio (z) = -0.58441 -0.45541
#
# Static dielectric constant tensor:
#      x y z
#    x 3.990490 0.000000 0.000000 
#    y 0.000000 3.947970 0.000000 
#    z 0.000000 0.000000 3.574070 
# 
# 
# High freq. dielectric constant tensor:
#      x y z
#    x 1.898480 0.000000 0.000000 
#    y 0.000000 1.879600 0.000000 
#    z 0.000000 0.000000 1.858360 
# 
# From -- ./inp_files/889.got.cif
#   From: 2010.03.12/outbox.cif.g09.slc.cpg/sg62_1_cif.got.tgz:889.got - 2010.04.10 19:12:36.
