data_PCOD8253117
_publ_section_title
;
Structure prediction by ZEFSAII (Michael W. Deem and Ramdas Pophale) SiO2 
 PCOD8253117
Probable space group: P N M A
;
_chemical_formula_sum "Si O2"
_cell_formula_units_Z 40
_cell_length_a 9.878564
_cell_length_b 24.522077
_cell_length_c 8.736034
_cell_angle_alpha 90.000000
_cell_angle_beta 90.000000
_cell_angle_gamma 90.000000
_cell_volume 2116.242272
_symmetry_space_group_name_H-M "P N M A"
_symmetry_group_IT_number 62
_symmetry_cell_setting 'orthorhombic'
loop_
_space_group_symop_operation_xyz
x,y,z
1/2-x,-y,1/2+z
1/2+x,1/2-y,1/2-z
-x,1/2+y,-z
-x,-y,-z
1/2+x,y,1/2-z
1/2-x,1/2+y,1/2+z
x,1/2-y,z
loop_
_atom_site_type_symbol
_atom_site_label
_atom_site_fract_x
_atom_site_fract_y
_atom_site_fract_z
Si Si1 0.024778 0.133210 0.107998
Si Si2 0.989693 0.250000 0.147190
Si Si3 0.193458 0.250000 0.407221
Si Si4 0.788463 0.869622 0.593125
Si Si5 0.634590 0.023144 0.927061
Si Si6 0.381758 0.535231 0.432200
O O1 0.032411 0.196259 0.052461
O O2 0.867285 0.118453 0.142497
O O3 0.115114 0.125062 0.259278
O O4 0.084792 0.098299 0.968123
O O5 0.831199 0.250000 0.192738
O O6 0.058794 0.250000 0.310428
O O7 0.196150 0.309560 0.491563
O O8 0.835155 0.914924 0.473872
O O9 0.628504 0.023194 0.745522
O O10 0.500000 0.000000 0.000000
O O11 0.746260 0.980721 0.981264
O O12 0.500000 0.500000 0.500000
#
# Coordination Sequence:
#
# PCOD8253117 Si02
#       6
#     8   4   4   8   8   8
#     4  10  20  36  61  87 121 153 198 238 291 347
#     4   8  16  32  55  86 114 154 190 237 282 346
#     4   8  16  32  57  84 118 150 192 233 284 344
#     4  10  20  37  60  90 118 156 194 240 288 349
#     4  12  26  40  61  86 120 154 195 241 297 349
#     4  12  24  42  59  86 117 154 194 242 293 353
#
# _framework density 18.901426000000001
#
# number of rings (size 3 to 8) (size 9 to 14) (size 15 to 20)
#    0.000    1.600    2.000    3.600    2.800    0.000 
#    0.000    1.000    0.000    0.000    0.000    0.000 
#    0.000    0.000    0.000    0.000    0.000    0.000 
#
# Total GULP energy -495552.562348 kJ/mol
# GULP energy per Si atom -12388.814059 kJ/mol
# Density = 1.885841 g / cm^3
# Si number density = 18.901426 Si / 1000 Ang^3
#
#
#
# Elastic Constant Matrix: (Units=GPa)
#
#
# Indices 1 2 3 4 5 6 
#
# 1 138.1296 59.8661 52.1495 0.0000 0.0000 0.0000
# 2 59.8661 141.2983 51.7745 0.0000 0.0000 0.0000
# 3 52.1495 51.7745 121.8506 0.0000 0.0000 0.0000
# 4 0.0000 0.0000 0.0000 29.8685 0.0000 0.0000
# 5 0.0000 0.0000 0.0000 0.0000 24.5792 0.0000
# 6 0.0000 0.0000 0.0000 0.0000 0.0000 32.5039
#
#
#
# Elastic Compliance Matrix: (Units=1/GPa)
#
#
# Indices 1 2 3 4 5 6 
#
# 1 0.009625 -0.003042 -0.002827 0.000000 0.000000 0.000000
# 2 -0.003042 0.009344 -0.002668 0.000000 0.000000 0.000000
# 3 -0.002827 -0.002668 0.010550 0.000000 0.000000 0.000000
# 4 0.000000 0.000000 0.000000 0.033480 0.000000 0.000000
# 5 0.000000 0.000000 0.000000 0.000000 0.040685 0.000000
# 6 0.000000 0.000000 0.000000 0.000000 0.000000 0.030766
#
#
# Mechanical properties :
#
#
# Convention : Reuss Voigt Hill
#
# Bulk Modulus (GPa) = 80.35370 80.98430 80.66900
# Shear Modulus (GPa) = 32.11862 33.22286 32.67074
#
# Velocity S-wave (km/s) = 4.12669 4.19703 4.16201
# Velocity P-wave (km/s) = 8.08148 8.15018 8.11590
#
# Compressibility (1/GPa) = 0.01244498
#
# Stress axis : x y z
#
# Youngs Moduli (GPa) = 103.89220 107.02166 94.78427
#
# Poissons Ratio (x) = 0.32560 0.26793
# Poissons Ratio (y) = 0.31608 0.25290
# Poissons Ratio (z) = 0.29368 0.28555
#
# Static dielectric constant tensor:
#      x y z
#    x 3.791460 0.000000 0.000000 
#    y 0.000000 4.030060 0.000000 
#    z 0.000000 0.000000 3.166270 
# 
# 
# High freq. dielectric constant tensor:
#      x y z
#    x 1.760260 0.000000 0.000000 
#    y 0.000000 1.767090 0.000000 
#    z 0.000000 0.000000 1.681180 
# 
# From -- ./inp_files/4316.got.cif
#   From: 2010.03.12/outbox.cif.g09.slc.cpg/sg62_3_cif.got.tgz:4316.got - 2010.04.10 19:12:36.
