data_PCOD8253008
_publ_section_title
;
Structure prediction by ZEFSAII (Michael W. Deem and Ramdas Pophale) SiO2 
 PCOD8253008
Probable space group: P N M A
;
_chemical_formula_sum "Si O2"
_cell_formula_units_Z 40
_cell_length_a 14.347749
_cell_length_b 9.455358
_cell_length_c 14.353060
_cell_angle_alpha 90.000000
_cell_angle_beta 90.000000
_cell_angle_gamma 90.000000
_cell_volume 1947.180661
_symmetry_space_group_name_H-M "P N M A"
_symmetry_group_IT_number 62
_symmetry_cell_setting 'orthorhombic'
loop_
_space_group_symop_operation_xyz
x,y,z
1/2-x,-y,1/2+z
1/2+x,1/2-y,1/2-z
-x,1/2+y,-z
-x,-y,-z
1/2+x,y,1/2-z
1/2-x,1/2+y,1/2+z
x,1/2-y,z
loop_
_atom_site_type_symbol
_atom_site_label
_atom_site_fract_x
_atom_site_fract_y
_atom_site_fract_z
Si Si1 0.695850 0.492899 0.474262
Si Si2 0.660860 0.750000 0.980941
Si Si3 0.767865 0.452390 0.771928
Si Si4 0.437145 0.750000 0.489663
Si Si5 0.313167 0.250000 0.226353
Si Si6 0.394861 0.750000 0.273456
Si Si7 0.408053 0.250000 0.825012
Si Si8 0.366028 0.250000 0.421798
O O1 0.781070 0.391450 0.499678
O O2 0.707724 0.581086 0.379245
O O3 0.604972 0.393086 0.466825
O O4 0.691473 0.607442 0.556761
O O5 0.629188 0.750000 0.871827
O O6 0.582170 0.750000 0.061388
O O7 0.758815 0.620622 0.763947
O O8 0.667277 0.387503 0.746871
O O9 0.850692 0.388488 0.708796
O O10 0.426012 0.750000 0.379437
O O11 0.544596 0.750000 0.513683
O O12 0.387423 0.250000 0.310934
O O13 0.486691 0.750000 0.210175
#
# Coordination Sequence:
#
# PCOD8253008 Si02
#       8
#     8   4   8   4   4   4   4   4
#     4  10  20  36  58  82 114 153 188 234 296 349
#     4   9  20  39  57  74 111 162 194 228 293 352
#     4  10  21  39  60  87 119 154 195 241 292 351
#     4  11  22  36  56  86 122 152 181 236 306 349
#     4  10  21  36  57  83 119 157 194 246 299 342
#     4  11  22  39  63  91 117 154 202 243 283 348
#     4  11  21  39  64  86 114 160 202 239 289 353
#     4  12  20  31  57  92 115 143 195 248 284 344
#
# _framework density 20.542521000000001
#
# number of rings (size 3 to 8) (size 9 to 14) (size 15 to 20)
#    0.000    1.600    0.000    8.400    0.000    1.600 
#    0.000    5.000    0.000   12.000    0.000    0.000 
#    0.000    0.000    0.000    0.000    0.000    0.000 
#
# Total GULP energy -495859.167581 kJ/mol
# GULP energy per Si atom -12396.479190 kJ/mol
# Density = 2.049577 g / cm^3
# Si number density = 20.542521 Si / 1000 Ang^3
#
#
#
# Elastic Constant Matrix: (Units=GPa)
#
#
# Indices 1 2 3 4 5 6 
#
# 1 85.8946 34.0176 54.4038 0.0000 0.0000 0.0000
# 2 34.0176 124.5164 31.4672 0.0000 0.0000 0.0000
# 3 54.4038 31.4672 159.5358 0.0000 0.0000 0.0000
# 4 0.0000 0.0000 0.0000 23.1988 0.0000 0.0000
# 5 0.0000 0.0000 0.0000 0.0000 33.1192 0.0000
# 6 0.0000 0.0000 0.0000 0.0000 0.0000 14.1624
#
#
#
# Elastic Compliance Matrix: (Units=1/GPa)
#
#
# Indices 1 2 3 4 5 6 
#
# 1 0.015934 -0.003136 -0.004815 0.000000 0.000000 0.000000
# 2 -0.003136 0.009070 -0.000719 0.000000 0.000000 0.000000
# 3 -0.004815 -0.000719 0.008052 0.000000 0.000000 0.000000
# 4 0.000000 0.000000 0.000000 0.043106 0.000000 0.000000
# 5 0.000000 0.000000 0.000000 0.000000 0.030194 0.000000
# 6 0.000000 0.000000 0.000000 0.000000 0.000000 0.070610
#
#
# Mechanical properties :
#
#
# Convention : Reuss Voigt Hill
#
# Bulk Modulus (GPa) = 63.63661 67.74711 65.69186
# Shear Modulus (GPa) = 25.05701 30.76663 27.91182
#
# Velocity S-wave (km/s) = 3.49630 3.87422 3.69010
# Velocity P-wave (km/s) = 6.88070 7.28446 7.08546
#
# Compressibility (1/GPa) = 0.01571423
#
# Stress axis : x y z
#
# Youngs Moduli (GPa) = 62.75860 110.25718 124.19120
#
# Poissons Ratio (x) = 0.34580 0.59800
# Poissons Ratio (y) = 0.19683 0.08934
# Poissons Ratio (z) = 0.30219 0.07932
#
# Static dielectric constant tensor:
#      x y z
#    x 3.357340 0.000000 0.000000 
#    y 0.000000 3.799480 0.000000 
#    z 0.000000 0.000000 4.014460 
# 
# 
# High freq. dielectric constant tensor:
#      x y z
#    x 1.760160 0.000000 0.000000 
#    y 0.000000 1.821290 0.000000 
#    z 0.000000 0.000000 1.822910 
# 
# From -- ./inp_files/18699.got.cif
#   From: 2010.03.12/outbox.cif.g09.slc.cpg/sg62_10_cif.got.tgz:18699.got - 2010.04.10 19:12:36.
