data_PCOD8253465
_publ_section_title
;
Structure prediction by ZEFSAII (Michael W. Deem and Ramdas Pophale) SiO2 
 PCOD8253465
Probable space group: P N M A
;
_chemical_formula_sum "Si O2"
_cell_formula_units_Z 48
_cell_length_a 11.414807
_cell_length_b 21.738190
_cell_length_c 8.785788
_cell_angle_alpha 90.000000
_cell_angle_beta 90.000000
_cell_angle_gamma 90.000000
_cell_volume 2180.081215
_symmetry_space_group_name_H-M "P N M A"
_symmetry_group_IT_number 62
_symmetry_cell_setting 'orthorhombic'
loop_
_space_group_symop_operation_xyz
x,y,z
1/2-x,-y,1/2+z
1/2+x,1/2-y,1/2-z
-x,1/2+y,-z
-x,-y,-z
1/2+x,y,1/2-z
1/2-x,1/2+y,1/2+z
x,1/2-y,z
loop_
_atom_site_type_symbol
_atom_site_label
_atom_site_fract_x
_atom_site_fract_y
_atom_site_fract_z
Si Si1 0.893168 0.128986 0.032521
Si Si2 0.860166 0.683057 0.975383
Si Si3 0.626409 0.983270 0.318470
Si Si4 0.967079 0.076697 0.341940
Si Si5 0.844597 0.820254 0.626130
Si Si6 0.247686 0.564954 0.448052
O O1 0.892347 0.098008 0.197622
O O2 0.768002 0.163256 0.021389
O O3 0.914911 0.079426 0.898449
O O4 0.999311 0.176864 0.020264
O O5 0.828300 0.750000 0.040214
O O6 0.792030 0.634272 0.079373
O O7 0.811627 0.675390 0.804102
O O8 0.740578 0.968209 0.215526
O O9 0.531210 0.013681 0.207209
O O10 0.655775 0.032382 0.448099
O O11 0.880847 0.061873 0.479627
O O12 0.053924 0.129893 0.405060
O O13 0.885390 0.750000 0.587425
#
# Coordination Sequence:
#
# PCOD8253465 Si02
#       6
#     8   8   8   8   8   8
#     4  11  21  40  64  91 126 163 210 262 312 372
#     4  10  22  40  65  92 122 168 215 256 308 372
#     4  12  25  39  64  95 131 164 209 257 324 378
#     4  11  21  40  60  95 127 164 208 259 313 379
#     4  10  20  38  65  94 121 163 215 260 303 366
#     4  12  24  41  64  95 131 165 206 264 314 381
#
# _framework density 22.017529
#
# number of rings (size 3 to 8) (size 9 to 14) (size 15 to 20)
#    0.000    1.000    5.000    3.500    2.333    1.333 
#    0.000    1.667    0.000    0.000    0.000    0.000 
#    0.000    0.000    0.000    0.000    0.000    0.000 
#
# Total GULP energy -595191.538324 kJ/mol
# GULP energy per Si atom -12399.823715 kJ/mol
# Density = 2.196742 g / cm^3
# Si number density = 22.017529 Si / 1000 Ang^3
#
#
#
# Elastic Constant Matrix: (Units=GPa)
#
#
# Indices 1 2 3 4 5 6 
#
# 1 58.5562 7.3288 9.5128 0.0000 0.0000 0.0000
# 2 7.3288 103.4822 18.9360 0.0000 0.0000 0.0000
# 3 9.5128 18.9360 35.1373 0.0000 0.0000 0.0000
# 4 0.0000 0.0000 0.0000 16.5067 0.0000 0.0000
# 5 0.0000 0.0000 0.0000 0.0000 16.2806 0.0000
# 6 0.0000 0.0000 0.0000 0.0000 0.0000 28.7139
#
#
#
# Elastic Compliance Matrix: (Units=1/GPa)
#
#
# Indices 1 2 3 4 5 6 
#
# 1 0.017880 -0.000422 -0.004613 0.000000 0.000000 0.000000
# 2 -0.000422 0.010731 -0.005669 0.000000 0.000000 0.000000
# 3 -0.004613 -0.005669 0.032764 0.000000 0.000000 0.000000
# 4 0.000000 0.000000 0.000000 0.060582 0.000000 0.000000
# 5 0.000000 0.000000 0.000000 0.000000 0.061423 0.000000
# 6 0.000000 0.000000 0.000000 0.000000 0.000000 0.034826
#
#
# Mechanical properties :
#
#
# Convention : Reuss Voigt Hill
#
# Bulk Modulus (GPa) = 25.02107 29.85898 27.44003
# Shear Modulus (GPa) = 19.76792 23.06011 21.41402
#
# Velocity S-wave (km/s) = 2.99963 3.23979 3.12202
# Velocity P-wave (km/s) = 4.83589 5.25223 5.04835
#
# Compressibility (1/GPa) = 0.03996632
#
# Stress axis : x y z
#
# Youngs Moduli (GPa) = 55.92882 93.19069 30.52165
#
# Poissons Ratio (x) = 0.03934 0.14080
# Poissons Ratio (y) = 0.02361 0.17302
# Poissons Ratio (z) = 0.25801 0.52826
#
# Static dielectric constant tensor:
#      x y z
#    x 3.775360 0.000000 0.000000 
#    y 0.000000 4.127770 0.000000 
#    z 0.000000 0.000000 3.699380 
# 
# 
# High freq. dielectric constant tensor:
#      x y z
#    x 1.864740 0.000000 0.000000 
#    y 0.000000 1.876460 0.000000 
#    z 0.000000 0.000000 1.833600 
# 
# From -- ./inp_files/5292.got.cif
#   From: 2010.03.12/outbox.cif.g09.slc.cpg/sg62_3_cif.got.tgz:5292.got - 2010.04.10 19:12:36.
