data_PCOD8253625
_publ_section_title
;
Structure prediction by ZEFSAII (Michael W. Deem and Ramdas Pophale) SiO2 
 PCOD8253625
Probable space group: P N M A
;
_chemical_formula_sum "Si O2"
_cell_formula_units_Z 56
_cell_length_a 14.899765
_cell_length_b 15.264221
_cell_length_c 11.620201
_cell_angle_alpha 90.000000
_cell_angle_beta 90.000000
_cell_angle_gamma 90.000000
_cell_volume 2642.820728
_symmetry_space_group_name_H-M "P N M A"
_symmetry_group_IT_number 62
_symmetry_cell_setting 'orthorhombic'
loop_
_space_group_symop_operation_xyz
x,y,z
1/2-x,-y,1/2+z
1/2+x,1/2-y,1/2-z
-x,1/2+y,-z
-x,-y,-z
1/2+x,y,1/2-z
1/2-x,1/2+y,1/2+z
x,1/2-y,z
loop_
_atom_site_type_symbol
_atom_site_label
_atom_site_fract_x
_atom_site_fract_y
_atom_site_fract_z
Si Si1 0.428408 0.654867 0.250913
Si Si2 0.245907 0.030841 0.143264
Si Si3 0.749157 0.655576 0.392846
Si Si4 0.458325 0.008554 0.124542
Si Si5 0.228136 0.848259 0.846830
Si Si6 0.523001 0.849679 0.696067
Si Si7 0.876370 0.648670 0.992951
O O1 0.478170 0.750000 0.252998
O O2 0.339293 0.665994 0.177283
O O3 0.488149 0.579263 0.193383
O O4 0.405819 0.623593 0.379223
O O5 0.225292 0.082701 0.261134
O O6 0.199350 0.933443 0.150611
O O7 0.350967 0.017771 0.118610
O O8 0.207598 0.087118 0.037585
O O9 0.695592 0.750000 0.379725
O O10 0.771106 0.640501 0.527666
O O11 0.498635 0.091721 0.192122
O O12 0.500000 0.000000 0.000000
O O13 0.246086 0.750000 0.799227
O O14 0.122067 0.867059 0.853102
O O15 0.509994 0.750000 0.736641
O O16 0.457138 0.873996 0.592687
O O17 0.846858 0.750000 0.985591
#
# Coordination Sequence:
#
# PCOD8253625 Si02
#       7
#     8   8   8   8   8   8   8
#     4   9  20  39  58  81 120 157 193 244 301 361
#     4  10  21  34  60  85 118 149 196 245 296 342
#     4   9  19  35  57  81 113 154 192 234 292 354
#     4  10  22  40  57  88 121 156 202 245 294 357
#     4   9  18  36  58  84 116 151 195 243 290 350
#     4   9  20  38  61  87 118 154 196 247 299 352
#     4  10  21  38  60  88 117 153 199 249 305 359
#
# _framework density 21.189482000000002
#
# number of rings (size 3 to 8) (size 9 to 14) (size 15 to 20)
#    0.000    2.571    0.000    0.429    6.000    4.000 
#    0.000    4.286    0.000    0.000    0.000    0.000 
#    0.000    0.000    0.000    0.000    0.000    0.000 
#
# Total GULP energy -694009.358789 kJ/mol
# GULP energy per Si atom -12393.024264 kJ/mol
# Density = 2.114125 g / cm^3
# Si number density = 21.189482 Si / 1000 Ang^3
#
#
#
# Elastic Constant Matrix: (Units=GPa)
#
#
# Indices 1 2 3 4 5 6 
#
# 1 24.9924 30.6295 39.6998 0.0000 0.0000 0.0000
# 2 30.6295 183.2217 90.2364 0.0000 0.0000 0.0000
# 3 39.6998 90.2364 174.6596 0.0000 0.0000 0.0000
# 4 0.0000 0.0000 0.0000 39.2564 0.0000 0.0000
# 5 0.0000 0.0000 0.0000 0.0000 30.8243 0.0000
# 6 0.0000 0.0000 0.0000 0.0000 0.0000 11.0300
#
#
#
# Elastic Compliance Matrix: (Units=1/GPa)
#
#
# Indices 1 2 3 4 5 6 
#
# 1 0.065707 -0.004867 -0.012420 0.000000 0.000000 0.000000
# 2 -0.004867 0.007681 -0.002862 0.000000 0.000000 0.000000
# 3 -0.012420 -0.002862 0.010027 0.000000 0.000000 0.000000
# 4 0.000000 0.000000 0.000000 0.025474 0.000000 0.000000
# 5 0.000000 0.000000 0.000000 0.000000 0.032442 0.000000
# 6 0.000000 0.000000 0.000000 0.000000 0.000000 0.090662
#
#
# Mechanical properties :
#
#
# Convention : Reuss Voigt Hill
#
# Bulk Modulus (GPa) = 23.19348 78.22279 50.70813
# Shear Modulus (GPa) = 17.44203 31.04268 24.24235
#
# Velocity S-wave (km/s) = 2.87216 3.83169 3.38609
# Velocity P-wave (km/s) = 4.68707 7.52142 6.26659
#
# Compressibility (1/GPa) = 0.04311556
#
# Stress axis : x y z
#
# Youngs Moduli (GPa) = 15.21915 130.18972 99.72883
#
# Poissons Ratio (x) = 0.63367 1.23867
# Poissons Ratio (y) = 0.07408 0.28543
# Poissons Ratio (z) = 0.18903 0.37261
#
# Static dielectric constant tensor:
#      x y z
#    x 3.396140 0.000000 0.000000 
#    y 0.000000 4.791360 0.000000 
#    z 0.000000 0.000000 3.852360 
# 
# 
# High freq. dielectric constant tensor:
#      x y z
#    x 1.784740 0.000000 0.000000 
#    y 0.000000 1.861350 0.000000 
#    z 0.000000 0.000000 1.834440 
# 
# From -- ./inp_files/13364.got.cif
#   From: 2010.03.12/outbox.cif.g09.slc.cpg/sg62_7_cif.got.tgz:13364.got - 2010.04.10 19:12:36.
