data_PCOD8253796
_publ_section_title
;
Structure prediction by ZEFSAII (Michael W. Deem and Ramdas Pophale) SiO2 
 PCOD8253796
Probable space group: P N M A
;
_chemical_formula_sum "Si O2"
_cell_formula_units_Z 56
_cell_length_a 23.762977
_cell_length_b 9.048664
_cell_length_c 13.512932
_cell_angle_alpha 90.000000
_cell_angle_beta 90.000000
_cell_angle_gamma 90.000000
_cell_volume 2905.593806
_symmetry_space_group_name_H-M "P N M A"
_symmetry_group_IT_number 62
_symmetry_cell_setting 'orthorhombic'
loop_
_space_group_symop_operation_xyz
x,y,z
1/2-x,-y,1/2+z
1/2+x,1/2-y,1/2-z
-x,1/2+y,-z
-x,-y,-z
1/2+x,y,1/2-z
1/2-x,1/2+y,1/2+z
x,1/2-y,z
loop_
_atom_site_type_symbol
_atom_site_label
_atom_site_fract_x
_atom_site_fract_y
_atom_site_fract_z
Si Si1 0.830363 0.921988 0.426269
Si Si2 0.720582 0.577935 0.102954
Si Si3 0.337579 0.919181 0.299323
Si Si4 0.056678 0.419264 0.474757
Si Si5 0.123730 0.077417 0.281575
Si Si6 0.058499 0.578222 0.889771
Si Si7 0.944029 0.422460 0.880955
O O1 0.822618 0.750000 0.454618
O O2 0.817822 0.953875 0.312171
O O3 0.893808 0.973110 0.452062
O O4 0.787076 0.016335 0.492007
O O5 0.704796 0.750000 0.107293
O O6 0.785288 0.549923 0.129551
O O7 0.681912 0.491874 0.181081
O O8 0.358377 0.750000 0.307894
O O9 0.387949 0.026629 0.327962
O O10 0.043909 0.250000 0.493486
O O11 0.074885 0.450227 0.362087
O O12 0.000000 0.500000 0.500000
O O13 0.133629 0.250000 0.262250
O O14 0.105603 0.999424 0.180275
O O15 0.047585 0.750000 0.870012
O O16 0.004083 0.490772 0.851333
O O17 0.069570 0.545364 0.004827
O O18 0.945413 0.250000 0.856304
#
# Coordination Sequence:
#
# PCOD8253796 Si02
#       7
#     8   8   8   8   8   8   8
#     4   9  20  39  57  78 112 151 188 232 286 340
#     4  10  21  38  58  84 115 149 194 241 285 338
#     4  10  22  39  60  85 115 153 196 240 289 346
#     4   9  19  33  51  78 109 141 179 224 278 336
#     4  10  21  37  57  82 112 149 192 235 285 345
#     4  10  22  38  57  85 116 148 192 239 287 344
#     4  10  21  38  59  83 116 154 190 235 289 344
#
# _framework density 19.273168999999999
#
# number of rings (size 3 to 8) (size 9 to 14) (size 15 to 20)
#    0.000    2.286    0.000    2.571    2.000    7.429 
#    0.000    4.286    0.000    0.000    0.000    0.000 
#    0.000    0.000    0.000    0.000    0.000    0.000 
#
# Total GULP energy -694618.674107 kJ/mol
# GULP energy per Si atom -12403.904895 kJ/mol
# Density = 1.922930 g / cm^3
# Si number density = 19.273169 Si / 1000 Ang^3
#
#
#
# Elastic Constant Matrix: (Units=GPa)
#
#
# Indices 1 2 3 4 5 6 
#
# 1 60.1027 32.6531 28.8985 0.0000 0.0000 0.0000
# 2 32.6531 92.2349 36.6541 0.0000 0.0000 0.0000
# 3 28.8985 36.6541 69.9521 0.0000 0.0000 0.0000
# 4 0.0000 0.0000 0.0000 35.5811 0.0000 0.0000
# 5 0.0000 0.0000 0.0000 0.0000 28.2025 0.0000
# 6 0.0000 0.0000 0.0000 0.0000 0.0000 28.3379
#
#
#
# Elastic Compliance Matrix: (Units=1/GPa)
#
#
# Indices 1 2 3 4 5 6 
#
# 1 0.022745 -0.005454 -0.006539 0.000000 0.000000 0.000000
# 2 -0.005454 0.015001 -0.005607 0.000000 0.000000 0.000000
# 3 -0.006539 -0.005607 0.019935 0.000000 0.000000 0.000000
# 4 0.000000 0.000000 0.000000 0.028105 0.000000 0.000000
# 5 0.000000 0.000000 0.000000 0.000000 0.035458 0.000000
# 6 0.000000 0.000000 0.000000 0.000000 0.000000 0.035288
#
#
# Mechanical properties :
#
#
# Convention : Reuss Voigt Hill
#
# Bulk Modulus (GPa) = 44.48111 46.52235 45.50173
# Shear Modulus (GPa) = 25.09720 26.69655 25.89688
#
# Velocity S-wave (km/s) = 3.61249 3.72582 3.66959
# Velocity P-wave (km/s) = 6.36628 6.53451 6.45094
#
# Compressibility (1/GPa) = 0.02248145
#
# Stress axis : x y z
#
# Youngs Moduli (GPa) = 43.96559 66.66233 50.16325
#
# Poissons Ratio (x) = 0.36356 0.32800
# Poissons Ratio (y) = 0.23978 0.28128
# Poissons Ratio (z) = 0.28748 0.37380
#
# Static dielectric constant tensor:
#      x y z
#    x 3.362440 0.000000 0.000000 
#    y 0.000000 3.586490 0.000000 
#    z 0.000000 0.000000 3.635840 
# 
# 
# High freq. dielectric constant tensor:
#      x y z
#    x 1.745100 0.000000 0.000000 
#    y 0.000000 1.756090 0.000000 
#    z 0.000000 0.000000 1.751960 
# 
# From -- ./inp_files/20188.got.cif
#   From: 2010.03.12/outbox.cif.g09.slc.cpg/sg62_11_cif.got.tgz:20188.got - 2010.04.10 19:12:36.
