data_PCOD8253782
_publ_section_title
;
Structure prediction by ZEFSAII (Michael W. Deem and Ramdas Pophale) SiO2 
 PCOD8253782
Probable space group: P N M A
;
_chemical_formula_sum "Si O2"
_cell_formula_units_Z 64
_cell_length_a 33.851350
_cell_length_b 8.527295
_cell_length_c 11.605007
_cell_angle_alpha 90.000000
_cell_angle_beta 90.000000
_cell_angle_gamma 90.000000
_cell_volume 3349.906515
_symmetry_space_group_name_H-M "P N M A"
_symmetry_group_IT_number 62
_symmetry_cell_setting 'orthorhombic'
loop_
_space_group_symop_operation_xyz
x,y,z
1/2-x,-y,1/2+z
1/2+x,1/2-y,1/2-z
-x,1/2+y,-z
-x,-y,-z
1/2+x,y,1/2-z
1/2-x,1/2+y,1/2+z
x,1/2-y,z
loop_
_atom_site_type_symbol
_atom_site_label
_atom_site_fract_x
_atom_site_fract_y
_atom_site_fract_z
Si Si1 0.471384 0.566182 0.650131
Si Si2 0.629055 0.435882 0.725940
Si Si3 0.551757 0.434554 0.601037
Si Si4 0.196896 0.068224 0.946686
Si Si5 0.176455 0.569477 0.185592
Si Si6 0.357178 0.564872 0.021176
Si Si7 0.779625 0.567481 0.608673
Si Si8 0.897753 0.565930 0.706658
O O1 0.479190 0.750000 0.640363
O O2 0.513081 0.482649 0.674057
O O3 0.452304 0.503106 0.530281
O O4 0.442470 0.525084 0.756527
O O5 0.624869 0.250000 0.734534
O O6 0.590688 0.507715 0.661232
O O7 0.668587 0.482798 0.658103
O O8 0.632107 0.509562 0.854845
O O9 0.556194 0.250000 0.600339
O O10 0.190545 0.250000 0.978234
O O11 0.186006 0.960117 0.053422
O O12 0.241744 0.039431 0.910737
O O13 0.184394 0.750000 0.215865
O O14 0.204817 0.460692 0.262422
O O15 0.130936 0.526869 0.207638
O O16 0.357044 0.750000 0.031945
O O17 0.313579 0.511222 0.980616
O O18 0.389765 0.513290 0.925540
O O19 0.769065 0.750000 0.592710
O O20 0.888906 0.750000 0.722624
#
# Coordination Sequence:
#
# PCOD8253782 Si02
#       8
#     8   8   8   8   8   8   8   8
#     4   9  17  30  50  75 104 137 172 217 272 321
#     4   9  18  33  53  77 105 139 176 215 267 325
#     4   9  17  30  49  74 103 136 175 217 260 317
#     4  11  22  35  55  80 107 140 178 224 274 324
#     4  11  22  36  54  77 107 139 178 224 269 320
#     4   8  16  32  54  76 101 136 174 216 262 319
#     4  10  21  37  56  79 107 138 179 224 271 327
#     4   9  17  33  56  78 102 136 178 221 268 321
#
# _framework density 19.105011000000001
#
# number of rings (size 3 to 8) (size 9 to 14) (size 15 to 20)
#    0.000    2.500    0.000    3.375    1.750    2.500 
#    0.000    4.375    0.000    4.500    0.000    0.000 
#    0.000    0.000    0.000    0.000    0.000    0.000 
#
# Total GULP energy -793547.041734 kJ/mol
# GULP energy per Si atom -12399.172527 kJ/mol
# Density = 1.906153 g / cm^3
# Si number density = 19.105011 Si / 1000 Ang^3
#
#
#
# Elastic Constant Matrix: (Units=GPa)
#
#
# Indices 1 2 3 4 5 6 
#
# 1 132.0146 15.6110 68.9560 0.0000 0.0000 0.0000
# 2 15.6110 28.9460 8.3395 0.0000 0.0000 0.0000
# 3 68.9560 8.3395 117.2196 0.0000 0.0000 0.0000
# 4 0.0000 0.0000 0.0000 17.3922 0.0000 0.0000
# 5 0.0000 0.0000 0.0000 0.0000 23.5269 0.0000
# 6 0.0000 0.0000 0.0000 0.0000 0.0000 28.5940
#
#
#
# Elastic Compliance Matrix: (Units=1/GPa)
#
#
# Indices 1 2 3 4 5 6 
#
# 1 0.011441 -0.004320 -0.006423 0.000000 0.000000 0.000000
# 2 -0.004320 0.036901 -0.000084 0.000000 0.000000 0.000000
# 3 -0.006423 -0.000084 0.012315 0.000000 0.000000 0.000000
# 4 0.000000 0.000000 0.000000 0.057497 0.000000 0.000000
# 5 0.000000 0.000000 0.000000 0.000000 0.042504 0.000000
# 6 0.000000 0.000000 0.000000 0.000000 0.000000 0.034972
#
#
# Mechanical properties :
#
#
# Convention : Reuss Voigt Hill
#
# Bulk Modulus (GPa) = 25.63866 51.55480 38.59673
# Shear Modulus (GPa) = 21.71222 26.25421 23.98322
#
# Velocity S-wave (km/s) = 3.37481 3.71105 3.54692
# Velocity P-wave (km/s) = 5.35115 6.73840 6.08444
#
# Compressibility (1/GPa) = 0.03900360
#
# Stress axis : x y z
#
# Youngs Moduli (GPa) = 87.40826 27.09957 81.20005
#
# Poissons Ratio (x) = 0.11706 0.52153
# Poissons Ratio (y) = 0.37757 0.00684
# Poissons Ratio (z) = 0.56140 0.00228
#
# Static dielectric constant tensor:
#      x y z
#    x 3.588360 0.000000 0.000000 
#    y 0.000000 3.170770 0.000000 
#    z 0.000000 0.000000 3.721220 
# 
# 
# High freq. dielectric constant tensor:
#      x y z
#    x 1.744520 0.000000 0.000000 
#    y 0.000000 1.714430 0.000000 
#    z 0.000000 0.000000 1.739220 
# 
# From -- ./inp_files/15797.got.cif
#   From: 2010.03.12/outbox.cif.g09.slc.cpg/sg62_8_cif.got.tgz:15797.got - 2010.04.10 19:12:36.
