data_PCOD8253655
_publ_section_title
;
Structure prediction by ZEFSAII (Michael W. Deem and Ramdas Pophale) SiO2 
 PCOD8253655
Probable space group: P N M A
;
_chemical_formula_sum "Si O2"
_cell_formula_units_Z 48
_cell_length_a 11.947853
_cell_length_b 9.041862
_cell_length_c 23.660467
_cell_angle_alpha 90.000000
_cell_angle_beta 90.000000
_cell_angle_gamma 90.000000
_cell_volume 2556.060078
_symmetry_space_group_name_H-M "P N M A"
_symmetry_group_IT_number 62
_symmetry_cell_setting 'orthorhombic'
loop_
_space_group_symop_operation_xyz
x,y,z
1/2-x,-y,1/2+z
1/2+x,1/2-y,1/2-z
-x,1/2+y,-z
-x,-y,-z
1/2+x,y,1/2-z
1/2-x,1/2+y,1/2+z
x,1/2-y,z
loop_
_atom_site_type_symbol
_atom_site_label
_atom_site_fract_x
_atom_site_fract_y
_atom_site_fract_z
Si Si1 0.770839 0.580538 0.963199
Si Si2 0.356329 0.079191 0.147583
Si Si3 0.338576 0.425221 0.709074
Si Si4 0.282004 0.423663 0.421603
Si Si5 0.524863 0.423922 0.385696
Si Si6 0.110478 0.077374 0.325010
O O1 0.767949 0.750000 0.981756
O O2 0.675110 0.544528 0.917274
O O3 0.891585 0.539380 0.937086
O O4 0.745585 0.485370 0.018079
O O5 0.328692 0.250000 0.161377
O O6 0.485068 0.040803 0.156110
O O7 0.283365 0.979645 0.189535
O O8 0.343516 0.250000 0.705613
O O9 0.436740 0.492376 0.670581
O O10 0.357440 0.477272 0.772515
O O11 0.288980 0.250000 0.428148
O O12 0.403069 0.484808 0.402563
O O13 0.190473 0.471537 0.375980
O O14 0.524686 0.250000 0.371714
O O15 0.125673 0.250000 0.309861
#
# Coordination Sequence:
#
# PCOD8253655 Si02
#       6
#     8   8   8   8   8   8
#     4   9  18  34  56  81 112 150 188 232 279 325
#     4   9  20  40  61  79 108 152 193 225 274 342
#     4  11  23  37  57  85 114 142 184 240 292 332
#     4  10  21  35  56  86 114 146 190 232 274 332
#     4   9  19  37  58  82 113 152 192 226 276 340
#     4  10  22  39  58  81 111 152 194 229 273 338
#
# _framework density 18.7789
#
# number of rings (size 3 to 8) (size 9 to 14) (size 15 to 20)
#    0.000    2.333    0.000    3.000    2.333    5.333 
#    0.000    0.000    0.000    0.000    0.000    0.000 
#    0.000    0.000    0.000    0.000    0.000    0.000 
#
# Total GULP energy -595362.311016 kJ/mol
# GULP energy per Si atom -12403.381480 kJ/mol
# Density = 1.873616 g / cm^3
# Si number density = 18.778900 Si / 1000 Ang^3
#
#
#
# Elastic Constant Matrix: (Units=GPa)
#
#
# Indices 1 2 3 4 5 6 
#
# 1 108.3104 37.8649 76.2230 0.0000 0.0000 0.0000
# 2 37.8649 66.2813 63.2031 0.0000 0.0000 0.0000
# 3 76.2230 63.2031 152.9186 0.0000 0.0000 0.0000
# 4 0.0000 0.0000 0.0000 38.1896 0.0000 0.0000
# 5 0.0000 0.0000 0.0000 0.0000 17.0455 0.0000
# 6 0.0000 0.0000 0.0000 0.0000 0.0000 12.6030
#
#
#
# Elastic Compliance Matrix: (Units=1/GPa)
#
#
# Indices 1 2 3 4 5 6 
#
# 1 0.014428 -0.002285 -0.006247 0.000000 0.000000 0.000000
# 2 -0.002285 0.025263 -0.009302 0.000000 0.000000 0.000000
# 3 -0.006247 -0.009302 0.013498 0.000000 0.000000 0.000000
# 4 0.000000 0.000000 0.000000 0.026185 0.000000 0.000000
# 5 0.000000 0.000000 0.000000 0.000000 0.058666 0.000000
# 6 0.000000 0.000000 0.000000 0.000000 0.000000 0.079346
#
#
# Mechanical properties :
#
#
# Convention : Reuss Voigt Hill
#
# Bulk Modulus (GPa) = 57.07923 75.78806 66.43364
# Shear Modulus (GPa) = 19.31267 23.58224 21.44746
#
# Velocity S-wave (km/s) = 3.21038 3.54755 3.38317
# Velocity P-wave (km/s) = 6.64857 7.56478 7.12142
#
# Compressibility (1/GPa) = 0.01751951
#
# Stress axis : x y z
#
# Youngs Moduli (GPa) = 69.30910 39.58321 74.08396
#
# Poissons Ratio (x) = 0.09046 0.46282
# Poissons Ratio (y) = 0.15840 0.68916
# Poissons Ratio (z) = 0.43299 0.36822
#
# Static dielectric constant tensor:
#      x y z
#    x 3.706530 0.000000 0.000000 
#    y 0.000000 3.278650 0.000000 
#    z 0.000000 0.000000 3.418720 
# 
# 
# High freq. dielectric constant tensor:
#      x y z
#    x 1.735410 0.000000 0.000000 
#    y 0.000000 1.715990 0.000000 
#    z 0.000000 0.000000 1.734630 
# 
# From -- ./inp_files/29247.got.cif
#   From: 2010.03.12/outbox.cif.g09.slc.cpg/sg62_15_cif.got.tgz:29247.got - 2010.04.10 19:12:36.
