data_PCOD8253074
_publ_section_title
;
Structure prediction by ZEFSAII (Michael W. Deem and Ramdas Pophale) SiO2 
 PCOD8253074
Probable space group: P N M A
;
_chemical_formula_sum "Si O2"
_cell_formula_units_Z 36
_cell_length_a 4.907304
_cell_length_b 24.893878
_cell_length_c 12.441324
_cell_angle_alpha 90.000000
_cell_angle_beta 90.000000
_cell_angle_gamma 90.000000
_cell_volume 1519.854871
_symmetry_space_group_name_H-M "P N M A"
_symmetry_group_IT_number 62
_symmetry_cell_setting 'orthorhombic'
loop_
_space_group_symop_operation_xyz
x,y,z
1/2-x,-y,1/2+z
1/2+x,1/2-y,1/2-z
-x,1/2+y,-z
-x,-y,-z
1/2+x,y,1/2-z
1/2-x,1/2+y,1/2+z
x,1/2-y,z
loop_
_atom_site_type_symbol
_atom_site_label
_atom_site_fract_x
_atom_site_fract_y
_atom_site_fract_z
Si Si1 0.073332 0.750000 0.177431
Si Si2 0.078544 0.493948 0.319139
Si Si3 0.077243 0.190476 0.529374
Si Si4 0.303335 0.392052 0.825291
Si Si5 0.866363 0.623041 0.674889
O O1 0.255903 0.750000 0.288890
O O2 0.160454 0.802803 0.109179
O O3 0.758703 0.495324 0.290817
O O4 0.155937 0.548935 0.382486
O O5 0.152463 0.437415 0.376896
O O6 0.948136 0.250000 0.507000
O O7 0.850926 0.152822 0.584113
O O8 0.185311 0.165432 0.419077
O O9 0.003837 0.385648 0.776807
O O10 0.157657 0.632377 0.728597
#
# Coordination Sequence:
#
# PCOD8253074 Si02
#       5
#     4   8   8   8   8
#     4  10  22  40  58  82 116 144 180 234 278 334
#     4   8  16  33  57  82 111 148 185 233 291 334
#     4  10  24  39  59  90 110 162 194 230 289 345
#     4  10  20  36  59  87 118 149 187 237 291 349
#     4  10  22  41  60  83 117 151 195 245 280 330
#
# _framework density 23.686474
#
# number of rings (size 3 to 8) (size 9 to 14) (size 15 to 20)
#    0.667    1.778    0.000    1.333    0.000    5.333 
#    0.000    0.000    0.000   16.000    0.000    0.000 
#    0.000    0.000    0.000    0.000    0.000    0.000 
#
# Total GULP energy -446002.249182 kJ/mol
# GULP energy per Si atom -12388.951366 kJ/mol
# Density = 2.363256 g / cm^3
# Si number density = 23.686474 Si / 1000 Ang^3
#
#
#
# Elastic Constant Matrix: (Units=GPa)
#
#
# Indices 1 2 3 4 5 6 
#
# 1 62.2851 7.5541 -0.4335 0.0000 0.0000 0.0000
# 2 7.5541 197.6202 66.8660 0.0000 0.0000 0.0000
# 3 -0.4335 66.8660 73.4269 0.0000 0.0000 0.0000
# 4 0.0000 0.0000 0.0000 32.1923 0.0000 0.0000
# 5 0.0000 0.0000 0.0000 0.0000 8.1853 0.0000
# 6 0.0000 0.0000 0.0000 0.0000 0.0000 15.3767
#
#
#
# Elastic Compliance Matrix: (Units=1/GPa)
#
#
# Indices 1 2 3 4 5 6 
#
# 1 0.016176 -0.000940 0.000952 0.000000 0.000000 0.000000
# 2 -0.000940 0.007368 -0.006716 0.000000 0.000000 0.000000
# 3 0.000952 -0.006716 0.019740 0.000000 0.000000 0.000000
# 4 0.000000 0.000000 0.000000 0.031063 0.000000 0.000000
# 5 0.000000 0.000000 0.000000 0.000000 0.122171 0.000000
# 6 0.000000 0.000000 0.000000 0.000000 0.000000 0.065034
#
#
# Mechanical properties :
#
#
# Convention : Reuss Voigt Hill
#
# Bulk Modulus (GPa) = 33.47144 53.47838 43.47491
# Shear Modulus (GPa) = 17.54884 28.44054 22.99469
#
# Velocity S-wave (km/s) = 2.72486 3.46888 3.11914
# Velocity P-wave (km/s) = 4.90526 6.21859 5.60055
#
# Compressibility (1/GPa) = 0.02987622
#
# Stress axis : x y z
#
# Youngs Moduli (GPa) = 61.82041 135.71445 50.65824
#
# Poissons Ratio (x) = 0.12763 -0.04822
# Poissons Ratio (y) = 0.05814 0.34020
# Poissons Ratio (z) = -0.05884 0.91140
#
# Static dielectric constant tensor:
#      x y z
#    x 4.030630 0.000000 0.000000 
#    y 0.000000 4.881620 0.000000 
#    z 0.000000 0.000000 3.572390 
# 
# 
# High freq. dielectric constant tensor:
#      x y z
#    x 1.938600 0.000000 0.000000 
#    y 0.000000 1.967570 0.000000 
#    z 0.000000 0.000000 1.876760 
# 
# From -- ./inp_files/10719.got.cif
#   From: 2010.03.12/outbox.cif.g09.slc.cpg/sg62_6_cif.got.tgz:10719.got - 2010.04.10 19:12:36.
