data_PCOD8253749
_publ_section_title
;
Structure prediction by ZEFSAII (Michael W. Deem and Ramdas Pophale) SiO2 
 PCOD8253749
Probable space group: P N M A
;
_chemical_formula_sum "Si O2"
_cell_formula_units_Z 56
_cell_length_a 30.217197
_cell_length_b 16.374060
_cell_length_c 5.350002
_cell_angle_alpha 90.000000
_cell_angle_beta 90.000000
_cell_angle_gamma 90.000000
_cell_volume 2647.064342
_symmetry_space_group_name_H-M "P N M A"
_symmetry_group_IT_number 62
_symmetry_cell_setting 'orthorhombic'
loop_
_space_group_symop_operation_xyz
x,y,z
1/2-x,-y,1/2+z
1/2+x,1/2-y,1/2-z
-x,1/2+y,-z
-x,-y,-z
1/2+x,y,1/2-z
1/2-x,1/2+y,1/2+z
x,1/2-y,z
loop_
_atom_site_type_symbol
_atom_site_label
_atom_site_fract_x
_atom_site_fract_y
_atom_site_fract_z
Si Si1 0.697662 0.656189 0.087545
Si Si2 0.071186 0.499891 0.919177
Si Si3 0.168746 0.158209 0.391909
Si Si4 0.510551 0.067655 0.194370
Si Si5 0.792295 0.581437 0.105349
Si Si6 0.834859 0.415203 0.088490
Si Si7 0.573159 0.339582 0.920078
O O1 0.712212 0.750000 0.079356
O O2 0.740939 0.600648 0.081187
O O3 0.670742 0.640462 0.342883
O O4 0.667880 0.637006 0.843619
O O5 0.117821 0.542873 0.930445
O O6 0.074485 0.418424 0.753643
O O7 0.034425 0.570877 0.855360
O O8 0.055535 0.465696 0.181312
O O9 0.187887 0.250000 0.397678
O O10 0.188736 0.112017 0.630597
O O11 0.115789 0.157647 0.401213
O O12 0.181243 0.118652 0.128192
O O13 0.526797 0.153735 0.077321
O O14 0.500000 0.000000 0.000000
O O15 0.796748 0.483806 0.093977
O O16 0.572064 0.250000 0.783767
#
# Coordination Sequence:
#
# PCOD8253749 Si02
#       7
#     8   8   8   8   8   8   8
#     4  12  27  46  66  94 133 177 223 281 333 386
#     4  10  21  40  66  92 128 170 221 267 328 396
#     4  11  22  36  62  98 137 173 208 269 341 401
#     4   9  20  38  65  92 122 169 215 262 332 394
#     4  12  23  43  67  96 129 171 227 273 334 399
#     4  12  25  43  73  96 130 171 229 276 326 403
#     4  10  21  36  59  97 136 166 209 269 340 404
#
# _framework density 21.155512999999999
#
# number of rings (size 3 to 8) (size 9 to 14) (size 15 to 20)
#    0.000    1.143    1.429    5.143    4.000    0.571 
#    0.000    1.429    0.000    0.857    0.000    0.000 
#    0.000    0.000    0.000    0.000    0.000    0.000 
#
# Total GULP energy -693856.937096 kJ/mol
# GULP energy per Si atom -12390.302448 kJ/mol
# Density = 2.110736 g / cm^3
# Si number density = 21.155513 Si / 1000 Ang^3
#
#
#
# Elastic Constant Matrix: (Units=GPa)
#
#
# Indices 1 2 3 4 5 6 
#
# 1 111.5377 32.6649 25.7335 0.0000 0.0000 0.0000
# 2 32.6649 70.1192 28.5018 0.0000 0.0000 0.0000
# 3 25.7335 28.5018 108.9448 0.0000 0.0000 0.0000
# 4 0.0000 0.0000 0.0000 23.3222 0.0000 0.0000
# 5 0.0000 0.0000 0.0000 0.0000 34.4745 0.0000
# 6 0.0000 0.0000 0.0000 0.0000 0.0000 24.3867
#
#
#
# Elastic Compliance Matrix: (Units=1/GPa)
#
#
# Indices 1 2 3 4 5 6 
#
# 1 0.010557 -0.004369 -0.001351 0.000000 0.000000 0.000000
# 2 -0.004369 0.017766 -0.003616 0.000000 0.000000 0.000000
# 3 -0.001351 -0.003616 0.010444 0.000000 0.000000 0.000000
# 4 0.000000 0.000000 0.000000 0.042878 0.000000 0.000000
# 5 0.000000 0.000000 0.000000 0.000000 0.029007 0.000000
# 6 0.000000 0.000000 0.000000 0.000000 0.000000 0.041006
#
#
# Mechanical properties :
#
#
# Convention : Reuss Voigt Hill
#
# Bulk Modulus (GPa) = 49.76073 51.60025 50.68049
# Shear Modulus (GPa) = 28.24424 30.01679 29.13051
#
# Velocity S-wave (km/s) = 3.65783 3.77087 3.71478
# Velocity P-wave (km/s) = 6.43523 6.58810 6.51211
#
# Compressibility (1/GPa) = 0.02009617
#
# Stress axis : x y z
#
# Youngs Moduli (GPa) = 94.72725 56.28582 95.74869
#
# Poissons Ratio (x) = 0.24590 0.12932
# Poissons Ratio (y) = 0.41384 0.34623
# Poissons Ratio (z) = 0.12794 0.20353
#
# Static dielectric constant tensor:
#      x y z
#    x 4.887150 0.000000 0.000000 
#    y 0.000000 4.360350 0.000000 
#    z 0.000000 0.000000 4.256400 
# 
# 
# High freq. dielectric constant tensor:
#      x y z
#    x 1.833150 0.000000 0.000000 
#    y 0.000000 1.822610 0.000000 
#    z 0.000000 0.000000 1.841900 
# 
# From -- ./inp_files/3603.got.cif
#   From: 2010.03.12/outbox.cif.g09.slc.cpg/sg62_2_cif.got.tgz:3603.got - 2010.04.10 19:12:36.
