data_PCOD8253167
_publ_section_title
;
Structure prediction by ZEFSAII (Michael W. Deem and Ramdas Pophale) SiO2 
 PCOD8253167
Probable space group: P N M A
;
_chemical_formula_sum "Si O2"
_cell_formula_units_Z 40
_cell_length_a 9.507648
_cell_length_b 8.368368
_cell_length_c 25.507406
_cell_angle_alpha 90.000000
_cell_angle_beta 90.000000
_cell_angle_gamma 90.000000
_cell_volume 2029.458428
_symmetry_space_group_name_H-M "P N M A"
_symmetry_group_IT_number 62
_symmetry_cell_setting 'orthorhombic'
loop_
_space_group_symop_operation_xyz
x,y,z
1/2-x,-y,1/2+z
1/2+x,1/2-y,1/2-z
-x,1/2+y,-z
-x,-y,-z
1/2+x,y,1/2-z
1/2-x,1/2+y,1/2+z
x,1/2-y,z
loop_
_atom_site_type_symbol
_atom_site_label
_atom_site_fract_x
_atom_site_fract_y
_atom_site_fract_z
Si Si1 0.844516 0.566122 0.789614
Si Si2 0.842710 0.561332 0.498775
Si Si3 0.158044 0.938653 0.097669
Si Si4 0.852912 0.565184 0.204160
Si Si5 0.349661 0.060181 0.406493
O O1 0.810614 0.750000 0.777959
O O2 0.797516 0.523685 0.848459
O O3 0.761558 0.455998 0.749072
O O4 0.008999 0.534830 0.781430
O O5 0.843179 0.750000 0.498781
O O6 0.764475 0.498112 0.446758
O O7 0.759267 0.498994 0.549724
O O8 0.000000 0.500000 0.500000
O O9 0.168298 0.750000 0.105496
O O10 0.000688 0.984245 0.080796
O O11 0.894128 0.750000 0.198469
O O12 0.790929 0.501358 0.149196
O O13 0.365384 0.250000 0.405738
#
# Coordination Sequence:
#
# PCOD8253167 Si02
#       5
#     8   8   8   8   8
#     4  11  22  38  59  85 114 149 188 232 280 333
#     4  10  23  38  56  82 114 146 183 228 278 330
#     4  10  20  37  58  83 111 146 188 230 274 331
#     4  11  22  38  59  85 114 149 188 232 280 333
#     4  10  20  37  58  83 111 146 188 230 274 331
#
# _framework density 19.709693000000001
#
# number of rings (size 3 to 8) (size 9 to 14) (size 15 to 20)
#    0.000    1.600    0.000    7.800    0.000    4.800 
#    0.000    4.000    0.000    0.000    0.000    0.000 
#    0.000    0.000    0.000    0.000    0.000    0.000 
#
# Total GULP energy -496174.922339 kJ/mol
# GULP energy per Si atom -12404.373058 kJ/mol
# Density = 1.966483 g / cm^3
# Si number density = 19.709693 Si / 1000 Ang^3
#
#
#
# Elastic Constant Matrix: (Units=GPa)
#
#
# Indices 1 2 3 4 5 6 
#
# 1 102.1056 6.2249 81.1064 0.0000 0.0000 0.0000
# 2 6.2249 59.4623 6.0723 0.0000 0.0000 0.0000
# 3 81.1064 6.0723 135.7109 0.0000 0.0000 0.0000
# 4 0.0000 0.0000 0.0000 31.9868 0.0000 0.0000
# 5 0.0000 0.0000 0.0000 0.0000 40.9558 0.0000
# 6 0.0000 0.0000 0.0000 0.0000 0.0000 33.6978
#
#
#
# Elastic Compliance Matrix: (Units=1/GPa)
#
#
# Indices 1 2 3 4 5 6 
#
# 1 0.018685 -0.000819 -0.011130 0.000000 0.000000 0.000000
# 2 -0.000819 0.016931 -0.000268 0.000000 0.000000 0.000000
# 3 -0.011130 -0.000268 0.014032 0.000000 0.000000 0.000000
# 4 0.000000 0.000000 0.000000 0.031263 0.000000 0.000000
# 5 0.000000 0.000000 0.000000 0.000000 0.024417 0.000000
# 6 0.000000 0.000000 0.000000 0.000000 0.000000 0.029676
#
#
# Mechanical properties :
#
#
# Convention : Reuss Voigt Hill
#
# Bulk Modulus (GPa) = 39.66217 53.78734 46.72475
# Shear Modulus (GPa) = 29.78992 34.91975 32.35483
#
# Velocity S-wave (km/s) = 3.89194 4.21373 4.05602
# Velocity P-wave (km/s) = 6.35319 7.14304 6.75966
#
# Compressibility (1/GPa) = 0.02521294
#
# Stress axis : x y z
#
# Youngs Moduli (GPa) = 53.51929 59.06497 71.26348
#
# Poissons Ratio (x) = 0.04840 0.79317
# Poissons Ratio (y) = 0.04386 0.01908
# Poissons Ratio (z) = 0.59568 0.01582
#
# Static dielectric constant tensor:
#      x y z
#    x 3.357740 0.000000 0.000000 
#    y 0.000000 3.587880 0.000000 
#    z 0.000000 0.000000 3.862930 
# 
# 
# High freq. dielectric constant tensor:
#      x y z
#    x 1.759530 0.000000 0.000000 
#    y 0.000000 1.777660 0.000000 
#    z 0.000000 0.000000 1.782630 
# 
# From -- ./inp_files/30679.got.cif
#   From: 2010.03.12/outbox.cif.g09.slc.cpg/sg62_16_cif.got.tgz:30679.got - 2010.04.10 19:12:36.
