data_PCOD8253253
_publ_section_title
;
Structure prediction by ZEFSAII (Michael W. Deem and Ramdas Pophale) SiO2 
 PCOD8253253
Probable space group: P N M A
;
_chemical_formula_sum "Si O2"
_cell_formula_units_Z 64
_cell_length_a 14.732427
_cell_length_b 8.932209
_cell_length_c 23.397191
_cell_angle_alpha 90.000000
_cell_angle_beta 90.000000
_cell_angle_gamma 90.000000
_cell_volume 3078.909294
_symmetry_space_group_name_H-M "P N M A"
_symmetry_group_IT_number 62
_symmetry_cell_setting 'orthorhombic'
loop_
_space_group_symop_operation_xyz
x,y,z
1/2-x,-y,1/2+z
1/2+x,1/2-y,1/2-z
-x,1/2+y,-z
-x,-y,-z
1/2+x,y,1/2-z
1/2-x,1/2+y,1/2+z
x,1/2-y,z
loop_
_atom_site_type_symbol
_atom_site_label
_atom_site_fract_x
_atom_site_fract_y
_atom_site_fract_z
Si Si1 0.937713 0.422141 0.253603
Si Si2 0.270242 0.926610 0.755567
Si Si3 0.246499 0.917418 0.021046
Si Si4 0.798991 0.919996 0.872324
Si Si5 0.504108 0.916960 0.630643
Si Si6 0.576738 0.928134 0.166726
Si Si7 0.433865 0.920127 0.956059
Si Si8 0.581357 0.423766 0.532897
O O1 0.939306 0.250000 0.274408
O O2 0.835524 0.469100 0.236215
O O3 0.999844 0.447356 0.198074
O O4 0.982764 0.522475 0.302819
O O5 0.288194 0.750000 0.763264
O O6 0.294001 0.982080 0.691858
O O7 0.333581 0.010505 0.801196
O O8 0.206684 0.750000 0.025989
O O9 0.262397 0.981029 0.085201
O O10 0.337587 0.918363 0.986057
O O11 0.178530 0.023395 0.987497
O O12 0.762601 0.750000 0.873846
O O13 0.902533 0.930601 0.894318
O O14 0.542487 0.750000 0.619355
O O15 0.570241 0.034280 0.599732
O O16 0.581721 0.750000 0.165210
O O17 0.573424 0.989597 0.102669
O O18 0.466448 0.750000 0.943921
O O19 0.500000 0.000000 0.000000
O O20 0.500000 0.500000 0.500000
O O21 0.574012 0.250000 0.523202
#
# Coordination Sequence:
#
# PCOD8253253 Si02
#       8
#     8   8   8   8   8   8   8   8
#     4  10  22  42  69  95 126 171 217 267 326 393
#     4  10  22  42  68  98 128 171 219 267 329 389
#     4  11  25  43  65  93 126 167 215 267 325 386
#     4  10  20  37  63  93 128 165 211 265 323 391
#     4  10  20  37  60  90 128 166 209 259 319 384
#     4  12  26  44  68 100 138 176 219 276 331 392
#     4  11  27  50  73  96 128 174 227 283 335 391
#     4  12  24  38  59  89 128 169 211 257 313 381
#
# _framework density 20.786581999999999
#
# number of rings (size 3 to 8) (size 9 to 14) (size 15 to 20)
#    0.000    1.250    2.500    3.000    3.500    3.500 
#    0.000    0.000    0.000    0.000    0.000    0.000 
#    0.000    0.000    0.000    0.000    0.000    0.000 
#
# Total GULP energy -793703.701410 kJ/mol
# GULP energy per Si atom -12401.620335 kJ/mol
# Density = 2.073927 g / cm^3
# Si number density = 20.786582 Si / 1000 Ang^3
#
#
#
# Elastic Constant Matrix: (Units=GPa)
#
#
# Indices 1 2 3 4 5 6 
#
# 1 84.3527 51.0083 38.1373 0.0000 0.0000 0.0000
# 2 51.0083 153.6261 71.5427 0.0000 0.0000 0.0000
# 3 38.1373 71.5427 136.9720 0.0000 0.0000 0.0000
# 4 0.0000 0.0000 0.0000 36.3779 0.0000 0.0000
# 5 0.0000 0.0000 0.0000 0.0000 34.2192 0.0000
# 6 0.0000 0.0000 0.0000 0.0000 0.0000 27.5781
#
#
#
# Elastic Compliance Matrix: (Units=1/GPa)
#
#
# Indices 1 2 3 4 5 6 
#
# 1 0.015286 -0.004088 -0.002121 0.000000 0.000000 0.000000
# 2 -0.004088 0.009695 -0.003926 0.000000 0.000000 0.000000
# 3 -0.002121 -0.003926 0.009942 0.000000 0.000000 0.000000
# 4 0.000000 0.000000 0.000000 0.027489 0.000000 0.000000
# 5 0.000000 0.000000 0.000000 0.000000 0.029223 0.000000
# 6 0.000000 0.000000 0.000000 0.000000 0.000000 0.036261
#
#
# Mechanical properties :
#
#
# Convention : Reuss Voigt Hill
#
# Bulk Modulus (GPa) = 68.24191 77.36972 72.80581
# Shear Modulus (GPa) = 32.66950 33.91922 33.29436
#
# Velocity S-wave (km/s) = 3.96872 4.04392 4.00650
# Velocity P-wave (km/s) = 7.34180 7.68805 7.51692
#
# Compressibility (1/GPa) = 0.01465375
#
# Stress axis : x y z
#
# Youngs Moduli (GPa) = 65.42068 103.15030 100.58644
#
# Poissons Ratio (x) = 0.42163 0.21335
# Poissons Ratio (y) = 0.26741 0.39486
# Poissons Ratio (z) = 0.13876 0.40492
#
# Static dielectric constant tensor:
#      x y z
#    x 3.700030 0.000000 0.000000 
#    y 0.000000 3.947020 0.000000 
#    z 0.000000 0.000000 3.933500 
# 
# 
# High freq. dielectric constant tensor:
#      x y z
#    x 1.813560 0.000000 0.000000 
#    y 0.000000 1.806020 0.000000 
#    z 0.000000 0.000000 1.828470 
# 
# From -- ./inp_files/29916.got.cif
#   From: 2010.03.12/outbox.cif.g09.slc.cpg/sg62_15_cif.got.tgz:29916.got - 2010.04.10 19:12:36.
