data_PCOD8253618
_publ_section_title
;
Structure prediction by ZEFSAII (Michael W. Deem and Ramdas Pophale) SiO2 
 PCOD8253618
Probable space group: P N M A
;
_chemical_formula_sum "Si O2"
_cell_formula_units_Z 64
_cell_length_a 16.843721
_cell_length_b 8.911100
_cell_length_c 21.891658
_cell_angle_alpha 90.000000
_cell_angle_beta 90.000000
_cell_angle_gamma 90.000000
_cell_volume 3285.852099
_symmetry_space_group_name_H-M "P N M A"
_symmetry_group_IT_number 62
_symmetry_cell_setting 'orthorhombic'
loop_
_space_group_symop_operation_xyz
x,y,z
1/2-x,-y,1/2+z
1/2+x,1/2-y,1/2-z
-x,1/2+y,-z
-x,-y,-z
1/2+x,y,1/2-z
1/2-x,1/2+y,1/2+z
x,1/2-y,z
loop_
_atom_site_type_symbol
_atom_site_label
_atom_site_fract_x
_atom_site_fract_y
_atom_site_fract_z
Si Si1 0.913004 0.926324 0.819177
Si Si2 0.677548 0.426233 0.714111
Si Si3 0.122485 0.427982 0.657553
Si Si4 0.188736 0.572952 0.373793
Si Si5 0.234530 0.073762 0.103469
Si Si6 0.947148 0.927863 0.117741
Si Si7 0.184458 0.427235 0.971393
Si Si8 0.043962 0.427831 0.317470
O O1 0.925486 0.750000 0.820791
O O2 0.823011 0.968008 0.839522
O O3 0.933485 0.988040 0.750963
O O4 0.967977 0.995651 0.872490
O O5 0.667861 0.250000 0.712128
O O6 0.667944 0.486486 0.782114
O O7 0.762666 0.471076 0.687384
O O8 0.606228 0.490241 0.673371
O O9 0.112557 0.250000 0.653001
O O10 0.180940 0.488142 0.604919
O O11 0.036842 0.502701 0.656937
O O12 0.170206 0.750000 0.377432
O O13 0.239672 0.515484 0.431948
O O14 0.107761 0.480727 0.367693
O O15 0.252161 0.250000 0.101164
O O16 0.191994 0.019746 0.040977
O O17 0.959382 0.750000 0.118364
O O18 0.900586 0.981995 0.056196
O O19 0.185478 0.250000 0.963957
O O20 0.037553 0.250000 0.317394
#
# Coordination Sequence:
#
# PCOD8253618 Si02
#       8
#     8   8   8   8   8   8   8   8
#     4  10  21  34  51  80 117 146 172 209 267 331
#     4   8  15  29  51  77 103 130 168 217 267 306
#     4  11  21  35  55  79 104 137 180 225 268 315
#     4   9  17  33  57  80 100 132 179 225 261 306
#     4  10  21  38  55  76 110 148 177 216 270 322
#     4   9  16  31  55  80 106 142 181 218 257 305
#     4   8  17  35  58  79 105 143 186 222 262 312
#     4  11  22  35  51  79 113 142 171 212 271 330
#
# _framework density 19.477443000000001
#
# number of rings (size 3 to 8) (size 9 to 14) (size 15 to 20)
#    0.000    2.500    1.250    3.000    0.000    1.500 
#    0.000    5.000    0.000    0.000    0.000    0.000 
#    0.000    0.000    0.000    0.000    0.000    0.000 
#
# Total GULP energy -793153.358487 kJ/mol
# GULP energy per Si atom -12393.021226 kJ/mol
# Density = 1.943311 g / cm^3
# Si number density = 19.477443 Si / 1000 Ang^3
#
#
#
# Elastic Constant Matrix: (Units=GPa)
#
#
# Indices 1 2 3 4 5 6 
#
# 1 112.7287 31.9700 13.4853 0.0000 0.0000 0.0000
# 2 31.9700 40.6109 9.4416 0.0000 0.0000 0.0000
# 3 13.4853 9.4416 42.1461 0.0000 0.0000 0.0000
# 4 0.0000 0.0000 0.0000 17.4716 0.0000 0.0000
# 5 0.0000 0.0000 0.0000 0.0000 24.2043 0.0000
# 6 0.0000 0.0000 0.0000 0.0000 0.0000 26.6809
#
#
#
# Elastic Compliance Matrix: (Units=1/GPa)
#
#
# Indices 1 2 3 4 5 6 
#
# 1 0.011541 -0.008679 -0.001749 0.000000 0.000000 0.000000
# 2 -0.008679 0.032504 -0.004504 0.000000 0.000000 0.000000
# 3 -0.001749 -0.004504 0.025296 0.000000 0.000000 0.000000
# 4 0.000000 0.000000 0.000000 0.057236 0.000000 0.000000
# 5 0.000000 0.000000 0.000000 0.000000 0.041315 0.000000
# 6 0.000000 0.000000 0.000000 0.000000 0.000000 0.037480
#
#
# Mechanical properties :
#
#
# Convention : Reuss Voigt Hill
#
# Bulk Modulus (GPa) = 25.33168 33.91994 29.62581
# Shear Modulus (GPa) = 20.12924 23.04394 21.58659
#
# Velocity S-wave (km/s) = 3.21824 3.44337 3.33271
# Velocity P-wave (km/s) = 5.18105 5.76731 5.48202
#
# Compressibility (1/GPa) = 0.03947626
#
# Stress axis : x y z
#
# Youngs Moduli (GPa) = 86.64412 30.76569 39.53265
#
# Poissons Ratio (x) = 0.26702 0.06912
# Poissons Ratio (y) = 0.75201 0.17807
# Poissons Ratio (z) = 0.15150 0.13858
#
# Static dielectric constant tensor:
#      x y z
#    x 3.611950 0.000000 0.000000 
#    y 0.000000 3.147490 0.000000 
#    z 0.000000 0.000000 3.853700 
# 
# 
# High freq. dielectric constant tensor:
#      x y z
#    x 1.766380 0.000000 0.000000 
#    y 0.000000 1.726780 0.000000 
#    z 0.000000 0.000000 1.745400 
# 
# From -- ./inp_files/29893.got.cif
#   From: 2010.03.12/outbox.cif.g09.slc.cpg/sg62_15_cif.got.tgz:29893.got - 2010.04.10 19:12:36.
