data_PCOD8253615
_publ_section_title
;
Structure prediction by ZEFSAII (Michael W. Deem and Ramdas Pophale) SiO2 
 PCOD8253615
Probable space group: P N M A
;
_chemical_formula_sum "Si O2"
_cell_formula_units_Z 64
_cell_length_a 16.700521
_cell_length_b 9.063215
_cell_length_c 22.306091
_cell_angle_alpha 90.000000
_cell_angle_beta 90.000000
_cell_angle_gamma 90.000000
_cell_volume 3376.259134
_symmetry_space_group_name_H-M "P N M A"
_symmetry_group_IT_number 62
_symmetry_cell_setting 'orthorhombic'
loop_
_space_group_symop_operation_xyz
x,y,z
1/2-x,-y,1/2+z
1/2+x,1/2-y,1/2-z
-x,1/2+y,-z
-x,-y,-z
1/2+x,y,1/2-z
1/2-x,1/2+y,1/2+z
x,1/2-y,z
loop_
_atom_site_type_symbol
_atom_site_label
_atom_site_fract_x
_atom_site_fract_y
_atom_site_fract_z
Si Si1 0.693756 0.425694 0.530063
Si Si2 0.434102 0.575957 0.380797
Si Si3 0.820376 0.083235 0.627167
Si Si4 0.906269 0.425485 0.820559
Si Si5 0.048211 0.074426 0.305357
Si Si6 0.629733 0.918275 0.826508
Si Si7 0.222953 0.421543 0.102302
Si Si8 0.182492 0.415250 0.781946
O O1 0.696873 0.250000 0.528788
O O2 0.607989 0.481889 0.557559
O O3 0.767506 0.479810 0.571880
O O4 0.703043 0.488846 0.463125
O O5 0.421187 0.750000 0.379830
O O6 0.526510 0.532975 0.371192
O O7 0.383977 0.511028 0.325120
O O8 0.849772 0.250000 0.613451
O O9 0.768912 0.083097 0.687826
O O10 0.895232 0.977203 0.639955
O O11 0.899939 0.250000 0.811029
O O12 0.928568 0.498361 0.757281
O O13 0.824135 0.487944 0.846881
O O14 0.054254 0.250000 0.298105
O O15 0.960230 0.017670 0.326689
O O16 0.621688 0.750000 0.808647
O O17 0.680703 0.939397 0.887891
O O18 0.687010 0.991038 0.777636
O O19 0.197848 0.250000 0.107028
O O20 0.156903 0.250000 0.764606
#
# Coordination Sequence:
#
# PCOD8253615 Si02
#       8
#     8   8   8   8   8   8   8   8
#     4   8  16  34  57  77 103 142 184 216 254 314
#     4   8  15  29  51  78 104 133 168 211 255 302
#     4   9  18  33  56  81 101 132 179 221 259 309
#     4  11  21  34  54  81 111 137 171 218 267 318
#     4  11  22  35  51  76 109 139 171 215 269 321
#     4  10  21  34  49  72 104 139 173 211 261 317
#     4  10  21  37  55  76 106 144 180 217 262 315
#     4   9  16  30  52  75  99 130 167 209 260 311
#
# _framework density 18.95589
#
# number of rings (size 3 to 8) (size 9 to 14) (size 15 to 20)
#    0.000    2.500    1.250    3.000    0.000    4.000 
#    0.000    1.250    0.000    1.500    0.000    0.000 
#    0.000    0.000    0.000    0.000    0.000    0.000 
#
# Total GULP energy -793072.326771 kJ/mol
# GULP energy per Si atom -12391.755106 kJ/mol
# Density = 1.891275 g / cm^3
# Si number density = 18.955890 Si / 1000 Ang^3
#
#
#
# Elastic Constant Matrix: (Units=GPa)
#
#
# Indices 1 2 3 4 5 6 
#
# 1 113.3807 34.2434 41.7267 0.0000 0.0000 0.0000
# 2 34.2434 43.5546 19.7099 0.0000 0.0000 0.0000
# 3 41.7267 19.7099 61.1375 0.0000 0.0000 0.0000
# 4 0.0000 0.0000 0.0000 15.7456 0.0000 0.0000
# 5 0.0000 0.0000 0.0000 0.0000 24.1519 0.0000
# 6 0.0000 0.0000 0.0000 0.0000 0.0000 20.5542
#
#
#
# Elastic Compliance Matrix: (Units=1/GPa)
#
#
# Indices 1 2 3 4 5 6 
#
# 1 0.013646 -0.007627 -0.006855 0.000000 0.000000 0.000000
# 2 -0.007627 0.031144 -0.004835 0.000000 0.000000 0.000000
# 3 -0.006855 -0.004835 0.022594 0.000000 0.000000 0.000000
# 4 0.000000 0.000000 0.000000 0.063510 0.000000 0.000000
# 5 0.000000 0.000000 0.000000 0.000000 0.041405 0.000000
# 6 0.000000 0.000000 0.000000 0.000000 0.000000 0.048652
#
#
# Mechanical properties :
#
#
# Convention : Reuss Voigt Hill
#
# Bulk Modulus (GPa) = 34.78185 45.49251 40.13718
# Shear Modulus (GPa) = 18.57585 20.24986 19.41286
#
# Velocity S-wave (km/s) = 3.13381 3.27197 3.20364
# Velocity P-wave (km/s) = 5.61098 6.19077 5.90799
#
# Compressibility (1/GPa) = 0.02875063
#
# Stress axis : x y z
#
# Youngs Moduli (GPa) = 73.28172 32.10889 44.26006
#
# Poissons Ratio (x) = 0.24489 0.30339
# Poissons Ratio (y) = 0.55890 0.21400
# Poissons Ratio (z) = 0.50232 0.15525
#
# Static dielectric constant tensor:
#      x y z
#    x 3.667190 0.000000 0.000000 
#    y 0.000000 3.169500 0.000000 
#    z 0.000000 0.000000 3.507030 
# 
# 
# High freq. dielectric constant tensor:
#      x y z
#    x 1.743880 0.000000 0.000000 
#    y 0.000000 1.706560 0.000000 
#    z 0.000000 0.000000 1.722590 
# 
# From -- ./inp_files/27670.got.cif
#   From: 2010.03.12/outbox.cif.g09.slc.cpg/sg62_14_cif.got.tgz:27670.got - 2010.04.10 19:12:36.
