data_PCOD8253544
_publ_section_title
;
Structure prediction by ZEFSAII (Michael W. Deem and Ramdas Pophale) SiO2 
 PCOD8253544
Probable space group: P N M A
;
_chemical_formula_sum "Si O2"
_cell_formula_units_Z 48
_cell_length_a 17.360931
_cell_length_b 24.130509
_cell_length_c 5.098683
_cell_angle_alpha 90.000000
_cell_angle_beta 90.000000
_cell_angle_gamma 90.000000
_cell_volume 2135.981591
_symmetry_space_group_name_H-M "P N M A"
_symmetry_group_IT_number 62
_symmetry_cell_setting 'orthorhombic'
loop_
_space_group_symop_operation_xyz
x,y,z
1/2-x,-y,1/2+z
1/2+x,1/2-y,1/2-z
-x,1/2+y,-z
-x,-y,-z
1/2+x,y,1/2-z
1/2-x,1/2+y,1/2+z
x,1/2-y,z
loop_
_atom_site_type_symbol
_atom_site_label
_atom_site_fract_x
_atom_site_fract_y
_atom_site_fract_z
Si Si1 0.128326 0.095195 0.771949
Si Si2 0.519798 0.157836 0.421935
Si Si3 0.796965 0.011219 0.268561
Si Si4 0.279660 0.128863 0.070916
Si Si5 0.843395 0.688942 0.624044
Si Si6 0.071985 0.686589 0.431834
O O1 0.057161 0.099406 0.977454
O O2 0.212983 0.107079 0.883976
O O3 0.114802 0.142753 0.555120
O O4 0.132253 0.031576 0.668643
O O5 0.596316 0.195330 0.366557
O O6 0.469730 0.150673 0.158716
O O7 0.467748 0.183886 0.649529
O O8 0.822036 0.075330 0.300825
O O9 0.727779 0.996419 0.466726
O O10 0.241238 0.168463 0.290448
O O11 0.341173 0.163941 0.905017
O O12 0.834866 0.750000 0.491557
O O13 0.072183 0.750000 0.527298
#
# Coordination Sequence:
#
# PCOD8253544 Si02
#       6
#     8   8   8   8   8   8
#     4  10  22  42  68  96 123 168 218 267 309 377
#     4  11  25  42  64  90 125 175 213 253 317 384
#     4  10  20  39  67  93 126 164 211 265 321 371
#     4  10  24  40  63  98 128 165 214 265 322 375
#     4  11  21  39  66  97 126 162 216 267 311 379
#     4  12  25  42  62  91 133 172 205 258 329 387
#
# _framework density 22.472102
#
# number of rings (size 3 to 8) (size 9 to 14) (size 15 to 20)
#    0.000    1.333    3.333    2.000    2.333    4.000 
#    0.000    1.667    0.000    0.000    0.000    0.000 
#    0.000    0.000    0.000    0.000    0.000    0.000 
#
# Total GULP energy -594725.593949 kJ/mol
# GULP energy per Si atom -12390.116541 kJ/mol
# Density = 2.242095 g / cm^3
# Si number density = 22.472102 Si / 1000 Ang^3
#
#
#
# Elastic Constant Matrix: (Units=GPa)
#
#
# Indices 1 2 3 4 5 6 
#
# 1 75.2333 10.4487 13.8369 0.0000 0.0000 0.0000
# 2 10.4487 53.9202 1.4229 0.0000 0.0000 0.0000
# 3 13.8369 1.4229 77.9568 0.0000 0.0000 0.0000
# 4 0.0000 0.0000 0.0000 21.5827 0.0000 0.0000
# 5 0.0000 0.0000 0.0000 0.0000 26.9729 0.0000
# 6 0.0000 0.0000 0.0000 0.0000 0.0000 10.1571
#
#
#
# Elastic Compliance Matrix: (Units=1/GPa)
#
#
# Indices 1 2 3 4 5 6 
#
# 1 0.014115 -0.002670 -0.002457 0.000000 0.000000 0.000000
# 2 -0.002670 0.019060 0.000126 0.000000 0.000000 0.000000
# 3 -0.002457 0.000126 0.013261 0.000000 0.000000 0.000000
# 4 0.000000 0.000000 0.000000 0.046333 0.000000 0.000000
# 5 0.000000 0.000000 0.000000 0.000000 0.037074 0.000000
# 6 0.000000 0.000000 0.000000 0.000000 0.000000 0.098453
#
#
# Mechanical properties :
#
#
# Convention : Reuss Voigt Hill
#
# Bulk Modulus (GPa) = 27.44653 28.72526 28.08590
# Shear Modulus (GPa) = 19.96462 23.83601 21.90032
#
# Velocity S-wave (km/s) = 2.98387 3.26036 3.12517
# Velocity P-wave (km/s) = 4.91034 5.19458 5.05446
#
# Compressibility (1/GPa) = 0.03643447
#
# Stress axis : x y z
#
# Youngs Moduli (GPa) = 70.84837 52.46576 75.40723
#
# Poissons Ratio (x) = 0.14010 0.18524
# Poissons Ratio (y) = 0.18919 -0.00951
# Poissons Ratio (z) = 0.17404 -0.00661
#
# Static dielectric constant tensor:
#      x y z
#    x 3.871620 0.000000 0.000000 
#    y 0.000000 4.358870 0.000000 
#    z 0.000000 0.000000 3.979900 
# 
# 
# High freq. dielectric constant tensor:
#      x y z
#    x 1.865800 0.000000 0.000000 
#    y 0.000000 1.879480 0.000000 
#    z 0.000000 0.000000 1.883200 
# 
# From -- ./inp_files/1760.got.cif
#   From: 2010.03.12/outbox.cif.g09.slc.cpg/sg62_1_cif.got.tgz:1760.got - 2010.04.10 19:12:36.
