data_PCOD8253936
_publ_section_title
;
Structure prediction by ZEFSAII (Michael W. Deem and Ramdas Pophale) SiO2 
 PCOD8253936
Probable space group: P N M A
;
_chemical_formula_sum "Si O2"
_cell_formula_units_Z 48
_cell_length_a 15.286261
_cell_length_b 9.138916
_cell_length_c 17.632769
_cell_angle_alpha 90.000000
_cell_angle_beta 90.000000
_cell_angle_gamma 90.000000
_cell_volume 2463.295277
_symmetry_space_group_name_H-M "P N M A"
_symmetry_group_IT_number 62
_symmetry_cell_setting 'orthorhombic'
loop_
_space_group_symop_operation_xyz
x,y,z
1/2-x,-y,1/2+z
1/2+x,1/2-y,1/2-z
-x,1/2+y,-z
-x,-y,-z
1/2+x,y,1/2-z
1/2-x,1/2+y,1/2+z
x,1/2-y,z
loop_
_atom_site_type_symbol
_atom_site_label
_atom_site_fract_x
_atom_site_fract_y
_atom_site_fract_z
Si Si1 0.422562 0.578808 0.542587
Si Si2 0.759271 0.919478 0.213585
Si Si3 0.061304 0.418941 0.710263
Si Si4 0.402299 0.576949 0.715510
Si Si5 0.582099 0.079769 0.964821
Si Si6 0.243283 0.919547 0.463229
O O1 0.500000 0.500000 0.500000
O O2 0.438850 0.750000 0.535283
O O3 0.420949 0.527770 0.629625
O O4 0.332613 0.532935 0.503061
O O5 0.742005 0.750000 0.232700
O O6 0.857042 0.964898 0.237662
O O7 0.749886 0.952623 0.125349
O O8 0.691302 0.015290 0.260433
O O9 0.035776 0.250000 0.722597
O O10 0.087263 0.451226 0.624206
O O11 0.977643 0.515164 0.730643
O O12 0.399378 0.750000 0.723910
O O13 0.573456 0.250000 0.983003
O O14 0.500000 0.000000 0.000000
O O15 0.669029 0.020179 0.002699
O O16 0.221144 0.750000 0.478798
#
# Coordination Sequence:
#
# PCOD8253936 Si02
#       6
#     8   8   8   8   8   8
#     4  10  22  39  59  85 116 150 187 229 280 334
#     4  10  21  38  60  83 109 148 193 231 274 333
#     4  10  22  40  60  82 111 151 194 230 272 333
#     4  11  23  37  57  87 118 147 183 232 287 334
#     4  11  23  38  58  84 113 148 190 233 279 333
#     4  10  21  38  59  83 113 148 186 231 282 333
#
# _framework density 19.486093
#
# number of rings (size 3 to 8) (size 9 to 14) (size 15 to 20)
#    0.000    1.667    0.000    4.000    0.000   10.000 
#    0.000    0.000    0.000    0.000    0.000    0.000 
#    0.000    0.000    0.000    0.000    0.000    0.000 
#
# Total GULP energy -595506.315938 kJ/mol
# GULP energy per Si atom -12406.381582 kJ/mol
# Density = 1.944174 g / cm^3
# Si number density = 19.486093 Si / 1000 Ang^3
#
#
#
# Elastic Constant Matrix: (Units=GPa)
#
#
# Indices 1 2 3 4 5 6 
#
# 1 108.5437 49.2037 38.5367 0.0000 0.0000 0.0000
# 2 49.2037 73.1269 46.6031 0.0000 0.0000 0.0000
# 3 38.5367 46.6031 88.9504 0.0000 0.0000 0.0000
# 4 0.0000 0.0000 0.0000 30.8170 0.0000 0.0000
# 5 0.0000 0.0000 0.0000 0.0000 44.6098 0.0000
# 6 0.0000 0.0000 0.0000 0.0000 0.0000 36.2002
#
#
#
# Elastic Compliance Matrix: (Units=1/GPa)
#
#
# Indices 1 2 3 4 5 6 
#
# 1 0.013411 -0.007988 -0.001625 0.000000 0.000000 0.000000
# 2 -0.007988 0.025287 -0.009788 0.000000 0.000000 0.000000
# 3 -0.001625 -0.009788 0.017074 0.000000 0.000000 0.000000
# 4 0.000000 0.000000 0.000000 0.032450 0.000000 0.000000
# 5 0.000000 0.000000 0.000000 0.000000 0.022417 0.000000
# 6 0.000000 0.000000 0.000000 0.000000 0.000000 0.027624
#
#
# Mechanical properties :
#
#
# Convention : Reuss Voigt Hill
#
# Bulk Modulus (GPa) = 58.92490 59.92313 59.42401
# Shear Modulus (GPa) = 27.36406 31.41057 29.38731
#
# Velocity S-wave (km/s) = 3.75145 4.01926 3.88766
# Velocity P-wave (km/s) = 7.00497 7.23587 7.12135
#
# Compressibility (1/GPa) = 0.01697075
#
# Stress axis : x y z
#
# Youngs Moduli (GPa) = 74.56677 39.54554 58.56733
#
# Poissons Ratio (x) = 0.31589 0.09517
# Poissons Ratio (y) = 0.59563 0.57325
# Poissons Ratio (z) = 0.12117 0.38707
#
# Static dielectric constant tensor:
#      x y z
#    x 3.522530 0.000000 0.000000 
#    y 0.000000 3.673160 0.000000 
#    z 0.000000 0.000000 4.065460 
# 
# 
# High freq. dielectric constant tensor:
#      x y z
#    x 1.774440 0.000000 0.000000 
#    y 0.000000 1.756700 0.000000 
#    z 0.000000 0.000000 1.777780 
# 
# From -- ./inp_files/23736.got.cif
#   From: 2010.03.12/outbox.cif.g09.slc.cpg/sg62_12_cif.got.tgz:23736.got - 2010.04.10 19:12:36.
