data_PCOD8253372
_publ_section_title
;
Structure prediction by ZEFSAII (Michael W. Deem and Ramdas Pophale) SiO2 
 PCOD8253372
Probable space group: P N M A
;
_chemical_formula_sum "Si O2"
_cell_formula_units_Z 40
_cell_length_a 9.497218
_cell_length_b 8.346581
_cell_length_c 25.539791
_cell_angle_alpha 90.000000
_cell_angle_beta 90.000000
_cell_angle_gamma 90.000000
_cell_volume 2024.521337
_symmetry_space_group_name_H-M "P N M A"
_symmetry_group_IT_number 62
_symmetry_cell_setting 'orthorhombic'
loop_
_space_group_symop_operation_xyz
x,y,z
1/2-x,-y,1/2+z
1/2+x,1/2-y,1/2-z
-x,1/2+y,-z
-x,-y,-z
1/2+x,y,1/2-z
1/2-x,1/2+y,1/2+z
x,1/2-y,z
loop_
_atom_site_type_symbol
_atom_site_label
_atom_site_fract_x
_atom_site_fract_y
_atom_site_fract_z
Si Si1 0.157759 0.935762 0.999136
Si Si2 0.858781 0.064818 0.588375
Si Si3 0.173294 0.059317 0.301387
Si Si4 0.166212 0.936975 0.591045
Si Si5 0.141841 0.939190 0.707553
O O1 0.157196 0.750000 0.984121
O O2 0.246973 0.032991 0.956846
O O3 0.230240 0.959573 0.055380
O O4 0.000000 0.000000 0.000000
O O5 0.899979 0.250000 0.588843
O O6 0.784447 0.015197 0.642846
O O7 0.001656 0.965640 0.578106
O O8 0.184872 0.250000 0.306049
O O9 0.270618 0.986220 0.255538
O O10 0.017332 0.001990 0.286510
O O11 0.197283 0.750000 0.582158
O O12 0.200212 0.991333 0.650672
O O13 0.150311 0.750000 0.711595
#
# Coordination Sequence:
#
# PCOD8253372 Si02
#       5
#     8   8   8   8   8
#     4  12  25  41  59  84 114 146 183 232 285 337
#     4  11  22  38  58  83 113 151 192 233 278 331
#     4   9  17  33  54  79 108 144 186 229 273 328
#     4  10  20  38  61  86 113 149 191 232 276 333
#     4   8  16  30  53  80 108 142 184 226 273 329
#
# _framework density 19.757757999999999
#
# number of rings (size 3 to 8) (size 9 to 14) (size 15 to 20)
#    0.000    2.000    0.000    6.000    0.000    1.600 
#    0.000    9.000    0.000    0.000    0.000    0.000 
#    0.000    0.000    0.000    0.000    0.000    0.000 
#
# Total GULP energy -496031.430674 kJ/mol
# GULP energy per Si atom -12400.785767 kJ/mol
# Density = 1.971279 g / cm^3
# Si number density = 19.757758 Si / 1000 Ang^3
#
#
#
# Elastic Constant Matrix: (Units=GPa)
#
#
# Indices 1 2 3 4 5 6 
#
# 1 59.9922 2.4922 32.4821 0.0000 0.0000 0.0000
# 2 2.4922 57.5445 13.6237 0.0000 0.0000 0.0000
# 3 32.4821 13.6237 87.9347 0.0000 0.0000 0.0000
# 4 0.0000 0.0000 0.0000 29.9301 0.0000 0.0000
# 5 0.0000 0.0000 0.0000 0.0000 42.2986 0.0000
# 6 0.0000 0.0000 0.0000 0.0000 0.0000 25.3016
#
#
#
# Elastic Compliance Matrix: (Units=1/GPa)
#
#
# Indices 1 2 3 4 5 6 
#
# 1 0.020887 0.000957 -0.007864 0.000000 0.000000 0.000000
# 2 0.000957 0.018083 -0.003155 0.000000 0.000000 0.000000
# 3 -0.007864 -0.003155 0.014766 0.000000 0.000000 0.000000
# 4 0.000000 0.000000 0.000000 0.033411 0.000000 0.000000
# 5 0.000000 0.000000 0.000000 0.000000 0.023641 0.000000
# 6 0.000000 0.000000 0.000000 0.000000 0.000000 0.039523
#
#
# Mechanical properties :
#
#
# Convention : Reuss Voigt Hill
#
# Bulk Modulus (GPa) = 29.75094 33.62972 31.69033
# Shear Modulus (GPa) = 27.52710 29.96428 28.74569
#
# Velocity S-wave (km/s) = 3.73665 3.89856 3.81846
# Velocity P-wave (km/s) = 5.80580 6.10925 5.95946
#
# Compressibility (1/GPa) = 0.03361238
#
# Stress axis : x y z
#
# Youngs Moduli (GPa) = 47.87730 55.29932 67.72473
#
# Poissons Ratio (x) = -0.05293 0.53256
# Poissons Ratio (y) = -0.04583 0.21369
# Poissons Ratio (z) = 0.37649 0.17448
#
# Static dielectric constant tensor:
#      x y z
#    x 3.621380 0.000000 0.000000 
#    y 0.000000 3.386490 0.000000 
#    z 0.000000 0.000000 3.938770 
# 
# 
# High freq. dielectric constant tensor:
#      x y z
#    x 1.761340 0.000000 0.000000 
#    y 0.000000 1.755970 0.000000 
#    z 0.000000 0.000000 1.785660 
# 
# From -- ./inp_files/30674.got.cif
#   From: 2010.03.12/outbox.cif.g09.slc.cpg/sg62_16_cif.got.tgz:30674.got - 2010.04.10 19:12:36.
