data_PCOD8253222
_publ_section_title
;
Structure prediction by ZEFSAII (Michael W. Deem and Ramdas Pophale) SiO2 
 PCOD8253222
Probable space group: P N M A
;
_chemical_formula_sum "Si O2"
_cell_formula_units_Z 56
_cell_length_a 19.535889
_cell_length_b 8.921948
_cell_length_c 15.991507
_cell_angle_alpha 90.000000
_cell_angle_beta 90.000000
_cell_angle_gamma 90.000000
_cell_volume 2787.290658
_symmetry_space_group_name_H-M "P N M A"
_symmetry_group_IT_number 62
_symmetry_cell_setting 'orthorhombic'
loop_
_space_group_symop_operation_xyz
x,y,z
1/2-x,-y,1/2+z
1/2+x,1/2-y,1/2-z
-x,1/2+y,-z
-x,-y,-z
1/2+x,y,1/2-z
1/2-x,1/2+y,1/2+z
x,1/2-y,z
loop_
_atom_site_type_symbol
_atom_site_label
_atom_site_fract_x
_atom_site_fract_y
_atom_site_fract_z
Si Si1 0.912021 0.426976 0.297825
Si Si2 0.980519 0.586969 0.917948
Si Si3 0.449543 0.425989 0.740724
Si Si4 0.201824 0.925675 0.285578
Si Si5 0.763741 0.574700 0.039346
Si Si6 0.790112 0.928310 0.372314
Si Si7 0.868234 0.411236 0.124975
O O1 0.920358 0.250000 0.313712
O O2 0.867494 0.504451 0.370931
O O3 0.859853 0.465243 0.220654
O O4 0.987679 0.498808 0.290764
O O5 0.945333 0.750000 0.935295
O O6 0.051375 0.616105 0.872581
O O7 0.936901 0.487115 0.853693
O O8 0.000000 0.500000 0.000000
O O9 0.463967 0.250000 0.735109
O O10 0.378752 0.464474 0.786962
O O11 0.214071 0.750000 0.286571
O O12 0.230449 0.989016 0.374002
O O13 0.240525 0.988441 0.202835
O O14 0.752421 0.750000 0.024400
O O15 0.843968 0.533898 0.056303
O O16 0.739798 0.483465 0.960034
O O17 0.794001 0.750000 0.372353
O O18 0.832139 0.250000 0.107256
#
# Coordination Sequence:
#
# PCOD8253222 Si02
#       7
#     8   8   8   8   8   8   8
#     4  10  20  38  60  87 117 152 197 246 290 348
#     4  10  21  35  51  79 116 152 194 242 290 356
#     4  10  20  37  60  83 112 157 197 242 305 361
#     4   9  21  40  61  86 121 156 195 245 299 357
#     4  11  22  38  59  88 118 152 197 246 295 352
#     4  11  22  39  62  89 120 159 200 244 299 360
#     4   9  19  35  54  77 112 151 187 233 286 343
#
# _framework density 20.091196
#
# number of rings (size 3 to 8) (size 9 to 14) (size 15 to 20)
#    0.000    2.000    1.429    3.000    2.000    2.857 
#    0.000    5.714    0.000    0.000    0.000    0.000 
#    0.000    0.000    0.000    0.000    0.000    0.000 
#
# Total GULP energy -693735.676379 kJ/mol
# GULP energy per Si atom -12388.137078 kJ/mol
# Density = 2.004547 g / cm^3
# Si number density = 20.091196 Si / 1000 Ang^3
#
#
#
# Elastic Constant Matrix: (Units=GPa)
#
#
# Indices 1 2 3 4 5 6 
#
# 1 60.5686 31.7230 28.4307 0.0000 0.0000 0.0000
# 2 31.7230 98.3142 22.8954 0.0000 0.0000 0.0000
# 3 28.4307 22.8954 90.5542 0.0000 0.0000 0.0000
# 4 0.0000 0.0000 0.0000 33.5745 0.0000 0.0000
# 5 0.0000 0.0000 0.0000 0.0000 15.9113 0.0000
# 6 0.0000 0.0000 0.0000 0.0000 0.0000 25.3319
#
#
#
# Elastic Compliance Matrix: (Units=1/GPa)
#
#
# Indices 1 2 3 4 5 6 
#
# 1 0.022155 -0.005875 -0.005470 0.000000 0.000000 0.000000
# 2 -0.005875 0.012366 -0.001282 0.000000 0.000000 0.000000
# 3 -0.005470 -0.001282 0.013085 0.000000 0.000000 0.000000
# 4 0.000000 0.000000 0.000000 0.029784 0.000000 0.000000
# 5 0.000000 0.000000 0.000000 0.000000 0.062848 0.000000
# 6 0.000000 0.000000 0.000000 0.000000 0.000000 0.039476
#
#
# Mechanical properties :
#
#
# Convention : Reuss Voigt Hill
#
# Bulk Modulus (GPa) = 44.74107 46.17058 45.45583
# Shear Modulus (GPa) = 23.53837 26.05607 24.79722
#
# Velocity S-wave (km/s) = 3.42654 3.60514 3.51698
# Velocity P-wave (km/s) = 6.16216 6.35294 6.25828
#
# Compressibility (1/GPa) = 0.02235083
#
# Stress axis : x y z
#
# Youngs Moduli (GPa) = 45.13661 80.86928 76.42471
#
# Poissons Ratio (x) = 0.47509 0.41808
# Poissons Ratio (y) = 0.26517 0.09798
# Poissons Ratio (z) = 0.24692 0.10368
#
# Static dielectric constant tensor:
#      x y z
#    x 4.518310 0.000000 0.000000 
#    y 0.000000 3.697020 0.000000 
#    z 0.000000 0.000000 4.150440 
# 
# 
# High freq. dielectric constant tensor:
#      x y z
#    x 1.781560 0.000000 0.000000 
#    y 0.000000 1.785940 0.000000 
#    z 0.000000 0.000000 1.774040 
# 
# From -- ./inp_files/20392.got.cif
#   From: 2010.03.12/outbox.cif.g09.slc.cpg/sg62_11_cif.got.tgz:20392.got - 2010.04.10 19:12:36.
