data_PCOD8253126
_publ_section_title
;
Structure prediction by ZEFSAII (Michael W. Deem and Ramdas Pophale) SiO2 
 PCOD8253126
Probable space group: P N M A
;
_chemical_formula_sum "Si O2"
_cell_formula_units_Z 40
_cell_length_a 12.449845
_cell_length_b 8.766402
_cell_length_c 17.123148
_cell_angle_alpha 90.000000
_cell_angle_beta 90.000000
_cell_angle_gamma 90.000000
_cell_volume 1868.826299
_symmetry_space_group_name_H-M "P N M A"
_symmetry_group_IT_number 62
_symmetry_cell_setting 'orthorhombic'
loop_
_space_group_symop_operation_xyz
x,y,z
1/2-x,-y,1/2+z
1/2+x,1/2-y,1/2-z
-x,1/2+y,-z
-x,-y,-z
1/2+x,y,1/2-z
1/2-x,1/2+y,1/2+z
x,1/2-y,z
loop_
_atom_site_type_symbol
_atom_site_label
_atom_site_fract_x
_atom_site_fract_y
_atom_site_fract_z
Si Si1 0.985816 0.931189 0.412915
Si Si2 0.408476 0.920355 0.582965
Si Si3 0.640493 0.579750 0.568865
Si Si4 0.706518 0.575760 0.816457
Si Si5 0.203086 0.575507 0.332713
O O1 0.985415 0.750000 0.423206
O O2 0.082874 0.981131 0.354374
O O3 0.876486 0.983045 0.370514
O O4 0.000000 0.000000 0.500000
O O5 0.395431 0.750000 0.546364
O O6 0.529172 0.937893 0.617654
O O7 0.326422 0.944605 0.652474
O O8 0.388783 0.053453 0.521105
O O9 0.688776 0.750000 0.578779
O O10 0.728153 0.451784 0.589149
O O11 0.666930 0.750000 0.815257
O O12 0.724387 0.517959 0.728767
O O13 0.200695 0.750000 0.306437
#
# Coordination Sequence:
#
# PCOD8253126 Si02
#       5
#     8   8   8   8   8
#     4  11  25  45  68  96 131 174 221 270 323 387
#     4   9  20  38  59  88 122 157 198 250 307 367
#     4  10  20  36  61  91 120 158 203 248 305 371
#     4  11  24  41  64  92 126 165 211 265 319 379
#     4  11  25  42  61  90 128 166 209 262 319 376
#
# _framework density 21.40381
#
# number of rings (size 3 to 8) (size 9 to 14) (size 15 to 20)
#    0.000    1.600    0.000    3.600    2.800   10.400 
#    0.000    0.000    0.000    0.000    0.000    0.000 
#    0.000    0.000    0.000    0.000    0.000    0.000 
#
# Total GULP energy -495709.750237 kJ/mol
# GULP energy per Si atom -12392.743756 kJ/mol
# Density = 2.135509 g / cm^3
# Si number density = 21.403810 Si / 1000 Ang^3
#
#
#
# Elastic Constant Matrix: (Units=GPa)
#
#
# Indices 1 2 3 4 5 6 
#
# 1 89.2149 43.6298 22.5017 0.0000 0.0000 0.0000
# 2 43.6298 76.1409 31.0766 0.0000 0.0000 0.0000
# 3 22.5017 31.0766 64.9584 0.0000 0.0000 0.0000
# 4 0.0000 0.0000 0.0000 35.7524 0.0000 0.0000
# 5 0.0000 0.0000 0.0000 0.0000 38.7976 0.0000
# 6 0.0000 0.0000 0.0000 0.0000 0.0000 33.9281
#
#
#
# Elastic Compliance Matrix: (Units=1/GPa)
#
#
# Indices 1 2 3 4 5 6 
#
# 1 0.015676 -0.008408 -0.001408 0.000000 0.000000 0.000000
# 2 -0.008408 0.020830 -0.007053 0.000000 0.000000 0.000000
# 3 -0.001408 -0.007053 0.019256 0.000000 0.000000 0.000000
# 4 0.000000 0.000000 0.000000 0.027970 0.000000 0.000000
# 5 0.000000 0.000000 0.000000 0.000000 0.025775 0.000000
# 6 0.000000 0.000000 0.000000 0.000000 0.000000 0.029474
#
#
# Mechanical properties :
#
#
# Convention : Reuss Voigt Hill
#
# Bulk Modulus (GPa) = 45.40241 47.19227 46.29734
# Shear Modulus (GPa) = 27.76866 30.56935 29.16901
#
# Velocity S-wave (km/s) = 3.60581 3.78328 3.69561
# Velocity P-wave (km/s) = 6.21242 6.41722 6.31565
#
# Compressibility (1/GPa) = 0.02202526
#
# Stress axis : x y z
#
# Youngs Moduli (GPa) = 63.79287 48.00796 51.93145
#
# Poissons Ratio (x) = 0.40364 0.07311
# Poissons Ratio (y) = 0.53636 0.36626
# Poissons Ratio (z) = 0.08980 0.33858
#
# Static dielectric constant tensor:
#      x y z
#    x 4.211670 0.000000 0.000000 
#    y 0.000000 3.816820 0.000000 
#    z 0.000000 0.000000 3.634670 
# 
# 
# High freq. dielectric constant tensor:
#      x y z
#    x 1.858070 0.000000 0.000000 
#    y 0.000000 1.842720 0.000000 
#    z 0.000000 0.000000 1.827680 
# 
# From -- ./inp_files/22786.got.cif
#   From: 2010.03.12/outbox.cif.g09.slc.cpg/sg62_12_cif.got.tgz:22786.got - 2010.04.10 19:12:36.
