data_PCOD8253609
_publ_section_title
;
Structure prediction by ZEFSAII (Michael W. Deem and Ramdas Pophale) SiO2 
 PCOD8253609
Probable space group: P N M A
;
_chemical_formula_sum "Si O2"
_cell_formula_units_Z 64
_cell_length_a 12.010128
_cell_length_b 24.865766
_cell_length_c 12.834649
_cell_angle_alpha 90.000000
_cell_angle_beta 90.000000
_cell_angle_gamma 90.000000
_cell_volume 3832.952829
_symmetry_space_group_name_H-M "P N M A"
_symmetry_group_IT_number 62
_symmetry_cell_setting 'orthorhombic'
loop_
_space_group_symop_operation_xyz
x,y,z
1/2-x,-y,1/2+z
1/2+x,1/2-y,1/2-z
-x,1/2+y,-z
-x,-y,-z
1/2+x,y,1/2-z
1/2-x,1/2+y,1/2+z
x,1/2-y,z
loop_
_atom_site_type_symbol
_atom_site_label
_atom_site_fract_x
_atom_site_fract_y
_atom_site_fract_z
Si Si1 0.668376 0.453971 0.123467
Si Si2 0.543801 0.129027 0.385750
Si Si3 0.564765 0.929088 0.801877
Si Si4 0.328231 0.310413 0.440020
Si Si5 0.247686 0.642257 0.739400
Si Si6 0.689886 0.031373 0.739367
Si Si7 0.977454 0.945382 0.059442
Si Si8 0.724075 0.590466 0.428475
O O1 0.536639 0.440659 0.118389
O O2 0.731420 0.410757 0.193169
O O3 0.699480 0.511827 0.175381
O O4 0.719562 0.451892 0.007932
O O5 0.486619 0.084107 0.311820
O O6 0.456873 0.173481 0.424539
O O7 0.647837 0.159012 0.331538
O O8 0.588660 0.095503 0.483947
O O9 0.639444 0.875642 0.830719
O O10 0.640861 0.981799 0.805140
O O11 0.320098 0.250000 0.483815
O O12 0.274129 0.311091 0.323789
O O13 0.264664 0.349116 0.523404
O O14 0.594177 0.050268 0.662399
O O15 0.717857 0.081234 0.816267
O O16 0.095463 0.920845 0.089968
O O17 0.000000 0.000000 0.000000
#
# Coordination Sequence:
#
# PCOD8253609 Si02
#       8
#     8   8   8   8   8   8   8   8
#     4   9  17  29  43  66 100 136 163 196 240 291
#     4   9  17  30  48  72  98 127 170 203 242 306
#     4   9  16  26  42  67 102 137 159 196 242 291
#     4   9  18  34  52  70  95 127 166 217 260 291
#     4   8  16  28  46  72  98 127 164 199 246 304
#     4  11  19  27  47  69  98 137 175 199 238 295
#     4  11  18  31  48  69  99 141 168 198 247 295
#     4  10  21  33  46  72  99 126 176 209 240 316
#
# _framework density 16.697309000000001
#
# number of rings (size 3 to 8) (size 9 to 14) (size 15 to 20)
#    0.000    2.500    2.500    2.250    3.500    1.000 
#    0.000    1.250    0.000    3.000    0.000    0.000 
#    0.000    0.000    0.000    0.000    0.000    0.000 
#
# Total GULP energy -792933.300839 kJ/mol
# GULP energy per Si atom -12389.582826 kJ/mol
# Density = 1.665931 g / cm^3
# Si number density = 16.697309 Si / 1000 Ang^3
#
#
#
# Elastic Constant Matrix: (Units=GPa)
#
#
# Indices 1 2 3 4 5 6 
#
# 1 78.2972 24.3613 34.1914 0.0000 0.0000 0.0000
# 2 24.3613 79.7407 39.2020 0.0000 0.0000 0.0000
# 3 34.1914 39.2020 78.4042 0.0000 0.0000 0.0000
# 4 0.0000 0.0000 0.0000 15.9281 0.0000 0.0000
# 5 0.0000 0.0000 0.0000 0.0000 32.4235 0.0000
# 6 0.0000 0.0000 0.0000 0.0000 0.0000 11.6351
#
#
#
# Elastic Compliance Matrix: (Units=1/GPa)
#
#
# Indices 1 2 3 4 5 6 
#
# 1 0.015998 -0.001933 -0.006010 0.000000 0.000000 0.000000
# 2 -0.001933 0.016861 -0.007588 0.000000 0.000000 0.000000
# 3 -0.006010 -0.007588 0.019169 0.000000 0.000000 0.000000
# 4 0.000000 0.000000 0.000000 0.062782 0.000000 0.000000
# 5 0.000000 0.000000 0.000000 0.000000 0.030842 0.000000
# 6 0.000000 0.000000 0.000000 0.000000 0.000000 0.085947
#
#
# Mechanical properties :
#
#
# Convention : Reuss Voigt Hill
#
# Bulk Modulus (GPa) = 47.69383 47.99463 47.84423
# Shear Modulus (GPa) = 18.54257 21.24316 19.89286
#
# Velocity S-wave (km/s) = 3.33605 3.57073 3.45538
# Velocity P-wave (km/s) = 6.59278 6.76805 6.68099
#
# Compressibility (1/GPa) = 0.02096707
#
# Stress axis : x y z
#
# Youngs Moduli (GPa) = 62.50884 59.30687 52.16667
#
# Poissons Ratio (x) = 0.11462 0.31353
# Poissons Ratio (y) = 0.12081 0.39583
# Poissons Ratio (z) = 0.37569 0.45001
#
# Static dielectric constant tensor:
#      x y z
#    x 3.515460 0.000000 0.000000 
#    y 0.000000 2.820790 0.000000 
#    z 0.000000 0.000000 3.037440 
# 
# 
# High freq. dielectric constant tensor:
#      x y z
#    x 1.649740 0.000000 0.000000 
#    y 0.000000 1.600770 0.000000 
#    z 0.000000 0.000000 1.618900 
# 
# From -- ./inp_files/12602.got.cif
#   From: 2010.03.12/outbox.cif.g09.slc.cpg/sg62_7_cif.got.tgz:12602.got - 2010.04.10 19:12:36.
