data_PCOD8253523
_publ_section_title
;
Structure prediction by ZEFSAII (Michael W. Deem and Ramdas Pophale) SiO2 
 PCOD8253523
Probable space group: P N M A
;
_chemical_formula_sum "Si O2"
_cell_formula_units_Z 48
_cell_length_a 15.095873
_cell_length_b 16.930413
_cell_length_c 9.676875
_cell_angle_alpha 90.000000
_cell_angle_beta 90.000000
_cell_angle_gamma 90.000000
_cell_volume 2473.209563
_symmetry_space_group_name_H-M "P N M A"
_symmetry_group_IT_number 62
_symmetry_cell_setting 'orthorhombic'
loop_
_space_group_symop_operation_xyz
x,y,z
1/2-x,-y,1/2+z
1/2+x,1/2-y,1/2-z
-x,1/2+y,-z
-x,-y,-z
1/2+x,y,1/2-z
1/2-x,1/2+y,1/2+z
x,1/2-y,z
loop_
_atom_site_type_symbol
_atom_site_label
_atom_site_fract_x
_atom_site_fract_y
_atom_site_fract_z
Si Si1 0.142582 0.548728 0.217172
Si Si2 0.706268 0.579646 0.791980
Si Si3 0.528919 0.489447 0.843713
Si Si4 0.297492 0.159908 0.498645
Si Si5 0.365278 0.662653 0.200291
Si Si6 0.276718 0.159829 0.924238
O O1 0.230157 0.495584 0.209956
O O2 0.149718 0.605918 0.350289
O O3 0.054756 0.495964 0.241015
O O4 0.134176 0.601516 0.077889
O O5 0.605238 0.550956 0.804573
O O6 0.716982 0.631968 0.656539
O O7 0.734734 0.634996 0.917921
O O8 0.557126 0.399290 0.819718
O O9 0.500000 0.500000 0.000000
O O10 0.333304 0.250000 0.501256
O O11 0.204302 0.153403 0.576160
O O12 0.407703 0.750000 0.196439
O O13 0.316998 0.648532 0.346926
O O14 0.308862 0.250000 0.914489
#
# Coordination Sequence:
#
# PCOD8253523 Si02
#       6
#     8   8   8   8   8   8
#     4  11  22  38  65  86 121 162 204 243 305 367
#     4  12  22  40  63  90 127 154 202 262 304 359
#     4  12  23  38  63  96 117 158 211 256 306 360
#     4  10  21  39  61  88 124 165 198 249 313 362
#     4   9  20  39  63  88 121 159 204 250 303 362
#     4  10  20  39  64  88 116 160 201 244 302 364
#
# _framework density 19.407978
#
# number of rings (size 3 to 8) (size 9 to 14) (size 15 to 20)
#    0.000    1.333    5.000    4.000    0.000    2.000 
#    0.000    0.000    0.000    2.000    0.000    0.000 
#    0.000    0.000    0.000    0.000    0.000    0.000 
#
# Total GULP energy -595252.716713 kJ/mol
# GULP energy per Si atom -12401.098265 kJ/mol
# Density = 1.936380 g / cm^3
# Si number density = 19.407978 Si / 1000 Ang^3
#
#
#
# Elastic Constant Matrix: (Units=GPa)
#
#
# Indices 1 2 3 4 5 6 
#
# 1 78.8710 28.4501 29.3387 0.0000 0.0000 0.0000
# 2 28.4501 82.1211 41.2450 0.0000 0.0000 0.0000
# 3 29.3387 41.2450 152.0456 0.0000 0.0000 0.0000
# 4 0.0000 0.0000 0.0000 20.1472 0.0000 0.0000
# 5 0.0000 0.0000 0.0000 0.0000 17.7567 0.0000
# 6 0.0000 0.0000 0.0000 0.0000 0.0000 22.1670
#
#
#
# Elastic Compliance Matrix: (Units=1/GPa)
#
#
# Indices 1 2 3 4 5 6 
#
# 1 0.014861 -0.004293 -0.001703 0.000000 0.000000 0.000000
# 2 -0.004293 0.015338 -0.003332 0.000000 0.000000 0.000000
# 3 -0.001703 -0.003332 0.007810 0.000000 0.000000 0.000000
# 4 0.000000 0.000000 0.000000 0.049635 0.000000 0.000000
# 5 0.000000 0.000000 0.000000 0.000000 0.056317 0.000000
# 6 0.000000 0.000000 0.000000 0.000000 0.000000 0.045112
#
#
# Mechanical properties :
#
#
# Convention : Reuss Voigt Hill
#
# Bulk Modulus (GPa) = 51.67492 56.78948 54.23220
# Shear Modulus (GPa) = 23.34491 26.28113 24.81302
#
# Velocity S-wave (km/s) = 3.47198 3.68386 3.57949
# Velocity P-wave (km/s) = 6.53883 6.88613 6.71473
#
# Compressibility (1/GPa) = 0.01935175
#
# Stress axis : x y z
#
# Youngs Moduli (GPa) = 67.29014 65.19712 128.04870
#
# Poissons Ratio (x) = 0.27990 0.21807
# Poissons Ratio (y) = 0.28889 0.42670
# Poissons Ratio (z) = 0.11459 0.21726
#
# Static dielectric constant tensor:
#      x y z
#    x 3.341700 0.000000 0.000000 
#    y 0.000000 3.725280 0.000000 
#    z 0.000000 0.000000 3.675170 
# 
# 
# High freq. dielectric constant tensor:
#      x y z
#    x 1.733040 0.000000 0.000000 
#    y 0.000000 1.765710 0.000000 
#    z 0.000000 0.000000 1.762370 
# 
# From -- ./inp_files/6505.got.cif
#   From: 2010.03.12/outbox.cif.g09.slc.cpg/sg62_4_cif.got.tgz:6505.got - 2010.04.10 19:12:36.
