data_PCOD8253755
_publ_section_title
;
Structure prediction by ZEFSAII (Michael W. Deem and Ramdas Pophale) SiO2 
 PCOD8253755
Probable space group: P N M A
;
_chemical_formula_sum "Si O2"
_cell_formula_units_Z 64
_cell_length_a 15.458364
_cell_length_b 8.474874
_cell_length_c 23.764107
_cell_angle_alpha 90.000000
_cell_angle_beta 90.000000
_cell_angle_gamma 90.000000
_cell_volume 3113.280695
_symmetry_space_group_name_H-M "P N M A"
_symmetry_group_IT_number 62
_symmetry_cell_setting 'orthorhombic'
loop_
_space_group_symop_operation_xyz
x,y,z
1/2-x,-y,1/2+z
1/2+x,1/2-y,1/2-z
-x,1/2+y,-z
-x,-y,-z
1/2+x,y,1/2-z
1/2-x,1/2+y,1/2+z
x,1/2-y,z
loop_
_atom_site_type_symbol
_atom_site_label
_atom_site_fract_x
_atom_site_fract_y
_atom_site_fract_z
Si Si1 0.340365 0.432847 0.778839
Si Si2 0.099811 0.434681 0.616230
Si Si3 0.990241 0.567748 0.211653
Si Si4 0.369509 0.065249 0.506623
Si Si5 0.325052 0.562960 0.998844
Si Si6 0.999574 0.568245 0.909023
Si Si7 0.328563 0.068051 0.225964
Si Si8 0.913714 0.565580 0.613899
O O1 0.346878 0.250000 0.794612
O O2 0.417258 0.483390 0.736773
O O3 0.249007 0.464599 0.750094
O O4 0.346059 0.534295 0.836052
O O5 0.117659 0.250000 0.622835
O O6 0.124720 0.496374 0.554171
O O7 0.159434 0.525182 0.660669
O O8 0.000011 0.469876 0.628336
O O9 0.970170 0.750000 0.224321
O O10 0.916172 0.463814 0.240027
O O11 0.991785 0.540589 0.145199
O O12 0.372364 0.250000 0.521302
O O13 0.272768 0.999391 0.499640
O O14 0.419086 0.029344 0.448756
O O15 0.411478 0.971517 0.558302
O O16 0.322970 0.750000 0.995579
O O17 0.374220 0.497350 0.944052
O O18 0.998380 0.750000 0.890456
O O19 0.303583 0.250000 0.231717
O O20 0.935155 0.750000 0.609159
#
# Coordination Sequence:
#
# PCOD8253755 Si02
#       8
#     8   8   8   8   8   8   8   8
#     4  11  25  44  66  93 127 170 212 258 317 382
#     4  11  22  41  64  89 125 166 207 254 313 378
#     4  11  24  43  67  93 127 168 212 256 314 384
#     4   9  19  39  60  85 121 163 204 252 308 368
#     4   9  21  38  62  90 119 161 209 254 308 369
#     4  10  21  36  60  90 124 160 204 255 309 364
#     4  12  26  43  66  95 129 165 209 266 318 376
#     4  11  22  40  65  93 124 162 209 261 313 366
#
# _framework density 20.557092999999998
#
# number of rings (size 3 to 8) (size 9 to 14) (size 15 to 20)
#    0.000    1.500    1.250    3.375    3.500    2.000 
#    0.000    3.750    0.000    0.000    0.000    0.000 
#    0.000    0.000    0.000    0.000    0.000    0.000 
#
# Total GULP energy -794032.400698 kJ/mol
# GULP energy per Si atom -12406.756261 kJ/mol
# Density = 2.051030 g / cm^3
# Si number density = 20.557093 Si / 1000 Ang^3
#
#
#
# Elastic Constant Matrix: (Units=GPa)
#
#
# Indices 1 2 3 4 5 6 
#
# 1 108.0825 12.2655 38.4126 0.0000 0.0000 0.0000
# 2 12.2655 52.1891 20.8918 0.0000 0.0000 0.0000
# 3 38.4126 20.8918 135.5416 0.0000 0.0000 0.0000
# 4 0.0000 0.0000 0.0000 23.6851 0.0000 0.0000
# 5 0.0000 0.0000 0.0000 0.0000 27.4844 0.0000
# 6 0.0000 0.0000 0.0000 0.0000 0.0000 26.9441
#
#
#
# Elastic Compliance Matrix: (Units=1/GPa)
#
#
# Indices 1 2 3 4 5 6 
#
# 1 0.010376 -0.001344 -0.002733 0.000000 0.000000 0.000000
# 2 -0.001344 0.020595 -0.002793 0.000000 0.000000 0.000000
# 3 -0.002733 -0.002793 0.008583 0.000000 0.000000 0.000000
# 4 0.000000 0.000000 0.000000 0.042221 0.000000 0.000000
# 5 0.000000 0.000000 0.000000 0.000000 0.036384 0.000000
# 6 0.000000 0.000000 0.000000 0.000000 0.000000 0.037114
#
#
# Mechanical properties :
#
#
# Convention : Reuss Voigt Hill
#
# Bulk Modulus (GPa) = 38.74170 48.77255 43.75713
# Shear Modulus (GPa) = 28.15003 30.57230 29.36116
#
# Velocity S-wave (km/s) = 3.70450 3.86059 3.78335
# Velocity P-wave (km/s) = 6.09791 6.60675 6.35743
#
# Compressibility (1/GPa) = 0.02581198
#
# Stress axis : x y z
#
# Youngs Moduli (GPa) = 96.37431 48.55477 116.50900
#
# Poissons Ratio (x) = 0.06528 0.31847
# Poissons Ratio (y) = 0.12957 0.32546
# Poissons Ratio (z) = 0.26343 0.13564
#
# Static dielectric constant tensor:
#      x y z
#    x 3.761490 0.000000 0.000000 
#    y 0.000000 3.522680 0.000000 
#    z 0.000000 0.000000 3.874590 
# 
# 
# High freq. dielectric constant tensor:
#      x y z
#    x 1.808930 0.000000 0.000000 
#    y 0.000000 1.795230 0.000000 
#    z 0.000000 0.000000 1.817240 
# 
# From -- ./inp_files/29906.got.cif
#   From: 2010.03.12/outbox.cif.g09.slc.cpg/sg62_15_cif.got.tgz:29906.got - 2010.04.10 19:12:36.
