data_PCOD8253989
_publ_section_title
;
Structure prediction by ZEFSAII (Michael W. Deem and Ramdas Pophale) SiO2 
 PCOD8253989
Probable space group: P N M A
;
_chemical_formula_sum "Si O2"
_cell_formula_units_Z 56
_cell_length_a 13.523560
_cell_length_b 12.494833
_cell_length_c 16.471548
_cell_angle_alpha 90.000000
_cell_angle_beta 90.000000
_cell_angle_gamma 90.000000
_cell_volume 2783.273626
_symmetry_space_group_name_H-M "P N M A"
_symmetry_group_IT_number 62
_symmetry_cell_setting 'orthorhombic'
loop_
_space_group_symop_operation_xyz
x,y,z
1/2-x,-y,1/2+z
1/2+x,1/2-y,1/2-z
-x,1/2+y,-z
-x,-y,-z
1/2+x,y,1/2-z
1/2-x,1/2+y,1/2+z
x,1/2-y,z
loop_
_atom_site_type_symbol
_atom_site_label
_atom_site_fract_x
_atom_site_fract_y
_atom_site_fract_z
Si Si1 0.767290 0.873829 0.331850
Si Si2 0.541330 0.132103 0.932652
Si Si3 0.909447 0.875040 0.050471
Si Si4 0.214276 0.998970 0.824083
Si Si5 0.470063 0.126506 0.260598
Si Si6 0.418792 0.936205 0.892761
Si Si7 0.911677 0.503298 0.890617
O O1 0.737206 0.750000 0.341643
O O2 0.874813 0.897595 0.367783
O O3 0.694112 0.950054 0.380662
O O4 0.763710 0.904271 0.237357
O O5 0.500950 0.250000 0.914783
O O6 0.447894 0.056458 0.918190
O O7 0.585176 0.130182 0.023884
O O8 0.890314 0.750000 0.065362
O O9 0.017210 0.906686 0.082766
O O10 0.828925 0.948021 0.095112
O O11 0.903766 0.901498 0.955532
O O12 0.139693 0.915370 0.781381
O O13 0.312621 0.934366 0.848895
O O14 0.475190 0.250000 0.286697
O O15 0.497266 0.114462 0.165641
O O16 0.551392 0.056669 0.307792
#
# Coordination Sequence:
#
# PCOD8253989 Si02
#       7
#     8   8   8   8   8   8   8
#     4  11  21  38  62  92 127 166 206 255 311 361
#     4  10  23  40  64  92 122 167 210 255 310 367
#     4  10  21  38  60  88 122 163 204 253 310 363
#     4  11  23  40  61  94 126 160 208 260 305 372
#     4  11  23  40  63  91 125 166 208 256 315 370
#     4  11  22  43  63  88 131 159 211 261 305 372
#     4  10  21  39  60  90 126 157 206 255 301 373
#
# _framework density 20.120190999999998
#
# number of rings (size 3 to 8) (size 9 to 14) (size 15 to 20)
#    0.000    1.429    2.857    2.571    0.000    2.286 
#    0.000    3.571    0.000    0.000    0.000    0.000 
#    0.000    0.000    0.000    0.000    0.000    0.000 
#
# Total GULP energy -694597.450823 kJ/mol
# GULP energy per Si atom -12403.525908 kJ/mol
# Density = 2.007440 g / cm^3
# Si number density = 20.120191 Si / 1000 Ang^3
#
#
#
# Elastic Constant Matrix: (Units=GPa)
#
#
# Indices 1 2 3 4 5 6 
#
# 1 70.9429 21.7103 5.3987 0.0000 0.0000 0.0000
# 2 21.7103 87.2182 -3.4033 0.0000 0.0000 0.0000
# 3 5.3987 -3.4033 75.4449 0.0000 0.0000 0.0000
# 4 0.0000 0.0000 0.0000 17.2370 0.0000 0.0000
# 5 0.0000 0.0000 0.0000 0.0000 26.8139 0.0000
# 6 0.0000 0.0000 0.0000 0.0000 0.0000 20.3579
#
#
#
# Elastic Compliance Matrix: (Units=1/GPa)
#
#
# Indices 1 2 3 4 5 6 
#
# 1 0.015380 -0.003878 -0.001275 0.000000 0.000000 0.000000
# 2 -0.003878 0.012464 0.000840 0.000000 0.000000 0.000000
# 3 -0.001275 0.000840 0.013384 0.000000 0.000000 0.000000
# 4 0.000000 0.000000 0.000000 0.058015 0.000000 0.000000
# 5 0.000000 0.000000 0.000000 0.000000 0.037294 0.000000
# 6 0.000000 0.000000 0.000000 0.000000 0.000000 0.049121
#
#
# Mechanical properties :
#
#
# Convention : Reuss Voigt Hill
#
# Bulk Modulus (GPa) = 30.67530 31.22415 30.94972
# Shear Modulus (GPa) = 24.37230 26.87512 25.62371
#
# Velocity S-wave (km/s) = 3.48420 3.65873 3.57253
# Velocity P-wave (km/s) = 5.60940 5.77935 5.69501
#
# Compressibility (1/GPa) = 0.03259952
#
# Stress axis : x y z
#
# Youngs Moduli (GPa) = 65.02080 80.23367 74.71686
#
# Poissons Ratio (x) = 0.31115 0.09530
# Poissons Ratio (y) = 0.25216 -0.06274
# Poissons Ratio (z) = 0.08293 -0.06737
#
# Static dielectric constant tensor:
#      x y z
#    x 3.551910 0.000000 0.000000 
#    y 0.000000 3.503060 0.000000 
#    z 0.000000 0.000000 3.739120 
# 
# 
# High freq. dielectric constant tensor:
#      x y z
#    x 1.780010 0.000000 0.000000 
#    y 0.000000 1.784930 0.000000 
#    z 0.000000 0.000000 1.798950 
# 
# From -- ./inp_files/19027.got.cif
#   From: 2010.03.12/outbox.cif.g09.slc.cpg/sg62_10_cif.got.tgz:19027.got - 2010.04.10 19:12:36.
