data_PCOD8253574
_publ_section_title
;
Structure prediction by ZEFSAII (Michael W. Deem and Ramdas Pophale) SiO2 
 PCOD8253574
Probable space group: P N M A
;
_chemical_formula_sum "Si O2"
_cell_formula_units_Z 56
_cell_length_a 5.376808
_cell_length_b 28.412987
_cell_length_c 15.144552
_cell_angle_alpha 90.000000
_cell_angle_beta 90.000000
_cell_angle_gamma 90.000000
_cell_volume 2313.651016
_symmetry_space_group_name_H-M "P N M A"
_symmetry_group_IT_number 62
_symmetry_cell_setting 'orthorhombic'
loop_
_space_group_symop_operation_xyz
x,y,z
1/2-x,-y,1/2+z
1/2+x,1/2-y,1/2-z
-x,1/2+y,-z
-x,-y,-z
1/2+x,y,1/2-z
1/2-x,1/2+y,1/2+z
x,1/2-y,z
loop_
_atom_site_type_symbol
_atom_site_label
_atom_site_fract_x
_atom_site_fract_y
_atom_site_fract_z
Si Si1 0.970271 0.750000 0.970483
Si Si2 0.475609 0.352977 0.201202
Si Si3 0.421353 0.087020 0.883536
Si Si4 0.388911 0.153083 0.728531
Si Si5 0.482746 0.850637 0.457031
Si Si6 0.750615 0.505971 0.692038
Si Si7 0.474898 0.750000 0.860789
Si Si8 0.315720 0.588794 0.942182
O O1 0.696519 0.750000 0.930253
O O2 0.198466 0.750000 0.901517
O O3 0.985938 0.704913 0.031844
O O4 0.725689 0.370625 0.250835
O O5 0.486663 0.296425 0.197944
O O6 0.473955 0.378881 0.105884
O O7 0.501300 0.108236 0.786999
O O8 0.285383 0.129823 0.932908
O O9 0.244166 0.043010 0.861087
O O10 0.615913 0.070152 0.958939
O O11 0.655851 0.181672 0.728579
O O12 0.333012 0.138719 0.626854
O O13 0.581482 0.876173 0.544941
O O14 0.511714 0.510038 0.755318
O O15 0.733344 0.545897 0.618291
#
# Coordination Sequence:
#
# PCOD8253574 Si02
#       8
#     4   8   8   8   8   8   4   8
#     4  12  26  45  72 115 146 189 249 314 355 435
#     4  12  26  45  71 103 146 191 242 304 367 437
#     4  11  25  46  77 103 147 194 251 298 375 445
#     4  10  20  40  66  98 132 184 233 286 356 426
#     4  11  25  44  75 105 150 195 245 306 373 438
#     4  12  29  50  74 110 153 190 245 310 367 441
#     4  12  24  47  72 103 142 195 251 294 373 439
#     4  12  26  45  75 108 145 197 243 304 373 442
#
# _framework density 24.204169
#
# number of rings (size 3 to 8) (size 9 to 14) (size 15 to 20)
#    0.000    0.571    2.857    5.143    6.000    0.571 
#    0.000    2.857    0.000    0.000    0.000    0.000 
#    0.000    0.000    0.000    0.000    0.000    0.000 
#
# Total GULP energy -693802.526147 kJ/mol
# GULP energy per Si atom -12389.330824 kJ/mol
# Density = 2.414908 g / cm^3
# Si number density = 24.204169 Si / 1000 Ang^3
#
#
#
# Elastic Constant Matrix: (Units=GPa)
#
#
# Indices 1 2 3 4 5 6 
#
# 1 117.1246 17.4856 39.6195 0.0000 0.0000 0.0000
# 2 17.4856 108.8562 41.3108 0.0000 0.0000 0.0000
# 3 39.6195 41.3108 123.9349 0.0000 0.0000 0.0000
# 4 0.0000 0.0000 0.0000 31.8286 0.0000 0.0000
# 5 0.0000 0.0000 0.0000 0.0000 43.4296 0.0000
# 6 0.0000 0.0000 0.0000 0.0000 0.0000 20.7529
#
#
#
# Elastic Compliance Matrix: (Units=1/GPa)
#
#
# Indices 1 2 3 4 5 6 
#
# 1 0.009591 -0.000432 -0.002922 0.000000 0.000000 0.000000
# 2 -0.000432 0.010536 -0.003374 0.000000 0.000000 0.000000
# 3 -0.002922 -0.003374 0.010128 0.000000 0.000000 0.000000
# 4 0.000000 0.000000 0.000000 0.031418 0.000000 0.000000
# 5 0.000000 0.000000 0.000000 0.000000 0.023026 0.000000
# 6 0.000000 0.000000 0.000000 0.000000 0.000000 0.048186
#
#
# Mechanical properties :
#
#
# Convention : Reuss Voigt Hill
#
# Bulk Modulus (GPa) = 59.52728 60.74976 60.13852
# Shear Modulus (GPa) = 32.90774 35.96886 34.43830
#
# Velocity S-wave (km/s) = 3.69126 3.85913 3.77613
# Velocity P-wave (km/s) = 6.54327 6.70899 6.62665
#
# Compressibility (1/GPa) = 0.01679902
#
# Stress axis : x y z
#
# Youngs Moduli (GPa) = 104.26647 94.91090 98.74062
#
# Poissons Ratio (x) = 0.04097 0.28853
# Poissons Ratio (y) = 0.04501 0.33315
# Poissons Ratio (z) = 0.30468 0.32023
#
# Static dielectric constant tensor:
#      x y z
#    x 4.428200 0.000000 0.000000 
#    y 0.000000 4.508600 0.000000 
#    z 0.000000 0.000000 4.670370 
# 
# 
# High freq. dielectric constant tensor:
#      x y z
#    x 1.974710 0.000000 0.000000 
#    y 0.000000 1.939820 0.000000 
#    z 0.000000 0.000000 1.982110 
# 
# From -- ./inp_files/16302.got.cif
#   From: 2010.03.12/outbox.cif.g09.slc.cpg/sg62_9_cif.got.tgz:16302.got - 2010.04.10 19:12:36.
