data_PCOD8253914
_publ_section_title
;
Structure prediction by ZEFSAII (Michael W. Deem and Ramdas Pophale) SiO2 
 PCOD8253914
Probable space group: P N M A
;
_chemical_formula_sum "Si O2"
_cell_formula_units_Z 56
_cell_length_a 16.742423
_cell_length_b 8.947720
_cell_length_c 19.794731
_cell_angle_alpha 90.000000
_cell_angle_beta 90.000000
_cell_angle_gamma 90.000000
_cell_volume 2965.379629
_symmetry_space_group_name_H-M "P N M A"
_symmetry_group_IT_number 62
_symmetry_cell_setting 'orthorhombic'
loop_
_space_group_symop_operation_xyz
x,y,z
1/2-x,-y,1/2+z
1/2+x,1/2-y,1/2-z
-x,1/2+y,-z
-x,-y,-z
1/2+x,y,1/2-z
1/2-x,1/2+y,1/2+z
x,1/2-y,z
loop_
_atom_site_type_symbol
_atom_site_label
_atom_site_fract_x
_atom_site_fract_y
_atom_site_fract_z
Si Si1 0.817925 0.573870 0.111317
Si Si2 0.764981 0.072882 0.476254
Si Si3 0.076884 0.426209 0.697981
Si Si4 0.934376 0.572475 0.452623
Si Si5 0.487013 0.572629 0.337829
Si Si6 0.148292 0.074774 0.144761
Si Si7 0.245858 0.073813 0.747158
O O1 0.824590 0.750000 0.106812
O O2 0.907984 0.514131 0.123057
O O3 0.760754 0.530354 0.173951
O O4 0.780071 0.510966 0.042735
O O5 0.780920 0.250000 0.479642
O O6 0.710143 0.027825 0.413277
O O7 0.848006 0.987291 0.472497
O O8 0.083851 0.250000 0.703081
O O9 0.044974 0.476330 0.624616
O O10 0.019330 0.479585 0.758881
O O11 0.166685 0.486904 0.709068
O O12 0.936083 0.750000 0.460837
O O13 0.000000 0.500000 0.500000
O O14 0.496424 0.750000 0.343360
O O15 0.562467 0.494969 0.372505
O O16 0.138315 0.250000 0.149817
O O17 0.178333 0.010595 0.216218
O O18 0.258401 0.250000 0.737385
#
# Coordination Sequence:
#
# PCOD8253914 Si02
#       7
#     8   8   8   8   8   8   8
#     4   8  17  35  59  81 104 140 189 235 266 310
#     4  10  21  38  56  79 113 149 181 220 278 333
#     4   8  16  33  56  77  98 129 179 230 264 305
#     4  11  22  37  57  82 111 143 183 228 276 329
#     4   9  18  35  58  80 101 138 189 233 266 307
#     4  11  22  33  50  81 118 147 174 217 280 341
#     4   9  16  33  59  78  95 133 189 234 263 307
#
# _framework density 18.884599000000001
#
# number of rings (size 3 to 8) (size 9 to 14) (size 15 to 20)
#    0.000    2.571    1.429    2.571    0.000    2.286 
#    0.000   11.429    0.000    0.000    0.000    0.000 
#    0.000    0.000    0.000    0.000    0.000    0.000 
#
# Total GULP energy -694221.979198 kJ/mol
# GULP energy per Si atom -12396.821057 kJ/mol
# Density = 1.884162 g / cm^3
# Si number density = 18.884599 Si / 1000 Ang^3
#
#
#
# Elastic Constant Matrix: (Units=GPa)
#
#
# Indices 1 2 3 4 5 6 
#
# 1 128.8288 45.2468 67.3107 0.0000 0.0000 0.0000
# 2 45.2468 48.3117 38.1233 0.0000 0.0000 0.0000
# 3 67.3107 38.1233 110.5870 0.0000 0.0000 0.0000
# 4 0.0000 0.0000 0.0000 21.7310 0.0000 0.0000
# 5 0.0000 0.0000 0.0000 0.0000 29.7168 0.0000
# 6 0.0000 0.0000 0.0000 0.0000 0.0000 30.9416
#
#
#
# Elastic Compliance Matrix: (Units=1/GPa)
#
#
# Indices 1 2 3 4 5 6 
#
# 1 0.013506 -0.008465 -0.005302 0.000000 0.000000 0.000000
# 2 -0.008465 0.033739 -0.006479 0.000000 0.000000 0.000000
# 3 -0.005302 -0.006479 0.014504 0.000000 0.000000 0.000000
# 4 0.000000 0.000000 0.000000 0.046017 0.000000 0.000000
# 5 0.000000 0.000000 0.000000 0.000000 0.033651 0.000000
# 6 0.000000 0.000000 0.000000 0.000000 0.000000 0.032319
#
#
# Mechanical properties :
#
#
# Convention : Reuss Voigt Hill
#
# Bulk Modulus (GPa) = 47.04461 65.45436 56.24949
# Shear Modulus (GPa) = 22.59249 25.61434 24.10342
#
# Velocity S-wave (km/s) = 3.46257 3.68688 3.57648
# Velocity P-wave (km/s) = 6.39934 7.27045 6.84876
#
# Compressibility (1/GPa) = 0.02125642
#
# Stress axis : x y z
#
# Youngs Moduli (GPa) = 74.04388 29.63918 68.94868
#
# Poissons Ratio (x) = 0.25088 0.36559
# Poissons Ratio (y) = 0.62675 0.44672
# Poissons Ratio (z) = 0.39260 0.19203
#
# Static dielectric constant tensor:
#      x y z
#    x 3.518470 0.000000 0.000000 
#    y 0.000000 3.107540 0.000000 
#    z 0.000000 0.000000 3.942170 
# 
# 
# High freq. dielectric constant tensor:
#      x y z
#    x 1.734660 0.000000 0.000000 
#    y 0.000000 1.701030 0.000000 
#    z 0.000000 0.000000 1.741430 
# 
# From -- ./inp_files/27250.got.cif
#   From: 2010.03.12/outbox.cif.g09.slc.cpg/sg62_14_cif.got.tgz:27250.got - 2010.04.10 19:12:36.
