data_PCOD8253882
_publ_section_title
;
Structure prediction by ZEFSAII (Michael W. Deem and Ramdas Pophale) SiO2 
 PCOD8253882
Probable space group: P N M A
;
_chemical_formula_sum "Si O2"
_cell_formula_units_Z 40
_cell_length_a 20.339377
_cell_length_b 8.995053
_cell_length_c 10.316418
_cell_angle_alpha 90.000000
_cell_angle_beta 90.000000
_cell_angle_gamma 90.000000
_cell_volume 1887.427608
_symmetry_space_group_name_H-M "P N M A"
_symmetry_group_IT_number 62
_symmetry_cell_setting 'orthorhombic'
loop_
_space_group_symop_operation_xyz
x,y,z
1/2-x,-y,1/2+z
1/2+x,1/2-y,1/2-z
-x,1/2+y,-z
-x,-y,-z
1/2+x,y,1/2-z
1/2-x,1/2+y,1/2+z
x,1/2-y,z
loop_
_atom_site_type_symbol
_atom_site_label
_atom_site_fract_x
_atom_site_fract_y
_atom_site_fract_z
Si Si1 0.943279 0.921661 0.331362
Si Si2 0.703685 0.920275 0.468995
Si Si3 0.290119 0.924538 0.787422
Si Si4 0.091328 0.921798 0.415240
Si Si5 0.438486 0.077814 0.434079
O O1 0.924040 0.750000 0.318909
O O2 0.020574 0.944158 0.351315
O O3 0.902693 0.990467 0.450014
O O4 0.921538 0.006575 0.203426
O O5 0.721058 0.750000 0.437916
O O6 0.736072 0.967965 0.605346
O O7 0.625283 0.943289 0.476242
O O8 0.733898 0.020798 0.354069
O O9 0.303489 0.750000 0.783471
O O10 0.357482 0.010351 0.815106
O O11 0.106701 0.750000 0.441490
O O12 0.455635 0.250000 0.414401
O O13 0.500000 0.000000 0.500000
#
# Coordination Sequence:
#
# PCOD8253882 Si02
#       5
#     8   8   8   8   8
#     4  10  21  37  60  92 124 160 208 256 309 373
#     4  10  25  45  63  91 128 166 208 259 314 372
#     4  11  24  42  65  93 124 164 213 259 310 375
#     4  10  21  38  61  89 126 165 201 254 314 368
#     4  11  23  40  62  89 125 163 208 262 319 376
#
# _framework density 21.192867
#
# number of rings (size 3 to 8) (size 9 to 14) (size 15 to 20)
#    0.000    1.600    0.000    3.600    2.800   10.400 
#    0.000    0.000    0.000    0.000    0.000    0.000 
#    0.000    0.000    0.000    0.000    0.000    0.000 
#
# Total GULP energy -496255.127019 kJ/mol
# GULP energy per Si atom -12406.378175 kJ/mol
# Density = 2.114463 g / cm^3
# Si number density = 21.192867 Si / 1000 Ang^3
#
#
#
# Elastic Constant Matrix: (Units=GPa)
#
#
# Indices 1 2 3 4 5 6 
#
# 1 55.5466 41.5539 31.1741 0.0000 0.0000 0.0000
# 2 41.5539 133.1129 62.5353 0.0000 0.0000 0.0000
# 3 31.1741 62.5353 127.8668 0.0000 0.0000 0.0000
# 4 0.0000 0.0000 0.0000 46.5149 0.0000 0.0000
# 5 0.0000 0.0000 0.0000 0.0000 27.0764 0.0000
# 6 0.0000 0.0000 0.0000 0.0000 0.0000 28.0434
#
#
#
# Elastic Compliance Matrix: (Units=1/GPa)
#
#
# Indices 1 2 3 4 5 6 
#
# 1 0.024274 -0.006228 -0.002872 0.000000 0.000000 0.000000
# 2 -0.006228 0.011351 -0.004033 0.000000 0.000000 0.000000
# 3 -0.002872 -0.004033 0.010493 0.000000 0.000000 0.000000
# 4 0.000000 0.000000 0.000000 0.021498 0.000000 0.000000
# 5 0.000000 0.000000 0.000000 0.000000 0.036932 0.000000
# 6 0.000000 0.000000 0.000000 0.000000 0.000000 0.035659
#
#
# Mechanical properties :
#
#
# Convention : Reuss Voigt Hill
#
# Bulk Modulus (GPa) = 50.37305 65.22811 57.80058
# Shear Modulus (GPa) = 28.88617 32.41115 30.64866
#
# Velocity S-wave (km/s) = 3.69591 3.91492 3.80699
# Velocity P-wave (km/s) = 6.48332 7.16105 6.83060
#
# Compressibility (1/GPa) = 0.01985188
#
# Stress axis : x y z
#
# Youngs Moduli (GPa) = 41.19608 88.09415 95.29904
#
# Poissons Ratio (x) = 0.54869 0.27369
# Poissons Ratio (y) = 0.25659 0.38435
# Poissons Ratio (z) = 0.11831 0.35529
#
# Static dielectric constant tensor:
#      x y z
#    x 3.601560 0.000000 0.000000 
#    y 0.000000 3.890760 0.000000 
#    z 0.000000 0.000000 -94.966210 
# 
# 
# High freq. dielectric constant tensor:
#      x y z
#    x 1.827390 0.000000 0.000000 
#    y 0.000000 1.838950 0.000000 
#    z 0.000000 0.000000 1.843760 
# 
# From -- ./inp_files/9113.got.cif
#   From: 2010.03.12/outbox.cif.g09.slc.cpg/sg62_5_cif.got.tgz:9113.got - 2010.04.10 19:12:36.
