data_PCOD8253357
_publ_section_title
;
Structure prediction by ZEFSAII (Michael W. Deem and Ramdas Pophale) SiO2 
 PCOD8253357
Probable space group: P N M A
;
_chemical_formula_sum "Si O2"
_cell_formula_units_Z 48
_cell_length_a 8.259130
_cell_length_b 24.731698
_cell_length_c 11.514890
_cell_angle_alpha 90.000000
_cell_angle_beta 90.000000
_cell_angle_gamma 90.000000
_cell_volume 2352.058018
_symmetry_space_group_name_H-M "P N M A"
_symmetry_group_IT_number 62
_symmetry_cell_setting 'orthorhombic'
loop_
_space_group_symop_operation_xyz
x,y,z
1/2-x,-y,1/2+z
1/2+x,1/2-y,1/2-z
-x,1/2+y,-z
-x,-y,-z
1/2+x,y,1/2-z
1/2-x,1/2+y,1/2+z
x,1/2-y,z
loop_
_atom_site_type_symbol
_atom_site_label
_atom_site_fract_x
_atom_site_fract_y
_atom_site_fract_z
Si Si1 0.138204 0.583076 0.184599
Si Si2 0.608591 0.750000 0.845048
Si Si3 0.952872 0.950761 0.418053
Si Si4 0.839232 0.692028 0.296028
Si Si5 0.079230 0.156051 0.942658
Si Si6 0.014248 0.250000 0.095367
Si Si7 0.556468 0.656890 0.004195
O O1 0.269755 0.541590 0.130859
O O2 0.070411 0.558926 0.305919
O O3 0.219085 0.641641 0.200661
O O4 0.997690 0.597067 0.090688
O O5 0.596510 0.750000 0.707923
O O6 0.794494 0.750000 0.881630
O O7 0.520497 0.696364 0.895677
O O8 0.959297 0.899534 0.505347
O O9 0.000000 0.000000 0.500000
O O10 0.755003 0.750000 0.324214
O O11 0.910763 0.694743 0.168012
O O12 0.995544 0.685610 0.378745
O O13 0.254427 0.142504 0.993585
O O14 0.972644 0.193301 0.030336
#
# Coordination Sequence:
#
# PCOD8253357 Si02
#       7
#     8   4   8   8   8   4   8
#     4  11  22  39  62  95 128 151 211 272 313 385
#     4  10  22  39  54  82 127 170 204 245 305 394
#     4  11  23  43  66  90 125 168 213 275 328 377
#     4  11  19  30  60  99 127 157 190 249 325 381
#     4  11  19  35  60  90 124 153 203 256 314 369
#     4  10  24  35  56  82 127 176 204 241 307 384
#     4  10  20  38  60  86 124 161 199 255 317 376
#
# _framework density 20.40766
#
# number of rings (size 3 to 8) (size 9 to 14) (size 15 to 20)
#    0.000    1.333    6.667    0.000    1.167    4.000 
#    0.000    8.333    0.000    0.000    0.000    0.000 
#    0.000    0.000    0.000    0.000    0.000    0.000 
#
# Total GULP energy -594639.735006 kJ/mol
# GULP energy per Si atom -12388.327813 kJ/mol
# Density = 2.036121 g / cm^3
# Si number density = 20.407660 Si / 1000 Ang^3
#
#
#
# Elastic Constant Matrix: (Units=GPa)
#
#
# Indices 1 2 3 4 5 6 
#
# 1 59.9321 17.2965 17.9357 0.0000 0.0000 0.0000
# 2 17.2965 93.4468 46.1000 0.0000 0.0000 0.0000
# 3 17.9357 46.1000 95.9576 0.0000 0.0000 0.0000
# 4 0.0000 0.0000 0.0000 40.5545 0.0000 0.0000
# 5 0.0000 0.0000 0.0000 0.0000 26.8376 0.0000
# 6 0.0000 0.0000 0.0000 0.0000 0.0000 18.4488
#
#
#
# Elastic Compliance Matrix: (Units=1/GPa)
#
#
# Indices 1 2 3 4 5 6 
#
# 1 0.018011 -0.002193 -0.002313 0.000000 0.000000 0.000000
# 2 -0.002193 0.014292 -0.006456 0.000000 0.000000 0.000000
# 3 -0.002313 -0.006456 0.013955 0.000000 0.000000 0.000000
# 4 0.000000 0.000000 0.000000 0.024658 0.000000 0.000000
# 5 0.000000 0.000000 0.000000 0.000000 0.037261 0.000000
# 6 0.000000 0.000000 0.000000 0.000000 0.000000 0.054204
#
#
# Mechanical properties :
#
#
# Convention : Reuss Voigt Hill
#
# Bulk Modulus (GPa) = 41.09466 45.77788 43.43627
# Shear Modulus (GPa) = 25.98521 28.36847 27.17684
#
# Velocity S-wave (km/s) = 3.57221 3.73243 3.65320
# Velocity P-wave (km/s) = 6.09876 6.40743 6.25500
#
# Compressibility (1/GPa) = 0.02433406
#
# Stress axis : x y z
#
# Youngs Moduli (GPa) = 55.52309 69.96785 71.65665
#
# Poissons Ratio (x) = 0.15341 0.16574
# Poissons Ratio (y) = 0.12174 0.46265
# Poissons Ratio (z) = 0.12843 0.45175
#
# Static dielectric constant tensor:
#      x y z
#    x 3.934560 0.000000 0.000000 
#    y 0.000000 3.568190 0.000000 
#    z 0.000000 0.000000 3.699870 
# 
# 
# High freq. dielectric constant tensor:
#      x y z
#    x 1.804130 0.000000 0.000000 
#    y 0.000000 1.770710 0.000000 
#    z 0.000000 0.000000 1.777610 
# 
# From -- ./inp_files/11348.got.cif
#   From: 2010.03.12/outbox.cif.g09.slc.cpg/sg62_6_cif.got.tgz:11348.got - 2010.04.10 19:12:36.
