data_PCOD8253148
_publ_section_title
;
Structure prediction by ZEFSAII (Michael W. Deem and Ramdas Pophale) SiO2 
 PCOD8253148
Probable space group: P N M A
;
_chemical_formula_sum "Si O2"
_cell_formula_units_Z 52
_cell_length_a 22.264187
_cell_length_b 12.045824
_cell_length_c 7.760039
_cell_angle_alpha 90.000000
_cell_angle_beta 90.000000
_cell_angle_gamma 90.000000
_cell_volume 2081.168570
_symmetry_space_group_name_H-M "P N M A"
_symmetry_group_IT_number 62
_symmetry_cell_setting 'orthorhombic'
loop_
_space_group_symop_operation_xyz
x,y,z
1/2-x,-y,1/2+z
1/2+x,1/2-y,1/2-z
-x,1/2+y,-z
-x,-y,-z
1/2+x,y,1/2-z
1/2-x,1/2+y,1/2+z
x,1/2-y,z
loop_
_atom_site_type_symbol
_atom_site_label
_atom_site_fract_x
_atom_site_fract_y
_atom_site_fract_z
Si Si1 0.045569 0.750000 0.748559
Si Si2 0.662394 0.991866 0.029349
Si Si3 0.559564 0.376931 0.856771
Si Si4 0.217406 0.969894 0.111492
Si Si5 0.129289 0.123504 0.000887
Si Si6 0.620089 0.750000 0.068481
Si Si7 0.024499 0.030328 0.182776
Si Si8 0.355170 0.250000 0.550299
O O1 0.061626 0.750000 0.548142
O O2 0.004503 0.644803 0.765375
O O3 0.100892 0.750000 0.884856
O O4 0.656915 0.859283 0.014389
O O5 0.598316 0.055729 0.000976
O O6 0.710241 0.035668 0.887391
O O7 0.694596 0.018423 0.207983
O O8 0.550407 0.250000 0.917323
O O9 0.594348 0.383312 0.677647
O O10 0.494152 0.435959 0.824150
O O11 0.188662 0.854513 0.051154
O O12 0.194038 0.065556 0.977885
O O13 0.135521 0.250000 0.062096
O O14 0.095674 0.049696 0.152894
O O15 0.604615 0.750000 0.273724
O O16 0.000000 0.000000 0.000000
#
# Coordination Sequence:
#
# PCOD8253148 Si02
#       8
#     4   8   8   8   8   4   8   4
#     4  12  20  40  77  88 128 182 219 263 332 398
#     4  11  24  43  65  90 127 165 220 266 337 393
#     4  10  21  38  63  93 131 164 208 269 317 385
#     4  11  25  42  64  92 127 170 211 279 324 398
#     4  10  21  40  62  93 134 164 217 266 316 385
#     4  10  24  42  65  97 128 168 220 279 321 388
#     4  10  20  36  65  97 124 170 225 260 319 395
#     4  10  24  42  62  97 132 162 223 272 319 392
#
# _framework density 24.985961
#
# number of rings (size 3 to 8) (size 9 to 14) (size 15 to 20)
#    0.000    1.538    2.308    2.769    5.385    0.615 
#    1.385    0.769    6.769    0.000    0.000    0.000 
#    0.000    0.000    0.000    0.000    0.000    0.000 
#
# Total GULP energy -644438.474061 kJ/mol
# GULP energy per Si atom -12393.047578 kJ/mol
# Density = 2.492909 g / cm^3
# Si number density = 24.985961 Si / 1000 Ang^3
#
#
#
# Elastic Constant Matrix: (Units=GPa)
#
#
# Indices 1 2 3 4 5 6 
#
# 1 50.2122 2.3214 -11.9387 0.0000 0.0000 0.0000
# 2 2.3214 137.9216 5.9104 0.0000 0.0000 0.0000
# 3 -11.9387 5.9104 46.8649 0.0000 0.0000 0.0000
# 4 0.0000 0.0000 0.0000 27.5960 0.0000 0.0000
# 5 0.0000 0.0000 0.0000 0.0000 33.0168 0.0000
# 6 0.0000 0.0000 0.0000 0.0000 0.0000 -5.7311
#
#
#
# Elastic Compliance Matrix: (Units=1/GPa)
#
#
# Indices 1 2 3 4 5 6 
#
# 1 0.021248 -0.000593 0.005488 0.000000 0.000000 0.000000
# 2 -0.000593 0.007306 -0.001072 0.000000 0.000000 0.000000
# 3 0.005488 -0.001072 0.022871 0.000000 0.000000 0.000000
# 4 0.000000 0.000000 0.000000 0.036237 0.000000 0.000000
# 5 0.000000 0.000000 0.000000 0.000000 0.030288 0.000000
# 6 0.000000 0.000000 0.000000 0.000000 0.000000 -0.174486
#
#
# Mechanical properties :
#
#
# Convention : Reuss Voigt Hill
#
# Bulk Modulus (GPa) = 16.92914 25.28722 21.10818
# Shear Modulus (GPa) = -112.38217 26.89004 -42.74606
#
# Velocity S-wave (km/s) = -6.71385 3.28412 -4.14067
# Velocity P-wave (km/s) = 7.30143 4.95208 3.79393
#
# Compressibility (1/GPa) = 0.05906975
#
# Stress axis : x y z
#
# Youngs Moduli (GPa) = 47.06406 136.86568 43.72322
#
# Poissons Ratio (x) = 0.08113 -0.23993
# Poissons Ratio (y) = 0.02790 0.04689
# Poissons Ratio (z) = -0.25827 0.14678
#
# Static dielectric constant tensor:
#      x y z
#    x 4.849610 0.000000 0.000000 
#    y 0.000000 4.708430 0.000000 
#    z 0.000000 0.000000 4.654660 
# 
# 
# High freq. dielectric constant tensor:
#      x y z
#    x 1.996200 0.000000 0.000000 
#    y 0.000000 2.004390 0.000000 
#    z 0.000000 0.000000 2.008740 
# 
# From -- ./inp_files/9873.got.cif
#   From: 2010.03.12/outbox.cif.g09.slc.cpg/sg62_5_cif.got.tgz:9873.got - 2010.04.10 19:12:36.
