data_PCOD8253876
_publ_section_title
;
Structure prediction by ZEFSAII (Michael W. Deem and Ramdas Pophale) SiO2 
 PCOD8253876
Probable space group: P N M A
;
_chemical_formula_sum "Si O2"
_cell_formula_units_Z 48
_cell_length_a 5.059093
_cell_length_b 16.131652
_cell_length_c 29.424294
_cell_angle_alpha 90.000000
_cell_angle_beta 90.000000
_cell_angle_gamma 90.000000
_cell_volume 2401.361585
_symmetry_space_group_name_H-M "P N M A"
_symmetry_group_IT_number 62
_symmetry_cell_setting 'orthorhombic'
loop_
_space_group_symop_operation_xyz
x,y,z
1/2-x,-y,1/2+z
1/2+x,1/2-y,1/2-z
-x,1/2+y,-z
-x,-y,-z
1/2+x,y,1/2-z
1/2-x,1/2+y,1/2+z
x,1/2-y,z
loop_
_atom_site_type_symbol
_atom_site_label
_atom_site_fract_x
_atom_site_fract_y
_atom_site_fract_z
Si Si1 0.069802 0.843856 0.074556
Si Si2 0.564887 0.844652 0.014957
Si Si3 0.446845 0.250000 0.309287
Si Si4 0.449508 0.250000 0.132324
Si Si5 0.056057 0.502723 0.878414
Si Si6 0.505968 0.568907 0.722468
Si Si7 0.551694 0.583330 0.919155
O O1 0.067421 0.750000 0.093688
O O2 0.011913 0.905314 0.116516
O O3 0.352647 0.867902 0.053482
O O4 0.856703 0.855337 0.034807
O O5 0.520098 0.750000 0.998473
O O6 0.532182 0.907981 0.973354
O O7 0.142344 0.250000 0.324453
O O8 0.498705 0.168543 0.279667
O O9 0.644692 0.250000 0.352311
O O10 0.518701 0.170520 0.103000
O O11 0.056832 0.526876 0.825854
O O12 0.342263 0.516781 0.900757
O O13 0.846335 0.557549 0.905774
O O14 0.228198 0.538349 0.742365
#
# Coordination Sequence:
#
# PCOD8253876 Si02
#       7
#     8   8   4   4   8   8   8
#     4  10  23  42  61  85 115 153 197 244 301 345
#     4  10  21  37  60  87 121 160 196 236 279 338
#     4  12  22  39  60  84 120 162 198 224 280 341
#     4  12  20  37  56  86 126 164 194 226 270 345
#     4  12  25  40  61  86 117 154 196 247 293 343
#     4  12  24  40  59  86 117 151 191 241 289 345
#     4  12  22  37  60  88 124 162 195 232 281 333
#
# _framework density 19.988659999999999
#
# number of rings (size 3 to 8) (size 9 to 14) (size 15 to 20)
#    0.000    0.667    4.167    4.500    0.000    4.000 
#    0.000    0.000    0.000    1.000    0.000    0.000 
#    0.000    0.000    0.000    0.000    0.000    0.000 
#
# Total GULP energy -595479.179150 kJ/mol
# GULP energy per Si atom -12405.816232 kJ/mol
# Density = 1.994316 g / cm^3
# Si number density = 19.988660 Si / 1000 Ang^3
#
#
#
# Elastic Constant Matrix: (Units=GPa)
#
#
# Indices 1 2 3 4 5 6 
#
# 1 90.1710 10.4471 12.8171 0.0000 0.0000 0.0000
# 2 10.4471 74.7010 40.9103 0.0000 0.0000 0.0000
# 3 12.8171 40.9103 77.7034 0.0000 0.0000 0.0000
# 4 0.0000 0.0000 0.0000 11.3258 0.0000 0.0000
# 5 0.0000 0.0000 0.0000 0.0000 29.7377 0.0000
# 6 0.0000 0.0000 0.0000 0.0000 0.0000 19.9017
#
#
#
# Elastic Compliance Matrix: (Units=1/GPa)
#
#
# Indices 1 2 3 4 5 6 
#
# 1 0.011390 -0.000792 -0.001461 0.000000 0.000000 0.000000
# 2 -0.000792 0.018866 -0.009802 0.000000 0.000000 0.000000
# 3 -0.001461 -0.009802 0.018271 0.000000 0.000000 0.000000
# 4 0.000000 0.000000 0.000000 0.088294 0.000000 0.000000
# 5 0.000000 0.000000 0.000000 0.000000 0.033627 0.000000
# 6 0.000000 0.000000 0.000000 0.000000 0.000000 0.050247
#
#
# Mechanical properties :
#
#
# Convention : Reuss Voigt Hill
#
# Bulk Modulus (GPa) = 40.95899 41.21381 41.08640
# Shear Modulus (GPa) = 19.76722 24.08645 21.92683
#
# Velocity S-wave (km/s) = 3.14812 3.47509 3.31564
# Velocity P-wave (km/s) = 5.80946 6.06341 5.93780
#
# Compressibility (1/GPa) = 0.02441466
#
# Stress axis : x y z
#
# Youngs Moduli (GPa) = 87.79944 53.00673 54.73123
#
# Poissons Ratio (x) = 0.04201 0.07999
# Poissons Ratio (y) = 0.06958 0.53647
# Poissons Ratio (z) = 0.12832 0.51956
#
# Static dielectric constant tensor:
#      x y z
#    x 3.838080 0.000000 0.000000 
#    y 0.000000 3.764470 0.000000 
#    z 0.000000 0.000000 3.412340 
# 
# 
# High freq. dielectric constant tensor:
#      x y z
#    x 1.803050 0.000000 0.000000 
#    y 0.000000 1.767650 0.000000 
#    z 0.000000 0.000000 1.761690 
# 
# From -- ./inp_files/30434.got.cif
#   From: 2010.03.12/outbox.cif.g09.slc.cpg/sg62_16_cif.got.tgz:30434.got - 2010.04.10 19:12:36.
