data_PCOD8253685
_publ_section_title
;
Structure prediction by ZEFSAII (Michael W. Deem and Ramdas Pophale) SiO2 
 PCOD8253685
Probable space group: P N M A
;
_chemical_formula_sum "Si O2"
_cell_formula_units_Z 64
_cell_length_a 25.610983
_cell_length_b 9.102570
_cell_length_c 14.576311
_cell_angle_alpha 90.000000
_cell_angle_beta 90.000000
_cell_angle_gamma 90.000000
_cell_volume 3398.113660
_symmetry_space_group_name_H-M "P N M A"
_symmetry_group_IT_number 62
_symmetry_cell_setting 'orthorhombic'
loop_
_space_group_symop_operation_xyz
x,y,z
1/2-x,-y,1/2+z
1/2+x,1/2-y,1/2-z
-x,1/2+y,-z
-x,-y,-z
1/2+x,y,1/2-z
1/2-x,1/2+y,1/2+z
x,1/2-y,z
loop_
_atom_site_type_symbol
_atom_site_label
_atom_site_fract_x
_atom_site_fract_y
_atom_site_fract_z
Si Si1 0.604432 0.580288 0.656270
Si Si2 0.053700 0.080119 0.513667
Si Si3 0.139831 0.079100 0.364335
Si Si4 0.996942 0.576479 0.098021
Si Si5 0.627525 0.917633 0.860553
Si Si6 0.893301 0.081932 0.815867
Si Si7 0.177877 0.918823 0.008193
Si Si8 0.785521 0.421822 0.503101
O O1 0.588395 0.750000 0.640781
O O2 0.552489 0.482552 0.654326
O O3 0.634289 0.556924 0.752344
O O4 0.644109 0.527466 0.578282
O O5 0.042575 0.250000 0.528114
O O6 0.089276 0.047336 0.425767
O O7 0.080871 0.020109 0.605052
O O8 0.000000 0.000000 0.500000
O O9 0.153509 0.250000 0.359516
O O10 0.128087 0.021817 0.263374
O O11 0.189770 0.997753 0.407332
O O12 0.992595 0.750000 0.082390
O O13 0.048042 0.536409 0.157027
O O14 0.000000 0.500000 0.000000
O O15 0.612069 0.750000 0.882732
O O16 0.681139 0.959352 0.911901
O O17 0.891736 0.250000 0.781928
O O18 0.856504 0.057528 0.902399
O O19 0.195074 0.750000 0.996345
O O20 0.228245 0.019276 0.015895
O O21 0.783087 0.250000 0.522884
#
# Coordination Sequence:
#
# PCOD8253685 Si02
#       8
#     8   8   8   8   8   8   8   8
#     4  10  21  39  60  85 118 155 194 238 291 349
#     4  10  21  36  55  81 113 149 191 236 286 341
#     4  10  22  39  59  84 113 152 197 240 290 346
#     4  11  22  38  59  85 119 157 195 238 291 344
#     4   9  20  38  59  82 113 150 189 235 288 343
#     4  10  22  39  58  85 120 156 193 238 293 344
#     4  10  21  39  60  84 117 155 192 237 292 346
#     4  10  21  39  61  87 117 151 193 243 293 343
#
# _framework density 18.833977999999998
#
# number of rings (size 3 to 8) (size 9 to 14) (size 15 to 20)
#    0.000    2.000    1.250    1.500    1.750    5.500 
#    0.000    1.250    0.000    0.000    0.000    0.000 
#    0.000    0.000    0.000    0.000    0.000    0.000 
#
# Total GULP energy -793892.929783 kJ/mol
# GULP energy per Si atom -12404.577028 kJ/mol
# Density = 1.879111 g / cm^3
# Si number density = 18.833978 Si / 1000 Ang^3
#
#
#
# Elastic Constant Matrix: (Units=GPa)
#
#
# Indices 1 2 3 4 5 6 
#
# 1 127.5107 57.6924 41.9175 0.0000 0.0000 0.0000
# 2 57.6924 84.8949 41.9346 0.0000 0.0000 0.0000
# 3 41.9175 41.9346 109.5899 0.0000 0.0000 0.0000
# 4 0.0000 0.0000 0.0000 32.3080 0.0000 0.0000
# 5 0.0000 0.0000 0.0000 0.0000 -27.1566 0.0000
# 6 0.0000 0.0000 0.0000 0.0000 0.0000 38.8062
#
#
#
# Elastic Compliance Matrix: (Units=1/GPa)
#
#
# Indices 1 2 3 4 5 6 
#
# 1 0.011590 -0.007012 -0.001750 0.000000 0.000000 0.000000
# 2 -0.007012 0.018767 -0.004499 0.000000 0.000000 0.000000
# 3 -0.001750 -0.004499 0.011516 0.000000 0.000000 0.000000
# 4 0.000000 0.000000 0.000000 0.030952 0.000000 0.000000
# 5 0.000000 0.000000 0.000000 0.000000 -0.036823 0.000000
# 6 0.000000 0.000000 0.000000 0.000000 0.000000 0.025769
#
#
# Mechanical properties :
#
#
# Convention : Reuss Voigt Hill
#
# Bulk Modulus (GPa) = 65.14361 67.23162 66.18762
# Shear Modulus (GPa) = 53.52727 20.82157 37.17442
#
# Velocity S-wave (km/s) = 5.33688 3.32856 4.44756
# Velocity P-wave (km/s) = 8.52290 7.10963 7.84814
#
# Compressibility (1/GPa) = 0.01535070
#
# Stress axis : x y z
#
# Youngs Moduli (GPa) = 86.27805 53.28547 86.83649
#
# Poissons Ratio (x) = 0.37364 0.15197
# Poissons Ratio (y) = 0.60499 0.39068
# Poissons Ratio (z) = 0.15100 0.23973
#
# Static dielectric constant tensor:
#      x y z
#    x 3.505270 0.000000 0.000000 
#    y 0.000000 3.536380 0.000000 
#    z 0.000000 0.000000 3.219910 
# 
# 
# High freq. dielectric constant tensor:
#      x y z
#    x 1.733710 0.000000 0.000000 
#    y 0.000000 1.736640 0.000000 
#    z 0.000000 0.000000 1.736990 
# 
# From -- ./inp_files/20817.got.cif
#   From: 2010.03.12/outbox.cif.g09.slc.cpg/sg62_11_cif.got.tgz:20817.got - 2010.04.10 19:12:36.
