data_PCOD8253520
_publ_section_title
;
Structure prediction by ZEFSAII (Michael W. Deem and Ramdas Pophale) SiO2 
 PCOD8253520
Probable space group: P N M A
;
_chemical_formula_sum "Si O2"
_cell_formula_units_Z 48
_cell_length_a 15.894222
_cell_length_b 14.755157
_cell_length_c 10.735331
_cell_angle_alpha 90.000000
_cell_angle_beta 90.000000
_cell_angle_gamma 90.000000
_cell_volume 2517.668516
_symmetry_space_group_name_H-M "P N M A"
_symmetry_group_IT_number 62
_symmetry_cell_setting 'orthorhombic'
loop_
_space_group_symop_operation_xyz
x,y,z
1/2-x,-y,1/2+z
1/2+x,1/2-y,1/2-z
-x,1/2+y,-z
-x,-y,-z
1/2+x,y,1/2-z
1/2-x,1/2+y,1/2+z
x,1/2-y,z
loop_
_atom_site_type_symbol
_atom_site_label
_atom_site_fract_x
_atom_site_fract_y
_atom_site_fract_z
Si Si1 0.056269 0.145843 0.581324
Si Si2 0.265387 0.854878 0.960890
Si Si3 0.742836 0.145903 0.325793
Si Si4 0.364316 0.004162 0.547102
Si Si5 0.470543 0.513503 0.306296
Si Si6 0.934545 0.353580 0.363576
O O1 0.051625 0.250000 0.622521
O O2 0.140740 0.124971 0.505653
O O3 0.054238 0.086784 0.704312
O O4 0.977961 0.119277 0.493516
O O5 0.240299 0.750000 0.977586
O O6 0.258411 0.884826 0.817632
O O7 0.201430 0.913514 0.043116
O O8 0.714303 0.250000 0.338065
O O9 0.678672 0.086900 0.404607
O O10 0.835589 0.130620 0.381372
O O11 0.400137 0.980945 0.411905
O O12 0.437912 0.035765 0.639650
O O13 0.471524 0.412985 0.248509
O O14 0.955584 0.250000 0.327616
#
# Coordination Sequence:
#
# PCOD8253520 Si02
#       6
#     8   8   8   8   8   8
#     4  10  22  40  62  87 117 156 198 244 296 350
#     4  10  21  40  63  86 116 156 201 247 297 350
#     4  10  21  39  62  88 117 152 200 248 291 351
#     4  11  24  37  59  88 119 159 195 240 300 355
#     4  11  23  39  57  87 123 155 194 242 298 353
#     4  10  20  39  64  87 115 154 201 244 286 347
#
# _framework density 19.065256999999999
#
# number of rings (size 3 to 8) (size 9 to 14) (size 15 to 20)
#    0.000    1.667    1.667    2.500    0.000    4.667 
#    0.000    3.333    0.000    0.000    0.000    0.000 
#    0.000    0.000    0.000    0.000    0.000    0.000 
#
# Total GULP energy -595483.205673 kJ/mol
# GULP energy per Si atom -12405.900118 kJ/mol
# Density = 1.902186 g / cm^3
# Si number density = 19.065257 Si / 1000 Ang^3
#
#
#
# Elastic Constant Matrix: (Units=GPa)
#
#
# Indices 1 2 3 4 5 6 
#
# 1 96.7200 44.1289 39.8935 0.0000 0.0000 0.0000
# 2 44.1289 92.3573 49.5631 0.0000 0.0000 0.0000
# 3 39.8935 49.5631 76.7519 0.0000 0.0000 0.0000
# 4 0.0000 0.0000 0.0000 31.9159 0.0000 0.0000
# 5 0.0000 0.0000 0.0000 0.0000 29.2105 0.0000
# 6 0.0000 0.0000 0.0000 0.0000 0.0000 30.3803
#
#
#
# Elastic Compliance Matrix: (Units=1/GPa)
#
#
# Indices 1 2 3 4 5 6 
#
# 1 0.014206 -0.004323 -0.004592 0.000000 0.000000 0.000000
# 2 -0.004323 0.017885 -0.009302 0.000000 0.000000 0.000000
# 3 -0.004592 -0.009302 0.021423 0.000000 0.000000 0.000000
# 4 0.000000 0.000000 0.000000 0.031332 0.000000 0.000000
# 5 0.000000 0.000000 0.000000 0.000000 0.034234 0.000000
# 6 0.000000 0.000000 0.000000 0.000000 0.000000 0.032916
#
#
# Mechanical properties :
#
#
# Convention : Reuss Voigt Hill
#
# Bulk Modulus (GPa) = 58.55306 59.22224 58.88765
# Shear Modulus (GPa) = 25.75664 27.11758 26.43711
#
# Velocity S-wave (km/s) = 3.67955 3.77550 3.72783
# Velocity P-wave (km/s) = 6.98789 7.08070 7.03445
#
# Compressibility (1/GPa) = 0.01707853
#
# Stress axis : x y z
#
# Youngs Moduli (GPa) = 70.39463 55.91167 46.67917
#
# Poissons Ratio (x) = 0.24172 0.21434
# Poissons Ratio (y) = 0.30434 0.43423
# Poissons Ratio (z) = 0.32324 0.52012
#
# Static dielectric constant tensor:
#      x y z
#    x 3.623910 0.000000 0.000000 
#    y 0.000000 3.523380 0.000000 
#    z 0.000000 0.000000 3.474930 
# 
# 
# High freq. dielectric constant tensor:
#      x y z
#    x 1.755010 0.000000 0.000000 
#    y 0.000000 1.746960 0.000000 
#    z 0.000000 0.000000 1.738750 
# 
# From -- ./inp_files/13243.got.cif
#   From: 2010.03.12/outbox.cif.g09.slc.cpg/sg62_7_cif.got.tgz:13243.got - 2010.04.10 19:12:36.
