data_PCOD8253144
_publ_section_title
;
Structure prediction by ZEFSAII (Michael W. Deem and Ramdas Pophale) SiO2 
 PCOD8253144
Probable space group: P N M A
;
_chemical_formula_sum "Si O2"
_cell_formula_units_Z 56
_cell_length_a 9.702550
_cell_length_b 13.754970
_cell_length_c 19.389409
_cell_angle_alpha 90.000000
_cell_angle_beta 90.000000
_cell_angle_gamma 90.000000
_cell_volume 2587.677256
_symmetry_space_group_name_H-M "P N M A"
_symmetry_group_IT_number 62
_symmetry_cell_setting 'orthorhombic'
loop_
_space_group_symop_operation_xyz
x,y,z
1/2-x,-y,1/2+z
1/2+x,1/2-y,1/2-z
-x,1/2+y,-z
-x,-y,-z
1/2+x,y,1/2-z
1/2-x,1/2+y,1/2+z
x,1/2-y,z
loop_
_atom_site_type_symbol
_atom_site_label
_atom_site_fract_x
_atom_site_fract_y
_atom_site_fract_z
Si Si1 0.885978 0.479179 0.762408
Si Si2 0.365405 0.858332 0.221640
Si Si3 0.517159 0.638441 0.947005
Si Si4 0.526664 0.365380 0.370212
Si Si5 0.340561 0.643712 0.071577
Si Si6 0.735012 0.455726 0.119896
Si Si7 0.211453 0.465202 0.026832
O O1 0.789109 0.395984 0.793900
O O2 0.892594 0.577656 0.808127
O O3 0.811201 0.489131 0.688541
O O4 0.039879 0.434440 0.762668
O O5 0.365173 0.750000 0.255654
O O6 0.420346 0.853407 0.143856
O O7 0.555169 0.750000 0.937721
O O8 0.396426 0.611463 0.894459
O O9 0.657001 0.580953 0.934407
O O10 0.465255 0.610078 0.022803
O O11 0.554963 0.250000 0.362849
O O12 0.364480 0.385728 0.365243
O O13 0.578990 0.405464 0.445315
O O14 0.284711 0.750000 0.050420
O O15 0.208654 0.573968 0.058778
O O16 0.775622 0.530399 0.056932
#
# Coordination Sequence:
#
# PCOD8253144 Si02
#       7
#     8   8   8   8   8   8   8
#     4  12  24  45  65  99 136 180 228 283 343 409
#     4  11  22  41  68  95 129 169 222 281 342 409
#     4  10  20  36  64  98 128 164 217 269 332 400
#     4  12  27  45  66  97 142 186 231 280 349 422
#     4   9  18  34  60  92 121 158 208 268 326 387
#     4  11  24  43  68  94 139 181 227 284 343 400
#     4  11  21  42  68  98 130 173 223 286 340 402
#
# _framework density 21.641029
#
# number of rings (size 3 to 8) (size 9 to 14) (size 15 to 20)
#    0.000    1.143    2.857    5.143    0.000    1.714 
#    0.000    2.143    0.000    0.000    0.000    0.000 
#    0.000    0.000    0.000    0.000    0.000    0.000 
#
# Total GULP energy -693919.524549 kJ/mol
# GULP energy per Si atom -12391.420081 kJ/mol
# Density = 2.159177 g / cm^3
# Si number density = 21.641029 Si / 1000 Ang^3
#
#
#
# Elastic Constant Matrix: (Units=GPa)
#
#
# Indices 1 2 3 4 5 6 
#
# 1 89.7425 27.3258 2.9919 0.0000 0.0000 0.0000
# 2 27.3258 118.3553 20.2199 0.0000 0.0000 0.0000
# 3 2.9919 20.2199 77.6602 0.0000 0.0000 0.0000
# 4 0.0000 0.0000 0.0000 21.8852 0.0000 0.0000
# 5 0.0000 0.0000 0.0000 0.0000 23.4826 0.0000
# 6 0.0000 0.0000 0.0000 0.0000 0.0000 28.6939
#
#
#
# Elastic Compliance Matrix: (Units=1/GPa)
#
#
# Indices 1 2 3 4 5 6 
#
# 1 0.011991 -0.002815 0.000271 0.000000 0.000000 0.000000
# 2 -0.002815 0.009503 -0.002366 0.000000 0.000000 0.000000
# 3 0.000271 -0.002366 0.013482 0.000000 0.000000 0.000000
# 4 0.000000 0.000000 0.000000 0.045693 0.000000 0.000000
# 5 0.000000 0.000000 0.000000 0.000000 0.042585 0.000000
# 6 0.000000 0.000000 0.000000 0.000000 0.000000 0.034851
#
#
# Mechanical properties :
#
#
# Convention : Reuss Voigt Hill
#
# Bulk Modulus (GPa) = 39.75042 42.98146 41.36594
# Shear Modulus (GPa) = 28.35920 30.49372 29.42646
#
# Velocity S-wave (km/s) = 3.62392 3.75783 3.69148
# Velocity P-wave (km/s) = 5.99319 6.22355 6.10946
#
# Compressibility (1/GPa) = 0.02515697
#
# Stress axis : x y z
#
# Youngs Moduli (GPa) = 83.39566 105.22786 74.17210
#
# Poissons Ratio (x) = 0.29619 -0.02009
# Poissons Ratio (y) = 0.23474 0.17548
# Poissons Ratio (z) = -0.02259 0.24895
#
# Static dielectric constant tensor:
#      x y z
#    x 3.855120 0.000000 0.000000 
#    y 0.000000 4.031500 0.000000 
#    z 0.000000 0.000000 4.014920 
# 
# 
# High freq. dielectric constant tensor:
#      x y z
#    x 1.844650 0.000000 0.000000 
#    y 0.000000 1.851820 0.000000 
#    z 0.000000 0.000000 1.846120 
# 
# From -- ./inp_files/26021.got.cif
#   From: 2010.03.12/outbox.cif.g09.slc.cpg/sg62_14_cif.got.tgz:26021.got - 2010.04.10 19:12:36.
