data_PCOD8253173
_publ_section_title
;
Structure prediction by ZEFSAII (Michael W. Deem and Ramdas Pophale) SiO2 
 PCOD8253173
Probable space group: P N M A
;
_chemical_formula_sum "Si O2"
_cell_formula_units_Z 64
_cell_length_a 23.709467
_cell_length_b 8.574914
_cell_length_c 15.186594
_cell_angle_alpha 90.000000
_cell_angle_beta 90.000000
_cell_angle_gamma 90.000000
_cell_volume 3087.535407
_symmetry_space_group_name_H-M "P N M A"
_symmetry_group_IT_number 62
_symmetry_cell_setting 'orthorhombic'
loop_
_space_group_symop_operation_xyz
x,y,z
1/2-x,-y,1/2+z
1/2+x,1/2-y,1/2-z
-x,1/2+y,-z
-x,-y,-z
1/2+x,y,1/2-z
1/2-x,1/2+y,1/2+z
x,1/2-y,z
loop_
_atom_site_type_symbol
_atom_site_label
_atom_site_fract_x
_atom_site_fract_y
_atom_site_fract_z
Si Si1 0.668971 0.435919 0.579814
Si Si2 0.024890 0.071513 0.587717
Si Si3 0.981563 0.932538 0.761579
Si Si4 0.245694 0.936356 0.767360
Si Si5 0.959334 0.568455 0.073467
Si Si6 0.632131 0.069026 0.187717
Si Si7 0.252043 0.070487 0.069607
Si Si8 0.860242 0.924202 0.493724
O O1 0.670834 0.250000 0.583820
O O2 0.696290 0.496998 0.670856
O O3 0.604648 0.498862 0.570789
O O4 0.703206 0.500477 0.494058
O O5 0.003925 0.250000 0.601396
O O6 0.092658 0.067260 0.581055
O O7 0.000000 0.000000 0.500000
O O8 0.010634 0.959965 0.668224
O O9 0.984956 0.750000 0.785929
O O10 0.916431 0.993057 0.754058
O O11 0.013705 0.034630 0.832471
O O12 0.241219 0.750000 0.771031
O O13 0.306061 0.004087 0.799549
O O14 0.242479 0.003000 0.667310
O O15 0.955919 0.750000 0.056466
O O16 0.000000 0.500000 0.000000
O O17 0.637589 0.250000 0.208055
O O18 0.611450 0.036324 0.088162
O O19 0.237737 0.250000 0.081501
O O20 0.311668 0.048558 0.022590
O O21 0.833434 0.750000 0.497215
#
# Coordination Sequence:
#
# PCOD8253173 Si02
#       8
#     8   8   8   8   8   8   8   8
#     4  10  23  43  64  89 127 162 199 255 317 366
#     4  11  22  37  57  87 127 166 205 249 304 369
#     4  11  23  41  65  91 123 166 209 256 313 371
#     4  10  21  38  63  90 119 156 202 248 300 371
#     4  11  26  47  68  92 123 166 215 266 315 370
#     4   9  18  36  61  87 117 156 201 249 308 369
#     4  10  22  38  60  90 117 153 200 248 306 368
#     4  10  20  37  58  83 119 161 199 243 301 362
#
# _framework density 20.728507
#
# number of rings (size 3 to 8) (size 9 to 14) (size 15 to 20)
#    0.000    1.750    2.500    1.125    3.500    2.500 
#    0.000    1.250    0.000    0.000    0.000    0.000 
#    0.000    0.000    0.000    0.000    0.000    0.000 
#
# Total GULP energy -793308.225160 kJ/mol
# GULP energy per Si atom -12395.441018 kJ/mol
# Density = 2.068133 g / cm^3
# Si number density = 20.728507 Si / 1000 Ang^3
#
#
#
# Elastic Constant Matrix: (Units=GPa)
#
#
# Indices 1 2 3 4 5 6 
#
# 1 157.1096 20.9210 65.1998 0.0000 0.0000 0.0000
# 2 20.9210 31.1585 14.2395 0.0000 0.0000 0.0000
# 3 65.1998 14.2395 137.5815 0.0000 0.0000 0.0000
# 4 0.0000 0.0000 0.0000 32.5499 0.0000 0.0000
# 5 0.0000 0.0000 0.0000 0.0000 33.7093 0.0000
# 6 0.0000 0.0000 0.0000 0.0000 0.0000 29.3837
#
#
#
# Elastic Compliance Matrix: (Units=1/GPa)
#
#
# Indices 1 2 3 4 5 6 
#
# 1 0.008372 -0.003997 -0.003554 0.000000 0.000000 0.000000
# 2 -0.003997 0.035596 -0.001790 0.000000 0.000000 0.000000
# 3 -0.003554 -0.001790 0.009138 0.000000 0.000000 0.000000
# 4 0.000000 0.000000 0.000000 0.030722 0.000000 0.000000
# 5 0.000000 0.000000 0.000000 0.000000 0.029665 0.000000
# 6 0.000000 0.000000 0.000000 0.000000 0.000000 0.034032
#
#
# Mechanical properties :
#
#
# Convention : Reuss Voigt Hill
#
# Bulk Modulus (GPa) = 29.04951 58.50779 43.77865
# Shear Modulus (GPa) = 28.14014 34.16119 31.15066
#
# Velocity S-wave (km/s) = 3.68850 4.06400 3.88079
# Velocity P-wave (km/s) = 5.67316 7.09285 6.42235
#
# Compressibility (1/GPa) = 0.03442399
#
# Stress axis : x y z
#
# Youngs Moduli (GPa) = 119.44470 28.09317 109.43536
#
# Poissons Ratio (x) = 0.11229 0.38891
# Poissons Ratio (y) = 0.47745 0.19587
# Poissons Ratio (z) = 0.42448 0.05028
#
# Static dielectric constant tensor:
#      x y z
#    x 3.624780 0.000000 0.000000 
#    y 0.000000 3.469420 0.000000 
#    z 0.000000 0.000000 -26.342110 
# 
# 
# High freq. dielectric constant tensor:
#      x y z
#    x 1.823200 0.000000 0.000000 
#    y 0.000000 1.783780 0.000000 
#    z 0.000000 0.000000 1.817730 
# 
# From -- ./inp_files/20894.got.cif
#   From: 2010.03.12/outbox.cif.g09.slc.cpg/sg62_11_cif.got.tgz:20894.got - 2010.04.10 19:12:36.
