data_PCOD8253065
_publ_section_title
;
Structure prediction by ZEFSAII (Michael W. Deem and Ramdas Pophale) SiO2 
 PCOD8253065
Probable space group: P N M A
;
_chemical_formula_sum "Si O2"
_cell_formula_units_Z 56
_cell_length_a 23.825257
_cell_length_b 8.712754
_cell_length_c 13.517897
_cell_angle_alpha 90.000000
_cell_angle_beta 90.000000
_cell_angle_gamma 90.000000
_cell_volume 2806.093767
_symmetry_space_group_name_H-M "P N M A"
_symmetry_group_IT_number 62
_symmetry_cell_setting 'orthorhombic'
loop_
_space_group_symop_operation_xyz
x,y,z
1/2-x,-y,1/2+z
1/2+x,1/2-y,1/2-z
-x,1/2+y,-z
-x,-y,-z
1/2+x,y,1/2-z
1/2-x,1/2+y,1/2+z
x,1/2-y,z
loop_
_atom_site_type_symbol
_atom_site_label
_atom_site_fract_x
_atom_site_fract_y
_atom_site_fract_z
Si Si1 0.831075 0.430278 0.414287
Si Si2 0.873608 0.430771 0.713487
Si Si3 0.672952 0.429340 0.704698
Si Si4 0.225024 0.069666 0.398142
Si Si5 0.558722 0.571705 0.026164
Si Si6 0.440551 0.927661 0.617412
Si Si7 0.056249 0.427597 0.890101
O O1 0.823402 0.250000 0.395024
O O2 0.815094 0.523807 0.317040
O O3 0.789505 0.480547 0.501399
O O4 0.894980 0.471255 0.443965
O O5 0.862204 0.250000 0.705802
O O6 0.815476 0.517144 0.691278
O O7 0.919715 0.485702 0.633027
O O8 0.895224 0.475188 0.821582
O O9 0.685401 0.250000 0.690083
O O10 0.711905 0.526170 0.631325
O O11 0.608936 0.470164 0.677807
O O12 0.219542 0.250000 0.416140
O O13 0.548592 0.750000 0.030622
O O14 0.500000 0.500000 0.000000
O O15 0.431460 0.750000 0.641165
O O16 0.429231 0.968061 0.503350
O O17 0.503782 0.973353 0.647866
O O18 0.039385 0.250000 0.880526
#
# Coordination Sequence:
#
# PCOD8253065 Si02
#       7
#     8   8   8   8   8   8   8
#     4  10  22  41  60  86 121 155 196 248 298 355
#     4  10  21  38  58  83 116 155 196 243 298 357
#     4  11  23  40  63  88 118 160 202 249 305 359
#     4  11  23  41  62  87 118 155 201 249 299 357
#     4   9  20  35  54  81 115 151 188 236 292 350
#     4  10  20  36  59  86 118 156 198 245 296 353
#     4   9  21  39  57  83 118 154 196 244 296 353
#
# _framework density 19.956567
#
# number of rings (size 3 to 8) (size 9 to 14) (size 15 to 20)
#    0.000    2.000    0.000    3.857    2.000    6.286 
#    0.000    4.286    0.000    0.000    0.000    0.000 
#    0.000    0.000    0.000    0.000    0.000    0.000 
#
# Total GULP energy -694652.049377 kJ/mol
# GULP energy per Si atom -12404.500882 kJ/mol
# Density = 1.991114 g / cm^3
# Si number density = 19.956567 Si / 1000 Ang^3
#
#
#
# Elastic Constant Matrix: (Units=GPa)
#
#
# Indices 1 2 3 4 5 6 
#
# 1 58.6655 20.2981 25.8538 0.0000 0.0000 0.0000
# 2 20.2981 59.2931 14.3205 0.0000 0.0000 0.0000
# 3 25.8538 14.3205 72.6913 0.0000 0.0000 0.0000
# 4 0.0000 0.0000 0.0000 34.6110 0.0000 0.0000
# 5 0.0000 0.0000 0.0000 0.0000 27.2102 0.0000
# 6 0.0000 0.0000 0.0000 0.0000 0.0000 36.7543
#
#
#
# Elastic Compliance Matrix: (Units=1/GPa)
#
#
# Indices 1 2 3 4 5 6 
#
# 1 0.022038 -0.005934 -0.006669 0.000000 0.000000 0.000000
# 2 -0.005934 0.019306 -0.001693 0.000000 0.000000 0.000000
# 3 -0.006669 -0.001693 0.016462 0.000000 0.000000 0.000000
# 4 0.000000 0.000000 0.000000 0.028893 0.000000 0.000000
# 5 0.000000 0.000000 0.000000 0.000000 0.036751 0.000000
# 6 0.000000 0.000000 0.000000 0.000000 0.000000 0.027208
#
#
# Mechanical properties :
#
#
# Convention : Reuss Voigt Hill
#
# Bulk Modulus (GPa) = 34.22971 34.62163 34.42567
# Shear Modulus (GPa) = 26.45693 28.39360 27.42526
#
# Velocity S-wave (km/s) = 3.64500 3.77605 3.71111
# Velocity P-wave (km/s) = 5.90797 6.03304 5.97083
#
# Compressibility (1/GPa) = 0.02921439
#
# Stress axis : x y z
#
# Youngs Moduli (GPa) = 45.37632 51.79870 60.74478
#
# Poissons Ratio (x) = 0.30735 0.40512
# Poissons Ratio (y) = 0.26925 0.10283
# Poissons Ratio (z) = 0.30262 0.08769
#
# Static dielectric constant tensor:
#      x y z
#    x 3.368560 0.000000 0.000000 
#    y 0.000000 3.638800 0.000000 
#    z 0.000000 0.000000 3.495300 
# 
# 
# High freq. dielectric constant tensor:
#      x y z
#    x 1.778050 0.000000 0.000000 
#    y 0.000000 1.783560 0.000000 
#    z 0.000000 0.000000 1.779000 
# 
# From -- ./inp_files/20427.got.cif
#   From: 2010.03.12/outbox.cif.g09.slc.cpg/sg62_11_cif.got.tgz:20427.got - 2010.04.10 19:12:36.
