data_PCOD8253977
_publ_section_title
;
Structure prediction by ZEFSAII (Michael W. Deem and Ramdas Pophale) SiO2 
 PCOD8253977
Probable space group: P N M A
;
_chemical_formula_sum "Si O2"
_cell_formula_units_Z 48
_cell_length_a 16.321689
_cell_length_b 15.816888
_cell_length_c 8.268633
_cell_angle_alpha 90.000000
_cell_angle_beta 90.000000
_cell_angle_gamma 90.000000
_cell_volume 2134.616461
_symmetry_space_group_name_H-M "P N M A"
_symmetry_group_IT_number 62
_symmetry_cell_setting 'orthorhombic'
loop_
_space_group_symop_operation_xyz
x,y,z
1/2-x,-y,1/2+z
1/2+x,1/2-y,1/2-z
-x,1/2+y,-z
-x,-y,-z
1/2+x,y,1/2-z
1/2-x,1/2+y,1/2+z
x,1/2-y,z
loop_
_atom_site_type_symbol
_atom_site_label
_atom_site_fract_x
_atom_site_fract_y
_atom_site_fract_z
Si Si1 0.124131 0.153853 0.830419
Si Si2 0.556530 0.651345 0.383939
Si Si3 0.366455 0.846544 0.972301
Si Si4 0.130410 0.997560 0.288716
Si Si5 0.249995 0.563898 0.548651
Si Si6 0.315007 0.343435 0.349566
O O1 0.138065 0.250000 0.788205
O O2 0.118914 0.113185 0.651060
O O3 0.039133 0.138273 0.927228
O O4 0.202036 0.130204 0.937146
O O5 0.574176 0.750000 0.332790
O O6 0.573935 0.585666 0.234172
O O7 0.610260 0.623799 0.538152
O O8 0.401667 0.750000 0.949013
O O9 0.268986 0.844018 0.948049
O O10 0.409977 0.910826 0.839560
O O11 0.192438 0.990532 0.437101
O O12 0.180707 0.003633 0.122627
O O13 0.192672 0.603023 0.686676
O O14 0.337730 0.250000 0.291956
#
# Coordination Sequence:
#
# PCOD8253977 Si02
#       6
#     8   8   8   8   8   8
#     4  10  21  38  60  86 118 157 197 237 289 350
#     4  10  22  39  58  86 124 158 189 237 297 347
#     4   9  19  37  59  83 114 152 197 243 285 339
#     4  11  22  37  60  87 117 152 196 245 289 343
#     4  11  21  36  59  85 112 151 201 243 285 345
#     4   9  18  35  59  84 113 151 194 241 287 336
#
# _framework density 22.486474999999999
#
# number of rings (size 3 to 8) (size 9 to 14) (size 15 to 20)
#    0.000    2.000    0.000    4.500    0.000    4.667 
#    0.000    3.333    0.000   12.000    0.000    1.167 
#    0.000    0.000    0.000    0.000    0.000    0.000 
#
# Total GULP energy -594627.906980 kJ/mol
# GULP energy per Si atom -12388.081395 kJ/mol
# Density = 2.243529 g / cm^3
# Si number density = 22.486475 Si / 1000 Ang^3
#
#
#
# Elastic Constant Matrix: (Units=GPa)
#
#
# Indices 1 2 3 4 5 6 
#
# 1 31.4942 30.3908 17.2113 0.0000 0.0000 0.0000
# 2 30.3908 98.3457 44.3605 0.0000 0.0000 0.0000
# 3 17.2113 44.3605 84.7398 0.0000 0.0000 0.0000
# 4 0.0000 0.0000 0.0000 42.5806 0.0000 0.0000
# 5 0.0000 0.0000 0.0000 0.0000 13.5822 0.0000
# 6 0.0000 0.0000 0.0000 0.0000 0.0000 8.0836
#
#
#
# Elastic Compliance Matrix: (Units=1/GPa)
#
#
# Indices 1 2 3 4 5 6 
#
# 1 0.045634 -0.012988 -0.002470 0.000000 0.000000 0.000000
# 2 -0.012988 0.017008 -0.006266 0.000000 0.000000 0.000000
# 3 -0.002470 -0.006266 0.015582 0.000000 0.000000 0.000000
# 4 0.000000 0.000000 0.000000 0.023485 0.000000 0.000000
# 5 0.000000 0.000000 0.000000 0.000000 0.073626 0.000000
# 6 0.000000 0.000000 0.000000 0.000000 0.000000 0.123707
#
#
# Mechanical properties :
#
#
# Convention : Reuss Voigt Hill
#
# Bulk Modulus (GPa) = 28.75344 44.27831 36.51588
# Shear Modulus (GPa) = 14.12105 21.02377 17.57241
#
# Velocity S-wave (km/s) = 2.50867 3.06101 2.79850
# Velocity P-wave (km/s) = 4.60500 5.67688 5.16880
#
# Compressibility (1/GPa) = 0.03477845
#
# Stress axis : x y z
#
# Youngs Moduli (GPa) = 21.91330 58.79609 64.17513
#
# Poissons Ratio (x) = 0.76364 0.15849
# Poissons Ratio (y) = 0.28461 0.40209
# Poissons Ratio (z) = 0.05412 0.36839
#
# Static dielectric constant tensor:
#      x y z
#    x 3.731760 0.000000 0.000000 
#    y 0.000000 4.498250 0.000000 
#    z 0.000000 0.000000 4.106790 
# 
# 
# High freq. dielectric constant tensor:
#      x y z
#    x 1.851490 0.000000 0.000000 
#    y 0.000000 1.904960 0.000000 
#    z 0.000000 0.000000 1.881960 
# 
# From -- ./inp_files/6494.got.cif
#   From: 2010.03.12/outbox.cif.g09.slc.cpg/sg62_4_cif.got.tgz:6494.got - 2010.04.10 19:12:36.
