data_PCOD8253177
_publ_section_title
;
Structure prediction by ZEFSAII (Michael W. Deem and Ramdas Pophale) SiO2 
 PCOD8253177
Probable space group: P N M A
;
_chemical_formula_sum "Si O2"
_cell_formula_units_Z 48
_cell_length_a 12.643175
_cell_length_b 8.738642
_cell_length_c 22.454648
_cell_angle_alpha 90.000000
_cell_angle_beta 90.000000
_cell_angle_gamma 90.000000
_cell_volume 2480.883373
_symmetry_space_group_name_H-M "P N M A"
_symmetry_group_IT_number 62
_symmetry_cell_setting 'orthorhombic'
loop_
_space_group_symop_operation_xyz
x,y,z
1/2-x,-y,1/2+z
1/2+x,1/2-y,1/2-z
-x,1/2+y,-z
-x,-y,-z
1/2+x,y,1/2-z
1/2-x,1/2+y,1/2+z
x,1/2-y,z
loop_
_atom_site_type_symbol
_atom_site_label
_atom_site_fract_x
_atom_site_fract_y
_atom_site_fract_z
Si Si1 0.321701 0.569267 0.563624
Si Si2 0.000880 0.069814 0.734761
Si Si3 0.634045 0.923900 0.856225
Si Si4 0.903171 0.576750 0.629181
Si Si5 0.787392 0.569321 0.068965
Si Si6 0.976819 0.430269 0.137709
O O1 0.306095 0.750000 0.561562
O O2 0.228442 0.500893 0.605369
O O3 0.311746 0.503882 0.496905
O O4 0.435271 0.521491 0.589217
O O5 0.988847 0.250000 0.734332
O O6 0.905037 0.994634 0.696208
O O7 0.992057 0.009347 0.801135
O O8 0.113566 0.020522 0.704587
O O9 0.662213 0.750000 0.837590
O O10 0.524733 0.926691 0.895020
O O11 0.859283 0.750000 0.631809
O O12 0.832073 0.474339 0.585834
O O13 0.803728 0.750000 0.072429
O O14 0.864087 0.488954 0.115916
O O15 0.973515 0.250000 0.147553
#
# Coordination Sequence:
#
# PCOD8253177 Si02
#       6
#     8   8   8   8   8   8
#     4   9  20  38  60  84 112 149 191 236 281 336
#     4  10  20  37  58  86 117 146 187 239 290 333
#     4   8  17  37  60  84 113 147 189 231 284 346
#     4   9  19  37  60  85 114 150 190 228 282 349
#     4  11  22  37  58  85 117 149 188 239 286 329
#     4  11  22  38  59  82 114 156 196 231 280 346
#
# _framework density 19.347947000000001
#
# number of rings (size 3 to 8) (size 9 to 14) (size 15 to 20)
#    1.000    1.333    0.000    3.000    0.000    2.000 
#    0.000   10.833    0.000    0.000    0.000    0.000 
#    0.000    0.000    0.000    0.000    0.000    0.000 
#
# Total GULP energy -594958.169144 kJ/mol
# GULP energy per Si atom -12394.961857 kJ/mol
# Density = 1.930391 g / cm^3
# Si number density = 19.347947 Si / 1000 Ang^3
#
#
#
# Elastic Constant Matrix: (Units=GPa)
#
#
# Indices 1 2 3 4 5 6 
#
# 1 57.3001 16.8587 5.6332 0.0000 0.0000 0.0000
# 2 16.8587 68.7898 29.8625 0.0000 0.0000 0.0000
# 3 5.6332 29.8625 83.1700 0.0000 0.0000 0.0000
# 4 0.0000 0.0000 0.0000 10.4747 0.0000 0.0000
# 5 0.0000 0.0000 0.0000 0.0000 37.4361 0.0000
# 6 0.0000 0.0000 0.0000 0.0000 0.0000 23.1891
#
#
#
# Elastic Compliance Matrix: (Units=1/GPa)
#
#
# Indices 1 2 3 4 5 6 
#
# 1 0.018822 -0.004809 0.000452 0.000000 0.000000 0.000000
# 2 -0.004809 0.018450 -0.006299 0.000000 0.000000 0.000000
# 3 0.000452 -0.006299 0.014255 0.000000 0.000000 0.000000
# 4 0.000000 0.000000 0.000000 0.095469 0.000000 0.000000
# 5 0.000000 0.000000 0.000000 0.000000 0.026712 0.000000
# 6 0.000000 0.000000 0.000000 0.000000 0.000000 0.043124
#
#
# Mechanical properties :
#
#
# Convention : Reuss Voigt Hill
#
# Bulk Modulus (GPa) = 33.09617 34.88539 33.99078
# Shear Modulus (GPa) = 20.14381 24.68035 22.41208
#
# Velocity S-wave (km/s) = 3.23016 3.57544 3.40718
# Velocity P-wave (km/s) = 5.57269 5.92576 5.75194
#
# Compressibility (1/GPa) = 0.03021498
#
# Stress axis : x y z
#
# Youngs Moduli (GPa) = 53.12795 54.20044 70.15289
#
# Poissons Ratio (x) = 0.26066 -0.03170
# Poissons Ratio (y) = 0.25550 0.44188
# Poissons Ratio (z) = -0.02401 0.34140
#
# Static dielectric constant tensor:
#      x y z
#    x 3.458880 0.000000 0.000000 
#    y 0.000000 3.340640 0.000000 
#    z 0.000000 0.000000 3.497030 
# 
# 
# High freq. dielectric constant tensor:
#      x y z
#    x 1.747460 0.000000 0.000000 
#    y 0.000000 1.743700 0.000000 
#    z 0.000000 0.000000 1.746720 
# 
# From -- ./inp_files/29276.got.cif
#   From: 2010.03.12/outbox.cif.g09.slc.cpg/sg62_15_cif.got.tgz:29276.got - 2010.04.10 19:12:36.
