data_PCOD8253067
_publ_section_title
;
Structure prediction by ZEFSAII (Michael W. Deem and Ramdas Pophale) SiO2 
 PCOD8253067
Probable space group: P N M A
;
_chemical_formula_sum "Si O2"
_cell_formula_units_Z 56
_cell_length_a 14.972654
_cell_length_b 8.926812
_cell_length_c 21.019549
_cell_angle_alpha 90.000000
_cell_angle_beta 90.000000
_cell_angle_gamma 90.000000
_cell_volume 2809.432297
_symmetry_space_group_name_H-M "P N M A"
_symmetry_group_IT_number 62
_symmetry_cell_setting 'orthorhombic'
loop_
_space_group_symop_operation_xyz
x,y,z
1/2-x,-y,1/2+z
1/2+x,1/2-y,1/2-z
-x,1/2+y,-z
-x,-y,-z
1/2+x,y,1/2-z
1/2-x,1/2+y,1/2+z
x,1/2-y,z
loop_
_atom_site_type_symbol
_atom_site_label
_atom_site_fract_x
_atom_site_fract_y
_atom_site_fract_z
Si Si1 0.478437 0.421498 0.743551
Si Si2 0.062422 0.074795 0.363258
Si Si3 0.563564 0.426408 0.948641
Si Si4 0.250109 0.577135 0.539056
Si Si5 0.681119 0.072550 0.731291
Si Si6 0.734518 0.923423 0.100681
Si Si7 0.682983 0.578400 0.342109
O O1 0.479395 0.250000 0.767997
O O2 0.421575 0.527258 0.790650
O O3 0.579125 0.484834 0.737190
O O4 0.420338 0.432201 0.679362
O O5 0.050437 0.250000 0.372708
O O6 0.143877 0.018647 0.406937
O O7 0.971354 0.987321 0.381036
O O8 0.555477 0.250000 0.953303
O O9 0.664232 0.474580 0.955137
O O10 0.500000 0.500000 0.000000
O O11 0.226445 0.750000 0.551644
O O12 0.288198 0.557665 0.466494
O O13 0.317009 0.519416 0.593425
O O14 0.682930 0.250000 0.729908
O O15 0.712362 0.013164 0.661769
O O16 0.746026 0.016584 0.788649
O O17 0.708694 0.750000 0.111301
O O18 0.708723 0.750000 0.357480
#
# Coordination Sequence:
#
# PCOD8253067 Si02
#       7
#     8   8   8   8   8   8   8
#     4  10  20  37  62  87 113 153 204 251 296 354
#     4  12  23  35  56  86 118 154 191 241 302 358
#     4  12  23  36  55  82 117 153 192 238 291 361
#     4  11  23  37  57  84 119 159 195 246 302 355
#     4   9  18  36  62  87 109 148 203 250 294 348
#     4  10  20  38  60  82 114 154 197 244 296 354
#     4  10  20  36  59  86 118 157 199 250 303 357
#
# _framework density 19.932852
#
# number of rings (size 3 to 8) (size 9 to 14) (size 15 to 20)
#    0.000    1.429    2.857    3.857    0.000    2.286 
#    0.000    1.429    0.000    0.000    0.000    0.000 
#    0.000    0.000    0.000    0.000    0.000    0.000 
#
# Total GULP energy -694125.777232 kJ/mol
# GULP energy per Si atom -12395.103165 kJ/mol
# Density = 1.988748 g / cm^3
# Si number density = 19.932852 Si / 1000 Ang^3
#
#
#
# Elastic Constant Matrix: (Units=GPa)
#
#
# Indices 1 2 3 4 5 6 
#
# 1 69.8756 14.5650 21.5441 0.0000 0.0000 0.0000
# 2 14.5650 105.1247 34.4940 0.0000 0.0000 0.0000
# 3 21.5441 34.4940 120.5756 0.0000 0.0000 0.0000
# 4 0.0000 0.0000 0.0000 30.5551 0.0000 0.0000
# 5 0.0000 0.0000 0.0000 0.0000 29.1438 0.0000
# 6 0.0000 0.0000 0.0000 0.0000 0.0000 18.8124
#
#
#
# Elastic Compliance Matrix: (Units=1/GPa)
#
#
# Indices 1 2 3 4 5 6 
#
# 1 0.015317 -0.001351 -0.002350 0.000000 0.000000 0.000000
# 2 -0.001351 0.010617 -0.002796 0.000000 0.000000 0.000000
# 3 -0.002350 -0.002796 0.009513 0.000000 0.000000 0.000000
# 4 0.000000 0.000000 0.000000 0.032728 0.000000 0.000000
# 5 0.000000 0.000000 0.000000 0.000000 0.034313 0.000000
# 6 0.000000 0.000000 0.000000 0.000000 0.000000 0.053156
#
#
# Mechanical properties :
#
#
# Convention : Reuss Voigt Hill
#
# Bulk Modulus (GPa) = 44.53696 48.53136 46.53416
# Shear Modulus (GPa) = 28.38915 30.70046 29.54481
#
# Velocity S-wave (km/s) = 3.77800 3.92879 3.85413
# Velocity P-wave (km/s) = 6.43608 6.70677 6.57282
#
# Compressibility (1/GPa) = 0.02245326
#
# Stress axis : x y z
#
# Youngs Moduli (GPa) = 65.28515 94.18768 105.11530
#
# Poissons Ratio (x) = 0.12725 0.24706
# Poissons Ratio (y) = 0.08820 0.29389
# Poissons Ratio (z) = 0.15344 0.26334
#
# Static dielectric constant tensor:
#      x y z
#    x 3.676710 0.000000 0.000000 
#    y 0.000000 3.444300 0.000000 
#    z 0.000000 0.000000 3.781790 
# 
# 
# High freq. dielectric constant tensor:
#      x y z
#    x 1.755280 0.000000 0.000000 
#    y 0.000000 1.757400 0.000000 
#    z 0.000000 0.000000 1.790280 
# 
# From -- ./inp_files/27156.got.cif
#   From: 2010.03.12/outbox.cif.g09.slc.cpg/sg62_14_cif.got.tgz:27156.got - 2010.04.10 19:12:36.
