data_PCOD8253478
_publ_section_title
;
Structure prediction by ZEFSAII (Michael W. Deem and Ramdas Pophale) SiO2 
 PCOD8253478
Probable space group: P N M A
;
_chemical_formula_sum "Si O2"
_cell_formula_units_Z 56
_cell_length_a 17.009756
_cell_length_b 12.987613
_cell_length_c 11.905185
_cell_angle_alpha 90.000000
_cell_angle_beta 90.000000
_cell_angle_gamma 90.000000
_cell_volume 2630.047375
_symmetry_space_group_name_H-M "P N M A"
_symmetry_group_IT_number 62
_symmetry_cell_setting 'orthorhombic'
loop_
_space_group_symop_operation_xyz
x,y,z
1/2-x,-y,1/2+z
1/2+x,1/2-y,1/2-z
-x,1/2+y,-z
-x,-y,-z
1/2+x,y,1/2-z
1/2-x,1/2+y,1/2+z
x,1/2-y,z
loop_
_atom_site_type_symbol
_atom_site_label
_atom_site_fract_x
_atom_site_fract_y
_atom_site_fract_z
Si Si1 0.959700 0.131541 0.507272
Si Si2 0.706686 0.634761 0.589461
Si Si3 0.046735 0.129063 0.286528
Si Si4 0.052326 0.517762 0.892427
Si Si5 0.185141 0.497119 0.551307
Si Si6 0.708787 0.365478 0.311355
Si Si7 0.420637 0.631867 0.204269
O O1 0.939112 0.250000 0.481141
O O2 0.018252 0.086879 0.409256
O O3 0.002242 0.119881 0.626692
O O4 0.878444 0.069814 0.508825
O O5 0.692074 0.750000 0.542210
O O6 0.634039 0.561504 0.561670
O O7 0.785950 0.589621 0.534707
O O8 0.720306 0.639315 0.722508
O O9 0.055644 0.250000 0.298342
O O10 0.130877 0.084510 0.246041
O O11 0.982353 0.101618 0.193428
O O12 0.060113 0.408375 0.829008
O O13 0.000000 0.500000 0.000000
O O14 0.261081 0.563992 0.587186
O O15 0.150163 0.437677 0.658361
O O16 0.690416 0.250000 0.356403
O O17 0.393490 0.750000 0.211397
#
# Coordination Sequence:
#
# PCOD8253478 Si02
#       7
#     8   8   8   8   8   8   8
#     4  10  21  39  67 102 131 165 216 275 331 383
#     4  11  24  42  64  93 128 165 212 265 320 386
#     4  10  20  38  67  96 125 165 218 271 319 381
#     4  12  25  43  64  89 126 180 222 261 315 389
#     4  12  21  39  68  95 129 173 208 268 332 387
#     4  10  21  38  62  95 129 163 211 263 316 381
#     4  11  24  41  63  97 132 167 214 272 329 386
#
# _framework density 21.292390999999999
#
# number of rings (size 3 to 8) (size 9 to 14) (size 15 to 20)
#    0.000    1.143    2.857    3.429    2.000    5.714 
#    0.000    1.429    0.000    0.000    0.000    0.000 
#    0.000    0.000    0.000    0.000    0.000    0.000 
#
# Total GULP energy -694564.446499 kJ/mol
# GULP energy per Si atom -12402.936545 kJ/mol
# Density = 2.124393 g / cm^3
# Si number density = 21.292391 Si / 1000 Ang^3
#
#
#
# Elastic Constant Matrix: (Units=GPa)
#
#
# Indices 1 2 3 4 5 6 
#
# 1 106.3904 43.9232 19.9486 0.0000 0.0000 0.0000
# 2 43.9232 104.3098 33.9748 0.0000 0.0000 0.0000
# 3 19.9486 33.9748 77.6319 0.0000 0.0000 0.0000
# 4 0.0000 0.0000 0.0000 31.9055 0.0000 0.0000
# 5 0.0000 0.0000 0.0000 0.0000 34.4743 0.0000
# 6 0.0000 0.0000 0.0000 0.0000 0.0000 36.9656
#
#
#
# Elastic Compliance Matrix: (Units=1/GPa)
#
#
# Indices 1 2 3 4 5 6 
#
# 1 0.011439 -0.004501 -0.000970 0.000000 0.000000 0.000000
# 2 -0.004501 0.012952 -0.004512 0.000000 0.000000 0.000000
# 3 -0.000970 -0.004512 0.015105 0.000000 0.000000 0.000000
# 4 0.000000 0.000000 0.000000 0.031343 0.000000 0.000000
# 5 0.000000 0.000000 0.000000 0.000000 0.029007 0.000000
# 6 0.000000 0.000000 0.000000 0.000000 0.000000 0.027052
#
#
# Mechanical properties :
#
#
# Convention : Reuss Voigt Hill
#
# Bulk Modulus (GPa) = 51.19973 53.78058 52.49015
# Shear Modulus (GPa) = 32.60029 33.36812 32.98420
#
# Velocity S-wave (km/s) = 3.91714 3.96300 3.94014
# Velocity P-wave (km/s) = 6.67510 6.80099 6.73834
#
# Compressibility (1/GPa) = 0.01953135
#
# Stress axis : x y z
#
# Youngs Moduli (GPa) = 87.41684 77.21030 66.20374
#
# Poissons Ratio (x) = 0.34753 0.06419
# Poissons Ratio (y) = 0.39348 0.29868
# Poissons Ratio (z) = 0.08476 0.34834
#
# Static dielectric constant tensor:
#      x y z
#    x 3.832860 0.000000 0.000000 
#    y 0.000000 4.014080 0.000000 
#    z 0.000000 0.000000 3.711180 
# 
# 
# High freq. dielectric constant tensor:
#      x y z
#    x 1.837310 0.000000 0.000000 
#    y 0.000000 1.845160 0.000000 
#    z 0.000000 0.000000 1.819890 
# 
# From -- ./inp_files/13372.got.cif
#   From: 2010.03.12/outbox.cif.g09.slc.cpg/sg62_7_cif.got.tgz:13372.got - 2010.04.10 19:12:36.
