data_PCOD8253974
_publ_section_title
;
Structure prediction by ZEFSAII (Michael W. Deem and Ramdas Pophale) SiO2 
 PCOD8253974
Probable space group: P N M A
;
_chemical_formula_sum "Si O2"
_cell_formula_units_Z 48
_cell_length_a 15.265234
_cell_length_b 8.849701
_cell_length_c 17.635336
_cell_angle_alpha 90.000000
_cell_angle_beta 90.000000
_cell_angle_gamma 90.000000
_cell_volume 2382.406154
_symmetry_space_group_name_H-M "P N M A"
_symmetry_group_IT_number 62
_symmetry_cell_setting 'orthorhombic'
loop_
_space_group_symop_operation_xyz
x,y,z
1/2-x,-y,1/2+z
1/2+x,1/2-y,1/2-z
-x,1/2+y,-z
-x,-y,-z
1/2+x,y,1/2-z
1/2-x,1/2+y,1/2+z
x,1/2-y,z
loop_
_atom_site_type_symbol
_atom_site_label
_atom_site_fract_x
_atom_site_fract_y
_atom_site_fract_z
Si Si1 0.416371 0.072745 0.537651
Si Si2 0.079044 0.572606 0.544511
Si Si3 0.755172 0.576073 0.038721
Si Si4 0.738483 0.075583 0.715048
Si Si5 0.426692 0.426408 0.217402
Si Si6 0.895041 0.574281 0.801121
O O1 0.429128 0.250000 0.536877
O O2 0.500000 0.000000 0.500000
O O3 0.332584 0.030460 0.488267
O O4 0.407072 0.018743 0.623006
O O5 0.065366 0.750000 0.540957
O O6 0.168884 0.522403 0.505258
O O7 0.080490 0.516213 0.631129
O O8 0.000000 0.500000 0.500000
O O9 0.778147 0.750000 0.019908
O O10 0.739506 0.552129 0.127336
O O11 0.748313 0.250000 0.738694
O O12 0.639993 0.020991 0.731130
O O13 0.805001 0.974564 0.762587
O O14 0.403486 0.250000 0.224719
O O15 0.524653 0.460788 0.245268
O O16 0.888994 0.750000 0.821825
#
# Coordination Sequence:
#
# PCOD8253974 Si02
#       6
#     8   8   8   8   8   8
#     4  12  25  41  63  90 120 157 202 250 304 364
#     4  10  21  38  60  86 117 152 192 239 292 349
#     4  10  22  40  61  88 123 160 198 246 301 356
#     4  11  23  38  60  90 121 157 200 246 298 355
#     4  10  22  39  60  86 116 156 200 242 294 354
#     4  11  23  40  62  88 121 160 203 251 301 356
#
# _framework density 20.147697000000001
#
# number of rings (size 3 to 8) (size 9 to 14) (size 15 to 20)
#    0.000    1.333    0.000    5.500    0.000    8.000 
#    0.000    0.000    0.000    0.000    0.000    0.000 
#    0.000    0.000    0.000    0.000    0.000    0.000 
#
# Total GULP energy -595555.504364 kJ/mol
# GULP energy per Si atom -12407.406341 kJ/mol
# Density = 2.010184 g / cm^3
# Si number density = 20.147697 Si / 1000 Ang^3
#
#
#
# Elastic Constant Matrix: (Units=GPa)
#
#
# Indices 1 2 3 4 5 6 
#
# 1 112.4705 51.9710 30.2600 0.0000 0.0000 0.0000
# 2 51.9710 102.4375 37.6629 0.0000 0.0000 0.0000
# 3 30.2600 37.6629 89.0428 0.0000 0.0000 0.0000
# 4 0.0000 0.0000 0.0000 23.7101 0.0000 0.0000
# 5 0.0000 0.0000 0.0000 0.0000 42.9376 0.0000
# 6 0.0000 0.0000 0.0000 0.0000 0.0000 39.1374
#
#
#
# Elastic Compliance Matrix: (Units=1/GPa)
#
#
# Indices 1 2 3 4 5 6 
#
# 1 0.011841 -0.005362 -0.001756 0.000000 0.000000 0.000000
# 2 -0.005362 0.013988 -0.004094 0.000000 0.000000 0.000000
# 3 -0.001756 -0.004094 0.013559 0.000000 0.000000 0.000000
# 4 0.000000 0.000000 0.000000 0.042176 0.000000 0.000000
# 5 0.000000 0.000000 0.000000 0.000000 0.023290 0.000000
# 6 0.000000 0.000000 0.000000 0.000000 0.000000 0.025551
#
#
# Mechanical properties :
#
#
# Convention : Reuss Voigt Hill
#
# Bulk Modulus (GPa) = 58.95021 60.41540 59.68280
# Shear Modulus (GPa) = 31.54887 33.42749 32.48818
#
# Velocity S-wave (km/s) = 3.96141 4.07765 4.01995
# Velocity P-wave (km/s) = 7.08846 7.22641 7.15777
#
# Compressibility (1/GPa) = 0.01696347
#
# Stress axis : x y z
#
# Youngs Moduli (GPa) = 84.44944 71.49119 73.75101
#
# Poissons Ratio (x) = 0.38333 0.12952
# Poissons Ratio (y) = 0.45282 0.30196
# Poissons Ratio (z) = 0.14831 0.29270
#
# Static dielectric constant tensor:
#      x y z
#    x 3.397910 0.000000 0.000000 
#    y 0.000000 3.650140 0.000000 
#    z 0.000000 0.000000 3.715410 
# 
# 
# High freq. dielectric constant tensor:
#      x y z
#    x 1.802610 0.000000 0.000000 
#    y 0.000000 1.787070 0.000000 
#    z 0.000000 0.000000 1.804540 
# 
# From -- ./inp_files/23661.got.cif
#   From: 2010.03.12/outbox.cif.g09.slc.cpg/sg62_12_cif.got.tgz:23661.got - 2010.04.10 19:12:36.
