data_PCOD8253565
_publ_section_title
;
Structure prediction by ZEFSAII (Michael W. Deem and Ramdas Pophale) SiO2 
 PCOD8253565
Probable space group: P N M A
;
_chemical_formula_sum "Si O2"
_cell_formula_units_Z 64
_cell_length_a 14.237390
_cell_length_b 8.917867
_cell_length_c 24.752368
_cell_angle_alpha 90.000000
_cell_angle_beta 90.000000
_cell_angle_gamma 90.000000
_cell_volume 3142.737632
_symmetry_space_group_name_H-M "P N M A"
_symmetry_group_IT_number 62
_symmetry_cell_setting 'orthorhombic'
loop_
_space_group_symop_operation_xyz
x,y,z
1/2-x,-y,1/2+z
1/2+x,1/2-y,1/2-z
-x,1/2+y,-z
-x,-y,-z
1/2+x,y,1/2-z
1/2-x,1/2+y,1/2+z
x,1/2-y,z
loop_
_atom_site_type_symbol
_atom_site_label
_atom_site_fract_x
_atom_site_fract_y
_atom_site_fract_z
Si Si1 0.213863 0.926788 0.607790
Si Si2 0.924529 0.425690 0.750579
Si Si3 0.582161 0.078369 0.361118
Si Si4 0.395676 0.076722 0.213749
Si Si5 0.252280 0.577152 0.804727
Si Si6 0.101035 0.925924 0.504753
Si Si7 0.244171 0.074848 0.919582
Si Si8 0.060903 0.920494 0.955624
O O1 0.210041 0.750000 0.602702
O O2 0.323147 0.977553 0.608283
O O3 0.166914 0.980702 0.663712
O O4 0.158278 0.994056 0.556199
O O5 0.906145 0.250000 0.743808
O O6 0.942467 0.467923 0.812482
O O7 0.835608 0.519292 0.732103
O O8 0.012780 0.473145 0.714145
O O9 0.596244 0.250000 0.340398
O O10 0.492187 0.068129 0.398976
O O11 0.424655 0.250000 0.205756
O O12 0.342303 0.056112 0.270431
O O13 0.268204 0.750000 0.819933
O O14 0.248289 0.482946 0.858982
O O15 0.085894 0.750000 0.512475
O O16 0.158592 0.961410 0.450157
O O17 0.000000 0.000000 0.500000
O O18 0.223544 0.250000 0.918761
O O19 0.161237 0.998238 0.952681
O O20 0.076659 0.750000 0.972959
O O21 0.000000 0.000000 0.000000
#
# Coordination Sequence:
#
# PCOD8253565 Si02
#       8
#     8   8   8   8   8   8   8   8
#     4   9  18  38  65  88 113 154 206 256 301 351
#     4  12  25  38  58  91 129 162 196 253 321 377
#     4  10  20  40  65  90 121 162 211 255 304 374
#     4  10  21  39  64  90 117 159 211 258 300 359
#     4  11  23  42  66  91 122 165 214 257 304 373
#     4  10  23  42  64  90 121 162 208 258 310 362
#     4  11  24  42  62  91 132 167 205 262 321 376
#     4  11  23  39  65  96 128 167 210 257 313 376
#
# _framework density 20.364411
#
# number of rings (size 3 to 8) (size 9 to 14) (size 15 to 20)
#    0.000    1.500    1.250    3.750    1.750    8.000 
#    0.000    0.625    0.000    0.000    0.000    0.000 
#    0.000    0.000    0.000    0.000    0.000    0.000 
#
# Total GULP energy -793832.635279 kJ/mol
# GULP energy per Si atom -12403.634926 kJ/mol
# Density = 2.031806 g / cm^3
# Si number density = 20.364411 Si / 1000 Ang^3
#
#
#
# Elastic Constant Matrix: (Units=GPa)
#
#
# Indices 1 2 3 4 5 6 
#
# 1 86.5678 42.8744 1.2200 0.0000 0.0000 0.0000
# 2 42.8744 68.1990 28.8922 0.0000 0.0000 0.0000
# 3 1.2200 28.8922 80.5192 0.0000 0.0000 0.0000
# 4 0.0000 0.0000 0.0000 32.5541 0.0000 0.0000
# 5 0.0000 0.0000 0.0000 0.0000 30.2092 0.0000
# 6 0.0000 0.0000 0.0000 0.0000 0.0000 31.6402
#
#
#
# Elastic Compliance Matrix: (Units=1/GPa)
#
#
# Indices 1 2 3 4 5 6 
#
# 1 0.018047 -0.013243 0.004479 0.000000 0.000000 0.000000
# 2 -0.013243 0.027009 -0.009491 0.000000 0.000000 0.000000
# 3 0.004479 -0.009491 0.015757 0.000000 0.000000 0.000000
# 4 0.000000 0.000000 0.000000 0.030718 0.000000 0.000000
# 5 0.000000 0.000000 0.000000 0.000000 0.033102 0.000000
# 6 0.000000 0.000000 0.000000 0.000000 0.000000 0.031605
#
#
# Mechanical properties :
#
#
# Convention : Reuss Voigt Hill
#
# Bulk Modulus (GPa) = 41.14758 42.36211 41.75485
# Shear Modulus (GPa) = 24.89399 29.70067 27.29733
#
# Velocity S-wave (km/s) = 3.50011 3.82312 3.66518
# Velocity P-wave (km/s) = 6.04846 6.35103 6.20159
#
# Compressibility (1/GPa) = 0.02430276
#
# Stress axis : x y z
#
# Youngs Moduli (GPa) = 55.40955 37.02435 63.46335
#
# Poissons Ratio (x) = 0.49032 -0.28422
# Poissons Ratio (y) = 0.73379 0.60233
# Poissons Ratio (z) = -0.24815 0.35140
#
# Static dielectric constant tensor:
#      x y z
#    x 3.640990 0.000000 0.000000 
#    y 0.000000 3.562000 0.000000 
#    z 0.000000 0.000000 3.914180 
# 
# 
# High freq. dielectric constant tensor:
#      x y z
#    x 1.809710 0.000000 0.000000 
#    y 0.000000 1.779850 0.000000 
#    z 0.000000 0.000000 1.804860 
# 
# From -- ./inp_files/29939.got.cif
#   From: 2010.03.12/outbox.cif.g09.slc.cpg/sg62_15_cif.got.tgz:29939.got - 2010.04.10 19:12:36.
