data_PCOD8253176
_publ_section_title
;
Structure prediction by ZEFSAII (Michael W. Deem and Ramdas Pophale) SiO2 
 PCOD8253176
Probable space group: P N M A
;
_chemical_formula_sum "Si O2"
_cell_formula_units_Z 48
_cell_length_a 9.335561
_cell_length_b 8.341027
_cell_length_c 30.505385
_cell_angle_alpha 90.000000
_cell_angle_beta 90.000000
_cell_angle_gamma 90.000000
_cell_volume 2375.398394
_symmetry_space_group_name_H-M "P N M A"
_symmetry_group_IT_number 62
_symmetry_cell_setting 'orthorhombic'
loop_
_space_group_symop_operation_xyz
x,y,z
1/2-x,-y,1/2+z
1/2+x,1/2-y,1/2-z
-x,1/2+y,-z
-x,-y,-z
1/2+x,y,1/2-z
1/2-x,1/2+y,1/2+z
x,1/2-y,z
loop_
_atom_site_type_symbol
_atom_site_label
_atom_site_fract_x
_atom_site_fract_y
_atom_site_fract_z
Si Si1 0.917659 0.433676 0.286522
Si Si2 0.595147 0.437102 0.634358
Si Si3 0.106221 0.437809 0.963650
Si Si4 0.585585 0.435374 0.040829
Si Si5 0.917710 0.437417 0.634126
Si Si6 0.396417 0.063771 0.710685
O O1 0.944749 0.250000 0.273941
O O2 0.749570 0.467892 0.283278
O O3 0.972357 0.467328 0.335468
O O4 0.005159 0.545541 0.253368
O O5 0.604789 0.250000 0.643702
O O6 0.541837 0.471982 0.584849
O O7 0.756029 0.505203 0.641701
O O8 0.482320 0.510573 0.668902
O O9 0.139999 0.250000 0.969307
O O10 0.248690 0.539241 0.969788
O O11 0.000000 0.500000 0.000000
O O12 0.552513 0.250000 0.048625
O O13 0.537560 0.532865 0.083898
O O14 0.500000 0.500000 0.000000
O O15 0.928523 0.250000 0.644554
O O16 0.359468 0.250000 0.703698
#
# Coordination Sequence:
#
# PCOD8253176 Si02
#       6
#     8   8   8   8   8   8
#     4  12  25  40  58  88 123 154 191 244 297 346
#     4   8  18  36  60  84 110 145 192 241 288 340
#     4  10  20  37  58  85 118 155 197 245 295 349
#     4  11  22  38  59  86 118 156 198 246 297 349
#     4  10  20  39  63  87 115 153 197 243 292 351
#     4  11  22  40  63  86 113 155 201 241 288 351
#
# _framework density 20.207135999999998
#
# number of rings (size 3 to 8) (size 9 to 14) (size 15 to 20)
#    0.000    1.667    0.000    6.500    0.000    2.667 
#    0.000   14.167    0.000    0.000    0.000    0.000 
#    0.000    0.000    0.000    0.000    0.000    0.000 
#
# Total GULP energy -595336.445800 kJ/mol
# GULP energy per Si atom -12402.842621 kJ/mol
# Density = 2.016114 g / cm^3
# Si number density = 20.207136 Si / 1000 Ang^3
#
#
#
# Elastic Constant Matrix: (Units=GPa)
#
#
# Indices 1 2 3 4 5 6 
#
# 1 99.6355 13.0516 64.9553 0.0000 0.0000 0.0000
# 2 13.0516 68.8458 9.6204 0.0000 0.0000 0.0000
# 3 64.9553 9.6204 129.9053 0.0000 0.0000 0.0000
# 4 0.0000 0.0000 0.0000 31.1085 0.0000 0.0000
# 5 0.0000 0.0000 0.0000 0.0000 46.5051 0.0000
# 6 0.0000 0.0000 0.0000 0.0000 0.0000 30.2704
#
#
#
# Elastic Compliance Matrix: (Units=1/GPa)
#
#
# Indices 1 2 3 4 5 6 
#
# 1 0.015115 -0.001828 -0.007422 0.000000 0.000000 0.000000
# 2 -0.001828 0.014898 -0.000189 0.000000 0.000000 0.000000
# 3 -0.007422 -0.000189 0.011423 0.000000 0.000000 0.000000
# 4 0.000000 0.000000 0.000000 0.032146 0.000000 0.000000
# 5 0.000000 0.000000 0.000000 0.000000 0.021503 0.000000
# 6 0.000000 0.000000 0.000000 0.000000 0.000000 0.033036
#
#
# Mechanical properties :
#
#
# Convention : Reuss Voigt Hill
#
# Bulk Modulus (GPa) = 44.33241 52.62680 48.47961
# Shear Modulus (GPa) = 32.35844 35.62741 33.99292
#
# Velocity S-wave (km/s) = 4.00601 4.20350 4.10594
# Velocity P-wave (km/s) = 6.58666 7.04694 6.82069
#
# Compressibility (1/GPa) = 0.02255686
#
# Stress axis : x y z
#
# Youngs Moduli (GPa) = 66.15973 67.12200 87.54064
#
# Poissons Ratio (x) = 0.12272 0.64976
# Poissons Ratio (y) = 0.12096 0.01656
# Poissons Ratio (z) = 0.49106 0.01270
#
# Static dielectric constant tensor:
#      x y z
#    x 4.601540 0.000000 0.000000 
#    y 0.000000 3.566900 0.000000 
#    z 0.000000 0.000000 3.837460 
# 
# 
# High freq. dielectric constant tensor:
#      x y z
#    x 1.784710 0.000000 0.000000 
#    y 0.000000 1.782800 0.000000 
#    z 0.000000 0.000000 1.802980 
# 
# From -- ./inp_files/32029.got.cif
#   From: 2010.03.12/outbox.cif.g09.slc.cpg/sg62_17_cif.got.tgz:32029.got - 2010.04.10 19:12:36.
