data_PCOD8253691
_publ_section_title
;
Structure prediction by ZEFSAII (Michael W. Deem and Ramdas Pophale) SiO2 
 PCOD8253691
Probable space group: P N M A
;
_chemical_formula_sum "Si O2"
_cell_formula_units_Z 56
_cell_length_a 14.620699
_cell_length_b 9.046691
_cell_length_c 20.816952
_cell_angle_alpha 90.000000
_cell_angle_beta 90.000000
_cell_angle_gamma 90.000000
_cell_volume 2753.436301
_symmetry_space_group_name_H-M "P N M A"
_symmetry_group_IT_number 62
_symmetry_cell_setting 'orthorhombic'
loop_
_space_group_symop_operation_xyz
x,y,z
1/2-x,-y,1/2+z
1/2+x,1/2-y,1/2-z
-x,1/2+y,-z
-x,-y,-z
1/2+x,y,1/2-z
1/2-x,1/2+y,1/2+z
x,1/2-y,z
loop_
_atom_site_type_symbol
_atom_site_label
_atom_site_fract_x
_atom_site_fract_y
_atom_site_fract_z
Si Si1 0.344247 0.421772 0.336388
Si Si2 0.751021 0.077193 0.402736
Si Si3 0.494793 0.921544 0.266093
Si Si4 0.813761 0.574758 0.762073
Si Si5 0.920233 0.912870 0.366922
Si Si6 0.239267 0.921930 0.971870
Si Si7 0.426555 0.416795 0.957874
O O1 0.359772 0.250000 0.321585
O O2 0.440148 0.505941 0.325226
O O3 0.260450 0.478824 0.291046
O O4 0.326353 0.450830 0.411582
O O5 0.739498 0.250000 0.411956
O O6 0.714259 0.023219 0.333942
O O7 0.858530 0.031752 0.405497
O O8 0.700133 0.997727 0.462775
O O9 0.514256 0.750000 0.279857
O O10 0.422955 0.947363 0.208342
O O11 0.589172 0.000947 0.248809
O O12 0.825153 0.750000 0.758463
O O13 0.877578 0.750000 0.380005
O O14 0.026244 0.913760 0.388041
O O15 0.252690 0.750000 0.985263
O O16 0.335202 0.991277 0.952264
O O17 0.406099 0.250000 0.982702
O O18 0.500000 0.500000 0.000000
#
# Coordination Sequence:
#
# PCOD8253691 Si02
#       7
#     8   8   8   8   8   8   8
#     4  10  22  42  64  88 121 163 204 249 303 361
#     4  11  22  37  61  87 116 157 200 244 295 354
#     4  11  23  38  62  93 121 155 198 255 309 355
#     4  10  22  41  64  90 119 159 206 249 299 363
#     4  10  21  36  55  83 119 154 191 240 299 357
#     4  11  23  38  58  85 121 160 199 249 306 359
#     4  11  21  33  52  81 118 156 195 236 291 360
#
# _framework density 20.338222999999999
#
# number of rings (size 3 to 8) (size 9 to 14) (size 15 to 20)
#    0.000    1.429    2.857    2.571    0.000    4.000 
#    0.000    0.714    0.000    0.000    0.000    0.000 
#    0.000    0.000    0.000    0.000    0.000    0.000 
#
# Total GULP energy -694264.680632 kJ/mol
# GULP energy per Si atom -12397.583583 kJ/mol
# Density = 2.029193 g / cm^3
# Si number density = 20.338223 Si / 1000 Ang^3
#
#
#
# Elastic Constant Matrix: (Units=GPa)
#
#
# Indices 1 2 3 4 5 6 
#
# 1 49.0608 16.4869 4.6168 0.0000 0.0000 0.0000
# 2 16.4869 75.5880 38.4180 0.0000 0.0000 0.0000
# 3 4.6168 38.4180 100.0164 0.0000 0.0000 0.0000
# 4 0.0000 0.0000 0.0000 31.8721 0.0000 0.0000
# 5 0.0000 0.0000 0.0000 0.0000 23.9850 0.0000
# 6 0.0000 0.0000 0.0000 0.0000 0.0000 29.5950
#
#
#
# Elastic Compliance Matrix: (Units=1/GPa)
#
#
# Indices 1 2 3 4 5 6 
#
# 1 0.022080 -0.005341 0.001032 0.000000 0.000000 0.000000
# 2 -0.005341 0.017731 -0.006564 0.000000 0.000000 0.000000
# 3 0.001032 -0.006564 0.012472 0.000000 0.000000 0.000000
# 4 0.000000 0.000000 0.000000 0.031375 0.000000 0.000000
# 5 0.000000 0.000000 0.000000 0.000000 0.041693 0.000000
# 6 0.000000 0.000000 0.000000 0.000000 0.000000 0.033790
#
#
# Mechanical properties :
#
#
# Convention : Reuss Voigt Hill
#
# Bulk Modulus (GPa) = 32.74603 38.18985 35.46794
# Shear Modulus (GPa) = 26.16902 28.09999 27.13450
#
# Velocity S-wave (km/s) = 3.59094 3.72107 3.65658
# Velocity P-wave (km/s) = 5.77311 6.10573 5.94175
#
# Compressibility (1/GPa) = 0.03053806
#
# Stress axis : x y z
#
# Youngs Moduli (GPa) = 45.28885 56.39918 80.17884
#
# Poissons Ratio (x) = 0.30121 -0.08276
# Poissons Ratio (y) = 0.24187 0.52631
# Poissons Ratio (z) = -0.04675 0.37021
#
# Static dielectric constant tensor:
#      x y z
#    x 3.428530 0.000000 0.000000 
#    y 0.000000 3.689920 0.000000 
#    z 0.000000 0.000000 3.982690 
# 
# 
# High freq. dielectric constant tensor:
#      x y z
#    x 1.770230 0.000000 0.000000 
#    y 0.000000 1.798300 0.000000 
#    z 0.000000 0.000000 1.807520 
# 
# From -- ./inp_files/27074.got.cif
#   From: 2010.03.12/outbox.cif.g09.slc.cpg/sg62_14_cif.got.tgz:27074.got - 2010.04.10 19:12:36.
