data_PCOD8253546
_publ_section_title
;
Structure prediction by ZEFSAII (Michael W. Deem and Ramdas Pophale) SiO2 
 PCOD8253546
Probable space group: P N M A
;
_chemical_formula_sum "Si O2"
_cell_formula_units_Z 48
_cell_length_a 9.530885
_cell_length_b 25.040241
_cell_length_c 9.055030
_cell_angle_alpha 90.000000
_cell_angle_beta 90.000000
_cell_angle_gamma 90.000000
_cell_volume 2161.034137
_symmetry_space_group_name_H-M "P N M A"
_symmetry_group_IT_number 62
_symmetry_cell_setting 'orthorhombic'
loop_
_space_group_symop_operation_xyz
x,y,z
1/2-x,-y,1/2+z
1/2+x,1/2-y,1/2-z
-x,1/2+y,-z
-x,-y,-z
1/2+x,y,1/2-z
1/2-x,1/2+y,1/2+z
x,1/2-y,z
loop_
_atom_site_type_symbol
_atom_site_label
_atom_site_fract_x
_atom_site_fract_y
_atom_site_fract_z
Si Si1 0.165193 0.985743 0.621681
Si Si2 0.528121 0.919611 0.117974
Si Si3 0.356770 0.859230 0.913737
Si Si4 0.494665 0.250000 0.454421
Si Si5 0.439546 0.565352 0.671398
Si Si6 0.794823 0.750000 0.708266
Si Si7 0.069650 0.634628 0.072236
O O1 0.333786 0.984700 0.644697
O O2 0.139215 0.961019 0.456301
O O3 0.080004 0.953310 0.747172
O O4 0.117450 0.047048 0.633583
O O5 0.498981 0.872837 0.000677
O O6 0.575088 0.888154 0.262519
O O7 0.225210 0.870734 0.015258
O O8 0.346569 0.893893 0.766021
O O9 0.369084 0.798517 0.871325
O O10 0.650453 0.250000 0.379045
O O11 0.374098 0.250000 0.323239
O O12 0.480891 0.303248 0.556712
O O13 0.470053 0.595116 0.518949
#
# Coordination Sequence:
#
# PCOD8253546 Si02
#       7
#     8   8   8   4   8   4   8
#     4  10  24  42  63  93 126 172 219 259 314 391
#     4  10  25  41  61  91 137 166 210 265 326 380
#     4  10  22  41  62  94 127 165 215 265 317 385
#     4  10  22  41  66 100 124 164 223 262 324 382
#     4  11  21  40  66  92 123 169 217 259 317 381
#     4  10  20  39  68  90 126 166 213 268 308 390
#     4  11  23  39  67  95 129 168 213 272 322 383
#
# _framework density 22.211587999999999
#
# number of rings (size 3 to 8) (size 9 to 14) (size 15 to 20)
#    0.000    1.667    3.333    0.000    4.667    4.000 
#    0.000    0.000    0.000    1.000    0.000    0.000 
#    0.000    0.000    0.000    0.000    0.000    0.000 
#
# Total GULP energy -594832.384321 kJ/mol
# GULP energy per Si atom -12392.341340 kJ/mol
# Density = 2.216103 g / cm^3
# Si number density = 22.211588 Si / 1000 Ang^3
#
#
#
# Elastic Constant Matrix: (Units=GPa)
#
#
# Indices 1 2 3 4 5 6 
#
# 1 44.7001 8.1391 15.6316 0.0000 0.0000 0.0000
# 2 8.1391 68.6362 7.2382 0.0000 0.0000 0.0000
# 3 15.6316 7.2382 93.5314 0.0000 0.0000 0.0000
# 4 0.0000 0.0000 0.0000 40.8834 0.0000 0.0000
# 5 0.0000 0.0000 0.0000 0.0000 11.7078 0.0000
# 6 0.0000 0.0000 0.0000 0.0000 0.0000 32.1172
#
#
#
# Elastic Compliance Matrix: (Units=1/GPa)
#
#
# Indices 1 2 3 4 5 6 
#
# 1 0.024165 -0.002460 -0.003848 0.000000 0.000000 0.000000
# 2 -0.002460 0.014940 -0.000745 0.000000 0.000000 0.000000
# 3 -0.003848 -0.000745 0.011392 0.000000 0.000000 0.000000
# 4 0.000000 0.000000 0.000000 0.024460 0.000000 0.000000
# 5 0.000000 0.000000 0.000000 0.000000 0.085413 0.000000
# 6 0.000000 0.000000 0.000000 0.000000 0.000000 0.031136
#
#
# Mechanical properties :
#
#
# Convention : Reuss Voigt Hill
#
# Bulk Modulus (GPa) = 27.47928 29.87616 28.67772
# Shear Modulus (GPa) = 22.96289 28.66561 25.81425
#
# Velocity S-wave (km/s) = 3.21880 3.59635 3.41280
# Velocity P-wave (km/s) = 5.11983 5.54300 5.33561
#
# Compressibility (1/GPa) = 0.03639105
#
# Stress axis : x y z
#
# Youngs Moduli (GPa) = 41.38230 66.93521 87.77784
#
# Poissons Ratio (x) = 0.16464 0.33779
# Poissons Ratio (y) = 0.10179 0.06540
# Poissons Ratio (z) = 0.15925 0.04987
#
# Static dielectric constant tensor:
#      x y z
#    x 3.838040 0.000000 0.000000 
#    y 0.000000 4.189040 0.000000 
#    z 0.000000 0.000000 3.983260 
# 
# 
# High freq. dielectric constant tensor:
#      x y z
#    x 1.864270 0.000000 0.000000 
#    y 0.000000 1.883650 0.000000 
#    z 0.000000 0.000000 1.867830 
# 
# From -- ./inp_files/4580.got.cif
#   From: 2010.03.12/outbox.cif.g09.slc.cpg/sg62_3_cif.got.tgz:4580.got - 2010.04.10 19:12:36.
