data_PCOD8253980
_publ_section_title
;
Structure prediction by ZEFSAII (Michael W. Deem and Ramdas Pophale) SiO2 
 PCOD8253980
Probable space group: P N M A
;
_chemical_formula_sum "Si O2"
_cell_formula_units_Z 56
_cell_length_a 16.205804
_cell_length_b 8.900933
_cell_length_c 19.666678
_cell_angle_alpha 90.000000
_cell_angle_beta 90.000000
_cell_angle_gamma 90.000000
_cell_volume 2836.854889
_symmetry_space_group_name_H-M "P N M A"
_symmetry_group_IT_number 62
_symmetry_cell_setting 'orthorhombic'
loop_
_space_group_symop_operation_xyz
x,y,z
1/2-x,-y,1/2+z
1/2+x,1/2-y,1/2-z
-x,1/2+y,-z
-x,-y,-z
1/2+x,y,1/2-z
1/2-x,1/2+y,1/2+z
x,1/2-y,z
loop_
_atom_site_type_symbol
_atom_site_label
_atom_site_fract_x
_atom_site_fract_y
_atom_site_fract_z
Si Si1 0.746601 0.425637 0.525792
Si Si2 0.991568 0.923298 0.820432
Si Si3 0.175421 0.071561 0.600391
Si Si4 0.426909 0.425673 0.458497
Si Si5 0.520676 0.926599 0.831554
Si Si6 0.324315 0.425480 0.692521
Si Si7 0.647557 0.924038 0.155145
O O1 0.737563 0.250000 0.511082
O O2 0.809686 0.498138 0.472707
O O3 0.658119 0.501748 0.518145
O O4 0.781855 0.457970 0.600598
O O5 0.967605 0.750000 0.816653
O O6 0.059305 0.956212 0.878205
O O7 0.027458 0.975862 0.747709
O O8 0.907347 0.007471 0.839511
O O9 0.175663 0.250000 0.593544
O O10 0.245255 0.011643 0.652444
O O11 0.087476 0.018236 0.626680
O O12 0.500000 0.500000 0.500000
O O13 0.424307 0.250000 0.475143
O O14 0.534460 0.750000 0.841825
O O15 0.431551 0.973285 0.860620
O O16 0.330492 0.250000 0.681663
O O17 0.314848 0.468848 0.771688
O O18 0.620075 0.750000 0.153712
#
# Coordination Sequence:
#
# PCOD8253980 Si02
#       7
#     8   8   8   8   8   8   8
#     4  11  24  40  60  86 118 156 197 243 297 353
#     4   9  20  37  57  84 116 150 189 237 292 347
#     4  11  23  38  59  86 118 154 195 241 294 352
#     4  11  23  39  59  86 122 159 199 241 292 353
#     4  10  21  38  60  87 115 149 194 242 295 349
#     4   9  19  36  59  85 113 148 192 240 287 341
#     4   9  20  40  61  84 114 150 195 243 293 347
#
# _framework density 19.740169999999999
#
# number of rings (size 3 to 8) (size 9 to 14) (size 15 to 20)
#    0.000    2.000    0.000    2.571    2.000    6.857 
#    0.000    0.000    0.000    0.000    0.000    0.000 
#    0.000    0.000    0.000    0.000    0.000    0.000 
#
# Total GULP energy -694647.034163 kJ/mol
# GULP energy per Si atom -12404.411324 kJ/mol
# Density = 1.969524 g / cm^3
# Si number density = 19.740170 Si / 1000 Ang^3
#
#
#
# Elastic Constant Matrix: (Units=GPa)
#
#
# Indices 1 2 3 4 5 6 
#
# 1 68.5243 30.7676 24.6685 0.0000 0.0000 0.0000
# 2 30.7676 74.2536 33.6891 0.0000 0.0000 0.0000
# 3 24.6685 33.6891 72.3924 0.0000 0.0000 0.0000
# 4 0.0000 0.0000 0.0000 30.3090 0.0000 0.0000
# 5 0.0000 0.0000 0.0000 0.0000 35.4918 0.0000
# 6 0.0000 0.0000 0.0000 0.0000 0.0000 35.2840
#
#
#
# Elastic Compliance Matrix: (Units=1/GPa)
#
#
# Indices 1 2 3 4 5 6 
#
# 1 0.018599 -0.006124 -0.003488 0.000000 0.000000 0.000000
# 2 -0.006124 0.019088 -0.006796 0.000000 0.000000 0.000000
# 3 -0.003488 -0.006796 0.018165 0.000000 0.000000 0.000000
# 4 0.000000 0.000000 0.000000 0.032993 0.000000 0.000000
# 5 0.000000 0.000000 0.000000 0.000000 0.028175 0.000000
# 6 0.000000 0.000000 0.000000 0.000000 0.000000 0.028341
#
#
# Mechanical properties :
#
#
# Convention : Reuss Voigt Hill
#
# Bulk Modulus (GPa) = 43.41086 43.71338 43.56212
# Shear Modulus (GPa) = 26.90237 28.61998 27.76117
#
# Velocity S-wave (km/s) = 3.69565 3.81180 3.75417
# Velocity P-wave (km/s) = 6.34423 6.44713 6.39589
#
# Compressibility (1/GPa) = 0.02303571
#
# Stress axis : x y z
#
# Youngs Moduli (GPa) = 53.76729 52.38779 55.05135
#
# Poissons Ratio (x) = 0.32083 0.19200
# Poissons Ratio (y) = 0.32928 0.37414
# Poissons Ratio (z) = 0.18753 0.35604
#
# Static dielectric constant tensor:
#      x y z
#    x 3.504160 0.000000 0.000000 
#    y 0.000000 3.600380 0.000000 
#    z 0.000000 0.000000 3.852460 
# 
# 
# High freq. dielectric constant tensor:
#      x y z
#    x 1.767510 0.000000 0.000000 
#    y 0.000000 1.773070 0.000000 
#    z 0.000000 0.000000 1.778900 
# 
# From -- ./inp_files/27184.got.cif
#   From: 2010.03.12/outbox.cif.g09.slc.cpg/sg62_14_cif.got.tgz:27184.got - 2010.04.10 19:12:36.
