data_PCOD8253332
_publ_section_title
;
Structure prediction by ZEFSAII (Michael W. Deem and Ramdas Pophale) SiO2 
 PCOD8253332
Probable space group: P N M A
;
_chemical_formula_sum "Si O2"
_cell_formula_units_Z 40
_cell_length_a 5.331030
_cell_length_b 12.341568
_cell_length_c 30.046406
_cell_angle_alpha 90.000000
_cell_angle_beta 90.000000
_cell_angle_gamma 90.000000
_cell_volume 1976.851280
_symmetry_space_group_name_H-M "P N M A"
_symmetry_group_IT_number 62
_symmetry_cell_setting 'orthorhombic'
loop_
_space_group_symop_operation_xyz
x,y,z
1/2-x,-y,1/2+z
1/2+x,1/2-y,1/2-z
-x,1/2+y,-z
-x,-y,-z
1/2+x,y,1/2-z
1/2-x,1/2+y,1/2+z
x,1/2-y,z
loop_
_atom_site_type_symbol
_atom_site_label
_atom_site_fract_x
_atom_site_fract_y
_atom_site_fract_z
Si Si1 0.055126 0.625373 0.945893
Si Si2 0.300179 0.549999 0.031591
Si Si3 0.321123 0.627843 0.123282
Si Si4 0.805674 0.500141 0.135562
Si Si5 0.352217 0.378436 0.274535
O O1 0.005958 0.750000 0.933292
O O2 0.243100 0.570160 0.909828
O O3 0.807072 0.553369 0.941396
O O4 0.123001 0.616963 0.998154
O O5 0.388945 0.630996 0.070256
O O6 0.500000 0.500000 0.000000
O O7 0.321231 0.750000 0.141541
O O8 0.549216 0.564159 0.146955
O O9 0.044131 0.580033 0.131749
O O10 0.860574 0.417680 0.175021
O O11 0.601502 0.422486 0.249741
O O12 0.352301 0.250000 0.275086
#
# Coordination Sequence:
#
# PCOD8253332 Si02
#       5
#     8   8   8   8   8
#     4  10  21  35  55  81 116 154 194 246 293 340
#     4  10  20  38  51  81 116 157 205 240 286 344
#     4  11  23  39  61  84 119 164 202 244 289 341
#     4  11  22  40  61  89 120 148 200 245 291 354
#     4  10  21  39  65  94 122 153 185 232 306 370
#
# _framework density 20.234199
#
# number of rings (size 3 to 8) (size 9 to 14) (size 15 to 20)
#    0.000    1.600    2.000    3.000    0.000    1.600 
#    0.000    2.000    0.000   12.000    0.000    0.000 
#    0.000    0.000    0.000    0.000    0.000    0.000 
#
# Total GULP energy -495630.016310 kJ/mol
# GULP energy per Si atom -12390.750408 kJ/mol
# Density = 2.018815 g / cm^3
# Si number density = 20.234199 Si / 1000 Ang^3
#
#
#
# Elastic Constant Matrix: (Units=GPa)
#
#
# Indices 1 2 3 4 5 6 
#
# 1 104.7290 24.5043 12.8610 0.0000 0.0000 0.0000
# 2 24.5043 90.9643 8.2070 0.0000 0.0000 0.0000
# 3 12.8610 8.2070 64.2351 0.0000 0.0000 0.0000
# 4 0.0000 0.0000 0.0000 24.9412 0.0000 0.0000
# 5 0.0000 0.0000 0.0000 0.0000 29.4188 0.0000
# 6 0.0000 0.0000 0.0000 0.0000 0.0000 19.3008
#
#
#
# Elastic Compliance Matrix: (Units=1/GPa)
#
#
# Indices 1 2 3 4 5 6 
#
# 1 0.010380 -0.002639 -0.001741 0.000000 0.000000 0.000000
# 2 -0.002639 0.011793 -0.000978 0.000000 0.000000 0.000000
# 3 -0.001741 -0.000978 0.016041 0.000000 0.000000 0.000000
# 4 0.000000 0.000000 0.000000 0.040094 0.000000 0.000000
# 5 0.000000 0.000000 0.000000 0.000000 0.033992 0.000000
# 6 0.000000 0.000000 0.000000 0.000000 0.000000 0.051811
#
#
# Mechanical properties :
#
#
# Convention : Reuss Voigt Hill
#
# Bulk Modulus (GPa) = 36.36772 39.00810 37.68791
# Shear Modulus (GPa) = 27.17488 29.02257 28.09873
#
# Velocity S-wave (km/s) = 3.66870 3.79137 3.73054
# Velocity P-wave (km/s) = 5.99651 6.20372 6.10100
#
# Compressibility (1/GPa) = 0.02749691
#
# Stress axis : x y z
#
# Youngs Moduli (GPa) = 96.34160 84.79959 62.33871
#
# Poissons Ratio (x) = 0.22379 0.10853
# Poissons Ratio (y) = 0.25425 0.06099
# Poissons Ratio (z) = 0.16773 0.08296
#
# Static dielectric constant tensor:
#      x y z
#    x 4.556580 0.000000 0.000000 
#    y 0.000000 3.572750 0.000000 
#    z 0.000000 0.000000 -30.611840 
# 
# 
# High freq. dielectric constant tensor:
#      x y z
#    x 1.791710 0.000000 0.000000 
#    y 0.000000 1.779470 0.000000 
#    z 0.000000 0.000000 1.782790 
# 
# From -- ./inp_files/30236.got.cif
#   From: 2010.03.12/outbox.cif.g09.slc.cpg/sg62_16_cif.got.tgz:30236.got - 2010.04.10 19:12:36.
