data_PCOD8253479
_publ_section_title
;
Structure prediction by ZEFSAII (Michael W. Deem and Ramdas Pophale) SiO2 
 PCOD8253479
Probable space group: P N M A
;
_chemical_formula_sum "Si O2"
_cell_formula_units_Z 40
_cell_length_a 24.561345
_cell_length_b 8.336034
_cell_length_c 9.493176
_cell_angle_alpha 90.000000
_cell_angle_beta 90.000000
_cell_angle_gamma 90.000000
_cell_volume 1943.672792
_symmetry_space_group_name_H-M "P N M A"
_symmetry_group_IT_number 62
_symmetry_cell_setting 'orthorhombic'
loop_
_space_group_symop_operation_xyz
x,y,z
1/2-x,-y,1/2+z
1/2+x,1/2-y,1/2-z
-x,1/2+y,-z
-x,-y,-z
1/2+x,y,1/2-z
1/2-x,1/2+y,1/2+z
x,1/2-y,z
loop_
_atom_site_type_symbol
_atom_site_label
_atom_site_fract_x
_atom_site_fract_y
_atom_site_fract_z
Si Si1 0.520237 0.750000 0.008671
Si Si2 0.189079 0.563753 0.964241
Si Si3 0.912501 0.750000 0.671428
Si Si4 0.386936 0.497301 0.032896
Si Si5 0.384171 0.750000 0.513692
Si Si6 0.932260 0.750000 0.272486
Si Si7 0.776074 0.424938 0.348650
O O1 0.473500 0.750000 0.890632
O O2 0.558025 0.598558 0.990719
O O3 0.493498 0.750000 0.165065
O O4 0.165762 0.750000 0.968604
O O5 0.147614 0.419633 0.000681
O O6 0.212957 0.523094 0.811100
O O7 0.237720 0.556269 0.078382
O O8 0.879202 0.901868 0.610752
O O9 0.914976 0.750000 0.838260
O O10 0.397830 0.599265 0.172928
O O11 0.332098 0.401484 0.063533
O O12 0.431971 0.750000 0.396542
O O13 0.747193 0.250000 0.351990
#
# Coordination Sequence:
#
# PCOD8253479 Si02
#       7
#     4   8   4   8   4   4   8
#     4  10  20  43  68 101 124 164 229 268 316 403
#     4  11  27  42  65  97 132 174 222 267 318 394
#     4  10  24  38  64  93 128 171 209 275 316 395
#     4  10  20  39  67  93 124 164 220 262 322 388
#     4  12  24  47  62  95 140 172 218 271 337 374
#     4  10  20  38  68  85 128 175 200 268 335 376
#     4  11  23  41  65  94 125 175 213 268 321 385
#
# _framework density 20.579595000000001
#
# number of rings (size 3 to 8) (size 9 to 14) (size 15 to 20)
#    0.000    1.600    4.000    2.400    7.000    0.000 
#    1.800    4.000    0.000    0.000    0.000    0.000 
#    0.000    0.000    0.000    0.000    0.000    0.000 
#
# Total GULP energy -495586.273664 kJ/mol
# GULP energy per Si atom -12389.656842 kJ/mol
# Density = 2.053275 g / cm^3
# Si number density = 20.579595 Si / 1000 Ang^3
#
#
#
# Elastic Constant Matrix: (Units=GPa)
#
#
# Indices 1 2 3 4 5 6 
#
# 1 56.1264 31.0150 35.5894 0.0000 0.0000 0.0000
# 2 31.0150 120.9508 45.6074 0.0000 0.0000 0.0000
# 3 35.5894 45.6074 170.5466 0.0000 0.0000 0.0000
# 4 0.0000 0.0000 0.0000 -18.2807 0.0000 0.0000
# 5 0.0000 0.0000 0.0000 0.0000 21.5082 0.0000
# 6 0.0000 0.0000 0.0000 0.0000 0.0000 14.4493
#
#
#
# Elastic Compliance Matrix: (Units=1/GPa)
#
#
# Indices 1 2 3 4 5 6 
#
# 1 0.022497 -0.004447 -0.003505 0.000000 0.000000 0.000000
# 2 -0.004447 0.010074 -0.001766 0.000000 0.000000 0.000000
# 3 -0.003505 -0.001766 0.007067 0.000000 0.000000 0.000000
# 4 0.000000 0.000000 0.000000 -0.054703 0.000000 0.000000
# 5 0.000000 0.000000 0.000000 0.000000 0.046494 0.000000
# 6 0.000000 0.000000 0.000000 0.000000 0.000000 0.069207
#
#
# Mechanical properties :
#
#
# Convention : Reuss Voigt Hill
#
# Bulk Modulus (GPa) = 49.50129 63.56083 56.53106
# Shear Modulus (GPa) = 39.42965 19.22949 29.32957
#
# Velocity S-wave (km/s) = 4.38192 3.06011 3.77925
# Velocity P-wave (km/s) = 7.05035 6.59076 6.82442
#
# Compressibility (1/GPa) = 0.02020149
#
# Stress axis : x y z
#
# Youngs Moduli (GPa) = 44.45010 99.26460 141.49730
#
# Poissons Ratio (x) = 0.44144 0.49601
# Poissons Ratio (y) = 0.19767 0.24988
# Poissons Ratio (z) = 0.15582 0.17530
#
# Static dielectric constant tensor:
#      x y z
#    x 3.468330 0.000000 0.000000 
#    y 0.000000 4.225560 0.000000 
#    z 0.000000 0.000000 3.665280 
# 
# 
# High freq. dielectric constant tensor:
#      x y z
#    x 1.785840 0.000000 0.000000 
#    y 0.000000 1.821120 0.000000 
#    z 0.000000 0.000000 1.800390 
# 
# From -- ./inp_files/9163.got.cif
#   From: 2010.03.12/outbox.cif.g09.slc.cpg/sg62_5_cif.got.tgz:9163.got - 2010.04.10 19:12:36.
