data_PCOD8253211
_publ_section_title
;
Structure prediction by ZEFSAII (Michael W. Deem and Ramdas Pophale) SiO2 
 PCOD8253211
Probable space group: P N M A
;
_chemical_formula_sum "Si O2"
_cell_formula_units_Z 40
_cell_length_a 15.050396
_cell_length_b 8.805683
_cell_length_c 15.035118
_cell_angle_alpha 90.000000
_cell_angle_beta 90.000000
_cell_angle_gamma 90.000000
_cell_volume 1992.589397
_symmetry_space_group_name_H-M "P N M A"
_symmetry_group_IT_number 62
_symmetry_cell_setting 'orthorhombic'
loop_
_space_group_symop_operation_xyz
x,y,z
1/2-x,-y,1/2+z
1/2+x,1/2-y,1/2-z
-x,1/2+y,-z
-x,-y,-z
1/2+x,y,1/2-z
1/2-x,1/2+y,1/2+z
x,1/2-y,z
loop_
_atom_site_type_symbol
_atom_site_label
_atom_site_fract_x
_atom_site_fract_y
_atom_site_fract_z
Si Si1 0.324547 0.925111 0.863912
Si Si2 0.323777 0.069884 0.225649
Si Si3 0.761846 0.429513 0.465690
Si Si4 0.577904 0.928729 0.443880
Si Si5 0.520870 0.425448 0.267400
O O1 0.304604 0.750000 0.886562
O O2 0.249094 0.988712 0.796270
O O3 0.422256 0.943611 0.822203
O O4 0.326405 0.023272 0.953821
O O5 0.322938 0.250000 0.222345
O O6 0.300901 0.007984 0.127378
O O7 0.421605 0.011095 0.252230
O O8 0.749105 0.250000 0.462932
O O9 0.668437 0.508855 0.485250
O O10 0.575673 0.750000 0.454322
O O11 0.500000 0.000000 0.500000
O O12 0.569543 0.975703 0.341558
O O13 0.519541 0.250000 0.298461
#
# Coordination Sequence:
#
# PCOD8253211 Si02
#       5
#     8   8   8   8   8
#     4  10  20  37  59  87 122 163 206 252 308 365
#     4   9  19  37  60  85 118 159 203 249 304 362
#     4  11  22  39  61  88 121 162 204 252 306 366
#     4  12  24  39  61  91 122 157 204 259 314 365
#     4  10  20  38  63  87 119 164 206 247 304 368
#
# _framework density 20.074383000000001
#
# number of rings (size 3 to 8) (size 9 to 14) (size 15 to 20)
#    0.000    1.600    2.000    3.600    0.000    3.200 
#    0.000    2.000    0.000    0.000    0.000    0.000 
#    0.000    0.000    0.000    0.000    0.000    0.000 
#
# Total GULP energy -496173.226464 kJ/mol
# GULP energy per Si atom -12404.330662 kJ/mol
# Density = 2.002869 g / cm^3
# Si number density = 20.074383 Si / 1000 Ang^3
#
#
#
# Elastic Constant Matrix: (Units=GPa)
#
#
# Indices 1 2 3 4 5 6 
#
# 1 76.8723 10.9413 -2.2272 0.0000 0.0000 0.0000
# 2 10.9413 81.8156 20.5964 0.0000 0.0000 0.0000
# 3 -2.2272 20.5964 92.3483 0.0000 0.0000 0.0000
# 4 0.0000 0.0000 0.0000 33.6685 0.0000 0.0000
# 5 0.0000 0.0000 0.0000 0.0000 35.2807 0.0000
# 6 0.0000 0.0000 0.0000 0.0000 0.0000 21.4783
#
#
#
# Elastic Compliance Matrix: (Units=1/GPa)
#
#
# Indices 1 2 3 4 5 6 
#
# 1 0.013311 -0.001972 0.000761 0.000000 0.000000 0.000000
# 2 -0.001972 0.013242 -0.003001 0.000000 0.000000 0.000000
# 3 0.000761 -0.003001 0.011516 0.000000 0.000000 0.000000
# 4 0.000000 0.000000 0.000000 0.029701 0.000000 0.000000
# 5 0.000000 0.000000 0.000000 0.000000 0.028344 0.000000
# 6 0.000000 0.000000 0.000000 0.000000 0.000000 0.046559
#
#
# Mechanical properties :
#
#
# Convention : Reuss Voigt Hill
#
# Bulk Modulus (GPa) = 33.73169 34.40636 34.06902
# Shear Modulus (GPa) = 31.06004 32.86722 31.96363
#
# Velocity S-wave (km/s) = 3.93777 4.05071 3.99464
# Velocity P-wave (km/s) = 6.12491 6.24935 6.18744
#
# Compressibility (1/GPa) = 0.02964571
#
# Stress axis : x y z
#
# Youngs Moduli (GPa) = 75.12442 75.51892 86.83422
#
# Poissons Ratio (x) = 0.14890 -0.06606
# Poissons Ratio (y) = 0.14812 0.26058
# Poissons Ratio (z) = -0.05715 0.22662
#
# Static dielectric constant tensor:
#      x y z
#    x 3.818040 0.000000 0.000000 
#    y 0.000000 3.471780 0.000000 
#    z 0.000000 0.000000 3.775760 
# 
# 
# High freq. dielectric constant tensor:
#      x y z
#    x 1.791730 0.000000 0.000000 
#    y 0.000000 1.757320 0.000000 
#    z 0.000000 0.000000 1.792350 
# 
# From -- ./inp_files/18588.got.cif
#   From: 2010.03.12/outbox.cif.g09.slc.cpg/sg62_10_cif.got.tgz:18588.got - 2010.04.10 19:12:36.
