data_PCOD8253420
_publ_section_title
;
Structure prediction by ZEFSAII (Michael W. Deem and Ramdas Pophale) SiO2 
 PCOD8253420
Probable space group: P N M A
;
_chemical_formula_sum "Si O2"
_cell_formula_units_Z 64
_cell_length_a 22.866131
_cell_length_b 8.712790
_cell_length_c 15.842449
_cell_angle_alpha 90.000000
_cell_angle_beta 90.000000
_cell_angle_gamma 90.000000
_cell_volume 3156.256222
_symmetry_space_group_name_H-M "P N M A"
_symmetry_group_IT_number 62
_symmetry_cell_setting 'orthorhombic'
loop_
_space_group_symop_operation_xyz
x,y,z
1/2-x,-y,1/2+z
1/2+x,1/2-y,1/2-z
-x,1/2+y,-z
-x,-y,-z
1/2+x,y,1/2-z
1/2-x,1/2+y,1/2+z
x,1/2-y,z
loop_
_atom_site_type_symbol
_atom_site_label
_atom_site_fract_x
_atom_site_fract_y
_atom_site_fract_z
Si Si1 0.648793 0.418781 0.129680
Si Si2 0.479102 0.931358 0.911333
Si Si3 0.325357 0.069394 0.448538
Si Si4 0.548409 0.432378 0.562752
Si Si5 0.950210 0.928391 0.257144
Si Si6 0.747634 0.427676 0.700557
Si Si7 0.335601 0.424896 0.185047
Si Si8 0.284622 0.915805 0.041786
O O1 0.639871 0.250000 0.171594
O O2 0.586542 0.490657 0.104960
O O3 0.683552 0.534690 0.190238
O O4 0.690703 0.398425 0.050946
O O5 0.481923 0.750000 0.921764
O O6 0.516064 0.977886 0.829254
O O7 0.500000 0.000000 0.000000
O O8 0.327965 0.250000 0.424414
O O9 0.284566 0.042817 0.531799
O O10 0.390227 0.006843 0.465131
O O11 0.295921 0.972642 0.374429
O O12 0.500000 0.500000 0.500000
O O13 0.552213 0.250000 0.551973
O O14 0.532509 0.473886 0.660787
O O15 0.961600 0.750000 0.273206
O O16 0.882266 0.966600 0.269421
O O17 0.740949 0.250000 0.719750
O O18 0.727982 0.529692 0.779916
O O19 0.353550 0.250000 0.200078
O O20 0.326195 0.458209 0.085996
O O21 0.290444 0.750000 0.088363
#
# Coordination Sequence:
#
# PCOD8253420 Si02
#       8
#     8   8   8   8   8   8   8   8
#     4   9  20  39  59  83 117 157 197 242 300 360
#     4  11  23  40  65  95 130 171 213 262 317 379
#     4  10  20  38  63  88 118 154 197 251 310 372
#     4  11  24  42  66  91 121 166 216 270 324 379
#     4  11  24  42  64  92 127 169 217 267 319 380
#     4  11  21  35  59  86 116 154 194 242 302 364
#     4  12  23  36  59  89 120 156 202 253 305 367
#     4   9  19  36  59  88 121 156 193 246 307 367
#
# _framework density 20.277187000000001
#
# number of rings (size 3 to 8) (size 9 to 14) (size 15 to 20)
#    0.000    1.500    1.250    5.250    0.000    6.000 
#    2.250    0.000    0.000    0.000    0.000    0.000 
#    0.000    0.000    0.000    0.000    0.000    0.000 
#
# Total GULP energy -793189.433854 kJ/mol
# GULP energy per Si atom -12393.584904 kJ/mol
# Density = 2.023104 g / cm^3
# Si number density = 20.277187 Si / 1000 Ang^3
#
#
#
# Elastic Constant Matrix: (Units=GPa)
#
#
# Indices 1 2 3 4 5 6 
#
# 1 117.4844 24.6020 34.9053 0.0000 0.0000 0.0000
# 2 24.6020 69.5767 26.6651 0.0000 0.0000 0.0000
# 3 34.9053 26.6651 83.1557 0.0000 0.0000 0.0000
# 4 0.0000 0.0000 0.0000 29.2192 0.0000 0.0000
# 5 0.0000 0.0000 0.0000 0.0000 29.1097 0.0000
# 6 0.0000 0.0000 0.0000 0.0000 0.0000 35.9177
#
#
#
# Elastic Compliance Matrix: (Units=1/GPa)
#
#
# Indices 1 2 3 4 5 6 
#
# 1 0.010011 -0.002200 -0.003497 0.000000 0.000000 0.000000
# 2 -0.002200 0.016870 -0.004486 0.000000 0.000000 0.000000
# 3 -0.003497 -0.004486 0.014932 0.000000 0.000000 0.000000
# 4 0.000000 0.000000 0.000000 0.034224 0.000000 0.000000
# 5 0.000000 0.000000 0.000000 0.000000 0.034353 0.000000
# 6 0.000000 0.000000 0.000000 0.000000 0.000000 0.027841
#
#
# Mechanical properties :
#
#
# Convention : Reuss Voigt Hill
#
# Bulk Modulus (GPa) = 46.62570 49.17351 47.89960
# Shear Modulus (GPa) = 30.16654 31.11894 30.64274
#
# Velocity S-wave (km/s) = 3.86127 3.92175 3.89162
# Velocity P-wave (km/s) = 6.55158 6.69403 6.62319
#
# Compressibility (1/GPa) = 0.02144740
#
# Stress axis : x y z
#
# Youngs Moduli (GPa) = 99.88630 59.27758 66.96994
#
# Poissons Ratio (x) = 0.13040 0.23419
# Poissons Ratio (y) = 0.21973 0.30044
# Poissons Ratio (z) = 0.34930 0.26593
#
# Static dielectric constant tensor:
#      x y z
#    x 3.917460 0.000000 0.000000 
#    y 0.000000 3.794820 0.000000 
#    z 0.000000 0.000000 3.715660 
# 
# 
# High freq. dielectric constant tensor:
#      x y z
#    x 1.797250 0.000000 0.000000 
#    y 0.000000 1.797450 0.000000 
#    z 0.000000 0.000000 1.781240 
# 
# From -- ./inp_files/20966.got.cif
#   From: 2010.03.12/outbox.cif.g09.slc.cpg/sg62_11_cif.got.tgz:20966.got - 2010.04.10 19:12:36.
