data_PCOD8253362
_publ_section_title
;
Structure prediction by ZEFSAII (Michael W. Deem and Ramdas Pophale) SiO2 
 PCOD8253362
Probable space group: P N M A
;
_chemical_formula_sum "Si O2"
_cell_formula_units_Z 40
_cell_length_a 14.145194
_cell_length_b 15.493831
_cell_length_c 9.285864
_cell_angle_alpha 90.000000
_cell_angle_beta 90.000000
_cell_angle_gamma 90.000000
_cell_volume 2035.120090
_symmetry_space_group_name_H-M "P N M A"
_symmetry_group_IT_number 62
_symmetry_cell_setting 'orthorhombic'
loop_
_space_group_symop_operation_xyz
x,y,z
1/2-x,-y,1/2+z
1/2+x,1/2-y,1/2-z
-x,1/2+y,-z
-x,-y,-z
1/2+x,y,1/2-z
1/2-x,1/2+y,1/2+z
x,1/2-y,z
loop_
_atom_site_type_symbol
_atom_site_label
_atom_site_fract_x
_atom_site_fract_y
_atom_site_fract_z
Si Si1 0.434447 0.652468 0.947433
Si Si2 0.686122 0.500859 0.944172
Si Si3 0.382777 0.154770 0.876867
Si Si4 0.612284 0.931309 0.404191
Si Si5 0.457025 0.439238 0.292237
O O1 0.393718 0.750000 0.942558
O O2 0.488153 0.633891 0.797263
O O3 0.350404 0.584823 0.973289
O O4 0.508634 0.640670 0.077033
O O5 0.794708 0.490252 0.903948
O O6 0.626426 0.518306 0.800832
O O7 0.682341 0.582723 0.050122
O O8 0.347877 0.250000 0.924430
O O9 0.373762 0.148998 0.703707
O O10 0.587997 0.896902 0.564072
O O11 0.527576 0.986008 0.337678
#
# Coordination Sequence:
#
# PCOD8253362 Si02
#       5
#     8   8   8   8   8
#     4  10  20  38  61  82 116 161 200 241 293 357
#     4  11  20  39  62  88 118 162 202 239 292 360
#     4  10  20  38  61  85 116 158 199 242 299 353
#     4  11  21  35  62  90 118 155 191 254 297 346
#     4  10  21  37  58  89 120 152 196 243 304 347
#
# _framework density 19.654858999999998
#
# number of rings (size 3 to 8) (size 9 to 14) (size 15 to 20)
#    0.000    1.600    4.000    2.400    0.000    1.600 
#    0.000    1.000    0.000    0.000    0.000    0.000 
#    0.000    0.000    0.000    0.000    0.000    0.000 
#
# Total GULP energy -495978.525361 kJ/mol
# GULP energy per Si atom -12399.463134 kJ/mol
# Density = 1.961012 g / cm^3
# Si number density = 19.654859 Si / 1000 Ang^3
#
#
#
# Elastic Constant Matrix: (Units=GPa)
#
#
# Indices 1 2 3 4 5 6 
#
# 1 45.2508 -0.8166 38.6026 0.0000 0.0000 0.0000
# 2 -0.8166 94.2064 46.2401 0.0000 0.0000 0.0000
# 3 38.6026 46.2401 147.7437 0.0000 0.0000 0.0000
# 4 0.0000 0.0000 0.0000 17.4597 0.0000 0.0000
# 5 0.0000 0.0000 0.0000 0.0000 19.4975 0.0000
# 6 0.0000 0.0000 0.0000 0.0000 0.0000 9.8270
#
#
#
# Elastic Compliance Matrix: (Units=1/GPa)
#
#
# Indices 1 2 3 4 5 6 
#
# 1 0.030231 0.004890 -0.009429 0.000000 0.000000 0.000000
# 2 0.004890 0.013333 -0.005451 0.000000 0.000000 0.000000
# 3 -0.009429 -0.005451 0.010938 0.000000 0.000000 0.000000
# 4 0.000000 0.000000 0.000000 0.057275 0.000000 0.000000
# 5 0.000000 0.000000 0.000000 0.000000 0.051289 0.000000
# 6 0.000000 0.000000 0.000000 0.000000 0.000000 0.101760
#
#
# Mechanical properties :
#
#
# Convention : Reuss Voigt Hill
#
# Bulk Modulus (GPa) = 28.96624 50.58367 39.77495
# Shear Modulus (GPa) = 16.87407 22.90184 19.88796
#
# Velocity S-wave (km/s) = 2.93323 3.41721 3.18442
# Velocity P-wave (km/s) = 5.12262 6.43130 5.81390
#
# Compressibility (1/GPa) = 0.03452295
#
# Stress axis : x y z
#
# Youngs Moduli (GPa) = 33.07821 75.00337 91.42347
#
# Poissons Ratio (x) = -0.36680 0.86207
# Poissons Ratio (y) = -0.16177 0.49831
# Poissons Ratio (z) = 0.31191 0.40881
#
# Static dielectric constant tensor:
#      x y z
#    x 3.429310 0.000000 0.000000 
#    y 0.000000 3.424270 0.000000 
#    z 0.000000 0.000000 3.966190 
# 
# 
# High freq. dielectric constant tensor:
#      x y z
#    x 1.753390 0.000000 0.000000 
#    y 0.000000 1.749390 0.000000 
#    z 0.000000 0.000000 1.780950 
# 
# From -- ./inp_files/6088.got.cif
#   From: 2010.03.12/outbox.cif.g09.slc.cpg/sg62_4_cif.got.tgz:6088.got - 2010.04.10 19:12:36.
