data_PCOD8253938
_publ_section_title
;
Structure prediction by ZEFSAII (Michael W. Deem and Ramdas Pophale) SiO2 
 PCOD8253938
Probable space group: P N M A
;
_chemical_formula_sum "Si O2"
_cell_formula_units_Z 40
_cell_length_a 13.208969
_cell_length_b 8.592895
_cell_length_c 18.029074
_cell_angle_alpha 90.000000
_cell_angle_beta 90.000000
_cell_angle_gamma 90.000000
_cell_volume 2046.359101
_symmetry_space_group_name_H-M "P N M A"
_symmetry_group_IT_number 62
_symmetry_cell_setting 'orthorhombic'
loop_
_space_group_symop_operation_xyz
x,y,z
1/2-x,-y,1/2+z
1/2+x,1/2-y,1/2-z
-x,1/2+y,-z
-x,-y,-z
1/2+x,y,1/2-z
1/2-x,1/2+y,1/2+z
x,1/2-y,z
loop_
_atom_site_type_symbol
_atom_site_label
_atom_site_fract_x
_atom_site_fract_y
_atom_site_fract_z
Si Si1 0.614763 0.570015 0.382356
Si Si2 0.910800 0.070174 0.164886
Si Si3 0.691210 0.070706 0.526637
Si Si4 0.674214 0.069067 0.811202
Si Si5 0.094547 0.932104 0.542834
O O1 0.616002 0.750000 0.405003
O O2 0.513275 0.529738 0.338354
O O3 0.618746 0.470329 0.457662
O O4 0.709491 0.529860 0.329996
O O5 0.940132 0.250000 0.163468
O O6 0.836672 0.032690 0.096982
O O7 0.852647 0.031354 0.239977
O O8 0.674378 0.250000 0.547305
O O9 0.806822 0.033423 0.506454
O O10 0.657719 0.250000 0.793971
O O11 0.602255 0.019985 0.878997
O O12 0.081042 0.750000 0.557942
O O13 0.000000 0.000000 0.500000
#
# Coordination Sequence:
#
# PCOD8253938 Si02
#       5
#     8   8   8   8   8
#     4  10  21  39  61  83 112 148 186 232 284 336
#     4  12  24  37  58  86 116 150 188 232 282 336
#     4  10  21  38  59  84 114 148 190 234 278 333
#     4  10  22  40  60  83 113 148 188 235 284 333
#     4  10  21  38  61  86 115 152 191 233 280 334
#
# _framework density 19.54691
#
# number of rings (size 3 to 8) (size 9 to 14) (size 15 to 20)
#    0.000    1.600    0.000    4.800    0.000    6.400 
#    0.000    2.000    0.000    0.000    0.000    0.000 
#    0.000    0.000    0.000    0.000    0.000    0.000 
#
# Total GULP energy -496288.203253 kJ/mol
# GULP energy per Si atom -12407.205081 kJ/mol
# Density = 1.950242 g / cm^3
# Si number density = 19.546910 Si / 1000 Ang^3
#
#
#
# Elastic Constant Matrix: (Units=GPa)
#
#
# Indices 1 2 3 4 5 6 
#
# 1 95.2246 30.1770 55.4919 0.0000 0.0000 0.0000
# 2 30.1770 61.0321 25.7346 0.0000 0.0000 0.0000
# 3 55.4919 25.7346 113.2406 0.0000 0.0000 0.0000
# 4 0.0000 0.0000 0.0000 38.2179 0.0000 0.0000
# 5 0.0000 0.0000 0.0000 0.0000 27.8158 0.0000
# 6 0.0000 0.0000 0.0000 0.0000 0.0000 31.0777
#
#
#
# Elastic Compliance Matrix: (Units=1/GPa)
#
#
# Indices 1 2 3 4 5 6 
#
# 1 0.016015 -0.005098 -0.006690 0.000000 0.000000 0.000000
# 2 -0.005098 0.019744 -0.001989 0.000000 0.000000 0.000000
# 3 -0.006690 -0.001989 0.012561 0.000000 0.000000 0.000000
# 4 0.000000 0.000000 0.000000 0.026166 0.000000 0.000000
# 5 0.000000 0.000000 0.000000 0.000000 0.035951 0.000000
# 6 0.000000 0.000000 0.000000 0.000000 0.000000 0.032177
#
#
# Mechanical properties :
#
#
# Convention : Reuss Voigt Hill
#
# Bulk Modulus (GPa) = 48.15182 54.70049 51.42615
# Shear Modulus (GPa) = 28.23430 29.96186 29.09808
#
# Velocity S-wave (km/s) = 3.80470 3.91937 3.86246
# Velocity P-wave (km/s) = 6.63238 6.96613 6.80130
#
# Compressibility (1/GPa) = 0.02076765
#
# Stress axis : x y z
#
# Youngs Moduli (GPa) = 62.43991 50.64804 79.61259
#
# Poissons Ratio (x) = 0.25821 0.53257
# Poissons Ratio (y) = 0.31832 0.15833
# Poissons Ratio (z) = 0.41770 0.10073
#
# Static dielectric constant tensor:
#      x y z
#    x 3.552150 0.000000 0.000000 
#    y 0.000000 3.667430 0.000000 
#    z 0.000000 0.000000 3.516840 
# 
# 
# High freq. dielectric constant tensor:
#      x y z
#    x 1.766300 0.000000 0.000000 
#    y 0.000000 1.776810 0.000000 
#    z 0.000000 0.000000 1.761660 
# 
# From -- ./inp_files/18645.got.cif
#   From: 2010.03.12/outbox.cif.g09.slc.cpg/sg62_10_cif.got.tgz:18645.got - 2010.04.10 19:12:36.
