data_PCOD8253668
_publ_section_title
;
Structure prediction by ZEFSAII (Michael W. Deem and Ramdas Pophale) SiO2 
 PCOD8253668
Probable space group: P N M A
;
_chemical_formula_sum "Si O2"
_cell_formula_units_Z 32
_cell_length_a 16.835830
_cell_length_b 20.382661
_cell_length_c 5.091522
_cell_angle_alpha 90.000000
_cell_angle_beta 90.000000
_cell_angle_gamma 90.000000
_cell_volume 1747.201677
_symmetry_space_group_name_H-M "P N M A"
_symmetry_group_IT_number 62
_symmetry_cell_setting 'orthorhombic'
loop_
_space_group_symop_operation_xyz
x,y,z
1/2-x,-y,1/2+z
1/2+x,1/2-y,1/2-z
-x,1/2+y,-z
-x,-y,-z
1/2+x,y,1/2-z
1/2-x,1/2+y,1/2+z
x,1/2-y,z
loop_
_atom_site_type_symbol
_atom_site_label
_atom_site_fract_x
_atom_site_fract_y
_atom_site_fract_z
Si Si1 0.410334 0.619745 0.507689
Si Si2 0.526624 0.323601 0.006180
Si Si3 0.537285 0.551353 0.797358
Si Si4 0.800049 0.511829 0.145167
O O1 0.404253 0.662082 0.775572
O O2 0.477063 0.561344 0.547973
O O3 0.327509 0.584682 0.439592
O O4 0.434967 0.668781 0.278148
O O5 0.492750 0.250000 0.035252
O O6 0.457100 0.377243 0.055347
O O7 0.625259 0.533946 0.709521
O O8 0.500000 0.500000 0.000000
O O9 0.747528 0.520375 0.405506
#
# Coordination Sequence:
#
# PCOD8253668 Si02
#       4
#     8   8   8   8
#     4  10  21  37  59  84 117 151 199 240 290 342
#     4  10  21  35  63  86 111 150 207 247 284 340
#     4  10  21  38  62  88 117 147 203 247 293 347
#     4  12  23  34  57  93 123 150 186 248 308 353
#
# _framework density 18.315000000000001
#
# number of rings (size 3 to 8) (size 9 to 14) (size 15 to 20)
#    1.500    0.000    2.500    4.500    3.500    0.000 
#    0.000    0.000    0.000    9.000    0.000    0.000 
#    0.000    0.000    0.000    0.000    0.000    0.000 
#
# Total GULP energy -396509.367548 kJ/mol
# GULP energy per Si atom -12390.917736 kJ/mol
# Density = 1.827331 g / cm^3
# Si number density = 18.315000 Si / 1000 Ang^3
#
#
#
# Elastic Constant Matrix: (Units=GPa)
#
#
# Indices 1 2 3 4 5 6 
#
# 1 85.9482 38.7097 48.4843 0.0000 0.0000 0.0000
# 2 38.7097 125.6409 34.8456 0.0000 0.0000 0.0000
# 3 48.4843 34.8456 135.6759 0.0000 0.0000 0.0000
# 4 0.0000 0.0000 0.0000 26.3684 0.0000 0.0000
# 5 0.0000 0.0000 0.0000 0.0000 31.1754 0.0000
# 6 0.0000 0.0000 0.0000 0.0000 0.0000 8.2856
#
#
#
# Elastic Compliance Matrix: (Units=1/GPa)
#
#
# Indices 1 2 3 4 5 6 
#
# 1 0.015945 -0.003588 -0.004777 0.000000 0.000000 0.000000
# 2 -0.003588 0.009377 -0.001126 0.000000 0.000000 0.000000
# 3 -0.004777 -0.001126 0.009367 0.000000 0.000000 0.000000
# 4 0.000000 0.000000 0.000000 0.037924 0.000000 0.000000
# 5 0.000000 0.000000 0.000000 0.000000 0.032077 0.000000
# 6 0.000000 0.000000 0.000000 0.000000 0.000000 0.120692
#
#
# Mechanical properties :
#
#
# Convention : Reuss Voigt Hill
#
# Bulk Modulus (GPa) = 63.66350 65.70491 64.68421
# Shear Modulus (GPa) = 20.03212 28.18088 24.10650
#
# Velocity S-wave (km/s) = 3.31078 3.92685 3.63191
# Velocity P-wave (km/s) = 7.03213 7.51752 7.27887
#
# Compressibility (1/GPa) = 0.01570759
#
# Stress axis : x y z
#
# Youngs Moduli (GPa) = 62.71371 106.64434 106.76128
#
# Poissons Ratio (x) = 0.38264 0.50996
# Poissons Ratio (y) = 0.22502 0.12022
# Poissons Ratio (z) = 0.29956 0.12009
#
# Static dielectric constant tensor:
#      x y z
#    x 3.147470 0.000000 0.000000 
#    y 0.000000 3.264220 0.000000 
#    z 0.000000 0.000000 3.594640 
# 
# 
# High freq. dielectric constant tensor:
#      x y z
#    x 1.665530 0.000000 0.000000 
#    y 0.000000 1.701420 0.000000 
#    z 0.000000 0.000000 1.738340 
# 
# From -- ./inp_files/1610.got.cif
#   From: 2010.03.12/outbox.cif.g09.slc.cpg/sg62_1_cif.got.tgz:1610.got - 2010.04.10 19:12:36.
