data_PCOD8253833
_publ_section_title
;
Structure prediction by ZEFSAII (Michael W. Deem and Ramdas Pophale) SiO2 
 PCOD8253833
Probable space group: P N M A
;
_chemical_formula_sum "Si O2"
_cell_formula_units_Z 48
_cell_length_a 30.168512
_cell_length_b 8.530362
_cell_length_c 9.334245
_cell_angle_alpha 90.000000
_cell_angle_beta 90.000000
_cell_angle_gamma 90.000000
_cell_volume 2402.152347
_symmetry_space_group_name_H-M "P N M A"
_symmetry_group_IT_number 62
_symmetry_cell_setting 'orthorhombic'
loop_
_space_group_symop_operation_xyz
x,y,z
1/2-x,-y,1/2+z
1/2+x,1/2-y,1/2-z
-x,1/2+y,-z
-x,-y,-z
1/2+x,y,1/2-z
1/2-x,1/2+y,1/2+z
x,1/2-y,z
loop_
_atom_site_type_symbol
_atom_site_label
_atom_site_fract_x
_atom_site_fract_y
_atom_site_fract_z
Si Si1 0.616602 0.568204 0.896199
Si Si2 0.961240 0.433763 0.902206
Si Si3 0.885271 0.567122 0.086321
Si Si4 0.708071 0.426487 0.910322
Si Si5 0.458620 0.935048 0.913539
Si Si6 0.715859 0.427205 0.582769
O O1 0.608434 0.750000 0.866255
O O2 0.605031 0.474549 0.751481
O O3 0.667238 0.540822 0.945963
O O4 0.585917 0.510864 0.024927
O O5 0.967824 0.250000 0.876776
O O6 0.963113 0.521900 0.751990
O O7 0.914677 0.464653 0.979862
O O8 0.000000 0.500000 0.000000
O O9 0.895957 0.750000 0.065538
O O10 0.834645 0.527390 0.045796
O O11 0.690940 0.250000 0.935132
O O12 0.750557 0.456596 0.007059
O O13 0.724433 0.449490 0.749661
O O14 0.456460 0.750000 0.930907
O O15 0.500000 0.000000 0.000000
O O16 0.725574 0.250000 0.533090
#
# Coordination Sequence:
#
# PCOD8253833 Si02
#       6
#     8   8   8   8   8   8
#     4  11  22  39  62  88 118 155 198 244 295 350
#     4  12  25  42  63  90 121 156 197 240 290 347
#     4  10  21  40  62  87 120 157 197 243 295 349
#     4  10  21  37  58  85 117 154 196 242 293 349
#     4  12  25  43  64  89 120 155 195 241 294 349
#     4   9  20  37  57  83 116 153 194 240 291 348
#
# _framework density 19.98208
#
# number of rings (size 3 to 8) (size 9 to 14) (size 15 to 20)
#    0.000    1.333    0.000    7.500    0.000    5.333 
#    0.000    3.333    0.000    0.000    0.000    0.000 
#    0.000    0.000    0.000    0.000    0.000    0.000 
#
# Total GULP energy -595462.352584 kJ/mol
# GULP energy per Si atom -12405.465679 kJ/mol
# Density = 1.993660 g / cm^3
# Si number density = 19.982080 Si / 1000 Ang^3
#
#
#
# Elastic Constant Matrix: (Units=GPa)
#
#
# Indices 1 2 3 4 5 6 
#
# 1 104.3824 34.8280 61.2025 0.0000 0.0000 0.0000
# 2 34.8280 91.6219 12.9301 0.0000 0.0000 0.0000
# 3 61.2025 12.9301 88.6507 0.0000 0.0000 0.0000
# 4 0.0000 0.0000 0.0000 35.6708 0.0000 0.0000
# 5 0.0000 0.0000 0.0000 0.0000 36.6530 0.0000
# 6 0.0000 0.0000 0.0000 0.0000 0.0000 38.7931
#
#
#
# Elastic Compliance Matrix: (Units=1/GPa)
#
#
# Indices 1 2 3 4 5 6 
#
# 1 0.018297 -0.005281 -0.011862 0.000000 0.000000 0.000000
# 2 -0.005281 0.012668 0.001798 0.000000 0.000000 0.000000
# 3 -0.011862 0.001798 0.019207 0.000000 0.000000 0.000000
# 4 0.000000 0.000000 0.000000 0.028034 0.000000 0.000000
# 5 0.000000 0.000000 0.000000 0.000000 0.027283 0.000000
# 6 0.000000 0.000000 0.000000 0.000000 0.000000 0.025778
#
#
# Mechanical properties :
#
#
# Convention : Reuss Voigt Hill
#
# Bulk Modulus (GPa) = 51.32636 55.84179 53.58408
# Shear Modulus (GPa) = 29.68232 33.93636 31.80934
#
# Velocity S-wave (km/s) = 3.85833 4.12556 3.99418
# Velocity P-wave (km/s) = 6.75210 7.12041 6.93870
#
# Compressibility (1/GPa) = 0.01948317
#
# Stress axis : x y z
#
# Youngs Moduli (GPa) = 54.65344 78.93794 52.06452
#
# Poissons Ratio (x) = 0.41689 0.61757
# Poissons Ratio (y) = 0.28864 -0.09363
# Poissons Ratio (z) = 0.64828 -0.14196
#
# Static dielectric constant tensor:
#      x y z
#    x 3.727960 0.000000 0.000000 
#    y 0.000000 3.789910 0.000000 
#    z 0.000000 0.000000 3.447890 
# 
# 
# High freq. dielectric constant tensor:
#      x y z
#    x 1.791290 0.000000 0.000000 
#    y 0.000000 1.793390 0.000000 
#    z 0.000000 0.000000 1.779180 
# 
# From -- ./inp_files/10149.got.cif
#   From: 2010.03.12/outbox.cif.g09.slc.cpg/sg62_6_cif.got.tgz:10149.got - 2010.04.10 19:12:36.
