data_PCOD8253219
_publ_section_title
;
Structure prediction by ZEFSAII (Michael W. Deem and Ramdas Pophale) SiO2 
 PCOD8253219
Probable space group: P N M A
;
_chemical_formula_sum "Si O2"
_cell_formula_units_Z 48
_cell_length_a 11.532956
_cell_length_b 9.124389
_cell_length_c 23.761471
_cell_angle_alpha 90.000000
_cell_angle_beta 90.000000
_cell_angle_gamma 90.000000
_cell_volume 2500.447557
_symmetry_space_group_name_H-M "P N M A"
_symmetry_group_IT_number 62
_symmetry_cell_setting 'orthorhombic'
loop_
_space_group_symop_operation_xyz
x,y,z
1/2-x,-y,1/2+z
1/2+x,1/2-y,1/2-z
-x,1/2+y,-z
-x,-y,-z
1/2+x,y,1/2-z
1/2-x,1/2+y,1/2+z
x,1/2-y,z
loop_
_atom_site_type_symbol
_atom_site_label
_atom_site_fract_x
_atom_site_fract_y
_atom_site_fract_z
Si Si1 0.042370 0.920210 0.395441
Si Si2 0.861811 0.921705 0.827669
Si Si3 0.217690 0.422676 0.579611
Si Si4 0.162428 0.420319 0.299924
Si Si5 0.616014 0.919344 0.628865
Si Si6 0.762855 0.922647 0.033044
O O1 0.051379 0.750000 0.381818
O O2 0.138111 0.967112 0.441359
O O3 0.918008 0.963472 0.420164
O O4 0.063613 0.002003 0.336726
O O5 0.833190 0.750000 0.834544
O O6 0.845388 0.975625 0.763865
O O7 0.991837 0.958379 0.846183
O O8 0.773124 0.016514 0.863669
O O9 0.238292 0.250000 0.575226
O O10 0.278076 0.501153 0.527007
O O11 0.134096 0.250000 0.303011
O O12 0.289900 0.458041 0.323341
O O13 0.625681 0.750000 0.610945
O O14 0.636296 0.018071 0.573791
O O15 0.777722 0.750000 0.025362
#
# Coordination Sequence:
#
# PCOD8253219 Si02
#       6
#     8   8   8   8   8   8
#     4   9  20  37  57  84 114 145 183 228 281 331
#     4  10  22  37  56  83 113 148 188 229 274 328
#     4  11  23  37  55  83 116 148 184 229 278 329
#     4   9  19  35  59  84 109 144 185 229 275 325
#     4   9  19  37  57  81 112 145 183 228 278 331
#     4  10  20  37  60  83 109 145 187 231 277 331
#
# _framework density 19.196565
#
# number of rings (size 3 to 8) (size 9 to 14) (size 15 to 20)
#    0.000    2.333    0.000    1.500    2.333    4.000 
#    0.000    0.000    0.000    0.000    0.000    0.000 
#    0.000    0.000    0.000    0.000    0.000    0.000 
#
# Total GULP energy -595426.516740 kJ/mol
# GULP energy per Si atom -12404.719099 kJ/mol
# Density = 1.915287 g / cm^3
# Si number density = 19.196565 Si / 1000 Ang^3
#
#
#
# Elastic Constant Matrix: (Units=GPa)
#
#
# Indices 1 2 3 4 5 6 
#
# 1 34.3866 18.3823 3.8099 0.0000 0.0000 0.0000
# 2 18.3823 60.4530 42.2498 0.0000 0.0000 0.0000
# 3 3.8099 42.2498 119.9654 0.0000 0.0000 0.0000
# 4 0.0000 0.0000 0.0000 36.4121 0.0000 0.0000
# 5 0.0000 0.0000 0.0000 0.0000 22.5170 0.0000
# 6 0.0000 0.0000 0.0000 0.0000 0.0000 28.5567
#
#
#
# Elastic Compliance Matrix: (Units=1/GPa)
#
#
# Indices 1 2 3 4 5 6 
#
# 1 0.035850 -0.013405 0.003582 0.000000 0.000000 0.000000
# 2 -0.013405 0.026955 -0.009067 0.000000 0.000000 0.000000
# 3 0.003582 -0.009067 0.011415 0.000000 0.000000 0.000000
# 4 0.000000 0.000000 0.000000 0.027463 0.000000 0.000000
# 5 0.000000 0.000000 0.000000 0.000000 0.044411 0.000000
# 6 0.000000 0.000000 0.000000 0.000000 0.000000 0.035018
#
#
# Mechanical properties :
#
#
# Convention : Reuss Voigt Hill
#
# Bulk Modulus (GPa) = 27.44178 38.18768 32.81473
# Shear Modulus (GPa) = 21.64134 27.52136 24.58135
#
# Velocity S-wave (km/s) = 3.36125 3.79048 3.58230
# Velocity P-wave (km/s) = 5.42127 6.25245 5.85164
#
# Compressibility (1/GPa) = 0.03644078
#
# Stress axis : x y z
#
# Youngs Moduli (GPa) = 27.89389 37.09896 87.60147
#
# Poissons Ratio (x) = 0.49731 -0.31383
# Poissons Ratio (y) = 0.37391 0.79431
# Poissons Ratio (z) = -0.09993 0.33639
#
# Static dielectric constant tensor:
#      x y z
#    x 3.527040 0.000000 0.000000 
#    y 0.000000 3.428980 0.000000 
#    z 0.000000 0.000000 3.560490 
# 
# 
# High freq. dielectric constant tensor:
#      x y z
#    x 1.745570 0.000000 0.000000 
#    y 0.000000 1.743150 0.000000 
#    z 0.000000 0.000000 1.754090 
# 
# From -- ./inp_files/29263.got.cif
#   From: 2010.03.12/outbox.cif.g09.slc.cpg/sg62_15_cif.got.tgz:29263.got - 2010.04.10 19:12:36.
