data_PCOD8253439
_publ_section_title
;
Structure prediction by ZEFSAII (Michael W. Deem and Ramdas Pophale) SiO2 
 PCOD8253439
Probable space group: P N M A
;
_chemical_formula_sum "Si O2"
_cell_formula_units_Z 64
_cell_length_a 14.382286
_cell_length_b 16.791981
_cell_length_c 11.836459
_cell_angle_alpha 90.000000
_cell_angle_beta 90.000000
_cell_angle_gamma 90.000000
_cell_volume 2858.588571
_symmetry_space_group_name_H-M "P N M A"
_symmetry_group_IT_number 62
_symmetry_cell_setting 'orthorhombic'
loop_
_space_group_symop_operation_xyz
x,y,z
1/2-x,-y,1/2+z
1/2+x,1/2-y,1/2-z
-x,1/2+y,-z
-x,-y,-z
1/2+x,y,1/2-z
1/2-x,1/2+y,1/2+z
x,1/2-y,z
loop_
_atom_site_type_symbol
_atom_site_label
_atom_site_fract_x
_atom_site_fract_y
_atom_site_fract_z
Si Si1 0.682740 0.097939 0.369532
Si Si2 0.945553 0.841274 0.055924
Si Si3 0.043847 0.901695 0.273332
Si Si4 0.278109 0.085033 0.647804
Si Si5 0.363305 0.338964 0.440530
Si Si6 0.869843 0.159309 0.307515
Si Si7 0.398638 0.657990 0.069609
Si Si8 0.439836 0.583842 0.839283
O O1 0.635792 0.110238 0.491916
O O2 0.775084 0.151416 0.377883
O O3 0.613117 0.124221 0.267651
O O4 0.718113 0.009480 0.341992
O O5 0.916853 0.750000 0.089006
O O6 0.975993 0.892246 0.165039
O O7 0.028119 0.837950 0.966630
O O8 0.001509 0.848904 0.374714
O O9 0.148361 0.874426 0.236149
O O10 0.050705 0.990627 0.318700
O O11 0.306788 0.103660 0.520655
O O12 0.174852 0.121873 0.662157
O O13 0.321434 0.250000 0.450716
O O14 0.349572 0.375402 0.316758
O O15 0.901403 0.250000 0.299155
O O16 0.956061 0.114038 0.361550
O O17 0.377888 0.750000 0.043581
O O18 0.386710 0.606684 0.954890
#
# Coordination Sequence:
#
# PCOD8253439 Si02
#       8
#     8   8   8   8   8   8   8   8
#     4  11  23  38  63  98 134 174 222 279 336 401
#     4  10  20  38  63  93 129 170 218 273 332 395
#     4  10  24  44  69  94 132 177 226 279 332 402
#     4  10  23  41  64  97 127 176 228 273 329 401
#     4   9  18  34  61  87 120 164 214 271 323 387
#     4  11  22  37  60  95 133 170 216 275 340 397
#     4  12  25  45  69  96 135 178 226 279 337 405
#     4  11  24  43  69  96 134 174 226 280 343 400
#
# _framework density 22.388672
#
# number of rings (size 3 to 8) (size 9 to 14) (size 15 to 20)
#    0.000    1.500    1.250    3.375    1.750    5.500 
#    6.750    0.000    0.000    0.000    0.000    0.000 
#    0.000    0.000    0.000    0.000    0.000    0.000 
#
# Total GULP energy -793392.831710 kJ/mol
# GULP energy per Si atom -12396.762995 kJ/mol
# Density = 2.233771 g / cm^3
# Si number density = 22.388672 Si / 1000 Ang^3
#
#
#
# Elastic Constant Matrix: (Units=GPa)
#
#
# Indices 1 2 3 4 5 6 
#
# 1 103.7812 38.4831 30.9700 0.0000 0.0000 0.0000
# 2 38.4831 90.1358 36.6689 0.0000 0.0000 0.0000
# 3 30.9700 36.6689 89.9881 0.0000 0.0000 0.0000
# 4 0.0000 0.0000 0.0000 32.5605 0.0000 0.0000
# 5 0.0000 0.0000 0.0000 0.0000 33.4932 0.0000
# 6 0.0000 0.0000 0.0000 0.0000 0.0000 4.6605
#
#
#
# Elastic Compliance Matrix: (Units=1/GPa)
#
#
# Indices 1 2 3 4 5 6 
#
# 1 0.011873 -0.004084 -0.002422 0.000000 0.000000 0.000000
# 2 -0.004084 0.014704 -0.004586 0.000000 0.000000 0.000000
# 3 -0.002422 -0.004586 0.013815 0.000000 0.000000 0.000000
# 4 0.000000 0.000000 0.000000 0.030712 0.000000 0.000000
# 5 0.000000 0.000000 0.000000 0.000000 0.029857 0.000000
# 6 0.000000 0.000000 0.000000 0.000000 0.000000 0.214569
#
#
# Mechanical properties :
#
#
# Convention : Reuss Voigt Hill
#
# Bulk Modulus (GPa) = 54.92208 55.12769 55.02489
# Shear Modulus (GPa) = 14.54413 25.99506 20.26959
#
# Velocity S-wave (km/s) = 2.55153 3.41116 3.01217
# Velocity P-wave (km/s) = 5.76757 6.33965 6.06036
#
# Compressibility (1/GPa) = 0.01820761
#
# Stress axis : x y z
#
# Youngs Moduli (GPa) = 84.22690 68.01069 72.38563
#
# Poissons Ratio (x) = 0.27773 0.17532
# Poissons Ratio (y) = 0.34395 0.33197
# Poissons Ratio (z) = 0.20400 0.31190
#
# Static dielectric constant tensor:
#      x y z
#    x 4.229970 0.000000 0.000000 
#    y 0.000000 3.856810 0.000000 
#    z 0.000000 0.000000 3.935730 
# 
# 
# High freq. dielectric constant tensor:
#      x y z
#    x 1.887840 0.000000 0.000000 
#    y 0.000000 1.871680 0.000000 
#    z 0.000000 0.000000 1.874710 
# 
# From -- ./inp_files/13569.got.cif
#   From: 2010.03.12/outbox.cif.g09.slc.cpg/sg62_7_cif.got.tgz:13569.got - 2010.04.10 19:12:36.
