data_PCOD8253582
_publ_section_title
;
Structure prediction by ZEFSAII (Michael W. Deem and Ramdas Pophale) SiO2 
 PCOD8253582
Probable space group: P N M A
;
_chemical_formula_sum "Si O2"
_cell_formula_units_Z 48
_cell_length_a 10.100470
_cell_length_b 26.089086
_cell_length_c 9.082383
_cell_angle_alpha 90.000000
_cell_angle_beta 90.000000
_cell_angle_gamma 90.000000
_cell_volume 2393.317186
_symmetry_space_group_name_H-M "P N M A"
_symmetry_group_IT_number 62
_symmetry_cell_setting 'orthorhombic'
loop_
_space_group_symop_operation_xyz
x,y,z
1/2-x,-y,1/2+z
1/2+x,1/2-y,1/2-z
-x,1/2+y,-z
-x,-y,-z
1/2+x,y,1/2-z
1/2-x,1/2+y,1/2+z
x,1/2-y,z
loop_
_atom_site_type_symbol
_atom_site_label
_atom_site_fract_x
_atom_site_fract_y
_atom_site_fract_z
Si Si1 0.120308 0.964137 0.348631
Si Si2 0.388309 0.911394 0.324278
Si Si3 0.299847 0.855860 0.054085
Si Si4 0.454885 0.250000 0.318355
Si Si5 0.485215 0.573205 0.867261
Si Si6 0.832508 0.750000 0.581798
Si Si7 0.024187 0.636533 0.919765
O O1 0.275072 0.954809 0.317670
O O2 0.025175 0.934065 0.236719
O O3 0.095742 0.946761 0.517768
O O4 0.098486 0.023986 0.316872
O O5 0.337893 0.865055 0.222656
O O6 0.403288 0.888515 0.488733
O O7 0.387342 0.888129 0.943888
O O8 0.325282 0.796842 0.027630
O O9 0.149316 0.870942 0.024607
O O10 0.525790 0.250000 0.161038
O O11 0.293931 0.250000 0.304904
O O12 0.502434 0.302668 0.396764
O O13 0.547647 0.604531 0.730507
#
# Coordination Sequence:
#
# PCOD8253582 Si02
#       7
#     8   8   8   4   8   4   8
#     4  10  24  41  61  93 127 163 212 256 302 381
#     4  11  23  43  61  89 128 165 207 254 315 366
#     4  10  22  41  62  90 125 161 207 256 312 368
#     4  10  22  39  62  98 120 154 213 258 306 378
#     4  10  23  39  64  91 126 163 210 254 312 365
#     4  10  20  41  64  90 124 158 201 260 312 370
#     4  11  23  39  67  91 124 165 206 259 313 371
#
# _framework density 20.055845000000001
#
# number of rings (size 3 to 8) (size 9 to 14) (size 15 to 20)
#    0.000    1.667    3.333    0.000    4.667    4.000 
#    0.000    0.000    0.000    1.000    0.000    0.000 
#    0.000    0.000    0.000    0.000    0.000    0.000 
#
# Total GULP energy -595054.467156 kJ/mol
# GULP energy per Si atom -12396.968066 kJ/mol
# Density = 2.001020 g / cm^3
# Si number density = 20.055845 Si / 1000 Ang^3
#
#
#
# Elastic Constant Matrix: (Units=GPa)
#
#
# Indices 1 2 3 4 5 6 
#
# 1 42.3419 8.9350 11.3273 0.0000 0.0000 0.0000
# 2 8.9350 112.5571 38.8551 0.0000 0.0000 0.0000
# 3 11.3273 38.8551 88.8554 0.0000 0.0000 0.0000
# 4 0.0000 0.0000 0.0000 26.4028 0.0000 0.0000
# 5 0.0000 0.0000 0.0000 0.0000 27.3587 0.0000
# 6 0.0000 0.0000 0.0000 0.0000 0.0000 33.4597
#
#
#
# Elastic Compliance Matrix: (Units=1/GPa)
#
#
# Indices 1 2 3 4 5 6 
#
# 1 0.024551 -0.001023 -0.002682 0.000000 0.000000 0.000000
# 2 -0.001023 0.010507 -0.004464 0.000000 0.000000 0.000000
# 3 -0.002682 -0.004464 0.013548 0.000000 0.000000 0.000000
# 4 0.000000 0.000000 0.000000 0.037875 0.000000 0.000000
# 5 0.000000 0.000000 0.000000 0.000000 0.036551 0.000000
# 6 0.000000 0.000000 0.000000 0.000000 0.000000 0.029887
#
#
# Mechanical properties :
#
#
# Convention : Reuss Voigt Hill
#
# Bulk Modulus (GPa) = 30.99151 40.22103 35.60627
# Shear Modulus (GPa) = 27.77583 29.75337 28.76460
#
# Velocity S-wave (km/s) = 3.72549 3.85584 3.79123
# Velocity P-wave (km/s) = 5.83026 6.31833 6.07920
#
# Compressibility (1/GPa) = 0.03226691
#
# Stress axis : x y z
#
# Youngs Moduli (GPa) = 40.73203 95.17871 73.81045
#
# Poissons Ratio (x) = 0.09736 0.19799
# Poissons Ratio (y) = 0.04167 0.32949
# Poissons Ratio (z) = 0.10926 0.42487
#
# Static dielectric constant tensor:
#      x y z
#    x 3.616380 0.000000 0.000000 
#    y 0.000000 3.806080 0.000000 
#    z 0.000000 0.000000 3.621140 
# 
# 
# High freq. dielectric constant tensor:
#      x y z
#    x 1.781290 0.000000 0.000000 
#    y 0.000000 1.795780 0.000000 
#    z 0.000000 0.000000 1.776030 
# 
# From -- ./inp_files/4578.got.cif
#   From: 2010.03.12/outbox.cif.g09.slc.cpg/sg62_3_cif.got.tgz:4578.got - 2010.04.10 19:12:36.
