data_PCOD8253827
_publ_section_title
;
Structure prediction by ZEFSAII (Michael W. Deem and Ramdas Pophale) SiO2 
 PCOD8253827
Probable space group: P N M A
;
_chemical_formula_sum "Si O2"
_cell_formula_units_Z 56
_cell_length_a 19.512274
_cell_length_b 9.102394
_cell_length_c 16.226935
_cell_angle_alpha 90.000000
_cell_angle_beta 90.000000
_cell_angle_gamma 90.000000
_cell_volume 2882.040056
_symmetry_space_group_name_H-M "P N M A"
_symmetry_group_IT_number 62
_symmetry_cell_setting 'orthorhombic'
loop_
_space_group_symop_operation_xyz
x,y,z
1/2-x,-y,1/2+z
1/2+x,1/2-y,1/2-z
-x,1/2+y,-z
-x,-y,-z
1/2+x,y,1/2-z
1/2-x,1/2+y,1/2+z
x,1/2-y,z
loop_
_atom_site_type_symbol
_atom_site_label
_atom_site_fract_x
_atom_site_fract_y
_atom_site_fract_z
Si Si1 0.814418 0.919262 0.508019
Si Si2 0.350414 0.917746 0.339389
Si Si3 0.192165 0.580699 0.325237
Si Si4 0.321057 0.919749 0.521754
Si Si5 0.036268 0.920066 0.739751
Si Si6 0.957731 0.920116 0.429846
Si Si7 0.608815 0.082154 0.310915
O O1 0.799762 0.750000 0.527084
O O2 0.876871 0.939701 0.445017
O O3 0.833484 0.995835 0.594040
O O4 0.747988 0.988085 0.464696
O O5 0.373752 0.750000 0.323946
O O6 0.272690 0.941991 0.310496
O O7 0.357380 0.960887 0.435612
O O8 0.396606 0.025656 0.286488
O O9 0.173933 0.750000 0.338731
O O10 0.153261 0.523087 0.245742
O O11 0.298487 0.750000 0.519144
O O12 0.374256 0.954764 0.594268
O O13 0.045815 0.750000 0.716981
O O14 0.971569 0.946446 0.799167
O O15 0.022829 0.009505 0.656918
O O16 0.978775 0.750000 0.428899
O O17 0.000000 0.000000 0.500000
O O18 0.627989 0.250000 0.289377
#
# Coordination Sequence:
#
# PCOD8253827 Si02
#       7
#     8   8   8   8   8   8   8
#     4  10  21  37  58  85 115 147 190 243 291 343
#     4   9  20  39  59  83 117 152 192 242 294 347
#     4  10  21  37  60  87 117 153 193 239 293 351
#     4   9  20  39  61  85 114 151 192 241 295 345
#     4  11  24  39  58  86 119 157 198 240 292 351
#     4  11  24  40  59  85 120 156 194 243 293 351
#     4  10  22  39  58  85 119 152 194 244 292 345
#
# _framework density 19.430681
#
# number of rings (size 3 to 8) (size 9 to 14) (size 15 to 20)
#    0.000    2.000    0.000    3.429    2.000   10.857 
#    0.000    0.000    0.000    0.000    0.000    0.000 
#    0.000    0.000    0.000    0.000    0.000    0.000 
#
# Total GULP energy -694679.369345 kJ/mol
# GULP energy per Si atom -12404.988738 kJ/mol
# Density = 1.938646 g / cm^3
# Si number density = 19.430681 Si / 1000 Ang^3
#
#
#
# Elastic Constant Matrix: (Units=GPa)
#
#
# Indices 1 2 3 4 5 6 
#
# 1 62.9261 43.3425 25.9079 0.0000 0.0000 0.0000
# 2 43.3425 112.5740 38.3279 0.0000 0.0000 0.0000
# 3 25.9079 38.3279 66.1839 0.0000 0.0000 0.0000
# 4 0.0000 0.0000 0.0000 34.4056 0.0000 0.0000
# 5 0.0000 0.0000 0.0000 0.0000 35.4536 0.0000
# 6 0.0000 0.0000 0.0000 0.0000 0.0000 33.0903
#
#
#
# Elastic Compliance Matrix: (Units=1/GPa)
#
#
# Indices 1 2 3 4 5 6 
#
# 1 0.022780 -0.007143 -0.004781 0.000000 0.000000 0.000000
# 2 -0.007143 0.013304 -0.004909 0.000000 0.000000 0.000000
# 3 -0.004781 -0.004909 0.019823 0.000000 0.000000 0.000000
# 4 0.000000 0.000000 0.000000 0.029065 0.000000 0.000000
# 5 0.000000 0.000000 0.000000 0.000000 0.028206 0.000000
# 6 0.000000 0.000000 0.000000 0.000000 0.000000 0.030220
#
#
# Mechanical properties :
#
#
# Convention : Reuss Voigt Hill
#
# Bulk Modulus (GPa) = 44.95737 50.76008 47.85873
# Shear Modulus (GPa) = 27.10353 29.53030 28.31691
#
# Velocity S-wave (km/s) = 3.73887 3.90266 3.82164
# Velocity P-wave (km/s) = 6.46733 6.81822 6.64509
#
# Compressibility (1/GPa) = 0.02224329
#
# Stress axis : x y z
#
# Youngs Moduli (GPa) = 43.89840 75.16316 50.44521
#
# Poissons Ratio (x) = 0.53688 0.24116
# Poissons Ratio (y) = 0.31356 0.24762
# Poissons Ratio (z) = 0.20987 0.36895
#
# Static dielectric constant tensor:
#      x y z
#    x 3.500120 0.000000 0.000000 
#    y 0.000000 3.659340 0.000000 
#    z 0.000000 0.000000 3.694690 
# 
# 
# High freq. dielectric constant tensor:
#      x y z
#    x 1.756660 0.000000 0.000000 
#    y 0.000000 1.765130 0.000000 
#    z 0.000000 0.000000 1.760600 
# 
# From -- ./inp_files/20410.got.cif
#   From: 2010.03.12/outbox.cif.g09.slc.cpg/sg62_11_cif.got.tgz:20410.got - 2010.04.10 19:12:36.
