data_PCOD8253481
_publ_section_title
;
Structure prediction by ZEFSAII (Michael W. Deem and Ramdas Pophale) SiO2 
 PCOD8253481
Probable space group: P N M A
;
_chemical_formula_sum "Si O2"
_cell_formula_units_Z 64
_cell_length_a 20.030154
_cell_length_b 14.813481
_cell_length_c 9.956113
_cell_angle_alpha 90.000000
_cell_angle_beta 90.000000
_cell_angle_gamma 90.000000
_cell_volume 2954.141069
_symmetry_space_group_name_H-M "P N M A"
_symmetry_group_IT_number 62
_symmetry_cell_setting 'orthorhombic'
loop_
_space_group_symop_operation_xyz
x,y,z
1/2-x,-y,1/2+z
1/2+x,1/2-y,1/2-z
-x,1/2+y,-z
-x,-y,-z
1/2+x,y,1/2-z
1/2-x,1/2+y,1/2+z
x,1/2-y,z
loop_
_atom_site_type_symbol
_atom_site_label
_atom_site_fract_x
_atom_site_fract_y
_atom_site_fract_z
Si Si1 0.017475 0.429517 0.113800
Si Si2 0.137642 0.857358 0.250282
Si Si3 0.835175 0.857359 0.928068
Si Si4 0.789654 0.856901 0.215080
Si Si5 0.260485 0.149848 0.301014
Si Si6 0.615786 0.852720 0.549474
Si Si7 0.350269 0.851207 0.012850
Si Si8 0.945187 0.996456 0.612173
O O1 0.089579 0.385343 0.100231
O O2 0.012569 0.477423 0.255573
O O3 0.958683 0.355293 0.108518
O O4 0.000000 0.500000 0.000000
O O5 0.125480 0.750000 0.268379
O O6 0.213581 0.887653 0.271328
O O7 0.094668 0.909654 0.363876
O O8 0.117333 0.894389 0.101678
O O9 0.831507 0.750000 0.920587
O O10 0.782765 0.898933 0.817696
O O11 0.816777 0.895778 0.074540
O O12 0.793255 0.750000 0.216882
O O13 0.835925 0.891637 0.338155
O O14 0.276617 0.250000 0.246239
O O15 0.330694 0.101458 0.345220
O O16 0.220163 0.154610 0.439092
O O17 0.639673 0.750000 0.532547
O O18 0.381907 0.750000 0.020416
O O19 0.396758 0.914826 0.925276
O O20 0.000000 0.000000 0.500000
#
# Coordination Sequence:
#
# PCOD8253481 Si02
#       8
#     8   8   8   8   8   8   8   8
#     4  12  25  42  58  88 135 170 215 268 328 393
#     4  10  21  44  68  94 131 173 221 281 337 390
#     4  10  21  39  65  97 131 168 214 268 326 392
#     4   9  19  38  69 100 127 164 217 272 329 395
#     4   9  17  35  64  97 124 158 213 270 319 384
#     4  10  20  38  71  98 125 173 222 271 338 403
#     4  10  20  40  69  96 128 169 213 267 330 392
#     4  12  28  45  61  96 136 175 223 276 321 399
#
# _framework density 21.664504000000001
#
# number of rings (size 3 to 8) (size 9 to 14) (size 15 to 20)
#    0.000    1.750    3.750    0.375    1.750    2.000 
#    4.500    1.250    0.000    0.000    0.000    0.000 
#    0.000    0.000    0.000    0.000    0.000    0.000 
#
# Total GULP energy -793211.465817 kJ/mol
# GULP energy per Si atom -12393.929153 kJ/mol
# Density = 2.161519 g / cm^3
# Si number density = 21.664504 Si / 1000 Ang^3
#
#
#
# Elastic Constant Matrix: (Units=GPa)
#
#
# Indices 1 2 3 4 5 6 
#
# 1 146.8721 35.9205 70.7003 0.0000 0.0000 0.0000
# 2 35.9205 54.1618 33.7691 0.0000 0.0000 0.0000
# 3 70.7003 33.7691 168.0286 0.0000 0.0000 0.0000
# 4 0.0000 0.0000 0.0000 24.6676 0.0000 0.0000
# 5 0.0000 0.0000 0.0000 0.0000 50.3429 0.0000
# 6 0.0000 0.0000 0.0000 0.0000 0.0000 14.8556
#
#
#
# Elastic Compliance Matrix: (Units=1/GPa)
#
#
# Indices 1 2 3 4 5 6 
#
# 1 0.009331 -0.004276 -0.003067 0.000000 0.000000 0.000000
# 2 -0.004276 0.023068 -0.002837 0.000000 0.000000 0.000000
# 3 -0.003067 -0.002837 0.007812 0.000000 0.000000 0.000000
# 4 0.000000 0.000000 0.000000 0.040539 0.000000 0.000000
# 5 0.000000 0.000000 0.000000 0.000000 0.019864 0.000000
# 6 0.000000 0.000000 0.000000 0.000000 0.000000 0.067315
#
#
# Mechanical properties :
#
#
# Convention : Reuss Voigt Hill
#
# Bulk Modulus (GPa) = 50.37466 72.20470 61.28968
# Shear Modulus (GPa) = 25.65365 33.21805 29.43585
#
# Velocity S-wave (km/s) = 3.44486 3.91998 3.69007
# Velocity P-wave (km/s) = 6.25503 7.34093 6.81963
#
# Compressibility (1/GPa) = 0.01985125
#
# Stress axis : x y z
#
# Youngs Moduli (GPa) = 107.17370 43.35038 128.01156
#
# Poissons Ratio (x) = 0.18537 0.39256
# Poissons Ratio (y) = 0.45829 0.36314
# Poissons Ratio (z) = 0.32866 0.12297
#
# Static dielectric constant tensor:
#      x y z
#    x 5.692330 0.000000 0.000000 
#    y 0.000000 3.749360 0.000000 
#    z 0.000000 0.000000 4.274940 
# 
# 
# High freq. dielectric constant tensor:
#      x y z
#    x 1.852520 0.000000 0.000000 
#    y 0.000000 1.832010 0.000000 
#    z 0.000000 0.000000 1.861240 
# 
# From -- ./inp_files/8881.got.cif
#   From: 2010.03.12/outbox.cif.g09.slc.cpg/sg62_5_cif.got.tgz:8881.got - 2010.04.10 19:12:36.
