data_PCOD8253170
_publ_section_title
;
Structure prediction by ZEFSAII (Michael W. Deem and Ramdas Pophale) SiO2 
 PCOD8253170
Probable space group: P N M A
;
_chemical_formula_sum "Si O2"
_cell_formula_units_Z 48
_cell_length_a 17.074131
_cell_length_b 15.893244
_cell_length_c 9.040740
_cell_angle_alpha 90.000000
_cell_angle_beta 90.000000
_cell_angle_gamma 90.000000
_cell_volume 2453.325313
_symmetry_space_group_name_H-M "P N M A"
_symmetry_group_IT_number 62
_symmetry_cell_setting 'orthorhombic'
loop_
_space_group_symop_operation_xyz
x,y,z
1/2-x,-y,1/2+z
1/2+x,1/2-y,1/2-z
-x,1/2+y,-z
-x,-y,-z
1/2+x,y,1/2-z
1/2-x,1/2+y,1/2+z
x,1/2-y,z
loop_
_atom_site_type_symbol
_atom_site_label
_atom_site_fract_x
_atom_site_fract_y
_atom_site_fract_z
Si Si1 0.594067 0.459650 0.270104
Si Si2 0.018406 0.846501 0.579555
Si Si3 0.257507 0.024999 0.895656
Si Si4 0.475044 0.593599 0.230508
Si Si5 0.640375 0.155143 0.544873
Si Si6 0.650141 0.960349 0.823582
O O1 0.551955 0.398987 0.152000
O O2 0.664158 0.511342 0.196058
O O3 0.534529 0.533129 0.320650
O O4 0.622250 0.404782 0.406936
O O5 0.006677 0.750000 0.623713
O O6 0.104356 0.874151 0.640162
O O7 0.017663 0.856485 0.401792
O O8 0.217485 0.117630 0.872549
O O9 0.190048 0.958429 0.840501
O O10 0.277229 0.017969 0.068385
O O11 0.434520 0.656952 0.345909
O O12 0.410294 0.535496 0.153904
O O13 0.657508 0.250000 0.492139
#
# Coordination Sequence:
#
# PCOD8253170 Si02
#       6
#     8   8   8   8   8   8
#     4  11  20  39  60  85 114 159 196 231 286 355
#     4  11  21  36  60  88 120 150 194 249 286 328
#     4  11  20  37  61  83 114 156 195 231 280 355
#     4  10  20  38  62  82 111 155 200 233 281 351
#     4  11  24  38  57  89 121 147 189 247 298 335
#     4  10  20  37  58  83 112 152 204 227 281 349
#
# _framework density 19.565283000000001
#
# number of rings (size 3 to 8) (size 9 to 14) (size 15 to 20)
#    0.000    1.333    5.000    2.500    0.000    0.667 
#    0.000    0.000    0.000    0.000    0.000    0.000 
#    0.000    0.000    0.000    0.000    0.000    0.000 
#
# Total GULP energy -594785.510776 kJ/mol
# GULP energy per Si atom -12391.364808 kJ/mol
# Density = 1.952075 g / cm^3
# Si number density = 19.565283 Si / 1000 Ang^3
#
#
#
# Elastic Constant Matrix: (Units=GPa)
#
#
# Indices 1 2 3 4 5 6 
#
# 1 113.1057 56.9472 44.4929 0.0000 0.0000 0.0000
# 2 56.9472 100.5203 39.7392 0.0000 0.0000 0.0000
# 3 44.4929 39.7392 69.9453 0.0000 0.0000 0.0000
# 4 0.0000 0.0000 0.0000 23.4587 0.0000 0.0000
# 5 0.0000 0.0000 0.0000 0.0000 41.5996 0.0000
# 6 0.0000 0.0000 0.0000 0.0000 0.0000 19.8817
#
#
#
# Elastic Compliance Matrix: (Units=1/GPa)
#
#
# Indices 1 2 3 4 5 6 
#
# 1 0.013901 -0.005648 -0.005634 0.000000 0.000000 0.000000
# 2 -0.005648 0.015125 -0.005000 0.000000 0.000000 0.000000
# 3 -0.005634 -0.005000 0.020721 0.000000 0.000000 0.000000
# 4 0.000000 0.000000 0.000000 0.042628 0.000000 0.000000
# 5 0.000000 0.000000 0.000000 0.000000 0.024039 0.000000
# 6 0.000000 0.000000 0.000000 0.000000 0.000000 0.050297
#
#
# Mechanical properties :
#
#
# Convention : Reuss Voigt Hill
#
# Bulk Modulus (GPa) = 58.19644 62.88110 60.53877
# Shear Modulus (GPa) = 24.38979 26.48081 25.43530
#
# Velocity S-wave (km/s) = 3.53453 3.68293 3.60949
# Velocity P-wave (km/s) = 6.81664 7.09184 6.95560
#
# Compressibility (1/GPa) = 0.01718318
#
# Stress axis : x y z
#
# Youngs Moduli (GPa) = 71.93606 66.11637 48.25924
#
# Poissons Ratio (x) = 0.37344 0.27188
# Poissons Ratio (y) = 0.40631 0.24131
# Poissons Ratio (z) = 0.40527 0.33060
#
# Static dielectric constant tensor:
#      x y z
#    x 3.896730 0.000000 0.000000 
#    y 0.000000 3.355530 0.000000 
#    z 0.000000 0.000000 3.617750 
# 
# 
# High freq. dielectric constant tensor:
#      x y z
#    x 1.777500 0.000000 0.000000 
#    y 0.000000 1.734510 0.000000 
#    z 0.000000 0.000000 1.759500 
# 
# From -- ./inp_files/7654.got.cif
#   From: 2010.03.12/outbox.cif.g09.slc.cpg/sg62_4_cif.got.tgz:7654.got - 2010.04.10 19:12:36.
