data_PCOD8253872
_publ_section_title
;
Structure prediction by ZEFSAII (Michael W. Deem and Ramdas Pophale) SiO2 
 PCOD8253872
Probable space group: P N M A
;
_chemical_formula_sum "Si O2"
_cell_formula_units_Z 48
_cell_length_a 8.939960
_cell_length_b 8.589347
_cell_length_c 30.862871
_cell_angle_alpha 90.000000
_cell_angle_beta 90.000000
_cell_angle_gamma 90.000000
_cell_volume 2369.911058
_symmetry_space_group_name_H-M "P N M A"
_symmetry_group_IT_number 62
_symmetry_cell_setting 'orthorhombic'
loop_
_space_group_symop_operation_xyz
x,y,z
1/2-x,-y,1/2+z
1/2+x,1/2-y,1/2-z
-x,1/2+y,-z
-x,-y,-z
1/2+x,y,1/2-z
1/2-x,1/2+y,1/2+z
x,1/2-y,z
loop_
_atom_site_type_symbol
_atom_site_label
_atom_site_fract_x
_atom_site_fract_y
_atom_site_fract_z
Si Si1 0.077183 0.568803 0.703586
Si Si2 0.911264 0.432778 0.459718
Si Si3 0.425567 0.432549 0.878483
Si Si4 0.074144 0.069899 0.207354
Si Si5 0.412953 0.932906 0.374270
Si Si6 0.082051 0.934448 0.041572
O O1 0.046620 0.750000 0.693389
O O2 0.251312 0.533036 0.708666
O O3 0.014089 0.462350 0.665592
O O4 0.995810 0.515627 0.747371
O O5 0.889264 0.250000 0.465713
O O6 0.751823 0.513125 0.457150
O O7 0.000000 0.500000 0.500000
O O8 0.000904 0.467408 0.416232
O O9 0.432724 0.250000 0.890057
O O10 0.256593 0.495245 0.873225
O O11 0.040564 0.250000 0.199003
O O12 0.997869 0.975544 0.169241
O O13 0.409549 0.750000 0.378474
O O14 0.499389 0.002601 0.415835
O O15 0.074785 0.750000 0.040264
O O16 0.000000 0.000000 0.000000
#
# Coordination Sequence:
#
# PCOD8253872 Si02
#       6
#     8   8   8   8   8   8
#     4  10  21  38  59  87 118 154 198 246 298 355
#     4  12  25  42  64  91 122 158 200 249 302 361
#     4  11  23  40  61  88 120 157 199 245 296 357
#     4  10  21  37  60  86 116 153 198 246 296 355
#     4  10  23  40  59  85 119 155 196 243 296 355
#     4  11  23  41  64  91 123 161 203 251 302 359
#
# _framework density 20.253924000000001
#
# number of rings (size 3 to 8) (size 9 to 14) (size 15 to 20)
#    0.000    1.333    0.000    5.500    0.000    9.333 
#    0.000    0.000    0.000    0.000    0.000    0.000 
#    0.000    0.000    0.000    0.000    0.000    0.000 
#
# Total GULP energy -595488.130101 kJ/mol
# GULP energy per Si atom -12406.002710 kJ/mol
# Density = 2.020783 g / cm^3
# Si number density = 20.253924 Si / 1000 Ang^3
#
#
#
# Elastic Constant Matrix: (Units=GPa)
#
#
# Indices 1 2 3 4 5 6 
#
# 1 143.8679 20.0959 66.0376 0.0000 0.0000 0.0000
# 2 20.0959 51.1153 21.1542 0.0000 0.0000 0.0000
# 3 66.0376 21.1542 150.9038 0.0000 0.0000 0.0000
# 4 0.0000 0.0000 0.0000 36.9604 0.0000 0.0000
# 5 0.0000 0.0000 0.0000 0.0000 47.9657 0.0000
# 6 0.0000 0.0000 0.0000 0.0000 0.0000 33.2191
#
#
#
# Elastic Compliance Matrix: (Units=1/GPa)
#
#
# Indices 1 2 3 4 5 6 
#
# 1 0.008887 -0.002000 -0.003608 0.000000 0.000000 0.000000
# 2 -0.002000 0.021219 -0.002099 0.000000 0.000000 0.000000
# 3 -0.003608 -0.002099 0.008500 0.000000 0.000000 0.000000
# 4 0.000000 0.000000 0.000000 0.027056 0.000000 0.000000
# 5 0.000000 0.000000 0.000000 0.000000 0.020848 0.000000
# 6 0.000000 0.000000 0.000000 0.000000 0.000000 0.030103
#
#
# Mechanical properties :
#
#
# Convention : Reuss Voigt Hill
#
# Bulk Modulus (GPa) = 43.12291 62.27360 52.69825
# Shear Modulus (GPa) = 35.77597 39.53567 37.65582
#
# Velocity S-wave (km/s) = 4.20738 4.42294 4.31651
# Velocity P-wave (km/s) = 6.70374 7.54297 7.13570
#
# Compressibility (1/GPa) = 0.02318953
#
# Stress axis : x y z
#
# Youngs Moduli (GPa) = 112.52918 47.12809 117.64535
#
# Poissons Ratio (x) = 0.09427 0.42452
# Poissons Ratio (y) = 0.22510 0.24695
# Poissons Ratio (z) = 0.40606 0.09893
#
# Static dielectric constant tensor:
#      x y z
#    x 2.610440 0.000000 0.000000 
#    y 0.000000 3.633040 0.000000 
#    z 0.000000 0.000000 3.874530 
# 
# 
# High freq. dielectric constant tensor:
#      x y z
#    x 1.813920 0.000000 0.000000 
#    y 0.000000 1.786590 0.000000 
#    z 0.000000 0.000000 1.809910 
# 
# From -- ./inp_files/31903.got.cif
#   From: 2010.03.12/outbox.cif.g09.slc.cpg/sg62_16_cif.got.tgz:31903.got - 2010.04.10 19:12:36.
