data_PCOD8253365
_publ_section_title
;
Structure prediction by ZEFSAII (Michael W. Deem and Ramdas Pophale) SiO2 
 PCOD8253365
Probable space group: P N M A
;
_chemical_formula_sum "Si O2"
_cell_formula_units_Z 40
_cell_length_a 15.359838
_cell_length_b 12.118308
_cell_length_c 10.984009
_cell_angle_alpha 90.000000
_cell_angle_beta 90.000000
_cell_angle_gamma 90.000000
_cell_volume 2044.511236
_symmetry_space_group_name_H-M "P N M A"
_symmetry_group_IT_number 62
_symmetry_cell_setting 'orthorhombic'
loop_
_space_group_symop_operation_xyz
x,y,z
1/2-x,-y,1/2+z
1/2+x,1/2-y,1/2-z
-x,1/2+y,-z
-x,-y,-z
1/2+x,y,1/2-z
1/2-x,1/2+y,1/2+z
x,1/2-y,z
loop_
_atom_site_type_symbol
_atom_site_label
_atom_site_fract_x
_atom_site_fract_y
_atom_site_fract_z
Si Si1 0.627465 0.026450 0.056382
Si Si2 0.222078 0.624950 0.817241
Si Si3 0.582272 0.037015 0.578408
Si Si4 0.020255 0.380339 0.664476
Si Si5 0.738246 0.124254 0.444660
O O1 0.683399 0.123045 0.118272
O O2 0.557721 0.967749 0.144446
O O3 0.590918 0.082210 0.934626
O O4 0.696601 0.929453 0.039085
O O5 0.190800 0.750000 0.807086
O O6 0.142599 0.566201 0.885843
O O7 0.241231 0.569368 0.686200
O O8 0.554721 0.104543 0.698516
O O9 0.638685 0.113605 0.488497
O O10 0.500000 0.000000 0.500000
O O11 0.995970 0.250000 0.645642
O O12 0.763696 0.250000 0.435003
#
# Coordination Sequence:
#
# PCOD8253365 Si02
#       5
#     8   8   8   8   8
#     4  10  21  38  59  87 118 153 196 248 288 358
#     4  10  21  39  61  85 115 156 199 243 299 353
#     4  11  23  39  59  88 124 154 197 253 295 358
#     4  11  22  38  60  88 121 156 196 246 305 356
#     4  10  20  38  61  83 114 157 198 240 296 352
#
# _framework density 19.564578999999998
#
# number of rings (size 3 to 8) (size 9 to 14) (size 15 to 20)
#    0.000    1.600    2.000    3.000    0.000    1.600 
#    0.000    1.000    0.000    0.000    0.000    0.000 
#    0.000    0.000    0.000    0.000    0.000    0.000 
#
# Total GULP energy -495658.326931 kJ/mol
# GULP energy per Si atom -12391.458173 kJ/mol
# Density = 1.952005 g / cm^3
# Si number density = 19.564579 Si / 1000 Ang^3
#
#
#
# Elastic Constant Matrix: (Units=GPa)
#
#
# Indices 1 2 3 4 5 6 
#
# 1 98.8830 22.2409 36.4828 0.0000 0.0000 0.0000
# 2 22.2409 78.5605 24.2803 0.0000 0.0000 0.0000
# 3 36.4828 24.2803 89.3118 0.0000 0.0000 0.0000
# 4 0.0000 0.0000 0.0000 24.9014 0.0000 0.0000
# 5 0.0000 0.0000 0.0000 0.0000 33.8762 0.0000
# 6 0.0000 0.0000 0.0000 0.0000 0.0000 18.6996
#
#
#
# Elastic Compliance Matrix: (Units=1/GPa)
#
#
# Indices 1 2 3 4 5 6 
#
# 1 0.012214 -0.002092 -0.004421 0.000000 0.000000 0.000000
# 2 -0.002092 0.014255 -0.003021 0.000000 0.000000 0.000000
# 3 -0.004421 -0.003021 0.013824 0.000000 0.000000 0.000000
# 4 0.000000 0.000000 0.000000 0.040158 0.000000 0.000000
# 5 0.000000 0.000000 0.000000 0.000000 0.029519 0.000000
# 6 0.000000 0.000000 0.000000 0.000000 0.000000 0.053477
#
#
# Mechanical properties :
#
#
# Convention : Reuss Voigt Hill
#
# Bulk Modulus (GPa) = 47.11116 48.08481 47.59798
# Shear Modulus (GPa) = 26.37268 27.74553 27.05911
#
# Velocity S-wave (km/s) = 3.67547 3.76992 3.72299
# Velocity P-wave (km/s) = 6.49186 6.60156 6.54694
#
# Compressibility (1/GPa) = 0.02122639
#
# Stress axis : x y z
#
# Youngs Moduli (GPa) = 81.87002 70.15147 72.33876
#
# Poissons Ratio (x) = 0.14673 0.31980
# Poissons Ratio (y) = 0.17124 0.21853
# Poissons Ratio (z) = 0.36193 0.21192
#
# Static dielectric constant tensor:
#      x y z
#    x 3.644280 0.000000 0.000000 
#    y 0.000000 3.500250 0.000000 
#    z 0.000000 0.000000 3.979160 
# 
# 
# High freq. dielectric constant tensor:
#      x y z
#    x 1.770020 0.000000 0.000000 
#    y 0.000000 1.757870 0.000000 
#    z 0.000000 0.000000 1.772460 
# 
# From -- ./inp_files/6080.got.cif
#   From: 2010.03.12/outbox.cif.g09.slc.cpg/sg62_4_cif.got.tgz:6080.got - 2010.04.10 19:12:36.
