data_PCOD8253905
_publ_section_title
;
Structure prediction by ZEFSAII (Michael W. Deem and Ramdas Pophale) SiO2 
 PCOD8253905
Probable space group: P N M A
;
_chemical_formula_sum "Si O2"
_cell_formula_units_Z 48
_cell_length_a 15.008443
_cell_length_b 8.876207
_cell_length_c 18.812307
_cell_angle_alpha 90.000000
_cell_angle_beta 90.000000
_cell_angle_gamma 90.000000
_cell_volume 2506.138795
_symmetry_space_group_name_H-M "P N M A"
_symmetry_group_IT_number 62
_symmetry_cell_setting 'orthorhombic'
loop_
_space_group_symop_operation_xyz
x,y,z
1/2-x,-y,1/2+z
1/2+x,1/2-y,1/2-z
-x,1/2+y,-z
-x,-y,-z
1/2+x,y,1/2-z
1/2-x,1/2+y,1/2+z
x,1/2-y,z
loop_
_atom_site_type_symbol
_atom_site_label
_atom_site_fract_x
_atom_site_fract_y
_atom_site_fract_z
Si Si1 0.977961 0.424036 0.574333
Si Si2 0.376543 0.574928 0.319826
Si Si3 0.121652 0.927209 0.669617
Si Si4 0.027408 0.574441 0.073035
Si Si5 0.725977 0.921389 0.068023
Si Si6 0.270184 0.074386 0.576174
O O1 0.004462 0.250000 0.568406
O O2 0.874794 0.446362 0.593628
O O3 0.000000 0.500000 0.500000
O O4 0.033714 0.497978 0.637278
O O5 0.384008 0.750000 0.297959
O O6 0.369677 0.472203 0.251111
O O7 0.462897 0.520705 0.363828
O O8 0.288236 0.543614 0.365283
O O9 0.112226 0.750000 0.661788
O O10 0.209522 0.978730 0.628496
O O11 0.015309 0.750000 0.060266
O O12 0.128003 0.532737 0.094300
O O13 0.000000 0.500000 0.000000
O O14 0.740423 0.750000 0.040938
O O15 0.749348 0.034852 0.005093
O O16 0.250740 0.250000 0.588093
#
# Coordination Sequence:
#
# PCOD8253905 Si02
#       6
#     8   8   8   8   8   8
#     4  11  22  38  63  94 123 158 203 252 305 369
#     4  10  22  42  63  88 125 163 199 249 308 366
#     4  12  26  42  60  87 124 165 207 256 309 359
#     4  10  21  37  63  94 123 159 201 247 301 364
#     4  10  21  38  64  92 121 158 201 248 303 366
#     4  11  22  37  62  93 123 159 203 251 302 363
#
# _framework density 19.152968999999999
#
# number of rings (size 3 to 8) (size 9 to 14) (size 15 to 20)
#    0.000    1.333    3.333    2.500    0.000    4.000 
#    0.000    6.667    0.000    0.000    0.000    0.000 
#    0.000    0.000    0.000    0.000    0.000    0.000 
#
# Total GULP energy -595453.867112 kJ/mol
# GULP energy per Si atom -12405.288898 kJ/mol
# Density = 1.910938 g / cm^3
# Si number density = 19.152969 Si / 1000 Ang^3
#
#
#
# Elastic Constant Matrix: (Units=GPa)
#
#
# Indices 1 2 3 4 5 6 
#
# 1 155.2053 60.7647 64.0638 0.0000 0.0000 0.0000
# 2 60.7647 106.0317 53.9508 0.0000 0.0000 0.0000
# 3 64.0638 53.9508 119.0292 0.0000 0.0000 0.0000
# 4 0.0000 0.0000 0.0000 37.9750 0.0000 0.0000
# 5 0.0000 0.0000 0.0000 0.0000 28.7081 0.0000
# 6 0.0000 0.0000 0.0000 0.0000 0.0000 26.2706
#
#
#
# Elastic Compliance Matrix: (Units=1/GPa)
#
#
# Indices 1 2 3 4 5 6 
#
# 1 0.009226 -0.003588 -0.003339 0.000000 0.000000 0.000000
# 2 -0.003588 0.013654 -0.004257 0.000000 0.000000 0.000000
# 3 -0.003339 -0.004257 0.012128 0.000000 0.000000 0.000000
# 4 0.000000 0.000000 0.000000 0.026333 0.000000 0.000000
# 5 0.000000 0.000000 0.000000 0.000000 0.034833 0.000000
# 6 0.000000 0.000000 0.000000 0.000000 0.000000 0.038065
#
#
# Mechanical properties :
#
#
# Convention : Reuss Voigt Hill
#
# Bulk Modulus (GPa) = 79.12450 81.98052 80.55251
# Shear Modulus (GPa) = 31.09008 32.02321 31.55665
#
# Velocity S-wave (km/s) = 4.03333 4.09341 4.06348
# Velocity P-wave (km/s) = 7.94304 8.07696 8.01028
#
# Compressibility (1/GPa) = 0.01263831
#
# Stress axis : x y z
#
# Youngs Moduli (GPa) = 108.38554 73.23995 82.45181
#
# Poissons Ratio (x) = 0.26281 0.27534
# Poissons Ratio (y) = 0.38892 0.35103
# Poissons Ratio (z) = 0.36194 0.31181
#
# Static dielectric constant tensor:
#      x y z
#    x 4.190890 0.000000 0.000000 
#    y 0.000000 3.536720 0.000000 
#    z 0.000000 0.000000 3.302330 
# 
# 
# High freq. dielectric constant tensor:
#      x y z
#    x 1.766530 0.000000 0.000000 
#    y 0.000000 1.748000 0.000000 
#    z 0.000000 0.000000 1.739770 
# 
# From -- ./inp_files/23773.got.cif
#   From: 2010.03.12/outbox.cif.g09.slc.cpg/sg62_12_cif.got.tgz:23773.got - 2010.04.10 19:12:36.
