data_PCOD8253346
_publ_section_title
;
Structure prediction by ZEFSAII (Michael W. Deem and Ramdas Pophale) SiO2 
 PCOD8253346
Probable space group: P N M A
;
_chemical_formula_sum "Si O2"
_cell_formula_units_Z 40
_cell_length_a 9.453867
_cell_length_b 8.433462
_cell_length_c 25.149451
_cell_angle_alpha 90.000000
_cell_angle_beta 90.000000
_cell_angle_gamma 90.000000
_cell_volume 2005.136256
_symmetry_space_group_name_H-M "P N M A"
_symmetry_group_IT_number 62
_symmetry_cell_setting 'orthorhombic'
loop_
_space_group_symop_operation_xyz
x,y,z
1/2-x,-y,1/2+z
1/2+x,1/2-y,1/2-z
-x,1/2+y,-z
-x,-y,-z
1/2+x,y,1/2-z
1/2-x,1/2+y,1/2+z
x,1/2-y,z
loop_
_atom_site_type_symbol
_atom_site_label
_atom_site_fract_x
_atom_site_fract_y
_atom_site_fract_z
Si Si1 0.834368 0.061825 0.603359
Si Si2 0.344200 0.061818 0.490054
Si Si3 0.198667 0.066206 0.701400
Si Si4 0.897979 0.566972 0.713199
Si Si5 0.147266 0.437020 0.583415
O O1 0.830523 0.250000 0.608362
O O2 0.985480 0.000564 0.580172
O O3 0.708132 0.001703 0.566462
O O4 0.809657 0.987951 0.661528
O O5 0.343713 0.250000 0.490487
O O6 0.240988 0.990684 0.535832
O O7 0.500000 0.000000 0.500000
O O8 0.235877 0.250000 0.710241
O O9 0.216092 0.014765 0.639805
O O10 0.303236 0.957463 0.734907
O O11 0.037847 0.038261 0.719330
O O12 0.940345 0.750000 0.708197
O O13 0.144210 0.250000 0.578341
#
# Coordination Sequence:
#
# PCOD8253346 Si02
#       5
#     8   8   8   8   8
#     4  10  20  38  60  82 107 145 190 232 281 341
#     4  11  22  37  55  82 115 147 184 232 283 336
#     4  10  20  38  60  83 111 150 192 232 279 338
#     4  11  22  37  57  86 117 148 187 236 285 334
#     4   8  18  36  59  81 106 142 187 228 271 327
#
# _framework density 19.948768000000001
#
# number of rings (size 3 to 8) (size 9 to 14) (size 15 to 20)
#    0.000    2.000    0.000    5.400    0.000    1.600 
#    0.000   17.000    0.000    0.000    0.000    0.000 
#    0.000    0.000    0.000    0.000    0.000    0.000 
#
# Total GULP energy -496110.482671 kJ/mol
# GULP energy per Si atom -12402.762067 kJ/mol
# Density = 1.990336 g / cm^3
# Si number density = 19.948768 Si / 1000 Ang^3
#
#
#
# Elastic Constant Matrix: (Units=GPa)
#
#
# Indices 1 2 3 4 5 6 
#
# 1 46.3302 5.4915 11.1013 0.0000 0.0000 0.0000
# 2 5.4915 68.7840 14.1757 0.0000 0.0000 0.0000
# 3 11.1013 14.1757 57.4958 0.0000 0.0000 0.0000
# 4 0.0000 0.0000 0.0000 28.3964 0.0000 0.0000
# 5 0.0000 0.0000 0.0000 0.0000 39.0611 0.0000
# 6 0.0000 0.0000 0.0000 0.0000 0.0000 28.4286
#
#
#
# Elastic Compliance Matrix: (Units=1/GPa)
#
#
# Indices 1 2 3 4 5 6 
#
# 1 0.022691 -0.000957 -0.004145 0.000000 0.000000 0.000000
# 2 -0.000957 0.015357 -0.003601 0.000000 0.000000 0.000000
# 3 -0.004145 -0.003601 0.019081 0.000000 0.000000 0.000000
# 4 0.000000 0.000000 0.000000 0.035216 0.000000 0.000000
# 5 0.000000 0.000000 0.000000 0.000000 0.025601 0.000000
# 6 0.000000 0.000000 0.000000 0.000000 0.000000 0.035176
#
#
# Mechanical properties :
#
#
# Convention : Reuss Voigt Hill
#
# Bulk Modulus (GPa) = 25.17565 26.01633 25.59599
# Shear Modulus (GPa) = 27.20805 28.63333 27.92069
#
# Velocity S-wave (km/s) = 3.69710 3.79270 3.74521
# Velocity P-wave (km/s) = 5.55629 5.67885 5.61790
#
# Compressibility (1/GPa) = 0.03972092
#
# Stress axis : x y z
#
# Youngs Moduli (GPa) = 44.07055 65.11728 52.40852
#
# Poissons Ratio (x) = 0.06234 0.21724
# Poissons Ratio (y) = 0.04219 0.18875
# Poissons Ratio (z) = 0.18268 0.23452
#
# Static dielectric constant tensor:
#      x y z
#    x 3.549920 0.000000 0.000000 
#    y 0.000000 3.451980 0.000000 
#    z 0.000000 0.000000 3.831530 
# 
# 
# High freq. dielectric constant tensor:
#      x y z
#    x 1.771160 0.000000 0.000000 
#    y 0.000000 1.771440 0.000000 
#    z 0.000000 0.000000 1.787540 
# 
# From -- ./inp_files/28568.got.cif
#   From: 2010.03.12/outbox.cif.g09.slc.cpg/sg62_15_cif.got.tgz:28568.got - 2010.04.10 19:12:36.
