data_PCOD8253780
_publ_section_title
;
Structure prediction by ZEFSAII (Michael W. Deem and Ramdas Pophale) SiO2 
 PCOD8253780
Probable space group: P N M A
;
_chemical_formula_sum "Si O2"
_cell_formula_units_Z 40
_cell_length_a 13.324265
_cell_length_b 8.856133
_cell_length_c 18.576650
_cell_angle_alpha 90.000000
_cell_angle_beta 90.000000
_cell_angle_gamma 90.000000
_cell_volume 2192.071877
_symmetry_space_group_name_H-M "P N M A"
_symmetry_group_IT_number 62
_symmetry_cell_setting 'orthorhombic'
loop_
_space_group_symop_operation_xyz
x,y,z
1/2-x,-y,1/2+z
1/2+x,1/2-y,1/2-z
-x,1/2+y,-z
-x,-y,-z
1/2+x,y,1/2-z
1/2-x,1/2+y,1/2+z
x,1/2-y,z
loop_
_atom_site_type_symbol
_atom_site_label
_atom_site_fract_x
_atom_site_fract_y
_atom_site_fract_z
Si Si1 0.095304 0.922709 0.283697
Si Si2 0.109348 0.573365 0.714988
Si Si3 0.391637 0.927036 0.503065
Si Si4 0.303072 0.924692 0.350411
Si Si5 0.709604 0.574002 0.361373
O O1 0.059214 0.750000 0.290065
O O2 0.185326 0.957235 0.339128
O O3 0.131791 0.957195 0.202853
O O4 0.004851 0.032671 0.304563
O O5 0.127076 0.750000 0.706194
O O6 0.130140 0.524513 0.796962
O O7 0.181208 0.486965 0.659659
O O8 0.405841 0.750000 0.511684
O O9 0.330979 0.968881 0.431169
O O10 0.500000 0.000000 0.500000
O O11 0.327722 0.988340 0.568787
O O12 0.327027 0.750000 0.332752
O O13 0.718340 0.750000 0.378520
#
# Coordination Sequence:
#
# PCOD8253780 Si02
#       5
#     8   8   8   8   8
#     4   9  18  35  56  75 100 138 179 215 257 310
#     4  11  21  33  54  82 108 135 173 221 266 312
#     4  11  22  36  55  81 111 141 176 218 267 319
#     4   9  20  37  55  76 106 143 178 214 259 314
#     4  10  21  37  56  78 107 143 180 218 263 315
#
# _framework density 18.247575999999999
#
# number of rings (size 3 to 8) (size 9 to 14) (size 15 to 20)
#    0.000    2.000    0.000    5.400    0.000   10.400 
#    0.000    1.000    0.000    0.000    0.000    0.000 
#    0.000    0.000    0.000    0.000    0.000    0.000 
#
# Total GULP energy -496172.648855 kJ/mol
# GULP energy per Si atom -12404.316221 kJ/mol
# Density = 1.820604 g / cm^3
# Si number density = 18.247576 Si / 1000 Ang^3
#
#
#
# Elastic Constant Matrix: (Units=GPa)
#
#
# Indices 1 2 3 4 5 6 
#
# 1 122.5520 44.9422 63.3378 0.0000 0.0000 0.0000
# 2 44.9422 78.4943 50.3041 0.0000 0.0000 0.0000
# 3 63.3378 50.3041 131.4808 0.0000 0.0000 0.0000
# 4 0.0000 0.0000 0.0000 31.3712 0.0000 0.0000
# 5 0.0000 0.0000 0.0000 0.0000 18.0828 0.0000
# 6 0.0000 0.0000 0.0000 0.0000 0.0000 32.1484
#
#
#
# Elastic Compliance Matrix: (Units=1/GPa)
#
#
# Indices 1 2 3 4 5 6 
#
# 1 0.011792 -0.004122 -0.004104 0.000000 0.000000 0.000000
# 2 -0.004122 0.018319 -0.005023 0.000000 0.000000 0.000000
# 3 -0.004104 -0.005023 0.011504 0.000000 0.000000 0.000000
# 4 0.000000 0.000000 0.000000 0.031876 0.000000 0.000000
# 5 0.000000 0.000000 0.000000 0.000000 0.055301 0.000000
# 6 0.000000 0.000000 0.000000 0.000000 0.000000 0.031106
#
#
# Mechanical properties :
#
#
# Convention : Reuss Voigt Hill
#
# Bulk Modulus (GPa) = 66.14521 72.18836 69.16679
# Shear Modulus (GPa) = 26.11847 27.91667 27.01757
#
# Velocity S-wave (km/s) = 3.78741 3.91562 3.85205
# Velocity P-wave (km/s) = 7.44670 7.75172 7.60074
#
# Compressibility (1/GPa) = 0.01511825
#
# Stress axis : x y z
#
# Youngs Moduli (GPa) = 84.80184 54.58845 86.92371
#
# Poissons Ratio (x) = 0.22500 0.35670
# Poissons Ratio (y) = 0.34954 0.43663
# Poissons Ratio (z) = 0.34800 0.27421
#
# Static dielectric constant tensor:
#      x y z
#    x 3.415080 0.000000 0.000000 
#    y 0.000000 3.148500 0.000000 
#    z 0.000000 0.000000 3.359550 
# 
# 
# High freq. dielectric constant tensor:
#      x y z
#    x 1.715350 0.000000 0.000000 
#    y 0.000000 1.713180 0.000000 
#    z 0.000000 0.000000 1.697300 
# 
# From -- ./inp_files/22756.got.cif
#   From: 2010.03.12/outbox.cif.g09.slc.cpg/sg62_12_cif.got.tgz:22756.got - 2010.04.10 19:12:36.
