data_PCOD8253805
_publ_section_title
;
Structure prediction by ZEFSAII (Michael W. Deem and Ramdas Pophale) SiO2 
 PCOD8253805
Probable space group: P N M A
;
_chemical_formula_sum "Si O2"
_cell_formula_units_Z 56
_cell_length_a 15.024961
_cell_length_b 8.756814
_cell_length_c 21.310971
_cell_angle_alpha 90.000000
_cell_angle_beta 90.000000
_cell_angle_gamma 90.000000
_cell_volume 2803.901265
_symmetry_space_group_name_H-M "P N M A"
_symmetry_group_IT_number 62
_symmetry_cell_setting 'orthorhombic'
loop_
_space_group_symop_operation_xyz
x,y,z
1/2-x,-y,1/2+z
1/2+x,1/2-y,1/2-z
-x,1/2+y,-z
-x,-y,-z
1/2+x,y,1/2-z
1/2-x,1/2+y,1/2+z
x,1/2-y,z
loop_
_atom_site_type_symbol
_atom_site_label
_atom_site_fract_x
_atom_site_fract_y
_atom_site_fract_z
Si Si1 0.788959 0.570605 0.104442
Si Si2 0.517326 0.067895 0.568447
Si Si3 0.606758 0.571512 0.776861
Si Si4 0.529615 0.570151 0.906776
Si Si5 0.128023 0.928717 0.472911
Si Si6 0.554533 0.071092 0.311916
Si Si7 0.782494 0.429832 0.736466
O O1 0.798145 0.750000 0.114214
O O2 0.729707 0.528646 0.043363
O O3 0.739639 0.505225 0.166533
O O4 0.886859 0.503846 0.091891
O O5 0.513829 0.250000 0.564265
O O6 0.500000 0.000000 0.500000
O O7 0.444790 0.009336 0.619506
O O8 0.631838 0.750000 0.780147
O O9 0.557749 0.513295 0.838977
O O10 0.541322 0.536330 0.719053
O O11 0.695313 0.471063 0.776075
O O12 0.522117 0.750000 0.909271
O O13 0.433288 0.502549 0.919885
O O14 0.601748 0.510499 0.958133
O O15 0.112371 0.750000 0.468275
O O16 0.570370 0.250000 0.321234
O O17 0.631849 0.009814 0.266611
O O18 0.800107 0.250000 0.736902
#
# Coordination Sequence:
#
# PCOD8253805 Si02
#       7
#     8   8   8   8   8   8   8
#     4   9  19  36  58  84 115 155 201 246 300 365
#     4  11  23  42  64  89 121 160 207 258 315 378
#     4  10  21  37  57  83 117 154 195 243 300 361
#     4   9  18  32  51  80 115 148 183 233 291 348
#     4   9  17  32  54  78 107 147 189 230 284 350
#     4  11  23  40  61  88 122 161 205 258 317 374
#     4  11  22  37  60  88 117 155 203 255 309 364
#
# _framework density 19.972173999999999
#
# number of rings (size 3 to 8) (size 9 to 14) (size 15 to 20)
#    0.000    2.000    1.429    2.143    0.000    2.286 
#    0.000    5.000    0.000    0.000    0.000    0.000 
#    0.000    0.000    0.000    0.000    0.000    0.000 
#
# Total GULP energy -694255.120793 kJ/mol
# GULP energy per Si atom -12397.412871 kJ/mol
# Density = 1.992672 g / cm^3
# Si number density = 19.972174 Si / 1000 Ang^3
#
#
#
# Elastic Constant Matrix: (Units=GPa)
#
#
# Indices 1 2 3 4 5 6 
#
# 1 96.4635 30.6319 39.4611 0.0000 0.0000 0.0000
# 2 30.6319 54.3890 32.8618 0.0000 0.0000 0.0000
# 3 39.4611 32.8618 125.1067 0.0000 0.0000 0.0000
# 4 0.0000 0.0000 0.0000 28.8196 0.0000 0.0000
# 5 0.0000 0.0000 0.0000 0.0000 22.6607 0.0000
# 6 0.0000 0.0000 0.0000 0.0000 0.0000 30.2812
#
#
#
# Elastic Compliance Matrix: (Units=1/GPa)
#
#
# Indices 1 2 3 4 5 6 
#
# 1 0.013326 -0.005902 -0.002653 0.000000 0.000000 0.000000
# 2 -0.005902 0.024469 -0.004565 0.000000 0.000000 0.000000
# 3 -0.002653 -0.004565 0.010029 0.000000 0.000000 0.000000
# 4 0.000000 0.000000 0.000000 0.034699 0.000000 0.000000
# 5 0.000000 0.000000 0.000000 0.000000 0.044129 0.000000
# 6 0.000000 0.000000 0.000000 0.000000 0.000000 0.033024
#
#
# Mechanical properties :
#
#
# Convention : Reuss Voigt Hill
#
# Bulk Modulus (GPa) = 46.33392 53.54098 49.93745
# Shear Modulus (GPa) = 25.89177 27.88594 26.88885
#
# Velocity S-wave (km/s) = 3.60445 3.74068 3.67320
# Velocity P-wave (km/s) = 6.36964 6.74707 6.56107
#
# Compressibility (1/GPa) = 0.02158246
#
# Stress axis : x y z
#
# Youngs Moduli (GPa) = 75.04019 40.86841 99.70895
#
# Poissons Ratio (x) = 0.24122 0.26452
# Poissons Ratio (y) = 0.44292 0.45522
# Poissons Ratio (z) = 0.19908 0.18658
#
# Static dielectric constant tensor:
#      x y z
#    x 3.647950 0.000000 0.000000 
#    y 0.000000 3.449070 0.000000 
#    z 0.000000 0.000000 3.900640 
# 
# 
# High freq. dielectric constant tensor:
#      x y z
#    x 1.779630 0.000000 0.000000 
#    y 0.000000 1.762960 0.000000 
#    z 0.000000 0.000000 1.789680 
# 
# From -- ./inp_files/27217.got.cif
#   From: 2010.03.12/outbox.cif.g09.slc.cpg/sg62_14_cif.got.tgz:27217.got - 2010.04.10 19:12:36.
