data_PCOD8253577
_publ_section_title
;
Structure prediction by ZEFSAII (Michael W. Deem and Ramdas Pophale) SiO2 
 PCOD8253577
Probable space group: P N M A
;
_chemical_formula_sum "Si O2"
_cell_formula_units_Z 48
_cell_length_a 11.463773
_cell_length_b 11.163253
_cell_length_c 18.354500
_cell_angle_alpha 90.000000
_cell_angle_beta 90.000000
_cell_angle_gamma 90.000000
_cell_volume 2348.880398
_symmetry_space_group_name_H-M "P N M A"
_symmetry_group_IT_number 62
_symmetry_cell_setting 'orthorhombic'
loop_
_space_group_symop_operation_xyz
x,y,z
1/2-x,-y,1/2+z
1/2+x,1/2-y,1/2-z
-x,1/2+y,-z
-x,-y,-z
1/2+x,y,1/2-z
1/2-x,1/2+y,1/2+z
x,1/2-y,z
loop_
_atom_site_type_symbol
_atom_site_label
_atom_site_fract_x
_atom_site_fract_y
_atom_site_fract_z
Si Si1 0.201403 0.250000 0.301133
Si Si2 0.436245 0.250000 0.204443
Si Si3 0.322088 0.507920 0.884871
Si Si4 0.065406 0.008338 0.667494
Si Si5 0.811923 0.882491 0.466190
Si Si6 0.039046 0.616933 0.044035
Si Si7 0.392677 0.885221 0.321195
O O1 0.320259 0.250000 0.254214
O O2 0.212378 0.364686 0.352015
O O3 0.071365 0.250000 0.260337
O O4 0.428166 0.134008 0.153169
O O5 0.433735 0.447537 0.846562
O O6 0.216547 0.416837 0.872626
O O7 0.351439 0.525987 0.970463
O O8 0.151659 0.072704 0.612991
O O9 0.101077 0.030566 0.750920
O O10 0.864901 0.750000 0.479965
O O11 0.674805 0.875274 0.464786
O O12 0.987826 0.750000 0.019255
O O13 0.006829 0.597034 0.128868
O O14 0.000000 0.500000 0.000000
O O15 0.380935 0.750000 0.292768
#
# Coordination Sequence:
#
# PCOD8253577 Si02
#       7
#     4   4   8   8   8   8   8
#     4  10  20  40  68  96 126 165 217 265 323 392
#     4  10  22  40  64  96 130 165 213 271 323 394
#     4  11  22  42  67  91 127 166 216 264 319 385
#     4  11  25  42  63  95 130 169 212 268 324 389
#     4  11  23  42  67  92 127 171 214 260 330 393
#     4  10  22  42  66  96 129 170 217 269 324 391
#     4  11  24  41  65  95 129 165 218 265 323 388
#
# _framework density 20.435268000000001
#
# number of rings (size 3 to 8) (size 9 to 14) (size 15 to 20)
#    0.000    1.333    4.167    1.000    2.333    1.333 
#    4.500    0.000    0.000    0.000    0.000    0.000 
#    0.000    0.000    0.000    0.000    0.000    0.000 
#
# Total GULP energy -594856.610322 kJ/mol
# GULP energy per Si atom -12392.846048 kJ/mol
# Density = 2.038876 g / cm^3
# Si number density = 20.435268 Si / 1000 Ang^3
#
#
#
# Elastic Constant Matrix: (Units=GPa)
#
#
# Indices 1 2 3 4 5 6 
#
# 1 63.5442 22.9465 20.8150 0.0000 0.0000 0.0000
# 2 22.9465 99.6240 34.2098 0.0000 0.0000 0.0000
# 3 20.8150 34.2098 107.4242 0.0000 0.0000 0.0000
# 4 0.0000 0.0000 0.0000 25.3678 0.0000 0.0000
# 5 0.0000 0.0000 0.0000 0.0000 36.7826 0.0000
# 6 0.0000 0.0000 0.0000 0.0000 0.0000 27.8595
#
#
#
# Elastic Compliance Matrix: (Units=1/GPa)
#
#
# Indices 1 2 3 4 5 6 
#
# 1 0.017696 -0.003254 -0.002392 0.000000 0.000000 0.000000
# 2 -0.003254 0.011869 -0.003149 0.000000 0.000000 0.000000
# 3 -0.002392 -0.003149 0.010775 0.000000 0.000000 0.000000
# 4 0.000000 0.000000 0.000000 0.039420 0.000000 0.000000
# 5 0.000000 0.000000 0.000000 0.000000 0.027187 0.000000
# 6 0.000000 0.000000 0.000000 0.000000 0.000000 0.035894
#
#
# Mechanical properties :
#
#
# Convention : Reuss Voigt Hill
#
# Bulk Modulus (GPa) = 43.95969 47.39279 45.67624
# Shear Modulus (GPa) = 29.75913 30.84339 30.30126
#
# Velocity S-wave (km/s) = 3.82024 3.88921 3.85488
# Velocity P-wave (km/s) = 6.40448 6.58863 6.49721
#
# Compressibility (1/GPa) = 0.02274811
#
# Stress axis : x y z
#
# Youngs Moduli (GPa) = 56.51004 84.25530 92.80486
#
# Poissons Ratio (x) = 0.27420 0.22203
# Poissons Ratio (y) = 0.18391 0.29225
# Poissons Ratio (z) = 0.13520 0.26533
#
# Static dielectric constant tensor:
#      x y z
#    x 3.873250 0.000000 0.000000 
#    y 0.000000 3.425020 0.000000 
#    z 0.000000 0.000000 3.581290 
# 
# 
# High freq. dielectric constant tensor:
#      x y z
#    x 1.804940 0.000000 0.000000 
#    y 0.000000 1.812100 0.000000 
#    z 0.000000 0.000000 1.782770 
# 
# From -- ./inp_files/23048.got.cif
#   From: 2010.03.12/outbox.cif.g09.slc.cpg/sg62_12_cif.got.tgz:23048.got - 2010.04.10 19:12:36.
