data_PCOD8253319
_publ_section_title
;
Structure prediction by ZEFSAII (Michael W. Deem and Ramdas Pophale) SiO2 
 PCOD8253319
Probable space group: P N M A
;
_chemical_formula_sum "Si O2"
_cell_formula_units_Z 56
_cell_length_a 19.814232
_cell_length_b 14.446627
_cell_length_c 9.376274
_cell_angle_alpha 90.000000
_cell_angle_beta 90.000000
_cell_angle_gamma 90.000000
_cell_volume 2683.947359
_symmetry_space_group_name_H-M "P N M A"
_symmetry_group_IT_number 62
_symmetry_cell_setting 'orthorhombic'
loop_
_space_group_symop_operation_xyz
x,y,z
1/2-x,-y,1/2+z
1/2+x,1/2-y,1/2-z
-x,1/2+y,-z
-x,-y,-z
1/2+x,y,1/2-z
1/2-x,1/2+y,1/2+z
x,1/2-y,z
loop_
_atom_site_type_symbol
_atom_site_label
_atom_site_fract_x
_atom_site_fract_y
_atom_site_fract_z
Si Si1 0.253793 0.936428 0.088566
Si Si2 0.985033 0.488420 0.836395
Si Si3 0.279414 0.597020 0.776696
Si Si4 0.619415 0.853076 0.432894
Si Si5 0.133037 0.648746 0.742874
Si Si6 0.575939 0.355113 0.155708
Si Si7 0.100358 0.457658 0.634896
O O1 0.200085 0.853077 0.100126
O O2 0.324976 0.915132 0.170192
O O3 0.214505 0.024608 0.148958
O O4 0.271775 0.958900 0.924994
O O5 0.919563 0.422087 0.826172
O O6 0.971190 0.589038 0.766065
O O7 0.047063 0.435347 0.759268
O O8 0.000000 0.500000 0.000000
O O9 0.214214 0.660326 0.749297
O O10 0.348137 0.655643 0.783969
O O11 0.592707 0.750000 0.405068
O O12 0.606705 0.880844 0.599255
O O13 0.104476 0.750000 0.698348
O O14 0.109634 0.570469 0.629599
O O15 0.548549 0.250000 0.133788
O O16 0.572107 0.415161 0.010968
#
# Coordination Sequence:
#
# PCOD8253319 Si02
#       7
#     8   8   8   8   8   8   8
#     4   9  18  34  61  89 121 160 208 262 312 364
#     4  12  24  42  65  92 129 169 213 264 322 379
#     4   9  17  33  60  90 120 160 206 257 311 369
#     4  10  20  37  63  93 122 166 217 258 308 376
#     4   9  17  33  61  94 123 158 209 257 309 370
#     4  11  24  41  63  89 125 170 216 260 319 385
#     4  10  22  39  63  95 127 164 208 265 326 378
#
# _framework density 20.864788999999998
#
# number of rings (size 3 to 8) (size 9 to 14) (size 15 to 20)
#    0.000    2.000    2.857    0.857    0.000    5.143 
#    0.000    0.714    0.000    2.571    0.000    0.000 
#    0.000    0.000    0.000    0.000    0.000    0.000 
#
# Total GULP energy -693913.681503 kJ/mol
# GULP energy per Si atom -12391.315741 kJ/mol
# Density = 2.081730 g / cm^3
# Si number density = 20.864789 Si / 1000 Ang^3
#
#
#
# Elastic Constant Matrix: (Units=GPa)
#
#
# Indices 1 2 3 4 5 6 
#
# 1 101.5006 35.5752 47.6772 0.0000 0.0000 0.0000
# 2 35.5752 125.1015 56.4450 0.0000 0.0000 0.0000
# 3 47.6772 56.4450 87.3497 0.0000 0.0000 0.0000
# 4 0.0000 0.0000 0.0000 30.0475 0.0000 0.0000
# 5 0.0000 0.0000 0.0000 0.0000 30.3982 0.0000
# 6 0.0000 0.0000 0.0000 0.0000 0.0000 13.2841
#
#
#
# Elastic Compliance Matrix: (Units=1/GPa)
#
#
# Indices 1 2 3 4 5 6 
#
# 1 0.013294 -0.000715 -0.006794 0.000000 0.000000 0.000000
# 2 -0.000715 0.011322 -0.006926 0.000000 0.000000 0.000000
# 3 -0.006794 -0.006926 0.019632 0.000000 0.000000 0.000000
# 4 0.000000 0.000000 0.000000 0.033281 0.000000 0.000000
# 5 0.000000 0.000000 0.000000 0.000000 0.032897 0.000000
# 6 0.000000 0.000000 0.000000 0.000000 0.000000 0.075278
#
#
# Mechanical properties :
#
#
# Convention : Reuss Voigt Hill
#
# Bulk Modulus (GPa) = 65.02798 65.92737 65.47768
# Shear Modulus (GPa) = 22.75842 26.36293 24.56068
#
# Velocity S-wave (km/s) = 3.30624 3.55845 3.43466
# Velocity P-wave (km/s) = 6.76824 6.96774 6.86871
#
# Compressibility (1/GPa) = 0.01537800
#
# Stress axis : x y z
#
# Youngs Moduli (GPa) = 75.22112 88.32598 50.93709
#
# Poissons Ratio (x) = 0.06315 0.34608
# Poissons Ratio (y) = 0.05378 0.35278
# Poissons Ratio (z) = 0.51107 0.61173
#
# Static dielectric constant tensor:
#      x y z
#    x 4.157050 0.000000 0.000000 
#    y 0.000000 3.558160 0.000000 
#    z 0.000000 0.000000 3.607650 
# 
# 
# High freq. dielectric constant tensor:
#      x y z
#    x 1.839010 0.000000 0.000000 
#    y 0.000000 1.794470 0.000000 
#    z 0.000000 0.000000 1.791150 
# 
# From -- ./inp_files/8750.got.cif
#   From: 2010.03.12/outbox.cif.g09.slc.cpg/sg62_5_cif.got.tgz:8750.got - 2010.04.10 19:12:36.
