data_PCOD8253389
_publ_section_title
;
Structure prediction by ZEFSAII (Michael W. Deem and Ramdas Pophale) SiO2 
 PCOD8253389
Probable space group: P N M A
;
_chemical_formula_sum "Si O2"
_cell_formula_units_Z 64
_cell_length_a 24.399424
_cell_length_b 9.003940
_cell_length_c 14.832366
_cell_angle_alpha 90.000000
_cell_angle_beta 90.000000
_cell_angle_gamma 90.000000
_cell_volume 3258.536573
_symmetry_space_group_name_H-M "P N M A"
_symmetry_group_IT_number 62
_symmetry_cell_setting 'orthorhombic'
loop_
_space_group_symop_operation_xyz
x,y,z
1/2-x,-y,1/2+z
1/2+x,1/2-y,1/2-z
-x,1/2+y,-z
-x,-y,-z
1/2+x,y,1/2-z
1/2-x,1/2+y,1/2+z
x,1/2-y,z
loop_
_atom_site_type_symbol
_atom_site_label
_atom_site_fract_x
_atom_site_fract_y
_atom_site_fract_z
Si Si1 0.140548 0.080371 0.872788
Si Si2 0.626118 0.576458 0.448158
Si Si3 0.937364 0.077773 0.245009
Si Si4 0.742565 0.574174 0.367735
Si Si5 0.171312 0.927027 0.503198
Si Si6 0.234955 0.919222 0.332504
Si Si7 0.522269 0.424093 0.410052
Si Si8 0.450631 0.423609 0.051042
O O1 0.122513 0.250000 0.888668
O O2 0.205357 0.064967 0.874661
O O3 0.116112 0.020163 0.778852
O O4 0.115334 0.976277 0.949922
O O5 0.614517 0.750000 0.440710
O O6 0.687389 0.534192 0.420573
O O7 0.582343 0.489930 0.386207
O O8 0.920548 0.250000 0.241074
O O9 0.956296 0.032708 0.344472
O O10 0.985624 0.037366 0.176207
O O11 0.754269 0.750000 0.364937
O O12 0.793704 0.496315 0.415439
O O13 0.734311 0.506821 0.266697
O O14 0.178222 0.750000 0.509669
O O15 0.192981 0.988872 0.406045
O O16 0.108331 0.977275 0.513306
O O17 0.217432 0.750000 0.318126
O O18 0.500000 0.500000 0.500000
O O19 0.526002 0.250000 0.427364
O O20 0.456714 0.250000 0.035791
O O21 0.500000 0.500000 0.000000
#
# Coordination Sequence:
#
# PCOD8253389 Si02
#       8
#     8   8   8   8   8   8   8   8
#     4  11  20  33  58  85 113 153 197 238 288 349
#     4  11  22  35  54  82 118 153 188 237 292 347
#     4  10  22  39  58  84 118 152 194 249 299 344
#     4  10  21  37  57  84 118 153 190 236 290 342
#     4  10  20  38  62  86 115 151 192 239 291 346
#     4   9  19  35  56  84 116 150 190 237 285 341
#     4  11  22  36  56  81 115 155 194 240 293 349
#     4  10  23  42  64  88 116 154 196 246 299 347
#
# _framework density 19.640719000000001
#
# number of rings (size 3 to 8) (size 9 to 14) (size 15 to 20)
#    0.000    1.750    2.500    1.875    0.000    3.000 
#    0.000    2.500    0.000    0.000    0.000    0.000 
#    0.000    0.000    0.000    0.000    0.000    0.000 
#
# Total GULP energy -793604.387846 kJ/mol
# GULP energy per Si atom -12400.068560 kJ/mol
# Density = 1.959602 g / cm^3
# Si number density = 19.640719 Si / 1000 Ang^3
#
#
#
# Elastic Constant Matrix: (Units=GPa)
#
#
# Indices 1 2 3 4 5 6 
#
# 1 135.1235 49.8546 74.4606 0.0000 0.0000 0.0000
# 2 49.8546 57.4282 40.4600 0.0000 0.0000 0.0000
# 3 74.4606 40.4600 151.8740 0.0000 0.0000 0.0000
# 4 0.0000 0.0000 0.0000 25.7863 0.0000 0.0000
# 5 0.0000 0.0000 0.0000 0.0000 32.5105 0.0000
# 6 0.0000 0.0000 0.0000 0.0000 0.0000 31.4056
#
#
#
# Elastic Compliance Matrix: (Units=1/GPa)
#
#
# Indices 1 2 3 4 5 6 
#
# 1 0.012610 -0.008114 -0.004021 0.000000 0.000000 0.000000
# 2 -0.008114 0.026658 -0.003123 0.000000 0.000000 0.000000
# 3 -0.004021 -0.003123 0.009388 0.000000 0.000000 0.000000
# 4 0.000000 0.000000 0.000000 0.038780 0.000000 0.000000
# 5 0.000000 0.000000 0.000000 0.000000 0.030759 0.000000
# 6 0.000000 0.000000 0.000000 0.000000 0.000000 0.031841
#
#
# Mechanical properties :
#
#
# Convention : Reuss Voigt Hill
#
# Bulk Modulus (GPa) = 55.13112 74.88625 65.00868
# Shear Modulus (GPa) = 26.79523 29.91718 28.35621
#
# Velocity S-wave (km/s) = 3.69761 3.90708 3.80379
# Velocity P-wave (km/s) = 6.80885 7.65275 7.24310
#
# Compressibility (1/GPa) = 0.01813858
#
# Stress axis : x y z
#
# Youngs Moduli (GPa) = 79.30111 37.51235 106.52095
#
# Poissons Ratio (x) = 0.30439 0.42830
# Poissons Ratio (y) = 0.64348 0.33272
# Poissons Ratio (z) = 0.31885 0.11717
#
# Static dielectric constant tensor:
#      x y z
#    x 3.731250 0.000000 0.000000 
#    y 0.000000 3.428620 0.000000 
#    z 0.000000 0.000000 3.757520 
# 
# 
# High freq. dielectric constant tensor:
#      x y z
#    x 1.774180 0.000000 0.000000 
#    y 0.000000 1.748480 0.000000 
#    z 0.000000 0.000000 1.769580 
# 
# From -- ./inp_files/20856.got.cif
#   From: 2010.03.12/outbox.cif.g09.slc.cpg/sg62_11_cif.got.tgz:20856.got - 2010.04.10 19:12:36.
