data_PCOD8253352
_publ_section_title
;
Structure prediction by ZEFSAII (Michael W. Deem and Ramdas Pophale) SiO2 
 PCOD8253352
Probable space group: P N M A
;
_chemical_formula_sum "Si O2"
_cell_formula_units_Z 48
_cell_length_a 17.878159
_cell_length_b 8.590620
_cell_length_c 15.496470
_cell_angle_alpha 90.000000
_cell_angle_beta 90.000000
_cell_angle_gamma 90.000000
_cell_volume 2380.017136
_symmetry_space_group_name_H-M "P N M A"
_symmetry_group_IT_number 62
_symmetry_cell_setting 'orthorhombic'
loop_
_space_group_symop_operation_xyz
x,y,z
1/2-x,-y,1/2+z
1/2+x,1/2-y,1/2-z
-x,1/2+y,-z
-x,-y,-z
1/2+x,y,1/2-z
1/2-x,1/2+y,1/2+z
x,1/2-y,z
loop_
_atom_site_type_symbol
_atom_site_label
_atom_site_fract_x
_atom_site_fract_y
_atom_site_fract_z
Si Si1 0.959304 0.067090 0.742262
Si Si2 0.797235 0.933153 0.753431
Si Si3 0.708489 0.065645 0.597093
Si Si4 0.543476 0.933297 0.919255
Si Si5 0.037413 0.067146 0.915852
Si Si6 0.211541 0.565737 0.577777
O O1 0.971552 0.250000 0.729135
O O2 0.992919 0.006182 0.832381
O O3 0.872312 0.028710 0.737815
O O4 0.002214 0.977080 0.667939
O O5 0.814827 0.750000 0.757630
O O6 0.759828 0.995974 0.841571
O O7 0.741317 0.969065 0.675959
O O8 0.717262 0.250000 0.613068
O O9 0.622879 0.013196 0.589186
O O10 0.750318 0.010590 0.510605
O O11 0.546282 0.750000 0.929534
O O12 0.627607 0.002740 0.917742
O O13 0.500000 0.000000 0.000000
O O14 0.032148 0.250000 0.921964
O O15 0.000000 0.000000 0.000000
O O16 0.208799 0.750000 0.582829
#
# Coordination Sequence:
#
# PCOD8253352 Si02
#       6
#     8   8   8   8   8   8
#     4  11  23  39  57  84 119 155 193 238 289 346
#     4  11  22  38  60  86 112 148 194 239 287 345
#     4  10  20  38  60  84 115 151 186 233 292 345
#     4  11  22  38  60  87 117 154 195 240 291 347
#     4  10  22  38  60  87 118 156 197 240 291 345
#     4   9  20  37  58  82 113 148 185 230 285 340
#
# _framework density 20.167922999999998
#
# number of rings (size 3 to 8) (size 9 to 14) (size 15 to 20)
#    0.000    1.667    0.000    4.500    0.000    4.667 
#    0.000    5.000    0.000    0.000    0.000    0.000 
#    0.000    0.000    0.000    0.000    0.000    0.000 
#
# Total GULP energy -595434.403788 kJ/mol
# GULP energy per Si atom -12404.883412 kJ/mol
# Density = 2.012202 g / cm^3
# Si number density = 20.167923 Si / 1000 Ang^3
#
#
#
# Elastic Constant Matrix: (Units=GPa)
#
#
# Indices 1 2 3 4 5 6 
#
# 1 130.6482 18.2221 40.3083 0.0000 0.0000 0.0000
# 2 18.2221 33.9744 19.8396 0.0000 0.0000 0.0000
# 3 40.3083 19.8396 134.9650 0.0000 0.0000 0.0000
# 4 0.0000 0.0000 0.0000 32.9418 0.0000 0.0000
# 5 0.0000 0.0000 0.0000 0.0000 46.8933 0.0000
# 6 0.0000 0.0000 0.0000 0.0000 0.0000 18.2826
#
#
#
# Elastic Compliance Matrix: (Units=1/GPa)
#
#
# Indices 1 2 3 4 5 6 
#
# 1 0.008792 -0.003481 -0.002114 0.000000 0.000000 0.000000
# 2 -0.003481 0.033576 -0.003896 0.000000 0.000000 0.000000
# 3 -0.002114 -0.003896 0.008613 0.000000 0.000000 0.000000
# 4 0.000000 0.000000 0.000000 0.030357 0.000000 0.000000
# 5 0.000000 0.000000 0.000000 0.000000 0.021325 0.000000
# 6 0.000000 0.000000 0.000000 0.000000 0.000000 0.054697
#
#
# Mechanical properties :
#
#
# Convention : Reuss Voigt Hill
#
# Bulk Modulus (GPa) = 31.25074 50.70308 40.97691
# Shear Modulus (GPa) = 26.73680 34.37138 30.55409
#
# Velocity S-wave (km/s) = 3.64498 4.13275 3.89650
# Velocity P-wave (km/s) = 5.76571 6.92588 6.37225
#
# Compressibility (1/GPa) = 0.03199924
#
# Stress axis : x y z
#
# Youngs Moduli (GPa) = 113.74106 29.78314 116.09795
#
# Poissons Ratio (x) = 0.10367 0.24544
# Poissons Ratio (y) = 0.39593 0.45232
# Poissons Ratio (z) = 0.24046 0.11604
#
# Static dielectric constant tensor:
#      x y z
#    x 3.966700 0.000000 0.000000 
#    y 0.000000 3.412060 0.000000 
#    z 0.000000 0.000000 3.745820 
# 
# 
# High freq. dielectric constant tensor:
#      x y z
#    x 1.808200 0.000000 0.000000 
#    y 0.000000 1.769740 0.000000 
#    z 0.000000 0.000000 1.807160 
# 
# From -- ./inp_files/19527.got.cif
#   From: 2010.03.12/outbox.cif.g09.slc.cpg/sg62_10_cif.got.tgz:19527.got - 2010.04.10 19:12:36.
