data_PCOD8253066
_publ_section_title
;
Structure prediction by ZEFSAII (Michael W. Deem and Ramdas Pophale) SiO2 
 PCOD8253066
Probable space group: P N M A
;
_chemical_formula_sum "Si O2"
_cell_formula_units_Z 64
_cell_length_a 12.168265
_cell_length_b 9.446288
_cell_length_c 27.827828
_cell_angle_alpha 90.000000
_cell_angle_beta 90.000000
_cell_angle_gamma 90.000000
_cell_volume 3198.667899
_symmetry_space_group_name_H-M "P N M A"
_symmetry_group_IT_number 62
_symmetry_cell_setting 'orthorhombic'
loop_
_space_group_symop_operation_xyz
x,y,z
1/2-x,-y,1/2+z
1/2+x,1/2-y,1/2-z
-x,1/2+y,-z
-x,-y,-z
1/2+x,y,1/2-z
1/2-x,1/2+y,1/2+z
x,1/2-y,z
loop_
_atom_site_type_symbol
_atom_site_label
_atom_site_fract_x
_atom_site_fract_y
_atom_site_fract_z
Si Si1 0.528991 0.039746 0.553530
Si Si2 0.275731 0.085100 0.160997
Si Si3 0.054078 0.087121 0.219588
Si Si4 0.711352 0.592816 0.430212
Si Si5 0.754821 0.402103 0.520110
Si Si6 0.123785 0.591270 0.858181
Si Si7 0.015877 0.417152 0.691704
Si Si8 0.329349 0.087139 0.880321
O O1 0.560279 0.913693 0.590359
O O2 0.500000 0.000000 0.500000
O O3 0.420332 0.114856 0.574358
O O4 0.639513 0.131009 0.548111
O O5 0.305046 0.250000 0.152452
O O6 0.169802 0.069016 0.193754
O O7 0.257138 0.010829 0.109977
O O8 0.371924 0.004262 0.188674
O O9 0.037832 0.250000 0.236385
O O10 0.958532 0.040126 0.183163
O O11 0.052751 0.978864 0.263741
O O12 0.764209 0.750000 0.425872
O O13 0.746754 0.525607 0.481178
O O14 0.789834 0.250000 0.497110
O O15 0.839025 0.448993 0.562484
O O16 0.162106 0.750000 0.849220
O O17 0.232912 0.498962 0.854555
O O18 0.038535 0.250000 0.698793
O O19 0.946250 0.447888 0.643522
O O20 0.299384 0.250000 0.872416
#
# Coordination Sequence:
#
# PCOD8253066 Si02
#       8
#     8   8   8   8   8   8   8   8
#     4   9  18  30  50  83 121 159 195 243 299 356
#     4  11  24  44  66  90 123 161 205 250 302 365
#     4  10  23  42  63  90 119 155 199 248 303 364
#     4  11  21  34  56  89 125 160 203 253 305 360
#     4   9  18  34  56  83 120 164 203 243 300 365
#     4  10  20  36  59  86 118 156 199 243 294 359
#     4  11  25  44  65  90 121 157 201 255 308 360
#     4   9  21  40  60  87 123 160 201 250 303 359
#
# _framework density 20.008329
#
# number of rings (size 3 to 8) (size 9 to 14) (size 15 to 20)
#    0.000    2.000    1.250    1.500    1.750    9.500 
#    0.000    0.625    0.000    0.000    0.000    0.000 
#    0.000    0.000    0.000    0.000    0.000    0.000 
#
# Total GULP energy -793077.363625 kJ/mol
# GULP energy per Si atom -12391.833807 kJ/mol
# Density = 1.996279 g / cm^3
# Si number density = 20.008329 Si / 1000 Ang^3
#
#
#
# Elastic Constant Matrix: (Units=GPa)
#
#
# Indices 1 2 3 4 5 6 
#
# 1 64.2781 46.2039 24.3288 0.0000 0.0000 0.0000
# 2 46.2039 132.9284 53.6528 0.0000 0.0000 0.0000
# 3 24.3288 53.6528 90.3272 0.0000 0.0000 0.0000
# 4 0.0000 0.0000 0.0000 32.6149 0.0000 0.0000
# 5 0.0000 0.0000 0.0000 0.0000 26.4151 0.0000
# 6 0.0000 0.0000 0.0000 0.0000 0.0000 23.0418
#
#
#
# Elastic Compliance Matrix: (Units=1/GPa)
#
#
# Indices 1 2 3 4 5 6 
#
# 1 0.020943 -0.006580 -0.001732 0.000000 0.000000 0.000000
# 2 -0.006580 0.011963 -0.005333 0.000000 0.000000 0.000000
# 3 -0.001732 -0.005333 0.014705 0.000000 0.000000 0.000000
# 4 0.000000 0.000000 0.000000 0.030661 0.000000 0.000000
# 5 0.000000 0.000000 0.000000 0.000000 0.037857 0.000000
# 6 0.000000 0.000000 0.000000 0.000000 0.000000 0.043399
#
#
# Mechanical properties :
#
#
# Convention : Reuss Voigt Hill
#
# Bulk Modulus (GPa) = 49.21406 59.54496 54.37951
# Shear Modulus (GPa) = 25.82737 27.30425 26.56581
#
# Velocity S-wave (km/s) = 3.59671 3.69812 3.64777
# Velocity P-wave (km/s) = 6.47291 6.93249 6.70664
#
# Compressibility (1/GPa) = 0.02031940
#
# Stress axis : x y z
#
# Youngs Moduli (GPa) = 47.74849 83.59321 68.00278
#
# Poissons Ratio (x) = 0.55007 0.11780
# Poissons Ratio (y) = 0.31420 0.36268
# Poissons Ratio (z) = 0.08271 0.44583
#
# Static dielectric constant tensor:
#      x y z
#    x 4.104660 0.000000 0.000000 
#    y 0.000000 3.607690 0.000000 
#    z 0.000000 0.000000 4.110150 
# 
# 
# High freq. dielectric constant tensor:
#      x y z
#    x 1.767960 0.000000 0.000000 
#    y 0.000000 1.781280 0.000000 
#    z 0.000000 0.000000 1.783640 
# 
# From -- ./inp_files/32503.got.cif
#   From: 2010.03.12/outbox.cif.g09.slc.cpg/sg62_17_cif.got.tgz:32503.got - 2010.04.10 19:12:36.
