data_PCOD8253208
_publ_section_title
;
Structure prediction by ZEFSAII (Michael W. Deem and Ramdas Pophale) SiO2 
 PCOD8253208
Probable space group: P N M A
;
_chemical_formula_sum "Si O2"
_cell_formula_units_Z 64
_cell_length_a 29.007709
_cell_length_b 18.906981
_cell_length_c 5.312534
_cell_angle_alpha 90.000000
_cell_angle_beta 90.000000
_cell_angle_gamma 90.000000
_cell_volume 2913.649725
_symmetry_space_group_name_H-M "P N M A"
_symmetry_group_IT_number 62
_symmetry_cell_setting 'orthorhombic'
loop_
_space_group_symop_operation_xyz
x,y,z
1/2-x,-y,1/2+z
1/2+x,1/2-y,1/2-z
-x,1/2+y,-z
-x,-y,-z
1/2+x,y,1/2-z
1/2-x,1/2+y,1/2+z
x,1/2-y,z
loop_
_atom_site_type_symbol
_atom_site_label
_atom_site_fract_x
_atom_site_fract_y
_atom_site_fract_z
Si Si1 0.830487 0.420285 0.076250
Si Si2 0.393551 0.585003 0.806573
Si Si3 0.660687 0.327673 0.862798
Si Si4 0.033307 0.168140 0.047271
Si Si5 0.251285 0.171763 0.298598
Si Si6 0.109538 0.933094 0.422613
Si Si7 0.804925 0.567788 0.970512
Si Si8 0.976361 0.331574 0.554176
O O1 0.797861 0.351201 0.058875
O O2 0.857616 0.422646 0.337997
O O3 0.795671 0.488608 0.069783
O O4 0.864687 0.417682 0.840807
O O5 0.386832 0.652138 0.992293
O O6 0.423111 0.614917 0.572302
O O7 0.413896 0.511840 0.921191
O O8 0.340436 0.560626 0.760064
O O9 0.652866 0.250000 0.743543
O O10 0.707101 0.325825 0.025359
O O11 0.664405 0.386732 0.656420
O O12 0.048935 0.250000 0.033367
O O13 0.007259 0.145589 0.793121
O O14 0.002604 0.153969 0.294096
O O15 0.258720 0.250000 0.178947
O O16 0.241996 0.111207 0.086725
O O17 0.069627 0.876436 0.447069
O O18 0.961962 0.250000 0.579637
#
# Coordination Sequence:
#
# PCOD8253208 Si02
#       8
#     8   8   8   8   8   8   8   8
#     4  11  25  41  66  92 124 166 219 258 313 373
#     4  10  22  38  58  92 126 156 209 244 312 374
#     4  10  20  37  59  86 123 162 199 254 312 368
#     4  10  22  39  63  93 123 159 203 253 310 382
#     4  10  24  40  60  93 126 165 219 265 314 374
#     4  11  24  43  64  91 123 165 210 263 311 373
#     4  10  22  38  61  88 127 168 199 260 316 380
#     4  10  23  42  63  90 124 163 206 256 318 368
#
# _framework density 21.965577
#
# number of rings (size 3 to 8) (size 9 to 14) (size 15 to 20)
#    0.000    1.750    1.250    1.500    5.250    3.500 
#    0.000    0.000    0.000    0.000    0.000    0.000 
#    0.000    0.000    0.000    0.000    0.000    0.000 
#
# Total GULP energy -793096.794487 kJ/mol
# GULP energy per Si atom -12392.137414 kJ/mol
# Density = 2.191558 g / cm^3
# Si number density = 21.965577 Si / 1000 Ang^3
#
#
#
# Elastic Constant Matrix: (Units=GPa)
#
#
# Indices 1 2 3 4 5 6 
#
# 1 71.9940 46.8339 12.9803 0.0000 0.0000 0.0000
# 2 46.8339 110.0634 10.3160 0.0000 0.0000 0.0000
# 3 12.9803 10.3160 86.4453 0.0000 0.0000 0.0000
# 4 0.0000 0.0000 0.0000 21.4634 0.0000 0.0000
# 5 0.0000 0.0000 0.0000 0.0000 27.1568 0.0000
# 6 0.0000 0.0000 0.0000 0.0000 0.0000 28.9540
#
#
#
# Elastic Compliance Matrix: (Units=1/GPa)
#
#
# Indices 1 2 3 4 5 6 
#
# 1 0.019530 -0.008127 -0.001963 0.000000 0.000000 0.000000
# 2 -0.008127 0.012570 -0.000280 0.000000 0.000000 0.000000
# 3 -0.001963 -0.000280 0.011896 0.000000 0.000000 0.000000
# 4 0.000000 0.000000 0.000000 0.046591 0.000000 0.000000
# 5 0.000000 0.000000 0.000000 0.000000 0.036823 0.000000
# 6 0.000000 0.000000 0.000000 0.000000 0.000000 0.034538
#
#
# Mechanical properties :
#
#
# Convention : Reuss Voigt Hill
#
# Bulk Modulus (GPa) = 42.99575 45.41812 44.20693
# Shear Modulus (GPa) = 26.25509 28.73968 27.49738
#
# Velocity S-wave (km/s) = 3.46104 3.62110 3.54197
# Velocity P-wave (km/s) = 5.96560 6.18102 6.07426
#
# Compressibility (1/GPa) = 0.02325811
#
# Stress axis : x y z
#
# Youngs Moduli (GPa) = 51.20202 79.55512 84.06101
#
# Poissons Ratio (x) = 0.64651 0.16500
# Poissons Ratio (y) = 0.41610 0.02352
# Poissons Ratio (z) = 0.10050 0.02226
#
# Static dielectric constant tensor:
#      x y z
#    x 3.688370 0.000000 0.000000 
#    y 0.000000 4.356410 0.000000 
#    z 0.000000 0.000000 4.074220 
# 
# 
# High freq. dielectric constant tensor:
#      x y z
#    x 1.849760 0.000000 0.000000 
#    y 0.000000 1.875920 0.000000 
#    z 0.000000 0.000000 1.862940 
# 
# From -- ./inp_files/3679.got.cif
#   From: 2010.03.12/outbox.cif.g09.slc.cpg/sg62_2_cif.got.tgz:3679.got - 2010.04.10 19:12:36.
