data_PCOD8253132
_publ_section_title
;
Structure prediction by ZEFSAII (Michael W. Deem and Ramdas Pophale) SiO2 
 PCOD8253132
Probable space group: P N M A
;
_chemical_formula_sum "Si O2"
_cell_formula_units_Z 48
_cell_length_a 9.979447
_cell_length_b 17.170447
_cell_length_c 14.608477
_cell_angle_alpha 90.000000
_cell_angle_beta 90.000000
_cell_angle_gamma 90.000000
_cell_volume 2503.185408
_symmetry_space_group_name_H-M "P N M A"
_symmetry_group_IT_number 62
_symmetry_cell_setting 'orthorhombic'
loop_
_space_group_symop_operation_xyz
x,y,z
1/2-x,-y,1/2+z
1/2+x,1/2-y,1/2-z
-x,1/2+y,-z
-x,-y,-z
1/2+x,y,1/2-z
1/2-x,1/2+y,1/2+z
x,1/2-y,z
loop_
_atom_site_type_symbol
_atom_site_label
_atom_site_fract_x
_atom_site_fract_y
_atom_site_fract_z
Si Si1 0.975827 0.921056 0.055920
Si Si2 0.064624 0.447273 0.279639
Si Si3 0.821129 0.548429 0.234384
Si Si4 0.263999 0.339999 0.619899
Si Si5 0.191541 0.338158 0.417821
Si Si6 0.499835 0.338910 0.381282
O O1 0.859553 0.932459 0.129913
O O2 0.105351 0.893738 0.111960
O O3 0.936324 0.855488 0.981347
O O4 0.000000 0.000000 0.000000
O O5 0.173245 0.514079 0.268307
O O6 0.086772 0.396729 0.371177
O O7 0.919415 0.486757 0.283058
O O8 0.075188 0.390657 0.192709
O O9 0.821604 0.627375 0.294848
O O10 0.303203 0.250000 0.637506
O O11 0.177791 0.347362 0.526965
O O12 0.157033 0.250000 0.388554
O O13 0.341816 0.359643 0.385005
O O14 0.524588 0.250000 0.355387
#
# Coordination Sequence:
#
# PCOD8253132 Si02
#       6
#     8   8   8   8   8   8
#     4  11  19  39  63  89 119 159 211 248 297 366
#     4  12  21  38  59  91 121 152 201 252 299 360
#     4  12  23  37  63  88 119 157 199 250 303 359
#     4  10  22  40  60  87 122 162 203 249 310 370
#     4   9  19  37  60  85 120 161 195 245 306 363
#     4  10  20  36  62  89 118 160 206 248 299 366
#
# _framework density 19.175567000000001
#
# number of rings (size 3 to 8) (size 9 to 14) (size 15 to 20)
#    0.000    1.333    5.000    3.000    0.000    2.000 
#    0.000    0.000    0.000    2.000    0.000    0.000 
#    0.000    0.000    0.000    0.000    0.000    0.000 
#
# Total GULP energy -595229.779573 kJ/mol
# GULP energy per Si atom -12400.620408 kJ/mol
# Density = 1.913192 g / cm^3
# Si number density = 19.175567 Si / 1000 Ang^3
#
#
#
# Elastic Constant Matrix: (Units=GPa)
#
#
# Indices 1 2 3 4 5 6 
#
# 1 26.5442 21.1516 15.8801 0.0000 0.0000 0.0000
# 2 21.1516 92.1738 42.4217 0.0000 0.0000 0.0000
# 3 15.8801 42.4217 101.2714 0.0000 0.0000 0.0000
# 4 0.0000 0.0000 0.0000 42.7302 0.0000 0.0000
# 5 0.0000 0.0000 0.0000 0.0000 32.5478 0.0000
# 6 0.0000 0.0000 0.0000 0.0000 0.0000 30.1705
#
#
#
# Elastic Compliance Matrix: (Units=1/GPa)
#
#
# Indices 1 2 3 4 5 6 
#
# 1 0.047106 -0.009180 -0.003541 0.000000 0.000000 0.000000
# 2 -0.009180 0.015229 -0.004940 0.000000 0.000000 0.000000
# 3 -0.003541 -0.004940 0.012499 0.000000 0.000000 0.000000
# 4 0.000000 0.000000 0.000000 0.023403 0.000000 0.000000
# 5 0.000000 0.000000 0.000000 0.000000 0.030724 0.000000
# 6 0.000000 0.000000 0.000000 0.000000 0.000000 0.033145
#
#
# Mechanical properties :
#
#
# Convention : Reuss Voigt Hill
#
# Bulk Modulus (GPa) = 25.30842 42.09958 33.70400
# Shear Modulus (GPa) = 23.74178 30.45878 27.10028
#
# Velocity S-wave (km/s) = 3.52252 3.98982 3.76343
# Velocity P-wave (km/s) = 5.45629 6.57475 6.04146
#
# Compressibility (1/GPa) = 0.03951254
#
# Stress axis : x y z
#
# Youngs Moduli (GPa) = 21.22850 65.66365 80.00633
#
# Poissons Ratio (x) = 0.60279 0.28332
# Poissons Ratio (y) = 0.19488 0.39522
# Poissons Ratio (z) = 0.07518 0.32437
#
# Static dielectric constant tensor:
#      x y z
#    x 3.194090 0.000000 0.000000 
#    y 0.000000 3.657120 0.000000 
#    z 0.000000 0.000000 3.644970 
# 
# 
# High freq. dielectric constant tensor:
#      x y z
#    x 1.710860 0.000000 0.000000 
#    y 0.000000 1.760770 0.000000 
#    z 0.000000 0.000000 1.755150 
# 
# From -- ./inp_files/16958.got.cif
#   From: 2010.03.12/outbox.cif.g09.slc.cpg/sg62_9_cif.got.tgz:16958.got - 2010.04.10 19:12:36.
