data_PCOD8253595
_publ_section_title
;
Structure prediction by ZEFSAII (Michael W. Deem and Ramdas Pophale) SiO2 
 PCOD8253595
Probable space group: P N M A
;
_chemical_formula_sum "Si O2"
_cell_formula_units_Z 56
_cell_length_a 8.750017
_cell_length_b 15.949721
_cell_length_c 18.650272
_cell_angle_alpha 90.000000
_cell_angle_beta 90.000000
_cell_angle_gamma 90.000000
_cell_volume 2602.838113
_symmetry_space_group_name_H-M "P N M A"
_symmetry_group_IT_number 62
_symmetry_cell_setting 'orthorhombic'
loop_
_space_group_symop_operation_xyz
x,y,z
1/2-x,-y,1/2+z
1/2+x,1/2-y,1/2-z
-x,1/2+y,-z
-x,-y,-z
1/2+x,y,1/2-z
1/2-x,1/2+y,1/2+z
x,1/2-y,z
loop_
_atom_site_type_symbol
_atom_site_label
_atom_site_fract_x
_atom_site_fract_y
_atom_site_fract_z
Si Si1 0.550900 0.844191 0.066887
Si Si2 0.303083 0.250000 0.160762
Si Si3 0.011465 0.582859 0.163612
Si Si4 0.767013 0.415187 0.954311
Si Si5 0.804316 0.152983 0.712991
Si Si6 0.431640 0.091154 0.400873
Si Si7 0.554599 0.750000 0.686211
Si Si8 0.266820 0.099057 0.062159
O O1 0.604494 0.750000 0.053482
O O2 0.371510 0.850705 0.050141
O O3 0.581849 0.870250 0.148366
O O4 0.655805 0.899439 0.015517
O O5 0.406326 0.250000 0.230559
O O6 0.345338 0.165765 0.115925
O O7 0.127419 0.250000 0.182765
O O8 0.869647 0.638592 0.188730
O O9 0.957811 0.486981 0.152453
O O10 0.084386 0.618011 0.089189
O O11 0.145997 0.591477 0.222755
O O12 0.713758 0.501828 0.915051
O O13 0.808718 0.430249 0.037680
O O14 0.820537 0.250000 0.736590
O O15 0.373889 0.168399 0.352416
O O16 0.586495 0.118513 0.441897
#
# Coordination Sequence:
#
# PCOD8253595 Si02
#       8
#     8   4   8   8   8   8   4   8
#     4  11  23  38  62  97 127 165 208 262 324 379
#     4  10  22  40  64  88 125 166 209 264 318 384
#     4  11  23  42  64  91 130 173 213 266 324 386
#     4  11  23  39  65  95 128 164 220 266 322 389
#     4  11  24  41  63  93 131 168 215 260 323 393
#     4  10  23  42  65  92 126 169 219 269 325 388
#     4  10  24  40  60  94 125 164 217 264 328 384
#     4  10  20  42  62  88 123 167 211 259 320 380
#
# _framework density 21.514977999999999
#
# number of rings (size 3 to 8) (size 9 to 14) (size 15 to 20)
#    0.000    1.429    0.714    5.143    1.000    8.000 
#    0.000    0.000    0.000    0.000    0.000    0.000 
#    0.000    0.000    0.000    0.000    0.000    0.000 
#
# Total GULP energy -694389.969766 kJ/mol
# GULP energy per Si atom -12399.820889 kJ/mol
# Density = 2.146601 g / cm^3
# Si number density = 21.514978 Si / 1000 Ang^3
#
#
#
# Elastic Constant Matrix: (Units=GPa)
#
#
# Indices 1 2 3 4 5 6 
#
# 1 58.9437 31.1242 27.1119 0.0000 0.0000 0.0000
# 2 31.1242 77.9331 62.7218 0.0000 0.0000 0.0000
# 3 27.1119 62.7218 118.9686 0.0000 0.0000 0.0000
# 4 0.0000 0.0000 0.0000 28.2886 0.0000 0.0000
# 5 0.0000 0.0000 0.0000 0.0000 48.1821 0.0000
# 6 0.0000 0.0000 0.0000 0.0000 0.0000 28.2217
#
#
#
# Elastic Compliance Matrix: (Units=1/GPa)
#
#
# Indices 1 2 3 4 5 6 
#
# 1 0.021528 -0.008076 -0.000648 0.000000 0.000000 0.000000
# 2 -0.008076 0.025318 -0.011508 0.000000 0.000000 0.000000
# 3 -0.000648 -0.011508 0.014620 0.000000 0.000000 0.000000
# 4 0.000000 0.000000 0.000000 0.035350 0.000000 0.000000
# 5 0.000000 0.000000 0.000000 0.000000 0.020755 0.000000
# 6 0.000000 0.000000 0.000000 0.000000 0.000000 0.035434
#
#
# Mechanical properties :
#
#
# Convention : Reuss Voigt Hill
#
# Bulk Modulus (GPa) = 47.61275 55.30680 51.45978
# Shear Modulus (GPa) = 24.94143 29.93098 27.43620
#
# Velocity S-wave (km/s) = 3.40848 3.73388 3.57489
# Velocity P-wave (km/s) = 6.13746 6.65967 6.40389
#
# Compressibility (1/GPa) = 0.02100278
#
# Stress axis : x y z
#
# Youngs Moduli (GPa) = 46.45148 39.49697 68.39763
#
# Poissons Ratio (x) = 0.31897 0.04435
# Poissons Ratio (y) = 0.37513 0.78711
# Poissons Ratio (z) = 0.03012 0.45452
#
# Static dielectric constant tensor:
#      x y z
#    x 3.727650 0.000000 0.000000 
#    y 0.000000 3.846930 0.000000 
#    z 0.000000 0.000000 3.939800 
# 
# 
# High freq. dielectric constant tensor:
#      x y z
#    x 1.838050 0.000000 0.000000 
#    y 0.000000 1.843570 0.000000 
#    z 0.000000 0.000000 1.846100 
# 
# From -- ./inp_files/22443.got.cif
#   From: 2010.03.12/outbox.cif.g09.slc.cpg/sg62_12_cif.got.tgz:22443.got - 2010.04.10 19:12:36.
