data_PCOD8253596
_publ_section_title
;
Structure prediction by ZEFSAII (Michael W. Deem and Ramdas Pophale) SiO2 
 PCOD8253596
Probable space group: P N M A
;
_chemical_formula_sum "Si O2"
_cell_formula_units_Z 56
_cell_length_a 11.091909
_cell_length_b 19.470121
_cell_length_c 11.902640
_cell_angle_alpha 90.000000
_cell_angle_beta 90.000000
_cell_angle_gamma 90.000000
_cell_volume 2570.503780
_symmetry_space_group_name_H-M "P N M A"
_symmetry_group_IT_number 62
_symmetry_cell_setting 'orthorhombic'
loop_
_space_group_symop_operation_xyz
x,y,z
1/2-x,-y,1/2+z
1/2+x,1/2-y,1/2-z
-x,1/2+y,-z
-x,-y,-z
1/2+x,y,1/2-z
1/2-x,1/2+y,1/2+z
x,1/2-y,z
loop_
_atom_site_type_symbol
_atom_site_label
_atom_site_fract_x
_atom_site_fract_y
_atom_site_fract_z
Si Si1 0.280664 0.750000 0.648905
Si Si2 0.529765 0.750000 0.733923
Si Si3 0.201933 0.898442 0.315320
Si Si4 0.465715 0.940794 0.089459
Si Si5 0.589491 0.879651 0.589880
Si Si6 0.801000 0.026153 0.271085
Si Si7 0.670643 0.391511 0.459278
Si Si8 0.233139 0.169848 0.592496
O O1 0.380455 0.750000 0.755803
O O2 0.135617 0.750000 0.671322
O O3 0.313075 0.812579 0.569616
O O4 0.554462 0.817968 0.668248
O O5 0.305120 0.900622 0.409363
O O6 0.232393 0.839965 0.223807
O O7 0.074068 0.889843 0.376312
O O8 0.194528 0.973336 0.257438
O O9 0.367803 0.884215 0.048376
O O10 0.418911 0.981437 0.198829
O O11 0.500000 0.000000 0.000000
O O12 0.677952 0.927849 0.661337
O O13 0.465846 0.918487 0.558209
O O14 0.649763 0.849261 0.479007
O O15 0.763652 0.067115 0.381933
O O16 0.195695 0.250000 0.574172
#
# Coordination Sequence:
#
# PCOD8253596 Si02
#       8
#     4   4   8   8   8   8   8   8
#     4  10  22  42  67  96 132 176 227 283 352 413
#     4  10  20  42  63  98 134 172 225 287 348 417
#     4  11  26  44  66  98 135 179 229 283 347 420
#     4  11  23  47  70 102 141 179 232 298 352 424
#     4  11  23  42  67  96 137 176 229 283 345 420
#     4  11  23  42  71 101 132 174 233 282 351 412
#     4  11  24  43  68  98 132 179 224 285 348 413
#     4  11  27  46  69 101 138 187 238 289 361 430
#
# _framework density 21.785613000000001
#
# number of rings (size 3 to 8) (size 9 to 14) (size 15 to 20)
#    0.000    1.143    3.571    1.714    7.000    1.143 
#    2.571    0.000    0.000    0.000    0.000    0.000 
#    0.000    0.000    0.000    0.000    0.000    0.000 
#
# Total GULP energy -693810.098323 kJ/mol
# GULP energy per Si atom -12389.466041 kJ/mol
# Density = 2.173603 g / cm^3
# Si number density = 21.785613 Si / 1000 Ang^3
#
#
#
# Elastic Constant Matrix: (Units=GPa)
#
#
# Indices 1 2 3 4 5 6 
#
# 1 84.1760 30.1370 19.2216 0.0000 0.0000 0.0000
# 2 30.1370 110.0423 28.1188 0.0000 0.0000 0.0000
# 3 19.2216 28.1188 99.7318 0.0000 0.0000 0.0000
# 4 0.0000 0.0000 0.0000 29.5111 0.0000 0.0000
# 5 0.0000 0.0000 0.0000 0.0000 28.4095 0.0000
# 6 0.0000 0.0000 0.0000 0.0000 0.0000 31.7296
#
#
#
# Elastic Compliance Matrix: (Units=1/GPa)
#
#
# Indices 1 2 3 4 5 6 
#
# 1 0.013425 -0.003250 -0.001671 0.000000 0.000000 0.000000
# 2 -0.003250 0.010580 -0.002357 0.000000 0.000000 0.000000
# 3 -0.001671 -0.002357 0.011013 0.000000 0.000000 0.000000
# 4 0.000000 0.000000 0.000000 0.033886 0.000000 0.000000
# 5 0.000000 0.000000 0.000000 0.000000 0.035200 0.000000
# 6 0.000000 0.000000 0.000000 0.000000 0.000000 0.031516
#
#
# Mechanical properties :
#
#
# Convention : Reuss Voigt Hill
#
# Bulk Modulus (GPa) = 48.86833 49.87831 49.37332
# Shear Modulus (GPa) = 31.84815 32.36156 32.10485
#
# Velocity S-wave (km/s) = 3.82761 3.85834 3.84301
# Velocity P-wave (km/s) = 6.48185 6.54170 6.51184
#
# Compressibility (1/GPa) = 0.02046315
#
# Stress axis : x y z
#
# Youngs Moduli (GPa) = 74.48835 94.52213 90.79851
#
# Poissons Ratio (x) = 0.30716 0.15174
# Poissons Ratio (y) = 0.24206 0.21397
# Poissons Ratio (z) = 0.12449 0.22274
#
# Static dielectric constant tensor:
#      x y z
#    x 4.717030 0.000000 0.000000 
#    y 0.000000 4.002010 0.000000 
#    z 0.000000 0.000000 3.855130 
# 
# 
# High freq. dielectric constant tensor:
#      x y z
#    x 1.864930 0.000000 0.000000 
#    y 0.000000 1.862620 0.000000 
#    z 0.000000 0.000000 1.847080 
# 
# From -- ./inp_files/12431.got.cif
#   From: 2010.03.12/outbox.cif.g09.slc.cpg/sg62_7_cif.got.tgz:12431.got - 2010.04.10 19:12:36.
