data_PCOD8253720
_publ_section_title
;
Structure prediction by ZEFSAII (Michael W. Deem and Ramdas Pophale) SiO2 
 PCOD8253720
Probable space group: P N M A
;
_chemical_formula_sum "Si O2"
_cell_formula_units_Z 64
_cell_length_a 9.069830
_cell_length_b 32.812632
_cell_length_c 11.210440
_cell_angle_alpha 90.000000
_cell_angle_beta 90.000000
_cell_angle_gamma 90.000000
_cell_volume 3336.282930
_symmetry_space_group_name_H-M "P N M A"
_symmetry_group_IT_number 62
_symmetry_cell_setting 'orthorhombic'
loop_
_space_group_symop_operation_xyz
x,y,z
1/2-x,-y,1/2+z
1/2+x,1/2-y,1/2-z
-x,1/2+y,-z
-x,-y,-z
1/2+x,y,1/2-z
1/2-x,1/2+y,1/2+z
x,1/2-y,z
loop_
_atom_site_type_symbol
_atom_site_label
_atom_site_fract_x
_atom_site_fract_y
_atom_site_fract_z
Si Si1 0.411858 0.125967 0.559754
Si Si2 0.262762 0.621324 0.501534
Si Si3 0.146767 0.025514 0.626753
Si Si4 0.729293 0.427246 0.095793
Si Si5 0.408722 0.065777 0.177351
Si Si6 0.207733 0.795441 0.406792
Si Si7 0.529311 0.705044 0.319443
Si Si8 0.135870 0.571443 0.285690
O O1 0.561280 0.120183 0.484297
O O2 0.272916 0.113384 0.478095
O O3 0.387956 0.172874 0.595754
O O4 0.423971 0.098687 0.678105
O O5 0.193377 0.598925 0.613988
O O6 0.204955 0.668388 0.504156
O O7 0.221906 0.600255 0.376741
O O8 0.216914 0.036087 0.498762
O O9 0.259465 0.035571 0.734341
O O10 0.998456 0.051286 0.643643
O O11 0.112320 0.978035 0.617322
O O12 0.862321 0.437872 0.185033
O O13 0.578165 0.420179 0.167621
O O14 0.204586 0.750000 0.466431
O O15 0.354069 0.800962 0.326505
O O16 0.069648 0.801121 0.318898
O O17 0.577789 0.750000 0.363239
#
# Coordination Sequence:
#
# PCOD8253720 Si02
#       8
#     8   8   8   8   8   8   8   8
#     4  10  21  36  57  85 118 152 192 233 292 352
#     4  11  21  35  58  82 117 153 193 235 291 342
#     4  11  24  39  60  83 120 151 196 244 296 343
#     4  11  25  41  59  83 111 153 198 243 293 338
#     4  12  25  41  60  80 114 154 204 246 290 346
#     4   9  18  31  52  84 120 151 186 233 291 353
#     4   9  17  30  52  84 119 150 181 230 291 356
#     4  11  20  35  57  87 114 154 188 237 286 351
#
# _framework density 19.183025000000001
#
# number of rings (size 3 to 8) (size 9 to 14) (size 15 to 20)
#    0.000    1.500    3.750    1.875    1.750    1.000 
#    0.000    3.125    0.000    0.750    0.000    0.000 
#    0.000    0.000    0.000    0.000    0.000    0.000 
#
# Total GULP energy -793665.307086 kJ/mol
# GULP energy per Si atom -12401.020423 kJ/mol
# Density = 1.913936 g / cm^3
# Si number density = 19.183025 Si / 1000 Ang^3
#
#
#
# Elastic Constant Matrix: (Units=GPa)
#
#
# Indices 1 2 3 4 5 6 
#
# 1 63.4283 38.7753 29.6523 0.0000 0.0000 0.0000
# 2 38.7753 128.5218 34.2986 0.0000 0.0000 0.0000
# 3 29.6523 34.2986 75.4211 0.0000 0.0000 0.0000
# 4 0.0000 0.0000 0.0000 25.5803 0.0000 0.0000
# 5 0.0000 0.0000 0.0000 0.0000 37.9803 0.0000
# 6 0.0000 0.0000 0.0000 0.0000 0.0000 24.8790
#
#
#
# Elastic Compliance Matrix: (Units=1/GPa)
#
#
# Indices 1 2 3 4 5 6 
#
# 1 0.021689 -0.004857 -0.006318 0.000000 0.000000 0.000000
# 2 -0.004857 0.009943 -0.002612 0.000000 0.000000 0.000000
# 3 -0.006318 -0.002612 0.016931 0.000000 0.000000 0.000000
# 4 0.000000 0.000000 0.000000 0.039093 0.000000 0.000000
# 5 0.000000 0.000000 0.000000 0.000000 0.026329 0.000000
# 6 0.000000 0.000000 0.000000 0.000000 0.000000 0.040195
#
#
# Mechanical properties :
#
#
# Convention : Reuss Voigt Hill
#
# Bulk Modulus (GPa) = 47.64706 52.53596 50.09151
# Shear Modulus (GPa) = 26.48988 28.66426 27.57707
#
# Velocity S-wave (km/s) = 3.72008 3.86975 3.79565
# Velocity P-wave (km/s) = 6.58362 6.88569 6.73635
#
# Compressibility (1/GPa) = 0.02098765
#
# Stress axis : x y z
#
# Youngs Moduli (GPa) = 46.10619 100.56931 59.06389
#
# Poissons Ratio (x) = 0.48851 0.37318
# Poissons Ratio (y) = 0.22396 0.15428
# Poissons Ratio (z) = 0.29131 0.26270
#
# Static dielectric constant tensor:
#      x y z
#    x 3.592330 0.000000 0.000000 
#    y 0.000000 3.675470 0.000000 
#    z 0.000000 0.000000 3.267730 
# 
# 
# High freq. dielectric constant tensor:
#      x y z
#    x 1.753640 0.000000 0.000000 
#    y 0.000000 1.748090 0.000000 
#    z 0.000000 0.000000 1.719940 
# 
# From -- ./inp_files/11547.got.cif
#   From: 2010.03.12/outbox.cif.g09.slc.cpg/sg62_6_cif.got.tgz:11547.got - 2010.04.10 19:12:36.
