data_PCOD8253382
_publ_section_title
;
Structure prediction by ZEFSAII (Michael W. Deem and Ramdas Pophale) SiO2 
 PCOD8253382
Probable space group: P N M A
;
_chemical_formula_sum "Si O2"
_cell_formula_units_Z 48
_cell_length_a 11.163506
_cell_length_b 18.314440
_cell_length_c 11.972776
_cell_angle_alpha 90.000000
_cell_angle_beta 90.000000
_cell_angle_gamma 90.000000
_cell_volume 2447.874292
_symmetry_space_group_name_H-M "P N M A"
_symmetry_group_IT_number 62
_symmetry_cell_setting 'orthorhombic'
loop_
_space_group_symop_operation_xyz
x,y,z
1/2-x,-y,1/2+z
1/2+x,1/2-y,1/2-z
-x,1/2+y,-z
-x,-y,-z
1/2+x,y,1/2-z
1/2-x,1/2+y,1/2+z
x,1/2-y,z
loop_
_atom_site_type_symbol
_atom_site_label
_atom_site_fract_x
_atom_site_fract_y
_atom_site_fract_z
Si Si1 0.557100 0.084074 0.914055
Si Si2 0.840391 0.519846 0.611774
Si Si3 0.110159 0.665505 0.576211
Si Si4 0.392644 0.560097 0.327433
Si Si5 0.617243 0.334510 0.480189
Si Si6 0.515342 0.410740 0.275725
O O1 0.607878 0.103465 0.791208
O O2 0.472690 0.014922 0.892747
O O3 0.671739 0.060955 0.991906
O O4 0.481136 0.147830 0.974214
O O5 0.741769 0.460622 0.637811
O O6 0.855854 0.577223 0.713787
O O7 0.097403 0.750000 0.605422
O O8 0.243909 0.644942 0.538832
O O9 0.081407 0.620010 0.687837
O O10 0.437879 0.617933 0.418795
O O11 0.470159 0.486300 0.331365
O O12 0.602380 0.250000 0.510743
O O13 0.537914 0.351626 0.371553
#
# Coordination Sequence:
#
# PCOD8253382 Si02
#       6
#     8   8   8   8   8   8
#     4   9  19  35  54  83 112 149 188 239 278 339
#     4   9  18  33  57  81 111 138 194 239 283 326
#     4  10  20  38  62  82 113 157 195 234 290 354
#     4  11  21  34  60  86 117 149 192 241 288 342
#     4  11  23  38  56  83 119 154 191 233 298 362
#     4  10  21  36  58  89 110 147 191 254 287 330
#
# _framework density 19.608848999999999
#
# number of rings (size 3 to 8) (size 9 to 14) (size 15 to 20)
#    0.000    2.000    1.667    3.000    2.333    0.667 
#    0.000    0.000    0.000    1.000    0.000    0.000 
#    0.000    0.000    0.000    0.000    0.000    0.000 
#
# Total GULP energy -594858.805843 kJ/mol
# GULP energy per Si atom -12392.891788 kJ/mol
# Density = 1.956422 g / cm^3
# Si number density = 19.608849 Si / 1000 Ang^3
#
#
#
# Elastic Constant Matrix: (Units=GPa)
#
#
# Indices 1 2 3 4 5 6 
#
# 1 47.1627 20.4023 32.1309 0.0000 0.0000 0.0000
# 2 20.4023 91.1694 51.7067 0.0000 0.0000 0.0000
# 3 32.1309 51.7067 138.3348 0.0000 0.0000 0.0000
# 4 0.0000 0.0000 0.0000 31.4184 0.0000 0.0000
# 5 0.0000 0.0000 0.0000 0.0000 20.3710 0.0000
# 6 0.0000 0.0000 0.0000 0.0000 0.0000 27.8349
#
#
#
# Elastic Compliance Matrix: (Units=1/GPa)
#
#
# Indices 1 2 3 4 5 6 
#
# 1 0.025827 -0.003017 -0.004871 0.000000 0.000000 0.000000
# 2 -0.003017 0.014272 -0.004634 0.000000 0.000000 0.000000
# 3 -0.004871 -0.004634 0.010092 0.000000 0.000000 0.000000
# 4 0.000000 0.000000 0.000000 0.031829 0.000000 0.000000
# 5 0.000000 0.000000 0.000000 0.000000 0.049089 0.000000
# 6 0.000000 0.000000 0.000000 0.000000 0.000000 0.035926
#
#
# Mechanical properties :
#
#
# Convention : Reuss Voigt Hill
#
# Bulk Modulus (GPa) = 39.76582 53.90517 46.83550
# Shear Modulus (GPa) = 24.94249 27.41998 26.18124
#
# Velocity S-wave (km/s) = 3.57038 3.74350 3.65797
# Velocity P-wave (km/s) = 6.10904 6.79963 6.46357
#
# Compressibility (1/GPa) = 0.02514722
#
# Stress axis : x y z
#
# Youngs Moduli (GPa) = 38.71932 70.06834 99.08605
#
# Poissons Ratio (x) = 0.21140 0.48266
# Poissons Ratio (y) = 0.11682 0.45914
# Poissons Ratio (z) = 0.18861 0.32468
#
# Static dielectric constant tensor:
#      x y z
#    x 3.262030 0.000000 0.000000 
#    y 0.000000 3.410220 0.000000 
#    z 0.000000 0.000000 4.015340 
# 
# 
# High freq. dielectric constant tensor:
#      x y z
#    x 1.738250 0.000000 0.000000 
#    y 0.000000 1.748470 0.000000 
#    z 0.000000 0.000000 1.782990 
# 
# From -- ./inp_files/12238.got.cif
#   From: 2010.03.12/outbox.cif.g09.slc.cpg/sg62_7_cif.got.tgz:12238.got - 2010.04.10 19:12:36.
