data_PCOD8253487
_publ_section_title
;
Structure prediction by ZEFSAII (Michael W. Deem and Ramdas Pophale) SiO2 
 PCOD8253487
Probable space group: P N M A
;
_chemical_formula_sum "Si O2"
_cell_formula_units_Z 64
_cell_length_a 15.473804
_cell_length_b 9.044082
_cell_length_c 23.714192
_cell_angle_alpha 90.000000
_cell_angle_beta 90.000000
_cell_angle_gamma 90.000000
_cell_volume 3318.714666
_symmetry_space_group_name_H-M "P N M A"
_symmetry_group_IT_number 62
_symmetry_cell_setting 'orthorhombic'
loop_
_space_group_symop_operation_xyz
x,y,z
1/2-x,-y,1/2+z
1/2+x,1/2-y,1/2-z
-x,1/2+y,-z
-x,-y,-z
1/2+x,y,1/2-z
1/2-x,1/2+y,1/2+z
x,1/2-y,z
loop_
_atom_site_type_symbol
_atom_site_label
_atom_site_fract_x
_atom_site_fract_y
_atom_site_fract_z
Si Si1 0.134757 0.920089 0.999316
Si Si2 0.989029 0.576725 0.213034
Si Si3 0.337231 0.074977 0.222377
Si Si4 0.311012 0.425346 0.999014
Si Si5 0.018944 0.418938 0.916371
Si Si6 0.848857 0.579596 0.733394
Si Si7 0.610482 0.420785 0.107153
Si Si8 0.084837 0.574958 0.606126
O O1 0.160981 0.750000 0.991198
O O2 0.217340 0.015827 0.015185
O O3 0.069820 0.944989 0.050718
O O4 0.093464 0.976419 0.940936
O O5 0.981665 0.750000 0.223918
O O6 0.902382 0.500354 0.234467
O O7 0.998615 0.536954 0.147607
O O8 0.073273 0.518473 0.244437
O O9 0.348911 0.250000 0.228219
O O10 0.239961 0.026572 0.237721
O O11 0.358614 0.018405 0.159159
O O12 0.309144 0.250000 0.996910
O O13 0.338809 0.485333 0.938637
O O14 0.375712 0.484368 0.047583
O O15 0.050345 0.250000 0.922546
O O16 0.869128 0.750000 0.747873
O O17 0.840547 0.558033 0.666250
O O18 0.610028 0.250000 0.088354
O O19 0.512951 0.483212 0.112135
O O20 0.085367 0.750000 0.606886
#
# Coordination Sequence:
#
# PCOD8253487 Si02
#       8
#     8   8   8   8   8   8   8   8
#     4  10  21  39  60  84 114 153 195 238 284 343
#     4  11  23  39  61  91 125 157 191 242 305 357
#     4  10  21  40  63  89 118 156 203 245 290 350
#     4  11  23  36  57  88 117 148 189 241 299 350
#     4   9  21  40  59  83 119 154 190 238 290 343
#     4  10  22  39  64  90 118 157 201 246 291 352
#     4  10  20  39  60  83 115 152 197 244 287 341
#     4   9  19  38  60  82 115 150 191 243 288 342
#
# _framework density 19.284573999999999
#
# number of rings (size 3 to 8) (size 9 to 14) (size 15 to 20)
#    0.000    2.000    1.250    1.500    3.500    2.500 
#    0.000    1.875    0.000    0.000    0.000    0.000 
#    0.000    0.000    0.000    0.000    0.000    0.000 
#
# Total GULP energy -793838.787690 kJ/mol
# GULP energy per Si atom -12403.731058 kJ/mol
# Density = 1.924068 g / cm^3
# Si number density = 19.284574 Si / 1000 Ang^3
#
#
#
# Elastic Constant Matrix: (Units=GPa)
#
#
# Indices 1 2 3 4 5 6 
#
# 1 81.0980 28.1676 14.8679 0.0000 0.0000 0.0000
# 2 28.1676 60.7197 29.1533 0.0000 0.0000 0.0000
# 3 14.8679 29.1533 86.8611 0.0000 0.0000 0.0000
# 4 0.0000 0.0000 0.0000 26.6789 0.0000 0.0000
# 5 0.0000 0.0000 0.0000 0.0000 25.1233 0.0000
# 6 0.0000 0.0000 0.0000 0.0000 0.0000 26.1004
#
#
#
# Elastic Compliance Matrix: (Units=1/GPa)
#
#
# Indices 1 2 3 4 5 6 
#
# 1 0.014705 -0.006691 -0.000271 0.000000 0.000000 0.000000
# 2 -0.006691 0.022678 -0.006466 0.000000 0.000000 0.000000
# 3 -0.000271 -0.006466 0.013729 0.000000 0.000000 0.000000
# 4 0.000000 0.000000 0.000000 0.037483 0.000000 0.000000
# 5 0.000000 0.000000 0.000000 0.000000 0.039804 0.000000
# 6 0.000000 0.000000 0.000000 0.000000 0.000000 0.038314
#
#
# Mechanical properties :
#
#
# Convention : Reuss Voigt Hill
#
# Bulk Modulus (GPa) = 41.22913 41.45070 41.33992
# Shear Modulus (GPa) = 24.79505 26.01317 25.40411
#
# Velocity S-wave (km/s) = 3.58962 3.67674 3.63344
# Velocity P-wave (km/s) = 6.21339 6.29010 6.25187
#
# Compressibility (1/GPa) = 0.02425469
#
# Stress axis : x y z
#
# Youngs Moduli (GPa) = 68.00635 44.09635 72.83720
#
# Poissons Ratio (x) = 0.29506 0.01975
# Poissons Ratio (y) = 0.45504 0.47097
# Poissons Ratio (z) = 0.01844 0.28513
#
# Static dielectric constant tensor:
#      x y z
#    x 3.634080 0.000000 0.000000 
#    y 0.000000 3.399630 0.000000 
#    z 0.000000 0.000000 3.686820 
# 
# 
# High freq. dielectric constant tensor:
#      x y z
#    x 1.758460 0.000000 0.000000 
#    y 0.000000 1.737160 0.000000 
#    z 0.000000 0.000000 1.761660 
# 
# From -- ./inp_files/29806.got.cif
#   From: 2010.03.12/outbox.cif.g09.slc.cpg/sg62_15_cif.got.tgz:29806.got - 2010.04.10 19:12:36.
