data_PCOD8253917
_publ_section_title
;
Structure prediction by ZEFSAII (Michael W. Deem and Ramdas Pophale) SiO2 
 PCOD8253917
Probable space group: P N M A
;
_chemical_formula_sum "Si O2"
_cell_formula_units_Z 64
_cell_length_a 9.729278
_cell_length_b 13.520154
_cell_length_c 24.844809
_cell_angle_alpha 90.000000
_cell_angle_beta 90.000000
_cell_angle_gamma 90.000000
_cell_volume 3268.119390
_symmetry_space_group_name_H-M "P N M A"
_symmetry_group_IT_number 62
_symmetry_cell_setting 'orthorhombic'
loop_
_space_group_symop_operation_xyz
x,y,z
1/2-x,-y,1/2+z
1/2+x,1/2-y,1/2-z
-x,1/2+y,-z
-x,-y,-z
1/2+x,y,1/2-z
1/2-x,1/2+y,1/2+z
x,1/2-y,z
loop_
_atom_site_type_symbol
_atom_site_label
_atom_site_fract_x
_atom_site_fract_y
_atom_site_fract_z
Si Si1 0.876093 0.133638 0.278352
Si Si2 0.769712 0.139742 0.685260
Si Si3 0.028134 0.859996 0.221620
Si Si4 0.413634 0.936668 0.692782
Si Si5 0.733937 0.001155 0.083981
Si Si6 0.505890 0.637960 0.581787
Si Si7 0.741575 0.636681 0.983660
Si Si8 0.522429 0.634065 0.895048
O O1 0.886956 0.250000 0.270039
O O2 0.718140 0.100625 0.274511
O O3 0.938325 0.099645 0.335207
O O4 0.953290 0.080885 0.229714
O O5 0.774790 0.250000 0.659842
O O6 0.637255 0.131532 0.724627
O O7 0.908416 0.120489 0.719177
O O8 0.756094 0.060289 0.638505
O O9 0.071650 0.750000 0.200914
O O10 0.090194 0.944422 0.181998
O O11 0.424339 0.877443 0.637496
O O12 0.874009 0.059877 0.074636
O O13 0.613316 0.079685 0.085984
O O14 0.705672 0.928724 0.034791
O O15 0.563538 0.750000 0.581189
O O16 0.399879 0.622223 0.533084
O O17 0.711997 0.750000 0.999066
O O18 0.646247 0.603403 0.934152
O O19 0.492599 0.750000 0.896909
#
# Coordination Sequence:
#
# PCOD8253917 Si02
#       8
#     8   8   8   8   8   8   8   8
#     4  11  23  37  58  89 126 160 200 242 289 356
#     4  10  21  38  59  86 118 154 197 243 290 348
#     4  10  21  38  57  81 117 157 195 242 295 346
#     4  12  22  38  60  88 121 164 201 241 295 354
#     4  12  22  38  61  93 113 153 203 250 289 356
#     4  11  23  40  60  88 124 158 193 242 302 361
#     4  10  22  43  65  83 114 158 199 247 300 351
#     4  10  22  40  60  87 122 158 194 244 301 351
#
# _framework density 19.583126
#
# number of rings (size 3 to 8) (size 9 to 14) (size 15 to 20)
#    0.000    1.250    2.500    4.125    1.750    0.000 
#    0.000    0.000    0.000    1.500    0.000    0.000 
#    0.000    0.000    0.000    0.000    0.000    0.000 
#
# Total GULP energy -793747.845043 kJ/mol
# GULP energy per Si atom -12402.310079 kJ/mol
# Density = 1.953855 g / cm^3
# Si number density = 19.583126 Si / 1000 Ang^3
#
#
#
# Elastic Constant Matrix: (Units=GPa)
#
#
# Indices 1 2 3 4 5 6 
#
# 1 65.7703 13.8742 0.3979 0.0000 0.0000 0.0000
# 2 13.8742 68.3085 16.4053 0.0000 0.0000 0.0000
# 3 0.3979 16.4053 50.1934 0.0000 0.0000 0.0000
# 4 0.0000 0.0000 0.0000 23.7672 0.0000 0.0000
# 5 0.0000 0.0000 0.0000 0.0000 23.6840 0.0000
# 6 0.0000 0.0000 0.0000 0.0000 0.0000 19.1435
#
#
#
# Elastic Compliance Matrix: (Units=1/GPa)
#
#
# Indices 1 2 3 4 5 6 
#
# 1 0.015932 -0.003479 0.001011 0.000000 0.000000 0.000000
# 2 -0.003479 0.016646 -0.005413 0.000000 0.000000 0.000000
# 3 0.001011 -0.005413 0.021684 0.000000 0.000000 0.000000
# 4 0.000000 0.000000 0.000000 0.042075 0.000000 0.000000
# 5 0.000000 0.000000 0.000000 0.000000 0.042223 0.000000
# 6 0.000000 0.000000 0.000000 0.000000 0.000000 0.052237
#
#
# Mechanical properties :
#
#
# Convention : Reuss Voigt Hill
#
# Bulk Modulus (GPa) = 25.97388 27.29187 26.63288
# Shear Modulus (GPa) = 22.79023 23.55860 23.17441
#
# Velocity S-wave (km/s) = 3.41511 3.47220 3.44377
# Velocity P-wave (km/s) = 5.37055 5.48102 5.42606
#
# Compressibility (1/GPa) = 0.03850022
#
# Stress axis : x y z
#
# Youngs Moduli (GPa) = 62.76613 60.07434 46.11663
#
# Poissons Ratio (x) = 0.20898 -0.04661
# Poissons Ratio (y) = 0.21835 0.24963
# Poissons Ratio (z) = -0.06344 0.32519
#
# Static dielectric constant tensor:
#      x y z
#    x 3.612350 0.000000 0.000000 
#    y 0.000000 3.827200 0.000000 
#    z 0.000000 0.000000 3.383230 
# 
# 
# High freq. dielectric constant tensor:
#      x y z
#    x 1.769900 0.000000 0.000000 
#    y 0.000000 1.781870 0.000000 
#    z 0.000000 0.000000 1.743370 
# 
# From -- ./inp_files/28989.got.cif
#   From: 2010.03.12/outbox.cif.g09.slc.cpg/sg62_15_cif.got.tgz:28989.got - 2010.04.10 19:12:36.
