data_PCOD8254976
_publ_section_title
;
Structure prediction by ZEFSAII (Michael W. Deem and Ramdas Pophale) SiO2 
 PCOD8254976
Probable space group: P N M A
;
_chemical_formula_sum "Si O2"
_cell_formula_units_Z 48
_cell_length_a 21.771687
_cell_length_b 8.574339
_cell_length_c 12.413532
_cell_angle_alpha 90.000000
_cell_angle_beta 90.000000
_cell_angle_gamma 90.000000
_cell_volume 2317.331154
_symmetry_space_group_name_H-M "P N M A"
_symmetry_group_IT_number 62
_symmetry_cell_setting 'orthorhombic'
loop_
_space_group_symop_operation_xyz
x,y,z
1/2-x,-y,1/2+z
1/2+x,1/2-y,1/2-z
-x,1/2+y,-z
-x,-y,-z
1/2+x,y,1/2-z
1/2-x,1/2+y,1/2+z
x,1/2-y,z
loop_
_atom_site_type_symbol
_atom_site_label
_atom_site_fract_x
_atom_site_fract_y
_atom_site_fract_z
Si Si1 0.932260 0.065886 0.518279
Si Si2 0.304652 0.065122 0.574526
Si Si3 0.857412 0.066950 0.150537
Si Si4 0.484108 0.569141 0.385664
Si Si5 0.169725 0.432223 0.630802
Si Si6 0.604488 0.569878 0.248378
O O1 0.939139 0.250000 0.527328
O O2 0.902016 0.996035 0.628690
O O3 0.887363 0.023200 0.420500
O O4 0.000000 0.000000 0.500000
O O5 0.313585 0.250000 0.577670
O O6 0.333595 0.000609 0.463840
O O7 0.233392 0.017654 0.574622
O O8 0.341426 0.993214 0.677910
O O9 0.845546 0.250000 0.161440
O O10 0.928827 0.028761 0.164528
O O11 0.821628 0.977694 0.244703
O O12 0.500000 0.500000 0.500000
O O13 0.466129 0.750000 0.396326
O O14 0.540306 0.544057 0.306639
O O15 0.156893 0.250000 0.618762
O O16 0.620397 0.750000 0.234487
#
# Coordination Sequence:
#
# PCOD8254976 Si02
#       6
#     8   8   8   8   8   8
#     4  11  23  41  67  93 125 164 211 260 313 375
#     4   9  20  39  61  87 121 162 203 255 313 367
#     4  11  22  40  64  89 122 160 207 258 308 365
#     4  11  20  35  60  91 125 160 202 252 309 366
#     4  11  24  41  63  90 125 165 207 254 314 376
#     4   9  19  37  61  87 119 161 203 252 308 362
#
# _framework density 20.713483
#
# number of rings (size 3 to 8) (size 9 to 14) (size 15 to 20)
#    0.000    1.667    1.667    3.000    2.333    1.333 
#    0.000    5.000    0.000    0.000    0.000    0.000 
#    0.000    0.000    0.000    0.000    0.000    0.000 
#
# Total GULP energy -595199.041141 kJ/mol
# GULP energy per Si atom -12399.980024 kJ/mol
# Density = 2.066634 g / cm^3
# Si number density = 20.713483 Si / 1000 Ang^3
#
#
#
# Elastic Constant Matrix: (Units=GPa)
#
#
# Indices 1 2 3 4 5 6 
#
# 1 114.6338 28.8802 52.1473 0.0000 0.0000 0.0000
# 2 28.8802 40.2502 19.7851 0.0000 0.0000 0.0000
# 3 52.1473 19.7851 139.3171 0.0000 0.0000 0.0000
# 4 0.0000 0.0000 0.0000 26.9128 0.0000 0.0000
# 5 0.0000 0.0000 0.0000 0.0000 28.5622 0.0000
# 6 0.0000 0.0000 0.0000 0.0000 0.0000 26.5550
#
#
#
# Elastic Compliance Matrix: (Units=1/GPa)
#
#
# Indices 1 2 3 4 5 6 
#
# 1 0.012078 -0.006927 -0.003537 0.000000 0.000000 0.000000
# 2 -0.006927 0.030682 -0.001764 0.000000 0.000000 0.000000
# 3 -0.003537 -0.001764 0.008752 0.000000 0.000000 0.000000
# 4 0.000000 0.000000 0.000000 0.037157 0.000000 0.000000
# 5 0.000000 0.000000 0.000000 0.000000 0.035011 0.000000
# 6 0.000000 0.000000 0.000000 0.000000 0.000000 0.037658
#
#
# Mechanical properties :
#
#
# Convention : Reuss Voigt Hill
#
# Bulk Modulus (GPa) = 36.96179 55.09180 46.02680
# Shear Modulus (GPa) = 25.66553 29.29859 27.48206
#
# Velocity S-wave (km/s) = 3.52387 3.76502 3.64644
# Velocity P-wave (km/s) = 5.86855 6.74947 6.32437
#
# Compressibility (1/GPa) = 0.02705497
#
# Stress axis : x y z
#
# Youngs Moduli (GPa) = 82.79772 32.59206 114.25505
#
# Poissons Ratio (x) = 0.22578 0.40411
# Poissons Ratio (y) = 0.57356 0.20159
# Poissons Ratio (z) = 0.29285 0.05751
#
# Static dielectric constant tensor:
#      x y z
#    x 3.725920 0.000000 0.000000 
#    y 0.000000 3.482850 0.000000 
#    z 0.000000 0.000000 4.075920 
# 
# 
# High freq. dielectric constant tensor:
#      x y z
#    x 1.818150 0.000000 0.000000 
#    y 0.000000 1.781500 0.000000 
#    z 0.000000 0.000000 1.828600 
# 
# From -- ./inp_files/15127.got.cif
#   From: 2010.03.12/outbox.cif.g09.slc.cpg/sg62_8_cif.got.tgz:15127.got - 2010.04.10 19:12:36.
