data_PCOD8254626
_publ_section_title
;
Structure prediction by ZEFSAII (Michael W. Deem and Ramdas Pophale) SiO2 
 PCOD8254626
Probable space group: P N M A
;
_chemical_formula_sum "Si O2"
_cell_formula_units_Z 40
_cell_length_a 10.121783
_cell_length_b 8.889358
_cell_length_c 22.555578
_cell_angle_alpha 90.000000
_cell_angle_beta 90.000000
_cell_angle_gamma 90.000000
_cell_volume 2029.464130
_symmetry_space_group_name_H-M "P N M A"
_symmetry_group_IT_number 62
_symmetry_cell_setting 'orthorhombic'
loop_
_space_group_symop_operation_xyz
x,y,z
1/2-x,-y,1/2+z
1/2+x,1/2-y,1/2-z
-x,1/2+y,-z
-x,-y,-z
1/2+x,y,1/2-z
1/2-x,1/2+y,1/2+z
x,1/2-y,z
loop_
_atom_site_type_symbol
_atom_site_label
_atom_site_fract_x
_atom_site_fract_y
_atom_site_fract_z
Si Si1 0.359396 0.077097 0.006076
Si Si2 0.246207 0.424081 0.620299
Si Si3 0.521387 0.573311 0.807774
Si Si4 0.212373 0.577700 0.374813
Si Si5 0.985139 0.923229 0.184329
O O1 0.383051 0.250000 0.022901
O O2 0.273746 0.001175 0.057162
O O3 0.277696 0.059717 0.945471
O O4 0.500000 0.000000 0.000000
O O5 0.208213 0.250000 0.614673
O O6 0.155622 0.494991 0.671272
O O7 0.397754 0.448622 0.637806
O O8 0.541759 0.750000 0.810666
O O9 0.402255 0.528541 0.850727
O O10 0.488073 0.524846 0.741266
O O11 0.179748 0.750000 0.357503
O O12 0.350694 0.525314 0.347283
O O13 0.978234 0.750000 0.204685
#
# Coordination Sequence:
#
# PCOD8254626 Si02
#       5
#     8   8   8   8   8
#     4  11  22  38  63  91 120 155 202 251 297 356
#     4  11  23  40  63  89 121 161 201 245 299 358
#     4  12  24  38  61  91 122 158 202 250 298 353
#     4  10  22  41  64  88 118 159 202 245 298 358
#     4  10  23  42  62  87 121 161 201 243 300 363
#
# _framework density 19.709636
#
# number of rings (size 3 to 8) (size 9 to 14) (size 15 to 20)
#    0.000    1.200    2.000    4.200    0.000    8.800 
#    0.000    0.000    0.000    0.000    0.000    0.000 
#    0.000    0.000    0.000    0.000    0.000    0.000 
#
# Total GULP energy -496281.394469 kJ/mol
# GULP energy per Si atom -12407.034862 kJ/mol
# Density = 1.966478 g / cm^3
# Si number density = 19.709636 Si / 1000 Ang^3
#
#
#
# Elastic Constant Matrix: (Units=GPa)
#
#
# Indices 1 2 3 4 5 6 
#
# 1 79.7661 32.0033 11.5094 0.0000 0.0000 0.0000
# 2 32.0033 122.6722 42.4652 0.0000 0.0000 0.0000
# 3 11.5094 42.4652 98.0310 0.0000 0.0000 0.0000
# 4 0.0000 0.0000 0.0000 34.8744 0.0000 0.0000
# 5 0.0000 0.0000 0.0000 0.0000 25.9850 0.0000
# 6 0.0000 0.0000 0.0000 0.0000 0.0000 15.9390
#
#
#
# Elastic Compliance Matrix: (Units=1/GPa)
#
#
# Indices 1 2 3 4 5 6 
#
# 1 0.014003 -0.003628 -0.000072 0.000000 0.000000 0.000000
# 2 -0.003628 0.010530 -0.004135 0.000000 0.000000 0.000000
# 3 -0.000072 -0.004135 0.012001 0.000000 0.000000 0.000000
# 4 0.000000 0.000000 0.000000 0.028674 0.000000 0.000000
# 5 0.000000 0.000000 0.000000 0.000000 0.038484 0.000000
# 6 0.000000 0.000000 0.000000 0.000000 0.000000 0.062739
#
#
# Mechanical properties :
#
#
# Convention : Reuss Voigt Hill
#
# Bulk Modulus (GPa) = 47.93485 52.49170 50.21327
# Shear Modulus (GPa) = 26.44720 29.65911 28.05316
#
# Velocity S-wave (km/s) = 3.66709 3.88339 3.77679
# Velocity P-wave (km/s) = 6.50410 6.84090 6.67463
#
# Compressibility (1/GPa) = 0.02086165
#
# Stress axis : x y z
#
# Youngs Moduli (GPa) = 71.41469 94.96822 83.32826
#
# Poissons Ratio (x) = 0.34455 0.00603
# Poissons Ratio (y) = 0.25909 0.34459
# Poissons Ratio (z) = 0.00517 0.39273
#
# Static dielectric constant tensor:
#      x y z
#    x 3.582470 0.000000 0.000000 
#    y 0.000000 3.719650 0.000000 
#    z 0.000000 0.000000 4.050570 
# 
# 
# High freq. dielectric constant tensor:
#      x y z
#    x 1.771030 0.000000 0.000000 
#    y 0.000000 1.772520 0.000000 
#    z 0.000000 0.000000 1.781200 
# 
# From -- ./inp_files/28580.got.cif
#   From: 2010.03.12/outbox.cif.g09.slc.cpg/sg62_15_cif.got.tgz:28580.got - 2010.04.10 19:12:36.
