data_PCOD8254680
_publ_section_title
;
Structure prediction by ZEFSAII (Michael W. Deem and Ramdas Pophale) SiO2 
 PCOD8254680
Probable space group: P N M A
;
_chemical_formula_sum "Si O2"
_cell_formula_units_Z 64
_cell_length_a 23.182934
_cell_length_b 8.919759
_cell_length_c 15.282533
_cell_angle_alpha 90.000000
_cell_angle_beta 90.000000
_cell_angle_gamma 90.000000
_cell_volume 3160.216684
_symmetry_space_group_name_H-M "P N M A"
_symmetry_group_IT_number 62
_symmetry_cell_setting 'orthorhombic'
loop_
_space_group_symop_operation_xyz
x,y,z
1/2-x,-y,1/2+z
1/2+x,1/2-y,1/2-z
-x,1/2+y,-z
-x,-y,-z
1/2+x,y,1/2-z
1/2-x,1/2+y,1/2+z
x,1/2-y,z
loop_
_atom_site_type_symbol
_atom_site_label
_atom_site_fract_x
_atom_site_fract_y
_atom_site_fract_z
Si Si1 0.550267 0.072126 0.558141
Si Si2 0.636858 0.080711 0.134678
Si Si3 0.334890 0.422351 0.509422
Si Si4 0.216533 0.575187 0.497613
Si Si5 0.311891 0.579315 0.172523
Si Si6 0.066184 0.076097 0.743881
Si Si7 0.184803 0.582817 0.212351
Si Si8 0.005271 0.421258 0.407377
O O1 0.546817 0.250000 0.547851
O O2 0.543643 0.025078 0.660395
O O3 0.500000 0.000000 0.500000
O O4 0.612154 0.017163 0.526428
O O5 0.655784 0.250000 0.111520
O O6 0.569528 0.059061 0.125460
O O7 0.650935 0.043533 0.234954
O O8 0.669845 0.961270 0.075701
O O9 0.341032 0.250000 0.479695
O O10 0.274983 0.487655 0.473294
O O11 0.334053 0.437940 0.613165
O O12 0.230525 0.750000 0.498698
O O13 0.187921 0.528982 0.589266
O O14 0.315258 0.750000 0.136704
O O15 0.365214 0.543328 0.236605
O O16 0.253129 0.556431 0.226515
O O17 0.052823 0.250000 0.729706
O O18 0.035758 0.988607 0.666212
O O19 0.168258 0.750000 0.244498
O O20 0.987398 0.250000 0.420484
O O21 0.000000 0.500000 0.500000
#
# Coordination Sequence:
#
# PCOD8254680 Si02
#       8
#     8   8   8   8   8   8   8   8
#     4  11  25  43  65  93 126 170 217 267 321 378
#     4  11  24  39  58  88 124 159 202 256 310 365
#     4  10  22  42  65  91 124 163 205 257 315 372
#     4  11  22  37  61  93 125 162 203 248 308 380
#     4   9  19  39  62  88 123 158 198 252 311 368
#     4  10  23  42  66  93 126 168 212 260 316 377
#     4   9  20  37  61  89 120 157 198 247 310 375
#     4  11  25  43  64  92 126 166 211 261 314 373
#
# _framework density 20.251776
#
# number of rings (size 3 to 8) (size 9 to 14) (size 15 to 20)
#    0.000    1.750    0.000    4.125    3.500    9.000 
#    0.000    0.000    0.000    0.000    0.000    0.000 
#    0.000    0.000    0.000    0.000    0.000    0.000 
#
# Total GULP energy -793743.872174 kJ/mol
# GULP energy per Si atom -12402.248003 kJ/mol
# Density = 2.020568 g / cm^3
# Si number density = 20.251776 Si / 1000 Ang^3
#
#
#
# Elastic Constant Matrix: (Units=GPa)
#
#
# Indices 1 2 3 4 5 6 
#
# 1 95.5351 56.1701 58.5428 0.0000 0.0000 0.0000
# 2 56.1701 99.3498 56.7115 0.0000 0.0000 0.0000
# 3 58.5428 56.7115 103.6037 0.0000 0.0000 0.0000
# 4 0.0000 0.0000 0.0000 37.1611 0.0000 0.0000
# 5 0.0000 0.0000 0.0000 0.0000 34.1720 0.0000
# 6 0.0000 0.0000 0.0000 0.0000 0.0000 37.1353
#
#
#
# Elastic Compliance Matrix: (Units=1/GPa)
#
#
# Indices 1 2 3 4 5 6 
#
# 1 0.018541 -0.006548 -0.006892 0.000000 0.000000 0.000000
# 2 -0.006548 0.016953 -0.005579 0.000000 0.000000 0.000000
# 3 -0.006892 -0.005579 0.016601 0.000000 0.000000 0.000000
# 4 0.000000 0.000000 0.000000 0.026910 0.000000 0.000000
# 5 0.000000 0.000000 0.000000 0.000000 0.029264 0.000000
# 6 0.000000 0.000000 0.000000 0.000000 0.000000 0.026929
#
#
# Mechanical properties :
#
#
# Convention : Reuss Voigt Hill
#
# Bulk Modulus (GPa) = 71.15283 71.25971 71.20627
# Shear Modulus (GPa) = 28.10223 30.16463 29.13343
#
# Velocity S-wave (km/s) = 3.72915 3.86357 3.79695
# Velocity P-wave (km/s) = 7.33161 7.42739 7.37965
#
# Compressibility (1/GPa) = 0.01405425
#
# Stress axis : x y z
#
# Youngs Moduli (GPa) = 53.93441 58.98802 60.23751
#
# Poissons Ratio (x) = 0.38627 0.41518
# Poissons Ratio (y) = 0.35318 0.33609
# Poissons Ratio (z) = 0.37174 0.32912
#
# Static dielectric constant tensor:
#      x y z
#    x 3.805520 0.000000 0.000000 
#    y 0.000000 3.809990 0.000000 
#    z 0.000000 0.000000 3.682190 
# 
# 
# High freq. dielectric constant tensor:
#      x y z
#    x 1.800110 0.000000 0.000000 
#    y 0.000000 1.795880 0.000000 
#    z 0.000000 0.000000 1.793470 
# 
# From -- ./inp_files/20862.got.cif
#   From: 2010.03.12/outbox.cif.g09.slc.cpg/sg62_11_cif.got.tgz:20862.got - 2010.04.10 19:12:36.
