data_PCOD8254228
_publ_section_title
;
Structure prediction by ZEFSAII (Michael W. Deem and Ramdas Pophale) SiO2 
 PCOD8254228
Probable space group: P N M A
;
_chemical_formula_sum "Si O2"
_cell_formula_units_Z 64
_cell_length_a 9.317232
_cell_length_b 26.577868
_cell_length_c 12.655994
_cell_angle_alpha 90.000000
_cell_angle_beta 90.000000
_cell_angle_gamma 90.000000
_cell_volume 3134.031159
_symmetry_space_group_name_H-M "P N M A"
_symmetry_group_IT_number 62
_symmetry_cell_setting 'orthorhombic'
loop_
_space_group_symop_operation_xyz
x,y,z
1/2-x,-y,1/2+z
1/2+x,1/2-y,1/2-z
-x,1/2+y,-z
-x,-y,-z
1/2+x,y,1/2-z
1/2-x,1/2+y,1/2+z
x,1/2-y,z
loop_
_atom_site_type_symbol
_atom_site_label
_atom_site_fract_x
_atom_site_fract_y
_atom_site_fract_z
Si Si1 0.964995 0.880823 0.582565
Si Si2 0.814167 0.307322 0.335627
Si Si3 0.070392 0.192155 0.999558
Si Si4 0.232233 0.693555 0.903821
Si Si5 0.607067 0.385310 0.680795
Si Si6 0.850108 0.981598 0.687694
Si Si7 0.424107 0.090196 0.864789
Si Si8 0.528261 0.006774 0.622767
O O1 0.832631 0.847385 0.539499
O O2 0.909666 0.930797 0.638204
O O3 0.054334 0.846111 0.662879
O O4 0.067466 0.894401 0.485857
O O5 0.869440 0.250000 0.353761
O O6 0.702522 0.323343 0.426188
O O7 0.741380 0.311543 0.221553
O O8 0.080255 0.250000 0.966792
O O9 0.067193 0.162433 0.889797
O O10 0.930177 0.180391 0.067736
O O11 0.271413 0.750000 0.941970
O O12 0.776680 0.391673 0.686781
O O13 0.550186 0.381141 0.800939
O O14 0.526979 0.433479 0.633385
O O15 0.933406 0.029421 0.638000
O O16 0.678943 0.984067 0.667069
O O17 0.894447 0.982240 0.812383
O O18 0.500000 0.000000 0.500000
#
# Coordination Sequence:
#
# PCOD8254228 Si02
#       8
#     8   8   8   8   8   8   8   8
#     4  12  23  37  66  91 129 161 213 252 315 375
#     4  10  21  40  62  88 123 165 207 257 317 375
#     4  10  21  40  63  89 123 162 211 260 312 375
#     4  10  23  39  59  92 127 163 203 255 315 377
#     4  10  22  42  65  85 123 160 211 248 331 358
#     4  10  25  42  61  98 131 166 215 264 313 378
#     4  10  23  43  63  91 120 170 201 265 307 380
#     4  10  24  43  67  92 131 173 215 267 317 382
#
# _framework density 20.420983
#
# number of rings (size 3 to 8) (size 9 to 14) (size 15 to 20)
#    0.000    1.750    1.250    1.500    5.250    8.000 
#    0.000    1.875    0.000    0.000    0.000    0.000 
#    0.000    0.000    0.000    0.000    0.000    0.000 
#
# Total GULP energy -793517.166832 kJ/mol
# GULP energy per Si atom -12398.705732 kJ/mol
# Density = 2.037450 g / cm^3
# Si number density = 20.420983 Si / 1000 Ang^3
#
#
#
# Elastic Constant Matrix: (Units=GPa)
#
#
# Indices 1 2 3 4 5 6 
#
# 1 104.8862 50.9982 38.8651 0.0000 0.0000 0.0000
# 2 50.9982 101.7151 32.6022 0.0000 0.0000 0.0000
# 3 38.8651 32.6022 83.6303 0.0000 0.0000 0.0000
# 4 0.0000 0.0000 0.0000 26.2656 0.0000 0.0000
# 5 0.0000 0.0000 0.0000 0.0000 32.8430 0.0000
# 6 0.0000 0.0000 0.0000 0.0000 0.0000 26.0700
#
#
#
# Elastic Compliance Matrix: (Units=1/GPa)
#
#
# Indices 1 2 3 4 5 6 
#
# 1 0.013815 -0.005564 -0.004251 0.000000 0.000000 0.000000
# 2 -0.005564 0.013476 -0.002668 0.000000 0.000000 0.000000
# 3 -0.004251 -0.002668 0.014973 0.000000 0.000000 0.000000
# 4 0.000000 0.000000 0.000000 0.038073 0.000000 0.000000
# 5 0.000000 0.000000 0.000000 0.000000 0.030448 0.000000
# 6 0.000000 0.000000 0.000000 0.000000 0.000000 0.038358
#
#
# Mechanical properties :
#
#
# Convention : Reuss Voigt Hill
#
# Bulk Modulus (GPa) = 57.80911 59.46251 58.63581
# Shear Modulus (GPa) = 27.79727 28.22015 28.00871
#
# Velocity S-wave (km/s) = 3.69346 3.72145 3.70748
# Velocity P-wave (km/s) = 6.82342 6.90269 6.86317
#
# Compressibility (1/GPa) = 0.01729831
#
# Stress axis : x y z
#
# Youngs Moduli (GPa) = 72.38709 74.20542 66.78718
#
# Poissons Ratio (x) = 0.41287 0.28391
# Poissons Ratio (y) = 0.40275 0.17818
# Poissons Ratio (z) = 0.30772 0.19797
#
# Static dielectric constant tensor:
#      x y z
#    x 3.723940 0.000000 0.000000 
#    y 0.000000 3.845440 0.000000 
#    z 0.000000 0.000000 3.679210 
# 
# 
# High freq. dielectric constant tensor:
#      x y z
#    x 1.804590 0.000000 0.000000 
#    y 0.000000 1.803410 0.000000 
#    z 0.000000 0.000000 1.787380 
# 
# From -- ./inp_files/11573.got.cif
#   From: 2010.03.12/outbox.cif.g09.slc.cpg/sg62_6_cif.got.tgz:11573.got - 2010.04.10 19:12:36.
