data_PCOD8254562
_publ_section_title
;
Structure prediction by ZEFSAII (Michael W. Deem and Ramdas Pophale) SiO2 
 PCOD8254562
Probable space group: P N M A
;
_chemical_formula_sum "Si O2"
_cell_formula_units_Z 40
_cell_length_a 4.753327
_cell_length_b 16.355544
_cell_length_c 17.761914
_cell_angle_alpha 90.000000
_cell_angle_beta 90.000000
_cell_angle_gamma 90.000000
_cell_volume 1380.868901
_symmetry_space_group_name_H-M "P N M A"
_symmetry_group_IT_number 62
_symmetry_cell_setting 'orthorhombic'
loop_
_space_group_symop_operation_xyz
x,y,z
1/2-x,-y,1/2+z
1/2+x,1/2-y,1/2-z
-x,1/2+y,-z
-x,-y,-z
1/2+x,y,1/2-z
1/2-x,1/2+y,1/2+z
x,1/2-y,z
loop_
_atom_site_type_symbol
_atom_site_label
_atom_site_fract_x
_atom_site_fract_y
_atom_site_fract_z
Si Si1 0.286476 0.750000 0.554398
Si Si2 0.041220 0.590264 0.088134
Si Si3 0.623066 0.654458 0.199549
Si Si4 0.123855 0.154714 0.300966
Si Si5 0.704033 0.250000 0.948949
Si Si6 0.042661 0.412882 0.089628
O O1 0.606350 0.750000 0.523934
O O2 0.247124 0.666845 0.605362
O O3 0.111826 0.750000 0.478071
O O4 0.740884 0.602761 0.128991
O O5 0.250703 0.668459 0.103442
O O6 0.169246 0.501618 0.112759
O O7 0.992627 0.588874 0.999567
O O8 0.808374 0.631732 0.274239
O O9 0.653746 0.750000 0.177532
O O10 0.310157 0.132302 0.226148
O O11 0.164642 0.250000 0.322913
O O12 0.240446 0.100704 0.370597
#
# Coordination Sequence:
#
# PCOD8254562 Si02
#       6
#     4   8   8   8   4   8
#     4  10  22  40  62  90 128 166 205 262 321 370
#     4  10  22  42  68  99 132 173 223 272 328 397
#     4  10  22  41  65  94 129 171 219 269 328 393
#     4  10  22  41  65  94 129 171 219 269 328 393
#     4  10  22  40  62  90 128 166 205 262 321 370
#     4  10  22  42  68  99 132 173 223 272 328 397
#
# _framework density 28.967265000000001
#
# number of rings (size 3 to 8) (size 9 to 14) (size 15 to 20)
#    0.000    2.000    2.000    0.000    0.000    8.800 
#    0.000    8.000    0.000    0.000    0.000    0.000 
#    0.000    0.000    0.000    0.000    0.000    0.000 
#
# Total GULP energy -495837.889011 kJ/mol
# GULP energy per Si atom -12395.947225 kJ/mol
# Density = 2.890133 g / cm^3
# Si number density = 28.967265 Si / 1000 Ang^3
#
#
#
# Elastic Constant Matrix: (Units=GPa)
#
#
# Indices 1 2 3 4 5 6 
#
# 1 64.5164 26.5994 -9.3604 0.0000 0.0000 0.0000
# 2 26.5994 261.0699 3.1885 0.0000 0.0000 0.0000
# 3 -9.3604 3.1885 101.8656 0.0000 0.0000 0.0000
# 4 0.0000 0.0000 0.0000 3.3304 0.0000 0.0000
# 5 0.0000 0.0000 0.0000 0.0000 9.5654 0.0000
# 6 0.0000 0.0000 0.0000 0.0000 0.0000 32.8374
#
#
#
# Elastic Compliance Matrix: (Units=1/GPa)
#
#
# Indices 1 2 3 4 5 6 
#
# 1 0.016424 -0.001692 0.001562 0.000000 0.000000 0.000000
# 2 -0.001692 0.004006 -0.000281 0.000000 0.000000 0.000000
# 3 0.001562 -0.000281 0.009969 0.000000 0.000000 0.000000
# 4 0.000000 0.000000 0.000000 0.300260 0.000000 0.000000
# 5 0.000000 0.000000 0.000000 0.000000 0.104543 0.000000
# 6 0.000000 0.000000 0.000000 0.000000 0.000000 0.030453
#
#
# Mechanical properties :
#
#
# Convention : Reuss Voigt Hill
#
# Bulk Modulus (GPa) = 33.80957 52.03411 42.92184
# Shear Modulus (GPa) = 10.49675 36.28160 23.38917
#
# Velocity S-wave (km/s) = 1.90566 3.54291 2.84462
# Velocity P-wave (km/s) = 4.06682 5.89393 5.06347
#
# Compressibility (1/GPa) = 0.02957742
#
# Stress axis : x y z
#
# Youngs Moduli (GPa) = 60.88504 249.60907 100.30898
#
# Poissons Ratio (x) = 0.42246 -0.15670
# Poissons Ratio (y) = 0.10305 0.02818
# Poissons Ratio (z) = -0.09511 0.07012
#
# Static dielectric constant tensor:
#      x y z
#    x 5.463350 0.000000 0.000000 
#    y 0.000000 6.993480 0.000000 
#    z 0.000000 0.000000 5.393620 
# 
# 
# High freq. dielectric constant tensor:
#      x y z
#    x 2.166530 0.000000 0.000000 
#    y 0.000000 2.167700 0.000000 
#    z 0.000000 0.000000 2.228890 
# 
# From -- ./inp_files/1591.got.cif
#   From: 2010.03.12/outbox.cif.g09.slc.cpg/sg62_1_cif.got.tgz:1591.got - 2010.04.10 19:12:36.
