data_PCOD8254552
_publ_section_title
;
Structure prediction by ZEFSAII (Michael W. Deem and Ramdas Pophale) SiO2 
 PCOD8254552
Probable space group: P N M A
;
_chemical_formula_sum "Si O2"
_cell_formula_units_Z 64
_cell_length_a 9.329994
_cell_length_b 23.675973
_cell_length_c 14.281011
_cell_angle_alpha 90.000000
_cell_angle_beta 90.000000
_cell_angle_gamma 90.000000
_cell_volume 3154.628003
_symmetry_space_group_name_H-M "P N M A"
_symmetry_group_IT_number 62
_symmetry_cell_setting 'orthorhombic'
loop_
_space_group_symop_operation_xyz
x,y,z
1/2-x,-y,1/2+z
1/2+x,1/2-y,1/2-z
-x,1/2+y,-z
-x,-y,-z
1/2+x,y,1/2-z
1/2-x,1/2+y,1/2+z
x,1/2-y,z
loop_
_atom_site_type_symbol
_atom_site_label
_atom_site_fract_x
_atom_site_fract_y
_atom_site_fract_z
Si Si1 0.011941 0.688403 0.154648
Si Si2 0.976614 0.429123 0.261491
Si Si3 0.669199 0.004363 0.490711
Si Si4 0.229138 0.992163 0.310410
Si Si5 0.966354 0.687210 0.366433
Si Si6 0.716219 0.106741 0.367112
Si Si7 0.728130 0.593648 0.364289
Si Si8 0.751162 0.186606 0.533680
O O1 0.065485 0.750000 0.114348
O O2 0.035011 0.691351 0.264808
O O3 0.846874 0.679441 0.125736
O O4 0.091319 0.633074 0.118343
O O5 0.861701 0.464822 0.201724
O O6 0.877948 0.387896 0.325654
O O7 0.078004 0.474635 0.313784
O O8 0.082018 0.387053 0.204225
O O9 0.735314 0.944725 0.457247
O O10 0.500000 0.000000 0.500000
O O11 0.744488 0.030265 0.583726
O O12 0.705954 0.042960 0.402597
O O13 0.224718 0.941773 0.233636
O O14 0.902447 0.750000 0.391371
O O15 0.858603 0.636074 0.366555
O O16 0.088560 0.669257 0.439337
O O17 0.689492 0.150468 0.449010
O O18 0.748542 0.250000 0.496234
#
# Coordination Sequence:
#
# PCOD8254552 Si02
#       8
#     8   8   8   8   8   8   8   8
#     4  10  22  40  61  90 128 169 206 249 308 375
#     4  10  22  44  60  85 125 162 203 268 315 377
#     4  12  24  38  60  91 127 166 213 258 316 385
#     4  11  24  40  58  89 130 160 214 256 311 376
#     4  10  23  40  60  94 130 163 206 256 307 371
#     4  11  23  41  66  86 122 165 211 265 328 369
#     4  12  24  37  64  92 126 172 209 255 309 382
#     4  10  23  43  66  93 125 163 213 264 316 381
#
# _framework density 20.287654
#
# number of rings (size 3 to 8) (size 9 to 14) (size 15 to 20)
#    0.000    1.250    3.750    1.875    8.750    2.500 
#    0.000    0.625    0.000    0.000    0.000    0.000 
#    0.000    0.000    0.000    0.000    0.000    0.000 
#
# Total GULP energy -793027.259256 kJ/mol
# GULP energy per Si atom -12391.050926 kJ/mol
# Density = 2.024148 g / cm^3
# Si number density = 20.287654 Si / 1000 Ang^3
#
#
#
# Elastic Constant Matrix: (Units=GPa)
#
#
# Indices 1 2 3 4 5 6 
#
# 1 105.3085 34.1978 32.4440 0.0000 0.0000 0.0000
# 2 34.1978 95.1670 33.5797 0.0000 0.0000 0.0000
# 3 32.4440 33.5797 81.1492 0.0000 0.0000 0.0000
# 4 0.0000 0.0000 0.0000 12.1314 0.0000 0.0000
# 5 0.0000 0.0000 0.0000 0.0000 29.2310 0.0000
# 6 0.0000 0.0000 0.0000 0.0000 0.0000 27.6810
#
#
#
# Elastic Compliance Matrix: (Units=1/GPa)
#
#
# Indices 1 2 3 4 5 6 
#
# 1 0.011491 -0.002937 -0.003379 0.000000 0.000000 0.000000
# 2 -0.002937 0.013055 -0.004228 0.000000 0.000000 0.000000
# 3 -0.003379 -0.004228 0.015423 0.000000 0.000000 0.000000
# 4 0.000000 0.000000 0.000000 0.082431 0.000000 0.000000
# 5 0.000000 0.000000 0.000000 0.000000 0.034210 0.000000
# 6 0.000000 0.000000 0.000000 0.000000 0.000000 0.036126
#
#
# Mechanical properties :
#
#
# Convention : Reuss Voigt Hill
#
# Bulk Modulus (GPa) = 52.96120 53.56308 53.26214
# Shear Modulus (GPa) = 22.71517 25.90222 24.30869
#
# Velocity S-wave (km/s) = 3.34975 3.57704 3.46526
# Velocity P-wave (km/s) = 6.41272 6.59692 6.50547
#
# Compressibility (1/GPa) = 0.01888175
#
# Stress axis : x y z
#
# Youngs Moduli (GPa) = 87.02786 76.59868 64.83665
#
# Poissons Ratio (x) = 0.22496 0.21906
# Poissons Ratio (y) = 0.25559 0.27413
# Poissons Ratio (z) = 0.29404 0.32386
#
# Static dielectric constant tensor:
#      x y z
#    x 3.876200 0.000000 0.000000 
#    y 0.000000 3.724200 0.000000 
#    z 0.000000 0.000000 3.709400 
# 
# 
# High freq. dielectric constant tensor:
#      x y z
#    x 1.801990 0.000000 0.000000 
#    y 0.000000 1.788310 0.000000 
#    z 0.000000 0.000000 1.776640 
# 
# From -- ./inp_files/17357.got.cif
#   From: 2010.03.12/outbox.cif.g09.slc.cpg/sg62_9_cif.got.tgz:17357.got - 2010.04.10 19:12:36.
