data_PCOD8254947
_publ_section_title
;
Structure prediction by ZEFSAII (Michael W. Deem and Ramdas Pophale) SiO2 
 PCOD8254947
Probable space group: P N M A
;
_chemical_formula_sum "Si O2"
_cell_formula_units_Z 48
_cell_length_a 10.095557
_cell_length_b 18.831320
_cell_length_c 14.573722
_cell_angle_alpha 90.000000
_cell_angle_beta 90.000000
_cell_angle_gamma 90.000000
_cell_volume 2770.649120
_symmetry_space_group_name_H-M "P N M A"
_symmetry_group_IT_number 62
_symmetry_cell_setting 'orthorhombic'
loop_
_space_group_symop_operation_xyz
x,y,z
1/2-x,-y,1/2+z
1/2+x,1/2-y,1/2-z
-x,1/2+y,-z
-x,-y,-z
1/2+x,y,1/2-z
1/2-x,1/2+y,1/2+z
x,1/2-y,z
loop_
_atom_site_type_symbol
_atom_site_label
_atom_site_fract_x
_atom_site_fract_y
_atom_site_fract_z
Si Si1 0.876419 0.504253 0.225600
Si Si2 0.871141 0.401347 0.751448
Si Si3 0.502128 0.110036 0.930156
Si Si4 0.210179 0.670066 0.072882
Si Si5 0.639046 0.967513 0.522659
Si Si6 0.125703 0.960161 0.584280
O O1 0.775459 0.566749 0.250178
O O2 0.831504 0.469331 0.130664
O O3 0.860800 0.444206 0.306359
O O4 0.022452 0.538934 0.217723
O O5 0.906831 0.365395 0.653362
O O6 0.858415 0.340099 0.827900
O O7 0.631470 0.158313 0.928225
O O8 0.524768 0.026388 0.913849
O O9 0.430284 0.109734 0.030619
O O10 0.181536 0.750000 0.040032
O O11 0.143447 0.615284 0.002760
O O12 0.500000 0.000000 0.500000
O O13 0.740671 0.014274 0.464240
#
# Coordination Sequence:
#
# PCOD8254947 Si02
#       6
#     8   8   8   8   8   8
#     4  11  19  31  55  85 111 135 186 230 278 321
#     4  11  18  33  53  81 113 142 175 225 276 330
#     4   9  18  32  51  74 108 141 176 217 267 334
#     4  11  23  36  51  79 115 150 185 227 291 347
#     4  11  19  33  55  82 112 138 184 238 277 325
#     4   9  17  30  52  80 104 133 172 229 273 315
#
# _framework density 17.324460999999999
#
# number of rings (size 3 to 8) (size 9 to 14) (size 15 to 20)
#    0.000    1.667    8.333    0.000    2.333    0.667 
#    0.000    0.000    0.000    2.000    0.000    0.000 
#    0.000    0.000    0.000    0.000    0.000    0.000 
#
# Total GULP energy -594788.358238 kJ/mol
# GULP energy per Si atom -12391.424130 kJ/mol
# Density = 1.728503 g / cm^3
# Si number density = 17.324461 Si / 1000 Ang^3
#
#
#
# Elastic Constant Matrix: (Units=GPa)
#
#
# Indices 1 2 3 4 5 6 
#
# 1 75.2716 24.6675 31.7359 0.0000 0.0000 0.0000
# 2 24.6675 68.5309 31.7656 0.0000 0.0000 0.0000
# 3 31.7359 31.7656 126.1789 0.0000 0.0000 0.0000
# 4 0.0000 0.0000 0.0000 16.1969 0.0000 0.0000
# 5 0.0000 0.0000 0.0000 0.0000 28.5823 0.0000
# 6 0.0000 0.0000 0.0000 0.0000 0.0000 12.5345
#
#
#
# Elastic Compliance Matrix: (Units=1/GPa)
#
#
# Indices 1 2 3 4 5 6 
#
# 1 0.015950 -0.004395 -0.002905 0.000000 0.000000 0.000000
# 2 -0.004395 0.017730 -0.003358 0.000000 0.000000 0.000000
# 3 -0.002905 -0.003358 0.009501 0.000000 0.000000 0.000000
# 4 0.000000 0.000000 0.000000 0.061740 0.000000 0.000000
# 5 0.000000 0.000000 0.000000 0.000000 0.034987 0.000000
# 6 0.000000 0.000000 0.000000 0.000000 0.000000 0.079780
#
#
# Mechanical properties :
#
#
# Convention : Reuss Voigt Hill
#
# Bulk Modulus (GPa) = 45.73393 49.59107 47.66250
# Shear Modulus (GPa) = 20.13738 23.58355 21.86046
#
# Velocity S-wave (km/s) = 3.41305 3.69356 3.55607
# Velocity P-wave (km/s) = 6.47979 6.84667 6.66575
#
# Compressibility (1/GPa) = 0.02186560
#
# Stress axis : x y z
#
# Youngs Moduli (GPa) = 62.69452 56.40016 105.24673
#
# Poissons Ratio (x) = 0.24785 0.30579
# Poissons Ratio (y) = 0.27552 0.35346
# Poissons Ratio (z) = 0.18215 0.18941
#
# Static dielectric constant tensor:
#      x y z
#    x 2.706940 0.000000 0.000000 
#    y 0.000000 2.721020 0.000000 
#    z 0.000000 0.000000 4.391410 
# 
# 
# High freq. dielectric constant tensor:
#      x y z
#    x 1.679970 0.000000 0.000000 
#    y 0.000000 1.598030 0.000000 
#    z 0.000000 0.000000 1.689710 
# 
# From -- ./inp_files/16938.got.cif
#   From: 2010.03.12/outbox.cif.g09.slc.cpg/sg62_9_cif.got.tgz:16938.got - 2010.04.10 19:12:36.
