data_PCOD8254898
_publ_section_title
;
Structure prediction by ZEFSAII (Michael W. Deem and Ramdas Pophale) SiO2 
 PCOD8254898
Probable space group: P N M A
;
_chemical_formula_sum "Si O2"
_cell_formula_units_Z 32
_cell_length_a 7.266957
_cell_length_b 18.267940
_cell_length_c 10.232349
_cell_angle_alpha 90.000000
_cell_angle_beta 90.000000
_cell_angle_gamma 90.000000
_cell_volume 1358.368217
_symmetry_space_group_name_H-M "P N M A"
_symmetry_group_IT_number 62
_symmetry_cell_setting 'orthorhombic'
loop_
_space_group_symop_operation_xyz
x,y,z
1/2-x,-y,1/2+z
1/2+x,1/2-y,1/2-z
-x,1/2+y,-z
-x,-y,-z
1/2+x,y,1/2-z
1/2-x,1/2+y,1/2+z
x,1/2-y,z
loop_
_atom_site_type_symbol
_atom_site_label
_atom_site_fract_x
_atom_site_fract_y
_atom_site_fract_z
Si Si1 0.186371 0.750000 0.202036
Si Si2 0.846201 0.944247 0.858970
Si Si3 0.947940 0.250000 0.531759
Si Si4 0.537504 0.396201 0.087001
Si Si5 0.610320 0.601258 0.422961
O O1 0.378978 0.750000 0.129786
O O2 0.079290 0.825185 0.161397
O O3 0.216639 0.750000 0.360142
O O4 0.636302 0.951201 0.912153
O O5 0.847767 0.902539 0.721156
O O6 0.928558 0.026639 0.840986
O O7 0.968241 0.896218 0.957475
O O8 0.944543 0.182916 0.432098
O O9 0.679548 0.407813 0.970163
#
# Coordination Sequence:
#
# PCOD8254898 Si02
#       5
#     4   8   4   8   8
#     4  10  24  45  63  92 134 165 221 276 320 391
#     4  11  23  41  69  95 132 171 220 269 326 388
#     4  10  26  43  67  98 128 175 223 264 336 387
#     4  11  23  44  66  98 130 174 215 273 323 390
#     4  10  24  43  65  97 127 176 220 267 329 385
#
# _framework density 23.557676000000001
#
# number of rings (size 3 to 8) (size 9 to 14) (size 15 to 20)
#    0.000    1.500    2.500    0.750    3.500    8.000 
#    0.000    0.000    0.000    0.000    0.000    0.000 
#    0.000    0.000    0.000    0.000    0.000    0.000 
#
# Total GULP energy -396641.247987 kJ/mol
# GULP energy per Si atom -12395.039000 kJ/mol
# Density = 2.350406 g / cm^3
# Si number density = 23.557676 Si / 1000 Ang^3
#
#
#
# Elastic Constant Matrix: (Units=GPa)
#
#
# Indices 1 2 3 4 5 6 
#
# 1 73.3363 7.0852 -3.7070 0.0000 0.0000 0.0000
# 2 7.0852 117.8089 61.0261 0.0000 0.0000 0.0000
# 3 -3.7070 61.0261 90.4392 0.0000 0.0000 0.0000
# 4 0.0000 0.0000 0.0000 30.8695 0.0000 0.0000
# 5 0.0000 0.0000 0.0000 0.0000 30.5099 0.0000
# 6 0.0000 0.0000 0.0000 0.0000 0.0000 25.4123
#
#
#
# Elastic Compliance Matrix: (Units=1/GPa)
#
#
# Indices 1 2 3 4 5 6 
#
# 1 0.013892 -0.001738 0.001742 0.000000 0.000000 0.000000
# 2 -0.001738 0.013267 -0.009024 0.000000 0.000000 0.000000
# 3 0.001742 -0.009024 0.017217 0.000000 0.000000 0.000000
# 4 0.000000 0.000000 0.000000 0.032394 0.000000 0.000000
# 5 0.000000 0.000000 0.000000 0.000000 0.032776 0.000000
# 6 0.000000 0.000000 0.000000 0.000000 0.000000 0.039351
#
#
# Mechanical properties :
#
#
# Convention : Reuss Voigt Hill
#
# Bulk Modulus (GPa) = 37.96852 45.59921 41.78387
# Shear Modulus (GPa) = 28.45503 31.83703 30.14603
#
# Velocity S-wave (km/s) = 3.47924 3.68020 3.58113
# Velocity P-wave (km/s) = 5.68264 6.12020 5.90548
#
# Compressibility (1/GPa) = 0.02633761
#
# Stress axis : x y z
#
# Youngs Moduli (GPa) = 71.98510 75.37429 58.08069
#
# Poissons Ratio (x) = 0.13099 -0.10118
# Poissons Ratio (y) = 0.12510 0.52409
# Poissons Ratio (z) = -0.12540 0.68014
#
# Static dielectric constant tensor:
#      x y z
#    x 4.124710 0.000000 0.000000 
#    y 0.000000 4.382890 0.000000 
#    z 0.000000 0.000000 4.082040 
# 
# 
# High freq. dielectric constant tensor:
#      x y z
#    x 1.938830 0.000000 0.000000 
#    y 0.000000 1.937770 0.000000 
#    z 0.000000 0.000000 1.917250 
# 
# From -- ./inp_files/4155.got.cif
#   From: 2010.03.12/outbox.cif.g09.slc.cpg/sg62_3_cif.got.tgz:4155.got - 2010.04.10 19:12:36.
