data_PCOD8254394
_publ_section_title
;
Structure prediction by ZEFSAII (Michael W. Deem and Ramdas Pophale) SiO2 
 PCOD8254394
Probable space group: P N M A
;
_chemical_formula_sum "Si O2"
_cell_formula_units_Z 48
_cell_length_a 13.081800
_cell_length_b 18.910810
_cell_length_c 8.287653
_cell_angle_alpha 90.000000
_cell_angle_beta 90.000000
_cell_angle_gamma 90.000000
_cell_volume 2050.261212
_symmetry_space_group_name_H-M "P N M A"
_symmetry_group_IT_number 62
_symmetry_cell_setting 'orthorhombic'
loop_
_space_group_symop_operation_xyz
x,y,z
1/2-x,-y,1/2+z
1/2+x,1/2-y,1/2-z
-x,1/2+y,-z
-x,-y,-z
1/2+x,y,1/2-z
1/2-x,1/2+y,1/2+z
x,1/2-y,z
loop_
_atom_site_type_symbol
_atom_site_label
_atom_site_fract_x
_atom_site_fract_y
_atom_site_fract_z
Si Si1 0.305459 0.096304 0.484743
Si Si2 0.265651 0.539534 0.642708
Si Si3 0.497251 0.750000 0.152049
Si Si4 0.929878 0.750000 0.989811
Si Si5 0.730382 0.750000 0.846052
Si Si6 0.778628 0.750000 0.503949
Si Si7 0.979311 0.604235 0.854747
Si Si8 0.905299 0.369519 0.445915
O O1 0.251772 0.069067 0.321228
O O2 0.283933 0.177864 0.535543
O O3 0.425929 0.080488 0.465579
O O4 0.262853 0.045917 0.628698
O O5 0.379269 0.562484 0.588823
O O6 0.179081 0.569755 0.515385
O O7 0.490424 0.750000 0.342918
O O8 0.383427 0.750000 0.089277
O O9 0.555157 0.677549 0.096953
O O10 0.804225 0.750000 0.004971
O O11 0.962713 0.685923 0.881135
O O12 0.805689 0.750000 0.692900
O O13 0.658446 0.682311 0.828648
O O14 0.003820 0.596241 0.661693
#
# Coordination Sequence:
#
# PCOD8254394 Si02
#       8
#     8   8   4   4   4   4   8   8
#     4  11  25  42  68 101 131 183 225 289 336 414
#     4  11  23  42  67  97 137 173 228 286 348 403
#     4  11  26  37  63 105 139 173 224 292 350 399
#     4  12  22  37  62 100 135 177 218 295 341 389
#     4  11  17  40  69  90 124 180 236 262 328 408
#     4  12  21  48  68  97 134 182 240 267 331 432
#     4  11  21  42  69  93 131 184 241 264 340 428
#     4  10  21  42  68  96 130 183 230 278 332 422
#
# _framework density 23.411650000000002
#
# number of rings (size 3 to 8) (size 9 to 14) (size 15 to 20)
#    0.000    1.000    5.000    4.000    0.000    2.667 
#    6.000    7.500    0.000    0.000    0.000    0.000 
#    0.000    0.000    0.000    0.000    0.000    0.000 
#
# Total GULP energy -594679.528588 kJ/mol
# GULP energy per Si atom -12389.156846 kJ/mol
# Density = 2.335836 g / cm^3
# Si number density = 23.411650 Si / 1000 Ang^3
#
#
#
# Elastic Constant Matrix: (Units=GPa)
#
#
# Indices 1 2 3 4 5 6 
#
# 1 140.5436 37.7508 33.6488 0.0000 0.0000 0.0000
# 2 37.7508 147.5683 33.6930 0.0000 0.0000 0.0000
# 3 33.6488 33.6930 23.9653 0.0000 0.0000 0.0000
# 4 0.0000 0.0000 0.0000 123.4671 0.0000 0.0000
# 5 0.0000 0.0000 0.0000 0.0000 22.7935 0.0000
# 6 0.0000 0.0000 0.0000 0.0000 0.0000 -29.7645
#
#
#
# Elastic Compliance Matrix: (Units=1/GPa)
#
#
# Indices 1 2 3 4 5 6 
#
# 1 0.010824 0.001032 -0.016649 0.000000 0.000000 0.000000
# 2 0.001032 0.010079 -0.015619 0.000000 0.000000 0.000000
# 3 -0.016649 -0.015619 0.087062 0.000000 0.000000 0.000000
# 4 0.000000 0.000000 0.000000 0.008099 0.000000 0.000000
# 5 0.000000 0.000000 0.000000 0.000000 0.043872 0.000000
# 6 0.000000 0.000000 0.000000 0.000000 0.000000 -0.033597
#
#
# Mechanical properties :
#
#
# Convention : Reuss Voigt Hill
#
# Bulk Modulus (GPa) = 21.98127 58.02915 40.00521
# Shear Modulus (GPa) = 24.51288 37.09819 30.80553
#
# Velocity S-wave (km/s) = 3.23931 3.98503 3.63136
# Velocity P-wave (km/s) = 4.83738 6.78337 5.89128
#
# Compressibility (1/GPa) = 0.04549327
#
# Stress axis : x y z
#
# Youngs Moduli (GPa) = 92.38730 99.22024 11.48610
#
# Poissons Ratio (x) = -0.10243 0.19123
# Poissons Ratio (y) = -0.09537 0.17940
# Poissons Ratio (z) = 1.53814 1.54972
#
# Static dielectric constant tensor:
#      x y z
#    x 4.693440 0.000000 0.000000 
#    y 0.000000 4.502760 0.000000 
#    z 0.000000 0.000000 3.700310 
# 
# 
# High freq. dielectric constant tensor:
#      x y z
#    x 1.943620 0.000000 0.000000 
#    y 0.000000 1.931780 0.000000 
#    z 0.000000 0.000000 1.886040 
# 
# From -- ./inp_files/6567.got.cif
#   From: 2010.03.12/outbox.cif.g09.slc.cpg/sg62_4_cif.got.tgz:6567.got - 2010.04.10 19:12:36.
