data_PCOD8254581
_publ_section_title
;
Structure prediction by ZEFSAII (Michael W. Deem and Ramdas Pophale) SiO2 
 PCOD8254581
Probable space group: P N M A
;
_chemical_formula_sum "Si O2"
_cell_formula_units_Z 48
_cell_length_a 13.372873
_cell_length_b 9.265892
_cell_length_c 17.981362
_cell_angle_alpha 90.000000
_cell_angle_beta 90.000000
_cell_angle_gamma 90.000000
_cell_volume 2228.099281
_symmetry_space_group_name_H-M "P N M A"
_symmetry_group_IT_number 62
_symmetry_cell_setting 'orthorhombic'
loop_
_space_group_symop_operation_xyz
x,y,z
1/2-x,-y,1/2+z
1/2+x,1/2-y,1/2-z
-x,1/2+y,-z
-x,-y,-z
1/2+x,y,1/2-z
1/2-x,1/2+y,1/2+z
x,1/2-y,z
loop_
_atom_site_type_symbol
_atom_site_label
_atom_site_fract_x
_atom_site_fract_y
_atom_site_fract_z
Si Si1 0.740479 0.909749 0.395054
Si Si2 0.797858 0.087770 0.174524
Si Si3 0.069967 0.504236 0.694468
Si Si4 0.367180 0.409065 0.748681
Si Si5 0.554393 0.088769 0.062843
Si Si6 0.251156 0.922289 0.455434
O O1 0.734262 0.750000 0.430492
O O2 0.647405 0.937588 0.339771
O O3 0.843899 0.916402 0.348383
O O4 0.732344 0.027867 0.460091
O O5 0.778822 0.250000 0.145844
O O6 0.882859 0.093223 0.237558
O O7 0.693878 0.031245 0.208606
O O8 0.832035 0.986597 0.103835
O O9 0.984134 0.404439 0.730457
O O10 0.016075 0.607360 0.634721
O O11 0.322481 0.250000 0.767751
O O12 0.581174 0.250000 0.034282
O O13 0.651691 0.993707 0.079684
O O14 0.500000 0.000000 0.000000
O O15 0.247130 0.750000 0.453653
#
# Coordination Sequence:
#
# PCOD8254581 Si02
#       6
#     8   8   8   8   8   8
#     4  10  22  40  64  93 129 168 208 261 318 377
#     4  11  24  41  63  92 128 168 214 263 316 379
#     4  11  23  39  67  96 130 165 211 258 317 379
#     4  10  22  40  64  95 129 166 210 260 318 380
#     4  12  24  38  61  94 128 163 205 257 320 380
#     4  12  25  41  62  90 127 168 213 263 318 376
#
# _framework density 21.543026000000001
#
# number of rings (size 3 to 8) (size 9 to 14) (size 15 to 20)
#    0.000    1.000    3.333    3.500    0.000    6.667 
#    0.000    0.833    0.000    0.000    0.000    0.000 
#    0.000    0.000    0.000    0.000    0.000    0.000 
#
# Total GULP energy -594802.445683 kJ/mol
# GULP energy per Si atom -12391.717618 kJ/mol
# Density = 2.149399 g / cm^3
# Si number density = 21.543026 Si / 1000 Ang^3
#
#
#
# Elastic Constant Matrix: (Units=GPa)
#
#
# Indices 1 2 3 4 5 6 
#
# 1 52.7250 19.1866 51.6153 0.0000 0.0000 0.0000
# 2 19.1866 190.2235 72.4793 0.0000 0.0000 0.0000
# 3 51.6153 72.4793 155.6426 0.0000 0.0000 0.0000
# 4 0.0000 0.0000 0.0000 31.2977 0.0000 0.0000
# 5 0.0000 0.0000 0.0000 0.0000 42.7818 0.0000
# 6 0.0000 0.0000 0.0000 0.0000 0.0000 19.3057
#
#
#
# Elastic Compliance Matrix: (Units=1/GPa)
#
#
# Indices 1 2 3 4 5 6 
#
# 1 0.028203 0.000874 -0.009760 0.000000 0.000000 0.000000
# 2 0.000874 0.006418 -0.003279 0.000000 0.000000 0.000000
# 3 -0.009760 -0.003279 0.011188 0.000000 0.000000 0.000000
# 4 0.000000 0.000000 0.000000 0.031951 0.000000 0.000000
# 5 0.000000 0.000000 0.000000 0.000000 0.023374 0.000000
# 6 0.000000 0.000000 0.000000 0.000000 0.000000 0.051798
#
#
# Mechanical properties :
#
#
# Convention : Reuss Voigt Hill
#
# Bulk Modulus (GPa) = 46.55409 76.12817 61.34113
# Shear Modulus (GPa) = 27.11179 35.69771 31.40475
#
# Velocity S-wave (km/s) = 3.55138 4.07509 3.82222
# Velocity P-wave (km/s) = 6.20267 7.58659 6.92926
#
# Compressibility (1/GPa) = 0.02148039
#
# Stress axis : x y z
#
# Youngs Moduli (GPa) = 35.45765 155.81111 89.37854
#
# Poissons Ratio (x) = -0.13619 0.87232
# Poissons Ratio (y) = -0.03099 0.29304
# Poissons Ratio (z) = 0.34606 0.51084
#
# Static dielectric constant tensor:
#      x y z
#    x 253.440950 0.000000 0.000000 
#    y 0.000000 3.696890 0.000000 
#    z 0.000000 0.000000 7.891140 
# 
# 
# High freq. dielectric constant tensor:
#      x y z
#    x 1.815430 0.000000 0.000000 
#    y 0.000000 1.845600 0.000000 
#    z 0.000000 0.000000 1.868070 
# 
# From -- ./inp_files/23737.got.cif
#   From: 2010.03.12/outbox.cif.g09.slc.cpg/sg62_12_cif.got.tgz:23737.got - 2010.04.10 19:12:36.
