data_PCOD8254008
_publ_section_title
;
Structure prediction by ZEFSAII (Michael W. Deem and Ramdas Pophale) SiO2 
 PCOD8254008
Probable space group: P N M A
;
_chemical_formula_sum "Si O2"
_cell_formula_units_Z 64
_cell_length_a 23.943589
_cell_length_b 8.722753
_cell_length_c 15.361322
_cell_angle_alpha 90.000000
_cell_angle_beta 90.000000
_cell_angle_gamma 90.000000
_cell_volume 3208.273741
_symmetry_space_group_name_H-M "P N M A"
_symmetry_group_IT_number 62
_symmetry_cell_setting 'orthorhombic'
loop_
_space_group_symop_operation_xyz
x,y,z
1/2-x,-y,1/2+z
1/2+x,1/2-y,1/2-z
-x,1/2+y,-z
-x,-y,-z
1/2+x,y,1/2-z
1/2-x,1/2+y,1/2+z
x,1/2-y,z
loop_
_atom_site_type_symbol
_atom_site_label
_atom_site_fract_x
_atom_site_fract_y
_atom_site_fract_z
Si Si1 0.941532 0.430660 0.240641
Si Si2 0.629509 0.427072 0.890254
Si Si3 0.128027 0.428478 0.411936
Si Si4 0.143239 0.571148 0.105447
Si Si5 0.244137 0.571207 0.654114
Si Si6 0.562261 0.930804 0.242033
Si Si7 0.253253 0.570022 0.854829
Si Si8 0.635724 0.928705 0.587551
O O1 0.950047 0.250000 0.235155
O O2 0.907854 0.468841 0.328015
O O3 0.908094 0.497705 0.156890
O O4 0.001014 0.508957 0.240348
O O5 0.622540 0.250000 0.863934
O O6 0.694064 0.472730 0.885075
O O7 0.609175 0.455207 0.988955
O O8 0.127685 0.250000 0.386812
O O9 0.083636 0.512573 0.351027
O O10 0.190133 0.499224 0.396592
O O11 0.157448 0.750000 0.118696
O O12 0.199837 0.474487 0.104298
O O13 0.102172 0.509044 0.180274
O O14 0.114736 0.542610 0.010976
O O15 0.231049 0.750000 0.641812
O O16 0.252203 0.526601 0.754074
O O17 0.560508 0.750000 0.241922
O O18 0.254161 0.750000 0.871150
O O19 0.197638 0.498331 0.898937
O O20 0.640691 0.750000 0.609482
#
# Coordination Sequence:
#
# PCOD8254008 Si02
#       8
#     8   8   8   8   8   8   8   8
#     4  11  23  41  64  85 112 157 203 242 288 352
#     4  11  23  39  62  90 120 152 192 245 297 342
#     4  10  21  39  63  87 115 158 198 234 288 356
#     4  10  21  38  61  88 119 154 194 242 295 343
#     4  11  20  34  60  91 122 156 194 234 284 352
#     4  11  24  40  59  87 120 152 193 252 301 339
#     4   9  16  31  58  87 115 148 190 231 274 341
#     4   9  18  36  61  87 115 154 195 232 286 352
#
# _framework density 19.948422999999998
#
# number of rings (size 3 to 8) (size 9 to 14) (size 15 to 20)
#    0.000    1.750    2.500    2.250    0.000    4.500 
#    0.000    1.250    0.000    0.000    0.000    0.000 
#    0.000    0.000    0.000    0.000    0.000    0.000 
#
# Total GULP energy -793701.093816 kJ/mol
# GULP energy per Si atom -12401.579591 kJ/mol
# Density = 1.990302 g / cm^3
# Si number density = 19.948423 Si / 1000 Ang^3
#
#
#
# Elastic Constant Matrix: (Units=GPa)
#
#
# Indices 1 2 3 4 5 6 
#
# 1 110.0096 9.3964 33.3965 0.0000 0.0000 0.0000
# 2 9.3964 27.5222 20.1458 0.0000 0.0000 0.0000
# 3 33.3965 20.1458 100.7416 0.0000 0.0000 0.0000
# 4 0.0000 0.0000 0.0000 24.0515 0.0000 0.0000
# 5 0.0000 0.0000 0.0000 0.0000 13.3071 0.0000
# 6 0.0000 0.0000 0.0000 0.0000 0.0000 2.0579
#
#
#
# Elastic Compliance Matrix: (Units=1/GPa)
#
#
# Indices 1 2 3 4 5 6 
#
# 1 0.010140 -0.001173 -0.003127 0.000000 0.000000 0.000000
# 2 -0.001173 0.042701 -0.008150 0.000000 0.000000 0.000000
# 3 -0.003127 -0.008150 0.012593 0.000000 0.000000 0.000000
# 4 0.000000 0.000000 0.000000 0.041577 0.000000 0.000000
# 5 0.000000 0.000000 0.000000 0.000000 0.075148 0.000000
# 6 0.000000 0.000000 0.000000 0.000000 0.000000 0.485940
#
#
# Mechanical properties :
#
#
# Convention : Reuss Voigt Hill
#
# Bulk Modulus (GPa) = 24.67131 40.46123 32.56627
# Shear Modulus (GPa) = 7.07704 19.57226 13.32465
#
# Velocity S-wave (km/s) = 1.88557 3.13572 2.58729
# Velocity P-wave (km/s) = 4.13943 5.78250 5.02853
#
# Compressibility (1/GPa) = 0.04053291
#
# Stress axis : x y z
#
# Youngs Moduli (GPa) = 98.62395 23.41889 79.41069
#
# Poissons Ratio (x) = 0.02747 0.24830
# Poissons Ratio (y) = 0.11569 0.64721
# Poissons Ratio (z) = 0.30837 0.19087
#
# Static dielectric constant tensor:
#      x y z
#    x 3.699550 0.000000 0.000000 
#    y 0.000000 3.371480 0.000000 
#    z 0.000000 0.000000 3.749900 
# 
# 
# High freq. dielectric constant tensor:
#      x y z
#    x 1.778320 0.000000 0.000000 
#    y 0.000000 1.753110 0.000000 
#    z 0.000000 0.000000 1.792120 
# 
# From -- ./inp_files/20976.got.cif
#   From: 2010.03.12/outbox.cif.g09.slc.cpg/sg62_11_cif.got.tgz:20976.got - 2010.04.10 19:12:36.
