data_PCOD8254987
_publ_section_title
;
Structure prediction by ZEFSAII (Michael W. Deem and Ramdas Pophale) SiO2 
 PCOD8254987
Probable space group: P N M A
;
_chemical_formula_sum "Si O2"
_cell_formula_units_Z 64
_cell_length_a 9.140309
_cell_length_b 21.959079
_cell_length_c 16.542708
_cell_angle_alpha 90.000000
_cell_angle_beta 90.000000
_cell_angle_gamma 90.000000
_cell_volume 3320.332703
_symmetry_space_group_name_H-M "P N M A"
_symmetry_group_IT_number 62
_symmetry_cell_setting 'orthorhombic'
loop_
_space_group_symop_operation_xyz
x,y,z
1/2-x,-y,1/2+z
1/2+x,1/2-y,1/2-z
-x,1/2+y,-z
-x,-y,-z
1/2+x,y,1/2-z
1/2-x,1/2+y,1/2+z
x,1/2-y,z
loop_
_atom_site_type_symbol
_atom_site_label
_atom_site_fract_x
_atom_site_fract_y
_atom_site_fract_z
Si Si1 0.344582 0.383642 0.553973
Si Si2 0.864209 0.819216 0.010565
Si Si3 0.461936 0.009707 0.178799
Si Si4 0.216487 0.016268 0.441868
Si Si5 0.006172 0.509342 0.138081
Si Si6 0.208983 0.680474 0.319463
Si Si7 0.255564 0.570497 0.577949
Si Si8 0.385129 0.629158 0.174876
O O1 0.466226 0.337889 0.519681
O O2 0.274669 0.421188 0.480325
O O3 0.414398 0.426378 0.623972
O O4 0.215494 0.346449 0.600417
O O5 0.858564 0.750000 0.980305
O O6 0.777375 0.858812 0.943329
O O7 0.779237 0.828471 0.093560
O O8 0.518284 0.012715 0.269862
O O9 0.407248 0.942242 0.158451
O O10 0.588121 0.031834 0.119104
O O11 0.329733 0.058092 0.162325
O O12 0.340311 0.983056 0.389013
O O13 0.165952 0.966735 0.508780
O O14 0.082012 0.458347 0.081794
O O15 0.222055 0.750000 0.289717
O O16 0.299429 0.637992 0.258791
O O17 0.038821 0.663376 0.322816
#
# Coordination Sequence:
#
# PCOD8254987 Si02
#       8
#     8   8   8   8   8   8   8   8
#     4  11  22  39  58  88 121 165 197 253 298 371
#     4  11  23  41  64  85 113 163 213 252 298 366
#     4  12  24  33  58  97 123 155 196 254 315 373
#     4  11  21  36  59  85 128 156 195 246 317 368
#     4  11  20  38  58  87 124 156 194 243 314 372
#     4  11  25  41  59  84 125 171 211 252 290 355
#     4  11  21  38  59  87 120 157 198 251 313 362
#     4  12  24  37  60  88 127 162 208 240 303 359
#
# _framework density 19.275175999999998
#
# number of rings (size 3 to 8) (size 9 to 14) (size 15 to 20)
#    0.000    0.750    5.000    5.250    3.500    2.000 
#    0.000    0.000    0.000    0.750    0.000    0.000 
#    0.000    0.000    0.000    0.000    0.000    0.000 
#
# Total GULP energy -793690.917244 kJ/mol
# GULP energy per Si atom -12401.420582 kJ/mol
# Density = 1.923131 g / cm^3
# Si number density = 19.275176 Si / 1000 Ang^3
#
#
#
# Elastic Constant Matrix: (Units=GPa)
#
#
# Indices 1 2 3 4 5 6 
#
# 1 86.5669 22.0194 15.9637 0.0000 0.0000 0.0000
# 2 22.0194 85.0395 27.2158 0.0000 0.0000 0.0000
# 3 15.9637 27.2158 66.4925 0.0000 0.0000 0.0000
# 4 0.0000 0.0000 0.0000 20.5050 0.0000 0.0000
# 5 0.0000 0.0000 0.0000 0.0000 33.2221 0.0000
# 6 0.0000 0.0000 0.0000 0.0000 0.0000 20.8517
#
#
#
# Elastic Compliance Matrix: (Units=1/GPa)
#
#
# Indices 1 2 3 4 5 6 
#
# 1 0.012580 -0.002636 -0.001941 0.000000 0.000000 0.000000
# 2 -0.002636 0.014084 -0.005132 0.000000 0.000000 0.000000
# 3 -0.001941 -0.005132 0.017606 0.000000 0.000000 0.000000
# 4 0.000000 0.000000 0.000000 0.048769 0.000000 0.000000
# 5 0.000000 0.000000 0.000000 0.000000 0.030100 0.000000
# 6 0.000000 0.000000 0.000000 0.000000 0.000000 0.047958
#
#
# Mechanical properties :
#
#
# Convention : Reuss Voigt Hill
#
# Bulk Modulus (GPa) = 40.23865 40.94407 40.59136
# Shear Modulus (GPa) = 25.15094 26.44242 25.79668
#
# Velocity S-wave (km/s) = 3.61617 3.70785 3.66230
# Velocity P-wave (km/s) = 6.19329 6.29435 6.24402
#
# Compressibility (1/GPa) = 0.02485173
#
# Stress axis : x y z
#
# Youngs Moduli (GPa) = 79.48938 71.00149 56.79921
#
# Poissons Ratio (x) = 0.18717 0.11027
# Poissons Ratio (y) = 0.20955 0.29149
# Poissons Ratio (z) = 0.15431 0.36437
#
# Static dielectric constant tensor:
#      x y z
#    x 3.777800 0.000000 0.000000 
#    y 0.000000 3.332270 0.000000 
#    z 0.000000 0.000000 3.486250 
# 
# 
# High freq. dielectric constant tensor:
#      x y z
#    x 1.772720 0.000000 0.000000 
#    y 0.000000 1.716290 0.000000 
#    z 0.000000 0.000000 1.741800 
# 
# From -- ./inp_files/17378.got.cif
#   From: 2010.03.12/outbox.cif.g09.slc.cpg/sg62_9_cif.got.tgz:17378.got - 2010.04.10 19:12:36.
