data_PCOD8254675
_publ_section_title
;
Structure prediction by ZEFSAII (Michael W. Deem and Ramdas Pophale) SiO2 
 PCOD8254675
Probable space group: P N M A
;
_chemical_formula_sum "Si O2"
_cell_formula_units_Z 48
_cell_length_a 9.973709
_cell_length_b 8.759564
_cell_length_c 27.498784
_cell_angle_alpha 90.000000
_cell_angle_beta 90.000000
_cell_angle_gamma 90.000000
_cell_volume 2402.440677
_symmetry_space_group_name_H-M "P N M A"
_symmetry_group_IT_number 62
_symmetry_cell_setting 'orthorhombic'
loop_
_space_group_symop_operation_xyz
x,y,z
1/2-x,-y,1/2+z
1/2+x,1/2-y,1/2-z
-x,1/2+y,-z
-x,-y,-z
1/2+x,y,1/2-z
1/2-x,1/2+y,1/2+z
x,1/2-y,z
loop_
_atom_site_type_symbol
_atom_site_label
_atom_site_fract_x
_atom_site_fract_y
_atom_site_fract_z
Si Si1 0.032087 0.426046 0.139901
Si Si2 0.254862 0.426216 0.707644
Si Si3 0.000758 0.572975 0.355987
Si Si4 0.251391 0.073850 0.310805
Si Si5 0.901034 0.070304 0.961100
Si Si6 0.099666 0.070043 0.538639
O O1 0.051854 0.250000 0.125828
O O2 0.883629 0.459284 0.158535
O O3 0.135212 0.469304 0.182074
O O4 0.054993 0.528456 0.092939
O O5 0.296268 0.250000 0.701069
O O6 0.109534 0.457785 0.685173
O O7 0.249414 0.466363 0.764053
O O8 0.043622 0.750000 0.357063
O O9 0.941956 0.518870 0.407448
O O10 0.127650 0.467830 0.345242
O O11 0.242672 0.250000 0.294610
O O12 0.906479 0.250000 0.966453
O O13 0.750331 0.010135 0.971200
O O14 0.000000 0.000000 0.000000
O O15 0.094018 0.250000 0.533717
O O16 0.000000 0.000000 0.500000
#
# Coordination Sequence:
#
# PCOD8254675 Si02
#       6
#     8   8   8   8   8   8
#     4  11  24  42  64  93 128 165 208 256 311 368
#     4  11  22  41  66  91 122 164 210 257 308 367
#     4  10  22  42  64  90 123 163 209 254 306 368
#     4  11  25  40  59  93 129 163 206 257 305 365
#     4  11  24  44  67  94 127 162 207 257 309 371
#     4  10  23  43  65  93 125 159 205 255 306 368
#
# _framework density 19.979680999999999
#
# number of rings (size 3 to 8) (size 9 to 14) (size 15 to 20)
#    0.000    1.333    1.667    3.000    2.333    8.667 
#    0.000    0.000    0.000    0.000    0.000    0.000 
#    0.000    0.000    0.000    0.000    0.000    0.000 
#
# Total GULP energy -595516.928204 kJ/mol
# GULP energy per Si atom -12406.602671 kJ/mol
# Density = 1.993421 g / cm^3
# Si number density = 19.979681 Si / 1000 Ang^3
#
#
#
# Elastic Constant Matrix: (Units=GPa)
#
#
# Indices 1 2 3 4 5 6 
#
# 1 143.1357 41.7398 64.4101 0.0000 0.0000 0.0000
# 2 41.7398 36.9928 30.2550 0.0000 0.0000 0.0000
# 3 64.4101 30.2550 117.3721 0.0000 0.0000 0.0000
# 4 0.0000 0.0000 0.0000 39.9477 0.0000 0.0000
# 5 0.0000 0.0000 0.0000 0.0000 36.2053 0.0000
# 6 0.0000 0.0000 0.0000 0.0000 0.0000 28.9488
#
#
#
# Elastic Compliance Matrix: (Units=1/GPa)
#
#
# Indices 1 2 3 4 5 6 
#
# 1 0.011608 -0.009995 -0.003794 0.000000 0.000000 0.000000
# 2 -0.009995 0.042860 -0.005563 0.000000 0.000000 0.000000
# 3 -0.003794 -0.005563 0.012036 0.000000 0.000000 0.000000
# 4 0.000000 0.000000 0.000000 0.025033 0.000000 0.000000
# 5 0.000000 0.000000 0.000000 0.000000 0.027620 0.000000
# 6 0.000000 0.000000 0.000000 0.000000 0.000000 0.034544
#
#
# Mechanical properties :
#
#
# Convention : Reuss Voigt Hill
#
# Bulk Modulus (GPa) = 35.97113 63.36781 49.66947
# Shear Modulus (GPa) = 24.79290 31.76007 28.27649
#
# Velocity S-wave (km/s) = 3.52647 3.99133 3.76608
# Velocity P-wave (km/s) = 5.88424 7.28189 6.62005
#
# Compressibility (1/GPa) = 0.02780007
#
# Stress axis : x y z
#
# Youngs Moduli (GPa) = 86.14591 23.33198 83.08547
#
# Poissons Ratio (x) = 0.23320 0.31521
# Poissons Ratio (y) = 0.86103 0.46220
# Poissons Ratio (z) = 0.32682 0.12980
#
# Static dielectric constant tensor:
#      x y z
#    x 3.862690 0.000000 0.000000 
#    y 0.000000 3.682710 0.000000 
#    z 0.000000 0.000000 4.651100 
# 
# 
# High freq. dielectric constant tensor:
#      x y z
#    x 1.796470 0.000000 0.000000 
#    y 0.000000 1.782470 0.000000 
#    z 0.000000 0.000000 1.789630 
# 
# From -- ./inp_files/31925.got.cif
#   From: 2010.03.12/outbox.cif.g09.slc.cpg/sg62_16_cif.got.tgz:31925.got - 2010.04.10 19:12:36.
