data_PCOD8254757
_publ_section_title
;
Structure prediction by ZEFSAII (Michael W. Deem and Ramdas Pophale) SiO2 
 PCOD8254757
Probable space group: P N M A
;
_chemical_formula_sum "Si O2"
_cell_formula_units_Z 40
_cell_length_a 9.352267
_cell_length_b 13.426101
_cell_length_c 14.383087
_cell_angle_alpha 90.000000
_cell_angle_beta 90.000000
_cell_angle_gamma 90.000000
_cell_volume 1806.004859
_symmetry_space_group_name_H-M "P N M A"
_symmetry_group_IT_number 62
_symmetry_cell_setting 'orthorhombic'
loop_
_space_group_symop_operation_xyz
x,y,z
1/2-x,-y,1/2+z
1/2+x,1/2-y,1/2-z
-x,1/2+y,-z
-x,-y,-z
1/2+x,y,1/2-z
1/2-x,1/2+y,1/2+z
x,1/2-y,z
loop_
_atom_site_type_symbol
_atom_site_label
_atom_site_fract_x
_atom_site_fract_y
_atom_site_fract_z
Si Si1 0.162906 0.477151 0.976323
Si Si2 0.504203 0.363322 0.832914
Si Si3 0.593217 0.135704 0.031229
Si Si4 0.234820 0.039419 0.772553
Si Si5 0.180646 0.866268 0.640418
O O1 0.260232 0.575564 0.966819
O O2 0.165537 0.433198 0.872255
O O3 0.222013 0.402021 0.054170
O O4 0.000000 0.500000 0.000000
O O5 0.459007 0.250000 0.816107
O O6 0.665411 0.384179 0.800487
O O7 0.402412 0.436452 0.774977
O O8 0.496258 0.392158 0.941588
O O9 0.640490 0.250000 0.025218
O O10 0.487939 0.115477 0.118318
O O11 0.215940 0.926172 0.735232
O O12 0.212316 0.750000 0.658198
#
# Coordination Sequence:
#
# PCOD8254757 Si02
#       5
#     8   8   8   8   8
#     4  12  25  43  66 100 143 179 223 290 354 409
#     4  11  23  42  69 100 133 176 232 286 340 406
#     4  10  22  45  73  94 128 185 238 281 341 416
#     4  12  24  41  69 102 136 180 229 284 347 414
#     4  11  24  46  72  99 138 187 235 286 350 422
#
# _framework density 22.148334999999999
#
# number of rings (size 3 to 8) (size 9 to 14) (size 15 to 20)
#    0.000    0.800    4.000    3.600    0.000    2.400 
#    0.000    5.000    0.000    0.000    0.000    0.000 
#    0.000    0.000    0.000    0.000    0.000    0.000 
#
# Total GULP energy -495988.431461 kJ/mol
# GULP energy per Si atom -12399.710787 kJ/mol
# Density = 2.209792 g / cm^3
# Si number density = 22.148335 Si / 1000 Ang^3
#
#
#
# Elastic Constant Matrix: (Units=GPa)
#
#
# Indices 1 2 3 4 5 6 
#
# 1 116.8275 45.8476 9.6071 0.0000 0.0000 0.0000
# 2 45.8476 62.0890 35.9352 0.0000 0.0000 0.0000
# 3 9.6071 35.9352 71.4446 0.0000 0.0000 0.0000
# 4 0.0000 0.0000 0.0000 38.3856 0.0000 0.0000
# 5 0.0000 0.0000 0.0000 0.0000 33.4196 0.0000
# 6 0.0000 0.0000 0.0000 0.0000 0.0000 35.4354
#
#
#
# Elastic Compliance Matrix: (Units=1/GPa)
#
#
# Indices 1 2 3 4 5 6 
#
# 1 0.012934 -0.012053 0.004323 0.000000 0.000000 0.000000
# 2 -0.012053 0.033952 -0.015456 0.000000 0.000000 0.000000
# 3 0.004323 -0.015456 0.021190 0.000000 0.000000 0.000000
# 4 0.000000 0.000000 0.000000 0.026051 0.000000 0.000000
# 5 0.000000 0.000000 0.000000 0.000000 0.029923 0.000000
# 6 0.000000 0.000000 0.000000 0.000000 0.000000 0.028220
#
#
# Mechanical properties :
#
#
# Convention : Reuss Voigt Hill
#
# Bulk Modulus (GPa) = 46.07564 48.12676 47.10120
# Shear Modulus (GPa) = 24.28643 32.04621 28.16632
#
# Velocity S-wave (km/s) = 3.31499 3.80793 3.56998
# Velocity P-wave (km/s) = 5.95824 6.41172 6.18914
#
# Compressibility (1/GPa) = 0.02170344
#
# Stress axis : x y z
#
# Youngs Moduli (GPa) = 77.31470 29.45369 47.19269
#
# Poissons Ratio (x) = 0.35500 -0.20402
# Poissons Ratio (y) = 0.93187 0.72942
# Poissons Ratio (z) = -0.33424 0.45524
#
# Static dielectric constant tensor:
#      x y z
#    x 3.867360 0.000000 0.000000 
#    y 0.000000 3.982610 0.000000 
#    z 0.000000 0.000000 4.200750 
# 
# 
# High freq. dielectric constant tensor:
#      x y z
#    x 1.871680 0.000000 0.000000 
#    y 0.000000 1.873700 0.000000 
#    z 0.000000 0.000000 1.878340 
# 
# From -- ./inp_files/16650.got.cif
#   From: 2010.03.12/outbox.cif.g09.slc.cpg/sg62_9_cif.got.tgz:16650.got - 2010.04.10 19:12:36.
