data_PCOD8254240
_publ_section_title
;
Structure prediction by ZEFSAII (Michael W. Deem and Ramdas Pophale) SiO2 
 PCOD8254240
Probable space group: P N M A
;
_chemical_formula_sum "Si O2"
_cell_formula_units_Z 48
_cell_length_a 13.752978
_cell_length_b 8.927597
_cell_length_c 20.198388
_cell_angle_alpha 90.000000
_cell_angle_beta 90.000000
_cell_angle_gamma 90.000000
_cell_volume 2479.979189
_symmetry_space_group_name_H-M "P N M A"
_symmetry_group_IT_number 62
_symmetry_cell_setting 'orthorhombic'
loop_
_space_group_symop_operation_xyz
x,y,z
1/2-x,-y,1/2+z
1/2+x,1/2-y,1/2-z
-x,1/2+y,-z
-x,-y,-z
1/2+x,y,1/2-z
1/2-x,1/2+y,1/2+z
x,1/2-y,z
loop_
_atom_site_type_symbol
_atom_site_label
_atom_site_fract_x
_atom_site_fract_y
_atom_site_fract_z
Si Si1 0.540416 0.424880 0.434806
Si Si2 0.257313 0.576732 0.257827
Si Si3 0.458509 0.426247 0.065454
Si Si4 0.414963 0.572967 0.810571
Si Si5 0.250084 0.576044 0.617863
Si Si6 0.027268 0.076086 0.805466
O O1 0.500000 0.500000 0.500000
O O2 0.517823 0.250000 0.436832
O O3 0.656261 0.454279 0.428074
O O4 0.479721 0.496966 0.375696
O O5 0.228437 0.750000 0.261838
O O6 0.195897 0.485370 0.313371
O O7 0.238156 0.519719 0.183848
O O8 0.367842 0.547788 0.275356
O O9 0.468552 0.250000 0.057183
O O10 0.523586 0.484301 0.126781
O O11 0.346493 0.473585 0.077611
O O12 0.500000 0.500000 0.000000
O O13 0.420286 0.750000 0.804515
O O14 0.451581 0.500036 0.743149
O O15 0.241919 0.750000 0.638443
O O16 0.002283 0.250000 0.813264
#
# Coordination Sequence:
#
# PCOD8254240 Si02
#       6
#     8   8   8   8   8   8
#     4  11  24  41  64  91 124 167 206 257 313 368
#     4  11  23  37  61  94 126 161 204 257 307 362
#     4  10  23  41  62  89 123 161 204 254 306 367
#     4  11  22  38  62  91 122 160 205 253 307 366
#     4  10  21  40  63  87 119 162 207 250 309 372
#     4  11  23  39  61  92 124 159 206 256 305 363
#
# _framework density 19.355001000000001
#
# number of rings (size 3 to 8) (size 9 to 14) (size 15 to 20)
#    0.000    1.333    3.333    2.000    0.000    6.000 
#    0.000    5.000    0.000    0.000    0.000    0.000 
#    0.000    0.000    0.000    0.000    0.000    0.000 
#
# Total GULP energy -595354.025858 kJ/mol
# GULP energy per Si atom -12403.208872 kJ/mol
# Density = 1.931095 g / cm^3
# Si number density = 19.355001 Si / 1000 Ang^3
#
#
#
# Elastic Constant Matrix: (Units=GPa)
#
#
# Indices 1 2 3 4 5 6 
#
# 1 86.6839 40.7710 31.7408 0.0000 0.0000 0.0000
# 2 40.7710 82.6816 42.3645 0.0000 0.0000 0.0000
# 3 31.7408 42.3645 116.5396 0.0000 0.0000 0.0000
# 4 0.0000 0.0000 0.0000 38.3897 0.0000 0.0000
# 5 0.0000 0.0000 0.0000 0.0000 34.1541 0.0000
# 6 0.0000 0.0000 0.0000 0.0000 0.0000 34.5569
#
#
#
# Elastic Compliance Matrix: (Units=1/GPa)
#
#
# Indices 1 2 3 4 5 6 
#
# 1 0.015305 -0.006650 -0.001751 0.000000 0.000000 0.000000
# 2 -0.006650 0.017752 -0.004642 0.000000 0.000000 0.000000
# 3 -0.001751 -0.004642 0.010745 0.000000 0.000000 0.000000
# 4 0.000000 0.000000 0.000000 0.026049 0.000000 0.000000
# 5 0.000000 0.000000 0.000000 0.000000 0.029279 0.000000
# 6 0.000000 0.000000 0.000000 0.000000 0.000000 0.028938
#
#
# Mechanical properties :
#
#
# Convention : Reuss Voigt Hill
#
# Bulk Modulus (GPa) = 56.44521 57.29532 56.87027
# Shear Modulus (GPa) = 31.23837 32.82207 32.03022
#
# Velocity S-wave (km/s) = 4.02178 4.12247 4.07244
# Velocity P-wave (km/s) = 7.12690 7.23369 7.18049
#
# Compressibility (1/GPa) = 0.01771629
#
# Stress axis : x y z
#
# Youngs Moduli (GPa) = 65.33790 56.33104 93.06455
#
# Poissons Ratio (x) = 0.37459 0.16297
# Poissons Ratio (y) = 0.43448 0.43202
# Poissons Ratio (z) = 0.11442 0.26150
#
# Static dielectric constant tensor:
#      x y z
#    x 4.110170 0.000000 0.000000 
#    y 0.000000 3.597030 0.000000 
#    z 0.000000 0.000000 3.538650 
# 
# 
# High freq. dielectric constant tensor:
#      x y z
#    x 1.773350 0.000000 0.000000 
#    y 0.000000 1.760440 0.000000 
#    z 0.000000 0.000000 1.747190 
# 
# From -- ./inp_files/23691.got.cif
#   From: 2010.03.12/outbox.cif.g09.slc.cpg/sg62_12_cif.got.tgz:23691.got - 2010.04.10 19:12:36.
