data_PCOD8254653
_publ_section_title
;
Structure prediction by ZEFSAII (Michael W. Deem and Ramdas Pophale) SiO2 
 PCOD8254653
Probable space group: P N M A
;
_chemical_formula_sum "Si O2"
_cell_formula_units_Z 48
_cell_length_a 5.413356
_cell_length_b 15.858933
_cell_length_c 25.991907
_cell_angle_alpha 90.000000
_cell_angle_beta 90.000000
_cell_angle_gamma 90.000000
_cell_volume 2231.406518
_symmetry_space_group_name_H-M "P N M A"
_symmetry_group_IT_number 62
_symmetry_cell_setting 'orthorhombic'
loop_
_space_group_symop_operation_xyz
x,y,z
1/2-x,-y,1/2+z
1/2+x,1/2-y,1/2-z
-x,1/2+y,-z
-x,-y,-z
1/2+x,y,1/2-z
1/2-x,1/2+y,1/2+z
x,1/2-y,z
loop_
_atom_site_type_symbol
_atom_site_label
_atom_site_fract_x
_atom_site_fract_y
_atom_site_fract_z
Si Si1 0.085884 0.250000 0.813539
Si Si2 0.269952 0.650693 0.719467
Si Si3 0.422490 0.537155 0.630684
Si Si4 0.915175 0.916901 0.436929
Si Si5 0.310845 0.044468 0.463470
Si Si6 0.581617 0.250000 0.875986
Si Si7 0.428088 0.565000 0.277924
O O1 0.860048 0.250000 0.854047
O O2 0.063048 0.333588 0.779173
O O3 0.364602 0.250000 0.834465
O O4 0.525465 0.624588 0.748434
O O5 0.266507 0.750000 0.708444
O O6 0.263622 0.602925 0.664521
O O7 0.269615 0.470326 0.597921
O O8 0.573150 0.591179 0.586908
O O9 0.598575 0.479509 0.666798
O O10 0.965305 0.828984 0.411395
O O11 0.163489 0.968800 0.437540
O O12 0.841520 0.896978 0.497036
O O13 0.500000 0.000000 0.500000
O O14 0.192127 0.533751 0.245083
#
# Coordination Sequence:
#
# PCOD8254653 Si02
#       7
#     4   8   8   8   8   4   8
#     4  12  24  43  60  90 136 182 218 265 316 367
#     4  10  23  43  65  94 130 168 212 270 328 385
#     4  11  22  38  68  93 126 169 216 265 326 394
#     4  10  22  41  66  96 128 170 216 270 325 390
#     4   9  21  41  65  92 125 165 212 274 323 381
#     4  12  24  41  70  96 130 178 218 263 328 393
#     4  12  25  39  60  93 131 173 222 264 313 378
#
# _framework density 21.511095000000001
#
# number of rings (size 3 to 8) (size 9 to 14) (size 15 to 20)
#    0.000    1.333    1.667    3.500    7.000    0.000 
#    1.500    0.000   14.667    0.000    0.000    0.000 
#    0.000    0.000    0.000    0.000    0.000    0.000 
#
# Total GULP energy -594714.272829 kJ/mol
# GULP energy per Si atom -12389.880684 kJ/mol
# Density = 2.146213 g / cm^3
# Si number density = 21.511095 Si / 1000 Ang^3
#
#
#
# Elastic Constant Matrix: (Units=GPa)
#
#
# Indices 1 2 3 4 5 6 
#
# 1 99.3038 11.6619 41.9190 0.0000 0.0000 0.0000
# 2 11.6619 30.3570 29.1009 0.0000 0.0000 0.0000
# 3 41.9190 29.1009 137.7562 0.0000 0.0000 0.0000
# 4 0.0000 0.0000 0.0000 43.8883 0.0000 0.0000
# 5 0.0000 0.0000 0.0000 0.0000 35.9604 0.0000
# 6 0.0000 0.0000 0.0000 0.0000 0.0000 31.4259
#
#
#
# Elastic Compliance Matrix: (Units=1/GPa)
#
#
# Indices 1 2 3 4 5 6 
#
# 1 0.011598 -0.001345 -0.003245 0.000000 0.000000 0.000000
# 2 -0.001345 0.041462 -0.008350 0.000000 0.000000 0.000000
# 3 -0.003245 -0.008350 0.010011 0.000000 0.000000 0.000000
# 4 0.000000 0.000000 0.000000 0.022785 0.000000 0.000000
# 5 0.000000 0.000000 0.000000 0.000000 0.027808 0.000000
# 6 0.000000 0.000000 0.000000 0.000000 0.000000 0.031821
#
#
# Mechanical properties :
#
#
# Convention : Reuss Voigt Hill
#
# Bulk Modulus (GPa) = 26.88774 48.08673 37.48724
# Shear Modulus (GPa) = 27.20930 34.57063 30.88996
#
# Velocity S-wave (km/s) = 3.56040 4.01322 3.79357
# Velocity P-wave (km/s) = 5.42480 6.62401 6.05417
#
# Compressibility (1/GPa) = 0.03719166
#
# Stress axis : x y z
#
# Youngs Moduli (GPa) = 86.22259 24.11848 99.89448
#
# Poissons Ratio (x) = 0.03243 0.32418
# Poissons Ratio (y) = 0.11593 0.83409
# Poissons Ratio (z) = 0.27981 0.20138
#
# Static dielectric constant tensor:
#      x y z
#    x 4.180550 0.000000 0.000000 
#    y 0.000000 3.785240 0.000000 
#    z 0.000000 0.000000 4.478560 
# 
# 
# High freq. dielectric constant tensor:
#      x y z
#    x 1.857830 0.000000 0.000000 
#    y 0.000000 1.827370 0.000000 
#    z 0.000000 0.000000 1.860290 
# 
# From -- ./inp_files/28350.got.cif
#   From: 2010.03.12/outbox.cif.g09.slc.cpg/sg62_15_cif.got.tgz:28350.got - 2010.04.10 19:12:36.
