data_PCOD8254878
_publ_section_title
;
Structure prediction by ZEFSAII (Michael W. Deem and Ramdas Pophale) SiO2 
 PCOD8254878
Probable space group: P N M A
;
_chemical_formula_sum "Si O2"
_cell_formula_units_Z 48
_cell_length_a 17.238652
_cell_length_b 15.502104
_cell_length_c 8.500289
_cell_angle_alpha 90.000000
_cell_angle_beta 90.000000
_cell_angle_gamma 90.000000
_cell_volume 2271.577928
_symmetry_space_group_name_H-M "P N M A"
_symmetry_group_IT_number 62
_symmetry_cell_setting 'orthorhombic'
loop_
_space_group_symop_operation_xyz
x,y,z
1/2-x,-y,1/2+z
1/2+x,1/2-y,1/2-z
-x,1/2+y,-z
-x,-y,-z
1/2+x,y,1/2-z
1/2-x,1/2+y,1/2+z
x,1/2-y,z
loop_
_atom_site_type_symbol
_atom_site_label
_atom_site_fract_x
_atom_site_fract_y
_atom_site_fract_z
Si Si1 0.430132 0.750000 0.172830
Si Si2 0.060904 0.905407 0.830317
Si Si3 0.262289 0.412139 0.385659
Si Si4 0.457690 0.594280 0.381032
Si Si5 0.792522 0.911071 0.953713
Si Si6 0.532199 0.750000 0.891128
Si Si7 0.758985 0.750000 0.394828
Si Si8 0.194221 0.750000 0.430584
O O1 0.465759 0.665501 0.249668
O O2 0.338728 0.750000 0.201257
O O3 0.453605 0.750000 0.991183
O O4 0.152516 0.894026 0.820337
O O5 0.025247 0.835751 0.713247
O O6 0.036975 0.003466 0.787534
O O7 0.031552 0.890251 0.007636
O O8 0.255243 0.500921 0.480852
O O9 0.204631 0.414630 0.236188
O O10 0.240862 0.334851 0.500395
O O11 0.379747 0.600797 0.484956
O O12 0.738450 0.833902 0.009154
O O13 0.606981 0.750000 0.004199
O O14 0.691945 0.750000 0.261110
#
# Coordination Sequence:
#
# PCOD8254878 Si02
#       8
#     4   8   8   8   8   4   4   4
#     4  12  27  41  63  95 134 171 213 265 314 391
#     4  10  23  45  66  92 127 172 216 263 318 387
#     4  11  24  41  69  96 126 167 219 266 324 380
#     4  10  23  45  67  91 131 174 213 258 327 385
#     4  11  22  43  68  94 126 168 212 271 320 379
#     4  12  26  40  67  97 133 169 215 266 318 375
#     4  12  26  41  63  97 130 171 217 264 320 384
#     4  12  23  42  65  93 131 171 207 273 316 372
#
# _framework density 21.130686000000001
#
# number of rings (size 3 to 8) (size 9 to 14) (size 15 to 20)
#    0.000    1.000    3.333    2.500    7.000    0.667 
#    3.000    0.000    0.000    0.000    0.000    0.000 
#    0.000    0.000    0.000    0.000    0.000    0.000 
#
# Total GULP energy -595341.309828 kJ/mol
# GULP energy per Si atom -12402.943955 kJ/mol
# Density = 2.108259 g / cm^3
# Si number density = 21.130686 Si / 1000 Ang^3
#
#
#
# Elastic Constant Matrix: (Units=GPa)
#
#
# Indices 1 2 3 4 5 6 
#
# 1 37.2891 22.2555 10.3776 0.0000 0.0000 0.0000
# 2 22.2555 168.2351 70.6458 0.0000 0.0000 0.0000
# 3 10.3776 70.6458 101.3381 0.0000 0.0000 0.0000
# 4 0.0000 0.0000 0.0000 330.6538 0.0000 0.0000
# 5 0.0000 0.0000 0.0000 0.0000 26.8606 0.0000
# 6 0.0000 0.0000 0.0000 0.0000 0.0000 28.8582
#
#
#
# Elastic Compliance Matrix: (Units=1/GPa)
#
#
# Indices 1 2 3 4 5 6 
#
# 1 0.029129 -0.003677 -0.000419 0.000000 0.000000 0.000000
# 2 -0.003677 0.008869 -0.005806 0.000000 0.000000 0.000000
# 3 -0.000419 -0.005806 0.013958 0.000000 0.000000 0.000000
# 4 0.000000 0.000000 0.000000 0.003024 0.000000 0.000000
# 5 0.000000 0.000000 0.000000 0.000000 0.037229 0.000000
# 6 0.000000 0.000000 0.000000 0.000000 0.000000 0.034652
#
#
# Mechanical properties :
#
#
# Convention : Reuss Voigt Hill
#
# Bulk Modulus (GPa) = 31.10365 57.04670 44.07517
# Shear Modulus (GPa) = 31.76943 90.84674 61.30809
#
# Velocity S-wave (km/s) = 3.88167 6.56400 5.39229
# Velocity P-wave (km/s) = 5.90266 9.19260 7.72481
#
# Compressibility (1/GPa) = 0.03215057
#
# Stress axis : x y z
#
# Youngs Moduli (GPa) = 34.33011 112.75751 71.64126
#
# Poissons Ratio (x) = 0.41464 0.03005
# Poissons Ratio (y) = 0.12624 0.41595
# Poissons Ratio (z) = 0.01440 0.65467
#
# Static dielectric constant tensor:
#      x y z
#    x 3.771800 0.000000 0.000000 
#    y 0.000000 4.186850 0.000000 
#    z 0.000000 0.000000 3.797320 
# 
# 
# High freq. dielectric constant tensor:
#      x y z
#    x 1.822710 0.000000 0.000000 
#    y 0.000000 1.852100 0.000000 
#    z 0.000000 0.000000 1.828960 
# 
# From -- ./inp_files/7725.got.cif
#   From: 2010.03.12/outbox.cif.g09.slc.cpg/sg62_4_cif.got.tgz:7725.got - 2010.04.10 19:12:36.
