data_PCOD8254285
_publ_section_title
;
Structure prediction by ZEFSAII (Michael W. Deem and Ramdas Pophale) SiO2 
 PCOD8254285
Probable space group: P N M A
;
_chemical_formula_sum "Si O2"
_cell_formula_units_Z 56
_cell_length_a 9.038200
_cell_length_b 17.112298
_cell_length_c 18.092499
_cell_angle_alpha 90.000000
_cell_angle_beta 90.000000
_cell_angle_gamma 90.000000
_cell_volume 2798.264992
_symmetry_space_group_name_H-M "P N M A"
_symmetry_group_IT_number 62
_symmetry_cell_setting 'orthorhombic'
loop_
_space_group_symop_operation_xyz
x,y,z
1/2-x,-y,1/2+z
1/2+x,1/2-y,1/2-z
-x,1/2+y,-z
-x,-y,-z
1/2+x,y,1/2-z
1/2-x,1/2+y,1/2+z
x,1/2-y,z
loop_
_atom_site_type_symbol
_atom_site_label
_atom_site_fract_x
_atom_site_fract_y
_atom_site_fract_z
Si Si1 0.421378 0.340044 0.077805
Si Si2 0.919822 0.384760 0.585964
Si Si3 0.424418 0.250000 0.671332
Si Si4 0.075582 0.250000 0.671332
Si Si5 0.078622 0.159956 0.077805
Si Si6 0.921297 0.960647 0.674244
Si Si7 0.080178 0.115240 0.914036
Si Si8 0.921297 0.460647 0.174244
O O1 0.469709 0.250000 0.071987
O O2 0.250000 0.347928 0.098463
O O3 0.514574 0.380080 0.142552
O O4 0.456863 0.382563 0.000636
O O5 0.949747 0.471679 0.614576
O O6 0.750000 0.358538 0.600010
O O7 0.028847 0.326897 0.627654
O O8 0.250000 0.250000 0.682186
O O9 0.500000 0.250000 0.750000
O O10 0.471153 0.326896 0.627654
O O11 0.030290 0.250000 0.071987
O O12 0.985426 0.119920 0.142551
O O13 0.043137 0.117437 0.000636
O O14 0.750000 0.948528 0.691196
O O15 0.000000 0.984554 0.750000
O O16 0.050253 0.028321 0.885424
#
# Coordination Sequence:
#
# PCOD8254285 Si02
#       8
#     8   8   4   4   8   8   8   8
#     4  10  21  40  66  91 122 161 199 249 310 366
#     4  10  21  41  64  89 123 160 200 250 307 365
#     4  12  24  36  58  90 125 164 203 248 298 360
#     4  12  24  36  58  90 125 164 203 248 298 360
#     4  10  21  40  66  91 122 161 199 249 310 366
#     4  11  24  40  62  90 123 162 206 255 304 361
#     4  10  21  41  64  89 123 160 200 250 307 365
#     4  11  24  40  62  90 123 162 206 255 304 361
#
# _framework density 20.012401000000001
#
# number of rings (size 3 to 8) (size 9 to 14) (size 15 to 20)
#    0.000    1.429    1.429    3.857    0.000    6.857 
#    0.000    0.000    0.000    0.000    0.000    0.000 
#    0.000    0.000    0.000    0.000    0.000    0.000 
#
# Total GULP energy -694777.034916 kJ/mol
# GULP energy per Si atom -12406.732766 kJ/mol
# Density = 1.996685 g / cm^3
# Si number density = 20.012401 Si / 1000 Ang^3
#
#
#
# Elastic Constant Matrix: (Units=GPa)
#
#
# Indices 1 2 3 4 5 6 
#
# 1 108.3868 47.8966 39.2997 0.0000 0.0000 0.0000
# 2 47.8966 103.8646 39.8420 0.0000 0.0000 0.0000
# 3 39.2997 39.8420 72.7719 0.0000 0.0000 0.0000
# 4 0.0000 0.0000 0.0000 -44.5361 0.0000 0.0000
# 5 0.0000 0.0000 0.0000 0.0000 36.3182 0.0000
# 6 0.0000 0.0000 0.0000 0.0000 0.0000 33.1638
#
#
#
# Elastic Compliance Matrix: (Units=1/GPa)
#
#
# Indices 1 2 3 4 5 6 
#
# 1 0.012709 -0.004086 -0.004626 0.000000 0.000000 0.000000
# 2 -0.004086 0.013501 -0.005185 0.000000 0.000000 0.000000
# 3 -0.004626 -0.005185 0.019079 0.000000 0.000000 0.000000
# 4 0.000000 0.000000 0.000000 -0.022454 0.000000 0.000000
# 5 0.000000 0.000000 0.000000 0.000000 0.027534 0.000000
# 6 0.000000 0.000000 0.000000 0.000000 0.000000 0.030153
#
#
# Mechanical properties :
#
#
# Convention : Reuss Voigt Hill
#
# Bulk Modulus (GPa) = 57.16240 59.89997 58.53118
# Shear Modulus (GPa) = 43.80191 15.52152 29.66172
#
# Velocity S-wave (km/s) = 4.68347 2.78797 3.85407
# Velocity P-wave (km/s) = 7.60737 6.35296 7.00829
#
# Compressibility (1/GPa) = 0.01749402
#
# Stress axis : x y z
#
# Youngs Moduli (GPa) = 78.68188 74.06737 52.41413
#
# Poissons Ratio (x) = 0.30265 0.24249
# Poissons Ratio (y) = 0.32151 0.27177
# Poissons Ratio (z) = 0.36402 0.38405
#
# Static dielectric constant tensor:
#      x y z
#    x 3.616890 0.000000 0.000000 
#    y 0.000000 3.605930 0.000000 
#    z 0.000000 0.000000 3.673760 
# 
# 
# High freq. dielectric constant tensor:
#      x y z
#    x 1.780000 0.000000 0.000000 
#    y 0.000000 1.787080 0.000000 
#    z 0.000000 0.000000 1.789060 
# 
# From -- ./inp_files/22445.got.cif
#   From: 2010.03.12/outbox.cif.g09.slc.cpg/sg62_12_cif.got.tgz:22445.got - 2010.04.10 19:12:36.
