data_PCOD8254158
_publ_section_title
;
Structure prediction by ZEFSAII (Michael W. Deem and Ramdas Pophale) SiO2 
 PCOD8254158
Probable space group: P N M A
;
_chemical_formula_sum "Si O2"
_cell_formula_units_Z 48
_cell_length_a 9.699795
_cell_length_b 16.033694
_cell_length_c 15.528998
_cell_angle_alpha 90.000000
_cell_angle_beta 90.000000
_cell_angle_gamma 90.000000
_cell_volume 2415.124818
_symmetry_space_group_name_H-M "P N M A"
_symmetry_group_IT_number 62
_symmetry_cell_setting 'orthorhombic'
loop_
_space_group_symop_operation_xyz
x,y,z
1/2-x,-y,1/2+z
1/2+x,1/2-y,1/2-z
-x,1/2+y,-z
-x,-y,-z
1/2+x,y,1/2-z
1/2-x,1/2+y,1/2+z
x,1/2-y,z
loop_
_atom_site_type_symbol
_atom_site_label
_atom_site_fract_x
_atom_site_fract_y
_atom_site_fract_z
Si Si1 0.894469 0.575316 0.998090
Si Si2 0.947045 0.601498 0.184070
Si Si3 0.628385 0.930332 0.761373
Si Si4 0.372603 0.508236 0.061199
Si Si5 0.743194 0.345067 0.832838
Si Si6 0.105578 0.343618 0.182268
O O1 0.744039 0.537400 0.992257
O O2 0.919668 0.635748 0.917627
O O3 0.908795 0.628200 0.086474
O O4 0.000000 0.500000 0.000000
O O5 0.902423 0.504719 0.194106
O O6 0.861006 0.656278 0.251762
O O7 0.111481 0.614422 0.197193
O O8 0.788852 0.905852 0.769182
O O9 0.539722 0.851053 0.731588
O O10 0.579540 0.959231 0.854600
O O11 0.323081 0.601525 0.088789
O O12 0.500000 0.500000 0.000000
O O13 0.764444 0.250000 0.864351
O O14 0.161253 0.250000 0.189595
#
# Coordination Sequence:
#
# PCOD8254158 Si02
#       6
#     8   8   8   8   8   8
#     4  11  21  41  63  91 121 165 216 250 308 385
#     4  11  22  41  67  89 123 168 216 255 313 396
#     4  10  21  39  63  86 120 162 212 249 301 386
#     4  10  23  39  64  90 121 168 213 252 305 383
#     4  11  24  41  62  97 130 160 209 271 322 367
#     4  11  23  39  60  93 126 158 203 264 316 360
#
# _framework density 19.874749000000001
#
# number of rings (size 3 to 8) (size 9 to 14) (size 15 to 20)
#    0.000    1.333    3.333    3.000    7.000    1.333 
#    0.000    4.167    0.000    0.000    0.000    0.000 
#    0.000    0.000    0.000    0.000    0.000    0.000 
#
# Total GULP energy -595072.824076 kJ/mol
# GULP energy per Si atom -12397.350502 kJ/mol
# Density = 1.982951 g / cm^3
# Si number density = 19.874749 Si / 1000 Ang^3
#
#
#
# Elastic Constant Matrix: (Units=GPa)
#
#
# Indices 1 2 3 4 5 6 
#
# 1 94.6576 25.7501 59.3084 0.0000 0.0000 0.0000
# 2 25.7501 98.2035 21.7044 0.0000 0.0000 0.0000
# 3 59.3084 21.7044 89.8806 0.0000 0.0000 0.0000
# 4 0.0000 0.0000 0.0000 24.2107 0.0000 0.0000
# 5 0.0000 0.0000 0.0000 0.0000 41.7344 0.0000
# 6 0.0000 0.0000 0.0000 0.0000 0.0000 25.6754
#
#
#
# Elastic Compliance Matrix: (Units=1/GPa)
#
#
# Indices 1 2 3 4 5 6 
#
# 1 0.018478 -0.002272 -0.011644 0.000000 0.000000 0.000000
# 2 -0.002272 0.011036 -0.001166 0.000000 0.000000 0.000000
# 3 -0.011644 -0.001166 0.019091 0.000000 0.000000 0.000000
# 4 0.000000 0.000000 0.000000 0.041304 0.000000 0.000000
# 5 0.000000 0.000000 0.000000 0.000000 0.023961 0.000000
# 6 0.000000 0.000000 0.000000 0.000000 0.000000 0.038948
#
#
# Mechanical properties :
#
#
# Convention : Reuss Voigt Hill
#
# Bulk Modulus (GPa) = 54.22599 55.14082 54.68340
# Shear Modulus (GPa) = 26.43682 30.05602 28.24642
#
# Velocity S-wave (km/s) = 3.65111 3.89301 3.77400
# Velocity P-wave (km/s) = 6.71693 6.92905 6.82382
#
# Compressibility (1/GPa) = 0.01844134
#
# Stress axis : x y z
#
# Youngs Moduli (GPa) = 54.11761 90.60998 52.38029
#
# Poissons Ratio (x) = 0.20583 0.60994
# Poissons Ratio (y) = 0.12293 0.06108
# Poissons Ratio (z) = 0.63017 0.10566
#
# Static dielectric constant tensor:
#      x y z
#    x 3.547540 0.000000 0.000000 
#    y 0.000000 3.425810 0.000000 
#    z 0.000000 0.000000 3.858160 
# 
# 
# High freq. dielectric constant tensor:
#      x y z
#    x 1.786110 0.000000 0.000000 
#    y 0.000000 1.761890 0.000000 
#    z 0.000000 0.000000 1.778120 
# 
# From -- ./inp_files/16942.got.cif
#   From: 2010.03.12/outbox.cif.g09.slc.cpg/sg62_9_cif.got.tgz:16942.got - 2010.04.10 19:12:36.
