data_PCOD8254002
_publ_section_title
;
Structure prediction by ZEFSAII (Michael W. Deem and Ramdas Pophale) SiO2 
 PCOD8254002
Probable space group: P N M A
;
_chemical_formula_sum "Si O2"
_cell_formula_units_Z 64
_cell_length_a 23.876805
_cell_length_b 8.820846
_cell_length_c 15.369026
_cell_angle_alpha 90.000000
_cell_angle_beta 90.000000
_cell_angle_gamma 90.000000
_cell_volume 3236.926200
_symmetry_space_group_name_H-M "P N M A"
_symmetry_group_IT_number 62
_symmetry_cell_setting 'orthorhombic'
loop_
_space_group_symop_operation_xyz
x,y,z
1/2-x,-y,1/2+z
1/2+x,1/2-y,1/2-z
-x,1/2+y,-z
-x,-y,-z
1/2+x,y,1/2-z
1/2-x,1/2+y,1/2+z
x,1/2-y,z
loop_
_atom_site_type_symbol
_atom_site_label
_atom_site_fract_x
_atom_site_fract_y
_atom_site_fract_z
Si Si1 0.685441 0.071144 0.494744
Si Si2 0.379221 0.428295 0.165509
Si Si3 0.501425 0.429306 0.405305
Si Si4 0.113726 0.575874 0.151068
Si Si5 0.499554 0.427526 0.093999
Si Si6 0.608988 0.575782 0.153547
Si Si7 0.811824 0.070241 0.502079
Si Si8 0.109570 0.428125 0.841544
O O1 0.683463 0.250000 0.477525
O O2 0.748408 0.011117 0.509183
O O3 0.649562 0.025961 0.578911
O O4 0.662079 0.987196 0.410410
O O5 0.371957 0.250000 0.181314
O O6 0.442773 0.472209 0.143004
O O7 0.339280 0.486246 0.087835
O O8 0.361188 0.517914 0.252384
O O9 0.500000 0.500000 0.500000
O O10 0.499984 0.250000 0.413456
O O11 0.557750 0.478371 0.357755
O O12 0.448976 0.484849 0.349445
O O13 0.100803 0.750000 0.126873
O O14 0.135214 0.560649 0.250260
O O15 0.504043 0.250000 0.081571
O O16 0.550974 0.485581 0.151334
O O17 0.500000 0.500000 0.000000
O O18 0.595743 0.750000 0.130256
O O19 0.652783 0.506357 0.083925
O O20 0.812806 0.250000 0.506241
O O21 0.098239 0.250000 0.840080
#
# Coordination Sequence:
#
# PCOD8254002 Si02
#       8
#     8   8   8   8   8   8   8   8
#     4  10  22  40  62  83 114 160 203 246 295 348
#     4  10  21  38  61  86 116 157 198 241 296 354
#     4  12  23  38  62  89 122 157 195 239 295 358
#     4  11  23  38  62  92 122 154 194 245 299 351
#     4  11  21  35  59  89 119 153 192 238 297 356
#     4  10  21  39  61  87 119 156 196 239 291 353
#     4   9  19  40  63  83 113 158 205 245 294 349
#     4  11  23  38  59  90 122 155 197 243 298 352
#
# _framework density 19.771844000000002
#
# number of rings (size 3 to 8) (size 9 to 14) (size 15 to 20)
#    0.000    1.500    2.500    3.000    0.000    5.500 
#    0.000    2.500    0.000    0.000    0.000    0.000 
#    0.000    0.000    0.000    0.000    0.000    0.000 
#
# Total GULP energy -793873.886150 kJ/mol
# GULP energy per Si atom -12404.279471 kJ/mol
# Density = 1.972684 g / cm^3
# Si number density = 19.771844 Si / 1000 Ang^3
#
#
#
# Elastic Constant Matrix: (Units=GPa)
#
#
# Indices 1 2 3 4 5 6 
#
# 1 126.3562 32.1010 45.6503 0.0000 0.0000 0.0000
# 2 32.1010 66.4278 35.6385 0.0000 0.0000 0.0000
# 3 45.6503 35.6385 133.8871 0.0000 0.0000 0.0000
# 4 0.0000 0.0000 0.0000 31.4611 0.0000 0.0000
# 5 0.0000 0.0000 0.0000 0.0000 15.4729 0.0000
# 6 0.0000 0.0000 0.0000 0.0000 0.0000 24.5557
#
#
#
# Elastic Compliance Matrix: (Units=1/GPa)
#
#
# Indices 1 2 3 4 5 6 
#
# 1 0.009634 -0.003375 -0.002386 0.000000 0.000000 0.000000
# 2 -0.003375 0.018744 -0.003839 0.000000 0.000000 0.000000
# 3 -0.002386 -0.003839 0.009304 0.000000 0.000000 0.000000
# 4 0.000000 0.000000 0.000000 0.031785 0.000000 0.000000
# 5 0.000000 0.000000 0.000000 0.000000 0.064629 0.000000
# 6 0.000000 0.000000 0.000000 0.000000 0.000000 0.040724
#
#
# Mechanical properties :
#
#
# Convention : Reuss Voigt Hill
#
# Bulk Modulus (GPa) = 54.10595 61.49454 57.80025
# Shear Modulus (GPa) = 24.97730 28.51669 26.74700
#
# Velocity S-wave (km/s) = 3.55812 3.80187 3.68201
# Velocity P-wave (km/s) = 6.65619 7.10224 6.88283
#
# Compressibility (1/GPa) = 0.01848225
#
# Stress axis : x y z
#
# Youngs Moduli (GPa) = 103.80182 53.34914 107.47603
#
# Poissons Ratio (x) = 0.18006 0.25647
# Poissons Ratio (y) = 0.35035 0.41256
# Poissons Ratio (z) = 0.24770 0.20479
#
# Static dielectric constant tensor:
#      x y z
#    x 3.733640 0.000000 0.000000 
#    y 0.000000 3.526100 0.000000 
#    z 0.000000 0.000000 3.410740 
# 
# 
# High freq. dielectric constant tensor:
#      x y z
#    x 1.766210 0.000000 0.000000 
#    y 0.000000 1.759490 0.000000 
#    z 0.000000 0.000000 1.788130 
# 
# From -- ./inp_files/20755.got.cif
#   From: 2010.03.12/outbox.cif.g09.slc.cpg/sg62_11_cif.got.tgz:20755.got - 2010.04.10 19:12:36.
