data_PCOD8254728
_publ_section_title
;
Structure prediction by ZEFSAII (Michael W. Deem and Ramdas Pophale) SiO2 
 PCOD8254728
Probable space group: P N M A
;
_chemical_formula_sum "Si O2"
_cell_formula_units_Z 64
_cell_length_a 11.866151
_cell_length_b 8.915506
_cell_length_c 30.480995
_cell_angle_alpha 90.000000
_cell_angle_beta 90.000000
_cell_angle_gamma 90.000000
_cell_volume 3224.667992
_symmetry_space_group_name_H-M "P N M A"
_symmetry_group_IT_number 62
_symmetry_cell_setting 'orthorhombic'
loop_
_space_group_symop_operation_xyz
x,y,z
1/2-x,-y,1/2+z
1/2+x,1/2-y,1/2-z
-x,1/2+y,-z
-x,-y,-z
1/2+x,y,1/2-z
1/2-x,1/2+y,1/2+z
x,1/2-y,z
loop_
_atom_site_type_symbol
_atom_site_label
_atom_site_fract_x
_atom_site_fract_y
_atom_site_fract_z
Si Si1 0.531307 0.419716 0.287421
Si Si2 0.026884 0.919853 0.044737
Si Si3 0.262300 0.419866 0.167600
Si Si4 0.483853 0.425485 0.046682
Si Si5 0.597410 0.925795 0.625042
Si Si6 0.734665 0.419731 0.918837
Si Si7 0.858825 0.926085 0.626628
Si Si8 0.511852 0.073364 0.801718
O O1 0.494676 0.250000 0.274160
O O2 0.664008 0.421975 0.296833
O O3 0.457620 0.475282 0.328847
O O4 0.514591 0.536000 0.248429
O O5 0.983974 0.750000 0.042496
O O6 0.161871 0.926810 0.047894
O O7 0.965590 0.994992 0.085476
O O8 0.000000 0.000000 0.000000
O O9 0.288287 0.250000 0.152288
O O10 0.219626 0.518836 0.127137
O O11 0.373419 0.490670 0.187285
O O12 0.484956 0.250000 0.038930
O O13 0.364736 0.473638 0.065802
O O14 0.582071 0.472258 0.080759
O O15 0.500000 0.500000 0.000000
O O16 0.580372 0.750000 0.618079
O O17 0.728270 0.971543 0.624132
O O18 0.689273 0.250000 0.913963
O O19 0.874424 0.750000 0.635993
O O20 0.912795 0.016551 0.666711
O O21 0.526205 0.250000 0.807680
#
# Coordination Sequence:
#
# PCOD8254728 Si02
#       8
#     8   8   8   8   8   8   8   8
#     4  10  23  42  66  93 123 165 211 257 311 374
#     4  11  25  42  64  94 129 166 207 257 311 372
#     4  11  22  41  68  93 122 162 211 260 311 373
#     4  11  24  41  64  93 128 168 210 260 314 374
#     4  10  22  43  67  92 124 163 210 260 312 370
#     4  11  23  41  65  93 126 162 207 263 315 366
#     4  10  23  43  65  90 125 168 212 257 310 371
#     4  12  26  41  63  94 130 167 207 258 313 371
#
# _framework density 19.847004999999999
#
# number of rings (size 3 to 8) (size 9 to 14) (size 15 to 20)
#    0.000    1.250    2.500    2.625    3.500    4.000 
#    0.000    0.000    0.000    0.000    0.000    0.000 
#    0.000    0.000    0.000    0.000    0.000    0.000 
#
# Total GULP energy -793843.911852 kJ/mol
# GULP energy per Si atom -12403.811123 kJ/mol
# Density = 1.980183 g / cm^3
# Si number density = 19.847005 Si / 1000 Ang^3
#
#
#
# Elastic Constant Matrix: (Units=GPa)
#
#
# Indices 1 2 3 4 5 6 
#
# 1 112.0146 40.9392 37.4358 0.0000 0.0000 0.0000
# 2 40.9392 60.6765 45.7622 0.0000 0.0000 0.0000
# 3 37.4358 45.7622 116.7893 0.0000 0.0000 0.0000
# 4 0.0000 0.0000 0.0000 39.5486 0.0000 0.0000
# 5 0.0000 0.0000 0.0000 0.0000 26.7083 0.0000
# 6 0.0000 0.0000 0.0000 0.0000 0.0000 27.8972
#
#
#
# Elastic Compliance Matrix: (Units=1/GPa)
#
#
# Indices 1 2 3 4 5 6 
#
# 1 0.011923 -0.007328 -0.000951 0.000000 0.000000 0.000000
# 2 -0.007328 0.027898 -0.008583 0.000000 0.000000 0.000000
# 3 -0.000951 -0.008583 0.012230 0.000000 0.000000 0.000000
# 4 0.000000 0.000000 0.000000 0.025285 0.000000 0.000000
# 5 0.000000 0.000000 0.000000 0.000000 0.037442 0.000000
# 6 0.000000 0.000000 0.000000 0.000000 0.000000 0.035846
#
#
# Mechanical properties :
#
#
# Convention : Reuss Voigt Hill
#
# Bulk Modulus (GPa) = 54.55723 59.75054 57.15389
# Shear Modulus (GPa) = 26.25276 29.85369 28.05323
#
# Velocity S-wave (km/s) = 3.64092 3.88260 3.76370
# Velocity P-wave (km/s) = 6.72485 7.09016 6.90992
#
# Compressibility (1/GPa) = 0.01832938
#
# Stress axis : x y z
#
# Youngs Moduli (GPa) = 83.86938 35.84479 81.76557
#
# Poissons Ratio (x) = 0.26267 0.07773
# Poissons Ratio (y) = 0.61458 0.70176
# Poissons Ratio (z) = 0.07973 0.30764
#
# Static dielectric constant tensor:
#      x y z
#    x 3.769350 0.000000 0.000000 
#    y 0.000000 3.579670 0.000000 
#    z 0.000000 0.000000 3.603130 
# 
# 
# High freq. dielectric constant tensor:
#      x y z
#    x 1.786390 0.000000 0.000000 
#    y 0.000000 1.778610 0.000000 
#    z 0.000000 0.000000 1.782200 
# 
# From -- ./inp_files/32447.got.cif
#   From: 2010.03.12/outbox.cif.g09.slc.cpg/sg62_17_cif.got.tgz:32447.got - 2010.04.10 19:12:36.
