data_PCOD8254740
_publ_section_title
;
Structure prediction by ZEFSAII (Michael W. Deem and Ramdas Pophale) SiO2 
 PCOD8254740
Probable space group: P N M A
;
_chemical_formula_sum "Si O2"
_cell_formula_units_Z 28
_cell_length_a 11.881133
_cell_length_b 7.493168
_cell_length_c 17.012985
_cell_angle_alpha 90.000000
_cell_angle_beta 90.000000
_cell_angle_gamma 90.000000
_cell_volume 1514.620555
_symmetry_space_group_name_H-M "P N M A"
_symmetry_group_IT_number 62
_symmetry_cell_setting 'orthorhombic'
loop_
_space_group_symop_operation_xyz
x,y,z
1/2-x,-y,1/2+z
1/2+x,1/2-y,1/2-z
-x,1/2+y,-z
-x,-y,-z
1/2+x,y,1/2-z
1/2-x,1/2+y,1/2+z
x,1/2-y,z
loop_
_atom_site_type_symbol
_atom_site_label
_atom_site_fract_x
_atom_site_fract_y
_atom_site_fract_z
Si Si1 0.585761 0.750000 0.323352
Si Si2 0.954608 0.458411 0.085916
Si Si3 0.059493 0.750000 0.358815
Si Si4 0.200800 0.054327 0.432681
Si Si5 0.813784 0.750000 0.415849
O O1 0.521164 0.572100 0.349891
O O2 0.598242 0.750000 0.230423
O O3 0.710812 0.750000 0.356580
O O4 0.969723 0.250000 0.105063
O O5 0.824302 0.516790 0.090000
O O6 0.000000 0.500000 0.000000
O O7 0.105416 0.576343 0.402571
O O8 0.925304 0.750000 0.363574
O O9 0.180979 0.250000 0.393837
O O10 0.192433 0.074475 0.527901
#
# Coordination Sequence:
#
# PCOD8254740 Si02
#       5
#     4   8   4   8   4
#     4  12  25  38  61  99 127 154 208 265 318 350
#     4  11  19  38  64  92 120 161 211 253 297 367
#     4  12  25  38  67  87 131 166 190 267 326 348
#     4   9  21  40  65  85 119 163 217 240 297 375
#     4  10  22  44  58  94 122 160 222 244 282 406
#
# _framework density 18.486478000000002
#
# number of rings (size 3 to 8) (size 9 to 14) (size 15 to 20)
#    0.857    0.571    4.286    1.714    4.000    1.143 
#    0.000    0.000    0.000    0.000    0.000    0.000 
#    0.000    0.000    0.000    0.000    0.000    0.000 
#
# Total GULP energy -347147.436848 kJ/mol
# GULP energy per Si atom -12398.122745 kJ/mol
# Density = 1.844440 g / cm^3
# Si number density = 18.486478 Si / 1000 Ang^3
#
#
#
# Elastic Constant Matrix: (Units=GPa)
#
#
# Indices 1 2 3 4 5 6 
#
# 1 149.2099 52.8945 47.1408 0.0000 0.0000 0.0000
# 2 52.8945 92.7241 33.1614 0.0000 0.0000 0.0000
# 3 47.1408 33.1614 114.6741 0.0000 0.0000 0.0000
# 4 0.0000 0.0000 0.0000 -24.3154 0.0000 0.0000
# 5 0.0000 0.0000 0.0000 0.0000 26.7979 0.0000
# 6 0.0000 0.0000 0.0000 0.0000 0.0000 25.5732
#
#
#
# Elastic Compliance Matrix: (Units=1/GPa)
#
#
# Indices 1 2 3 4 5 6 
#
# 1 0.008986 -0.004244 -0.002467 0.000000 0.000000 0.000000
# 2 -0.004244 0.014033 -0.002314 0.000000 0.000000 0.000000
# 3 -0.002467 -0.002314 0.010403 0.000000 0.000000 0.000000
# 4 0.000000 0.000000 0.000000 -0.041126 0.000000 0.000000
# 5 0.000000 0.000000 0.000000 0.000000 0.037316 0.000000
# 6 0.000000 0.000000 0.000000 0.000000 0.000000 0.039104
#
#
# Mechanical properties :
#
#
# Convention : Reuss Voigt Hill
#
# Bulk Modulus (GPa) = 65.04412 69.22240 67.13326
# Shear Modulus (GPa) = 54.41391 20.50520 37.45955
#
# Velocity S-wave (km/s) = 5.43124 3.33408 4.50635
# Velocity P-wave (km/s) = 8.63668 7.23516 7.96680
#
# Compressibility (1/GPa) = 0.01537418
#
# Stress axis : x y z
#
# Youngs Moduli (GPa) = 111.28838 71.26114 96.12238
#
# Poissons Ratio (x) = 0.30241 0.23710
# Poissons Ratio (y) = 0.47227 0.22238
# Poissons Ratio (z) = 0.27451 0.16486
#
# Static dielectric constant tensor:
#      x y z
#    x 3.449920 0.000000 0.000000 
#    y 0.000000 3.541940 0.000000 
#    z 0.000000 0.000000 3.165930 
# 
# 
# High freq. dielectric constant tensor:
#      x y z
#    x 1.732450 0.000000 0.000000 
#    y 0.000000 1.716970 0.000000 
#    z 0.000000 0.000000 1.695960 
# 
# From -- ./inp_files/17551.got.cif
#   From: 2010.03.12/outbox.cif.g09.slc.cpg/sg62_9_cif.got.tgz:17551.got - 2010.04.10 19:12:36.
