data_PCOD8254115
_publ_section_title
;
Structure prediction by ZEFSAII (Michael W. Deem and Ramdas Pophale) SiO2 
 PCOD8254115
Probable space group: P N M A
;
_chemical_formula_sum "Si O2"
_cell_formula_units_Z 40
_cell_length_a 15.866910
_cell_length_b 23.931221
_cell_length_c 5.010183
_cell_angle_alpha 90.000000
_cell_angle_beta 90.000000
_cell_angle_gamma 90.000000
_cell_volume 1902.439282
_symmetry_space_group_name_H-M "P N M A"
_symmetry_group_IT_number 62
_symmetry_cell_setting 'orthorhombic'
loop_
_space_group_symop_operation_xyz
x,y,z
1/2-x,-y,1/2+z
1/2+x,1/2-y,1/2-z
-x,1/2+y,-z
-x,-y,-z
1/2+x,y,1/2-z
1/2-x,1/2+y,1/2+z
x,1/2-y,z
loop_
_atom_site_type_symbol
_atom_site_label
_atom_site_fract_x
_atom_site_fract_y
_atom_site_fract_z
Si Si1 0.382506 0.684980 0.670128
Si Si2 0.582047 0.471612 0.114915
Si Si3 0.863291 0.411330 0.687070
Si Si4 0.178279 0.122242 0.662198
Si Si5 0.031261 0.616443 0.823467
O O1 0.362523 0.750000 0.661467
O O2 0.319820 0.656812 0.885456
O O3 0.481719 0.674158 0.743237
O O4 0.370660 0.658808 0.377858
O O5 0.639524 0.521316 0.236616
O O6 0.633589 0.437575 0.889531
O O7 0.545926 0.428928 0.336346
O O8 0.500000 0.500000 0.000000
O O9 0.896486 0.397199 0.391495
O O10 0.771198 0.387256 0.725927
O O11 0.926392 0.381073 0.889271
#
# Coordination Sequence:
#
# PCOD8254115 Si02
#       5
#     8   8   8   8   8
#     4  11  23  44  65  84 115 163 211 256 303 359
#     4   9  20  36  59  87 122 161 193 232 290 362
#     4  11  22  38  59  92 128 155 191 250 306 360
#     4  11  24  39  62  94 125 159 203 250 306 367
#     4  10  21  39  61  87 118 158 206 244 293 364
#
# _framework density 21.025639000000002
#
# number of rings (size 3 to 8) (size 9 to 14) (size 15 to 20)
#    0.000    1.600    0.000    6.000    0.000   11.200 
#    0.000    6.000    0.000    0.000    0.000    0.000 
#    0.000    0.000    0.000    0.000    0.000    0.000 
#
# Total GULP energy -495839.657651 kJ/mol
# GULP energy per Si atom -12395.991441 kJ/mol
# Density = 2.097778 g / cm^3
# Si number density = 21.025639 Si / 1000 Ang^3
#
#
#
# Elastic Constant Matrix: (Units=GPa)
#
#
# Indices 1 2 3 4 5 6 
#
# 1 96.5990 53.4611 15.3782 0.0000 0.0000 0.0000
# 2 53.4611 102.4232 27.2503 0.0000 0.0000 0.0000
# 3 15.3782 27.2503 81.0065 0.0000 0.0000 0.0000
# 4 0.0000 0.0000 0.0000 20.3918 0.0000 0.0000
# 5 0.0000 0.0000 0.0000 0.0000 34.9053 0.0000
# 6 0.0000 0.0000 0.0000 0.0000 0.0000 19.2565
#
#
#
# Elastic Compliance Matrix: (Units=1/GPa)
#
#
# Indices 1 2 3 4 5 6 
#
# 1 0.014561 -0.007540 -0.000228 0.000000 0.000000 0.000000
# 2 -0.007540 0.014627 -0.003489 0.000000 0.000000 0.000000
# 3 -0.000228 -0.003489 0.013562 0.000000 0.000000 0.000000
# 4 0.000000 0.000000 0.000000 0.049039 0.000000 0.000000
# 5 0.000000 0.000000 0.000000 0.000000 0.028649 0.000000
# 6 0.000000 0.000000 0.000000 0.000000 0.000000 0.051930
#
#
# Mechanical properties :
#
#
# Convention : Reuss Voigt Hill
#
# Bulk Modulus (GPa) = 49.41614 52.46755 50.94184
# Shear Modulus (GPa) = 24.79818 27.17334 25.98576
#
# Velocity S-wave (km/s) = 3.43800 3.59888 3.51936
# Velocity P-wave (km/s) = 6.27006 6.50212 6.38714
#
# Compressibility (1/GPa) = 0.02023630
#
# Stress axis : x y z
#
# Youngs Moduli (GPa) = 68.67622 68.36590 73.73696
#
# Poissons Ratio (x) = 0.51546 0.01681
# Poissons Ratio (y) = 0.51780 0.25728
# Poissons Ratio (z) = 0.01565 0.23854
#
# Static dielectric constant tensor:
#      x y z
#    x 3.777120 0.000000 0.000000 
#    y 0.000000 4.395890 0.000000 
#    z 0.000000 0.000000 3.919090 
# 
# 
# High freq. dielectric constant tensor:
#      x y z
#    x 1.821510 0.000000 0.000000 
#    y 0.000000 1.809250 0.000000 
#    z 0.000000 0.000000 1.828550 
# 
# From -- ./inp_files/1046.got.cif
#   From: 2010.03.12/outbox.cif.g09.slc.cpg/sg62_1_cif.got.tgz:1046.got - 2010.04.10 19:12:36.
