data_PCOD8254894
_publ_section_title
;
Structure prediction by ZEFSAII (Michael W. Deem and Ramdas Pophale) SiO2 
 PCOD8254894
Probable space group: P N M A
;
_chemical_formula_sum "Si O2"
_cell_formula_units_Z 24
_cell_length_a 23.719757
_cell_length_b 7.710577
_cell_length_c 4.816560
_cell_angle_alpha 90.000000
_cell_angle_beta 90.000000
_cell_angle_gamma 90.000000
_cell_volume 880.915170
_symmetry_space_group_name_H-M "P N M A"
_symmetry_group_IT_number 62
_symmetry_cell_setting 'orthorhombic'
loop_
_space_group_symop_operation_xyz
x,y,z
1/2-x,-y,1/2+z
1/2+x,1/2-y,1/2-z
-x,1/2+y,-z
-x,-y,-z
1/2+x,y,1/2-z
1/2-x,1/2+y,1/2+z
x,1/2-y,z
loop_
_atom_site_type_symbol
_atom_site_label
_atom_site_fract_x
_atom_site_fract_y
_atom_site_fract_z
Si Si1 0.607840 0.442761 0.282961
Si Si2 0.216650 0.055542 0.903765
Si Si3 0.512470 0.250000 0.536913
Si Si4 0.936892 0.250000 0.460851
O O1 0.624749 0.250000 0.163868
O O2 0.658099 0.518555 0.473447
O O3 0.550119 0.421617 0.464499
O O4 0.598379 0.576559 0.031872
O O5 0.207905 0.250000 0.799298
O O6 0.234255 0.946045 0.635918
O O7 0.495621 0.250000 0.860567
O O8 0.453813 0.250000 0.361734
#
# Coordination Sequence:
#
# PCOD8254894 Si02
#       4
#     8   8   4   4
#     4   9  24  43  64  98 128 171 214 269 324 386
#     4  11  25  45  69  99 135 174 223 280 334 397
#     4  10  24  42  64  94 132 168 216 264 324 382
#     4  12  22  42  66  94 128 172 214 264 318 396
#
# _framework density 27.244395999999998
#
# number of rings (size 3 to 8) (size 9 to 14) (size 15 to 20)
#    1.000    0.667    0.000    3.000    4.667    5.333 
#    0.000    0.000    0.000    0.000    0.000    0.000 
#    0.000    0.000    0.000    0.000    0.000    0.000 
#
# Total GULP energy -297648.331154 kJ/mol
# GULP energy per Si atom -12402.013798 kJ/mol
# Density = 2.718239 g / cm^3
# Si number density = 27.244396 Si / 1000 Ang^3
#
#
#
# Elastic Constant Matrix: (Units=GPa)
#
#
# Indices 1 2 3 4 5 6 
#
# 1 52.5286 -9.3920 -4.8750 0.0000 0.0000 0.0000
# 2 -9.3920 77.0267 -6.5050 0.0000 0.0000 0.0000
# 3 -4.8750 -6.5050 69.3957 0.0000 0.0000 0.0000
# 4 0.0000 0.0000 0.0000 14.1533 0.0000 0.0000
# 5 0.0000 0.0000 0.0000 0.0000 22.0105 0.0000
# 6 0.0000 0.0000 0.0000 0.0000 0.0000 44.0825
#
#
#
# Elastic Compliance Matrix: (Units=1/GPa)
#
#
# Indices 1 2 3 4 5 6 
#
# 1 0.019640 0.002531 0.001617 0.000000 0.000000 0.000000
# 2 0.002531 0.013412 0.001435 0.000000 0.000000 0.000000
# 3 0.001617 0.001435 0.014658 0.000000 0.000000 0.000000
# 4 0.000000 0.000000 0.000000 0.070655 0.000000 0.000000
# 5 0.000000 0.000000 0.000000 0.000000 0.045433 0.000000
# 6 0.000000 0.000000 0.000000 0.000000 0.000000 0.022685
#
#
# Mechanical properties :
#
#
# Convention : Reuss Voigt Hill
#
# Bulk Modulus (GPa) = 16.98452 17.48966 17.23709
# Shear Modulus (GPa) = 25.64863 30.69745 28.17304
#
# Velocity S-wave (km/s) = 3.07160 3.36034 3.21921
# Velocity P-wave (km/s) = 4.33904 4.63566 4.48980
#
# Compressibility (1/GPa) = 0.05887714
#
# Stress axis : x y z
#
# Youngs Moduli (GPa) = 50.91673 74.55811 68.22108
#
# Poissons Ratio (x) = -0.18873 -0.11031
# Poissons Ratio (y) = -0.12889 -0.09790
# Poissons Ratio (z) = -0.08233 -0.10700
#
# Static dielectric constant tensor:
#      x y z
#    x 4.968230 0.000000 0.000000 
#    y 0.000000 4.718120 0.000000 
#    z 0.000000 0.000000 4.309780 
# 
# 
# High freq. dielectric constant tensor:
#      x y z
#    x 2.102030 0.000000 0.000000 
#    y 0.000000 2.097040 0.000000 
#    z 0.000000 0.000000 2.071680 
# 
# From -- ./inp_files/2471.got.cif
#   From: 2010.03.12/outbox.cif.g09.slc.cpg/sg62_2_cif.got.tgz:2471.got - 2010.04.10 19:12:36.
