data_PCOD8254856
_publ_section_title
;
Structure prediction by ZEFSAII (Michael W. Deem and Ramdas Pophale) SiO2 
 PCOD8254856
Probable space group: P N M A
;
_chemical_formula_sum "Si O2"
_cell_formula_units_Z 48
_cell_length_a 14.644804
_cell_length_b 8.504706
_cell_length_c 18.550058
_cell_angle_alpha 90.000000
_cell_angle_beta 90.000000
_cell_angle_gamma 90.000000
_cell_volume 2310.405132
_symmetry_space_group_name_H-M "P N M A"
_symmetry_group_IT_number 62
_symmetry_cell_setting 'orthorhombic'
loop_
_space_group_symop_operation_xyz
x,y,z
1/2-x,-y,1/2+z
1/2+x,1/2-y,1/2-z
-x,1/2+y,-z
-x,-y,-z
1/2+x,y,1/2-z
1/2-x,1/2+y,1/2+z
x,1/2-y,z
loop_
_atom_site_type_symbol
_atom_site_label
_atom_site_fract_x
_atom_site_fract_y
_atom_site_fract_z
Si Si1 0.123117 0.928949 0.814305
Si Si2 0.284329 0.429389 0.731049
Si Si3 0.747374 0.931674 0.919635
Si Si4 0.598027 0.933679 0.519054
Si Si5 0.051765 0.433805 0.568697
Si Si6 0.538559 0.430428 0.210022
O O1 0.155299 0.750000 0.800529
O O2 0.117221 0.967819 0.897867
O O3 0.024066 0.957335 0.779872
O O4 0.194434 0.046435 0.778469
O O5 0.287916 0.250000 0.705226
O O6 0.283205 0.538965 0.660998
O O7 0.370936 0.467026 0.780886
O O8 0.720482 0.750000 0.927371
O O9 0.659484 0.036010 0.938606
O O10 0.826980 0.972614 0.974623
O O11 0.602756 0.750000 0.500300
O O12 0.500000 0.000000 0.500000
O O13 0.033102 0.250000 0.575350
O O14 0.000000 0.500000 0.500000
O O15 0.015796 0.519399 0.639448
O O16 0.567796 0.250000 0.201685
#
# Coordination Sequence:
#
# PCOD8254856 Si02
#       6
#     8   8   8   8   8   8
#     4  10  23  43  67  95 131 172 217 267 330 396
#     4  12  25  41  67  99 132 171 221 276 329 394
#     4  12  25  45  69  97 136 180 225 276 333 394
#     4  11  24  43  68 100 135 175 222 272 331 397
#     4  12  26  45  68  98 133 176 226 277 334 399
#     4  11  23  43  70  98 133 175 218 271 332 395
#
# _framework density 20.775576999999998
#
# number of rings (size 3 to 8) (size 9 to 14) (size 15 to 20)
#    0.000    0.667    1.667    6.500    2.333    3.333 
#    0.000    0.000    0.000    0.000    0.000    0.000 
#    0.000    0.000    0.000    0.000    0.000    0.000 
#
# Total GULP energy -595634.197854 kJ/mol
# GULP energy per Si atom -12409.045789 kJ/mol
# Density = 2.072829 g / cm^3
# Si number density = 20.775577 Si / 1000 Ang^3
#
#
#
# Elastic Constant Matrix: (Units=GPa)
#
#
# Indices 1 2 3 4 5 6 
#
# 1 86.5670 28.3393 28.3226 0.0000 0.0000 0.0000
# 2 28.3393 99.0129 29.5878 0.0000 0.0000 0.0000
# 3 28.3226 29.5878 107.9381 0.0000 0.0000 0.0000
# 4 0.0000 0.0000 0.0000 35.3405 0.0000 0.0000
# 5 0.0000 0.0000 0.0000 0.0000 40.1530 0.0000
# 6 0.0000 0.0000 0.0000 0.0000 0.0000 38.0963
#
#
#
# Elastic Compliance Matrix: (Units=1/GPa)
#
#
# Indices 1 2 3 4 5 6 
#
# 1 0.013427 -0.003039 -0.002690 0.000000 0.000000 0.000000
# 2 -0.003039 0.011689 -0.002407 0.000000 0.000000 0.000000
# 3 -0.002690 -0.002407 0.010630 0.000000 0.000000 0.000000
# 4 0.000000 0.000000 0.000000 0.028296 0.000000 0.000000
# 5 0.000000 0.000000 0.000000 0.000000 0.024905 0.000000
# 6 0.000000 0.000000 0.000000 0.000000 0.000000 0.026249
#
#
# Mechanical properties :
#
#
# Convention : Reuss Voigt Hill
#
# Bulk Modulus (GPa) = 51.35056 51.77972 51.56514
# Shear Modulus (GPa) = 36.24271 36.53584 36.38928
#
# Velocity S-wave (km/s) = 4.18124 4.19811 4.18968
# Velocity P-wave (km/s) = 6.93403 6.96249 6.94828
#
# Compressibility (1/GPa) = 0.01947398
#
# Stress axis : x y z
#
# Youngs Moduli (GPa) = 74.47801 85.55254 94.07222
#
# Poissons Ratio (x) = 0.26001 0.25306
# Poissons Ratio (y) = 0.22635 0.22640
# Poissons Ratio (z) = 0.20035 0.20589
#
# Static dielectric constant tensor:
#      x y z
#    x 3.749340 0.000000 0.000000 
#    y 0.000000 3.838090 0.000000 
#    z 0.000000 0.000000 4.196000 
# 
# 
# High freq. dielectric constant tensor:
#      x y z
#    x 1.826500 0.000000 0.000000 
#    y 0.000000 1.824240 0.000000 
#    z 0.000000 0.000000 1.825260 
# 
# From -- ./inp_files/23761.got.cif
#   From: 2010.03.12/outbox.cif.g09.slc.cpg/sg62_12_cif.got.tgz:23761.got - 2010.04.10 19:12:36.
