data_PCOD8254084
_publ_section_title
;
Structure prediction by ZEFSAII (Michael W. Deem and Ramdas Pophale) SiO2 
 PCOD8254084
Probable space group: P N M A
;
_chemical_formula_sum "Si O2"
_cell_formula_units_Z 48
_cell_length_a 19.099489
_cell_length_b 20.912764
_cell_length_c 5.417473
_cell_angle_alpha 90.000000
_cell_angle_beta 90.000000
_cell_angle_gamma 90.000000
_cell_volume 2163.863892
_symmetry_space_group_name_H-M "P N M A"
_symmetry_group_IT_number 62
_symmetry_cell_setting 'orthorhombic'
loop_
_space_group_symop_operation_xyz
x,y,z
1/2-x,-y,1/2+z
1/2+x,1/2-y,1/2-z
-x,1/2+y,-z
-x,-y,-z
1/2+x,y,1/2-z
1/2-x,1/2+y,1/2+z
x,1/2-y,z
loop_
_atom_site_type_symbol
_atom_site_label
_atom_site_fract_x
_atom_site_fract_y
_atom_site_fract_z
Si Si1 0.626659 0.322541 0.566020
Si Si2 0.528299 0.677447 0.313768
Si Si3 0.902429 0.936533 0.711352
Si Si4 0.161430 0.970576 0.929888
Si Si5 0.447028 0.105401 0.172382
Si Si6 0.285698 0.583607 0.170076
O O1 0.640951 0.250000 0.476386
O O2 0.555689 0.326081 0.728442
O O3 0.617498 0.368612 0.333981
O O4 0.693775 0.346678 0.723917
O O5 0.553825 0.750000 0.334659
O O6 0.549764 0.644094 0.569854
O O7 0.565531 0.648044 0.071560
O O8 0.850740 0.943240 0.484937
O O9 0.982961 0.935643 0.627928
O O10 0.895210 0.999632 0.881634
O O11 0.119246 0.942043 0.696416
O O12 0.216775 0.028026 0.877931
O O13 0.210104 0.913215 0.039371
#
# Coordination Sequence:
#
# PCOD8254084 Si02
#       6
#     8   8   8   8   8   8
#     4   9  20  38  62  89 117 155 206 255 298 367
#     4  10  21  40  64  91 123 162 207 259 317 366
#     4  10  21  39  59  91 121 160 204 250 311 369
#     4  11  24  37  61  87 127 163 202 256 314 372
#     4  11  23  39  64  95 122 163 212 262 308 370
#     4  11  21  39  61  86 121 163 203 248 315 370
#
# _framework density 22.182538999999998
#
# number of rings (size 3 to 8) (size 9 to 14) (size 15 to 20)
#    0.000    1.667    3.333    1.000    2.333    2.000 
#    0.000    1.667    0.000    0.000    0.000    0.000 
#    0.000    0.000    0.000    0.000    0.000    0.000 
#
# Total GULP energy -594992.324802 kJ/mol
# GULP energy per Si atom -12395.673433 kJ/mol
# Density = 2.213205 g / cm^3
# Si number density = 22.182539 Si / 1000 Ang^3
#
#
#
# Elastic Constant Matrix: (Units=GPa)
#
#
# Indices 1 2 3 4 5 6 
#
# 1 66.9425 25.6326 -2.9508 0.0000 0.0000 0.0000
# 2 25.6326 104.4983 15.3041 0.0000 0.0000 0.0000
# 3 -2.9508 15.3041 72.1333 0.0000 0.0000 0.0000
# 4 0.0000 0.0000 0.0000 30.9052 0.0000 0.0000
# 5 0.0000 0.0000 0.0000 0.0000 24.0361 0.0000
# 6 0.0000 0.0000 0.0000 0.0000 0.0000 25.5178
#
#
#
# Elastic Compliance Matrix: (Units=1/GPa)
#
#
# Indices 1 2 3 4 5 6 
#
# 1 0.016663 -0.004322 0.001599 0.000000 0.000000 0.000000
# 2 -0.004322 0.010997 -0.002510 0.000000 0.000000 0.000000
# 3 0.001599 -0.002510 0.014461 0.000000 0.000000 0.000000
# 4 0.000000 0.000000 0.000000 0.032357 0.000000 0.000000
# 5 0.000000 0.000000 0.000000 0.000000 0.041604 0.000000
# 6 0.000000 0.000000 0.000000 0.000000 0.000000 0.039188
#
#
# Mechanical properties :
#
#
# Convention : Reuss Voigt Hill
#
# Bulk Modulus (GPa) = 31.58983 35.50509 33.54746
# Shear Modulus (GPa) = 28.36253 29.79771 29.08012
#
# Velocity S-wave (km/s) = 3.57963 3.66908 3.62463
# Velocity P-wave (km/s) = 5.59971 5.83010 5.71607
#
# Compressibility (1/GPa) = 0.03165576
#
# Stress axis : x y z
#
# Youngs Moduli (GPa) = 60.01181 90.93259 69.15088
#
# Poissons Ratio (x) = 0.39297 -0.11054
# Poissons Ratio (y) = 0.25934 0.17357
# Poissons Ratio (z) = -0.09593 0.22824
#
# Static dielectric constant tensor:
#      x y z
#    x 3.791470 0.000000 0.000000 
#    y 0.000000 3.971130 0.000000 
#    z 0.000000 0.000000 3.890960 
# 
# 
# High freq. dielectric constant tensor:
#      x y z
#    x 1.856400 0.000000 0.000000 
#    y 0.000000 1.867370 0.000000 
#    z 0.000000 0.000000 1.872000 
# 
# From -- ./inp_files/2190.got.cif
#   From: 2010.03.12/outbox.cif.g09.slc.cpg/sg62_2_cif.got.tgz:2190.got - 2010.04.10 19:12:36.
