data_PCOD8254770
_publ_section_title
;
Structure prediction by ZEFSAII (Michael W. Deem and Ramdas Pophale) SiO2 
 PCOD8254770
Probable space group: P N M A
;
_chemical_formula_sum "Si O2"
_cell_formula_units_Z 40
_cell_length_a 8.378650
_cell_length_b 25.791912
_cell_length_c 8.639916
_cell_angle_alpha 90.000000
_cell_angle_beta 90.000000
_cell_angle_gamma 90.000000
_cell_volume 1867.097974
_symmetry_space_group_name_H-M "P N M A"
_symmetry_group_IT_number 62
_symmetry_cell_setting 'orthorhombic'
loop_
_space_group_symop_operation_xyz
x,y,z
1/2-x,-y,1/2+z
1/2+x,1/2-y,1/2-z
-x,1/2+y,-z
-x,-y,-z
1/2+x,y,1/2-z
1/2-x,1/2+y,1/2+z
x,1/2-y,z
loop_
_atom_site_type_symbol
_atom_site_label
_atom_site_fract_x
_atom_site_fract_y
_atom_site_fract_z
Si Si1 0.705944 0.552193 0.961808
Si Si2 0.206882 0.250000 0.035868
Si Si3 0.654117 0.750000 0.638933
Si Si4 0.155278 0.351939 0.862185
Si Si5 0.155638 0.052364 0.365204
Si Si6 0.208035 0.648364 0.035393
O O1 0.827654 0.548822 0.819226
O O2 0.528633 0.561607 0.900597
O O3 0.751807 0.598706 0.073902
O O4 0.721721 0.499776 0.058641
O O5 0.331109 0.250000 0.176249
O O6 0.032173 0.250000 0.107317
O O7 0.236367 0.300412 0.931192
O O8 0.737347 0.800395 0.565938
O O9 0.168778 0.351068 0.677218
O O10 0.970120 0.354901 0.900821
O O11 0.260751 0.099616 0.426487
#
# Coordination Sequence:
#
# PCOD8254770 Si02
#       6
#     8   4   4   8   8   8
#     4  11  24  41  62  89 121 157 198 245 296 351
#     4  10  23  40  60  88 120 156 197 244 295 350
#     4  10  23  40  60  88 120 156 197 244 295 350
#     4  11  23  40  62  89 121 157 199 245 296 352
#     4  11  24  41  62  89 121 157 198 245 296 351
#     4  11  23  40  62  89 121 157 199 245 296 352
#
# _framework density 21.42362
#
# number of rings (size 3 to 8) (size 9 to 14) (size 15 to 20)
#    0.000    1.200    0.000    5.400    0.000   12.800 
#    0.000    0.000    0.000    0.000    0.000    0.000 
#    0.000    0.000    0.000    0.000    0.000    0.000 
#
# Total GULP energy -496356.619808 kJ/mol
# GULP energy per Si atom -12408.915495 kJ/mol
# Density = 2.137486 g / cm^3
# Si number density = 21.423620 Si / 1000 Ang^3
#
#
#
# Elastic Constant Matrix: (Units=GPa)
#
#
# Indices 1 2 3 4 5 6 
#
# 1 33.5723 27.3945 -7.5888 0.0000 0.0000 0.0000
# 2 27.3945 152.7960 21.5919 0.0000 0.0000 0.0000
# 3 -7.5888 21.5919 78.5833 0.0000 0.0000 0.0000
# 4 0.0000 0.0000 0.0000 7.9155 0.0000 0.0000
# 5 0.0000 0.0000 0.0000 0.0000 39.4359 0.0000
# 6 0.0000 0.0000 0.0000 0.0000 0.0000 47.6840
#
#
#
# Elastic Compliance Matrix: (Units=1/GPa)
#
#
# Indices 1 2 3 4 5 6 
#
# 1 0.037144 -0.007456 0.005636 0.000000 0.000000 0.000000
# 2 -0.007456 0.008306 -0.003002 0.000000 0.000000 0.000000
# 3 0.005636 -0.003002 0.014094 0.000000 0.000000 0.000000
# 4 0.000000 0.000000 0.000000 0.126335 0.000000 0.000000
# 5 0.000000 0.000000 0.000000 0.000000 0.025358 0.000000
# 6 0.000000 0.000000 0.000000 0.000000 0.000000 0.020971
#
#
# Mechanical properties :
#
#
# Convention : Reuss Voigt Hill
#
# Bulk Modulus (GPa) = 20.04020 38.63851 29.33935
# Shear Modulus (GPa) = 19.34337 33.91068 26.62702
#
# Velocity S-wave (km/s) = 3.00809 3.98284 3.52928
# Velocity P-wave (km/s) = 4.63026 6.26301 5.50748
#
# Compressibility (1/GPa) = 0.04989971
#
# Stress axis : x y z
#
# Youngs Moduli (GPa) = 26.92201 120.39979 70.94987
#
# Poissons Ratio (x) = 0.89769 -0.39985
# Poissons Ratio (y) = 0.20073 0.21300
# Poissons Ratio (z) = -0.15172 0.36145
#
# Static dielectric constant tensor:
#      x y z
#    x 3.735560 0.000000 0.000000 
#    y 0.000000 4.214630 0.000000 
#    z 0.000000 0.000000 3.993770 
# 
# 
# High freq. dielectric constant tensor:
#      x y z
#    x 1.842550 0.000000 0.000000 
#    y 0.000000 1.859890 0.000000 
#    z 0.000000 0.000000 1.854010 
# 
# From -- ./inp_files/4333.got.cif
#   From: 2010.03.12/outbox.cif.g09.slc.cpg/sg62_3_cif.got.tgz:4333.got - 2010.04.10 19:12:36.
