data_PCOD8254679
_publ_section_title
;
Structure prediction by ZEFSAII (Michael W. Deem and Ramdas Pophale) SiO2 
 PCOD8254679
Probable space group: P N M A
;
_chemical_formula_sum "Si O2"
_cell_formula_units_Z 40
_cell_length_a 18.312869
_cell_length_b 8.799163
_cell_length_c 12.347739
_cell_angle_alpha 90.000000
_cell_angle_beta 90.000000
_cell_angle_gamma 90.000000
_cell_volume 1989.688971
_symmetry_space_group_name_H-M "P N M A"
_symmetry_group_IT_number 62
_symmetry_cell_setting 'orthorhombic'
loop_
_space_group_symop_operation_xyz
x,y,z
1/2-x,-y,1/2+z
1/2+x,1/2-y,1/2-z
-x,1/2+y,-z
-x,-y,-z
1/2+x,y,1/2-z
1/2-x,1/2+y,1/2+z
x,1/2-y,z
loop_
_atom_site_type_symbol
_atom_site_label
_atom_site_fract_x
_atom_site_fract_y
_atom_site_fract_z
Si Si1 0.050920 0.426887 0.771340
Si Si2 0.882634 0.073086 0.805965
Si Si3 0.427413 0.071229 0.048800
Si Si4 0.312576 0.573630 0.893779
Si Si5 0.853133 0.426134 0.051202
O O1 0.062696 0.250000 0.749214
O O2 0.085234 0.519101 0.671722
O O3 0.090973 0.472991 0.881048
O O4 0.966216 0.467827 0.782466
O O5 0.866848 0.250000 0.784934
O O6 0.832157 0.973742 0.727913
O O7 0.861902 0.025491 0.926971
O O8 0.436219 0.250000 0.043763
O O9 0.500000 0.000000 0.000000
O O10 0.357751 0.023668 0.979532
O O11 0.330302 0.750000 0.912271
O O12 0.228100 0.537107 0.910638
O O13 0.873261 0.250000 0.067458
#
# Coordination Sequence:
#
# PCOD8254679 Si02
#       5
#     8   8   8   8   8
#     4  11  23  40  66  96 125 167 215 260 318 379
#     4  10  22  42  65  90 126 169 211 261 316 376
#     4  12  24  41  65  93 127 167 211 264 317 374
#     4  11  24  41  63  94 128 167 213 263 317 377
#     4  10  24  43  63  93 130 168 211 262 318 376
#
# _framework density 20.103646000000001
#
# number of rings (size 3 to 8) (size 9 to 14) (size 15 to 20)
#    0.000    1.200    2.000    3.600    2.800    3.200 
#    0.000    0.000    0.000    0.000    0.000    0.000 
#    0.000    0.000    0.000    0.000    0.000    0.000 
#
# Total GULP energy -496326.319922 kJ/mol
# GULP energy per Si atom -12408.157998 kJ/mol
# Density = 2.005789 g / cm^3
# Si number density = 20.103646 Si / 1000 Ang^3
#
#
#
# Elastic Constant Matrix: (Units=GPa)
#
#
# Indices 1 2 3 4 5 6 
#
# 1 26.0704 36.9082 40.5361 0.0000 0.0000 0.0000
# 2 36.9082 104.0953 48.2198 0.0000 0.0000 0.0000
# 3 40.5361 48.2198 143.8304 0.0000 0.0000 0.0000
# 4 0.0000 0.0000 0.0000 41.0004 0.0000 0.0000
# 5 0.0000 0.0000 0.0000 0.0000 31.8335 0.0000
# 6 0.0000 0.0000 0.0000 0.0000 0.0000 25.9199
#
#
#
# Elastic Compliance Matrix: (Units=1/GPa)
#
#
# Indices 1 2 3 4 5 6 
#
# 1 0.118173 -0.031339 -0.022799 0.000000 0.000000 0.000000
# 2 -0.031339 0.019684 0.002233 0.000000 0.000000 0.000000
# 3 -0.022799 0.002233 0.012629 0.000000 0.000000 0.000000
# 4 0.000000 0.000000 0.000000 0.024390 0.000000 0.000000
# 5 0.000000 0.000000 0.000000 0.000000 0.031413 0.000000
# 6 0.000000 0.000000 0.000000 0.000000 0.000000 0.038580
#
#
# Mechanical properties :
#
#
# Convention : Reuss Voigt Hill
#
# Bulk Modulus (GPa) = 21.42337 58.36938 39.89637
# Shear Modulus (GPa) = 13.72729 29.63955 21.68342
#
# Velocity S-wave (km/s) = 2.61593 3.84388 3.28774
# Velocity P-wave (km/s) = 4.45013 6.98554 5.85668
#
# Compressibility (1/GPa) = 0.04667800
#
# Stress axis : x y z
#
# Youngs Moduli (GPa) = 8.46214 50.80368 79.18077
#
# Poissons Ratio (x) = 1.59213 1.80522
# Poissons Ratio (y) = 0.26519 -0.17683
# Poissons Ratio (z) = 0.19293 -0.11346
#
# Static dielectric constant tensor:
#      x y z
#    x 3.681770 0.000000 0.000000 
#    y 0.000000 3.708330 0.000000 
#    z 0.000000 0.000000 3.890850 
# 
# 
# High freq. dielectric constant tensor:
#      x y z
#    x 1.789830 0.000000 0.000000 
#    y 0.000000 1.789010 0.000000 
#    z 0.000000 0.000000 1.803000 
# 
# From -- ./inp_files/13839.got.cif
#   From: 2010.03.12/outbox.cif.g09.slc.cpg/sg62_7_cif.got.tgz:13839.got - 2010.04.10 19:12:36.
