data_PCOD8254575
_publ_section_title
;
Structure prediction by ZEFSAII (Michael W. Deem and Ramdas Pophale) SiO2 
 PCOD8254575
Probable space group: P N M A
;
_chemical_formula_sum "Si O2"
_cell_formula_units_Z 48
_cell_length_a 9.315740
_cell_length_b 9.193697
_cell_length_c 28.773337
_cell_angle_alpha 90.000000
_cell_angle_beta 90.000000
_cell_angle_gamma 90.000000
_cell_volume 2464.323836
_symmetry_space_group_name_H-M "P N M A"
_symmetry_group_IT_number 62
_symmetry_cell_setting 'orthorhombic'
loop_
_space_group_symop_operation_xyz
x,y,z
1/2-x,-y,1/2+z
1/2+x,1/2-y,1/2-z
-x,1/2+y,-z
-x,-y,-z
1/2+x,y,1/2-z
1/2-x,1/2+y,1/2+z
x,1/2-y,z
loop_
_atom_site_type_symbol
_atom_site_label
_atom_site_fract_x
_atom_site_fract_y
_atom_site_fract_z
Si Si1 0.870425 0.411905 0.019860
Si Si2 0.205990 0.579064 0.878473
Si Si3 0.965720 0.581954 0.197582
Si Si4 0.409063 0.585077 0.037509
Si Si5 0.203617 0.080641 0.709967
Si Si6 0.968819 0.077584 0.369022
O O1 0.925746 0.250000 0.029854
O O2 0.810852 0.476891 0.068443
O O3 0.752443 0.411907 0.980037
O O4 0.000000 0.500000 0.000000
O O5 0.184488 0.750000 0.874867
O O6 0.364849 0.535105 0.861251
O O7 0.084062 0.505961 0.847359
O O8 0.955160 0.750000 0.184535
O O9 0.128551 0.539837 0.210612
O O10 0.860605 0.543166 0.239847
O O11 0.467606 0.750000 0.043542
O O12 0.408894 0.500581 0.085629
O O13 0.500000 0.500000 0.000000
O O14 0.178422 0.250000 0.697266
O O15 0.122560 0.978408 0.673996
O O16 0.950058 0.250000 0.375048
#
# Coordination Sequence:
#
# PCOD8254575 Si02
#       6
#     8   8   8   8   8   8
#     4  10  23  41  59  85 122 160 201 248 294 349
#     4  10  22  41  60  85 122 158 198 247 296 353
#     4  10  22  40  64  90 120 155 197 245 299 359
#     4  11  22  40  63  89 122 159 203 249 295 351
#     4  10  22  41  63  91 121 153 196 246 297 357
#     4  11  23  40  62  89 121 159 202 246 298 355
#
# _framework density 19.477959999999999
#
# number of rings (size 3 to 8) (size 9 to 14) (size 15 to 20)
#    0.000    1.667    1.667    2.000    2.333    6.000 
#    0.000    0.000    0.000    0.000    0.000    0.000 
#    0.000    0.000    0.000    0.000    0.000    0.000 
#
# Total GULP energy -595338.668487 kJ/mol
# GULP energy per Si atom -12402.888927 kJ/mol
# Density = 1.943363 g / cm^3
# Si number density = 19.477960 Si / 1000 Ang^3
#
#
#
# Elastic Constant Matrix: (Units=GPa)
#
#
# Indices 1 2 3 4 5 6 
#
# 1 129.6516 50.2205 49.5228 0.0000 0.0000 0.0000
# 2 50.2205 81.4134 46.1168 0.0000 0.0000 0.0000
# 3 49.5228 46.1168 93.9054 0.0000 0.0000 0.0000
# 4 0.0000 0.0000 0.0000 39.5130 0.0000 0.0000
# 5 0.0000 0.0000 0.0000 0.0000 40.8029 0.0000
# 6 0.0000 0.0000 0.0000 0.0000 0.0000 36.2400
#
#
#
# Elastic Compliance Matrix: (Units=1/GPa)
#
#
# Indices 1 2 3 4 5 6 
#
# 1 0.010855 -0.004784 -0.003375 0.000000 0.000000 0.000000
# 2 -0.004784 0.019125 -0.006869 0.000000 0.000000 0.000000
# 3 -0.003375 -0.006869 0.015803 0.000000 0.000000 0.000000
# 4 0.000000 0.000000 0.000000 0.025308 0.000000 0.000000
# 5 0.000000 0.000000 0.000000 0.000000 0.024508 0.000000
# 6 0.000000 0.000000 0.000000 0.000000 0.000000 0.027594
#
#
# Mechanical properties :
#
#
# Convention : Reuss Voigt Hill
#
# Bulk Modulus (GPa) = 63.59089 66.29896 64.94492
# Shear Modulus (GPa) = 31.54712 33.91853 32.73282
#
# Velocity S-wave (km/s) = 4.02883 4.17751 4.10384
# Velocity P-wave (km/s) = 7.37295 7.57500 7.47466
#
# Compressibility (1/GPa) = 0.01572552
#
# Stress axis : x y z
#
# Youngs Moduli (GPa) = 92.11979 52.28647 63.28095
#
# Poissons Ratio (x) = 0.25016 0.21359
# Poissons Ratio (y) = 0.44073 0.43470
# Poissons Ratio (z) = 0.31093 0.35917
#
# Static dielectric constant tensor:
#      x y z
#    x 3.577870 0.000000 0.000000 
#    y 0.000000 3.601090 0.000000 
#    z 0.000000 0.000000 8.037850 
# 
# 
# High freq. dielectric constant tensor:
#      x y z
#    x 1.767250 0.000000 0.000000 
#    y 0.000000 1.758530 0.000000 
#    z 0.000000 0.000000 1.768510 
# 
# From -- ./inp_files/31977.got.cif
#   From: 2010.03.12/outbox.cif.g09.slc.cpg/sg62_16_cif.got.tgz:31977.got - 2010.04.10 19:12:36.
