data_PCOD8254373
_publ_section_title
;
Structure prediction by ZEFSAII (Michael W. Deem and Ramdas Pophale) SiO2 
 PCOD8254373
Probable space group: P N M A
;
_chemical_formula_sum "Si O2"
_cell_formula_units_Z 28
_cell_length_a 19.812736
_cell_length_b 5.169868
_cell_length_c 12.971395
_cell_angle_alpha 90.000000
_cell_angle_beta 90.000000
_cell_angle_gamma 90.000000
_cell_volume 1328.650000
_symmetry_space_group_name_H-M "P N M A"
_symmetry_group_IT_number 62
_symmetry_cell_setting 'orthorhombic'
loop_
_space_group_symop_operation_xyz
x,y,z
1/2-x,-y,1/2+z
1/2+x,1/2-y,1/2-z
-x,1/2+y,-z
-x,-y,-z
1/2+x,y,1/2-z
1/2-x,1/2+y,1/2+z
x,1/2-y,z
loop_
_atom_site_type_symbol
_atom_site_label
_atom_site_fract_x
_atom_site_fract_y
_atom_site_fract_z
Si Si1 0.490006 0.250000 0.431292
Si Si2 0.836188 0.250000 0.124028
Si Si3 0.459034 0.750000 0.120651
Si Si4 0.302702 0.250000 0.611036
Si Si5 0.175698 0.250000 0.745880
Si Si6 0.122147 0.250000 0.193398
Si Si7 0.547935 0.250000 0.113198
O O1 0.500000 0.500000 0.500000
O O2 0.416728 0.250000 0.381093
O O3 0.544495 0.250000 0.341389
O O4 0.810290 0.500490 0.184405
O O5 0.802345 0.250000 0.012050
O O6 0.399807 0.750000 0.203500
O O7 0.504115 0.500236 0.139744
O O8 0.428420 0.750000 0.005384
O O9 0.225995 0.250000 0.649166
O O10 0.340417 0.499999 0.652663
O O11 0.116380 0.250000 0.318047
#
# Coordination Sequence:
#
# PCOD8254373 Si02
#       7
#     4   4   4   4   4   4   4
#     4  12  21  38  68 100 130 167 204 280 340 380
#     4  12  25  46  67  97 132 170 220 275 332 391
#     4  10  21  42  62  98 123 168 213 266 319 385
#     4  12  27  44  63  94 133 171 221 263 317 398
#     4  12  26  43  68  90 132 180 219 260 325 398
#     4  12  22  42  65  99 132 167 214 273 334 391
#     4  10  22  39  69  92 130 159 213 273 323 377
#
# _framework density 21.074021999999999
#
# number of rings (size 3 to 8) (size 9 to 14) (size 15 to 20)
#    0.000    0.571    2.857    6.000    0.000    2.286 
#    0.000    0.000    0.000    0.000    0.000    0.000 
#    0.000    0.000    0.000    0.000    0.000    0.000 
#
# Total GULP energy -347366.164702 kJ/mol
# GULP energy per Si atom -12405.934454 kJ/mol
# Density = 2.102606 g / cm^3
# Si number density = 21.074022 Si / 1000 Ang^3
#
#
#
# Elastic Constant Matrix: (Units=GPa)
#
#
# Indices 1 2 3 4 5 6 
#
# 1 64.1655 27.6777 29.9707 0.0000 0.0000 0.0000
# 2 27.6777 193.5494 60.5177 0.0000 0.0000 0.0000
# 3 29.9707 60.5177 132.4553 0.0000 0.0000 0.0000
# 4 0.0000 0.0000 0.0000 75.2358 0.0000 0.0000
# 5 0.0000 0.0000 0.0000 0.0000 44.4278 0.0000
# 6 0.0000 0.0000 0.0000 0.0000 0.0000 38.4173
#
#
#
# Elastic Compliance Matrix: (Units=1/GPa)
#
#
# Indices 1 2 3 4 5 6 
#
# 1 0.017792 -0.001500 -0.003341 0.000000 0.000000 0.000000
# 2 -0.001500 0.006154 -0.002472 0.000000 0.000000 0.000000
# 3 -0.003341 -0.002472 0.009435 0.000000 0.000000 0.000000
# 4 0.000000 0.000000 0.000000 0.013292 0.000000 0.000000
# 5 0.000000 0.000000 0.000000 0.000000 0.022508 0.000000
# 6 0.000000 0.000000 0.000000 0.000000 0.000000 0.026030
#
#
# Mechanical properties :
#
#
# Convention : Reuss Voigt Hill
#
# Bulk Modulus (GPa) = 53.31680 69.61137 61.46408
# Shear Modulus (GPa) = 43.07052 49.74979 46.41016
#
# Velocity S-wave (km/s) = 4.52572 4.86399 4.69790
# Velocity P-wave (km/s) = 7.25701 8.04040 7.65873
#
# Compressibility (1/GPa) = 0.01875582
#
# Stress axis : x y z
#
# Youngs Moduli (GPa) = 56.20525 162.49142 105.98581
#
# Poissons Ratio (x) = 0.24370 0.35405
# Poissons Ratio (y) = 0.08429 0.26204
# Poissons Ratio (z) = 0.18776 0.40175
#
# Static dielectric constant tensor:
#      x y z
#    x 3.825470 0.000000 0.000000 
#    y 0.000000 4.139320 0.000000 
#    z 0.000000 0.000000 4.041510 
# 
# 
# High freq. dielectric constant tensor:
#      x y z
#    x 1.814550 0.000000 0.000000 
#    y 0.000000 1.851770 0.000000 
#    z 0.000000 0.000000 1.844280 
# 
# From -- ./inp_files/13753.got.cif
#   From: 2010.03.12/outbox.cif.g09.slc.cpg/sg62_7_cif.got.tgz:13753.got - 2010.04.10 19:12:36.
