data_PCOD8254456
_publ_section_title
;
Structure prediction by ZEFSAII (Michael W. Deem and Ramdas Pophale) SiO2 
 PCOD8254456
Probable space group: P N M A
;
_chemical_formula_sum "Si O2"
_cell_formula_units_Z 48
_cell_length_a 9.704423
_cell_length_b 7.605257
_cell_length_c 34.463863
_cell_angle_alpha 90.000000
_cell_angle_beta 90.000000
_cell_angle_gamma 90.000000
_cell_volume 2543.592690
_symmetry_space_group_name_H-M "P N M A"
_symmetry_group_IT_number 62
_symmetry_cell_setting 'orthorhombic'
loop_
_space_group_symop_operation_xyz
x,y,z
1/2-x,-y,1/2+z
1/2+x,1/2-y,1/2-z
-x,1/2+y,-z
-x,-y,-z
1/2+x,y,1/2-z
1/2-x,1/2+y,1/2+z
x,1/2-y,z
loop_
_atom_site_type_symbol
_atom_site_label
_atom_site_fract_x
_atom_site_fract_y
_atom_site_fract_z
Si Si1 0.157784 0.546135 0.494663
Si Si2 0.855312 0.952443 0.851127
Si Si3 0.169889 0.541003 0.577937
Si Si4 0.364936 0.551166 0.912476
Si Si5 0.827550 0.046124 0.155012
Si Si6 0.161645 0.750000 0.208978
Si Si7 0.843543 0.750000 0.215511
O O1 0.183529 0.750000 0.488701
O O2 0.226763 0.479084 0.535286
O O3 0.210148 0.456607 0.454822
O O4 0.000000 0.500000 0.500000
O O5 0.817719 0.750000 0.841199
O O6 0.776031 0.020271 0.889379
O O7 0.016316 0.975554 0.859748
O O8 0.808328 0.074189 0.815654
O O9 0.154633 0.750000 0.576365
O O10 0.016774 0.460655 0.586508
O O11 0.382616 0.750000 0.899650
O O12 0.268058 0.467717 0.879366
O O13 0.797340 0.250000 0.165764
O O14 0.800902 0.926426 0.192557
O O15 0.265897 0.750000 0.244188
O O16 0.005841 0.750000 0.224436
#
# Coordination Sequence:
#
# PCOD8254456 Si02
#       7
#     8   8   8   8   8   4   4
#     4   9  16  27  43  67 100 134 167 210 257 292
#     4   9  18  36  55  72 101 137 166 202 254 302
#     4   8  15  29  48  69  98 132 169 210 249 294
#     4   9  17  30  47  72 100 129 172 213 249 297
#     4   9  19  35  55  74 100 137 167 201 253 305
#     4  10  22  38  54  82 102 132 164 212 252 312
#     4  10  22  38  56  76 110 126 166 210 256 304
#
# _framework density 18.870946
#
# number of rings (size 3 to 8) (size 9 to 14) (size 15 to 20)
#    0.000    3.000    0.000    1.500    1.167    2.000 
#    7.500    0.833    0.000    0.000    0.000    0.000 
#    0.000    0.000    0.000    0.000    0.000    0.000 
#
# Total GULP energy -594699.125820 kJ/mol
# GULP energy per Si atom -12389.565121 kJ/mol
# Density = 1.882800 g / cm^3
# Si number density = 18.870946 Si / 1000 Ang^3
#
#
#
# Elastic Constant Matrix: (Units=GPa)
#
#
# Indices 1 2 3 4 5 6 
#
# 1 36.7875 13.0132 25.8448 0.0000 0.0000 0.0000
# 2 13.0132 58.9549 20.8933 0.0000 0.0000 0.0000
# 3 25.8448 20.8933 87.7693 0.0000 0.0000 0.0000
# 4 0.0000 0.0000 0.0000 26.9561 0.0000 0.0000
# 5 0.0000 0.0000 0.0000 0.0000 35.8407 0.0000
# 6 0.0000 0.0000 0.0000 0.0000 0.0000 14.8791
#
#
#
# Elastic Compliance Matrix: (Units=1/GPa)
#
#
# Indices 1 2 3 4 5 6 
#
# 1 0.035329 -0.004490 -0.009334 0.000000 0.000000 0.000000
# 2 -0.004490 0.019096 -0.003223 0.000000 0.000000 0.000000
# 3 -0.009334 -0.003223 0.014909 0.000000 0.000000 0.000000
# 4 0.000000 0.000000 0.000000 0.037097 0.000000 0.000000
# 5 0.000000 0.000000 0.000000 0.000000 0.027901 0.000000
# 6 0.000000 0.000000 0.000000 0.000000 0.000000 0.067209
#
#
# Mechanical properties :
#
#
# Convention : Reuss Voigt Hill
#
# Bulk Modulus (GPa) = 28.37817 33.66826 31.02322
# Shear Modulus (GPa) = 20.21153 23.78587 21.99870
#
# Velocity S-wave (km/s) = 3.27622 3.55413 3.41800
# Velocity P-wave (km/s) = 5.42053 5.89258 5.66148
#
# Compressibility (1/GPa) = 0.03523835
#
# Stress axis : x y z
#
# Youngs Moduli (GPa) = 28.30513 52.36801 67.07163
#
# Poissons Ratio (x) = 0.23515 0.62606
# Poissons Ratio (y) = 0.12710 0.21620
# Poissons Ratio (z) = 0.26421 0.16881
#
# Static dielectric constant tensor:
#      x y z
#    x 3.355210 0.000000 0.000000 
#    y 0.000000 3.530090 0.000000 
#    z 0.000000 0.000000 3.631960 
# 
# 
# High freq. dielectric constant tensor:
#      x y z
#    x 1.702340 0.000000 0.000000 
#    y 0.000000 1.730350 0.000000 
#    z 0.000000 0.000000 1.735390 
# 
# From -- ./inp_files/32076.got.cif
#   From: 2010.03.12/outbox.cif.g09.slc.cpg/sg62_17_cif.got.tgz:32076.got - 2010.04.10 19:12:36.
