data_PCOD8254111
_publ_section_title
;
Structure prediction by ZEFSAII (Michael W. Deem and Ramdas Pophale) SiO2 
 PCOD8254111
Probable space group: P N M A
;
_chemical_formula_sum "Si O2"
_cell_formula_units_Z 36
_cell_length_a 5.205301
_cell_length_b 20.772775
_cell_length_c 16.464705
_cell_angle_alpha 90.000000
_cell_angle_beta 90.000000
_cell_angle_gamma 90.000000
_cell_volume 1780.304620
_symmetry_space_group_name_H-M "P N M A"
_symmetry_group_IT_number 62
_symmetry_cell_setting 'orthorhombic'
loop_
_space_group_symop_operation_xyz
x,y,z
1/2-x,-y,1/2+z
1/2+x,1/2-y,1/2-z
-x,1/2+y,-z
-x,-y,-z
1/2+x,y,1/2-z
1/2-x,1/2+y,1/2+z
x,1/2-y,z
loop_
_atom_site_type_symbol
_atom_site_label
_atom_site_fract_x
_atom_site_fract_y
_atom_site_fract_z
Si Si1 0.698184 0.453677 0.096010
Si Si2 0.793420 0.882972 0.893905
Si Si3 0.286819 0.750000 0.696620
Si Si4 0.056166 0.174385 0.701232
Si Si5 0.435883 0.411612 0.945050
O O1 0.459387 0.418801 0.142542
O O2 0.691334 0.530791 0.108071
O O3 0.959340 0.424694 0.131745
O O4 0.673081 0.440301 0.998512
O O5 0.822026 0.811673 0.860060
O O6 0.770390 0.879985 0.992455
O O7 0.503099 0.750000 0.765714
O O8 0.315475 0.151870 0.745014
O O9 0.051753 0.250000 0.686460
O O10 0.045946 0.142633 0.613231
#
# Coordination Sequence:
#
# PCOD8254111 Si02
#       5
#     8   8   4   8   8
#     4   9  20  36  64  89 115 143 203 253 283 341
#     4  10  21  39  61  86 115 154 200 236 296 343
#     4  12  26  44  60  86 128 158 198 252 298 354
#     4  10  23  39  54  84 123 155 188 237 292 342
#     4   9  21  36  67  85 119 150 202 242 293 348
#
# _framework density 20.221257999999999
#
# number of rings (size 3 to 8) (size 9 to 14) (size 15 to 20)
#    1.333    0.889    0.000    2.000    4.667    0.000 
#    2.000    6.667    0.000    0.000    0.000    0.000 
#    0.000    0.000    0.000    0.000    0.000    0.000 
#
# Total GULP energy -446233.697271 kJ/mol
# GULP energy per Si atom -12395.380480 kJ/mol
# Density = 2.017523 g / cm^3
# Si number density = 20.221258 Si / 1000 Ang^3
#
#
#
# Elastic Constant Matrix: (Units=GPa)
#
#
# Indices 1 2 3 4 5 6 
#
# 1 91.6415 11.1488 3.1114 0.0000 0.0000 0.0000
# 2 11.1488 88.2264 29.1426 0.0000 0.0000 0.0000
# 3 3.1114 29.1426 28.9938 0.0000 0.0000 0.0000
# 4 0.0000 0.0000 0.0000 18.1573 0.0000 0.0000
# 5 0.0000 0.0000 0.0000 0.0000 16.2186 0.0000
# 6 0.0000 0.0000 0.0000 0.0000 0.0000 22.9311
#
#
#
# Elastic Compliance Matrix: (Units=1/GPa)
#
#
# Indices 1 2 3 4 5 6 
#
# 1 0.011085 -0.001509 0.000327 0.000000 0.000000 0.000000
# 2 -0.001509 0.017173 -0.017100 0.000000 0.000000 0.000000
# 3 0.000327 -0.017100 0.051642 0.000000 0.000000 0.000000
# 4 0.000000 0.000000 0.000000 0.055074 0.000000 0.000000
# 5 0.000000 0.000000 0.000000 0.000000 0.061658 0.000000
# 6 0.000000 0.000000 0.000000 0.000000 0.000000 0.043609
#
#
# Mechanical properties :
#
#
# Convention : Reuss Voigt Hill
#
# Bulk Modulus (GPa) = 23.07465 32.85193 27.96329
# Shear Modulus (GPa) = 17.16740 22.49201 19.82970
#
# Velocity S-wave (km/s) = 2.91688 3.33873 3.13491
# Velocity P-wave (km/s) = 4.77285 5.58071 5.19252
#
# Compressibility (1/GPa) = 0.04333759
#
# Stress axis : x y z
#
# Youngs Moduli (GPa) = 90.21586 58.22956 19.36391
#
# Poissons Ratio (x) = 0.08785 -0.00633
# Poissons Ratio (y) = 0.13611 0.33112
# Poissons Ratio (z) = -0.02950 0.99570
#
# Static dielectric constant tensor:
#      x y z
#    x 3.687460 0.000000 0.000000 
#    y 0.000000 3.614210 0.000000 
#    z 0.000000 0.000000 3.259920 
# 
# 
# High freq. dielectric constant tensor:
#      x y z
#    x 1.792200 0.000000 0.000000 
#    y 0.000000 1.793560 0.000000 
#    z 0.000000 0.000000 1.758690 
# 
# From -- ./inp_files/21533.got.cif
#   From: 2010.03.12/outbox.cif.g09.slc.cpg/sg62_11_cif.got.tgz:21533.got - 2010.04.10 19:12:36.
