data_PCOD8254318
_publ_section_title
;
Structure prediction by ZEFSAII (Michael W. Deem and Ramdas Pophale) SiO2 
 PCOD8254318
Probable space group: P N M A
;
_chemical_formula_sum "Si O2"
_cell_formula_units_Z 32
_cell_length_a 8.614533
_cell_length_b 7.879197
_cell_length_c 23.408626
_cell_angle_alpha 90.000000
_cell_angle_beta 90.000000
_cell_angle_gamma 90.000000
_cell_volume 1588.874595
_symmetry_space_group_name_H-M "P N M A"
_symmetry_group_IT_number 62
_symmetry_cell_setting 'orthorhombic'
loop_
_space_group_symop_operation_xyz
x,y,z
1/2-x,-y,1/2+z
1/2+x,1/2-y,1/2-z
-x,1/2+y,-z
-x,-y,-z
1/2+x,y,1/2-z
1/2-x,1/2+y,1/2+z
x,1/2-y,z
loop_
_atom_site_type_symbol
_atom_site_label
_atom_site_fract_x
_atom_site_fract_y
_atom_site_fract_z
Si Si1 0.169392 0.250000 0.321106
Si Si2 0.828994 0.442900 0.484707
Si Si3 0.195197 0.750000 0.697179
Si Si4 0.650528 0.938531 0.592348
Si Si5 0.823934 0.061618 0.873114
O O1 0.267634 0.250000 0.263574
O O2 0.218691 0.416958 0.357938
O O3 0.988296 0.250000 0.310172
O O4 0.831348 0.250000 0.463436
O O5 0.719391 0.459546 0.539422
O O6 0.765582 0.554504 0.433088
O O7 0.000000 0.500000 0.500000
O O8 0.265653 0.579987 0.670525
O O9 0.594720 0.750000 0.572133
O O10 0.506754 0.041313 0.617058
O O11 0.795250 0.250000 0.847351
#
# Coordination Sequence:
#
# PCOD8254318 Si02
#       5
#     4   8   4   8   8
#     4  10  24  42  76  90 136 178 213 286 329 394
#     4  12  23  38  60  97 138 176 222 273 328 400
#     4  12  22  48  68 100 130 174 229 268 339 388
#     4  10  21  41  63  96 126 174 216 267 335 385
#     4  12  24  41  67  97 133 176 220 273 330 396
#
# _framework density 20.140042000000001
#
# number of rings (size 3 to 8) (size 9 to 14) (size 15 to 20)
#    0.750    0.000    2.500    6.750    0.000    0.000 
#    0.000    7.500    0.000    0.000    0.000    0.000 
#    0.000    0.000    0.000    0.000    0.000    0.000 
#
# Total GULP energy -396832.331868 kJ/mol
# GULP energy per Si atom -12401.010371 kJ/mol
# Density = 2.009420 g / cm^3
# Si number density = 20.140042 Si / 1000 Ang^3
#
#
#
# Elastic Constant Matrix: (Units=GPa)
#
#
# Indices 1 2 3 4 5 6 
#
# 1 54.9395 12.9432 -25.0246 0.0000 0.0000 0.0000
# 2 12.9432 134.9429 10.4352 0.0000 0.0000 0.0000
# 3 -25.0246 10.4352 57.6091 0.0000 0.0000 0.0000
# 4 0.0000 0.0000 0.0000 8.1428 0.0000 0.0000
# 5 0.0000 0.0000 0.0000 0.0000 40.1619 0.0000
# 6 0.0000 0.0000 0.0000 0.0000 0.0000 26.7170
#
#
#
# Elastic Compliance Matrix: (Units=1/GPa)
#
#
# Indices 1 2 3 4 5 6 
#
# 1 0.023939 -0.003144 0.010968 0.000000 0.000000 0.000000
# 2 -0.003144 0.007929 -0.002802 0.000000 0.000000 0.000000
# 3 0.010968 -0.002802 0.022630 0.000000 0.000000 0.000000
# 4 0.000000 0.000000 0.000000 0.122807 0.000000 0.000000
# 5 0.000000 0.000000 0.000000 0.000000 0.024899 0.000000
# 6 0.000000 0.000000 0.000000 0.000000 0.000000 0.037429
#
#
# Mechanical properties :
#
#
# Convention : Reuss Voigt Hill
#
# Bulk Modulus (GPa) = 15.49396 27.13325 21.31360
# Shear Modulus (GPa) = 19.91208 31.61351 25.76280
#
# Velocity S-wave (km/s) = 3.14774 3.96622 3.58045
# Velocity P-wave (km/s) = 4.57393 5.87163 5.26293
#
# Compressibility (1/GPa) = 0.06454129
#
# Stress axis : x y z
#
# Youngs Moduli (GPa) = 41.77368 126.12226 44.18845
#
# Poissons Ratio (x) = 0.39656 -0.48466
# Poissons Ratio (y) = 0.13135 0.12382
# Poissons Ratio (z) = -0.45818 0.35340
#
# Static dielectric constant tensor:
#      x y z
#    x 3.832820 0.000000 0.000000 
#    y 0.000000 3.664100 0.000000 
#    z 0.000000 0.000000 3.609780 
# 
# 
# High freq. dielectric constant tensor:
#      x y z
#    x 1.802160 0.000000 0.000000 
#    y 0.000000 1.783660 0.000000 
#    z 0.000000 0.000000 1.780990 
# 
# From -- ./inp_files/28539.got.cif
#   From: 2010.03.12/outbox.cif.g09.slc.cpg/sg62_15_cif.got.tgz:28539.got - 2010.04.10 19:12:36.
