data_PCOD8254676
_publ_section_title
;
Structure prediction by ZEFSAII (Michael W. Deem and Ramdas Pophale) SiO2 
 PCOD8254676
Probable space group: P N M A
;
_chemical_formula_sum "Si O2"
_cell_formula_units_Z 56
_cell_length_a 14.392953
_cell_length_b 28.498947
_cell_length_c 6.279358
_cell_angle_alpha 90.000000
_cell_angle_beta 90.000000
_cell_angle_gamma 90.000000
_cell_volume 2575.692212
_symmetry_space_group_name_H-M "P N M A"
_symmetry_group_IT_number 62
_symmetry_cell_setting 'orthorhombic'
loop_
_space_group_symop_operation_xyz
x,y,z
1/2-x,-y,1/2+z
1/2+x,1/2-y,1/2-z
-x,1/2+y,-z
-x,-y,-z
1/2+x,y,1/2-z
1/2-x,1/2+y,1/2+z
x,1/2-y,z
loop_
_atom_site_type_symbol
_atom_site_label
_atom_site_fract_x
_atom_site_fract_y
_atom_site_fract_z
Si Si1 0.997309 0.466339 0.204529
Si Si2 0.825657 0.857172 0.106345
Si Si3 0.355011 0.016235 0.974816
Si Si4 0.190897 0.856133 0.777836
Si Si5 0.476349 0.859222 0.716516
Si Si6 0.255519 0.431554 0.625952
Si Si7 0.660239 0.303098 0.004122
O O1 0.892856 0.461998 0.302232
O O2 0.064145 0.484862 0.383874
O O3 0.034055 0.414304 0.169015
O O4 0.000000 0.500000 0.000000
O O5 0.829877 0.904011 0.257798
O O6 0.810226 0.812861 0.260743
O O7 0.738154 0.867329 0.949850
O O8 0.921218 0.841673 0.991841
O O9 0.331009 0.057557 0.809926
O O10 0.269745 0.981816 0.026369
O O11 0.245855 0.810562 0.860737
O O12 0.082469 0.842660 0.760482
O O13 0.200658 0.899394 0.942306
O O14 0.420852 0.839520 0.921868
O O15 0.625150 0.250000 0.033245
#
# Coordination Sequence:
#
# PCOD8254676 Si02
#       7
#     8   8   8   8   8   8   8
#     4  11  23  40  58  91 132 180 224 276 327 392
#     4  10  22  42  64  90 132 170 216 272 344 397
#     4  11  25  35  58  87 126 174 230 270 323 379
#     4  10  23  43  66  95 130 174 218 272 341 412
#     4  11  23  40  69  96 134 171 220 278 340 403
#     4  11  24  37  59  92 128 178 227 276 319 393
#     4  10  24  45  68  98 130 166 217 277 347 424
#
# _framework density 21.741727999999998
#
# number of rings (size 3 to 8) (size 9 to 14) (size 15 to 20)
#    0.000    1.429    0.000    5.143    8.000    8.571 
#    0.000    1.429    0.000    0.000    0.000    0.000 
#    0.000    0.000    0.000    0.000    0.000    0.000 
#
# Total GULP energy -693829.491169 kJ/mol
# GULP energy per Si atom -12389.812342 kJ/mol
# Density = 2.169224 g / cm^3
# Si number density = 21.741728 Si / 1000 Ang^3
#
#
#
# Elastic Constant Matrix: (Units=GPa)
#
#
# Indices 1 2 3 4 5 6 
#
# 1 131.4374 27.0176 48.7265 0.0000 0.0000 0.0000
# 2 27.0176 103.5406 45.6458 0.0000 0.0000 0.0000
# 3 48.7265 45.6458 125.2444 0.0000 0.0000 0.0000
# 4 0.0000 0.0000 0.0000 22.2699 0.0000 0.0000
# 5 0.0000 0.0000 0.0000 0.0000 31.3664 0.0000
# 6 0.0000 0.0000 0.0000 0.0000 0.0000 21.4300
#
#
#
# Elastic Compliance Matrix: (Units=1/GPa)
#
#
# Indices 1 2 3 4 5 6 
#
# 1 0.008969 -0.000956 -0.003141 0.000000 0.000000 0.000000
# 2 -0.000956 0.011609 -0.003859 0.000000 0.000000 0.000000
# 3 -0.003141 -0.003859 0.010613 0.000000 0.000000 0.000000
# 4 0.000000 0.000000 0.000000 0.044904 0.000000 0.000000
# 5 0.000000 0.000000 0.000000 0.000000 0.031881 0.000000
# 6 0.000000 0.000000 0.000000 0.000000 0.000000 0.046664
#
#
# Mechanical properties :
#
#
# Convention : Reuss Voigt Hill
#
# Bulk Modulus (GPa) = 65.44906 67.00022 66.22464
# Shear Modulus (GPa) = 28.46669 30.93542 29.70105
#
# Velocity S-wave (km/s) = 3.62237 3.77617 3.70007
# Velocity P-wave (km/s) = 6.90389 7.06371 6.98426
#
# Compressibility (1/GPa) = 0.01527906
#
# Stress axis : x y z
#
# Youngs Moduli (GPa) = 111.49382 86.14261 94.22490
#
# Poissons Ratio (x) = 0.08232 0.29598
# Poissons Ratio (y) = 0.10654 0.36362
# Poissons Ratio (z) = 0.35022 0.33243
#
# Static dielectric constant tensor:
#      x y z
#    x 4.115500 0.000000 0.000000 
#    y 0.000000 3.759100 0.000000 
#    z 0.000000 0.000000 4.187050 
# 
# 
# High freq. dielectric constant tensor:
#      x y z
#    x 1.847670 0.000000 0.000000 
#    y 0.000000 1.832500 0.000000 
#    z 0.000000 0.000000 1.873590 
# 
# From -- ./inp_files/1264.got.cif
#   From: 2010.03.12/outbox.cif.g09.slc.cpg/sg62_1_cif.got.tgz:1264.got - 2010.04.10 19:12:36.
