data_PCOD8254801
_publ_section_title
;
Structure prediction by ZEFSAII (Michael W. Deem and Ramdas Pophale) SiO2 
 PCOD8254801
Probable space group: P N M A
;
_chemical_formula_sum "Si O2"
_cell_formula_units_Z 48
_cell_length_a 11.417834
_cell_length_b 12.792918
_cell_length_c 16.505087
_cell_angle_alpha 90.000000
_cell_angle_beta 90.000000
_cell_angle_gamma 90.000000
_cell_volume 2410.855378
_symmetry_space_group_name_H-M "P N M A"
_symmetry_group_IT_number 62
_symmetry_cell_setting 'orthorhombic'
loop_
_space_group_symop_operation_xyz
x,y,z
1/2-x,-y,1/2+z
1/2+x,1/2-y,1/2-z
-x,1/2+y,-z
-x,-y,-z
1/2+x,y,1/2-z
1/2-x,1/2+y,1/2+z
x,1/2-y,z
loop_
_atom_site_type_symbol
_atom_site_label
_atom_site_fract_x
_atom_site_fract_y
_atom_site_fract_z
Si Si1 0.223980 0.370386 0.487492
Si Si2 0.055091 0.966565 0.915942
Si Si3 0.138296 0.372366 0.199497
Si Si4 0.706041 0.129496 0.675812
Si Si5 0.180595 0.038352 0.654294
Si Si6 0.415157 0.515161 0.862092
O O1 0.193375 0.250000 0.494296
O O2 0.337583 0.388032 0.431584
O O3 0.248107 0.415576 0.576842
O O4 0.113903 0.427677 0.446260
O O5 0.962086 0.905047 0.862637
O O6 0.100081 0.068739 0.868175
O O7 0.000000 0.000000 0.000000
O O8 0.161826 0.250000 0.193923
O O9 0.260660 0.428284 0.178007
O O10 0.099372 0.402518 0.289483
O O11 0.698324 0.250000 0.649927
O O12 0.692525 0.119794 0.772340
O O13 0.831769 0.085225 0.649053
O O14 0.046287 0.024387 0.632096
#
# Coordination Sequence:
#
# PCOD8254801 Si02
#       6
#     8   8   8   8   8   8
#     4  11  23  39  64  92 124 165 204 257 321 371
#     4  11  22  44  62  93 130 157 211 267 303 370
#     4  11  23  41  66  91 124 169 211 261 320 368
#     4  10  23  41  66  93 126 170 207 255 319 371
#     4  11  22  43  62  93 128 162 212 260 303 386
#     4  10  23  43  61  91 130 158 212 262 306 381
#
# _framework density 19.909946000000001
#
# number of rings (size 3 to 8) (size 9 to 14) (size 15 to 20)
#    0.000    1.333    3.333    2.000    0.000    4.000 
#    0.000    0.000    0.000    0.000    0.000    0.000 
#    0.000    0.000    0.000    0.000    0.000    0.000 
#
# Total GULP energy -595475.449296 kJ/mol
# GULP energy per Si atom -12405.738527 kJ/mol
# Density = 1.986463 g / cm^3
# Si number density = 19.909946 Si / 1000 Ang^3
#
#
#
# Elastic Constant Matrix: (Units=GPa)
#
#
# Indices 1 2 3 4 5 6 
#
# 1 49.8631 3.0530 -1.7647 0.0000 0.0000 0.0000
# 2 3.0530 119.0225 28.9116 0.0000 0.0000 0.0000
# 3 -1.7647 28.9116 111.8955 0.0000 0.0000 0.0000
# 4 0.0000 0.0000 0.0000 19.6687 0.0000 0.0000
# 5 0.0000 0.0000 0.0000 0.0000 24.6906 0.0000
# 6 0.0000 0.0000 0.0000 0.0000 0.0000 19.6005
#
#
#
# Elastic Compliance Matrix: (Units=1/GPa)
#
#
# Indices 1 2 3 4 5 6 
#
# 1 0.020111 -0.000633 0.000481 0.000000 0.000000 0.000000
# 2 -0.000633 0.008984 -0.002331 0.000000 0.000000 0.000000
# 3 0.000481 -0.002331 0.009547 0.000000 0.000000 0.000000
# 4 0.000000 0.000000 0.000000 0.050842 0.000000 0.000000
# 5 0.000000 0.000000 0.000000 0.000000 0.040501 0.000000
# 6 0.000000 0.000000 0.000000 0.000000 0.000000 0.051019
#
#
# Mechanical properties :
#
#
# Convention : Reuss Voigt Hill
#
# Bulk Modulus (GPa) = 29.69546 37.90898 33.80222
# Shear Modulus (GPa) = 25.35545 29.49736 27.42641
#
# Velocity S-wave (km/s) = 3.57249 3.85325 3.71553
# Velocity P-wave (km/s) = 5.65369 6.23525 5.95158
#
# Compressibility (1/GPa) = 0.03367519
#
# Stress axis : x y z
#
# Youngs Moduli (GPa) = 49.72488 111.30523 104.74639
#
# Poissons Ratio (x) = 0.07041 -0.05034
# Poissons Ratio (y) = 0.03146 0.24420
# Poissons Ratio (z) = -0.02390 0.25949
#
# Static dielectric constant tensor:
#      x y z
#    x 3.745010 0.000000 0.000000 
#    y 0.000000 3.467670 0.000000 
#    z 0.000000 0.000000 3.967110 
# 
# 
# High freq. dielectric constant tensor:
#      x y z
#    x 1.783580 0.000000 0.000000 
#    y 0.000000 1.767230 0.000000 
#    z 0.000000 0.000000 1.795190 
# 
# From -- ./inp_files/23005.got.cif
#   From: 2010.03.12/outbox.cif.g09.slc.cpg/sg62_12_cif.got.tgz:23005.got - 2010.04.10 19:12:36.
