data_PCOD8254063
_publ_section_title
;
Structure prediction by ZEFSAII (Michael W. Deem and Ramdas Pophale) SiO2 
 PCOD8254063
Probable space group: P N M A
;
_chemical_formula_sum "Si O2"
_cell_formula_units_Z 56
_cell_length_a 12.806442
_cell_length_b 14.615599
_cell_length_c 13.824344
_cell_angle_alpha 90.000000
_cell_angle_beta 90.000000
_cell_angle_gamma 90.000000
_cell_volume 2587.555288
_symmetry_space_group_name_H-M "P N M A"
_symmetry_group_IT_number 62
_symmetry_cell_setting 'orthorhombic'
loop_
_space_group_symop_operation_xyz
x,y,z
1/2-x,-y,1/2+z
1/2+x,1/2-y,1/2-z
-x,1/2+y,-z
-x,-y,-z
1/2+x,y,1/2-z
1/2-x,1/2+y,1/2+z
x,1/2-y,z
loop_
_atom_site_type_symbol
_atom_site_label
_atom_site_fract_x
_atom_site_fract_y
_atom_site_fract_z
Si Si1 0.698565 0.649986 0.057977
Si Si2 0.798731 0.518760 0.429605
Si Si3 0.773247 0.358901 0.100408
Si Si4 0.382734 0.851109 0.308030
Si Si5 0.977892 0.470651 0.107062
Si Si6 0.156769 0.030745 0.238996
Si Si7 0.499001 0.912414 0.136441
O O1 0.729464 0.750000 0.017770
O O2 0.762120 0.630498 0.159448
O O3 0.572688 0.651384 0.070684
O O4 0.736615 0.575025 0.981338
O O5 0.764711 0.603778 0.496524
O O6 0.748266 0.521758 0.321737
O O7 0.925522 0.517858 0.423847
O O8 0.772296 0.250000 0.097005
O O9 0.702837 0.392032 0.190411
O O10 0.889122 0.395410 0.119223
O O11 0.415523 0.750000 0.346837
O O12 0.410563 0.852842 0.193580
O O13 0.454682 0.931452 0.346392
O O14 0.079281 0.426215 0.158309
O O15 0.000000 0.500000 0.000000
O O16 0.088026 0.963710 0.303457
#
# Coordination Sequence:
#
# PCOD8254063 Si02
#       7
#     8   8   8   8   8   8   8
#     4  11  22  39  64  95 131 175 230 278 341 421
#     4  12  24  46  69  96 143 186 227 295 362 414
#     4  12  27  46  70 109 145 185 244 299 357 429
#     4  10  21  38  64  95 128 166 223 282 336 411
#     4  11  21  44  70  97 140 186 233 289 355 426
#     4  11  23  44  74  96 138 191 229 288 360 420
#     4  11  22  40  66  99 132 176 228 281 355 414
#
# _framework density 21.642049
#
# number of rings (size 3 to 8) (size 9 to 14) (size 15 to 20)
#    0.000    0.857    4.286    3.429    0.000    2.857 
#    0.000    0.714    0.000    0.000    0.000    0.000 
#    0.000    0.000    0.000    0.000    0.000    0.000 
#
# Total GULP energy -693735.477099 kJ/mol
# GULP energy per Si atom -12388.133520 kJ/mol
# Density = 2.159279 g / cm^3
# Si number density = 21.642049 Si / 1000 Ang^3
#
#
#
# Elastic Constant Matrix: (Units=GPa)
#
#
# Indices 1 2 3 4 5 6 
#
# 1 117.6351 42.2616 17.7403 0.0000 0.0000 0.0000
# 2 42.2616 141.2168 40.0597 0.0000 0.0000 0.0000
# 3 17.7403 40.0597 69.9174 0.0000 0.0000 0.0000
# 4 0.0000 0.0000 0.0000 14.9790 0.0000 0.0000
# 5 0.0000 0.0000 0.0000 0.0000 46.3763 0.0000
# 6 0.0000 0.0000 0.0000 0.0000 0.0000 15.6674
#
#
#
# Elastic Compliance Matrix: (Units=1/GPa)
#
#
# Indices 1 2 3 4 5 6 
#
# 1 0.009576 -0.002599 -0.000941 0.000000 0.000000 0.000000
# 2 -0.002599 0.009161 -0.004589 0.000000 0.000000 0.000000
# 3 -0.000941 -0.004589 0.017171 0.000000 0.000000 0.000000
# 4 0.000000 0.000000 0.000000 0.066760 0.000000 0.000000
# 5 0.000000 0.000000 0.000000 0.000000 0.021563 0.000000
# 6 0.000000 0.000000 0.000000 0.000000 0.000000 0.063827
#
#
# Mechanical properties :
#
#
# Convention : Reuss Voigt Hill
#
# Bulk Modulus (GPa) = 50.89071 58.76582 54.82826
# Shear Modulus (GPa) = 23.71167 30.65170 27.18169
#
# Velocity S-wave (km/s) = 3.31362 3.76746 3.54781
# Velocity P-wave (km/s) = 6.18109 6.79246 6.49397
#
# Compressibility (1/GPa) = 0.01964995
#
# Stress axis : x y z
#
# Youngs Moduli (GPa) = 104.42257 109.15805 58.23836
#
# Poissons Ratio (x) = 0.28371 0.05478
# Poissons Ratio (y) = 0.27140 0.26728
# Poissons Ratio (z) = 0.09823 0.50097
#
# Static dielectric constant tensor:
#      x y z
#    x 3.872530 0.000000 0.000000 
#    y 0.000000 3.684460 0.000000 
#    z 0.000000 0.000000 4.198350 
# 
# 
# High freq. dielectric constant tensor:
#      x y z
#    x 1.869100 0.000000 0.000000 
#    y 0.000000 1.830200 0.000000 
#    z 0.000000 0.000000 1.852400 
# 
# From -- ./inp_files/18064.got.cif
#   From: 2010.03.12/outbox.cif.g09.slc.cpg/sg62_10_cif.got.tgz:18064.got - 2010.04.10 19:12:36.
