data_PCOD8254764
_publ_section_title
;
Structure prediction by ZEFSAII (Michael W. Deem and Ramdas Pophale) SiO2 
 PCOD8254764
Probable space group: P N M A
;
_chemical_formula_sum "Si O2"
_cell_formula_units_Z 36
_cell_length_a 22.521571
_cell_length_b 9.793012
_cell_length_c 8.032732
_cell_angle_alpha 90.000000
_cell_angle_beta 90.000000
_cell_angle_gamma 90.000000
_cell_volume 1771.651295
_symmetry_space_group_name_H-M "P N M A"
_symmetry_group_IT_number 62
_symmetry_cell_setting 'orthorhombic'
loop_
_space_group_symop_operation_xyz
x,y,z
1/2-x,-y,1/2+z
1/2+x,1/2-y,1/2-z
-x,1/2+y,-z
-x,-y,-z
1/2+x,y,1/2-z
1/2-x,1/2+y,1/2+z
x,1/2-y,z
loop_
_atom_site_type_symbol
_atom_site_label
_atom_site_fract_x
_atom_site_fract_y
_atom_site_fract_z
Si Si1 0.856489 0.015799 0.302629
Si Si2 0.285892 0.250000 0.039676
Si Si3 0.617693 0.750000 0.234227
Si Si4 0.415175 0.250000 0.400795
Si Si5 0.438818 0.986217 0.905379
Si Si6 0.839579 0.750000 0.095276
Si Si7 0.950176 0.750000 0.856426
O O1 0.802608 0.113145 0.359402
O O2 0.902229 0.112297 0.202287
O O3 0.888904 0.947526 0.460090
O O4 0.831968 0.888918 0.199024
O O5 0.318466 0.250000 0.858570
O O6 0.215142 0.250000 0.031351
O O7 0.625712 0.750000 0.433612
O O8 0.577183 0.625820 0.181527
O O9 0.485183 0.250000 0.442812
O O10 0.441368 0.879542 0.758311
O O11 0.500000 0.000000 0.000000
O O12 0.902444 0.750000 0.003558
#
# Coordination Sequence:
#
# PCOD8254764 Si02
#       7
#     8   4   4   4   8   4   4
#     4  10  23  43  66  89 129 171 213 260 321 379
#     4   9  24  48  63  87 126 178 211 249 327 387
#     4  10  23  38  63  84 121 168 214 255 318 379
#     4  11  22  41  60  97 130 167 203 266 331 379
#     4  11  21  39  60  89 127 173 205 249 325 398
#     4  12  26  41  67 102 125 160 224 279 298 365
#     4  12  25  36  61  98 136 159 212 271 322 374
#
# _framework density 20.320025000000001
#
# number of rings (size 3 to 8) (size 9 to 14) (size 15 to 20)
#    0.000    1.333    2.222    3.333    3.111    7.111 
#    0.000    3.333    0.000    0.000    0.000    0.000 
#    0.000    0.000    0.000    0.000    0.000    0.000 
#
# Total GULP energy -446431.862129 kJ/mol
# GULP energy per Si atom -12400.885059 kJ/mol
# Density = 2.027378 g / cm^3
# Si number density = 20.320025 Si / 1000 Ang^3
#
#
#
# Elastic Constant Matrix: (Units=GPa)
#
#
# Indices 1 2 3 4 5 6 
#
# 1 107.0310 39.8784 27.4479 0.0000 0.0000 0.0000
# 2 39.8784 126.5146 35.7113 0.0000 0.0000 0.0000
# 3 27.4479 35.7113 97.5571 0.0000 0.0000 0.0000
# 4 0.0000 0.0000 0.0000 33.5211 0.0000 0.0000
# 5 0.0000 0.0000 0.0000 0.0000 29.8024 0.0000
# 6 0.0000 0.0000 0.0000 0.0000 0.0000 20.2618
#
#
#
# Elastic Compliance Matrix: (Units=1/GPa)
#
#
# Indices 1 2 3 4 5 6 
#
# 1 0.010933 -0.002875 -0.002024 0.000000 0.000000 0.000000
# 2 -0.002875 0.009571 -0.002695 0.000000 0.000000 0.000000
# 3 -0.002024 -0.002695 0.011806 0.000000 0.000000 0.000000
# 4 0.000000 0.000000 0.000000 0.029832 0.000000 0.000000
# 5 0.000000 0.000000 0.000000 0.000000 0.033554 0.000000
# 6 0.000000 0.000000 0.000000 0.000000 0.000000 0.049354
#
#
# Mechanical properties :
#
#
# Convention : Reuss Voigt Hill
#
# Bulk Modulus (GPa) = 58.39828 59.68644 59.04236
# Shear Modulus (GPa) = 30.13037 31.92139 31.02588
#
# Velocity S-wave (km/s) = 3.85488 3.96780 3.91175
# Velocity P-wave (km/s) = 6.97246 7.10128 7.03716
#
# Compressibility (1/GPa) = 0.01712379
#
# Stress axis : x y z
#
# Youngs Moduli (GPa) = 91.46403 104.48147 84.70153
#
# Poissons Ratio (x) = 0.30039 0.17141
# Poissons Ratio (y) = 0.26296 0.22824
# Poissons Ratio (z) = 0.18509 0.28154
#
# Static dielectric constant tensor:
#      x y z
#    x 3.362940 0.000000 0.000000 
#    y 0.000000 3.751880 0.000000 
#    z 0.000000 0.000000 3.917210 
# 
# 
# High freq. dielectric constant tensor:
#      x y z
#    x 1.784130 0.000000 0.000000 
#    y 0.000000 1.810630 0.000000 
#    z 0.000000 0.000000 1.802010 
# 
# From -- ./inp_files/8354.got.cif
#   From: 2010.03.12/outbox.cif.g09.slc.cpg/sg62_5_cif.got.tgz:8354.got - 2010.04.10 19:12:36.
