data_PCOD8254524
_publ_section_title
;
Structure prediction by ZEFSAII (Michael W. Deem and Ramdas Pophale) SiO2 
 PCOD8254524
Probable space group: P N M A
;
_chemical_formula_sum "Si O2"
_cell_formula_units_Z 56
_cell_length_a 8.942149
_cell_length_b 19.010686
_cell_length_c 14.221874
_cell_angle_alpha 90.000000
_cell_angle_beta 90.000000
_cell_angle_gamma 90.000000
_cell_volume 2417.667194
_symmetry_space_group_name_H-M "P N M A"
_symmetry_group_IT_number 62
_symmetry_cell_setting 'orthorhombic'
loop_
_space_group_symop_operation_xyz
x,y,z
1/2-x,-y,1/2+z
1/2+x,1/2-y,1/2-z
-x,1/2+y,-z
-x,-y,-z
1/2+x,y,1/2-z
1/2-x,1/2+y,1/2+z
x,1/2-y,z
loop_
_atom_site_type_symbol
_atom_site_label
_atom_site_fract_x
_atom_site_fract_y
_atom_site_fract_z
Si Si1 0.644241 0.891925 0.529836
Si Si2 0.624576 0.171971 0.697767
Si Si3 0.686342 0.750000 0.619612
Si Si4 0.831344 0.407075 0.816950
Si Si5 0.306492 0.955867 0.805114
Si Si6 0.182252 0.167847 0.010519
Si Si7 0.391521 0.114230 0.160462
Si Si8 0.040396 0.250000 0.265303
O O1 0.724799 0.817997 0.556144
O O2 0.695814 0.919911 0.427775
O O3 0.697807 0.952357 0.603063
O O4 0.468041 0.876076 0.535274
O O5 0.553787 0.250000 0.705507
O O6 0.501730 0.111663 0.700668
O O7 0.733874 0.159739 0.785160
O O8 0.715103 0.164972 0.600264
O O9 0.512209 0.750000 0.655799
O O10 0.780589 0.750000 0.717915
O O11 0.785324 0.472089 0.751529
O O12 0.243925 0.896034 0.734549
O O13 0.481058 0.946851 0.834502
O O14 0.170712 0.250000 0.042578
O O15 0.317563 0.124977 0.058456
O O16 0.481025 0.183159 0.181801
#
# Coordination Sequence:
#
# PCOD8254524 Si02
#       8
#     8   8   4   8   8   8   8   4
#     4  11  24  43  73 102 139 188 238 295 352 423
#     4  10  23  46  73 104 133 181 239 299 351 405
#     4  12  24  40  70 107 143 180 242 291 361 401
#     4  11  26  48  71  98 141 186 235 290 350 429
#     4  12  26  44  66 101 140 188 230 276 355 431
#     4  10  22  39  68 103 137 173 233 295 354 410
#     4  12  23  40  66  99 144 183 226 286 348 414
#     4  12  22  38  66 105 143 176 226 293 349 401
#
# _framework density 23.162824000000001
#
# number of rings (size 3 to 8) (size 9 to 14) (size 15 to 20)
#    0.000    0.857    4.286    2.143    4.000    2.286 
#    0.000    5.714    0.000    0.000    0.000    0.000 
#    0.000    0.000    0.000    0.000    0.000    0.000 
#
# Total GULP energy -694094.558613 kJ/mol
# GULP energy per Si atom -12394.545690 kJ/mol
# Density = 2.311010 g / cm^3
# Si number density = 23.162824 Si / 1000 Ang^3
#
#
#
# Elastic Constant Matrix: (Units=GPa)
#
#
# Indices 1 2 3 4 5 6 
#
# 1 78.9236 25.9244 41.4366 0.0000 0.0000 0.0000
# 2 25.9244 88.1434 56.6758 0.0000 0.0000 0.0000
# 3 41.4366 56.6758 129.4191 0.0000 0.0000 0.0000
# 4 0.0000 0.0000 0.0000 49.8061 0.0000 0.0000
# 5 0.0000 0.0000 0.0000 0.0000 40.9442 0.0000
# 6 0.0000 0.0000 0.0000 0.0000 0.0000 29.4601
#
#
#
# Elastic Compliance Matrix: (Units=1/GPa)
#
#
# Indices 1 2 3 4 5 6 
#
# 1 0.015456 -0.001898 -0.004117 0.000000 0.000000 0.000000
# 2 -0.001898 0.016025 -0.006410 0.000000 0.000000 0.000000
# 3 -0.004117 -0.006410 0.011852 0.000000 0.000000 0.000000
# 4 0.000000 0.000000 0.000000 0.020078 0.000000 0.000000
# 5 0.000000 0.000000 0.000000 0.000000 0.024423 0.000000
# 6 0.000000 0.000000 0.000000 0.000000 0.000000 0.033944
#
#
# Mechanical properties :
#
#
# Convention : Reuss Voigt Hill
#
# Bulk Modulus (GPa) = 54.10729 60.50663 57.30696
# Shear Modulus (GPa) = 32.72464 35.53869 34.13166
#
# Velocity S-wave (km/s) = 3.76281 3.92126 3.84285
# Velocity P-wave (km/s) = 6.50297 6.83233 6.66968
#
# Compressibility (1/GPa) = 0.01848180
#
# Stress axis : x y z
#
# Youngs Moduli (GPa) = 64.70126 62.40218 84.37323
#
# Poissons Ratio (x) = 0.11847 0.34737
# Poissons Ratio (y) = 0.12283 0.54083
# Poissons Ratio (z) = 0.26638 0.39999
#
# Static dielectric constant tensor:
#      x y z
#    x 4.155360 0.000000 0.000000 
#    y 0.000000 3.971130 0.000000 
#    z 0.000000 0.000000 4.222820 
# 
# 
# High freq. dielectric constant tensor:
#      x y z
#    x 1.911610 0.000000 0.000000 
#    y 0.000000 1.911980 0.000000 
#    z 0.000000 0.000000 1.914850 
# 
# From -- ./inp_files/17242.got.cif
#   From: 2010.03.12/outbox.cif.g09.slc.cpg/sg62_9_cif.got.tgz:17242.got - 2010.04.10 19:12:36.
