data_PCOD8254905
_publ_section_title
;
Structure prediction by ZEFSAII (Michael W. Deem and Ramdas Pophale) SiO2 
 PCOD8254905
Probable space group: P N M A
;
_chemical_formula_sum "Si O2"
_cell_formula_units_Z 32
_cell_length_a 18.262930
_cell_length_b 8.695678
_cell_length_c 9.842552
_cell_angle_alpha 90.000000
_cell_angle_beta 90.000000
_cell_angle_gamma 90.000000
_cell_volume 1563.081496
_symmetry_space_group_name_H-M "P N M A"
_symmetry_group_IT_number 62
_symmetry_cell_setting 'orthorhombic'
loop_
_space_group_symop_operation_xyz
x,y,z
1/2-x,-y,1/2+z
1/2+x,1/2-y,1/2-z
-x,1/2+y,-z
-x,-y,-z
1/2+x,y,1/2-z
1/2-x,1/2+y,1/2+z
x,1/2-y,z
loop_
_atom_site_type_symbol
_atom_site_label
_atom_site_fract_x
_atom_site_fract_y
_atom_site_fract_z
Si Si1 0.943449 0.930709 0.105405
Si Si2 0.180284 0.071637 0.282755
Si Si3 0.701217 0.572109 0.495965
Si Si4 0.516950 0.431645 0.144893
O O1 0.955105 0.750000 0.112079
O O2 0.861782 0.967437 0.059241
O O3 0.956491 0.003065 0.252775
O O4 0.000000 0.000000 0.000000
O O5 0.182720 0.250000 0.241824
O O6 0.224802 0.040148 0.420575
O O7 0.097344 0.016158 0.306358
O O8 0.215540 0.974687 0.159963
O O9 0.678028 0.750000 0.504189
O O10 0.510811 0.250000 0.138052
O O11 0.500000 0.500000 0.000000
#
# Coordination Sequence:
#
# PCOD8254905 Si02
#       4
#     8   8   8   8
#     4  12  24  42  67  95 126 167 214 267 321 382
#     4  10  24  44  64  93 130 168 214 263 314 378
#     4  11  24  42  66  96 128 170 216 262 321 384
#     4  11  24  43  66  96 131 168 213 268 320 381
#
# _framework density 20.472382
#
# number of rings (size 3 to 8) (size 9 to 14) (size 15 to 20)
#    0.000    1.000    2.500    3.750    3.500    3.000 
#    0.000    0.000    0.000    0.000    0.000    0.000 
#    0.000    0.000    0.000    0.000    0.000    0.000 
#
# Total GULP energy -397043.426777 kJ/mol
# GULP energy per Si atom -12407.607087 kJ/mol
# Density = 2.042579 g / cm^3
# Si number density = 20.472382 Si / 1000 Ang^3
#
#
#
# Elastic Constant Matrix: (Units=GPa)
#
#
# Indices 1 2 3 4 5 6 
#
# 1 63.4334 29.0212 22.8821 0.0000 0.0000 0.0000
# 2 29.0212 97.2640 51.7024 0.0000 0.0000 0.0000
# 3 22.8821 51.7024 152.6395 0.0000 0.0000 0.0000
# 4 0.0000 0.0000 0.0000 43.0718 0.0000 0.0000
# 5 0.0000 0.0000 0.0000 0.0000 39.6459 0.0000
# 6 0.0000 0.0000 0.0000 0.0000 0.0000 30.3484
#
#
#
# Elastic Compliance Matrix: (Units=1/GPa)
#
#
# Indices 1 2 3 4 5 6 
#
# 1 0.018406 -0.004909 -0.001096 0.000000 0.000000 0.000000
# 2 -0.004909 0.013848 -0.003955 0.000000 0.000000 0.000000
# 3 -0.001096 -0.003955 0.008055 0.000000 0.000000 0.000000
# 4 0.000000 0.000000 0.000000 0.023217 0.000000 0.000000
# 5 0.000000 0.000000 0.000000 0.000000 0.025223 0.000000
# 6 0.000000 0.000000 0.000000 0.000000 0.000000 0.032951
#
#
# Mechanical properties :
#
#
# Convention : Reuss Voigt Hill
#
# Bulk Modulus (GPa) = 49.04604 57.83872 53.44238
# Shear Modulus (GPa) = 33.68872 36.59530 35.14201
#
# Velocity S-wave (km/s) = 4.06096 4.23252 4.14763
# Velocity P-wave (km/s) = 6.78216 7.22489 7.00703
#
# Compressibility (1/GPa) = 0.02038901
#
# Stress axis : x y z
#
# Youngs Moduli (GPa) = 54.33007 72.21100 124.14140
#
# Poissons Ratio (x) = 0.35449 0.13611
# Poissons Ratio (y) = 0.26671 0.49096
# Poissons Ratio (z) = 0.05957 0.28558
#
# Static dielectric constant tensor:
#      x y z
#    x 3.969200 0.000000 0.000000 
#    y 0.000000 3.697200 0.000000 
#    z 0.000000 0.000000 3.898650 
# 
# 
# High freq. dielectric constant tensor:
#      x y z
#    x 1.801640 0.000000 0.000000 
#    y 0.000000 1.809220 0.000000 
#    z 0.000000 0.000000 1.816620 
# 
# From -- ./inp_files/8248.got.cif
#   From: 2010.03.12/outbox.cif.g09.slc.cpg/sg62_5_cif.got.tgz:8248.got - 2010.04.10 19:12:36.
