data_PCOD8254232
_publ_section_title
;
Structure prediction by ZEFSAII (Michael W. Deem and Ramdas Pophale) SiO2 
 PCOD8254232
Probable space group: P N M A
;
_chemical_formula_sum "Si O2"
_cell_formula_units_Z 64
_cell_length_a 30.625584
_cell_length_b 8.780803
_cell_length_c 11.991358
_cell_angle_alpha 90.000000
_cell_angle_beta 90.000000
_cell_angle_gamma 90.000000
_cell_volume 3224.682656
_symmetry_space_group_name_H-M "P N M A"
_symmetry_group_IT_number 62
_symmetry_cell_setting 'orthorhombic'
loop_
_space_group_symop_operation_xyz
x,y,z
1/2-x,-y,1/2+z
1/2+x,1/2-y,1/2-z
-x,1/2+y,-z
-x,-y,-z
1/2+x,y,1/2-z
1/2-x,1/2+y,1/2+z
x,1/2-y,z
loop_
_atom_site_type_symbol
_atom_site_label
_atom_site_fract_x
_atom_site_fract_y
_atom_site_fract_z
Si Si1 0.544263 0.428000 0.773784
Si Si2 0.370834 0.430685 0.607430
Si Si3 0.834776 0.928907 0.497995
Si Si4 0.053041 0.571517 0.263615
Si Si5 0.698429 0.073171 0.239227
Si Si6 0.426302 0.069907 0.008518
Si Si7 0.876154 0.069689 0.143571
Si Si8 0.204013 0.928045 0.704740
O O1 0.554417 0.250000 0.775945
O O2 0.496213 0.463307 0.723339
O O3 0.543269 0.489641 0.900114
O O4 0.579655 0.509692 0.698037
O O5 0.372342 0.250000 0.605493
O O6 0.412338 0.498558 0.675978
O O7 0.325805 0.481498 0.663776
O O8 0.372783 0.495346 0.481921
O O9 0.844559 0.750000 0.492106
O O10 0.819464 0.980108 0.619938
O O11 0.876828 0.025635 0.462863
O O12 0.797837 0.975369 0.409205
O O13 0.061412 0.750000 0.272585
O O14 0.061483 0.503431 0.386943
O O15 0.689443 0.250000 0.259586
O O16 0.749624 0.035763 0.239635
O O17 0.432537 0.250000 0.017940
O O18 0.878710 0.250000 0.142971
O O19 0.833641 0.014316 0.211065
O O20 0.198777 0.750000 0.677718
#
# Coordination Sequence:
#
# PCOD8254232 Si02
#       8
#     8   8   8   8   8   8   8   8
#     4  11  22  37  58  85 118 152 192 244 291 340
#     4  10  21  40  63  84 113 156 199 236 285 349
#     4  11  22  37  61  91 119 149 191 241 290 339
#     4   9  20  37  58  86 117 151 193 240 290 344
#     4  10  23  40  59  88 122 151 189 242 292 336
#     4  11  20  36  60  86 119 153 190 234 289 351
#     4  10  22  39  60  83 113 154 196 237 286 347
#     4  10  22  40  59  83 119 157 189 233 289 342
#
# _framework density 19.846916
#
# number of rings (size 3 to 8) (size 9 to 14) (size 15 to 20)
#    0.000    1.750    2.500    1.500    1.750    2.000 
#    0.000    3.125    0.000    0.000    0.000    0.000 
#    0.000    0.000    0.000    0.000    0.000    0.000 
#
# Total GULP energy -793786.409764 kJ/mol
# GULP energy per Si atom -12402.912653 kJ/mol
# Density = 1.980174 g / cm^3
# Si number density = 19.846916 Si / 1000 Ang^3
#
#
#
# Elastic Constant Matrix: (Units=GPa)
#
#
# Indices 1 2 3 4 5 6 
#
# 1 108.2094 8.7973 43.0014 0.0000 0.0000 0.0000
# 2 8.7973 5.4103 16.2811 0.0000 0.0000 0.0000
# 3 43.0014 16.2811 137.7182 0.0000 0.0000 0.0000
# 4 0.0000 0.0000 0.0000 23.2523 0.0000 0.0000
# 5 0.0000 0.0000 0.0000 0.0000 28.1550 0.0000
# 6 0.0000 0.0000 0.0000 0.0000 0.0000 26.8773
#
#
#
# Elastic Compliance Matrix: (Units=1/GPa)
#
#
# Indices 1 2 3 4 5 6 
#
# 1 0.011010 -0.011731 -0.002051 0.000000 0.000000 0.000000
# 2 -0.011731 0.299396 -0.031732 0.000000 0.000000 0.000000
# 3 -0.002051 -0.031732 0.011653 0.000000 0.000000 0.000000
# 4 0.000000 0.000000 0.000000 0.043007 0.000000 0.000000
# 5 0.000000 0.000000 0.000000 0.000000 0.035518 0.000000
# 6 0.000000 0.000000 0.000000 0.000000 0.000000 0.037206
#
#
# Mechanical properties :
#
#
# Convention : Reuss Voigt Hill
#
# Bulk Modulus (GPa) = 4.32841 43.05528 23.69184
# Shear Modulus (GPa) = 8.25318 27.87413 18.06366
#
# Velocity S-wave (km/s) = 2.04143 3.75167 3.02014
# Velocity P-wave (km/s) = 2.78249 6.36455 4.91171
#
# Compressibility (1/GPa) = 0.23103177
#
# Stress axis : x y z
#
# Youngs Moduli (GPa) = 90.82594 3.34006 85.81484
#
# Poissons Ratio (x) = 0.03918 0.17601
# Poissons Ratio (y) = 1.06543 2.72308
# Poissons Ratio (z) = 0.18629 0.10599
#
# Static dielectric constant tensor:
#      x y z
#    x 3.689000 0.000000 0.000000 
#    y 0.000000 3.368500 0.000000 
#    z 0.000000 0.000000 3.845670 
# 
# 
# High freq. dielectric constant tensor:
#      x y z
#    x 1.783760 0.000000 0.000000 
#    y 0.000000 1.754570 0.000000 
#    z 0.000000 0.000000 1.780210 
# 
# From -- ./inp_files/15787.got.cif
#   From: 2010.03.12/outbox.cif.g09.slc.cpg/sg62_8_cif.got.tgz:15787.got - 2010.04.10 19:12:36.
