data_PCOD8254900
_publ_section_title
;
Structure prediction by ZEFSAII (Michael W. Deem and Ramdas Pophale) SiO2 
 PCOD8254900
Probable space group: P N M A
;
_chemical_formula_sum "Si O2"
_cell_formula_units_Z 64
_cell_length_a 15.093778
_cell_length_b 8.716269
_cell_length_c 23.314310
_cell_angle_alpha 90.000000
_cell_angle_beta 90.000000
_cell_angle_gamma 90.000000
_cell_volume 3067.263946
_symmetry_space_group_name_H-M "P N M A"
_symmetry_group_IT_number 62
_symmetry_cell_setting 'orthorhombic'
loop_
_space_group_symop_operation_xyz
x,y,z
1/2-x,-y,1/2+z
1/2+x,1/2-y,1/2-z
-x,1/2+y,-z
-x,-y,-z
1/2+x,y,1/2-z
1/2-x,1/2+y,1/2+z
x,1/2-y,z
loop_
_atom_site_type_symbol
_atom_site_label
_atom_site_fract_x
_atom_site_fract_y
_atom_site_fract_z
Si Si1 0.931438 0.425008 0.255942
Si Si2 0.267397 0.929278 0.755273
Si Si3 0.246969 0.926266 0.019028
Si Si4 0.818163 0.075922 0.860240
Si Si5 0.495501 0.924497 0.632092
Si Si6 0.578666 0.929432 0.168582
Si Si7 0.418925 0.068169 0.965331
Si Si8 0.580278 0.429383 0.534997
O O1 0.920388 0.250000 0.276476
O O2 0.833687 0.494455 0.242364
O O3 0.990143 0.436470 0.199456
O O4 0.985666 0.513614 0.304783
O O5 0.268679 0.750000 0.768418
O O6 0.299430 0.959157 0.690893
O O7 0.332806 0.003578 0.801887
O O8 0.227090 0.750000 0.002346
O O9 0.336953 0.981059 0.992034
O O10 0.172521 0.037183 0.994701
O O11 0.252500 0.942126 0.088303
O O12 0.819230 0.250000 0.836748
O O13 0.913321 0.031079 0.886200
O O14 0.477048 0.750000 0.613180
O O15 0.580047 0.990991 0.597891
O O16 0.583217 0.750000 0.178024
O O17 0.576209 0.974038 0.101818
O O18 0.412160 0.250000 0.974534
O O19 0.500000 0.000000 0.000000
O O20 0.500000 0.500000 0.500000
O O21 0.567230 0.250000 0.541734
#
# Coordination Sequence:
#
# PCOD8254900 Si02
#       8
#     8   8   8   8   8   8   8   8
#     4  10  24  43  66  96 127 169 216 262 324 393
#     4  11  24  42  66  98 132 170 216 267 329 393
#     4  11  25  44  67  95 130 175 222 272 329 392
#     4  11  23  40  64  95 130 169 216 269 327 391
#     4  11  22  39  63  93 130 170 215 263 320 391
#     4  11  25  45  69  99 134 171 219 276 332 392
#     4  11  27  49  71  99 131 174 229 282 338 396
#     4  12  24  39  61  93 132 173 215 263 322 390
#
# _framework density 20.865500999999998
#
# number of rings (size 3 to 8) (size 9 to 14) (size 15 to 20)
#    0.000    1.000    2.500    3.375    3.500    5.000 
#    0.000    0.000    0.000    0.000    0.000    0.000 
#    0.000    0.000    0.000    0.000    0.000    0.000 
#
# Total GULP energy -793692.638870 kJ/mol
# GULP energy per Si atom -12401.447482 kJ/mol
# Density = 2.081801 g / cm^3
# Si number density = 20.865501 Si / 1000 Ang^3
#
#
#
# Elastic Constant Matrix: (Units=GPa)
#
#
# Indices 1 2 3 4 5 6 
#
# 1 132.3971 37.6052 50.6577 0.0000 0.0000 0.0000
# 2 37.6052 96.3755 51.7960 0.0000 0.0000 0.0000
# 3 50.6577 51.7960 122.6289 0.0000 0.0000 0.0000
# 4 0.0000 0.0000 0.0000 34.4506 0.0000 0.0000
# 5 0.0000 0.0000 0.0000 0.0000 34.4729 0.0000
# 6 0.0000 0.0000 0.0000 0.0000 0.0000 32.7693
#
#
#
# Elastic Compliance Matrix: (Units=1/GPa)
#
#
# Indices 1 2 3 4 5 6 
#
# 1 0.009264 -0.002016 -0.002976 0.000000 0.000000 0.000000
# 2 -0.002016 0.013862 -0.005022 0.000000 0.000000 0.000000
# 3 -0.002976 -0.005022 0.011505 0.000000 0.000000 0.000000
# 4 0.000000 0.000000 0.000000 0.029027 0.000000 0.000000
# 5 0.000000 0.000000 0.000000 0.000000 0.029008 0.000000
# 6 0.000000 0.000000 0.000000 0.000000 0.000000 0.030516
#
#
# Mechanical properties :
#
#
# Convention : Reuss Voigt Hill
#
# Bulk Modulus (GPa) = 68.47419 70.16880 69.32150
# Shear Modulus (GPa) = 33.76604 34.42805 34.09705
#
# Velocity S-wave (km/s) = 4.02714 4.06642 4.04683
# Velocity P-wave (km/s) = 7.38322 7.46658 7.42502
#
# Compressibility (1/GPa) = 0.01460404
#
# Stress axis : x y z
#
# Youngs Moduli (GPa) = 107.94407 72.14106 86.91704
#
# Poissons Ratio (x) = 0.14540 0.25863
# Poissons Ratio (y) = 0.21757 0.43652
# Poissons Ratio (z) = 0.32120 0.36231
#
# Static dielectric constant tensor:
#      x y z
#    x 3.779060 0.000000 0.000000 
#    y 0.000000 3.847090 0.000000 
#    z 0.000000 0.000000 3.903560 
# 
# 
# High freq. dielectric constant tensor:
#      x y z
#    x 1.821160 0.000000 0.000000 
#    y 0.000000 1.825820 0.000000 
#    z 0.000000 0.000000 1.827460 
# 
# From -- ./inp_files/29917.got.cif
#   From: 2010.03.12/outbox.cif.g09.slc.cpg/sg62_15_cif.got.tgz:29917.got - 2010.04.10 19:12:36.
