data_PCOD8254765
_publ_section_title
;
Structure prediction by ZEFSAII (Michael W. Deem and Ramdas Pophale) SiO2 
 PCOD8254765
Probable space group: P N M A
;
_chemical_formula_sum "Si O2"
_cell_formula_units_Z 56
_cell_length_a 12.981377
_cell_length_b 14.006279
_cell_length_c 13.825297
_cell_angle_alpha 90.000000
_cell_angle_beta 90.000000
_cell_angle_gamma 90.000000
_cell_volume 2513.726396
_symmetry_space_group_name_H-M "P N M A"
_symmetry_group_IT_number 62
_symmetry_cell_setting 'orthorhombic'
loop_
_space_group_symop_operation_xyz
x,y,z
1/2-x,-y,1/2+z
1/2+x,1/2-y,1/2-z
-x,1/2+y,-z
-x,-y,-z
1/2+x,y,1/2-z
1/2-x,1/2+y,1/2+z
x,1/2-y,z
loop_
_atom_site_type_symbol
_atom_site_label
_atom_site_fract_x
_atom_site_fract_y
_atom_site_fract_z
Si Si1 0.588637 0.542407 0.186142
Si Si2 0.834540 0.359121 0.874733
Si Si3 0.697706 0.359364 0.204852
Si Si4 0.606509 0.862822 0.588475
Si Si5 0.777838 0.637636 0.100415
Si Si6 0.879741 0.859529 0.909429
Si Si7 0.615598 0.358357 0.798085
O O1 0.613463 0.571377 0.297065
O O2 0.604986 0.428592 0.170316
O O3 0.663742 0.596601 0.112626
O O4 0.471793 0.570530 0.162391
O O5 0.869549 0.250000 0.853504
O O6 0.711179 0.366712 0.870992
O O7 0.869668 0.395032 0.979294
O O8 0.674263 0.250000 0.172357
O O9 0.805366 0.400970 0.162331
O O10 0.700992 0.367788 0.321420
O O11 0.611971 0.750000 0.598040
O O12 0.493072 0.902953 0.616787
O O13 0.764118 0.750000 0.091808
O O14 0.849928 0.610312 0.190717
O O15 0.829855 0.591892 0.004457
O O16 0.900930 0.750000 0.936754
O O17 0.573060 0.250000 0.796221
#
# Coordination Sequence:
#
# PCOD8254765 Si02
#       7
#     8   8   8   8   8   8   8
#     4  11  20  32  53  81 114 147 176 219 275 325
#     4   9  18  33  56  85 111 136 173 220 275 342
#     4  10  23  39  52  73 106 146 195 236 260 300
#     4   9  18  37  61  79 104 144 183 223 272 319
#     4   9  18  33  56  87 116 138 172 222 276 339
#     4   9  18  35  58  80 105 141 183 226 269 314
#     4   9  17  31  52  81 114 140 165 212 283 347
#
# _framework density 22.277681999999999
#
# number of rings (size 3 to 8) (size 9 to 14) (size 15 to 20)
#    0.000    2.571    0.000    3.000    0.000    5.714 
#    0.000    4.286    0.000    6.857    0.000    0.000 
#    0.000    0.000    0.000    0.000    0.000    0.000 
#
# Total GULP energy -694226.181963 kJ/mol
# GULP energy per Si atom -12396.896106 kJ/mol
# Density = 2.222698 g / cm^3
# Si number density = 22.277682 Si / 1000 Ang^3
#
#
#
# Elastic Constant Matrix: (Units=GPa)
#
#
# Indices 1 2 3 4 5 6 
#
# 1 92.8475 14.6761 39.2656 0.0000 0.0000 0.0000
# 2 14.6761 67.7958 -1.9434 0.0000 0.0000 0.0000
# 3 39.2656 -1.9434 83.1813 0.0000 0.0000 0.0000
# 4 0.0000 0.0000 0.0000 0.9141 0.0000 0.0000
# 5 0.0000 0.0000 0.0000 0.0000 28.4072 0.0000
# 6 0.0000 0.0000 0.0000 0.0000 0.0000 23.3296
#
#
#
# Elastic Compliance Matrix: (Units=1/GPa)
#
#
# Indices 1 2 3 4 5 6 
#
# 1 0.014140 -0.003254 -0.006751 0.000000 0.000000 0.000000
# 2 -0.003254 0.015509 0.001899 0.000000 0.000000 0.000000
# 3 -0.006751 0.001899 0.015253 0.000000 0.000000 0.000000
# 4 0.000000 0.000000 0.000000 1.093970 0.000000 0.000000
# 5 0.000000 0.000000 0.000000 0.000000 0.035202 0.000000
# 6 0.000000 0.000000 0.000000 0.000000 0.000000 0.042864
#
#
# Mechanical properties :
#
#
# Convention : Reuss Voigt Hill
#
# Bulk Modulus (GPa) = 34.85686 38.64680 36.75183
# Shear Modulus (GPa) = 4.02345 23.31859 13.67102
#
# Velocity S-wave (km/s) = 1.34535 3.23882 2.47991
# Velocity P-wave (km/s) = 4.25368 5.60108 4.97322
#
# Compressibility (1/GPa) = 0.02868876
#
# Stress axis : x y z
#
# Youngs Moduli (GPa) = 70.72321 64.47832 65.56121
#
# Poissons Ratio (x) = 0.20984 0.44258
# Poissons Ratio (y) = 0.23016 -0.12447
# Poissons Ratio (z) = 0.47743 -0.12242
#
# Static dielectric constant tensor:
#      x y z
#    x 4.014260 0.000000 0.000000 
#    y 0.000000 3.989520 0.000000 
#    z 0.000000 0.000000 3.926870 
# 
# 
# High freq. dielectric constant tensor:
#      x y z
#    x 1.867530 0.000000 0.000000 
#    y 0.000000 1.880440 0.000000 
#    z 0.000000 0.000000 1.855930 
# 
# From -- ./inp_files/18082.got.cif
#   From: 2010.03.12/outbox.cif.g09.slc.cpg/sg62_10_cif.got.tgz:18082.got - 2010.04.10 19:12:36.
