data_PCOD8254110
_publ_section_title
;
Structure prediction by ZEFSAII (Michael W. Deem and Ramdas Pophale) SiO2 
 PCOD8254110
Probable space group: P N M A
;
_chemical_formula_sum "Si O2"
_cell_formula_units_Z 48
_cell_length_a 30.877691
_cell_length_b 8.451395
_cell_length_c 8.923405
_cell_angle_alpha 90.000000
_cell_angle_beta 90.000000
_cell_angle_gamma 90.000000
_cell_volume 2328.647872
_symmetry_space_group_name_H-M "P N M A"
_symmetry_group_IT_number 62
_symmetry_cell_setting 'orthorhombic'
loop_
_space_group_symop_operation_xyz
x,y,z
1/2-x,-y,1/2+z
1/2+x,1/2-y,1/2-z
-x,1/2+y,-z
-x,-y,-z
1/2+x,y,1/2-z
1/2-x,1/2+y,1/2+z
x,1/2-y,z
loop_
_atom_site_type_symbol
_atom_site_label
_atom_site_fract_x
_atom_site_fract_y
_atom_site_fract_z
Si Si1 0.790255 0.564199 0.403000
Si Si2 0.621246 0.065813 0.425072
Si Si3 0.959751 0.434111 0.090607
Si Si4 0.373090 0.937734 0.914488
Si Si5 0.542218 0.435708 0.920529
Si Si6 0.296738 0.432503 0.422004
O O1 0.794621 0.750000 0.367961
O O2 0.830314 0.500583 0.501833
O O3 0.746908 0.523448 0.491907
O O4 0.789368 0.465494 0.251663
O O5 0.608115 0.250000 0.429449
O O6 0.627506 0.002372 0.256356
O O7 0.583696 0.962464 0.498223
O O8 0.665316 0.042804 0.516064
O O9 0.966517 0.250000 0.121002
O O10 0.956656 0.522501 0.247323
O O11 0.000000 0.500000 0.000000
O O12 0.373440 0.750000 0.917034
O O13 0.415321 0.007419 0.998248
O O14 0.542352 0.250000 0.939541
O O15 0.500000 0.500000 0.000000
O O16 0.309317 0.250000 0.445622
#
# Coordination Sequence:
#
# PCOD8254110 Si02
#       6
#     8   8   8   8   8   8
#     4  10  21  39  61  85 117 158 202 248 301 360
#     4  11  22  40  64  89 121 161 201 246 304 365
#     4  12  25  42  63  91 124 160 206 256 308 365
#     4   9  20  38  61  86 114 154 202 247 295 357
#     4  11  22  39  63  91 123 162 207 253 304 362
#     4  11  23  38  59  90 122 155 201 252 302 361
#
# _framework density 20.612821
#
# number of rings (size 3 to 8) (size 9 to 14) (size 15 to 20)
#    0.000    1.333    0.000    6.000    0.000    5.333 
#    0.000    5.000    0.000    0.000    0.000    0.000 
#    0.000    0.000    0.000    0.000    0.000    0.000 
#
# Total GULP energy -595504.307609 kJ/mol
# GULP energy per Si atom -12406.339742 kJ/mol
# Density = 2.056591 g / cm^3
# Si number density = 20.612821 Si / 1000 Ang^3
#
#
#
# Elastic Constant Matrix: (Units=GPa)
#
#
# Indices 1 2 3 4 5 6 
#
# 1 159.1830 18.6730 62.0493 0.0000 0.0000 0.0000
# 2 18.6730 42.4454 7.4645 0.0000 0.0000 0.0000
# 3 62.0493 7.4645 155.9241 0.0000 0.0000 0.0000
# 4 0.0000 0.0000 0.0000 30.9171 0.0000 0.0000
# 5 0.0000 0.0000 0.0000 0.0000 48.2997 0.0000
# 6 0.0000 0.0000 0.0000 0.0000 0.0000 30.3010
#
#
#
# Elastic Compliance Matrix: (Units=1/GPa)
#
#
# Indices 1 2 3 4 5 6 
#
# 1 0.007774 -0.002900 -0.002955 0.000000 0.000000 0.000000
# 2 -0.002900 0.024842 -0.000035 0.000000 0.000000 0.000000
# 3 -0.002955 -0.000035 0.007591 0.000000 0.000000 0.000000
# 4 0.000000 0.000000 0.000000 0.032345 0.000000 0.000000
# 5 0.000000 0.000000 0.000000 0.000000 0.020704 0.000000
# 6 0.000000 0.000000 0.000000 0.000000 0.000000 0.033002
#
#
# Mechanical properties :
#
#
# Convention : Reuss Voigt Hill
#
# Bulk Modulus (GPa) = 35.17869 59.32512 47.25191
# Shear Modulus (GPa) = 33.89515 39.86126 36.87821
#
# Velocity S-wave (km/s) = 4.05949 4.40228 4.23435
# Velocity P-wave (km/s) = 6.25108 7.39481 6.84687
#
# Compressibility (1/GPa) = 0.02842630
#
# Stress axis : x y z
#
# Youngs Moduli (GPa) = 128.63232 40.25467 131.73649
#
# Poissons Ratio (x) = 0.11676 0.38926
# Poissons Ratio (y) = 0.37309 0.00462
# Poissons Ratio (z) = 0.38008 0.00141
#
# Static dielectric constant tensor:
#      x y z
#    x 4.009090 0.000000 0.000000 
#    y 0.000000 3.564830 0.000000 
#    z 0.000000 0.000000 4.010740 
# 
# 
# High freq. dielectric constant tensor:
#      x y z
#    x 1.826140 0.000000 0.000000 
#    y 0.000000 1.794020 0.000000 
#    z 0.000000 0.000000 1.825230 
# 
# From -- ./inp_files/10202.got.cif
#   From: 2010.03.12/outbox.cif.g09.slc.cpg/sg62_6_cif.got.tgz:10202.got - 2010.04.10 19:12:36.
