data_PCOD8254357
_publ_section_title
;
Structure prediction by ZEFSAII (Michael W. Deem and Ramdas Pophale) SiO2 
 PCOD8254357
Probable space group: P N M A
;
_chemical_formula_sum "Si O2"
_cell_formula_units_Z 64
_cell_length_a 16.521372
_cell_length_b 8.358723
_cell_length_c 22.229908
_cell_angle_alpha 90.000000
_cell_angle_beta 90.000000
_cell_angle_gamma 90.000000
_cell_volume 3069.896323
_symmetry_space_group_name_H-M "P N M A"
_symmetry_group_IT_number 62
_symmetry_cell_setting 'orthorhombic'
loop_
_space_group_symop_operation_xyz
x,y,z
1/2-x,-y,1/2+z
1/2+x,1/2-y,1/2-z
-x,1/2+y,-z
-x,-y,-z
1/2+x,y,1/2-z
1/2-x,1/2+y,1/2+z
x,1/2-y,z
loop_
_atom_site_type_symbol
_atom_site_label
_atom_site_fract_x
_atom_site_fract_y
_atom_site_fract_z
Si Si1 0.643412 0.562279 0.147296
Si Si2 0.420957 0.567403 0.733203
Si Si3 0.671111 0.933874 0.377681
Si Si4 0.095051 0.064366 0.763472
Si Si5 0.657253 0.933919 0.859146
Si Si6 0.320970 0.561009 0.383785
Si Si7 0.909069 0.559584 0.997274
Si Si8 0.991078 0.938371 0.433100
O O1 0.643658 0.750000 0.161295
O O2 0.635505 0.470180 0.210003
O O3 0.727408 0.507446 0.116855
O O4 0.571951 0.513528 0.102447
O O5 0.450379 0.750000 0.735580
O O6 0.369300 0.541410 0.673446
O O7 0.498646 0.453275 0.734516
O O8 0.651189 0.750000 0.364090
O O9 0.767123 0.958893 0.378516
O O10 0.635430 0.981555 0.441431
O O11 0.116397 0.250000 0.753487
O O12 0.133054 0.994985 0.824875
O O13 0.133015 0.964800 0.709398
O O14 0.681457 0.750000 0.867200
O O15 0.583545 0.973207 0.902855
O O16 0.329097 0.750000 0.383899
O O17 0.363555 0.493443 0.443420
O O18 0.905576 0.750000 0.992363
O O19 0.000000 0.500000 0.000000
O O20 0.976057 0.750000 0.431313
O O21 0.000000 0.000000 0.500000
#
# Coordination Sequence:
#
# PCOD8254357 Si02
#       8
#     8   8   8   8   8   8   8   8
#     4  10  21  41  66  93 126 170 216 263 322 385
#     4  12  24  40  64  96 130 169 216 270 328 387
#     4  12  26  44  66  94 129 171 220 276 334 391
#     4  11  21  39  66  96 131 173 216 262 323 389
#     4  12  25  43  66  96 132 170 218 274 328 389
#     4   9  21  39  64  93 123 163 210 262 316 377
#     4  11  23  43  68  97 132 171 216 264 323 389
#     4  11  24  41  66  96 133 176 219 266 326 387
#
# _framework density 20.84761
#
# number of rings (size 3 to 8) (size 9 to 14) (size 15 to 20)
#    0.000    1.000    1.250    6.000    1.750    2.500 
#    0.000    3.750    0.000    0.000    0.000    0.000 
#    0.000    0.000    0.000    0.000    0.000    0.000 
#
# Total GULP energy -794061.303554 kJ/mol
# GULP energy per Si atom -12407.207868 kJ/mol
# Density = 2.080016 g / cm^3
# Si number density = 20.847610 Si / 1000 Ang^3
#
#
#
# Elastic Constant Matrix: (Units=GPa)
#
#
# Indices 1 2 3 4 5 6 
#
# 1 144.4294 11.1832 66.0583 0.0000 0.0000 0.0000
# 2 11.1832 64.4045 21.5776 0.0000 0.0000 0.0000
# 3 66.0583 21.5776 172.5157 0.0000 0.0000 0.0000
# 4 0.0000 0.0000 0.0000 27.1995 0.0000 0.0000
# 5 0.0000 0.0000 0.0000 0.0000 11.0113 0.0000
# 6 0.0000 0.0000 0.0000 0.0000 0.0000 28.4165
#
#
#
# Elastic Compliance Matrix: (Units=1/GPa)
#
#
# Indices 1 2 3 4 5 6 
#
# 1 0.008404 -0.000398 -0.003168 0.000000 0.000000 0.000000
# 2 -0.000398 0.016225 -0.001877 0.000000 0.000000 0.000000
# 3 -0.003168 -0.001877 0.007244 0.000000 0.000000 0.000000
# 4 0.000000 0.000000 0.000000 0.036765 0.000000 0.000000
# 5 0.000000 0.000000 0.000000 0.000000 0.090816 0.000000
# 6 0.000000 0.000000 0.000000 0.000000 0.000000 0.035191
#
#
# Mechanical properties :
#
#
# Convention : Reuss Voigt Hill
#
# Bulk Modulus (GPa) = 47.64840 64.33199 55.99020
# Shear Modulus (GPa) = 23.52652 32.16084 27.84368
#
# Velocity S-wave (km/s) = 3.36296 3.93194 3.65853
# Velocity P-wave (km/s) = 6.16316 7.17905 6.69041
#
# Compressibility (1/GPa) = 0.02098706
#
# Stress axis : x y z
#
# Youngs Moduli (GPa) = 118.99660 61.63402 138.03688
#
# Poissons Ratio (x) = 0.02452 0.43731
# Poissons Ratio (y) = 0.04734 0.25910
# Poissons Ratio (z) = 0.37699 0.11569
#
# Static dielectric constant tensor:
#      x y z
#    x 4.277420 0.000000 0.000000 
#    y 0.000000 3.738510 0.000000 
#    z 0.000000 0.000000 3.966500 
# 
# 
# High freq. dielectric constant tensor:
#      x y z
#    x 1.831190 0.000000 0.000000 
#    y 0.000000 1.810870 0.000000 
#    z 0.000000 0.000000 1.830840 
# 
# From -- ./inp_files/29873.got.cif
#   From: 2010.03.12/outbox.cif.g09.slc.cpg/sg62_15_cif.got.tgz:29873.got - 2010.04.10 19:12:36.
