data_PCOD8254395
_publ_section_title
;
Structure prediction by ZEFSAII (Michael W. Deem and Ramdas Pophale) SiO2 
 PCOD8254395
Probable space group: P N M A
;
_chemical_formula_sum "Si O2"
_cell_formula_units_Z 32
_cell_length_a 9.827535
_cell_length_b 21.625667
_cell_length_c 6.785161
_cell_angle_alpha 90.000000
_cell_angle_beta 90.000000
_cell_angle_gamma 90.000000
_cell_volume 1442.029907
_symmetry_space_group_name_H-M "P N M A"
_symmetry_group_IT_number 62
_symmetry_cell_setting 'orthorhombic'
loop_
_space_group_symop_operation_xyz
x,y,z
1/2-x,-y,1/2+z
1/2+x,1/2-y,1/2-z
-x,1/2+y,-z
-x,-y,-z
1/2+x,y,1/2-z
1/2-x,1/2+y,1/2+z
x,1/2-y,z
loop_
_atom_site_type_symbol
_atom_site_label
_atom_site_fract_x
_atom_site_fract_y
_atom_site_fract_z
Si Si1 0.695733 0.420731 0.277397
Si Si2 0.589659 0.368882 0.870005
Si Si3 0.707549 0.819473 0.081313
Si Si4 0.541358 0.000354 0.770788
O O1 0.728461 0.367011 0.428447
O O2 0.584263 0.471443 0.356806
O O3 0.829224 0.458634 0.223486
O O4 0.632330 0.388522 0.087462
O O5 0.449799 0.331591 0.876847
O O6 0.708085 0.325612 0.783774
O O7 0.571466 0.427973 0.723118
O O8 0.723567 0.750000 0.999023
O O9 0.500000 0.000000 0.000000
#
# Coordination Sequence:
#
# PCOD8254395 Si02
#       4
#     8   8   8   8
#     4  11  23  45  69 104 135 180 225 288 351 411
#     4  11  26  46  69 104 138 179 229 292 346 413
#     4  12  27  46  68  98 139 190 237 276 337 413
#     4  10  21  42  69 103 134 168 226 282 355 405
#
# _framework density 22.190940999999999
#
# number of rings (size 3 to 8) (size 9 to 14) (size 15 to 20)
#    0.000    1.000    5.000    2.250    7.000    3.000 
#    0.000    0.000    0.000    0.000    0.000    0.000 
#    0.000    0.000    0.000    0.000    0.000    0.000 
#
# Total GULP energy -396818.014787 kJ/mol
# GULP energy per Si atom -12400.562962 kJ/mol
# Density = 2.214043 g / cm^3
# Si number density = 22.190941 Si / 1000 Ang^3
#
#
#
# Elastic Constant Matrix: (Units=GPa)
#
#
# Indices 1 2 3 4 5 6 
#
# 1 168.2553 39.8880 24.8319 0.0000 0.0000 0.0000
# 2 39.8880 130.8826 10.3112 0.0000 0.0000 0.0000
# 3 24.8319 10.3112 23.3235 0.0000 0.0000 0.0000
# 4 0.0000 0.0000 0.0000 14.9684 0.0000 0.0000
# 5 0.0000 0.0000 0.0000 0.0000 37.7661 0.0000
# 6 0.0000 0.0000 0.0000 0.0000 0.0000 15.4589
#
#
#
# Elastic Compliance Matrix: (Units=1/GPa)
#
#
# Indices 1 2 3 4 5 6 
#
# 1 0.007396 -0.001693 -0.007126 0.000000 0.000000 0.000000
# 2 -0.001693 0.008304 -0.001869 0.000000 0.000000 0.000000
# 3 -0.007126 -0.001869 0.051289 0.000000 0.000000 0.000000
# 4 0.000000 0.000000 0.000000 0.066808 0.000000 0.000000
# 5 0.000000 0.000000 0.000000 0.000000 0.026479 0.000000
# 6 0.000000 0.000000 0.000000 0.000000 0.000000 0.064688
#
#
# Mechanical properties :
#
#
# Convention : Reuss Voigt Hill
#
# Bulk Modulus (GPa) = 21.92362 52.50262 37.21312
# Shear Modulus (GPa) = 19.11734 30.13402 24.62568
#
# Velocity S-wave (km/s) = 2.93830 3.68902 3.33486
# Velocity P-wave (km/s) = 4.62736 6.46963 5.62444
#
# Compressibility (1/GPa) = 0.04561290
#
# Stress axis : x y z
#
# Youngs Moduli (GPa) = 135.20128 120.43065 19.49746
#
# Poissons Ratio (x) = 0.20385 0.13895
# Poissons Ratio (y) = 0.22886 0.03644
# Poissons Ratio (z) = 0.96350 0.22506
#
# Static dielectric constant tensor:
#      x y z
#    x 4.695490 0.000000 0.000000 
#    y 0.000000 4.085880 0.000000 
#    z 0.000000 0.000000 3.933330 
# 
# 
# High freq. dielectric constant tensor:
#      x y z
#    x 1.895230 0.000000 0.000000 
#    y 0.000000 1.876730 0.000000 
#    z 0.000000 0.000000 1.869840 
# 
# From -- ./inp_files/4117.got.cif
#   From: 2010.03.12/outbox.cif.g09.slc.cpg/sg62_3_cif.got.tgz:4117.got - 2010.04.10 19:12:36.
