data_PCOD8254955
_publ_section_title
;
Structure prediction by ZEFSAII (Michael W. Deem and Ramdas Pophale) SiO2 
 PCOD8254955
Probable space group: P N M A
;
_chemical_formula_sum "Si O2"
_cell_formula_units_Z 56
_cell_length_a 9.387329
_cell_length_b 14.373930
_cell_length_c 18.514896
_cell_angle_alpha 90.000000
_cell_angle_beta 90.000000
_cell_angle_gamma 90.000000
_cell_volume 2498.266943
_symmetry_space_group_name_H-M "P N M A"
_symmetry_group_IT_number 62
_symmetry_cell_setting 'orthorhombic'
loop_
_space_group_symop_operation_xyz
x,y,z
1/2-x,-y,1/2+z
1/2+x,1/2-y,1/2-z
-x,1/2+y,-z
-x,-y,-z
1/2+x,y,1/2-z
1/2-x,1/2+y,1/2+z
x,1/2-y,z
loop_
_atom_site_type_symbol
_atom_site_label
_atom_site_fract_x
_atom_site_fract_y
_atom_site_fract_z
Si Si1 0.611676 0.860910 0.678263
Si Si2 0.954293 0.145096 0.014937
Si Si3 0.840054 0.603270 0.467335
Si Si4 0.533502 0.653267 0.907183
Si Si5 0.592645 0.455899 0.215092
Si Si6 0.068879 0.643790 0.353684
Si Si7 0.742905 0.905341 0.011240
O O1 0.608570 0.750000 0.694367
O O2 0.605314 0.882454 0.593406
O O3 0.478176 0.915733 0.712609
O O4 0.754304 0.907423 0.709106
O O5 0.013281 0.250000 0.013820
O O6 0.824628 0.134313 0.958700
O O7 0.086940 0.080258 0.991104
O O8 0.846495 0.498437 0.496318
O O9 0.918932 0.661804 0.528535
O O10 0.916989 0.620418 0.390867
O O11 0.518421 0.750000 0.862430
O O12 0.507508 0.569121 0.853043
O O13 0.691072 0.655679 0.942973
O O14 0.599327 0.569352 0.211373
O O15 0.067740 0.750000 0.323127
O O16 0.196868 0.635529 0.411686
#
# Coordination Sequence:
#
# PCOD8254955 Si02
#       7
#     8   8   8   8   8   8   8
#     4  11  25  42  63  90 125 166 209 261 318 374
#     4  11  22  36  56  91 129 161 202 256 318 374
#     4  11  19  36  59  89 126 163 202 250 312 375
#     4  11  19  34  58  82 117 158 196 243 301 365
#     4  12  24  43  62  90 125 162 213 257 306 373
#     4  11  22  41  66  93 124 166 212 255 310 382
#     4  11  20  35  57  93 128 162 201 254 315 373
#
# _framework density 22.415538999999999
#
# number of rings (size 3 to 8) (size 9 to 14) (size 15 to 20)
#    0.000    0.857    4.286    6.000    2.000    0.000 
#    0.000    0.714    0.000    0.000    0.000    0.000 
#    0.000    0.000    0.000    0.000    0.000    0.000 
#
# Total GULP energy -694124.566401 kJ/mol
# GULP energy per Si atom -12395.081543 kJ/mol
# Density = 2.236452 g / cm^3
# Si number density = 22.415539 Si / 1000 Ang^3
#
#
#
# Elastic Constant Matrix: (Units=GPa)
#
#
# Indices 1 2 3 4 5 6 
#
# 1 150.9811 17.3174 20.9403 0.0000 0.0000 0.0000
# 2 17.3174 150.3492 18.9427 0.0000 0.0000 0.0000
# 3 20.9403 18.9427 33.6798 0.0000 0.0000 0.0000
# 4 0.0000 0.0000 0.0000 12.4106 0.0000 0.0000
# 5 0.0000 0.0000 0.0000 0.0000 19.5761 0.0000
# 6 0.0000 0.0000 0.0000 0.0000 0.0000 11.5757
#
#
#
# Elastic Compliance Matrix: (Units=1/GPa)
#
#
# Indices 1 2 3 4 5 6 
#
# 1 0.007260 -0.000288 -0.004352 0.000000 0.000000 0.000000
# 2 -0.000288 0.007170 -0.003854 0.000000 0.000000 0.000000
# 3 -0.004352 -0.003854 0.034565 0.000000 0.000000 0.000000
# 4 0.000000 0.000000 0.000000 0.080576 0.000000 0.000000
# 5 0.000000 0.000000 0.000000 0.000000 0.051083 0.000000
# 6 0.000000 0.000000 0.000000 0.000000 0.000000 0.086388
#
#
# Mechanical properties :
#
#
# Convention : Reuss Voigt Hill
#
# Bulk Modulus (GPa) = 31.24262 49.93454 40.58858
# Shear Modulus (GPa) = 16.96654 27.23312 22.09983
#
# Velocity S-wave (km/s) = 2.75418 3.48935 3.14334
# Velocity P-wave (km/s) = 4.90736 6.20961 5.59649
#
# Compressibility (1/GPa) = 0.03200756
#
# Stress axis : x y z
#
# Youngs Moduli (GPa) = 137.74193 139.47267 28.93138
#
# Poissons Ratio (x) = 0.04015 0.12591
# Poissons Ratio (y) = 0.03966 0.11149
# Poissons Ratio (z) = 0.59944 0.53747
#
# Static dielectric constant tensor:
#      x y z
#    x 3.947270 0.000000 0.000000 
#    y 0.000000 4.277200 0.000000 
#    z 0.000000 0.000000 3.594180 
# 
# 
# High freq. dielectric constant tensor:
#      x y z
#    x 1.888070 0.000000 0.000000 
#    y 0.000000 1.902150 0.000000 
#    z 0.000000 0.000000 1.830910 
# 
# From -- ./inp_files/26008.got.cif
#   From: 2010.03.12/outbox.cif.g09.slc.cpg/sg62_14_cif.got.tgz:26008.got - 2010.04.10 19:12:36.
