data_PCOD8254216
_publ_section_title
;
Structure prediction by ZEFSAII (Michael W. Deem and Ramdas Pophale) SiO2 
 PCOD8254216
Probable space group: P N M A
;
_chemical_formula_sum "Si O2"
_cell_formula_units_Z 40
_cell_length_a 18.254316
_cell_length_b 9.608684
_cell_length_c 11.158101
_cell_angle_alpha 90.000000
_cell_angle_beta 90.000000
_cell_angle_gamma 90.000000
_cell_volume 1957.130403
_symmetry_space_group_name_H-M "P N M A"
_symmetry_group_IT_number 62
_symmetry_cell_setting 'orthorhombic'
loop_
_space_group_symop_operation_xyz
x,y,z
1/2-x,-y,1/2+z
1/2+x,1/2-y,1/2-z
-x,1/2+y,-z
-x,-y,-z
1/2+x,y,1/2-z
1/2-x,1/2+y,1/2+z
x,1/2-y,z
loop_
_atom_site_type_symbol
_atom_site_label
_atom_site_fract_x
_atom_site_fract_y
_atom_site_fract_z
Si Si1 0.628467 0.049032 0.106623
Si Si2 0.915021 0.750000 0.410199
Si Si3 0.083584 0.750000 0.452858
Si Si4 0.949521 0.750000 0.773988
Si Si5 0.694336 0.250000 0.718708
Si Si6 0.185765 0.250000 0.065390
Si Si7 0.238368 0.549840 0.736654
Si Si8 0.389681 0.250000 0.232475
O O1 0.566538 0.112285 0.194702
O O2 0.707574 0.095606 0.155916
O O3 0.624516 0.882967 0.101395
O O4 0.616303 0.111684 0.974779
O O5 0.887446 0.750000 0.273649
O O6 0.001491 0.750000 0.406518
O O7 0.085194 0.750000 0.595239
O O8 0.898936 0.750000 0.892653
O O9 0.035482 0.750000 0.810876
O O10 0.688256 0.250000 0.576555
O O11 0.736780 0.383692 0.770112
O O12 0.229364 0.386389 0.112909
O O13 0.158086 0.613086 0.763146
#
# Coordination Sequence:
#
# PCOD8254216 Si02
#       8
#     8   4   4   4   4   4   8   4
#     4  10  21  40  61  93 130 166 204 266 334 380
#     4  11  23  36  60 100 128 157 218 269 325 381
#     4  12  22  34  70  95 130 158 218 280 325 364
#     4   9  20  41  67  81 127 168 208 261 324 382
#     4  12  25  38  67  92 131 171 219 262 318 393
#     4   9  23  48  60  91 133 173 209 261 330 382
#     4  10  24  40  66  94 128 172 213 266 322 389
#     4  11  21  39  66  95 121 171 220 263 326 380
#
# _framework density 20.438086999999999
#
# number of rings (size 3 to 8) (size 9 to 14) (size 15 to 20)
#    0.000    1.600    2.000    4.200   11.200    0.000 
#    0.000    1.000    0.000    0.000    0.000    0.000 
#    0.000    0.000    0.000    0.000    0.000    0.000 
#
# Total GULP energy -495996.550069 kJ/mol
# GULP energy per Si atom -12399.913752 kJ/mol
# Density = 2.039157 g / cm^3
# Si number density = 20.438087 Si / 1000 Ang^3
#
#
#
# Elastic Constant Matrix: (Units=GPa)
#
#
# Indices 1 2 3 4 5 6 
#
# 1 153.7259 39.8743 45.4393 0.0000 0.0000 0.0000
# 2 39.8743 169.5093 43.8436 0.0000 0.0000 0.0000
# 3 45.4393 43.8436 111.7123 0.0000 0.0000 0.0000
# 4 0.0000 0.0000 0.0000 19.7596 0.0000 0.0000
# 5 0.0000 0.0000 0.0000 0.0000 27.1976 0.0000
# 6 0.0000 0.0000 0.0000 0.0000 0.0000 22.6475
#
#
#
# Elastic Compliance Matrix: (Units=1/GPa)
#
#
# Indices 1 2 3 4 5 6 
#
# 1 0.007573 -0.001096 -0.002650 0.000000 0.000000 0.000000
# 2 -0.001096 0.006724 -0.002193 0.000000 0.000000 0.000000
# 3 -0.002650 -0.002193 0.010890 0.000000 0.000000 0.000000
# 4 0.000000 0.000000 0.000000 0.050608 0.000000 0.000000
# 5 0.000000 0.000000 0.000000 0.000000 0.036768 0.000000
# 6 0.000000 0.000000 0.000000 0.000000 0.000000 0.044155
#
#
# Mechanical properties :
#
#
# Convention : Reuss Voigt Hill
#
# Bulk Modulus (GPa) = 75.13869 77.02910 76.08390
# Shear Modulus (GPa) = 28.89612 34.30698 31.60155
#
# Velocity S-wave (km/s) = 3.76418 4.10149 3.93645
# Velocity P-wave (km/s) = 7.46565 7.75890 7.61369
#
# Compressibility (1/GPa) = 0.01330872
#
# Stress axis : x y z
#
# Youngs Moduli (GPa) = 132.05360 148.71009 91.82447
#
# Poissons Ratio (x) = 0.16297 0.24334
# Poissons Ratio (y) = 0.14472 0.20141
# Poissons Ratio (z) = 0.34996 0.32618
#
# Static dielectric constant tensor:
#      x y z
#    x 3.815040 0.000000 0.000000 
#    y 0.000000 3.944440 0.000000 
#    z 0.000000 0.000000 3.455260 
# 
# 
# High freq. dielectric constant tensor:
#      x y z
#    x 1.805050 0.000000 0.000000 
#    y 0.000000 1.809800 0.000000 
#    z 0.000000 0.000000 1.768520 
# 
# From -- ./inp_files/13940.got.cif
#   From: 2010.03.12/outbox.cif.g09.slc.cpg/sg62_7_cif.got.tgz:13940.got - 2010.04.10 19:12:36.
