data_PCOD8254923
_publ_section_title
;
Structure prediction by ZEFSAII (Michael W. Deem and Ramdas Pophale) SiO2 
 PCOD8254923
Probable space group: P N M A
;
_chemical_formula_sum "Si O2"
_cell_formula_units_Z 48
_cell_length_a 8.766126
_cell_length_b 22.966851
_cell_length_c 10.970083
_cell_angle_alpha 90.000000
_cell_angle_beta 90.000000
_cell_angle_gamma 90.000000
_cell_volume 2208.610208
_symmetry_space_group_name_H-M "P N M A"
_symmetry_group_IT_number 62
_symmetry_cell_setting 'orthorhombic'
loop_
_space_group_symop_operation_xyz
x,y,z
1/2-x,-y,1/2+z
1/2+x,1/2-y,1/2-z
-x,1/2+y,-z
-x,-y,-z
1/2+x,y,1/2-z
1/2-x,1/2+y,1/2+z
x,1/2-y,z
loop_
_atom_site_type_symbol
_atom_site_label
_atom_site_fract_x
_atom_site_fract_y
_atom_site_fract_z
Si Si1 0.823660 0.449450 0.604292
Si Si2 0.326561 0.147018 0.580158
Si Si3 0.647304 0.877342 0.872259
Si Si4 0.581508 0.111638 0.750966
Si Si5 0.688320 0.416528 0.126302
Si Si6 0.380777 0.250000 0.404404
Si Si7 0.237495 0.250000 0.147004
O O1 0.787484 0.423794 0.470376
O O2 0.970609 0.414452 0.648750
O O3 0.679119 0.440107 0.691526
O O4 0.864070 0.516831 0.615924
O O5 0.490567 0.144047 0.644106
O O6 0.284786 0.090594 0.499055
O O7 0.329491 0.196270 0.482065
O O8 0.196111 0.156992 0.682941
O O9 0.463876 0.877419 0.868162
O O10 0.710249 0.898626 0.742066
O O11 0.695566 0.810724 0.908327
O O12 0.273688 0.250000 0.288515
O O13 0.556839 0.250000 0.369845
#
# Coordination Sequence:
#
# PCOD8254923 Si02
#       7
#     8   8   8   8   8   4   4
#     4  11  24  44  69 101 143 183 239 290 359 424
#     4  11  25  45  68  99 138 180 237 286 354 417
#     4  12  26  44  70 104 141 188 237 294 364 415
#     4  10  24  45  67  98 136 188 227 290 347 426
#     4  12  26  42  68 106 140 184 234 298 358 426
#     4  12  26  46  70 101 141 177 237 293 345 428
#     4  12  26  46  72 105 145 185 237 291 355 424
#
# _framework density 21.733122999999999
#
# number of rings (size 3 to 8) (size 9 to 14) (size 15 to 20)
#    0.000    0.667    3.333    3.500    7.000    1.333 
#    0.000    3.333    0.000    0.000    0.000    0.000 
#    0.000    0.000    0.000    0.000    0.000    0.000 
#
# Total GULP energy -595112.110462 kJ/mol
# GULP energy per Si atom -12398.168968 kJ/mol
# Density = 2.168366 g / cm^3
# Si number density = 21.733123 Si / 1000 Ang^3
#
#
#
# Elastic Constant Matrix: (Units=GPa)
#
#
# Indices 1 2 3 4 5 6 
#
# 1 118.9465 22.3418 47.4655 0.0000 0.0000 0.0000
# 2 22.3418 91.4377 18.6149 0.0000 0.0000 0.0000
# 3 47.4655 18.6149 109.0088 0.0000 0.0000 0.0000
# 4 0.0000 0.0000 0.0000 39.3748 0.0000 0.0000
# 5 0.0000 0.0000 0.0000 0.0000 36.5236 0.0000
# 6 0.0000 0.0000 0.0000 0.0000 0.0000 2.6171
#
#
#
# Elastic Compliance Matrix: (Units=1/GPa)
#
#
# Indices 1 2 3 4 5 6 
#
# 1 0.010419 -0.001681 -0.004250 0.000000 0.000000 0.000000
# 2 -0.001681 0.011601 -0.001249 0.000000 0.000000 0.000000
# 3 -0.004250 -0.001249 0.011237 0.000000 0.000000 0.000000
# 4 0.000000 0.000000 0.000000 0.025397 0.000000 0.000000
# 5 0.000000 0.000000 0.000000 0.000000 0.027380 0.000000
# 6 0.000000 0.000000 0.000000 0.000000 0.000000 0.382106
#
#
# Mechanical properties :
#
#
# Convention : Reuss Voigt Hill
#
# Bulk Modulus (GPa) = 52.91472 55.13749 54.02611
# Shear Modulus (GPa) = 10.22917 31.10115 20.66516
#
# Velocity S-wave (km/s) = 2.17185 3.78702 3.08695
# Velocity P-wave (km/s) = 5.53982 6.67438 6.13339
#
# Compressibility (1/GPa) = 0.01889833
#
# Stress axis : x y z
#
# Youngs Moduli (GPa) = 95.98230 86.19667 88.98932
#
# Poissons Ratio (x) = 0.14486 0.37817
# Poissons Ratio (y) = 0.16130 0.11118
# Poissons Ratio (z) = 0.40788 0.10769
#
# Static dielectric constant tensor:
#      x y z
#    x 4.124170 0.000000 0.000000 
#    y 0.000000 3.951600 0.000000 
#    z 0.000000 0.000000 4.160450 
# 
# 
# High freq. dielectric constant tensor:
#      x y z
#    x 1.869430 0.000000 0.000000 
#    y 0.000000 1.842640 0.000000 
#    z 0.000000 0.000000 1.873030 
# 
# From -- ./inp_files/11342.got.cif
#   From: 2010.03.12/outbox.cif.g09.slc.cpg/sg62_6_cif.got.tgz:11342.got - 2010.04.10 19:12:36.
