data_PCOD8254799
_publ_section_title
;
Structure prediction by ZEFSAII (Michael W. Deem and Ramdas Pophale) SiO2 
 PCOD8254799
Probable space group: P N M A
;
_chemical_formula_sum "Si O2"
_cell_formula_units_Z 64
_cell_length_a 10.887645
_cell_length_b 29.852310
_cell_length_c 9.038739
_cell_angle_alpha 90.000000
_cell_angle_beta 90.000000
_cell_angle_gamma 90.000000
_cell_volume 2937.783186
_symmetry_space_group_name_H-M "P N M A"
_symmetry_group_IT_number 62
_symmetry_cell_setting 'orthorhombic'
loop_
_space_group_symop_operation_xyz
x,y,z
1/2-x,-y,1/2+z
1/2+x,1/2-y,1/2-z
-x,1/2+y,-z
-x,-y,-z
1/2+x,y,1/2-z
1/2-x,1/2+y,1/2+z
x,1/2-y,z
loop_
_atom_site_type_symbol
_atom_site_label
_atom_site_fract_x
_atom_site_fract_y
_atom_site_fract_z
Si Si1 0.519711 0.299819 0.360819
Si Si2 0.918883 0.366293 0.723546
Si Si3 0.604493 0.124330 0.526921
Si Si4 0.786686 0.198306 0.929191
Si Si5 0.283841 0.445748 0.857618
Si Si6 0.559098 0.069860 0.258208
Si Si7 0.048084 0.344910 0.433021
Si Si8 0.187440 0.519964 0.670505
O O1 0.571751 0.250000 0.359852
O O2 0.628076 0.330275 0.432691
O O3 0.397071 0.305125 0.455522
O O4 0.487201 0.315393 0.195675
O O5 0.811499 0.334290 0.788876
O O6 0.894761 0.420576 0.725606
O O7 0.947929 0.348295 0.561089
O O8 0.038015 0.361799 0.823873
O O9 0.728514 0.099073 0.566673
O O10 0.526352 0.092330 0.416132
O O11 0.768323 0.250000 0.877033
O O12 0.668092 0.180324 0.011722
O O13 0.196660 0.469598 0.736639
O O14 0.318438 0.479979 0.990790
O O15 0.578803 0.105365 0.126926
O O16 0.687905 0.043236 0.270237
O O17 0.441286 0.039029 0.227605
#
# Coordination Sequence:
#
# PCOD8254799 Si02
#       8
#     8   8   8   8   8   8   8   8
#     4   9  20  40  67  95 125 169 223 276 331 404
#     4  11  23  41  63  92 131 174 216 275 338 410
#     4   9  22  40  63  88 132 173 215 264 342 395
#     4  10  23  41  64  96 130 172 218 274 343 414
#     4  11  25  42  63  95 130 172 223 278 340 398
#     4  10  24  43  68  98 132 180 225 288 334 405
#     4  11  22  39  68  95 136 171 225 273 347 406
#     4  11  26  43  66  98 136 172 235 280 341 410
#
# _framework density 21.785133999999999
#
# number of rings (size 3 to 8) (size 9 to 14) (size 15 to 20)
#    0.000    1.750    1.250    1.125    8.750    4.500 
#    0.000    3.125    0.000    0.000    0.000    0.000 
#    0.000    0.000    0.000    0.000    0.000    0.000 
#
# Total GULP energy -793144.187086 kJ/mol
# GULP energy per Si atom -12392.877923 kJ/mol
# Density = 2.173555 g / cm^3
# Si number density = 21.785134 Si / 1000 Ang^3
#
#
#
# Elastic Constant Matrix: (Units=GPa)
#
#
# Indices 1 2 3 4 5 6 
#
# 1 67.2775 24.8919 10.8175 0.0000 0.0000 0.0000
# 2 24.8919 96.2890 41.5390 0.0000 0.0000 0.0000
# 3 10.8175 41.5390 111.3413 0.0000 0.0000 0.0000
# 4 0.0000 0.0000 0.0000 34.1782 0.0000 0.0000
# 5 0.0000 0.0000 0.0000 0.0000 16.3064 0.0000
# 6 0.0000 0.0000 0.0000 0.0000 0.0000 30.8223
#
#
#
# Elastic Compliance Matrix: (Units=1/GPa)
#
#
# Indices 1 2 3 4 5 6 
#
# 1 0.016436 -0.004243 -0.000014 0.000000 0.000000 0.000000
# 2 -0.004243 0.013473 -0.004614 0.000000 0.000000 0.000000
# 3 -0.000014 -0.004614 0.010704 0.000000 0.000000 0.000000
# 4 0.000000 0.000000 0.000000 0.029258 0.000000 0.000000
# 5 0.000000 0.000000 0.000000 0.000000 0.061326 0.000000
# 6 0.000000 0.000000 0.000000 0.000000 0.000000 0.032444
#
#
# Mechanical properties :
#
#
# Convention : Reuss Voigt Hill
#
# Bulk Modulus (GPa) = 43.72368 47.71163 45.71765
# Shear Modulus (GPa) = 26.45412 29.43868 27.94640
#
# Velocity S-wave (km/s) = 3.48849 3.68002 3.58553
# Velocity P-wave (km/s) = 6.02827 6.32497 6.17840
#
# Compressibility (1/GPa) = 0.02287090
#
# Stress axis : x y z
#
# Youngs Moduli (GPa) = 60.84252 74.22370 93.42137
#
# Poissons Ratio (x) = 0.31492 0.00130
# Poissons Ratio (y) = 0.25815 0.43106
# Poissons Ratio (z) = 0.00085 0.34248
#
# Static dielectric constant tensor:
#      x y z
#    x 3.671040 0.000000 0.000000 
#    y 0.000000 4.271740 0.000000 
#    z 0.000000 0.000000 4.257500 
# 
# 
# High freq. dielectric constant tensor:
#      x y z
#    x 1.839150 0.000000 0.000000 
#    y 0.000000 1.863310 0.000000 
#    z 0.000000 0.000000 1.872480 
# 
# From -- ./inp_files/5545.got.cif
#   From: 2010.03.12/outbox.cif.g09.slc.cpg/sg62_3_cif.got.tgz:5545.got - 2010.04.10 19:12:36.
