data_PCOD8254998
_publ_section_title
;
Structure prediction by ZEFSAII (Michael W. Deem and Ramdas Pophale) SiO2 
 PCOD8254998
Probable space group: P N M A
;
_chemical_formula_sum "Si O2"
_cell_formula_units_Z 56
_cell_length_a 13.487145
_cell_length_b 8.990006
_cell_length_c 29.595628
_cell_angle_alpha 90.000000
_cell_angle_beta 90.000000
_cell_angle_gamma 90.000000
_cell_volume 3588.455526
_symmetry_space_group_name_H-M "P N M A"
_symmetry_group_IT_number 62
_symmetry_cell_setting 'orthorhombic'
loop_
_space_group_symop_operation_xyz
x,y,z
1/2-x,-y,1/2+z
1/2+x,1/2-y,1/2-z
-x,1/2+y,-z
-x,-y,-z
1/2+x,y,1/2-z
1/2-x,1/2+y,1/2+z
x,1/2-y,z
loop_
_atom_site_type_symbol
_atom_site_label
_atom_site_fract_x
_atom_site_fract_y
_atom_site_fract_z
Si Si1 0.394097 0.924662 0.996425
Si Si2 0.107315 0.076062 0.594668
Si Si3 0.404102 0.421092 0.730659
Si Si4 0.778475 0.076700 0.682547
Si Si5 0.393618 0.074547 0.268319
Si Si6 0.203710 0.075300 0.684612
Si Si7 0.616572 0.574183 0.091181
O O1 0.405484 0.750000 0.988026
O O2 0.336482 0.998574 0.954068
O O3 0.342907 0.956843 0.045435
O O4 0.500000 0.000000 0.000000
O O5 0.097438 0.250000 0.602349
O O6 0.176713 0.012844 0.634706
O O7 0.995300 0.011903 0.598144
O O8 0.438015 0.250000 0.727267
O O9 0.363413 0.456774 0.780686
O O10 0.495395 0.526790 0.718879
O O11 0.318803 0.458323 0.694111
O O12 0.750408 0.250000 0.683809
O O13 0.817835 0.025946 0.633800
O O14 0.679942 0.983966 0.692886
O O15 0.386106 0.250000 0.265943
O O16 0.366714 0.007052 0.219885
O O17 0.182398 0.250000 0.690333
O O18 0.617419 0.750000 0.084190
#
# Coordination Sequence:
#
# PCOD8254998 Si02
#       7
#     8   8   8   8   8   8   8
#     4   9  16  26  40  60  88 117 143 173 211 256
#     4   8  14  26  44  64  85 111 143 175 207 247
#     4   9  17  30  47  63  81 110 146 180 211 247
#     4   9  18  32  49  65  83 114 153 183 208 251
#     4  11  21  30  42  63  92 117 138 174 220 260
#     4   9  17  31  49  64  81 112 153 184 207 246
#     4   9  16  27  44  65  88 113 142 177 214 253
#
# _framework density 15.605600000000001
#
# number of rings (size 3 to 8) (size 9 to 14) (size 15 to 20)
#    0.000    2.857    0.000    4.286    0.000    5.143 
#    0.000    6.429    0.000    0.000    0.000    1.000 
#    0.000    0.000    0.000    0.000    0.000    0.000 
#
# Total GULP energy -694072.366917 kJ/mol
# GULP energy per Si atom -12394.149409 kJ/mol
# Density = 1.557008 g / cm^3
# Si number density = 15.605600 Si / 1000 Ang^3
#
#
#
# Elastic Constant Matrix: (Units=GPa)
#
#
# Indices 1 2 3 4 5 6 
#
# 1 81.9519 38.1773 58.0304 0.0000 0.0000 0.0000
# 2 38.1773 60.0748 44.6882 0.0000 0.0000 0.0000
# 3 58.0304 44.6882 156.9283 0.0000 0.0000 0.0000
# 4 0.0000 0.0000 0.0000 23.1275 0.0000 0.0000
# 5 0.0000 0.0000 0.0000 0.0000 22.3278 0.0000
# 6 0.0000 0.0000 0.0000 0.0000 0.0000 12.8807
#
#
#
# Elastic Compliance Matrix: (Units=1/GPa)
#
#
# Indices 1 2 3 4 5 6 
#
# 1 0.019766 -0.009039 -0.004735 0.000000 0.000000 0.000000
# 2 -0.009039 0.025253 -0.003849 0.000000 0.000000 0.000000
# 3 -0.004735 -0.003849 0.009219 0.000000 0.000000 0.000000
# 4 0.000000 0.000000 0.000000 0.043238 0.000000 0.000000
# 5 0.000000 0.000000 0.000000 0.000000 0.044787 0.000000
# 6 0.000000 0.000000 0.000000 0.000000 0.000000 0.077635
#
#
# Mechanical properties :
#
#
# Convention : Reuss Voigt Hill
#
# Bulk Modulus (GPa) = 52.65173 64.52742 58.58957
# Shear Modulus (GPa) = 19.12217 22.20448 20.66332
#
# Velocity S-wave (km/s) = 3.50428 3.77616 3.64276
# Velocity P-wave (km/s) = 7.08418 7.77504 7.43763
#
# Compressibility (1/GPa) = 0.01899273
#
# Stress axis : x y z
#
# Youngs Moduli (GPa) = 50.59157 39.59907 108.46644
#
# Poissons Ratio (x) = 0.35793 0.51363
# Poissons Ratio (y) = 0.45729 0.41747
# Poissons Ratio (z) = 0.23957 0.15241
#
# Static dielectric constant tensor:
#      x y z
#    x 2.753430 0.000000 0.000000 
#    y 0.000000 2.876780 0.000000 
#    z 0.000000 0.000000 3.449460 
# 
# 
# High freq. dielectric constant tensor:
#      x y z
#    x 1.564100 0.000000 0.000000 
#    y 0.000000 1.586990 0.000000 
#    z 0.000000 0.000000 1.603630 
# 
# From -- ./inp_files/32657.got.cif
#   From: 2010.03.12/outbox.cif.g09.slc.cpg/sg62_17_cif.got.tgz:32657.got - 2010.04.10 19:12:36.
