data_PCOD8254425
_publ_section_title
;
Structure prediction by ZEFSAII (Michael W. Deem and Ramdas Pophale) SiO2 
 PCOD8254425
Probable space group: P N M A
;
_chemical_formula_sum "Si O2"
_cell_formula_units_Z 56
_cell_length_a 10.734906
_cell_length_b 22.600987
_cell_length_c 11.735205
_cell_angle_alpha 90.000000
_cell_angle_beta 90.000000
_cell_angle_gamma 90.000000
_cell_volume 2847.189229
_symmetry_space_group_name_H-M "P N M A"
_symmetry_group_IT_number 62
_symmetry_cell_setting 'orthorhombic'
loop_
_space_group_symop_operation_xyz
x,y,z
1/2-x,-y,1/2+z
1/2+x,1/2-y,1/2-z
-x,1/2+y,-z
-x,-y,-z
1/2+x,y,1/2-z
1/2-x,1/2+y,1/2+z
x,1/2-y,z
loop_
_atom_site_type_symbol
_atom_site_label
_atom_site_fract_x
_atom_site_fract_y
_atom_site_fract_z
Si Si1 0.618912 0.086425 0.681936
Si Si2 0.017568 0.183352 0.986930
Si Si3 0.837367 0.056977 0.510061
Si Si4 0.290327 0.372991 0.396523
Si Si5 0.986803 0.472562 0.124681
Si Si6 0.882314 0.927734 0.430738
Si Si7 0.691106 0.124415 0.343235
O O1 0.545131 0.139208 0.618450
O O2 0.734840 0.064660 0.607976
O O3 0.660341 0.101829 0.810274
O O4 0.527908 0.029810 0.704902
O O5 0.026316 0.250000 0.940308
O O6 0.117724 0.174829 0.087718
O O7 0.881203 0.173192 0.040720
O O8 0.814477 0.105402 0.411627
O O9 0.969533 0.070629 0.564080
O O10 0.826172 0.992685 0.452443
O O11 0.363017 0.433336 0.370626
O O12 0.170973 0.383631 0.475063
O O13 0.233822 0.348918 0.277541
O O14 0.104397 0.434401 0.165954
O O15 0.000000 0.500000 0.000000
#
# Coordination Sequence:
#
# PCOD8254425 Si02
#       7
#     8   8   8   8   8   8   8
#     4  11  22  39  62  86 128 164 203 254 309 368
#     4  10  24  45  66  86 113 167 222 257 306 359
#     4  10  22  36  54  94 130 159 195 241 309 382
#     4  11  22  37  63  93 125 157 199 255 312 377
#     4  11  18  35  57  90 123 162 194 238 311 380
#     4  11  24  33  58  93 130 161 194 244 307 380
#     4  10  22  37  63  90 126 157 202 255 313 369
#
# _framework density 19.668520999999998
#
# number of rings (size 3 to 8) (size 9 to 14) (size 15 to 20)
#    0.000    1.429    5.714    0.857   10.000    0.571 
#    0.000    0.714    0.000    0.857    0.000    0.000 
#    0.000    0.000    0.000    0.000    0.000    0.000 
#
# Total GULP energy -694216.957797 kJ/mol
# GULP energy per Si atom -12396.731389 kJ/mol
# Density = 1.962375 g / cm^3
# Si number density = 19.668521 Si / 1000 Ang^3
#
#
#
# Elastic Constant Matrix: (Units=GPa)
#
#
# Indices 1 2 3 4 5 6 
#
# 1 74.9839 27.5256 33.8890 0.0000 0.0000 0.0000
# 2 27.5256 94.9281 18.7205 0.0000 0.0000 0.0000
# 3 33.8890 18.7205 131.7804 0.0000 0.0000 0.0000
# 4 0.0000 0.0000 0.0000 13.9573 0.0000 0.0000
# 5 0.0000 0.0000 0.0000 0.0000 21.8603 0.0000
# 6 0.0000 0.0000 0.0000 0.0000 0.0000 13.4065
#
#
#
# Elastic Compliance Matrix: (Units=1/GPa)
#
#
# Indices 1 2 3 4 5 6 
#
# 1 0.016480 -0.004057 -0.003662 0.000000 0.000000 0.000000
# 2 -0.004057 0.011836 -0.000638 0.000000 0.000000 0.000000
# 3 -0.003662 -0.000638 0.008621 0.000000 0.000000 0.000000
# 4 0.000000 0.000000 0.000000 0.071647 0.000000 0.000000
# 5 0.000000 0.000000 0.000000 0.000000 0.045745 0.000000
# 6 0.000000 0.000000 0.000000 0.000000 0.000000 0.074591
#
#
# Mechanical properties :
#
#
# Convention : Reuss Voigt Hill
#
# Bulk Modulus (GPa) = 49.44588 51.32917 50.38753
# Shear Modulus (GPa) = 19.81179 24.61530 22.21355
#
# Velocity S-wave (km/s) = 3.17722 3.54150 3.36429
# Velocity P-wave (km/s) = 6.21722 6.54804 6.38477
#
# Compressibility (1/GPa) = 0.02022413
#
# Stress axis : x y z
#
# Youngs Moduli (GPa) = 60.67867 84.48517 115.99924
#
# Poissons Ratio (x) = 0.34271 0.42477
# Poissons Ratio (y) = 0.24614 0.07404
# Poissons Ratio (z) = 0.22220 0.05393
#
# Static dielectric constant tensor:
#      x y z
#    x 3.718110 0.000000 0.000000 
#    y 0.000000 3.348680 0.000000 
#    z 0.000000 0.000000 3.717600 
# 
# 
# High freq. dielectric constant tensor:
#      x y z
#    x 1.774360 0.000000 0.000000 
#    y 0.000000 1.721320 0.000000 
#    z 0.000000 0.000000 1.773200 
# 
# From -- ./inp_files/12425.got.cif
#   From: 2010.03.12/outbox.cif.g09.slc.cpg/sg62_7_cif.got.tgz:12425.got - 2010.04.10 19:12:36.
