data_PCOD8254324
_publ_section_title
;
Structure prediction by ZEFSAII (Michael W. Deem and Ramdas Pophale) SiO2 
 PCOD8254324
Probable space group: P N M A
;
_chemical_formula_sum "Si O2"
_cell_formula_units_Z 40
_cell_length_a 12.658982
_cell_length_b 13.084368
_cell_length_c 11.388467
_cell_angle_alpha 90.000000
_cell_angle_beta 90.000000
_cell_angle_gamma 90.000000
_cell_volume 1886.326215
_symmetry_space_group_name_H-M "P N M A"
_symmetry_group_IT_number 62
_symmetry_cell_setting 'orthorhombic'
loop_
_space_group_symop_operation_xyz
x,y,z
1/2-x,-y,1/2+z
1/2+x,1/2-y,1/2-z
-x,1/2+y,-z
-x,-y,-z
1/2+x,y,1/2-z
1/2-x,1/2+y,1/2+z
x,1/2-y,z
loop_
_atom_site_type_symbol
_atom_site_label
_atom_site_fract_x
_atom_site_fract_y
_atom_site_fract_z
Si Si1 0.598329 0.250000 0.672636
Si Si2 0.859812 0.030218 0.554133
Si Si3 0.204834 0.750000 0.479227
Si Si4 0.172486 0.250000 0.217486
Si Si5 0.812380 0.090160 0.157784
Si Si6 0.440936 0.547229 0.178952
Si Si7 0.030427 0.750000 0.930313
O O1 0.721193 0.250000 0.636810
O O2 0.575208 0.152136 0.752353
O O3 0.526090 0.250000 0.556010
O O4 0.867517 0.149159 0.516788
O O5 0.934607 0.020691 0.669188
O O6 0.738475 0.002662 0.584008
O O7 0.897264 0.949920 0.454588
O O8 0.275526 0.750000 0.592237
O O9 0.212072 0.347533 0.291434
O O10 0.047429 0.250000 0.184728
O O11 0.892027 0.152666 0.075181
O O12 0.882062 0.046623 0.261905
#
# Coordination Sequence:
#
# PCOD8254324 Si02
#       7
#     4   8   4   4   8   8   4
#     4  11  24  44  64  98 134 168 215 278 336 381
#     4  11  24  41  66  96 131 173 224 267 323 404
#     4  11  20  42  65  92 130 171 213 272 328 385
#     4  10  21  41  64  89 127 172 214 270 328 387
#     4  11  22  42  66  95 131 174 218 270 328 387
#     4  11  24  42  66  97 129 176 219 270 331 393
#     4  10  25  41  65  99 131 171 222 270 324 397
#
# _framework density 21.205241000000001
#
# number of rings (size 3 to 8) (size 9 to 14) (size 15 to 20)
#    0.000    1.200    4.000    1.800    0.000    4.000 
#    3.600    1.000    0.000    0.000    0.000    0.000 
#    0.000    0.000    0.000    0.000    0.000    0.000 
#
# Total GULP energy -495833.286866 kJ/mol
# GULP energy per Si atom -12395.832172 kJ/mol
# Density = 2.115698 g / cm^3
# Si number density = 21.205241 Si / 1000 Ang^3
#
#
#
# Elastic Constant Matrix: (Units=GPa)
#
#
# Indices 1 2 3 4 5 6 
#
# 1 103.0359 42.9688 29.3949 0.0000 0.0000 0.0000
# 2 42.9688 115.9121 40.2999 0.0000 0.0000 0.0000
# 3 29.3949 40.2999 87.7844 0.0000 0.0000 0.0000
# 4 0.0000 0.0000 0.0000 32.8516 0.0000 0.0000
# 5 0.0000 0.0000 0.0000 0.0000 30.8435 0.0000
# 6 0.0000 0.0000 0.0000 0.0000 0.0000 30.3399
#
#
#
# Elastic Compliance Matrix: (Units=1/GPa)
#
#
# Indices 1 2 3 4 5 6 
#
# 1 0.011866 -0.003590 -0.002325 0.000000 0.000000 0.000000
# 2 -0.003590 0.011352 -0.004009 0.000000 0.000000 0.000000
# 3 -0.002325 -0.004009 0.014011 0.000000 0.000000 0.000000
# 4 0.000000 0.000000 0.000000 0.030440 0.000000 0.000000
# 5 0.000000 0.000000 0.000000 0.000000 0.032422 0.000000
# 6 0.000000 0.000000 0.000000 0.000000 0.000000 0.032960
#
#
# Mechanical properties :
#
#
# Convention : Reuss Voigt Hill
#
# Bulk Modulus (GPa) = 57.53970 59.11775 58.32872
# Shear Modulus (GPa) = 31.50739 31.74490 31.62615
#
# Velocity S-wave (km/s) = 3.85883 3.87335 3.86609
# Velocity P-wave (km/s) = 6.85913 6.92410 6.89169
#
# Compressibility (1/GPa) = 0.01737931
#
# Stress axis : x y z
#
# Youngs Moduli (GPa) = 84.27467 88.08941 71.37404
#
# Poissons Ratio (x) = 0.31627 0.16595
# Poissons Ratio (y) = 0.30258 0.28616
# Poissons Ratio (z) = 0.19595 0.35317
#
# Static dielectric constant tensor:
#      x y z
#    x 4.044050 0.000000 0.000000 
#    y 0.000000 4.025360 0.000000 
#    z 0.000000 0.000000 3.725680 
# 
# 
# High freq. dielectric constant tensor:
#      x y z
#    x 1.839260 0.000000 0.000000 
#    y 0.000000 1.838600 0.000000 
#    z 0.000000 0.000000 1.824640 
# 
# From -- ./inp_files/12096.got.cif
#   From: 2010.03.12/outbox.cif.g09.slc.cpg/sg62_7_cif.got.tgz:12096.got - 2010.04.10 19:12:36.
