data_PCOD8254974
_publ_section_title
;
Structure prediction by ZEFSAII (Michael W. Deem and Ramdas Pophale) SiO2 
 PCOD8254974
Probable space group: P N M A
;
_chemical_formula_sum "Si O2"
_cell_formula_units_Z 48
_cell_length_a 29.612962
_cell_length_b 8.836215
_cell_length_c 10.264665
_cell_angle_alpha 90.000000
_cell_angle_beta 90.000000
_cell_angle_gamma 90.000000
_cell_volume 2685.918954
_symmetry_space_group_name_H-M "P N M A"
_symmetry_group_IT_number 62
_symmetry_cell_setting 'orthorhombic'
loop_
_space_group_symop_operation_xyz
x,y,z
1/2-x,-y,1/2+z
1/2+x,1/2-y,1/2-z
-x,1/2+y,-z
-x,-y,-z
1/2+x,y,1/2-z
1/2-x,1/2+y,1/2+z
x,1/2-y,z
loop_
_atom_site_type_symbol
_atom_site_label
_atom_site_fract_x
_atom_site_fract_y
_atom_site_fract_z
Si Si1 0.979406 0.070332 0.127456
Si Si2 0.382272 0.071860 0.985109
Si Si3 0.385795 0.429359 0.271947
Si Si4 0.024633 0.570372 0.376770
Si Si5 0.714223 0.571461 0.715287
Si Si6 0.782719 0.428604 0.513684
O O1 0.983696 0.250000 0.124325
O O2 0.926948 0.016894 0.136124
O O3 0.007192 0.007660 0.248006
O O4 0.000000 0.000000 0.000000
O O5 0.378495 0.250000 0.002315
O O6 0.394616 0.003929 0.127241
O O7 0.332683 0.013903 0.941258
O O8 0.421826 0.029885 0.884238
O O9 0.385914 0.250000 0.264870
O O10 0.336648 0.483795 0.321856
O O11 0.016648 0.750000 0.373624
O O12 0.000000 0.500000 0.500000
O O13 0.718094 0.750000 0.704025
O O14 0.747143 0.500341 0.610584
O O15 0.726057 0.520917 0.863537
O O16 0.778451 0.250000 0.525749
#
# Coordination Sequence:
#
# PCOD8254974 Si02
#       6
#     8   8   8   8   8   8
#     4  11  22  38  56  78 110 145 181 222 268 320
#     4   8  15  31  55  78 100 135 178 214 255 316
#     4   8  15  32  56  75  98 140 181 209 252 320
#     4  11  20  34  58  84 108 139 180 222 264 314
#     4   9  18  34  56  78 102 135 176 216 258 312
#     4   9  18  34  55  77 104 136 174 216 259 311
#
# _framework density 17.870978000000001
#
# number of rings (size 3 to 8) (size 9 to 14) (size 15 to 20)
#    0.000    2.667    1.667    3.000    0.000    0.667 
#    3.000    3.333    0.000    0.000    0.000    0.000 
#    0.000    0.000    0.000    0.000    0.000    0.000 
#
# Total GULP energy -594773.154972 kJ/mol
# GULP energy per Si atom -12391.107395 kJ/mol
# Density = 1.783030 g / cm^3
# Si number density = 17.870978 Si / 1000 Ang^3
#
#
#
# Elastic Constant Matrix: (Units=GPa)
#
#
# Indices 1 2 3 4 5 6 
#
# 1 183.8154 47.4859 103.4791 0.0000 0.0000 0.0000
# 2 47.4859 49.8489 43.9556 0.0000 0.0000 0.0000
# 3 103.4791 43.9556 137.4446 0.0000 0.0000 0.0000
# 4 0.0000 0.0000 0.0000 32.9646 0.0000 0.0000
# 5 0.0000 0.0000 0.0000 0.0000 33.9138 0.0000
# 6 0.0000 0.0000 0.0000 0.0000 0.0000 27.9898
#
#
#
# Elastic Compliance Matrix: (Units=1/GPa)
#
#
# Indices 1 2 3 4 5 6 
#
# 1 0.009988 -0.004016 -0.006235 0.000000 0.000000 0.000000
# 2 -0.004016 0.029555 -0.006428 0.000000 0.000000 0.000000
# 3 -0.006235 -0.006428 0.014026 0.000000 0.000000 0.000000
# 4 0.000000 0.000000 0.000000 0.030336 0.000000 0.000000
# 5 0.000000 0.000000 0.000000 0.000000 0.029487 0.000000
# 6 0.000000 0.000000 0.000000 0.000000 0.000000 0.035727
#
#
# Mechanical properties :
#
#
# Convention : Reuss Voigt Hill
#
# Bulk Modulus (GPa) = 49.48237 84.55001 67.01619
# Shear Modulus (GPa) = 26.42524 30.71953 28.57238
#
# Velocity S-wave (km/s) = 3.84952 4.15053 4.00286
# Velocity P-wave (km/s) = 6.89254 8.38948 7.67758
#
# Compressibility (1/GPa) = 0.02020922
#
# Stress axis : x y z
#
# Youngs Moduli (GPa) = 100.12057 33.83570 71.29760
#
# Poissons Ratio (x) = 0.13590 0.44456
# Poissons Ratio (y) = 0.40212 0.45829
# Poissons Ratio (z) = 0.62428 0.21749
#
# Static dielectric constant tensor:
#      x y z
#    x 3.850180 0.000000 0.000000 
#    y 0.000000 3.052690 0.000000 
#    z 0.000000 0.000000 2.187690 
# 
# 
# High freq. dielectric constant tensor:
#      x y z
#    x 1.711020 0.000000 0.000000 
#    y 0.000000 1.664940 0.000000 
#    z 0.000000 0.000000 1.678420 
# 
# From -- ./inp_files/10134.got.cif
#   From: 2010.03.12/outbox.cif.g09.slc.cpg/sg62_6_cif.got.tgz:10134.got - 2010.04.10 19:12:36.
