data_PCOD8254570
_publ_section_title
;
Structure prediction by ZEFSAII (Michael W. Deem and Ramdas Pophale) SiO2 
 PCOD8254570
Probable space group: P N M A
;
_chemical_formula_sum "Si O2"
_cell_formula_units_Z 40
_cell_length_a 18.734842
_cell_length_b 13.357472
_cell_length_c 7.629946
_cell_angle_alpha 90.000000
_cell_angle_beta 90.000000
_cell_angle_gamma 90.000000
_cell_volume 1909.394959
_symmetry_space_group_name_H-M "P N M A"
_symmetry_group_IT_number 62
_symmetry_cell_setting 'orthorhombic'
loop_
_space_group_symop_operation_xyz
x,y,z
1/2-x,-y,1/2+z
1/2+x,1/2-y,1/2-z
-x,1/2+y,-z
-x,-y,-z
1/2+x,y,1/2-z
1/2-x,1/2+y,1/2+z
x,1/2-y,z
loop_
_atom_site_type_symbol
_atom_site_label
_atom_site_fract_x
_atom_site_fract_y
_atom_site_fract_z
Si Si1 0.827066 0.023376 0.588192
Si Si2 0.974982 0.970810 0.218964
Si Si3 0.898623 0.138562 0.896591
Si Si4 0.827346 0.455548 0.194382
Si Si5 0.450352 0.631180 0.929319
O O1 0.859323 0.101354 0.723073
O O2 0.827629 0.076239 0.397549
O O3 0.746204 0.005481 0.642676
O O4 0.871623 0.919743 0.585853
O O5 0.984625 0.893445 0.381810
O O6 0.029995 0.929677 0.069472
O O7 0.892601 0.966435 0.157854
O O8 0.997196 0.082734 0.283364
O O9 0.924433 0.250000 0.865369
O O10 0.844908 0.135854 0.062871
O O11 0.443703 0.750000 0.898220
#
# Coordination Sequence:
#
# PCOD8254570 Si02
#       5
#     8   8   8   8   8
#     4  10  22  40  63  89 127 164 203 259 311 366
#     4   9  20  36  60  90 124 163 201 263 311 360
#     4  11  23  40  64  92 122 161 208 256 312 373
#     4  11  21  40  63  86 123 166 204 250 310 364
#     4   9  18  36  61  89 122 163 209 253 312 371
#
# _framework density 20.949045000000002
#
# number of rings (size 3 to 8) (size 9 to 14) (size 15 to 20)
#    0.000    2.000    2.000    2.400    0.000    2.400 
#    0.000    1.000    0.000   10.800    0.000    0.000 
#    0.000    0.000    0.000    0.000    0.000    0.000 
#
# Total GULP energy -495842.795150 kJ/mol
# GULP energy per Si atom -12396.069879 kJ/mol
# Density = 2.090136 g / cm^3
# Si number density = 20.949045 Si / 1000 Ang^3
#
#
#
# Elastic Constant Matrix: (Units=GPa)
#
#
# Indices 1 2 3 4 5 6 
#
# 1 141.0508 27.3527 33.2316 0.0000 0.0000 0.0000
# 2 27.3527 126.9535 31.5274 0.0000 0.0000 0.0000
# 3 33.2316 31.5274 102.4381 0.0000 0.0000 0.0000
# 4 0.0000 0.0000 0.0000 15.4907 0.0000 0.0000
# 5 0.0000 0.0000 0.0000 0.0000 41.4763 0.0000
# 6 0.0000 0.0000 0.0000 0.0000 0.0000 15.1001
#
#
#
# Elastic Compliance Matrix: (Units=1/GPa)
#
#
# Indices 1 2 3 4 5 6 
#
# 1 0.007827 -0.001143 -0.002187 0.000000 0.000000 0.000000
# 2 -0.001143 0.008696 -0.002305 0.000000 0.000000 0.000000
# 3 -0.002187 -0.002305 0.011181 0.000000 0.000000 0.000000
# 4 0.000000 0.000000 0.000000 0.064555 0.000000 0.000000
# 5 0.000000 0.000000 0.000000 0.000000 0.024110 0.000000
# 6 0.000000 0.000000 0.000000 0.000000 0.000000 0.066225
#
#
# Mechanical properties :
#
#
# Convention : Reuss Voigt Hill
#
# Bulk Modulus (GPa) = 60.85721 61.62954 61.24337
# Shear Modulus (GPa) = 25.08251 32.96879 29.02565
#
# Velocity S-wave (km/s) = 3.46397 3.97137 3.72632
# Velocity P-wave (km/s) = 6.71654 7.10716 6.91461
#
# Compressibility (1/GPa) = 0.01643191
#
# Stress axis : x y z
#
# Youngs Moduli (GPa) = 127.76903 114.99908 89.43676
#
# Poissons Ratio (x) = 0.13146 0.19562
# Poissons Ratio (y) = 0.14606 0.20619
# Poissons Ratio (z) = 0.27946 0.26512
#
# Static dielectric constant tensor:
#      x y z
#    x 4.114330 0.000000 0.000000 
#    y 0.000000 3.315150 0.000000 
#    z 0.000000 0.000000 4.209940 
# 
# 
# High freq. dielectric constant tensor:
#      x y z
#    x 1.837030 0.000000 0.000000 
#    y 0.000000 1.775970 0.000000 
#    z 0.000000 0.000000 1.847300 
# 
# From -- ./inp_files/7276.got.cif
#   From: 2010.03.12/outbox.cif.g09.slc.cpg/sg62_4_cif.got.tgz:7276.got - 2010.04.10 19:12:36.
