data_PCOD8254786
_publ_section_title
;
Structure prediction by ZEFSAII (Michael W. Deem and Ramdas Pophale) SiO2 
 PCOD8254786
Probable space group: P N M A
;
_chemical_formula_sum "Si O2"
_cell_formula_units_Z 56
_cell_length_a 19.191681
_cell_length_b 15.051021
_cell_length_c 10.026639
_cell_angle_alpha 90.000000
_cell_angle_beta 90.000000
_cell_angle_gamma 90.000000
_cell_volume 2896.238730
_symmetry_space_group_name_H-M "P N M A"
_symmetry_group_IT_number 62
_symmetry_cell_setting 'orthorhombic'
loop_
_space_group_symop_operation_xyz
x,y,z
1/2-x,-y,1/2+z
1/2+x,1/2-y,1/2-z
-x,1/2+y,-z
-x,-y,-z
1/2+x,y,1/2-z
1/2-x,1/2+y,1/2+z
x,1/2-y,z
loop_
_atom_site_type_symbol
_atom_site_label
_atom_site_fract_x
_atom_site_fract_y
_atom_site_fract_z
Si Si1 0.022845 0.152424 0.461272
Si Si2 0.868872 0.512350 0.869795
Si Si3 0.169011 0.351756 0.332597
Si Si4 0.455893 0.651750 0.487965
Si Si5 0.434881 0.390664 0.286147
Si Si6 0.999197 0.933623 0.263531
Si Si7 0.186544 0.649782 0.963129
O O1 0.031522 0.250000 0.521883
O O2 0.096729 0.120634 0.403123
O O3 0.964001 0.156458 0.346336
O O4 0.998463 0.090498 0.581604
O O5 0.817906 0.578176 0.787543
O O6 0.927988 0.479943 0.768861
O O7 0.900364 0.573434 0.987733
O O8 0.831219 0.425702 0.928527
O O9 0.163952 0.250000 0.278438
O O10 0.231810 0.361203 0.435590
O O11 0.423659 0.750000 0.510956
O O12 0.520977 0.637935 0.584857
O O13 0.484043 0.647766 0.336200
O O14 0.437614 0.495691 0.261069
O O15 0.356061 0.362901 0.324048
O O16 0.172443 0.750000 0.018980
#
# Coordination Sequence:
#
# PCOD8254786 Si02
#       7
#     8   8   8   8   8   8   8
#     4  11  22  37  58  87 121 159 201 249 303 360
#     4  11  21  39  61  89 116 156 202 252 296 358
#     4  10  23  41  61  85 120 164 203 241 302 374
#     4  11  19  34  61  90 119 151 197 250 299 354
#     4  11  20  36  60  86 115 156 203 249 296 356
#     4  11  21  34  58  92 122 150 196 255 308 346
#     4  11  23  40  62  88 120 161 205 249 302 363
#
# _framework density 19.335422999999999
#
# number of rings (size 3 to 8) (size 9 to 14) (size 15 to 20)
#    0.000    1.143    5.714    3.429    0.000    1.714 
#    0.000    0.000    0.000    0.857    0.000    0.000 
#    0.000    0.000    0.000    0.000    0.000    0.000 
#
# Total GULP energy -694043.532890 kJ/mol
# GULP energy per Si atom -12393.634516 kJ/mol
# Density = 1.929141 g / cm^3
# Si number density = 19.335423 Si / 1000 Ang^3
#
#
#
# Elastic Constant Matrix: (Units=GPa)
#
#
# Indices 1 2 3 4 5 6 
#
# 1 61.6427 34.5752 32.1895 0.0000 0.0000 0.0000
# 2 34.5752 132.4006 55.4403 0.0000 0.0000 0.0000
# 3 32.1895 55.4403 106.1266 0.0000 0.0000 0.0000
# 4 0.0000 0.0000 0.0000 37.5604 0.0000 0.0000
# 5 0.0000 0.0000 0.0000 0.0000 14.6951 0.0000
# 6 0.0000 0.0000 0.0000 0.0000 0.0000 23.1819
#
#
#
# Elastic Compliance Matrix: (Units=1/GPa)
#
#
# Indices 1 2 3 4 5 6 
#
# 1 0.020479 -0.003516 -0.004375 0.000000 0.000000 0.000000
# 2 -0.003516 0.010271 -0.004299 0.000000 0.000000 0.000000
# 3 -0.004375 -0.004299 0.012996 0.000000 0.000000 0.000000
# 4 0.000000 0.000000 0.000000 0.026624 0.000000 0.000000
# 5 0.000000 0.000000 0.000000 0.000000 0.068050 0.000000
# 6 0.000000 0.000000 0.000000 0.000000 0.000000 0.043137
#
#
# Mechanical properties :
#
#
# Convention : Reuss Voigt Hill
#
# Bulk Modulus (GPa) = 51.63746 60.50888 56.07317
# Shear Modulus (GPa) = 23.54137 26.95181 25.24659
#
# Velocity S-wave (km/s) = 3.49309 3.73756 3.61739
# Velocity P-wave (km/s) = 6.55996 7.07022 6.81986
#
# Compressibility (1/GPa) = 0.01936579
#
# Stress axis : x y z
#
# Youngs Moduli (GPa) = 48.83010 97.35916 76.94955
#
# Poissons Ratio (x) = 0.34232 0.33664
# Poissons Ratio (y) = 0.17169 0.33082
# Poissons Ratio (z) = 0.21362 0.41857
#
# Static dielectric constant tensor:
#      x y z
#    x 3.325540 0.000000 0.000000 
#    y 0.000000 3.832220 0.000000 
#    z 0.000000 0.000000 3.407370 
# 
# 
# High freq. dielectric constant tensor:
#      x y z
#    x 1.720740 0.000000 0.000000 
#    y 0.000000 1.776730 0.000000 
#    z 0.000000 0.000000 1.741060 
# 
# From -- ./inp_files/8729.got.cif
#   From: 2010.03.12/outbox.cif.g09.slc.cpg/sg62_5_cif.got.tgz:8729.got - 2010.04.10 19:12:36.
