data_PCOD8254726
_publ_section_title
;
Structure prediction by ZEFSAII (Michael W. Deem and Ramdas Pophale) SiO2 
 PCOD8254726
Probable space group: P N M A
;
_chemical_formula_sum "Si O2"
_cell_formula_units_Z 48
_cell_length_a 11.767483
_cell_length_b 16.814840
_cell_length_c 11.734425
_cell_angle_alpha 90.000000
_cell_angle_beta 90.000000
_cell_angle_gamma 90.000000
_cell_volume 2321.871241
_symmetry_space_group_name_H-M "P N M A"
_symmetry_group_IT_number 62
_symmetry_cell_setting 'orthorhombic'
loop_
_space_group_symop_operation_xyz
x,y,z
1/2-x,-y,1/2+z
1/2+x,1/2-y,1/2-z
-x,1/2+y,-z
-x,-y,-z
1/2+x,y,1/2-z
1/2-x,1/2+y,1/2+z
x,1/2-y,z
loop_
_atom_site_type_symbol
_atom_site_label
_atom_site_fract_x
_atom_site_fract_y
_atom_site_fract_z
Si Si1 0.836994 0.079550 0.581003
Si Si2 0.213866 0.841292 0.184053
Si Si3 0.708615 0.097292 0.147151
Si Si4 0.919085 0.342862 0.034274
Si Si5 0.327685 0.655293 0.603298
Si Si6 0.433130 0.661437 0.042777
O O1 0.799453 0.109693 0.702955
O O2 0.764651 0.121566 0.482878
O O3 0.968132 0.097188 0.555034
O O4 0.820795 0.985802 0.586935
O O5 0.191970 0.750000 0.213537
O O6 0.340993 0.856314 0.140279
O O7 0.121522 0.870758 0.090995
O O8 0.842573 0.114083 0.129871
O O9 0.682309 0.105632 0.280237
O O10 0.629224 0.159584 0.079758
O O11 0.896489 0.250000 0.048926
O O12 0.049908 0.364703 0.050432
O O13 0.310212 0.750000 0.622545
O O14 0.484293 0.750000 0.057917
#
# Coordination Sequence:
#
# PCOD8254726 Si02
#       6
#     8   8   8   8   8   8
#     4  12  26  39  66  99 135 163 217 273 329 383
#     4   9  20  40  64  89 122 168 217 267 326 384
#     4  11  25  42  65  94 135 169 212 269 338 384
#     4   9  21  43  68  89 122 172 221 263 320 389
#     4  11  25  43  67  98 129 174 228 268 316 395
#     4  10  22  43  67  89 125 174 220 265 322 391
#
# _framework density 20.672981
#
# number of rings (size 3 to 8) (size 9 to 14) (size 15 to 20)
#    0.000    1.667    0.000    4.500    9.333    2.000 
#    0.000    0.000    0.000    0.000    0.000    0.000 
#    0.000    0.000    0.000    0.000    0.000    0.000 
#
# Total GULP energy -595289.842083 kJ/mol
# GULP energy per Si atom -12401.871710 kJ/mol
# Density = 2.062593 g / cm^3
# Si number density = 20.672981 Si / 1000 Ang^3
#
#
#
# Elastic Constant Matrix: (Units=GPa)
#
#
# Indices 1 2 3 4 5 6 
#
# 1 92.5210 27.9038 33.0938 0.0000 0.0000 0.0000
# 2 27.9038 58.8114 16.6330 0.0000 0.0000 0.0000
# 3 33.0938 16.6330 102.9696 0.0000 0.0000 0.0000
# 4 0.0000 0.0000 0.0000 39.7571 0.0000 0.0000
# 5 0.0000 0.0000 0.0000 0.0000 23.0223 0.0000
# 6 0.0000 0.0000 0.0000 0.0000 0.0000 26.2437
#
#
#
# Elastic Compliance Matrix: (Units=1/GPa)
#
#
# Indices 1 2 3 4 5 6 
#
# 1 0.013733 -0.005520 -0.003522 0.000000 0.000000 0.000000
# 2 -0.005520 0.020036 -0.001463 0.000000 0.000000 0.000000
# 3 -0.003522 -0.001463 0.011080 0.000000 0.000000 0.000000
# 4 0.000000 0.000000 0.000000 0.025153 0.000000 0.000000
# 5 0.000000 0.000000 0.000000 0.000000 0.043436 0.000000
# 6 0.000000 0.000000 0.000000 0.000000 0.000000 0.038104
#
#
# Mechanical properties :
#
#
# Convention : Reuss Voigt Hill
#
# Bulk Modulus (GPa) = 41.94581 45.50703 43.72642
# Shear Modulus (GPa) = 27.70129 29.58272 28.64201
#
# Velocity S-wave (km/s) = 3.66454 3.78694 3.72624
# Velocity P-wave (km/s) = 6.18380 6.41731 6.30163
#
# Compressibility (1/GPa) = 0.02384028
#
# Stress axis : x y z
#
# Youngs Moduli (GPa) = 72.81816 49.91024 90.25419
#
# Poissons Ratio (x) = 0.27548 0.31788
# Poissons Ratio (y) = 0.40193 0.13200
# Poissons Ratio (z) = 0.25647 0.07299
#
# Static dielectric constant tensor:
#      x y z
#    x 3.844910 0.000000 0.000000 
#    y 0.000000 3.810130 0.000000 
#    z 0.000000 0.000000 3.742620 
# 
# 
# High freq. dielectric constant tensor:
#      x y z
#    x 1.816470 0.000000 0.000000 
#    y 0.000000 1.808490 0.000000 
#    z 0.000000 0.000000 1.813980 
# 
# From -- ./inp_files/12242.got.cif
#   From: 2010.03.12/outbox.cif.g09.slc.cpg/sg62_7_cif.got.tgz:12242.got - 2010.04.10 19:12:36.
