data_PCOD8254972
_publ_section_title
;
Structure prediction by ZEFSAII (Michael W. Deem and Ramdas Pophale) SiO2 
 PCOD8254972
Probable space group: P N M A
;
_chemical_formula_sum "Si O2"
_cell_formula_units_Z 48
_cell_length_a 9.092858
_cell_length_b 22.639656
_cell_length_c 11.776349
_cell_angle_alpha 90.000000
_cell_angle_beta 90.000000
_cell_angle_gamma 90.000000
_cell_volume 2424.269515
_symmetry_space_group_name_H-M "P N M A"
_symmetry_group_IT_number 62
_symmetry_cell_setting 'orthorhombic'
loop_
_space_group_symop_operation_xyz
x,y,z
1/2-x,-y,1/2+z
1/2+x,1/2-y,1/2-z
-x,1/2+y,-z
-x,-y,-z
1/2+x,y,1/2-z
1/2-x,1/2+y,1/2+z
x,1/2-y,z
loop_
_atom_site_type_symbol
_atom_site_label
_atom_site_fract_x
_atom_site_fract_y
_atom_site_fract_z
Si Si1 0.503502 0.317773 0.145659
Si Si2 0.673820 0.101000 0.984212
Si Si3 0.888297 0.982233 0.666188
Si Si4 0.631189 0.056596 0.743251
Si Si5 0.809825 0.624355 0.821730
Si Si6 0.999066 0.928891 0.015050
O O1 0.465246 0.250000 0.122594
O O2 0.595259 0.323328 0.263087
O O3 0.355343 0.355472 0.154960
O O4 0.598184 0.341456 0.038494
O O5 0.651171 0.101284 0.848425
O O6 0.845570 0.099819 0.016097
O O7 0.603196 0.040306 0.035768
O O8 0.812758 0.929094 0.733730
O O9 0.786074 0.039564 0.684929
O O10 0.050364 0.997052 0.712081
O O11 0.534194 0.087274 0.645956
O O12 0.876891 0.602758 0.939869
O O13 0.000000 0.000000 0.000000
#
# Coordination Sequence:
#
# PCOD8254972 Si02
#       6
#     8   8   8   8   8   8
#     4  11  25  44  67  88 118 159 217 275 309 349
#     4  11  23  38  59  89 122 169 209 251 307 361
#     4  11  20  34  55  88 127 161 198 238 293 382
#     4  12  22  34  56  87 132 168 197 233 302 375
#     4  11  22  39  63  94 124 160 204 251 316 365
#     4  12  22  37  58  92 137 165 193 242 303 393
#
# _framework density 19.799778
#
# number of rings (size 3 to 8) (size 9 to 14) (size 15 to 20)
#    0.000    0.667    5.000    5.000    2.333    0.000 
#    0.000    0.833    0.000    5.000    0.000    0.000 
#    0.000    0.000    0.000    0.000    0.000    0.000 
#
# Total GULP energy -595154.223652 kJ/mol
# GULP energy per Si atom -12399.046326 kJ/mol
# Density = 1.975471 g / cm^3
# Si number density = 19.799778 Si / 1000 Ang^3
#
#
#
# Elastic Constant Matrix: (Units=GPa)
#
#
# Indices 1 2 3 4 5 6 
#
# 1 72.6493 6.7948 -5.1148 0.0000 0.0000 0.0000
# 2 6.7948 57.0541 6.8010 0.0000 0.0000 0.0000
# 3 -5.1148 6.8010 98.5237 0.0000 0.0000 0.0000
# 4 0.0000 0.0000 0.0000 18.7824 0.0000 0.0000
# 5 0.0000 0.0000 0.0000 0.0000 34.9367 0.0000
# 6 0.0000 0.0000 0.0000 0.0000 0.0000 18.4193
#
#
#
# Elastic Compliance Matrix: (Units=1/GPa)
#
#
# Indices 1 2 3 4 5 6 
#
# 1 0.013990 -0.001767 0.000848 0.000000 0.000000 0.000000
# 2 -0.001767 0.017896 -0.001327 0.000000 0.000000 0.000000
# 3 0.000848 -0.001327 0.010285 0.000000 0.000000 0.000000
# 4 0.000000 0.000000 0.000000 0.053241 0.000000 0.000000
# 5 0.000000 0.000000 0.000000 0.000000 0.028623 0.000000
# 6 0.000000 0.000000 0.000000 0.000000 0.000000 0.054291
#
#
# Mechanical properties :
#
#
# Convention : Reuss Voigt Hill
#
# Bulk Modulus (GPa) = 26.53996 27.24326 26.89161
# Shear Modulus (GPa) = 25.59137 29.07742 27.33439
#
# Velocity S-wave (km/s) = 3.59905 3.83635 3.71959
# Velocity P-wave (km/s) = 5.54113 5.78037 5.66202
#
# Compressibility (1/GPa) = 0.03767903
#
# Stress axis : x y z
#
# Youngs Moduli (GPa) = 71.48086 55.87882 97.22442
#
# Poissons Ratio (x) = 0.09875 -0.08247
# Poissons Ratio (y) = 0.12632 0.12902
# Poissons Ratio (z) = -0.06063 0.07416
#
# Static dielectric constant tensor:
#      x y z
#    x 3.784060 0.000000 0.000000 
#    y 0.000000 3.129340 0.000000 
#    z 0.000000 0.000000 3.862620 
# 
# 
# High freq. dielectric constant tensor:
#      x y z
#    x 1.794730 0.000000 0.000000 
#    y 0.000000 1.712720 0.000000 
#    z 0.000000 0.000000 1.783170 
# 
# From -- ./inp_files/11380.got.cif
#   From: 2010.03.12/outbox.cif.g09.slc.cpg/sg62_6_cif.got.tgz:11380.got - 2010.04.10 19:12:36.
