data_PCOD8254795
_publ_section_title
;
Structure prediction by ZEFSAII (Michael W. Deem and Ramdas Pophale) SiO2 
 PCOD8254795
Probable space group: P N M A
;
_chemical_formula_sum "Si O2"
_cell_formula_units_Z 48
_cell_length_a 8.880772
_cell_length_b 8.487942
_cell_length_c 30.728758
_cell_angle_alpha 90.000000
_cell_angle_beta 90.000000
_cell_angle_gamma 90.000000
_cell_volume 2316.317727
_symmetry_space_group_name_H-M "P N M A"
_symmetry_group_IT_number 62
_symmetry_cell_setting 'orthorhombic'
loop_
_space_group_symop_operation_xyz
x,y,z
1/2-x,-y,1/2+z
1/2+x,1/2-y,1/2-z
-x,1/2+y,-z
-x,-y,-z
1/2+x,y,1/2-z
1/2-x,1/2+y,1/2+z
x,1/2-y,z
loop_
_atom_site_type_symbol
_atom_site_label
_atom_site_fract_x
_atom_site_fract_y
_atom_site_fract_z
Si Si1 0.894232 0.431752 0.210356
Si Si2 0.422502 0.065920 0.128640
Si Si3 0.428020 0.430541 0.787930
Si Si4 0.583772 0.433198 0.541496
Si Si5 0.074586 0.562129 0.456511
Si Si6 0.924843 0.566725 0.875523
O O1 0.844489 0.250000 0.208044
O O2 0.749628 0.541611 0.212483
O O3 0.994211 0.456375 0.253032
O O4 0.990061 0.480918 0.168389
O O5 0.447218 0.250000 0.137721
O O6 0.247948 0.019572 0.130740
O O7 0.510075 0.965977 0.164380
O O8 0.485813 0.020733 0.082054
O O9 0.460272 0.250000 0.775782
O O10 0.500000 0.500000 0.500000
O O11 0.593111 0.250000 0.534243
O O12 0.753394 0.499001 0.544950
O O13 0.493101 0.469567 0.585009
O O14 0.061701 0.750000 0.452824
O O15 0.000000 0.500000 0.500000
O O16 0.942437 0.750000 0.886538
#
# Coordination Sequence:
#
# PCOD8254795 Si02
#       6
#     8   8   8   8   8   8
#     4  11  23  42  66  91 123 166 209 252 306 371
#     4  11  23  41  64  91 123 162 206 253 305 368
#     4  12  25  41  63  94 128 162 205 259 311 365
#     4  11  24  40  61  88 121 157 199 248 301 361
#     4  11  24  41  61  90 123 159 203 253 307 367
#     4  10  23  41  63  90 120 156 203 251 299 358
#
# _framework density 20.722546000000001
#
# number of rings (size 3 to 8) (size 9 to 14) (size 15 to 20)
#    0.000    1.000    0.000    6.500    0.000   13.333 
#    0.000    0.000    0.000    0.000    0.000    0.000 
#    0.000    0.000    0.000    0.000    0.000    0.000 
#
# Total GULP energy -595578.539211 kJ/mol
# GULP energy per Si atom -12407.886234 kJ/mol
# Density = 2.067538 g / cm^3
# Si number density = 20.722546 Si / 1000 Ang^3
#
#
#
# Elastic Constant Matrix: (Units=GPa)
#
#
# Indices 1 2 3 4 5 6 
#
# 1 137.2940 30.5969 44.6851 0.0000 0.0000 0.0000
# 2 30.5969 55.9285 14.9694 0.0000 0.0000 0.0000
# 3 44.6851 14.9694 136.7225 0.0000 0.0000 0.0000
# 4 0.0000 0.0000 0.0000 36.2846 0.0000 0.0000
# 5 0.0000 0.0000 0.0000 0.0000 44.9639 0.0000
# 6 0.0000 0.0000 0.0000 0.0000 0.0000 34.0360
#
#
#
# Elastic Compliance Matrix: (Units=1/GPa)
#
#
# Indices 1 2 3 4 5 6 
#
# 1 0.009048 -0.004284 -0.002488 0.000000 0.000000 0.000000
# 2 -0.004284 0.020448 -0.000839 0.000000 0.000000 0.000000
# 3 -0.002488 -0.000839 0.008219 0.000000 0.000000 0.000000
# 4 0.000000 0.000000 0.000000 0.027560 0.000000 0.000000
# 5 0.000000 0.000000 0.000000 0.000000 0.022240 0.000000
# 6 0.000000 0.000000 0.000000 0.000000 0.000000 0.029381
#
#
# Mechanical properties :
#
#
# Convention : Reuss Voigt Hill
#
# Bulk Modulus (GPa) = 44.45695 56.71643 50.58669
# Shear Modulus (GPa) = 35.81258 39.03646 37.42452
#
# Velocity S-wave (km/s) = 4.16167 4.34495 4.25429
# Velocity P-wave (km/s) = 6.67777 7.25260 6.97111
#
# Compressibility (1/GPa) = 0.02249367
#
# Stress axis : x y z
#
# Youngs Moduli (GPa) = 110.51933 48.90426 121.66750
#
# Poissons Ratio (x) = 0.20951 0.30273
# Poissons Ratio (y) = 0.47347 0.10204
# Poissons Ratio (z) = 0.27499 0.04101
#
# Static dielectric constant tensor:
#      x y z
#    x 3.757170 0.000000 0.000000 
#    y 0.000000 3.737250 0.000000 
#    z 0.000000 0.000000 3.725520 
# 
# 
# High freq. dielectric constant tensor:
#      x y z
#    x 1.830750 0.000000 0.000000 
#    y 0.000000 1.815240 0.000000 
#    z 0.000000 0.000000 1.828960 
# 
# From -- ./inp_files/32047.got.cif
#   From: 2010.03.12/outbox.cif.g09.slc.cpg/sg62_17_cif.got.tgz:32047.got - 2010.04.10 19:12:36.
