data_PCOD8254020
_publ_section_title
;
Structure prediction by ZEFSAII (Michael W. Deem and Ramdas Pophale) SiO2 
 PCOD8254020
Probable space group: P N M A
;
_chemical_formula_sum "Si O2"
_cell_formula_units_Z 48
_cell_length_a 9.819976
_cell_length_b 23.026344
_cell_length_c 9.596084
_cell_angle_alpha 90.000000
_cell_angle_beta 90.000000
_cell_angle_gamma 90.000000
_cell_volume 2169.848718
_symmetry_space_group_name_H-M "P N M A"
_symmetry_group_IT_number 62
_symmetry_cell_setting 'orthorhombic'
loop_
_space_group_symop_operation_xyz
x,y,z
1/2-x,-y,1/2+z
1/2+x,1/2-y,1/2-z
-x,1/2+y,-z
-x,-y,-z
1/2+x,y,1/2-z
1/2-x,1/2+y,1/2+z
x,1/2-y,z
loop_
_atom_site_type_symbol
_atom_site_label
_atom_site_fract_x
_atom_site_fract_y
_atom_site_fract_z
Si Si1 0.168892 0.603316 0.053193
Si Si2 0.438769 0.685862 0.446443
Si Si3 0.593005 0.185333 0.872165
Si Si4 0.349599 0.317333 0.075413
Si Si5 0.818170 0.072654 0.247342
Si Si6 0.565427 0.006751 0.348122
O O1 0.229627 0.572655 0.914531
O O2 0.278573 0.643990 0.122622
O O3 0.122514 0.558630 0.176583
O O4 0.039712 0.638371 0.988812
O O5 0.475687 0.750000 0.503538
O O6 0.467027 0.683190 0.281952
O O7 0.284031 0.671349 0.483521
O O8 0.644385 0.250000 0.908269
O O9 0.476909 0.166303 0.979202
O O10 0.356479 0.250000 0.127265
O O11 0.352968 0.361460 0.205286
O O12 0.695880 0.049174 0.343041
O O13 0.950559 0.029754 0.259954
O O14 0.500000 0.000000 0.500000
#
# Coordination Sequence:
#
# PCOD8254020 Si02
#       6
#     8   8   8   8   8   8
#     4  11  23  40  64  91 122 173 216 259 324 379
#     4  10  21  39  63  93 130 166 207 264 318 384
#     4  10  21  38  61  95 129 163 213 265 314 384
#     4  10  21  38  65  95 126 166 207 261 335 386
#     4  11  23  45  64  91 135 161 217 280 314 386
#     4  10  24  44  64  89 127 172 214 260 319 379
#
# _framework density 22.121358000000001
#
# number of rings (size 3 to 8) (size 9 to 14) (size 15 to 20)
#    0.000    1.667    0.000    4.500    2.333    4.000 
#    6.000    8.333    0.000    0.000    0.000    0.000 
#    0.000    0.000    0.000    0.000    0.000    0.000 
#
# Total GULP energy -594957.835526 kJ/mol
# GULP energy per Si atom -12394.954907 kJ/mol
# Density = 2.207101 g / cm^3
# Si number density = 22.121358 Si / 1000 Ang^3
#
#
#
# Elastic Constant Matrix: (Units=GPa)
#
#
# Indices 1 2 3 4 5 6 
#
# 1 123.6917 62.2212 21.2010 0.0000 0.0000 0.0000
# 2 62.2212 121.6258 28.6666 0.0000 0.0000 0.0000
# 3 21.2010 28.6666 59.3099 0.0000 0.0000 0.0000
# 4 0.0000 0.0000 0.0000 27.6918 0.0000 0.0000
# 5 0.0000 0.0000 0.0000 0.0000 30.7445 0.0000
# 6 0.0000 0.0000 0.0000 0.0000 0.0000 14.0573
#
#
#
# Elastic Compliance Matrix: (Units=1/GPa)
#
#
# Indices 1 2 3 4 5 6 
#
# 1 0.010983 -0.005297 -0.001366 0.000000 0.000000 0.000000
# 2 -0.005297 0.011834 -0.003826 0.000000 0.000000 0.000000
# 3 -0.001366 -0.003826 0.019198 0.000000 0.000000 0.000000
# 4 0.000000 0.000000 0.000000 0.036112 0.000000 0.000000
# 5 0.000000 0.000000 0.000000 0.000000 0.032526 0.000000
# 6 0.000000 0.000000 0.000000 0.000000 0.000000 0.071137
#
#
# Mechanical properties :
#
#
# Convention : Reuss Voigt Hill
#
# Bulk Modulus (GPa) = 47.53509 58.75609 53.14559
# Shear Modulus (GPa) = 23.83445 27.33463 25.58454
#
# Velocity S-wave (km/s) = 3.28600 3.51902 3.40450
# Velocity P-wave (km/s) = 5.99433 6.56733 6.28736
#
# Compressibility (1/GPa) = 0.02103709
#
# Stress axis : x y z
#
# Youngs Moduli (GPa) = 91.04779 84.50581 52.08832
#
# Poissons Ratio (x) = 0.44762 0.07115
# Poissons Ratio (y) = 0.48227 0.19930
# Poissons Ratio (z) = 0.12436 0.32333
#
# Static dielectric constant tensor:
#      x y z
#    x 4.018750 0.000000 0.000000 
#    y 0.000000 5.257130 0.000000 
#    z 0.000000 0.000000 3.572170 
# 
# 
# High freq. dielectric constant tensor:
#      x y z
#    x 1.879080 0.000000 0.000000 
#    y 0.000000 1.885840 0.000000 
#    z 0.000000 0.000000 1.843080 
# 
# From -- ./inp_files/11279.got.cif
#   From: 2010.03.12/outbox.cif.g09.slc.cpg/sg62_6_cif.got.tgz:11279.got - 2010.04.10 19:12:36.
