data_PCOD8254430
_publ_section_title
;
Structure prediction by ZEFSAII (Michael W. Deem and Ramdas Pophale) SiO2 
 PCOD8254430
Probable space group: P N M A
;
_chemical_formula_sum "Si O2"
_cell_formula_units_Z 32
_cell_length_a 8.667093
_cell_length_b 11.426007
_cell_length_c 15.250894
_cell_angle_alpha 90.000000
_cell_angle_beta 90.000000
_cell_angle_gamma 90.000000
_cell_volume 1510.300079
_symmetry_space_group_name_H-M "P N M A"
_symmetry_group_IT_number 62
_symmetry_cell_setting 'orthorhombic'
loop_
_space_group_symop_operation_xyz
x,y,z
1/2-x,-y,1/2+z
1/2+x,1/2-y,1/2-z
-x,1/2+y,-z
-x,-y,-z
1/2+x,y,1/2-z
1/2-x,1/2+y,1/2+z
x,1/2-y,z
loop_
_atom_site_type_symbol
_atom_site_label
_atom_site_fract_x
_atom_site_fract_y
_atom_site_fract_z
Si Si1 0.229048 0.250000 0.877347
Si Si2 0.580974 0.750000 0.279388
Si Si3 0.397706 0.385842 0.308370
Si Si4 0.823565 0.988063 0.027441
Si Si5 0.286059 0.006140 0.661714
O O1 0.392763 0.250000 0.826003
O O2 0.214180 0.359727 0.939561
O O3 0.099943 0.250000 0.800590
O O4 0.658639 0.636203 0.320078
O O5 0.374032 0.250000 0.286641
O O6 0.292924 0.419817 0.393505
O O7 0.576074 0.412529 0.327144
O O8 0.350724 0.466146 0.225670
O O9 0.723550 0.008309 0.939140
O O10 0.000000 0.000000 0.000000
#
# Coordination Sequence:
#
# PCOD8254430 Si02
#       5
#     4   4   8   8   8
#     4  12  22  40  66  89 125 159 211 256 300 367
#     4  12  20  40  64  91 123 157 207 258 304 357
#     4  11  23  39  60  89 121 157 199 247 303 364
#     4  10  22  36  62  91 115 160 206 244 298 362
#     4  11  23  39  63  87 120 160 200 251 304 359
#
# _framework density 21.187840999999999
#
# number of rings (size 3 to 8) (size 9 to 14) (size 15 to 20)
#    0.000    1.000    7.500    0.750   10.500    0.000 
#    0.000    1.250    0.000    0.000    0.000    0.000 
#    0.000    0.000    0.000    0.000    0.000    0.000 
#
# Total GULP energy -396717.092455 kJ/mol
# GULP energy per Si atom -12397.409139 kJ/mol
# Density = 2.113962 g / cm^3
# Si number density = 21.187841 Si / 1000 Ang^3
#
#
#
# Elastic Constant Matrix: (Units=GPa)
#
#
# Indices 1 2 3 4 5 6 
#
# 1 18.7763 -1.2350 10.9437 0.0000 0.0000 0.0000
# 2 -1.2350 107.9031 17.9018 0.0000 0.0000 0.0000
# 3 10.9437 17.9018 137.7487 0.0000 0.0000 0.0000
# 4 0.0000 0.0000 0.0000 48.3433 0.0000 0.0000
# 5 0.0000 0.0000 0.0000 0.0000 35.2051 0.0000
# 6 0.0000 0.0000 0.0000 0.0000 0.0000 22.3800
#
#
#
# Elastic Compliance Matrix: (Units=1/GPa)
#
#
# Indices 1 2 3 4 5 6 
#
# 1 0.056054 0.001411 -0.004637 0.000000 0.000000 0.000000
# 2 0.001411 0.009507 -0.001348 0.000000 0.000000 0.000000
# 3 -0.004637 -0.001348 0.007803 0.000000 0.000000 0.000000
# 4 0.000000 0.000000 0.000000 0.020685 0.000000 0.000000
# 5 0.000000 0.000000 0.000000 0.000000 0.028405 0.000000
# 6 0.000000 0.000000 0.000000 0.000000 0.000000 0.044683
#
#
# Mechanical properties :
#
#
# Convention : Reuss Voigt Hill
#
# Bulk Modulus (GPa) = 15.57211 35.51655 25.54433
# Shear Modulus (GPa) = 25.29210 36.97352 31.13281
#
# Velocity S-wave (km/s) = 3.45876 4.18189 3.83740
# Velocity P-wave (km/s) = 4.82868 6.33378 5.63174
#
# Compressibility (1/GPa) = 0.06421736
#
# Stress axis : x y z
#
# Youngs Moduli (GPa) = 17.83996 105.18225 128.15409
#
# Poissons Ratio (x) = -0.14839 0.59421
# Poissons Ratio (y) = -0.02517 0.17271
# Poissons Ratio (z) = 0.08272 0.14175
#
# Static dielectric constant tensor:
#      x y z
#    x 3.527820 0.000000 0.000000 
#    y 0.000000 3.821960 0.000000 
#    z 0.000000 0.000000 4.822760 
# 
# 
# High freq. dielectric constant tensor:
#      x y z
#    x 1.784070 0.000000 0.000000 
#    y 0.000000 1.845200 0.000000 
#    z 0.000000 0.000000 1.851490 
# 
# From -- ./inp_files/11788.got.cif
#   From: 2010.03.12/outbox.cif.g09.slc.cpg/sg62_6_cif.got.tgz:11788.got - 2010.04.10 19:12:36.
