data_PCOD8254171
_publ_section_title
;
Structure prediction by ZEFSAII (Michael W. Deem and Ramdas Pophale) SiO2 
 PCOD8254171
Probable space group: P N M A
;
_chemical_formula_sum "Si O2"
_cell_formula_units_Z 40
_cell_length_a 5.235004
_cell_length_b 16.300544
_cell_length_c 18.706544
_cell_angle_alpha 90.000000
_cell_angle_beta 90.000000
_cell_angle_gamma 90.000000
_cell_volume 1596.293246
_symmetry_space_group_name_H-M "P N M A"
_symmetry_group_IT_number 62
_symmetry_cell_setting 'orthorhombic'
loop_
_space_group_symop_operation_xyz
x,y,z
1/2-x,-y,1/2+z
1/2+x,1/2-y,1/2-z
-x,1/2+y,-z
-x,-y,-z
1/2+x,y,1/2-z
1/2-x,1/2+y,1/2+z
x,1/2-y,z
loop_
_atom_site_type_symbol
_atom_site_label
_atom_site_fract_x
_atom_site_fract_y
_atom_site_fract_z
Si Si1 0.656818 0.843701 0.217699
Si Si2 0.482481 0.519130 0.581669
Si Si3 0.975874 0.072649 0.585306
Si Si4 0.133381 0.655555 0.564326
Si Si5 0.406933 0.844526 0.785447
O O1 0.926576 0.886576 0.237423
O O2 0.686964 0.750000 0.241190
O O3 0.590603 0.848536 0.133443
O O4 0.500000 0.500000 0.500000
O O5 0.762486 0.495044 0.611039
O O6 0.402740 0.615460 0.591176
O O7 0.248106 0.462643 0.609858
O O8 0.971496 0.100216 0.501872
O O9 0.181963 0.750000 0.542079
O O10 0.930588 0.648740 0.628665
O O11 0.146534 0.886960 0.756612
O O12 0.399092 0.750000 0.761143
#
# Coordination Sequence:
#
# PCOD8254171 Si02
#       5
#     8   8   8   8   8
#     4  10  21  39  63  93 129 164 202 255 310 360
#     4  10  22  40  60  87 125 158 192 253 312 354
#     4  11  22  41  63  88 122 161 203 244 302 371
#     4  10  21  39  64  89 113 153 206 249 293 357
#     4   9  19  35  53  77 111 144 178 231 289 332
#
# _framework density 25.058052
#
# number of rings (size 3 to 8) (size 9 to 14) (size 15 to 20)
#    0.000    2.000    0.000    4.200    0.000    4.800 
#    0.000   26.000    0.000    0.000    0.000    0.000 
#    0.000    0.000    0.000    0.000    0.000    0.000 
#
# Total GULP energy -495532.985300 kJ/mol
# GULP energy per Si atom -12388.324632 kJ/mol
# Density = 2.500102 g / cm^3
# Si number density = 25.058052 Si / 1000 Ang^3
#
#
#
# Elastic Constant Matrix: (Units=GPa)
#
#
# Indices 1 2 3 4 5 6 
#
# 1 176.4545 22.5582 26.6890 0.0000 0.0000 0.0000
# 2 22.5582 88.3174 -4.8122 0.0000 0.0000 0.0000
# 3 26.6890 -4.8122 70.4742 0.0000 0.0000 0.0000
# 4 0.0000 0.0000 0.0000 15.5993 0.0000 0.0000
# 5 0.0000 0.0000 0.0000 0.0000 33.7876 0.0000
# 6 0.0000 0.0000 0.0000 0.0000 0.0000 18.5879
#
#
#
# Elastic Compliance Matrix: (Units=1/GPa)
#
#
# Indices 1 2 3 4 5 6 
#
# 1 0.006266 -0.001736 -0.002492 0.000000 0.000000 0.000000
# 2 -0.001736 0.011846 0.001466 0.000000 0.000000 0.000000
# 3 -0.002492 0.001466 0.015233 0.000000 0.000000 0.000000
# 4 0.000000 0.000000 0.000000 0.064105 0.000000 0.000000
# 5 0.000000 0.000000 0.000000 0.000000 0.029597 0.000000
# 6 0.000000 0.000000 0.000000 0.000000 0.000000 0.053798
#
#
# Mechanical properties :
#
#
# Convention : Reuss Voigt Hill
#
# Bulk Modulus (GPa) = 35.94179 47.12401 41.53290
# Shear Modulus (GPa) = 25.55680 32.98238 29.26959
#
# Velocity S-wave (km/s) = 3.19706 3.63194 3.42141
# Velocity P-wave (km/s) = 5.29177 6.03612 5.67616
#
# Compressibility (1/GPa) = 0.02782277
#
# Stress axis : x y z
#
# Youngs Moduli (GPa) = 159.59159 84.41545 65.64571
#
# Poissons Ratio (x) = 0.14656 0.16356
# Poissons Ratio (y) = 0.27709 -0.09626
# Poissons Ratio (z) = 0.39763 -0.12379
#
# Static dielectric constant tensor:
#      x y z
#    x 6.458950 0.000000 0.000000 
#    y 0.000000 6.101830 0.000000 
#    z 0.000000 0.000000 4.232930 
# 
# 
# High freq. dielectric constant tensor:
#      x y z
#    x 2.016080 0.000000 0.000000 
#    y 0.000000 1.973040 0.000000 
#    z 0.000000 0.000000 1.990100 
# 
# From -- ./inp_files/25248.got.cif
#   From: 2010.03.12/outbox.cif.g09.slc.cpg/sg62_13_cif.got.tgz:25248.got - 2010.04.10 19:12:36.
