data_PCOD8254139
_publ_section_title
;
Structure prediction by ZEFSAII (Michael W. Deem and Ramdas Pophale) SiO2 
 PCOD8254139
Probable space group: P N M A
;
_chemical_formula_sum "Si O2"
_cell_formula_units_Z 48
_cell_length_a 18.800605
_cell_length_b 8.748881
_cell_length_c 15.109508
_cell_angle_alpha 90.000000
_cell_angle_beta 90.000000
_cell_angle_gamma 90.000000
_cell_volume 2485.276180
_symmetry_space_group_name_H-M "P N M A"
_symmetry_group_IT_number 62
_symmetry_cell_setting 'orthorhombic'
loop_
_space_group_symop_operation_xyz
x,y,z
1/2-x,-y,1/2+z
1/2+x,1/2-y,1/2-z
-x,1/2+y,-z
-x,-y,-z
1/2+x,y,1/2-z
1/2-x,1/2+y,1/2+z
x,1/2-y,z
loop_
_atom_site_type_symbol
_atom_site_label
_atom_site_fract_x
_atom_site_fract_y
_atom_site_fract_z
Si Si1 0.576888 0.928767 0.006806
Si Si2 0.666830 0.925454 0.647031
Si Si3 0.922566 0.570755 0.997242
Si Si4 0.829714 0.928071 0.658494
Si Si5 0.172778 0.570559 0.153408
Si Si6 0.821084 0.073972 0.347200
O O1 0.572484 0.750000 0.027727
O O2 0.617701 0.012495 0.084605
O O3 0.615778 0.961473 0.914354
O O4 0.500000 0.000000 0.000000
O O5 0.648147 0.750000 0.625044
O O6 0.749410 0.959344 0.626626
O O7 0.650362 0.964786 0.749282
O O8 0.618907 0.034138 0.587589
O O9 0.929803 0.750000 0.987119
O O10 0.881211 0.506921 0.913418
O O11 0.000000 0.500000 0.000000
O O12 0.842463 0.750000 0.676208
O O13 0.846498 0.016838 0.748394
O O14 0.163324 0.750000 0.145686
O O15 0.253301 0.527569 0.127366
O O16 0.795899 0.250000 0.350654
#
# Coordination Sequence:
#
# PCOD8254139 Si02
#       6
#     8   8   8   8   8   8
#     4  11  23  38  57  84 119 157 197 239 288 344
#     4   9  19  38  62  87 114 147 191 239 288 341
#     4  12  25  40  58  83 118 156 194 237 288 344
#     4  10  21  39  62  87 117 152 190 236 288 342
#     4  11  22  38  62  89 115 147 191 240 288 342
#     4   9  20  39  62  86 114 151 192 237 287 339
#
# _framework density 19.313749000000001
#
# number of rings (size 3 to 8) (size 9 to 14) (size 15 to 20)
#    0.000    1.667    0.000    6.000    0.000    8.667 
#    0.000    5.000    0.000    0.000    0.000    0.000 
#    0.000    0.000    0.000    0.000    0.000    0.000 
#
# Total GULP energy -595439.831796 kJ/mol
# GULP energy per Si atom -12404.996496 kJ/mol
# Density = 1.926979 g / cm^3
# Si number density = 19.313749 Si / 1000 Ang^3
#
#
#
# Elastic Constant Matrix: (Units=GPa)
#
#
# Indices 1 2 3 4 5 6 
#
# 1 132.3896 69.2300 81.4952 0.0000 0.0000 0.0000
# 2 69.2300 137.6192 55.2670 0.0000 0.0000 0.0000
# 3 81.4952 55.2670 108.1856 0.0000 0.0000 0.0000
# 4 0.0000 0.0000 0.0000 35.0067 0.0000 0.0000
# 5 0.0000 0.0000 0.0000 0.0000 -124.8489 0.0000
# 6 0.0000 0.0000 0.0000 0.0000 0.0000 36.5612
#
#
#
# Elastic Compliance Matrix: (Units=1/GPa)
#
#
# Indices 1 2 3 4 5 6 
#
# 1 0.015616 -0.003940 -0.009751 0.000000 0.000000 0.000000
# 2 -0.003940 0.010136 -0.002210 0.000000 0.000000 0.000000
# 3 -0.009751 -0.002210 0.017717 0.000000 0.000000 0.000000
# 4 0.000000 0.000000 0.000000 0.028566 0.000000 0.000000
# 5 0.000000 0.000000 0.000000 0.000000 -0.008010 0.000000
# 6 0.000000 0.000000 0.000000 0.000000 0.000000 0.027351
#
#
# Mechanical properties :
#
#
# Convention : Reuss Voigt Hill
#
# Bulk Modulus (GPa) = 85.70364 87.79764 86.75064
# Shear Modulus (GPa) = 39.34913 0.82395 20.08654
#
# Velocity S-wave (km/s) = 4.51861 0.65387 3.22842
# Velocity P-wave (km/s) = 8.46726 6.79171 7.67535
#
# Compressibility (1/GPa) = 0.01166812
#
# Stress axis : x y z
#
# Youngs Moduli (GPa) = 64.03726 98.65850 56.44146
#
# Poissons Ratio (x) = 0.38870 0.55034
# Poissons Ratio (y) = 0.25230 0.12474
# Poissons Ratio (z) = 0.62440 0.21805
#
# Static dielectric constant tensor:
#      x y z
#    x 3.438850 0.000000 0.000000 
#    y 0.000000 3.635340 0.000000 
#    z 0.000000 0.000000 3.707220 
# 
# 
# High freq. dielectric constant tensor:
#      x y z
#    x 1.750260 0.000000 0.000000 
#    y 0.000000 1.761390 0.000000 
#    z 0.000000 0.000000 1.767080 
# 
# From -- ./inp_files/20036.got.cif
#   From: 2010.03.12/outbox.cif.g09.slc.cpg/sg62_11_cif.got.tgz:20036.got - 2010.04.10 19:12:36.
