data_PCOD8254154
_publ_section_title
;
Structure prediction by ZEFSAII (Michael W. Deem and Ramdas Pophale) SiO2 
 PCOD8254154
Probable space group: P N M A
;
_chemical_formula_sum "Si O2"
_cell_formula_units_Z 64
_cell_length_a 14.807144
_cell_length_b 9.115840
_cell_length_c 23.382653
_cell_angle_alpha 90.000000
_cell_angle_beta 90.000000
_cell_angle_gamma 90.000000
_cell_volume 3156.180110
_symmetry_space_group_name_H-M "P N M A"
_symmetry_group_IT_number 62
_symmetry_cell_setting 'orthorhombic'
loop_
_space_group_symop_operation_xyz
x,y,z
1/2-x,-y,1/2+z
1/2+x,1/2-y,1/2-z
-x,1/2+y,-z
-x,-y,-z
1/2+x,y,1/2-z
1/2-x,1/2+y,1/2+z
x,1/2-y,z
loop_
_atom_site_type_symbol
_atom_site_label
_atom_site_fract_x
_atom_site_fract_y
_atom_site_fract_z
Si Si1 0.936364 0.580565 0.245190
Si Si2 0.270192 0.077401 0.750758
Si Si3 0.266408 0.083120 0.019478
Si Si4 0.810542 0.913767 0.862104
Si Si5 0.512947 0.914793 0.638398
Si Si6 0.578823 0.920487 0.159808
Si Si7 0.424787 0.924371 0.961376
Si Si8 0.573391 0.416957 0.536619
O O1 0.942225 0.750000 0.226702
O O2 0.833034 0.524130 0.242977
O O3 0.992148 0.481872 0.201511
O O4 0.984053 0.558653 0.306608
O O5 0.276195 0.250000 0.748685
O O6 0.335783 0.022637 0.802023
O O7 0.304512 0.024336 0.689802
O O8 0.303351 0.250000 0.012601
O O9 0.257102 0.042737 0.086568
O O10 0.170832 0.068615 0.989877
O O11 0.329846 0.965130 0.989672
O O12 0.787791 0.750000 0.840092
O O13 0.911963 0.916802 0.887506
O O14 0.551123 0.750000 0.640830
O O15 0.578889 0.011900 0.599501
O O16 0.592803 0.750000 0.143105
O O17 0.571847 0.017513 0.103275
O O18 0.438268 0.750000 0.961175
O O19 0.500000 0.000000 0.000000
O O20 0.500000 0.500000 0.500000
O O21 0.541803 0.250000 0.542111
#
# Coordination Sequence:
#
# PCOD8254154 Si02
#       8
#     8   8   8   8   8   8   8   8
#     4  10  22  40  63  92 122 162 207 252 316 380
#     4  10  22  39  63  94 125 162 207 255 315 382
#     4  10  23  44  65  91 128 171 214 264 320 374
#     4  10  21  39  62  90 126 162 205 260 317 375
#     4  11  22  38  59  90 128 165 207 253 310 376
#     4  10  22  43  66  93 133 169 209 266 320 377
#     4  12  28  48  70  95 126 169 223 276 329 385
#     4  11  22  38  61  90 129 170 209 255 312 377
#
# _framework density 20.277676
#
# number of rings (size 3 to 8) (size 9 to 14) (size 15 to 20)
#    0.000    1.500    2.500    1.875    3.500    3.500 
#    0.000    0.000    0.000    0.000    0.000    0.000 
#    0.000    0.000    0.000    0.000    0.000    0.000 
#
# Total GULP energy -793648.170537 kJ/mol
# GULP energy per Si atom -12400.752665 kJ/mol
# Density = 2.023152 g / cm^3
# Si number density = 20.277676 Si / 1000 Ang^3
#
#
#
# Elastic Constant Matrix: (Units=GPa)
#
#
# Indices 1 2 3 4 5 6 
#
# 1 97.7961 49.1355 49.7103 0.0000 0.0000 0.0000
# 2 49.1355 110.0003 66.6019 0.0000 0.0000 0.0000
# 3 49.7103 66.6019 137.1824 0.0000 0.0000 0.0000
# 4 0.0000 0.0000 0.0000 38.7285 0.0000 0.0000
# 5 0.0000 0.0000 0.0000 0.0000 30.5700 0.0000
# 6 0.0000 0.0000 0.0000 0.0000 0.0000 26.2100
#
#
#
# Elastic Compliance Matrix: (Units=1/GPa)
#
#
# Indices 1 2 3 4 5 6 
#
# 1 0.013940 -0.004488 -0.002873 0.000000 0.000000 0.000000
# 2 -0.004488 0.014320 -0.005326 0.000000 0.000000 0.000000
# 3 -0.002873 -0.005326 0.010917 0.000000 0.000000 0.000000
# 4 0.000000 0.000000 0.000000 0.025821 0.000000 0.000000
# 5 0.000000 0.000000 0.000000 0.000000 0.032712 0.000000
# 6 0.000000 0.000000 0.000000 0.000000 0.000000 0.038153
#
#
# Mechanical properties :
#
#
# Convention : Reuss Voigt Hill
#
# Bulk Modulus (GPa) = 72.44415 75.09714 73.77065
# Shear Modulus (GPa) = 30.14994 31.07044 30.61019
#
# Velocity S-wave (km/s) = 3.86016 3.91864 3.88951
# Velocity P-wave (km/s) = 7.46133 7.58875 7.52531
#
# Compressibility (1/GPa) = 0.01380374
#
# Stress axis : x y z
#
# Youngs Moduli (GPa) = 71.73459 69.83058 91.60414
#
# Poissons Ratio (x) = 0.31337 0.26316
# Poissons Ratio (y) = 0.32191 0.48792
# Poissons Ratio (z) = 0.20608 0.37195
#
# Static dielectric constant tensor:
#      x y z
#    x 3.691420 0.000000 0.000000 
#    y 0.000000 3.568100 0.000000 
#    z 0.000000 0.000000 3.668570 
# 
# 
# High freq. dielectric constant tensor:
#      x y z
#    x 1.794660 0.000000 0.000000 
#    y 0.000000 1.787920 0.000000 
#    z 0.000000 0.000000 1.800490 
# 
# From -- ./inp_files/29913.got.cif
#   From: 2010.03.12/outbox.cif.g09.slc.cpg/sg62_15_cif.got.tgz:29913.got - 2010.04.10 19:12:36.
