data_PCOD8254226
_publ_section_title
;
Structure prediction by ZEFSAII (Michael W. Deem and Ramdas Pophale) SiO2 
 PCOD8254226
Probable space group: P N M A
;
_chemical_formula_sum "Si O2"
_cell_formula_units_Z 48
_cell_length_a 29.276674
_cell_length_b 13.419568
_cell_length_c 5.474158
_cell_angle_alpha 90.000000
_cell_angle_beta 90.000000
_cell_angle_gamma 90.000000
_cell_volume 2150.688933
_symmetry_space_group_name_H-M "P N M A"
_symmetry_group_IT_number 62
_symmetry_cell_setting 'orthorhombic'
loop_
_space_group_symop_operation_xyz
x,y,z
1/2-x,-y,1/2+z
1/2+x,1/2-y,1/2-z
-x,1/2+y,-z
-x,-y,-z
1/2+x,y,1/2-z
1/2-x,1/2+y,1/2+z
x,1/2-y,z
loop_
_atom_site_type_symbol
_atom_site_label
_atom_site_fract_x
_atom_site_fract_y
_atom_site_fract_z
Si Si1 0.399535 0.515942 0.803760
Si Si2 0.472494 0.634128 0.572197
Si Si3 0.313515 0.008649 0.531173
Si Si4 0.973898 0.134406 0.575922
Si Si5 0.345467 0.639663 0.148904
Si Si6 0.757621 0.639888 0.683806
O O1 0.427204 0.565504 0.576941
O O2 0.350927 0.463770 0.735907
O O3 0.427919 0.430167 0.939798
O O4 0.387696 0.610359 0.975477
O O5 0.459525 0.750000 0.557063
O O6 0.500434 0.603812 0.328708
O O7 0.497839 0.610145 0.830491
O O8 0.344297 0.944274 0.351330
O O9 0.270702 0.940038 0.610816
O O10 0.291710 0.109293 0.425263
O O11 0.960169 0.250000 0.584173
O O12 0.355702 0.750000 0.256223
O O13 0.296647 0.641243 0.017980
O O14 0.752258 0.750000 0.800293
#
# Coordination Sequence:
#
# PCOD8254226 Si02
#       6
#     8   8   8   8   8   8
#     4  11  24  37  62  94 127 160 215 267 322 380
#     4  10  22  41  65  93 127 174 219 263 325 394
#     4  11  22  39  62  91 125 164 211 267 320 394
#     4  10  23  42  65  92 131 175 216 263 324 394
#     4  10  22  39  62  89 122 160 204 265 322 377
#     4  10  21  40  62  87 120 163 211 258 319 390
#
# _framework density 22.318428999999998
#
# number of rings (size 3 to 8) (size 9 to 14) (size 15 to 20)
#    0.000    1.667    1.667    2.000    4.667    2.667 
#    0.000    0.833    0.000    0.000    0.000    0.000 
#    0.000    0.000    0.000    0.000    0.000    0.000 
#
# Total GULP energy -595021.449784 kJ/mol
# GULP energy per Si atom -12396.280204 kJ/mol
# Density = 2.226763 g / cm^3
# Si number density = 22.318429 Si / 1000 Ang^3
#
#
#
# Elastic Constant Matrix: (Units=GPa)
#
#
# Indices 1 2 3 4 5 6 
#
# 1 111.6632 60.4789 20.4826 0.0000 0.0000 0.0000
# 2 60.4789 84.9217 17.7436 0.0000 0.0000 0.0000
# 3 20.4826 17.7436 78.8719 0.0000 0.0000 0.0000
# 4 0.0000 0.0000 0.0000 23.2028 0.0000 0.0000
# 5 0.0000 0.0000 0.0000 0.0000 20.8061 0.0000
# 6 0.0000 0.0000 0.0000 0.0000 0.0000 24.6417
#
#
#
# Elastic Compliance Matrix: (Units=1/GPa)
#
#
# Indices 1 2 3 4 5 6 
#
# 1 0.014755 -0.010186 -0.001540 0.000000 0.000000 0.000000
# 2 -0.010186 0.019389 -0.001716 0.000000 0.000000 0.000000
# 3 -0.001540 -0.001716 0.013465 0.000000 0.000000 0.000000
# 4 0.000000 0.000000 0.000000 0.043098 0.000000 0.000000
# 5 0.000000 0.000000 0.000000 0.000000 0.048063 0.000000
# 6 0.000000 0.000000 0.000000 0.000000 0.000000 0.040582
#
#
# Mechanical properties :
#
#
# Convention : Reuss Voigt Hill
#
# Bulk Modulus (GPa) = 48.25658 52.54079 50.39868
# Shear Modulus (GPa) = 23.45818 25.51357 24.48587
#
# Velocity S-wave (km/s) = 3.24553 3.38474 3.31587
# Velocity P-wave (km/s) = 5.97607 6.23440 6.10660
#
# Compressibility (1/GPa) = 0.02072256
#
# Stress axis : x y z
#
# Youngs Moduli (GPa) = 67.77266 51.57640 74.26706
#
# Poissons Ratio (x) = 0.52538 0.11439
# Poissons Ratio (y) = 0.69036 0.12748
# Poissons Ratio (z) = 0.10439 0.08853
#
# Static dielectric constant tensor:
#      x y z
#    x 3.890650 0.000000 0.000000 
#    y 0.000000 4.135520 0.000000 
#    z 0.000000 0.000000 3.990640 
# 
# 
# High freq. dielectric constant tensor:
#      x y z
#    x 1.877890 0.000000 0.000000 
#    y 0.000000 1.881100 0.000000 
#    z 0.000000 0.000000 1.871180 
# 
# From -- ./inp_files/3172.got.cif
#   From: 2010.03.12/outbox.cif.g09.slc.cpg/sg62_2_cif.got.tgz:3172.got - 2010.04.10 19:12:36.
