data_PCOD8254319
_publ_section_title
;
Structure prediction by ZEFSAII (Michael W. Deem and Ramdas Pophale) SiO2 
 PCOD8254319
Probable space group: P N M A
;
_chemical_formula_sum "Si O2"
_cell_formula_units_Z 48
_cell_length_a 14.655375
_cell_length_b 9.054311
_cell_length_c 18.582731
_cell_angle_alpha 90.000000
_cell_angle_beta 90.000000
_cell_angle_gamma 90.000000
_cell_volume 2465.822911
_symmetry_space_group_name_H-M "P N M A"
_symmetry_group_IT_number 62
_symmetry_cell_setting 'orthorhombic'
loop_
_space_group_symop_operation_xyz
x,y,z
1/2-x,-y,1/2+z
1/2+x,1/2-y,1/2-z
-x,1/2+y,-z
-x,-y,-z
1/2+x,y,1/2-z
1/2-x,1/2+y,1/2+z
x,1/2-y,z
loop_
_atom_site_type_symbol
_atom_site_label
_atom_site_fract_x
_atom_site_fract_y
_atom_site_fract_z
Si Si1 0.551027 0.076674 0.935128
Si Si2 0.909946 0.078286 0.026870
Si Si3 0.257995 0.423758 0.585914
Si Si4 0.045304 0.575611 0.287867
Si Si5 0.716388 0.076265 0.266021
Si Si6 0.095275 0.578125 0.808822
O O1 0.543299 0.250000 0.946838
O O2 0.656015 0.025137 0.933997
O O3 0.504671 0.026921 0.860840
O O4 0.500000 0.000000 0.000000
O O5 0.928718 0.250000 0.018734
O O6 0.887757 0.034672 0.108628
O O7 0.822391 0.031050 0.980274
O O8 0.000000 0.000000 0.000000
O O9 0.260948 0.250000 0.603394
O O10 0.294702 0.511330 0.654557
O O11 0.056744 0.750000 0.281828
O O12 0.988047 0.518803 0.219807
O O13 0.143810 0.499190 0.287096
O O14 0.698425 0.250000 0.267539
O O15 0.815394 0.036133 0.235951
O O16 0.070404 0.750000 0.800248
#
# Coordination Sequence:
#
# PCOD8254319 Si02
#       6
#     8   8   8   8   8   8
#     4  10  23  40  61  88 121 160 203 251 302 360
#     4  10  22  39  60  86 117 154 195 242 296 353
#     4  10  21  41  64  87 121 161 200 246 302 360
#     4  11  23  40  62  89 121 158 199 248 302 358
#     4  11  23  38  62  91 120 157 199 249 301 357
#     4  10  22  40  61  88 119 154 200 247 296 354
#
# _framework density 19.466118000000002
#
# number of rings (size 3 to 8) (size 9 to 14) (size 15 to 20)
#    0.000    1.667    1.667    2.000    2.333    6.667 
#    0.000    0.000    0.000    0.000    0.000    0.000 
#    0.000    0.000    0.000    0.000    0.000    0.000 
#
# Total GULP energy -595493.379580 kJ/mol
# GULP energy per Si atom -12406.112075 kJ/mol
# Density = 1.942181 g / cm^3
# Si number density = 19.466118 Si / 1000 Ang^3
#
#
#
# Elastic Constant Matrix: (Units=GPa)
#
#
# Indices 1 2 3 4 5 6 
#
# 1 100.3335 35.0246 30.7773 0.0000 0.0000 0.0000
# 2 35.0246 52.6487 33.7373 0.0000 0.0000 0.0000
# 3 30.7773 33.7373 112.5803 0.0000 0.0000 0.0000
# 4 0.0000 0.0000 0.0000 33.5417 0.0000 0.0000
# 5 0.0000 0.0000 0.0000 0.0000 41.0377 0.0000
# 6 0.0000 0.0000 0.0000 0.0000 0.0000 37.3355
#
#
#
# Elastic Compliance Matrix: (Units=1/GPa)
#
#
# Indices 1 2 3 4 5 6 
#
# 1 0.013111 -0.007953 -0.001201 0.000000 0.000000 0.000000
# 2 -0.007953 0.028332 -0.006316 0.000000 0.000000 0.000000
# 3 -0.001201 -0.006316 0.011104 0.000000 0.000000 0.000000
# 4 0.000000 0.000000 0.000000 0.029814 0.000000 0.000000
# 5 0.000000 0.000000 0.000000 0.000000 0.024368 0.000000
# 6 0.000000 0.000000 0.000000 0.000000 0.000000 0.026784
#
#
# Mechanical properties :
#
#
# Convention : Reuss Voigt Hill
#
# Bulk Modulus (GPa) = 46.28170 51.62677 48.95423
# Shear Modulus (GPa) = 29.12827 33.45121 31.28974
#
# Velocity S-wave (km/s) = 3.87247 4.14990 4.01358
# Velocity P-wave (km/s) = 6.61981 7.03854 6.83239
#
# Compressibility (1/GPa) = 0.02160681
#
# Stress axis : x y z
#
# Youngs Moduli (GPa) = 76.26987 35.29618 90.05992
#
# Poissons Ratio (x) = 0.28070 0.10818
# Poissons Ratio (y) = 0.60654 0.56883
# Poissons Ratio (z) = 0.09162 0.22294
#
# Static dielectric constant tensor:
#      x y z
#    x 3.853890 0.000000 0.000000 
#    y 0.000000 3.485410 0.000000 
#    z 0.000000 0.000000 3.750130 
# 
# 
# High freq. dielectric constant tensor:
#      x y z
#    x 1.773260 0.000000 0.000000 
#    y 0.000000 1.754020 0.000000 
#    z 0.000000 0.000000 1.767840 
# 
# From -- ./inp_files/23652.got.cif
#   From: 2010.03.12/outbox.cif.g09.slc.cpg/sg62_12_cif.got.tgz:23652.got - 2010.04.10 19:12:36.
