data_PCOD8254861
_publ_section_title
;
Structure prediction by ZEFSAII (Michael W. Deem and Ramdas Pophale) SiO2 
 PCOD8254861
Probable space group: P N M A
;
_chemical_formula_sum "Si O2"
_cell_formula_units_Z 40
_cell_length_a 10.036123
_cell_length_b 10.603034
_cell_length_c 15.835527
_cell_angle_alpha 90.000000
_cell_angle_beta 90.000000
_cell_angle_gamma 90.000000
_cell_volume 1685.111531
_symmetry_space_group_name_H-M "P N M A"
_symmetry_group_IT_number 62
_symmetry_cell_setting 'orthorhombic'
loop_
_space_group_symop_operation_xyz
x,y,z
1/2-x,-y,1/2+z
1/2+x,1/2-y,1/2-z
-x,1/2+y,-z
-x,-y,-z
1/2+x,y,1/2-z
1/2-x,1/2+y,1/2+z
x,1/2-y,z
loop_
_atom_site_type_symbol
_atom_site_label
_atom_site_fract_x
_atom_site_fract_y
_atom_site_fract_z
Si Si1 0.538692 0.890255 0.565791
Si Si2 0.675044 0.111008 0.833947
Si Si3 0.884855 0.114659 0.459454
Si Si4 0.436853 0.484484 0.729907
Si Si5 0.662641 0.442206 0.095101
O O1 0.491308 0.750000 0.535440
O O2 0.471272 0.919007 0.655285
O O3 0.696904 0.878695 0.577452
O O4 0.500000 0.000000 0.500000
O O5 0.647410 0.250000 0.873142
O O6 0.668213 0.998177 0.901061
O O7 0.825245 0.115008 0.798725
O O8 0.570605 0.087503 0.758163
O O9 0.821712 0.250000 0.433402
O O10 0.044903 0.128607 0.455920
O O11 0.839949 0.084865 0.556121
O O12 0.372836 0.563930 0.806450
#
# Coordination Sequence:
#
# PCOD8254861 Si02
#       5
#     8   8   8   8   8
#     4  12  28  49  74 106 146 193 244 304 369 435
#     4  11  24  43  70 103 143 187 237 294 356 424
#     4  10  23  43  73 106 142 186 236 290 356 431
#     4  11  24  46  70 105 141 190 243 295 357 427
#     4  10  23  45  71 104 143 187 239 299 359 427
#
# _framework density 23.737300000000001
#
# number of rings (size 3 to 8) (size 9 to 14) (size 15 to 20)
#    0.000    1.200    2.000    2.400    0.000   19.200 
#    0.000    0.000    0.000    0.000    0.000    0.000 
#    0.000    0.000    0.000    0.000    0.000    0.000 
#
# Total GULP energy -495653.827846 kJ/mol
# GULP energy per Si atom -12391.345696 kJ/mol
# Density = 2.368327 g / cm^3
# Si number density = 23.737300 Si / 1000 Ang^3
#
#
#
# Elastic Constant Matrix: (Units=GPa)
#
#
# Indices 1 2 3 4 5 6 
#
# 1 130.1901 32.6061 33.8813 0.0000 0.0000 0.0000
# 2 32.6061 216.4801 77.4558 0.0000 0.0000 0.0000
# 3 33.8813 77.4558 142.2379 0.0000 0.0000 0.0000
# 4 0.0000 0.0000 0.0000 29.5332 0.0000 0.0000
# 5 0.0000 0.0000 0.0000 0.0000 34.5716 0.0000
# 6 0.0000 0.0000 0.0000 0.0000 0.0000 -2.5787
#
#
#
# Elastic Compliance Matrix: (Units=1/GPa)
#
#
# Indices 1 2 3 4 5 6 
#
# 1 0.008267 -0.000671 -0.001604 0.000000 0.000000 0.000000
# 2 -0.000671 0.005792 -0.002994 0.000000 0.000000 0.000000
# 3 -0.001604 -0.002994 0.009043 0.000000 0.000000 0.000000
# 4 0.000000 0.000000 0.000000 0.033860 0.000000 0.000000
# 5 0.000000 0.000000 0.000000 0.000000 0.028926 0.000000
# 6 0.000000 0.000000 0.000000 0.000000 0.000000 -0.387787
#
#
# Mechanical properties :
#
#
# Convention : Reuss Voigt Hill
#
# Bulk Modulus (GPa) = 79.59653 86.31050 82.95351
# Shear Modulus (GPa) = -17.41099 35.30288 8.94594
#
# Velocity S-wave (km/s) = -2.71123 3.86065 1.94343
# Velocity P-wave (km/s) = 4.87893 7.50416 6.32916
#
# Compressibility (1/GPa) = 0.01256336
#
# Stress axis : x y z
#
# Youngs Moduli (GPa) = 120.96986 172.66051 110.58528
#
# Poissons Ratio (x) = 0.11592 0.17732
# Poissons Ratio (y) = 0.08122 0.33109
# Poissons Ratio (z) = 0.19398 0.51694
#
# Static dielectric constant tensor:
#      x y z
#    x 4.616020 0.000000 0.000000 
#    y 0.000000 4.105850 0.000000 
#    z 0.000000 0.000000 4.333240 
# 
# 
# High freq. dielectric constant tensor:
#      x y z
#    x 1.957960 0.000000 0.000000 
#    y 0.000000 1.930450 0.000000 
#    z 0.000000 0.000000 1.935740 
# 
# From -- ./inp_files/17785.got.cif
#   From: 2010.03.12/outbox.cif.g09.slc.cpg/sg62_9_cif.got.tgz:17785.got - 2010.04.10 19:12:36.
