data_PCOD8254941
_publ_section_title
;
Structure prediction by ZEFSAII (Michael W. Deem and Ramdas Pophale) SiO2 
 PCOD8254941
Probable space group: P N M A
;
_chemical_formula_sum "Si O2"
_cell_formula_units_Z 24
_cell_length_a 9.981953
_cell_length_b 17.564396
_cell_length_c 4.996097
_cell_angle_alpha 90.000000
_cell_angle_beta 90.000000
_cell_angle_gamma 90.000000
_cell_volume 875.950576
_symmetry_space_group_name_H-M "P N M A"
_symmetry_group_IT_number 62
_symmetry_cell_setting 'orthorhombic'
loop_
_space_group_symop_operation_xyz
x,y,z
1/2-x,-y,1/2+z
1/2+x,1/2-y,1/2-z
-x,1/2+y,-z
-x,-y,-z
1/2+x,y,1/2-z
1/2-x,1/2+y,1/2+z
x,1/2-y,z
loop_
_atom_site_type_symbol
_atom_site_label
_atom_site_fract_x
_atom_site_fract_y
_atom_site_fract_z
Si Si1 0.016272 0.377772 0.912407
Si Si2 0.912381 0.750000 0.443048
Si Si3 0.662044 0.490938 0.238171
Si Si4 0.144696 0.750000 0.819174
O O1 0.113343 0.325661 0.731714
O O2 0.103660 0.410506 0.159107
O O3 0.955663 0.446191 0.733965
O O4 0.896991 0.326321 0.026160
O O5 0.807627 0.750000 0.693772
O O6 0.068616 0.750000 0.535324
O O7 0.719509 0.481983 0.939732
#
# Coordination Sequence:
#
# PCOD8254941 Si02
#       4
#     8   4   8   4
#     4  10  26  46  71 109 149 199 252 312 380 452
#     4  11  26  48  73 114 148 202 250 314 378 451
#     4  11  26  45  77 107 152 195 254 312 380 448
#     4  11  26  44  79 104 154 196 254 312 378 451
#
# _framework density 27.398803999999998
#
# number of rings (size 3 to 8) (size 9 to 14) (size 15 to 20)
#    0.000    1.333    0.000    2.000   14.000    8.000 
#    0.000    0.000    0.000    0.000    0.000    0.000 
#    0.000    0.000    0.000    0.000    0.000    0.000 
#
# Total GULP energy -297702.716999 kJ/mol
# GULP energy per Si atom -12404.279875 kJ/mol
# Density = 2.733644 g / cm^3
# Si number density = 27.398804 Si / 1000 Ang^3
#
#
#
# Elastic Constant Matrix: (Units=GPa)
#
#
# Indices 1 2 3 4 5 6 
#
# 1 108.2604 33.1336 8.5909 0.0000 0.0000 0.0000
# 2 33.1336 144.8796 6.3188 0.0000 0.0000 0.0000
# 3 8.5909 6.3188 44.4281 0.0000 0.0000 0.0000
# 4 0.0000 0.0000 0.0000 9.3710 0.0000 0.0000
# 5 0.0000 0.0000 0.0000 0.0000 49.7974 0.0000
# 6 0.0000 0.0000 0.0000 0.0000 0.0000 7.3876
#
#
#
# Elastic Compliance Matrix: (Units=1/GPa)
#
#
# Indices 1 2 3 4 5 6 
#
# 1 0.010048 -0.002227 -0.001626 0.000000 0.000000 0.000000
# 2 -0.002227 0.007439 -0.000627 0.000000 0.000000 0.000000
# 3 -0.001626 -0.000627 0.022912 0.000000 0.000000 0.000000
# 4 0.000000 0.000000 0.000000 0.106712 0.000000 0.000000
# 5 0.000000 0.000000 0.000000 0.000000 0.020081 0.000000
# 6 0.000000 0.000000 0.000000 0.000000 0.000000 0.135362
#
#
# Mechanical properties :
#
#
# Convention : Reuss Voigt Hill
#
# Bulk Modulus (GPa) = 31.80909 43.73941 37.77425
# Shear Modulus (GPa) = 15.52822 29.94618 22.73720
#
# Velocity S-wave (km/s) = 2.38323 3.30960 2.88386
# Velocity P-wave (km/s) = 4.38268 5.53202 4.99055
#
# Compressibility (1/GPa) = 0.03143756
#
# Stress axis : x y z
#
# Youngs Moduli (GPa) = 99.52628 134.42769 43.64534
#
# Poissons Ratio (x) = 0.29936 0.07097
# Poissons Ratio (y) = 0.22164 0.02738
# Poissons Ratio (z) = 0.16184 0.08434
#
# Static dielectric constant tensor:
#      x y z
#    x 4.764770 0.000000 0.000000 
#    y 0.000000 5.339400 0.000000 
#    z 0.000000 0.000000 4.619080 
# 
# 
# High freq. dielectric constant tensor:
#      x y z
#    x 2.098340 0.000000 0.000000 
#    y 0.000000 2.126920 0.000000 
#    z 0.000000 0.000000 2.090400 
# 
# From -- ./inp_files/345.got.cif
#   From: 2010.03.12/outbox.cif.g09.slc.cpg/sg62_1_cif.got.tgz:345.got - 2010.04.10 19:12:36.
