data_PCOD8254308
_publ_section_title
;
Structure prediction by ZEFSAII (Michael W. Deem and Ramdas Pophale) SiO2 
 PCOD8254308
Probable space group: P N M A
;
_chemical_formula_sum "Si O2"
_cell_formula_units_Z 36
_cell_length_a 13.760472
_cell_length_b 14.459186
_cell_length_c 8.445583
_cell_angle_alpha 90.000000
_cell_angle_beta 90.000000
_cell_angle_gamma 90.000000
_cell_volume 1680.377314
_symmetry_space_group_name_H-M "P N M A"
_symmetry_group_IT_number 62
_symmetry_cell_setting 'orthorhombic'
loop_
_space_group_symop_operation_xyz
x,y,z
1/2-x,-y,1/2+z
1/2+x,1/2-y,1/2-z
-x,1/2+y,-z
-x,-y,-z
1/2+x,y,1/2-z
1/2-x,1/2+y,1/2+z
x,1/2-y,z
loop_
_atom_site_type_symbol
_atom_site_label
_atom_site_fract_x
_atom_site_fract_y
_atom_site_fract_z
Si Si1 0.539128 0.941855 0.146704
Si Si2 0.296885 0.562815 0.926395
Si Si3 0.347184 0.563496 0.293158
Si Si4 0.927487 0.250000 0.492505
Si Si5 0.294135 0.750000 0.473070
Si Si6 0.619228 0.250000 0.199605
O O1 0.464731 0.943890 0.294701
O O2 0.641672 0.989936 0.183431
O O3 0.551381 0.836073 0.102755
O O4 0.500000 0.000000 0.000000
O O5 0.187983 0.528009 0.887932
O O6 0.321181 0.664475 0.869216
O O7 0.314007 0.556870 0.111859
O O8 0.308201 0.658769 0.367630
O O9 0.813413 0.250000 0.444100
O O10 0.004278 0.250000 0.345809
O O11 0.374805 0.750000 0.610798
#
# Coordination Sequence:
#
# PCOD8254308 Si02
#       6
#     8   8   8   4   4   4
#     4  10  21  40  71  91 127 184 213 274 341 401
#     4  11  23  41  68 100 133 180 225 276 347 397
#     4  11  22  43  68 100 133 175 230 274 335 408
#     4  12  21  44  69  93 133 180 224 265 351 406
#     4  12  26  42  72  98 134 183 225 280 338 405
#     4  12  25  40  67 101 133 177 225 283 333 407
#
# _framework density 21.423760999999999
#
# number of rings (size 3 to 8) (size 9 to 14) (size 15 to 20)
#    0.000    0.889    6.667    2.667    3.111    0.000 
#    0.000    6.667    0.000    0.000    0.000    0.000 
#    0.000    0.000    0.000    0.000    0.000    0.000 
#
# Total GULP energy -446156.712313 kJ/mol
# GULP energy per Si atom -12393.242009 kJ/mol
# Density = 2.137500 g / cm^3
# Si number density = 21.423761 Si / 1000 Ang^3
#
#
#
# Elastic Constant Matrix: (Units=GPa)
#
#
# Indices 1 2 3 4 5 6 
#
# 1 99.1972 31.2155 31.3217 0.0000 0.0000 0.0000
# 2 31.2155 154.1306 25.4943 0.0000 0.0000 0.0000
# 3 31.3217 25.4943 81.1786 0.0000 0.0000 0.0000
# 4 0.0000 0.0000 0.0000 31.6682 0.0000 0.0000
# 5 0.0000 0.0000 0.0000 0.0000 42.7661 0.0000
# 6 0.0000 0.0000 0.0000 0.0000 0.0000 -9.5095
#
#
#
# Elastic Compliance Matrix: (Units=1/GPa)
#
#
# Indices 1 2 3 4 5 6 
#
# 1 0.011907 -0.001742 -0.004047 0.000000 0.000000 0.000000
# 2 -0.001742 0.007098 -0.001557 0.000000 0.000000 0.000000
# 3 -0.004047 -0.001557 0.014369 0.000000 0.000000 0.000000
# 4 0.000000 0.000000 0.000000 0.031577 0.000000 0.000000
# 5 0.000000 0.000000 0.000000 0.000000 0.023383 0.000000
# 6 0.000000 0.000000 0.000000 0.000000 0.000000 -0.105158
#
#
# Mechanical properties :
#
#
# Convention : Reuss Voigt Hill
#
# Bulk Modulus (GPa) = 53.52761 56.72992 55.12877
# Shear Modulus (GPa) = 1220.43821 29.41663 624.92742
#
# Velocity S-wave (km/s) = 23.89356 3.70954 17.09771
# Velocity P-wave (km/s) = 28.04002 6.69962 20.38538
#
# Compressibility (1/GPa) = 0.01868195
#
# Stress axis : x y z
#
# Youngs Moduli (GPa) = 83.98430 140.87728 69.59414
#
# Poissons Ratio (x) = 0.24542 0.28165
# Poissons Ratio (y) = 0.14631 0.10837
# Poissons Ratio (z) = 0.33989 0.21936
#
# Static dielectric constant tensor:
#      x y z
#    x 6.837410 0.000000 0.000000 
#    y 0.000000 3.222960 0.000000 
#    z 0.000000 0.000000 3.689100 
# 
# 
# High freq. dielectric constant tensor:
#      x y z
#    x 1.850530 0.000000 0.000000 
#    y 0.000000 1.860820 0.000000 
#    z 0.000000 0.000000 1.814800 
# 
# From -- ./inp_files/6052.got.cif
#   From: 2010.03.12/outbox.cif.g09.slc.cpg/sg62_4_cif.got.tgz:6052.got - 2010.04.10 19:12:36.
