data_PCOD8254807
_publ_section_title
;
Structure prediction by ZEFSAII (Michael W. Deem and Ramdas Pophale) SiO2 
 PCOD8254807
Probable space group: P N M A
;
_chemical_formula_sum "Si O2"
_cell_formula_units_Z 48
_cell_length_a 13.220094
_cell_length_b 15.628442
_cell_length_c 9.854843
_cell_angle_alpha 90.000000
_cell_angle_beta 90.000000
_cell_angle_gamma 90.000000
_cell_volume 2036.103912
_symmetry_space_group_name_H-M "P N M A"
_symmetry_group_IT_number 62
_symmetry_cell_setting 'orthorhombic'
loop_
_space_group_symop_operation_xyz
x,y,z
1/2-x,-y,1/2+z
1/2+x,1/2-y,1/2-z
-x,1/2+y,-z
-x,-y,-z
1/2+x,y,1/2-z
1/2-x,1/2+y,1/2+z
x,1/2-y,z
loop_
_atom_site_type_symbol
_atom_site_label
_atom_site_fract_x
_atom_site_fract_y
_atom_site_fract_z
Si Si1 0.363234 0.652795 0.169139
Si Si2 0.251890 0.443017 0.887974
Si Si3 0.361690 0.515662 0.656017
Si Si4 0.527378 0.848218 0.711417
Si Si5 0.056844 0.649572 0.485636
Si Si6 0.351622 0.155459 0.547068
O O1 0.387017 0.750000 0.211291
O O2 0.339967 0.601051 0.306699
O O3 0.459833 0.610172 0.093296
O O4 0.268855 0.648165 0.065883
O O5 0.299403 0.519662 0.796707
O O6 0.339243 0.373473 0.913000
O O7 0.214459 0.479402 0.029241
O O8 0.440829 0.591774 0.648590
O O9 0.407554 0.418575 0.637075
O O10 0.487704 0.750000 0.717049
O O11 0.623983 0.856265 0.612673
O O12 0.557877 0.883835 0.858840
O O13 0.044931 0.750000 0.488576
O O14 0.389662 0.250000 0.595888
#
# Coordination Sequence:
#
# PCOD8254807 Si02
#       6
#     8   8   8   8   8   8
#     4   9  20  41  68  95 131 176 228 286 339 403
#     4  11  26  43  66  97 137 182 231 281 341 404
#     4  11  26  44  66 103 136 183 232 282 341 401
#     4  10  23  41  69 105 142 181 221 281 347 409
#     4  10  23  43  69 102 137 180 227 282 349 407
#     4   9  20  42  67  95 133 179 227 275 336 401
#
# _framework density 23.574435000000001
#
# number of rings (size 3 to 8) (size 9 to 14) (size 15 to 20)
#    0.000    2.000    0.000    1.000    7.000    6.667 
#    0.000    6.667    0.000    0.000    0.000    0.000 
#    0.000    0.000    0.000    0.000    0.000    0.000 
#
# Total GULP energy -595063.403458 kJ/mol
# GULP energy per Si atom -12397.154239 kJ/mol
# Density = 2.352078 g / cm^3
# Si number density = 23.574435 Si / 1000 Ang^3
#
#
#
# Elastic Constant Matrix: (Units=GPa)
#
#
# Indices 1 2 3 4 5 6 
#
# 1 60.8522 21.6950 40.3620 0.0000 0.0000 0.0000
# 2 21.6950 80.5777 23.8497 0.0000 0.0000 0.0000
# 3 40.3620 23.8497 124.6401 0.0000 0.0000 0.0000
# 4 0.0000 0.0000 0.0000 34.2921 0.0000 0.0000
# 5 0.0000 0.0000 0.0000 0.0000 41.9716 0.0000
# 6 0.0000 0.0000 0.0000 0.0000 0.0000 14.4840
#
#
#
# Elastic Compliance Matrix: (Units=1/GPa)
#
#
# Indices 1 2 3 4 5 6 
#
# 1 0.022117 -0.004065 -0.006384 0.000000 0.000000 0.000000
# 2 -0.004065 0.013903 -0.001344 0.000000 0.000000 0.000000
# 3 -0.006384 -0.001344 0.010348 0.000000 0.000000 0.000000
# 4 0.000000 0.000000 0.000000 0.029161 0.000000 0.000000
# 5 0.000000 0.000000 0.000000 0.000000 0.023826 0.000000
# 6 0.000000 0.000000 0.000000 0.000000 0.000000 0.069042
#
#
# Mechanical properties :
#
#
# Convention : Reuss Voigt Hill
#
# Bulk Modulus (GPa) = 43.89664 48.65371 46.27518
# Shear Modulus (GPa) = 25.05305 30.16043 27.60674
#
# Velocity S-wave (km/s) = 3.26348 3.58071 3.42577
# Velocity P-wave (km/s) = 5.73247 6.14642 5.94305
#
# Compressibility (1/GPa) = 0.02278079
#
# Stress axis : x y z
#
# Youngs Moduli (GPa) = 45.21371 71.92861 96.64035
#
# Poissons Ratio (x) = 0.29241 0.61698
# Poissons Ratio (y) = 0.18381 0.12987
# Poissons Ratio (z) = 0.28866 0.09666
#
# Static dielectric constant tensor:
#      x y z
#    x 3.955620 0.000000 0.000000 
#    y 0.000000 4.428120 0.000000 
#    z 0.000000 0.000000 4.426920 
# 
# 
# High freq. dielectric constant tensor:
#      x y z
#    x 1.913770 0.000000 0.000000 
#    y 0.000000 1.938000 0.000000 
#    z 0.000000 0.000000 1.945940 
# 
# From -- ./inp_files/6473.got.cif
#   From: 2010.03.12/outbox.cif.g09.slc.cpg/sg62_4_cif.got.tgz:6473.got - 2010.04.10 19:12:36.
