data_PCOD8254419
_publ_section_title
;
Structure prediction by ZEFSAII (Michael W. Deem and Ramdas Pophale) SiO2 
 PCOD8254419
Probable space group: P N M A
;
_chemical_formula_sum "Si O2"
_cell_formula_units_Z 28
_cell_length_a 5.052333
_cell_length_b 10.762085
_cell_length_c 25.969046
_cell_angle_alpha 90.000000
_cell_angle_beta 90.000000
_cell_angle_gamma 90.000000
_cell_volume 1412.031485
_symmetry_space_group_name_H-M "P N M A"
_symmetry_group_IT_number 62
_symmetry_cell_setting 'orthorhombic'
loop_
_space_group_symop_operation_xyz
x,y,z
1/2-x,-y,1/2+z
1/2+x,1/2-y,1/2-z
-x,1/2+y,-z
-x,-y,-z
1/2+x,y,1/2-z
1/2-x,1/2+y,1/2+z
x,1/2-y,z
loop_
_atom_site_type_symbol
_atom_site_label
_atom_site_fract_x
_atom_site_fract_y
_atom_site_fract_z
Si Si1 0.077032 0.750000 0.519634
Si Si2 0.026502 0.545166 0.132832
Si Si3 0.519414 0.387163 0.116932
Si Si4 0.008545 0.750000 0.216099
Si Si5 0.923000 0.250000 0.951661
O O1 0.376486 0.750000 0.499400
O O2 0.033149 0.627502 0.555287
O O3 0.877166 0.750000 0.471808
O O4 0.308225 0.479877 0.141919
O O5 0.960783 0.627560 0.182368
O O6 0.032082 0.627640 0.081750
O O7 0.810154 0.439010 0.126428
O O8 0.501608 0.250000 0.143073
O O9 0.307749 0.750000 0.236460
#
# Coordination Sequence:
#
# PCOD8254419 Si02
#       5
#     4   8   8   4   4
#     4  10  22  35  52  89 118 163 200 233 266 332
#     4  11  22  39  62  83 119 153 188 248 290 344
#     4  10  22  38  56  85 117 169 192 225 281 336
#     4  11  24  43  68  94 110 138 188 245 310 351
#     4  11  22  34  54  89 116 157 206 238 288 311
#
# _framework density 19.829585999999999
#
# number of rings (size 3 to 8) (size 9 to 14) (size 15 to 20)
#    0.857    0.571    0.000    6.000    0.000   11.429 
#    0.000    0.000    0.000   17.143    0.000    0.000 
#    0.000    0.000    0.000    0.000    0.000    0.000 
#
# Total GULP energy -347272.592069 kJ/mol
# GULP energy per Si atom -12402.592574 kJ/mol
# Density = 1.978445 g / cm^3
# Si number density = 19.829586 Si / 1000 Ang^3
#
#
#
# Elastic Constant Matrix: (Units=GPa)
#
#
# Indices 1 2 3 4 5 6 
#
# 1 85.7788 24.0492 -0.0749 0.0000 0.0000 0.0000
# 2 24.0492 109.5082 29.3696 0.0000 0.0000 0.0000
# 3 -0.0749 29.3696 52.4468 0.0000 0.0000 0.0000
# 4 0.0000 0.0000 0.0000 1.9543 0.0000 0.0000
# 5 0.0000 0.0000 0.0000 0.0000 26.1623 0.0000
# 6 0.0000 0.0000 0.0000 0.0000 0.0000 37.5308
#
#
#
# Elastic Compliance Matrix: (Units=1/GPa)
#
#
# Indices 1 2 3 4 5 6 
#
# 1 0.012572 -0.003255 0.001840 0.000000 0.000000 0.000000
# 2 -0.003255 0.011588 -0.006494 0.000000 0.000000 0.000000
# 3 0.001840 -0.006494 0.022706 0.000000 0.000000 0.000000
# 4 0.000000 0.000000 0.000000 0.511691 0.000000 0.000000
# 5 0.000000 0.000000 0.000000 0.000000 0.038223 0.000000
# 6 0.000000 0.000000 0.000000 0.000000 0.000000 0.026645
#
#
# Mechanical properties :
#
#
# Convention : Reuss Voigt Hill
#
# Bulk Modulus (GPa) = 32.20589 39.38018 35.79303
# Shear Modulus (GPa) = 7.69715 26.08880 16.89298
#
# Velocity S-wave (km/s) = 1.97233 3.63112 2.92191
# Velocity P-wave (km/s) = 4.63286 6.12230 5.42890
#
# Compressibility (1/GPa) = 0.03105022
#
# Stress axis : x y z
#
# Youngs Moduli (GPa) = 79.54210 86.29548 44.04118
#
# Poissons Ratio (x) = 0.28085 -0.08106
# Poissons Ratio (y) = 0.25887 0.28600
# Poissons Ratio (z) = -0.14639 0.56039
#
# Static dielectric constant tensor:
#      x y z
#    x 3.500720 0.000000 0.000000 
#    y 0.000000 3.624710 0.000000 
#    z 0.000000 0.000000 3.356560 
# 
# 
# High freq. dielectric constant tensor:
#      x y z
#    x 1.788520 0.000000 0.000000 
#    y 0.000000 1.781820 0.000000 
#    z 0.000000 0.000000 1.748000 
# 
# From -- ./inp_files/28112.got.cif
#   From: 2010.03.12/outbox.cif.g09.slc.cpg/sg62_15_cif.got.tgz:28112.got - 2010.04.10 19:12:36.
