data_PCOD8254709
_publ_section_title
;
Structure prediction by ZEFSAII (Michael W. Deem and Ramdas Pophale) SiO2 
 PCOD8254709
Probable space group: P N M A
;
_chemical_formula_sum "Si O2"
_cell_formula_units_Z 28
_cell_length_a 14.708544
_cell_length_b 7.563891
_cell_length_c 12.940537
_cell_angle_alpha 90.000000
_cell_angle_beta 90.000000
_cell_angle_gamma 90.000000
_cell_volume 1439.684220
_symmetry_space_group_name_H-M "P N M A"
_symmetry_group_IT_number 62
_symmetry_cell_setting 'orthorhombic'
loop_
_space_group_symop_operation_xyz
x,y,z
1/2-x,-y,1/2+z
1/2+x,1/2-y,1/2-z
-x,1/2+y,-z
-x,-y,-z
1/2+x,y,1/2-z
1/2-x,1/2+y,1/2+z
x,1/2-y,z
loop_
_atom_site_type_symbol
_atom_site_label
_atom_site_fract_x
_atom_site_fract_y
_atom_site_fract_z
Si Si1 0.661062 0.250000 0.594798
Si Si2 0.975995 0.750000 0.264847
Si Si3 0.230405 0.945628 0.037011
Si Si4 0.314261 0.250000 0.729589
Si Si5 0.926925 0.050349 0.415661
O O1 0.562029 0.250000 0.648367
O O2 0.663212 0.424900 0.523965
O O3 0.743065 0.250000 0.677239
O O4 0.934687 0.576831 0.317977
O O5 0.084263 0.750000 0.273872
O O6 0.230463 0.750000 0.984353
O O7 0.200028 0.924573 0.157573
O O8 0.329628 0.030850 0.030495
O O9 0.941603 0.250000 0.377297
O O10 0.000000 0.000000 0.500000
#
# Coordination Sequence:
#
# PCOD8254709 Si02
#       5
#     4   4   8   4   8
#     4  12  22  42  71  90 135 180 211 278 326 385
#     4  12  24  42  66  96 135 172 219 268 324 400
#     4  10  22  43  62  94 134 170 214 270 326 388
#     4  10  24  46  61  98 136 168 222 272 322 395
#     4  12  21  39  69  99 127 166 224 278 326 370
#
# _framework density 19.448709999999998
#
# number of rings (size 3 to 8) (size 9 to 14) (size 15 to 20)
#    0.857    0.000    7.143    1.714    0.000    2.286 
#    5.143    0.000    0.000    0.000    0.000    0.000 
#    0.000    0.000    0.000    0.000    0.000    0.000 
#
# Total GULP energy -347181.339902 kJ/mol
# GULP energy per Si atom -12399.333568 kJ/mol
# Density = 1.940444 g / cm^3
# Si number density = 19.448710 Si / 1000 Ang^3
#
#
#
# Elastic Constant Matrix: (Units=GPa)
#
#
# Indices 1 2 3 4 5 6 
#
# 1 40.7848 3.8797 -15.6885 0.0000 0.0000 0.0000
# 2 3.8797 161.6147 32.9422 0.0000 0.0000 0.0000
# 3 -15.6885 32.9422 58.3896 0.0000 0.0000 0.0000
# 4 0.0000 0.0000 0.0000 33.5881 0.0000 0.0000
# 5 0.0000 0.0000 0.0000 0.0000 42.5777 0.0000
# 6 0.0000 0.0000 0.0000 0.0000 0.0000 20.1279
#
#
#
# Elastic Compliance Matrix: (Units=1/GPa)
#
#
# Indices 1 2 3 4 5 6 
#
# 1 0.028220 -0.002512 0.008999 0.000000 0.000000 0.000000
# 2 -0.002512 0.007215 -0.004746 0.000000 0.000000 0.000000
# 3 0.008999 -0.004746 0.022222 0.000000 0.000000 0.000000
# 4 0.000000 0.000000 0.000000 0.029772 0.000000 0.000000
# 5 0.000000 0.000000 0.000000 0.000000 0.023486 0.000000
# 6 0.000000 0.000000 0.000000 0.000000 0.000000 0.049682
#
#
# Mechanical properties :
#
#
# Convention : Reuss Voigt Hill
#
# Bulk Modulus (GPa) = 16.35581 33.67289 25.01435
# Shear Modulus (GPa) = 28.17003 35.23578 31.70291
#
# Velocity S-wave (km/s) = 3.80995 4.26106 4.04180
# Velocity P-wave (km/s) = 5.27089 6.44671 5.88822
#
# Compressibility (1/GPa) = 0.06114034
#
# Stress axis : x y z
#
# Youngs Moduli (GPa) = 35.43640 138.59754 45.00122
#
# Poissons Ratio (x) = 0.34813 -0.40498
# Poissons Ratio (y) = 0.08901 0.21355
# Poissons Ratio (z) = -0.31890 0.65772
#
# Static dielectric constant tensor:
#      x y z
#    x 3.437870 0.000000 0.000000 
#    y 0.000000 4.124430 0.000000 
#    z 0.000000 0.000000 3.427120 
# 
# 
# High freq. dielectric constant tensor:
#      x y z
#    x 1.757690 0.000000 0.000000 
#    y 0.000000 1.761700 0.000000 
#    z 0.000000 0.000000 1.745090 
# 
# From -- ./inp_files/12724.got.cif
#   From: 2010.03.12/outbox.cif.g09.slc.cpg/sg62_7_cif.got.tgz:12724.got - 2010.04.10 19:12:36.
