data_PCOD8254312
_publ_section_title
;
Structure prediction by ZEFSAII (Michael W. Deem and Ramdas Pophale) SiO2 
 PCOD8254312
Probable space group: P N M A
;
_chemical_formula_sum "Si O2"
_cell_formula_units_Z 40
_cell_length_a 9.004420
_cell_length_b 23.733008
_cell_length_c 9.337128
_cell_angle_alpha 90.000000
_cell_angle_beta 90.000000
_cell_angle_gamma 90.000000
_cell_volume 1995.362665
_symmetry_space_group_name_H-M "P N M A"
_symmetry_group_IT_number 62
_symmetry_cell_setting 'orthorhombic'
loop_
_space_group_symop_operation_xyz
x,y,z
1/2-x,-y,1/2+z
1/2+x,1/2-y,1/2-z
-x,1/2+y,-z
-x,-y,-z
1/2+x,y,1/2-z
1/2-x,1/2+y,1/2+z
x,1/2-y,z
loop_
_atom_site_type_symbol
_atom_site_label
_atom_site_fract_x
_atom_site_fract_y
_atom_site_fract_z
Si Si1 0.890063 0.315451 0.387471
Si Si2 0.836281 0.880319 0.699003
Si Si3 0.342480 0.395126 0.867190
Si Si4 0.140580 0.468611 0.067584
Si Si5 0.679303 0.074143 0.892357
O O1 0.854071 0.250000 0.376097
O O2 0.801815 0.351583 0.273017
O O3 0.854680 0.335952 0.548831
O O4 0.058547 0.328919 0.347584
O O5 0.911261 0.925736 0.806662
O O6 0.783226 0.911564 0.555905
O O7 0.273408 0.383321 0.710173
O O8 0.504062 0.424405 0.858335
O O9 0.225845 0.435964 0.943259
O O10 0.257340 0.511885 0.139070
O O11 0.000000 0.500000 0.000000
#
# Coordination Sequence:
#
# PCOD8254312 Si02
#       5
#     8   8   8   8   8
#     4  10  21  41  61  81 110 146 192 251 298 341
#     4  10  22  37  60  89 113 150 198 236 291 360
#     4  10  23  37  55  83 116 153 196 232 283 349
#     4  11  21  36  59  88 121 155 187 232 292 354
#     4  11  21  37  56  83 121 154 188 237 286 350
#
# _framework density 20.046479999999999
#
# number of rings (size 3 to 8) (size 9 to 14) (size 15 to 20)
#    0.000    1.600    0.000    4.800    0.000    8.000 
#    0.000    5.000    0.000    0.000    0.000    0.000 
#    0.000    0.000    0.000    0.000    0.000    0.000 
#
# Total GULP energy -495976.247448 kJ/mol
# GULP energy per Si atom -12399.406186 kJ/mol
# Density = 2.000085 g / cm^3
# Si number density = 20.046480 Si / 1000 Ang^3
#
#
#
# Elastic Constant Matrix: (Units=GPa)
#
#
# Indices 1 2 3 4 5 6 
#
# 1 84.4970 31.1666 41.1553 0.0000 0.0000 0.0000
# 2 31.1666 90.7476 36.2968 0.0000 0.0000 0.0000
# 3 41.1553 36.2968 129.4595 0.0000 0.0000 0.0000
# 4 0.0000 0.0000 0.0000 16.6328 0.0000 0.0000
# 5 0.0000 0.0000 0.0000 0.0000 22.5548 0.0000
# 6 0.0000 0.0000 0.0000 0.0000 0.0000 23.1898
#
#
#
# Elastic Compliance Matrix: (Units=1/GPa)
#
#
# Indices 1 2 3 4 5 6 
#
# 1 0.015008 -0.003656 -0.003746 0.000000 0.000000 0.000000
# 2 -0.003656 0.013302 -0.002567 0.000000 0.000000 0.000000
# 3 -0.003746 -0.002567 0.009635 0.000000 0.000000 0.000000
# 4 0.000000 0.000000 0.000000 0.060122 0.000000 0.000000
# 5 0.000000 0.000000 0.000000 0.000000 0.044336 0.000000
# 6 0.000000 0.000000 0.000000 0.000000 0.000000 0.043122
#
#
# Mechanical properties :
#
#
# Convention : Reuss Voigt Hill
#
# Bulk Modulus (GPa) = 55.53578 57.99351 56.76464
# Shear Modulus (GPa) = 23.64442 25.54785 24.59613
#
# Velocity S-wave (km/s) = 3.43808 3.57379 3.50659
# Velocity P-wave (km/s) = 6.59729 6.78392 6.69126
#
# Compressibility (1/GPa) = 0.01800641
#
# Stress axis : x y z
#
# Youngs Moduli (GPa) = 66.63222 75.17638 103.78774
#
# Poissons Ratio (x) = 0.27485 0.38878
# Poissons Ratio (y) = 0.24361 0.26645
# Poissons Ratio (z) = 0.24960 0.19300
#
# Static dielectric constant tensor:
#      x y z
#    x 3.650610 0.000000 0.000000 
#    y 0.000000 3.438980 0.000000 
#    z 0.000000 0.000000 3.856280 
# 
# 
# High freq. dielectric constant tensor:
#      x y z
#    x 1.793370 0.000000 0.000000 
#    y 0.000000 1.756240 0.000000 
#    z 0.000000 0.000000 1.798230 
# 
# From -- ./inp_files/4259.got.cif
#   From: 2010.03.12/outbox.cif.g09.slc.cpg/sg62_3_cif.got.tgz:4259.got - 2010.04.10 19:12:36.
