data_PCOD8254825
_publ_section_title
;
Structure prediction by ZEFSAII (Michael W. Deem and Ramdas Pophale) SiO2 
 PCOD8254825
Probable space group: P N M A
;
_chemical_formula_sum "Si O2"
_cell_formula_units_Z 40
_cell_length_a 5.139477
_cell_length_b 19.029984
_cell_length_c 17.218408
_cell_angle_alpha 90.000000
_cell_angle_beta 90.000000
_cell_angle_gamma 90.000000
_cell_volume 1684.032018
_symmetry_space_group_name_H-M "P N M A"
_symmetry_group_IT_number 62
_symmetry_cell_setting 'orthorhombic'
loop_
_space_group_symop_operation_xyz
x,y,z
1/2-x,-y,1/2+z
1/2+x,1/2-y,1/2-z
-x,1/2+y,-z
-x,-y,-z
1/2+x,y,1/2-z
1/2-x,1/2+y,1/2+z
x,1/2-y,z
loop_
_atom_site_type_symbol
_atom_site_label
_atom_site_fract_x
_atom_site_fract_y
_atom_site_fract_z
Si Si1 0.186025 0.831826 0.700361
Si Si2 0.854328 0.250000 0.998242
Si Si3 0.456062 0.891052 0.559292
Si Si4 0.700578 0.978349 0.064595
Si Si5 0.612899 0.887754 0.200782
Si Si6 0.861012 0.250000 0.603668
O O1 0.408094 0.851219 0.763313
O O2 0.202545 0.750000 0.677789
O O3 0.226078 0.877502 0.621844
O O4 0.561024 0.250000 0.967626
O O5 0.068249 0.250000 0.929516
O O6 0.879455 0.180793 0.051856
O O7 0.357574 0.912548 0.473162
O O8 0.624582 0.956098 0.590362
O O9 0.556904 0.950993 0.141091
O O10 0.500000 0.000000 0.000000
O O11 0.407473 0.894422 0.269599
O O12 0.576177 0.814950 0.157912
#
# Coordination Sequence:
#
# PCOD8254825 Si02
#       6
#     8   4   8   8   8   4
#     4  10  23  42  66 101 138 175 227 289 351 408
#     4  12  24  43  78 109 132 193 239 300 364 425
#     4  11  25  45  72 103 141 186 245 295 357 427
#     4  11  27  47  71 103 144 191 239 298 348 436
#     4  12  27  47  73 106 146 192 239 294 365 430
#     4  12  24  45  72 107 150 179 243 302 354 425
#
# _framework density 23.752516
#
# number of rings (size 3 to 8) (size 9 to 14) (size 15 to 20)
#    0.000    0.800    3.000    3.000    8.400    1.600 
#    0.000    0.000    0.000    0.000    0.000    0.000 
#    0.000    0.000    0.000    0.000    0.000    0.000 
#
# Total GULP energy -496207.499425 kJ/mol
# GULP energy per Si atom -12405.187486 kJ/mol
# Density = 2.369845 g / cm^3
# Si number density = 23.752516 Si / 1000 Ang^3
#
#
#
# Elastic Constant Matrix: (Units=GPa)
#
#
# Indices 1 2 3 4 5 6 
#
# 1 60.4463 4.0943 -8.4755 0.0000 0.0000 0.0000
# 2 4.0943 119.3778 37.7894 0.0000 0.0000 0.0000
# 3 -8.4755 37.7894 68.2434 0.0000 0.0000 0.0000
# 4 0.0000 0.0000 0.0000 -51.7846 0.0000 0.0000
# 5 0.0000 0.0000 0.0000 0.0000 48.0898 0.0000
# 6 0.0000 0.0000 0.0000 0.0000 0.0000 15.4944
#
#
#
# Elastic Compliance Matrix: (Units=1/GPa)
#
#
# Indices 1 2 3 4 5 6 
#
# 1 0.017062 -0.001523 0.002962 0.000000 0.000000 0.000000
# 2 -0.001523 0.010293 -0.005889 0.000000 0.000000 0.000000
# 3 0.002962 -0.005889 0.018282 0.000000 0.000000 0.000000
# 4 0.000000 0.000000 0.000000 -0.019311 0.000000 0.000000
# 5 0.000000 0.000000 0.000000 0.000000 0.020794 0.000000
# 6 0.000000 0.000000 0.000000 0.000000 0.000000 0.064540
#
#
# Mechanical properties :
#
#
# Convention : Reuss Voigt Hill
#
# Bulk Modulus (GPa) = 27.21935 34.98711 31.10323
# Shear Modulus (GPa) = 37.64889 16.67052 27.15971
#
# Velocity S-wave (km/s) = 3.98559 2.65210 3.38516
# Velocity P-wave (km/s) = 5.71527 4.91325 5.32937
#
# Compressibility (1/GPa) = 0.03673858
#
# Stress axis : x y z
#
# Youngs Moduli (GPa) = 58.60937 97.15197 54.69775
#
# Poissons Ratio (x) = 0.14796 -0.16203
# Poissons Ratio (y) = 0.08926 0.32211
# Poissons Ratio (z) = -0.17362 0.57212
#
# Static dielectric constant tensor:
#      x y z
#    x 3.882590 0.000000 0.000000 
#    y 0.000000 4.238640 0.000000 
#    z 0.000000 0.000000 4.788730 
# 
# 
# High freq. dielectric constant tensor:
#      x y z
#    x 1.937810 0.000000 0.000000 
#    y 0.000000 1.955650 0.000000 
#    z 0.000000 0.000000 1.944650 
# 
# From -- ./inp_files/21503.got.cif
#   From: 2010.03.12/outbox.cif.g09.slc.cpg/sg62_11_cif.got.tgz:21503.got - 2010.04.10 19:12:36.
