data_PCOD8254209
_publ_section_title
;
Structure prediction by ZEFSAII (Michael W. Deem and Ramdas Pophale) SiO2 
 PCOD8254209
Probable space group: P N M A
;
_chemical_formula_sum "Si O2"
_cell_formula_units_Z 48
_cell_length_a 19.958409
_cell_length_b 8.670920
_cell_length_c 14.914999
_cell_angle_alpha 90.000000
_cell_angle_beta 90.000000
_cell_angle_gamma 90.000000
_cell_volume 2581.156433
_symmetry_space_group_name_H-M "P N M A"
_symmetry_group_IT_number 62
_symmetry_cell_setting 'orthorhombic'
loop_
_space_group_symop_operation_xyz
x,y,z
1/2-x,-y,1/2+z
1/2+x,1/2-y,1/2-z
-x,1/2+y,-z
-x,-y,-z
1/2+x,y,1/2-z
1/2-x,1/2+y,1/2+z
x,1/2-y,z
loop_
_atom_site_type_symbol
_atom_site_label
_atom_site_fract_x
_atom_site_fract_y
_atom_site_fract_z
Si Si1 0.559131 0.069882 0.058886
Si Si2 0.697271 0.932204 0.000282
Si Si3 0.983711 0.071472 0.264552
Si Si4 0.039306 0.068960 0.917445
Si Si5 0.183117 0.568714 0.887712
Si Si6 0.661928 0.568926 0.808817
O O1 0.568117 0.250000 0.035532
O O2 0.542619 0.047505 0.164023
O O3 0.626431 0.975732 0.042980
O O4 0.500000 0.000000 0.000000
O O5 0.708242 0.750000 0.007804
O O6 0.755644 0.017754 0.052042
O O7 0.699493 0.994870 0.897214
O O8 0.974758 0.250000 0.238281
O O9 0.914328 0.006465 0.306534
O O10 0.999290 0.979748 0.173487
O O11 0.039350 0.250000 0.926215
O O12 0.115503 0.011276 0.920081
O O13 0.000000 0.000000 0.000000
O O14 0.172277 0.750000 0.895928
O O15 0.199043 0.522854 0.783782
O O16 0.658663 0.750000 0.821781
#
# Coordination Sequence:
#
# PCOD8254209 Si02
#       6
#     8   8   8   8   8   8
#     4  11  21  35  57  87 120 155 191 234 290 343
#     4  11  21  37  58  85 116 153 195 240 289 343
#     4   9  18  36  58  82 114 153 189 230 286 342
#     4  11  22  39  63  89 114 149 193 240 289 342
#     4  10  21  40  60  83 114 153 194 236 289 346
#     4   8  16  34  58  78 107 149 187 226 284 343
#
# _framework density 18.596314
#
# number of rings (size 3 to 8) (size 9 to 14) (size 15 to 20)
#    0.000    2.000    1.667    4.000    0.000    1.333 
#    3.000    2.500    0.000    0.000    0.000    0.000 
#    0.000    0.000    0.000    0.000    0.000    0.000 
#
# Total GULP energy -595097.980082 kJ/mol
# GULP energy per Si atom -12397.874585 kJ/mol
# Density = 1.855399 g / cm^3
# Si number density = 18.596314 Si / 1000 Ang^3
#
#
#
# Elastic Constant Matrix: (Units=GPa)
#
#
# Indices 1 2 3 4 5 6 
#
# 1 67.0137 24.7515 60.2543 0.0000 0.0000 0.0000
# 2 24.7515 82.3926 41.4294 0.0000 0.0000 0.0000
# 3 60.2543 41.4294 150.9753 0.0000 0.0000 0.0000
# 4 0.0000 0.0000 0.0000 31.8587 0.0000 0.0000
# 5 0.0000 0.0000 0.0000 0.0000 36.1762 0.0000
# 6 0.0000 0.0000 0.0000 0.0000 0.0000 33.6953
#
#
#
# Elastic Compliance Matrix: (Units=1/GPa)
#
#
# Indices 1 2 3 4 5 6 
#
# 1 0.023801 -0.002754 -0.008743 0.000000 0.000000 0.000000
# 2 -0.002754 0.014398 -0.002852 0.000000 0.000000 0.000000
# 3 -0.008743 -0.002852 0.010896 0.000000 0.000000 0.000000
# 4 0.000000 0.000000 0.000000 0.031389 0.000000 0.000000
# 5 0.000000 0.000000 0.000000 0.000000 0.027642 0.000000
# 6 0.000000 0.000000 0.000000 0.000000 0.000000 0.029678
#
#
# Mechanical properties :
#
#
# Convention : Reuss Voigt Hill
#
# Bulk Modulus (GPa) = 49.02726 61.47245 55.24986
# Shear Modulus (GPa) = 28.85165 31.94248 30.39706
#
# Velocity S-wave (km/s) = 3.94315 4.14898 4.04737
# Velocity P-wave (km/s) = 6.86676 7.48867 7.18444
#
# Compressibility (1/GPa) = 0.02039681
#
# Stress axis : x y z
#
# Youngs Moduli (GPa) = 42.01560 69.45236 91.77946
#
# Poissons Ratio (x) = 0.19124 0.80245
# Poissons Ratio (y) = 0.11569 0.26177
# Poissons Ratio (z) = 0.36735 0.19809
#
# Static dielectric constant tensor:
#      x y z
#    x 2.277400 0.000000 0.000000 
#    y 0.000000 3.386260 0.000000 
#    z 0.000000 0.000000 3.796230 
# 
# 
# High freq. dielectric constant tensor:
#      x y z
#    x 1.704090 0.000000 0.000000 
#    y 0.000000 1.718970 0.000000 
#    z 0.000000 0.000000 1.737930 
# 
# From -- ./inp_files/19566.got.cif
#   From: 2010.03.12/outbox.cif.g09.slc.cpg/sg62_10_cif.got.tgz:19566.got - 2010.04.10 19:12:36.
