data_PCOD8254838
_publ_section_title
;
Structure prediction by ZEFSAII (Michael W. Deem and Ramdas Pophale) SiO2 
 PCOD8254838
Probable space group: P N M A
;
_chemical_formula_sum "Si O2"
_cell_formula_units_Z 36
_cell_length_a 14.645842
_cell_length_b 14.434970
_cell_length_c 8.032229
_cell_angle_alpha 90.000000
_cell_angle_beta 90.000000
_cell_angle_gamma 90.000000
_cell_volume 1698.111926
_symmetry_space_group_name_H-M "P N M A"
_symmetry_group_IT_number 62
_symmetry_cell_setting 'orthorhombic'
loop_
_space_group_symop_operation_xyz
x,y,z
1/2-x,-y,1/2+z
1/2+x,1/2-y,1/2-z
-x,1/2+y,-z
-x,-y,-z
1/2+x,y,1/2-z
1/2-x,1/2+y,1/2+z
x,1/2-y,z
loop_
_atom_site_type_symbol
_atom_site_label
_atom_site_fract_x
_atom_site_fract_y
_atom_site_fract_z
Si Si1 0.211072 0.438715 0.934979
Si Si2 0.392857 0.750000 0.988451
Si Si3 0.968462 0.250000 0.766314
Si Si4 0.633671 0.059355 0.194111
Si Si5 0.977899 0.549068 0.168949
Si Si6 0.258299 0.250000 0.776612
O O1 0.291028 0.513951 0.925365
O O2 0.130766 0.464314 0.800894
O O3 0.248827 0.338188 0.893758
O O4 0.171640 0.438027 0.119874
O O5 0.387941 0.661041 0.871052
O O6 0.491909 0.750000 0.077644
O O7 0.311568 0.750000 0.122872
O O8 0.860632 0.250000 0.790244
O O9 0.005612 0.158494 0.856605
O O10 0.540867 0.996645 0.187317
O O11 0.000000 0.500000 0.000000
#
# Coordination Sequence:
#
# PCOD8254838 Si02
#       6
#     8   4   4   8   8   4
#     4  11  22  43  71  98 135 180 224 287 343 402
#     4  12  27  44  67 101 143 178 228 287 336 413
#     4  12  24  43  68  99 132 184 222 280 343 403
#     4  11  25  43  68 102 136 179 232 279 346 407
#     4  10  23  42  68  99 135 178 226 281 346 404
#     4  12  23  43  69 100 135 178 226 283 343 406
#
# _framework density 21.200015
#
# number of rings (size 3 to 8) (size 9 to 14) (size 15 to 20)
#    0.000    0.889    4.444    2.000    3.111    5.333 
#    0.000    1.111    0.000    0.000    0.000    0.000 
#    0.000    0.000    0.000    0.000    0.000    0.000 
#
# Total GULP energy -446299.947798 kJ/mol
# GULP energy per Si atom -12397.220772 kJ/mol
# Density = 2.115176 g / cm^3
# Si number density = 21.200015 Si / 1000 Ang^3
#
#
#
# Elastic Constant Matrix: (Units=GPa)
#
#
# Indices 1 2 3 4 5 6 
#
# 1 85.9553 28.9062 18.2433 0.0000 0.0000 0.0000
# 2 28.9062 177.0952 38.5140 0.0000 0.0000 0.0000
# 3 18.2433 38.5140 69.5465 0.0000 0.0000 0.0000
# 4 0.0000 0.0000 0.0000 45.3042 0.0000 0.0000
# 5 0.0000 0.0000 0.0000 0.0000 31.9869 0.0000
# 6 0.0000 0.0000 0.0000 0.0000 0.0000 28.6544
#
#
#
# Elastic Compliance Matrix: (Units=1/GPa)
#
#
# Indices 1 2 3 4 5 6 
#
# 1 0.012674 -0.001530 -0.002477 0.000000 0.000000 0.000000
# 2 -0.001530 0.006605 -0.003256 0.000000 0.000000 0.000000
# 3 -0.002477 -0.003256 0.016832 0.000000 0.000000 0.000000
# 4 0.000000 0.000000 0.000000 0.022073 0.000000 0.000000
# 5 0.000000 0.000000 0.000000 0.000000 0.031263 0.000000
# 6 0.000000 0.000000 0.000000 0.000000 0.000000 0.034899
#
#
# Mechanical properties :
#
#
# Convention : Reuss Voigt Hill
#
# Bulk Modulus (GPa) = 46.33132 55.99156 51.16144
# Shear Modulus (GPa) = 34.23089 37.65134 35.94112
#
# Velocity S-wave (km/s) = 4.02265 4.21884 4.12191
# Velocity P-wave (km/s) = 6.59374 7.08519 6.84388
#
# Compressibility (1/GPa) = 0.02158367
#
# Stress axis : x y z
#
# Youngs Moduli (GPa) = 78.89989 151.41085 59.41077
#
# Poissons Ratio (x) = 0.23165 0.14719
# Poissons Ratio (y) = 0.12071 0.19345
# Poissons Ratio (z) = 0.19547 0.49302
#
# Static dielectric constant tensor:
#      x y z
#    x 4.969620 0.000000 0.000000 
#    y 0.000000 4.160030 0.000000 
#    z 0.000000 0.000000 3.559220 
# 
# 
# High freq. dielectric constant tensor:
#      x y z
#    x 1.853940 0.000000 0.000000 
#    y 0.000000 1.848260 0.000000 
#    z 0.000000 0.000000 1.814980 
# 
# From -- ./inp_files/6060.got.cif
#   From: 2010.03.12/outbox.cif.g09.slc.cpg/sg62_4_cif.got.tgz:6060.got - 2010.04.10 19:12:36.
