data_PCOD8254811
_publ_section_title
;
Structure prediction by ZEFSAII (Michael W. Deem and Ramdas Pophale) SiO2 
 PCOD8254811
Probable space group: P N M A
;
_chemical_formula_sum "Si O2"
_cell_formula_units_Z 56
_cell_length_a 14.877342
_cell_length_b 8.894159
_cell_length_c 21.240253
_cell_angle_alpha 90.000000
_cell_angle_beta 90.000000
_cell_angle_gamma 90.000000
_cell_volume 2810.540974
_symmetry_space_group_name_H-M "P N M A"
_symmetry_group_IT_number 62
_symmetry_cell_setting 'orthorhombic'
loop_
_space_group_symop_operation_xyz
x,y,z
1/2-x,-y,1/2+z
1/2+x,1/2-y,1/2-z
-x,1/2+y,-z
-x,-y,-z
1/2+x,y,1/2-z
1/2-x,1/2+y,1/2+z
x,1/2-y,z
loop_
_atom_site_type_symbol
_atom_site_label
_atom_site_fract_x
_atom_site_fract_y
_atom_site_fract_z
Si Si1 0.709201 0.928332 0.606054
Si Si2 0.238583 0.926919 0.265355
Si Si3 0.085958 0.924779 0.725098
Si Si4 0.474489 0.923749 0.434472
Si Si5 0.038472 0.575555 0.586813
Si Si6 0.058167 0.922750 0.193067
Si Si7 0.135875 0.426499 0.484278
O O1 0.697233 0.750000 0.612118
O O2 0.769525 0.973507 0.545949
O O3 0.760284 0.986614 0.668209
O O4 0.613439 0.004287 0.596739
O O5 0.241157 0.750000 0.278405
O O6 0.152792 0.973219 0.222926
O O7 0.324352 0.976960 0.225438
O O8 0.110903 0.750000 0.732781
O O9 0.036503 0.961337 0.660144
O O10 0.019996 0.971534 0.780718
O O11 0.455245 0.750000 0.448425
O O12 0.555445 0.941894 0.383241
O O13 0.500000 0.000000 0.500000
O O14 0.048741 0.750000 0.573512
O O15 0.124238 0.497610 0.553373
O O16 0.944934 0.511740 0.559688
O O17 0.037291 0.750000 0.210993
O O18 0.129751 0.250000 0.490872
#
# Coordination Sequence:
#
# PCOD8254811 Si02
#       7
#     8   8   8   8   8   8   8
#     4  11  22  39  62  90 121 159 205 253 309 370
#     4  11  23  39  61  89 120 158 203 251 308 371
#     4  11  22  37  60  88 120 155 195 250 305 360
#     4  11  24  43  65  90 123 163 208 259 311 371
#     4   9  19  35  54  83 119 154 194 243 298 356
#     4  10  23  42  63  88 122 162 207 258 311 373
#     4   9  19  35  56  82 116 155 196 242 294 356
#
# _framework density 19.924987999999999
#
# number of rings (size 3 to 8) (size 9 to 14) (size 15 to 20)
#    0.000    1.714    1.429    2.571    0.000    6.286 
#    0.000    7.143    0.000    0.000    0.000    0.000 
#    0.000    0.000    0.000    0.000    0.000    0.000 
#
# Total GULP energy -694412.140662 kJ/mol
# GULP energy per Si atom -12400.216798 kJ/mol
# Density = 1.987964 g / cm^3
# Si number density = 19.924988 Si / 1000 Ang^3
#
#
#
# Elastic Constant Matrix: (Units=GPa)
#
#
# Indices 1 2 3 4 5 6 
#
# 1 101.6585 39.3803 40.9873 0.0000 0.0000 0.0000
# 2 39.3803 74.0603 40.2561 0.0000 0.0000 0.0000
# 3 40.9873 40.2561 113.1687 0.0000 0.0000 0.0000
# 4 0.0000 0.0000 0.0000 36.4681 0.0000 0.0000
# 5 0.0000 0.0000 0.0000 0.0000 33.0482 0.0000
# 6 0.0000 0.0000 0.0000 0.0000 0.0000 27.6623
#
#
#
# Elastic Compliance Matrix: (Units=1/GPa)
#
#
# Indices 1 2 3 4 5 6 
#
# 1 0.013069 -0.005425 -0.002803 0.000000 0.000000 0.000000
# 2 -0.005425 0.018991 -0.004791 0.000000 0.000000 0.000000
# 3 -0.002803 -0.004791 0.011556 0.000000 0.000000 0.000000
# 4 0.000000 0.000000 0.000000 0.027421 0.000000 0.000000
# 5 0.000000 0.000000 0.000000 0.000000 0.030259 0.000000
# 6 0.000000 0.000000 0.000000 0.000000 0.000000 0.036150
#
#
# Mechanical properties :
#
#
# Convention : Reuss Voigt Hill
#
# Bulk Modulus (GPa) = 56.89150 58.90386 57.89768
# Shear Modulus (GPa) = 29.52573 30.65331 30.08952
#
# Velocity S-wave (km/s) = 3.85365 3.92654 3.89027
# Velocity P-wave (km/s) = 6.95814 7.08407 7.02138
#
# Compressibility (1/GPa) = 0.01757732
#
# Stress axis : x y z
#
# Youngs Moduli (GPa) = 76.51826 52.65575 86.53685
#
# Poissons Ratio (x) = 0.28567 0.24259
# Poissons Ratio (y) = 0.41514 0.41456
# Poissons Ratio (z) = 0.21451 0.25225
#
# Static dielectric constant tensor:
#      x y z
#    x 3.743580 0.000000 0.000000 
#    y 0.000000 3.619030 0.000000 
#    z 0.000000 0.000000 3.754660 
# 
# 
# High freq. dielectric constant tensor:
#      x y z
#    x 1.772770 0.000000 0.000000 
#    y 0.000000 1.780540 0.000000 
#    z 0.000000 0.000000 1.786350 
# 
# From -- ./inp_files/27235.got.cif
#   From: 2010.03.12/outbox.cif.g09.slc.cpg/sg62_14_cif.got.tgz:27235.got - 2010.04.10 19:12:36.
