data_PCOD8254600
_publ_section_title
;
Structure prediction by ZEFSAII (Michael W. Deem and Ramdas Pophale) SiO2 
 PCOD8254600
Probable space group: P N M A
;
_chemical_formula_sum "Si O2"
_cell_formula_units_Z 40
_cell_length_a 9.927889
_cell_length_b 22.875720
_cell_length_c 8.247921
_cell_angle_alpha 90.000000
_cell_angle_beta 90.000000
_cell_angle_gamma 90.000000
_cell_volume 1873.165617
_symmetry_space_group_name_H-M "P N M A"
_symmetry_group_IT_number 62
_symmetry_cell_setting 'orthorhombic'
loop_
_space_group_symop_operation_xyz
x,y,z
1/2-x,-y,1/2+z
1/2+x,1/2-y,1/2-z
-x,1/2+y,-z
-x,-y,-z
1/2+x,y,1/2-z
1/2-x,1/2+y,1/2+z
x,1/2-y,z
loop_
_atom_site_type_symbol
_atom_site_label
_atom_site_fract_x
_atom_site_fract_y
_atom_site_fract_z
Si Si1 0.985882 0.626232 0.564324
Si Si2 0.750273 0.947945 0.434177
Si Si3 0.250303 0.575779 0.436520
Si Si4 0.902440 0.750000 0.606889
Si Si5 0.515892 0.872862 0.557220
Si Si6 0.593353 0.750000 0.587955
O O1 0.106355 0.607213 0.447084
O O2 0.035891 0.625180 0.749321
O O3 0.861321 0.582096 0.547792
O O4 0.939274 0.691186 0.507949
O O5 0.786877 0.936603 0.248464
O O6 0.602615 0.924177 0.476846
O O7 0.752526 0.016888 0.459720
O O8 0.360738 0.619108 0.511152
O O9 0.745385 0.750000 0.653864
O O10 0.984700 0.750000 0.770880
O O11 0.566606 0.809839 0.487779
#
# Coordination Sequence:
#
# PCOD8254600 Si02
#       6
#     8   8   8   4   8   4
#     4  11  23  42  68  96 131 171 219 268 321 387
#     4  12  24  45  64  95 137 168 222 268 331 390
#     4  12  26  41  66  97 129 178 214 272 331 390
#     4  10  22  40  69  99 132 170 218 269 322 390
#     4  11  23  42  68  96 131 171 219 268 321 387
#     4  10  22  40  69  99 132 170 218 269 322 390
#
# _framework density 21.354225
#
# number of rings (size 3 to 8) (size 9 to 14) (size 15 to 20)
#    0.000    0.800    2.000    6.000    8.400    0.000 
#    0.000    6.000    0.000    0.000    0.000    0.000 
#    0.000    0.000    0.000    0.000    0.000    0.000 
#
# Total GULP energy -496212.547784 kJ/mol
# GULP energy per Si atom -12405.313695 kJ/mol
# Density = 2.130562 g / cm^3
# Si number density = 21.354225 Si / 1000 Ang^3
#
#
#
# Elastic Constant Matrix: (Units=GPa)
#
#
# Indices 1 2 3 4 5 6 
#
# 1 133.1101 62.7470 4.8584 0.0000 0.0000 0.0000
# 2 62.7470 143.3132 23.2794 0.0000 0.0000 0.0000
# 3 4.8584 23.2794 66.6455 0.0000 0.0000 0.0000
# 4 0.0000 0.0000 0.0000 20.7579 0.0000 0.0000
# 5 0.0000 0.0000 0.0000 0.0000 35.6043 0.0000
# 6 0.0000 0.0000 0.0000 0.0000 0.0000 45.2443
#
#
#
# Elastic Compliance Matrix: (Units=1/GPa)
#
#
# Indices 1 2 3 4 5 6 
#
# 1 0.009507 -0.004294 0.000807 0.000000 0.000000 0.000000
# 2 -0.004294 0.009336 -0.002948 0.000000 0.000000 0.000000
# 3 0.000807 -0.002948 0.015976 0.000000 0.000000 0.000000
# 4 0.000000 0.000000 0.000000 0.048174 0.000000 0.000000
# 5 0.000000 0.000000 0.000000 0.000000 0.028086 0.000000
# 6 0.000000 0.000000 0.000000 0.000000 0.000000 0.022102
#
#
# Mechanical properties :
#
#
# Convention : Reuss Voigt Hill
#
# Bulk Modulus (GPa) = 45.55989 58.31538 51.93763
# Shear Modulus (GPa) = 32.60113 37.13359 34.86736
#
# Velocity S-wave (km/s) = 3.91152 4.17458 4.04519
# Velocity P-wave (km/s) = 6.46387 7.11365 6.79653
#
# Compressibility (1/GPa) = 0.02194913
#
# Stress axis : x y z
#
# Youngs Moduli (GPa) = 105.18496 107.10688 62.59472
#
# Poissons Ratio (x) = 0.45987 -0.05049
# Poissons Ratio (y) = 0.45161 0.18455
# Poissons Ratio (z) = -0.08485 0.31578
#
# Static dielectric constant tensor:
#      x y z
#    x 3.863360 0.000000 0.000000 
#    y 0.000000 4.551880 0.000000 
#    z 0.000000 0.000000 3.522400 
# 
# 
# High freq. dielectric constant tensor:
#      x y z
#    x 1.855310 0.000000 0.000000 
#    y 0.000000 1.858060 0.000000 
#    z 0.000000 0.000000 1.811320 
# 
# From -- ./inp_files/4314.got.cif
#   From: 2010.03.12/outbox.cif.g09.slc.cpg/sg62_3_cif.got.tgz:4314.got - 2010.04.10 19:12:36.
