data_PCOD8254253
_publ_section_title
;
Structure prediction by ZEFSAII (Michael W. Deem and Ramdas Pophale) SiO2 
 PCOD8254253
Probable space group: P N M A
;
_chemical_formula_sum "Si O2"
_cell_formula_units_Z 64
_cell_length_a 14.195285
_cell_length_b 17.820622
_cell_length_c 11.950175
_cell_angle_alpha 90.000000
_cell_angle_beta 90.000000
_cell_angle_gamma 90.000000
_cell_volume 3023.021527
_symmetry_space_group_name_H-M "P N M A"
_symmetry_group_IT_number 62
_symmetry_cell_setting 'orthorhombic'
loop_
_space_group_symop_operation_xyz
x,y,z
1/2-x,-y,1/2+z
1/2+x,1/2-y,1/2-z
-x,1/2+y,-z
-x,-y,-z
1/2+x,y,1/2-z
1/2-x,1/2+y,1/2+z
x,1/2-y,z
loop_
_atom_site_type_symbol
_atom_site_label
_atom_site_fract_x
_atom_site_fract_y
_atom_site_fract_z
Si Si1 0.756841 0.895960 0.346755
Si Si2 0.302218 0.898669 0.515451
Si Si3 0.408634 0.664228 0.829075
Si Si4 0.015979 0.167625 0.092404
Si Si5 0.140475 0.560258 0.954761
Si Si6 0.748707 0.558423 0.756317
Si Si7 0.841964 0.334322 0.652543
Si Si8 0.546486 0.162722 0.917628
O O1 0.721393 0.897748 0.474344
O O2 0.693940 0.834181 0.281014
O O3 0.868617 0.879838 0.353303
O O4 0.731507 0.970907 0.277439
O O5 0.378441 0.834733 0.541806
O O6 0.232832 0.904332 0.622631
O O7 0.235940 0.882639 0.411952
O O8 0.362543 0.974431 0.494754
O O9 0.366738 0.750000 0.828962
O O10 0.483176 0.656710 0.727248
O O11 0.332646 0.599315 0.809696
O O12 0.456811 0.647536 0.948965
O O13 0.974406 0.250000 0.064557
O O14 0.957535 0.103339 0.028461
O O15 0.158478 0.567157 0.822172
O O16 0.842026 0.250000 0.605142
O O17 0.947797 0.366839 0.635581
O O18 0.561218 0.250000 0.891540
#
# Coordination Sequence:
#
# PCOD8254253 Si02
#       8
#     8   8   8   8   8   8   8   8
#     4  11  23  43  64  91 132 169 213 260 322 385
#     4  10  22  42  62  90 133 171 212 271 325 380
#     4   9  19  40  65  92 128 165 212 272 323 373
#     4  10  22  38  63  97 128 167 214 268 333 387
#     4  11  22  40  64  93 128 171 215 263 320 388
#     4  10  21  40  63  92 123 166 215 263 319 375
#     4  11  24  42  67  96 128 170 219 264 323 394
#     4  10  22  41  65  94 127 169 216 267 319 383
#
# _framework density 21.170873
#
# number of rings (size 3 to 8) (size 9 to 14) (size 15 to 20)
#    0.000    1.750    2.500    1.125    1.750    3.000 
#    6.750    4.375    0.000    0.000    0.000    0.000 
#    0.000    0.000    0.000    0.000    0.000    0.000 
#
# Total GULP energy -793153.777272 kJ/mol
# GULP energy per Si atom -12393.027770 kJ/mol
# Density = 2.112269 g / cm^3
# Si number density = 21.170873 Si / 1000 Ang^3
#
#
#
# Elastic Constant Matrix: (Units=GPa)
#
#
# Indices 1 2 3 4 5 6 
#
# 1 112.6705 47.5465 43.6839 0.0000 0.0000 0.0000
# 2 47.5465 81.7372 36.6390 0.0000 0.0000 0.0000
# 3 43.6839 36.6390 95.6251 0.0000 0.0000 0.0000
# 4 0.0000 0.0000 0.0000 22.0615 0.0000 0.0000
# 5 0.0000 0.0000 0.0000 0.0000 30.2328 0.0000
# 6 0.0000 0.0000 0.0000 0.0000 0.0000 32.7727
#
#
#
# Elastic Compliance Matrix: (Units=1/GPa)
#
#
# Indices 1 2 3 4 5 6 
#
# 1 0.012707 -0.005783 -0.003589 0.000000 0.000000 0.000000
# 2 -0.005783 0.017403 -0.004026 0.000000 0.000000 0.000000
# 3 -0.003589 -0.004026 0.013640 0.000000 0.000000 0.000000
# 4 0.000000 0.000000 0.000000 0.045328 0.000000 0.000000
# 5 0.000000 0.000000 0.000000 0.000000 0.033077 0.000000
# 6 0.000000 0.000000 0.000000 0.000000 0.000000 0.030513
#
#
# Mechanical properties :
#
#
# Convention : Reuss Voigt Hill
#
# Bulk Modulus (GPa) = 58.98548 60.64129 59.81338
# Shear Modulus (GPa) = 27.01006 27.82429 27.41717
#
# Velocity S-wave (km/s) = 3.57573 3.62922 3.60257
# Velocity P-wave (km/s) = 6.70596 6.80203 6.75416
#
# Compressibility (1/GPa) = 0.01695332
#
# Stress axis : x y z
#
# Youngs Moduli (GPa) = 78.69390 57.46110 73.31458
#
# Poissons Ratio (x) = 0.33230 0.26315
# Poissons Ratio (y) = 0.45509 0.29518
# Poissons Ratio (z) = 0.28246 0.23135
#
# Static dielectric constant tensor:
#      x y z
#    x 3.499010 0.000000 0.000000 
#    y 0.000000 3.765270 0.000000 
#    z 0.000000 0.000000 3.930100 
# 
# 
# High freq. dielectric constant tensor:
#      x y z
#    x 1.808610 0.000000 0.000000 
#    y 0.000000 1.828670 0.000000 
#    z 0.000000 0.000000 1.839960 
# 
# From -- ./inp_files/13604.got.cif
#   From: 2010.03.12/outbox.cif.g09.slc.cpg/sg62_7_cif.got.tgz:13604.got - 2010.04.10 19:12:36.
