data_PCOD8254180
_publ_section_title
;
Structure prediction by ZEFSAII (Michael W. Deem and Ramdas Pophale) SiO2 
 PCOD8254180
Probable space group: P N M A
;
_chemical_formula_sum "Si O2"
_cell_formula_units_Z 64
_cell_length_a 23.992339
_cell_length_b 14.280210
_cell_length_c 8.739945
_cell_angle_alpha 90.000000
_cell_angle_beta 90.000000
_cell_angle_gamma 90.000000
_cell_volume 2994.441844
_symmetry_space_group_name_H-M "P N M A"
_symmetry_group_IT_number 62
_symmetry_cell_setting 'orthorhombic'
loop_
_space_group_symop_operation_xyz
x,y,z
1/2-x,-y,1/2+z
1/2+x,1/2-y,1/2-z
-x,1/2+y,-z
-x,-y,-z
1/2+x,y,1/2-z
1/2-x,1/2+y,1/2+z
x,1/2-y,z
loop_
_atom_site_type_symbol
_atom_site_label
_atom_site_fract_x
_atom_site_fract_y
_atom_site_fract_z
Si Si1 0.204870 0.854989 0.925860
Si Si2 0.887637 0.991598 0.631933
Si Si3 0.694653 0.360692 0.271093
Si Si4 0.302966 0.142015 0.763143
Si Si5 0.581032 0.039352 0.787415
Si Si6 0.679325 0.142587 0.614057
Si Si7 0.579292 0.648488 0.631415
Si Si8 0.476254 0.437000 0.635390
O O1 0.226734 0.750000 0.958422
O O2 0.249132 0.902928 0.809048
O O3 0.145532 0.855236 0.846206
O O4 0.199006 0.902819 0.092531
O O5 0.857117 0.895082 0.672387
O O6 0.912540 0.970286 0.466716
O O7 0.844962 0.079827 0.634106
O O8 0.937249 0.005574 0.750410
O O9 0.697659 0.250000 0.274882
O O10 0.684982 0.397459 0.442793
O O11 0.324172 0.250000 0.767911
O O12 0.240523 0.134761 0.820322
O O13 0.637426 0.075079 0.706396
O O14 0.528681 0.105070 0.734139
O O15 0.558370 0.937204 0.733276
O O16 0.657595 0.250000 0.621017
O O17 0.557948 0.750000 0.692024
O O18 0.560561 0.641716 0.452109
O O19 0.500000 0.500000 0.500000
#
# Coordination Sequence:
#
# PCOD8254180 Si02
#       8
#     8   8   8   8   8   8   8   8
#     4   9  18  35  58  87 121 159 201 253 308 370
#     4  12  24  39  65  93 127 171 213 263 332 384
#     4  10  22  38  61  91 127 167 212 261 315 385
#     4  10  22  38  60  92 131 165 207 262 321 389
#     4  11  25  41  64  93 129 170 215 268 318 385
#     4  10  23  42  62  93 131 172 216 265 323 384
#     4  10  21  39  64  92 124 164 210 260 319 377
#     4  10  22  44  64  88 122 164 216 270 314 374
#
# _framework density 21.372931000000001
#
# number of rings (size 3 to 8) (size 9 to 14) (size 15 to 20)
#    0.000    1.750    1.250    2.625    3.500    2.500 
#    0.000    3.750    0.000    4.500    0.000    0.000 
#    0.000    0.000    0.000    0.000    0.000    0.000 
#
# Total GULP energy -793043.147487 kJ/mol
# GULP energy per Si atom -12391.299179 kJ/mol
# Density = 2.132429 g / cm^3
# Si number density = 21.372931 Si / 1000 Ang^3
#
#
#
# Elastic Constant Matrix: (Units=GPa)
#
#
# Indices 1 2 3 4 5 6 
#
# 1 112.0507 10.0590 35.3442 0.0000 0.0000 0.0000
# 2 10.0590 54.1510 20.7676 0.0000 0.0000 0.0000
# 3 35.3442 20.7676 89.8738 0.0000 0.0000 0.0000
# 4 0.0000 0.0000 0.0000 21.5792 0.0000 0.0000
# 5 0.0000 0.0000 0.0000 0.0000 43.2168 0.0000
# 6 0.0000 0.0000 0.0000 0.0000 0.0000 9.9775
#
#
#
# Elastic Compliance Matrix: (Units=1/GPa)
#
#
# Indices 1 2 3 4 5 6 
#
# 1 0.010196 -0.000391 -0.003919 0.000000 0.000000 0.000000
# 2 -0.000391 0.020278 -0.004532 0.000000 0.000000 0.000000
# 3 -0.003919 -0.004532 0.013715 0.000000 0.000000 0.000000
# 4 0.000000 0.000000 0.000000 0.046341 0.000000 0.000000
# 5 0.000000 0.000000 0.000000 0.000000 0.023139 0.000000
# 6 0.000000 0.000000 0.000000 0.000000 0.000000 0.100226
#
#
# Mechanical properties :
#
#
# Convention : Reuss Voigt Hill
#
# Bulk Modulus (GPa) = 37.72955 43.15745 40.44350
# Shear Modulus (GPa) = 20.79747 27.61499 24.20623
#
# Velocity S-wave (km/s) = 3.12280 3.59842 3.36901
# Velocity P-wave (km/s) = 5.54020 6.12382 5.83931
#
# Compressibility (1/GPa) = 0.02650442
#
# Stress axis : x y z
#
# Youngs Moduli (GPa) = 98.07858 49.31567 72.91132
#
# Poissons Ratio (x) = 0.01927 0.28577
# Poissons Ratio (y) = 0.03833 0.33043
# Poissons Ratio (z) = 0.38441 0.22350
#
# Static dielectric constant tensor:
#      x y z
#    x 4.123080 0.000000 0.000000 
#    y 0.000000 3.942900 0.000000 
#    z 0.000000 0.000000 4.016900 
# 
# 
# High freq. dielectric constant tensor:
#      x y z
#    x 1.844940 0.000000 0.000000 
#    y 0.000000 1.827260 0.000000 
#    z 0.000000 0.000000 1.839610 
# 
# From -- ./inp_files/9492.got.cif
#   From: 2010.03.12/outbox.cif.g09.slc.cpg/sg62_5_cif.got.tgz:9492.got - 2010.04.10 19:12:36.
