data_PCOD8254074
_publ_section_title
;
Structure prediction by ZEFSAII (Michael W. Deem and Ramdas Pophale) SiO2 
 PCOD8254074
Probable space group: P N M A
;
_chemical_formula_sum "Si O2"
_cell_formula_units_Z 48
_cell_length_a 14.631534
_cell_length_b 8.948933
_cell_length_c 19.874445
_cell_angle_alpha 90.000000
_cell_angle_beta 90.000000
_cell_angle_gamma 90.000000
_cell_volume 2602.292602
_symmetry_space_group_name_H-M "P N M A"
_symmetry_group_IT_number 62
_symmetry_cell_setting 'orthorhombic'
loop_
_space_group_symop_operation_xyz
x,y,z
1/2-x,-y,1/2+z
1/2+x,1/2-y,1/2-z
-x,1/2+y,-z
-x,-y,-z
1/2+x,y,1/2-z
1/2-x,1/2+y,1/2+z
x,1/2-y,z
loop_
_atom_site_type_symbol
_atom_site_label
_atom_site_fract_x
_atom_site_fract_y
_atom_site_fract_z
Si Si1 0.384270 0.426251 0.184733
Si Si2 0.924633 0.923330 0.455007
Si Si3 0.779439 0.420448 0.985343
Si Si4 0.002482 0.423441 0.799205
Si Si5 0.799012 0.422406 0.832640
Si Si6 0.565735 0.074928 0.553574
O O1 0.385533 0.250000 0.175510
O O2 0.422579 0.501545 0.117648
O O3 0.449926 0.471848 0.245211
O O4 0.280858 0.479234 0.200818
O O5 0.948015 0.750000 0.445016
O O6 0.828580 0.945001 0.493095
O O7 0.000000 0.000000 0.500000
O O8 0.807136 0.250000 0.999986
O O9 0.811949 0.466545 0.910618
O O10 0.830172 0.524875 0.039306
O O11 0.025948 0.250000 0.785746
O O12 0.893580 0.450604 0.793944
O O13 0.038673 0.475025 0.871751
O O14 0.767903 0.250000 0.828520
O O15 0.555288 0.250000 0.545454
O O16 0.500000 0.000000 0.500000
#
# Coordination Sequence:
#
# PCOD8254074 Si02
#       6
#     8   8   8   8   8   8
#     4  11  23  38  58  87 117 148 191 240 288 343
#     4  10  21  40  64  86 114 152 193 238 285 340
#     4   9  18  35  57  84 114 145 183 231 281 333
#     4  10  21  39  59  81 113 155 195 234 284 343
#     4   9  18  37  61  80 108 151 191 229 280 342
#     4  11  21  34  56  86 117 149 188 230 281 340
#
# _framework density 18.445273
#
# number of rings (size 3 to 8) (size 9 to 14) (size 15 to 20)
#    0.000    2.000    1.667    3.500    0.000    5.333 
#    3.000    0.000    0.000    0.000    0.000    0.000 
#    0.000    0.000    0.000    0.000    0.000    0.000 
#
# Total GULP energy -595336.925872 kJ/mol
# GULP energy per Si atom -12402.852622 kJ/mol
# Density = 1.840329 g / cm^3
# Si number density = 18.445273 Si / 1000 Ang^3
#
#
#
# Elastic Constant Matrix: (Units=GPa)
#
#
# Indices 1 2 3 4 5 6 
#
# 1 113.9195 60.4060 63.5881 0.0000 0.0000 0.0000
# 2 60.4060 110.0161 58.2953 0.0000 0.0000 0.0000
# 3 63.5881 58.2953 89.7620 0.0000 0.0000 0.0000
# 4 0.0000 0.0000 0.0000 32.8589 0.0000 0.0000
# 5 0.0000 0.0000 0.0000 0.0000 31.0309 0.0000
# 6 0.0000 0.0000 0.0000 0.0000 0.0000 36.3499
#
#
#
# Elastic Compliance Matrix: (Units=1/GPa)
#
#
# Indices 1 2 3 4 5 6 
#
# 1 0.015671 -0.004150 -0.008406 0.000000 0.000000 0.000000
# 2 -0.004150 0.014958 -0.006774 0.000000 0.000000 0.000000
# 3 -0.008406 -0.006774 0.021495 0.000000 0.000000 0.000000
# 4 0.000000 0.000000 0.000000 0.030433 0.000000 0.000000
# 5 0.000000 0.000000 0.000000 0.000000 0.032226 0.000000
# 6 0.000000 0.000000 0.000000 0.000000 0.000000 0.027510
#
#
# Mechanical properties :
#
#
# Convention : Reuss Voigt Hill
#
# Bulk Modulus (GPa) = 74.27915 75.36405 74.82160
# Shear Modulus (GPa) = 26.96262 28.80849 27.88556
#
# Velocity S-wave (km/s) = 3.82745 3.95629 3.89240
# Velocity P-wave (km/s) = 7.73886 7.86235 7.80085
#
# Compressibility (1/GPa) = 0.01346273
#
# Stress axis : x y z
#
# Youngs Moduli (GPa) = 63.81248 66.85470 46.52231
#
# Poissons Ratio (x) = 0.27745 0.39107
# Poissons Ratio (y) = 0.26483 0.31516
# Poissons Ratio (z) = 0.53642 0.45289
#
# Static dielectric constant tensor:
#      x y z
#    x 3.793360 0.000000 0.000000 
#    y 0.000000 3.420400 0.000000 
#    z 0.000000 0.000000 3.342650 
# 
# 
# High freq. dielectric constant tensor:
#      x y z
#    x 1.726080 0.000000 0.000000 
#    y 0.000000 1.717160 0.000000 
#    z 0.000000 0.000000 1.698950 
# 
# From -- ./inp_files/23765.got.cif
#   From: 2010.03.12/outbox.cif.g09.slc.cpg/sg62_12_cif.got.tgz:23765.got - 2010.04.10 19:12:36.
