data_PCOD8254291
_publ_section_title
;
Structure prediction by ZEFSAII (Michael W. Deem and Ramdas Pophale) SiO2 
 PCOD8254291
Probable space group: P N M A
;
_chemical_formula_sum "Si O2"
_cell_formula_units_Z 48
_cell_length_a 18.748215
_cell_length_b 8.703923
_cell_length_c 14.979314
_cell_angle_alpha 90.000000
_cell_angle_beta 90.000000
_cell_angle_gamma 90.000000
_cell_volume 2444.369692
_symmetry_space_group_name_H-M "P N M A"
_symmetry_group_IT_number 62
_symmetry_cell_setting 'orthorhombic'
loop_
_space_group_symop_operation_xyz
x,y,z
1/2-x,-y,1/2+z
1/2+x,1/2-y,1/2-z
-x,1/2+y,-z
-x,-y,-z
1/2+x,y,1/2-z
1/2-x,1/2+y,1/2+z
x,1/2-y,z
loop_
_atom_site_type_symbol
_atom_site_label
_atom_site_fract_x
_atom_site_fract_y
_atom_site_fract_z
Si Si1 0.822736 0.426029 0.624170
Si Si2 0.672222 0.928996 0.620258
Si Si3 0.928495 0.072507 0.462374
Si Si4 0.074572 0.570109 0.215146
Si Si5 0.083282 0.069066 0.725524
Si Si6 0.424937 0.569702 0.527835
O O1 0.797622 0.250000 0.635954
O O2 0.755929 0.538160 0.620654
O O3 0.866174 0.446432 0.533627
O O4 0.871740 0.477364 0.706775
O O5 0.658117 0.750000 0.606871
O O6 0.640295 0.982599 0.714000
O O7 0.636673 0.019021 0.538981
O O8 0.942906 0.250000 0.439792
O O9 0.903096 0.982180 0.375307
O O10 0.000000 0.000000 0.500000
O O11 0.077320 0.750000 0.194916
O O12 0.097564 0.480170 0.126779
O O13 0.995586 0.520033 0.244157
O O14 0.094972 0.250000 0.734041
O O15 0.500000 0.500000 0.500000
O O16 0.433001 0.750000 0.522714
#
# Coordination Sequence:
#
# PCOD8254291 Si02
#       6
#     8   8   8   8   8   8
#     4  10  23  44  65  91 129 169 207 260 317 372
#     4  12  26  43  64  94 128 167 211 262 318 377
#     4  11  22  39  65  96 129 167 215 262 313 375
#     4  10  21  40  66  94 125 165 211 258 313 376
#     4  11  22  40  66  95 127 167 209 259 316 376
#     4  12  24  40  65  95 127 166 211 262 314 375
#
# _framework density 19.636963999999999
#
# number of rings (size 3 to 8) (size 9 to 14) (size 15 to 20)
#    0.000    1.000    3.333    4.000    0.000    4.000 
#    0.000    0.000    0.000    0.000    0.000    0.000 
#    0.000    0.000    0.000    0.000    0.000    0.000 
#
# Total GULP energy -595550.909033 kJ/mol
# GULP energy per Si atom -12407.310605 kJ/mol
# Density = 1.959227 g / cm^3
# Si number density = 19.636964 Si / 1000 Ang^3
#
#
#
# Elastic Constant Matrix: (Units=GPa)
#
#
# Indices 1 2 3 4 5 6 
#
# 1 96.4967 27.6355 28.0409 0.0000 0.0000 0.0000
# 2 27.6355 78.3878 28.3912 0.0000 0.0000 0.0000
# 3 28.0409 28.3912 127.1377 0.0000 0.0000 0.0000
# 4 0.0000 0.0000 0.0000 37.1785 0.0000 0.0000
# 5 0.0000 0.0000 0.0000 0.0000 28.7687 0.0000
# 6 0.0000 0.0000 0.0000 0.0000 0.0000 33.6072
#
#
#
# Elastic Compliance Matrix: (Units=1/GPa)
#
#
# Indices 1 2 3 4 5 6 
#
# 1 0.011909 -0.003533 -0.001838 0.000000 0.000000 0.000000
# 2 -0.003533 0.014928 -0.002554 0.000000 0.000000 0.000000
# 3 -0.001838 -0.002554 0.008841 0.000000 0.000000 0.000000
# 4 0.000000 0.000000 0.000000 0.026897 0.000000 0.000000
# 5 0.000000 0.000000 0.000000 0.000000 0.034760 0.000000
# 6 0.000000 0.000000 0.000000 0.000000 0.000000 0.029756
#
#
# Mechanical properties :
#
#
# Convention : Reuss Voigt Hill
#
# Bulk Modulus (GPa) = 50.43346 52.23971 51.33659
# Shear Modulus (GPa) = 33.43373 34.44118 33.93746
#
# Velocity S-wave (km/s) = 4.13072 4.19250 4.16172
# Velocity P-wave (km/s) = 6.96342 7.07789 7.02089
#
# Compressibility (1/GPa) = 0.01982811
#
# Stress axis : x y z
#
# Youngs Moduli (GPa) = 83.97146 66.98939 113.10688
#
# Poissons Ratio (x) = 0.23666 0.20785
# Poissons Ratio (y) = 0.29666 0.28891
# Poissons Ratio (z) = 0.15431 0.17111
#
# Static dielectric constant tensor:
#      x y z
#    x 3.455240 0.000000 0.000000 
#    y 0.000000 3.649670 0.000000 
#    z 0.000000 0.000000 3.678460 
# 
# 
# High freq. dielectric constant tensor:
#      x y z
#    x 1.763450 0.000000 0.000000 
#    y 0.000000 1.772930 0.000000 
#    z 0.000000 0.000000 1.783900 
# 
# From -- ./inp_files/19577.got.cif
#   From: 2010.03.12/outbox.cif.g09.slc.cpg/sg62_10_cif.got.tgz:19577.got - 2010.04.10 19:12:36.
