data_PCOD8254827
_publ_section_title
;
Structure prediction by ZEFSAII (Michael W. Deem and Ramdas Pophale) SiO2 
 PCOD8254827
Probable space group: P N M A
;
_chemical_formula_sum "Si O2"
_cell_formula_units_Z 48
_cell_length_a 14.785526
_cell_length_b 8.583106
_cell_length_c 18.531427
_cell_angle_alpha 90.000000
_cell_angle_beta 90.000000
_cell_angle_gamma 90.000000
_cell_volume 2351.744400
_symmetry_space_group_name_H-M "P N M A"
_symmetry_group_IT_number 62
_symmetry_cell_setting 'orthorhombic'
loop_
_space_group_symop_operation_xyz
x,y,z
1/2-x,-y,1/2+z
1/2+x,1/2-y,1/2-z
-x,1/2+y,-z
-x,-y,-z
1/2+x,y,1/2-z
1/2-x,1/2+y,1/2+z
x,1/2-y,z
loop_
_atom_site_type_symbol
_atom_site_label
_atom_site_fract_x
_atom_site_fract_y
_atom_site_fract_z
Si Si1 0.558856 0.066690 0.935980
Si Si2 0.902578 0.067617 0.016480
Si Si3 0.250824 0.566868 0.584807
Si Si4 0.010879 0.568220 0.281259
Si Si5 0.700249 0.067693 0.254854
Si Si6 0.144167 0.430149 0.833238
O O1 0.556593 0.250000 0.939855
O O2 0.518299 0.008428 0.860105
O O3 0.661264 0.012383 0.945817
O O4 0.500000 0.000000 0.000000
O O5 0.901039 0.250000 0.999943
O O6 0.876919 0.037922 0.098989
O O7 0.833623 0.981505 0.964525
O O8 0.000000 0.000000 0.000000
O O9 0.237880 0.750000 0.581118
O O10 0.269937 0.510473 0.666057
O O11 0.036596 0.750000 0.281127
O O12 0.928385 0.532341 0.228219
O O13 0.095077 0.467439 0.255248
O O14 0.718292 0.250000 0.244450
O O15 0.756630 0.971758 0.195965
O O16 0.142037 0.250000 0.856707
#
# Coordination Sequence:
#
# PCOD8254827 Si02
#       6
#     8   8   8   8   8   8
#     4  11  24  43  65  94 129 173 220 269 325 388
#     4  12  26  44  67  97 132 171 216 267 324 388
#     4  11  24  44  68  97 132 174 218 268 324 385
#     4  10  23  42  66  93 126 170 215 262 320 385
#     4  11  24  40  65  97 129 167 212 265 321 380
#     4  11  23  43  68  95 129 169 215 266 320 382
#
# _framework density 20.410382999999999
#
# number of rings (size 3 to 8) (size 9 to 14) (size 15 to 20)
#    0.000    1.000    1.667    4.500    2.333    7.333 
#    0.000    0.000    0.000    0.000    0.000    0.000 
#    0.000    0.000    0.000    0.000    0.000    0.000 
#
# Total GULP energy -595599.184332 kJ/mol
# GULP energy per Si atom -12408.316340 kJ/mol
# Density = 2.036393 g / cm^3
# Si number density = 20.410383 Si / 1000 Ang^3
#
#
#
# Elastic Constant Matrix: (Units=GPa)
#
#
# Indices 1 2 3 4 5 6 
#
# 1 116.3810 13.7729 23.0530 0.0000 0.0000 0.0000
# 2 13.7729 35.6871 16.7948 0.0000 0.0000 0.0000
# 3 23.0530 16.7948 98.6274 0.0000 0.0000 0.0000
# 4 0.0000 0.0000 0.0000 33.9930 0.0000 0.0000
# 5 0.0000 0.0000 0.0000 0.0000 40.3798 0.0000
# 6 0.0000 0.0000 0.0000 0.0000 0.0000 40.8835
#
#
#
# Elastic Compliance Matrix: (Units=1/GPa)
#
#
# Indices 1 2 3 4 5 6 
#
# 1 0.009256 -0.002777 -0.001691 0.000000 0.000000 0.000000
# 2 -0.002777 0.031295 -0.004680 0.000000 0.000000 0.000000
# 3 -0.001691 -0.004680 0.011331 0.000000 0.000000 0.000000
# 4 0.000000 0.000000 0.000000 0.029418 0.000000 0.000000
# 5 0.000000 0.000000 0.000000 0.000000 0.024765 0.000000
# 6 0.000000 0.000000 0.000000 0.000000 0.000000 0.024460
#
#
# Mechanical properties :
#
#
# Convention : Reuss Voigt Hill
#
# Bulk Modulus (GPa) = 29.77260 39.77075 34.77168
# Shear Modulus (GPa) = 31.24693 36.18959 33.71826
#
# Velocity S-wave (km/s) = 3.91696 4.21538 4.06891
# Velocity P-wave (km/s) = 5.92245 6.57423 6.25683
#
# Compressibility (1/GPa) = 0.03358793
#
# Stress axis : x y z
#
# Youngs Moduli (GPa) = 108.03866 31.95360 88.25116
#
# Poissons Ratio (x) = 0.08872 0.14920
# Poissons Ratio (y) = 0.29997 0.41303
# Poissons Ratio (z) = 0.18266 0.14955
#
# Static dielectric constant tensor:
#      x y z
#    x 3.732470 0.000000 0.000000 
#    y 0.000000 3.708620 0.000000 
#    z 0.000000 0.000000 3.947510 
# 
# 
# High freq. dielectric constant tensor:
#      x y z
#    x 1.813840 0.000000 0.000000 
#    y 0.000000 1.805470 0.000000 
#    z 0.000000 0.000000 1.811210 
# 
# From -- ./inp_files/23724.got.cif
#   From: 2010.03.12/outbox.cif.g09.slc.cpg/sg62_12_cif.got.tgz:23724.got - 2010.04.10 19:12:36.
