data_PCOD8254038
_publ_section_title
;
Structure prediction by ZEFSAII (Michael W. Deem and Ramdas Pophale) SiO2 
 PCOD8254038
Probable space group: P N M A
;
_chemical_formula_sum "Si O2"
_cell_formula_units_Z 64
_cell_length_a 9.328237
_cell_length_b 12.533698
_cell_length_c 24.039729
_cell_angle_alpha 90.000000
_cell_angle_beta 90.000000
_cell_angle_gamma 90.000000
_cell_volume 2810.660338
_symmetry_space_group_name_H-M "P N M A"
_symmetry_group_IT_number 62
_symmetry_cell_setting 'orthorhombic'
loop_
_space_group_symop_operation_xyz
x,y,z
1/2-x,-y,1/2+z
1/2+x,1/2-y,1/2-z
-x,1/2+y,-z
-x,-y,-z
1/2+x,y,1/2-z
1/2-x,1/2+y,1/2+z
x,1/2-y,z
loop_
_atom_site_type_symbol
_atom_site_label
_atom_site_fract_x
_atom_site_fract_y
_atom_site_fract_z
Si Si1 0.910828 0.623379 0.992018
Si Si2 0.399550 0.127898 0.204918
Si Si3 0.615323 0.527009 0.680058
Si Si4 0.396831 0.628923 0.093677
Si Si5 0.813700 0.954529 0.873427
Si Si6 0.734039 0.873546 0.518326
Si Si7 0.230480 0.624667 0.400497
Si Si8 0.850118 0.632990 0.629454
O O1 0.922357 0.750000 0.993886
O O2 0.828842 0.590960 0.935511
O O3 0.075979 0.576083 0.996229
O O4 0.815355 0.583049 0.044112
O O5 0.433183 0.250000 0.225068
O O6 0.397480 0.039075 0.253676
O O7 0.252195 0.131848 0.169519
O O8 0.523846 0.080012 0.165066
O O9 0.465414 0.510976 0.650190
O O10 0.713780 0.430029 0.656815
O O11 0.699883 0.635478 0.663224
O O12 0.373251 0.750000 0.114176
O O13 0.294555 0.554636 0.130676
O O14 0.562579 0.597003 0.095283
O O15 0.345361 0.614524 0.030636
O O16 0.706604 0.750000 0.534443
O O17 0.811096 0.929774 0.572009
O O18 0.256828 0.750000 0.394150
O O19 0.905551 0.750000 0.614643
#
# Coordination Sequence:
#
# PCOD8254038 Si02
#       8
#     8   8   8   8   8   8   8   8
#     4  10  21  38  62  98 140 175 216 267 328 398
#     4  11  26  45  66  97 135 174 219 271 324 390
#     4  12  24  41  66  92 131 172 225 271 327 387
#     4  10  23  42  64  94 134 173 218 273 330 390
#     4  12  25  39  67  98 134 179 221 268 331 398
#     4   9  18  35  60  91 130 175 214 257 316 382
#     4  10  24  44  67  95 129 170 220 282 339 395
#     4  10  21  38  62  92 131 176 218 261 316 383
#
# _framework density 22.770448999999999
#
# number of rings (size 3 to 8) (size 9 to 14) (size 15 to 20)
#    0.000    1.500    1.250    3.000    3.500    5.500 
#    0.000    0.625    0.000    2.250    0.000    0.000 
#    0.000    0.000    0.000    0.000    0.000    0.000 
#
# Total GULP energy -793277.781394 kJ/mol
# GULP energy per Si atom -12394.965334 kJ/mol
# Density = 2.271862 g / cm^3
# Si number density = 22.770449 Si / 1000 Ang^3
#
#
#
# Elastic Constant Matrix: (Units=GPa)
#
#
# Indices 1 2 3 4 5 6 
#
# 1 175.4095 52.3489 59.4797 0.0000 0.0000 0.0000
# 2 52.3489 47.7180 41.1813 0.0000 0.0000 0.0000
# 3 59.4797 41.1813 120.3843 0.0000 0.0000 0.0000
# 4 0.0000 0.0000 0.0000 26.9891 0.0000 0.0000
# 5 0.0000 0.0000 0.0000 0.0000 37.3842 0.0000
# 6 0.0000 0.0000 0.0000 0.0000 0.0000 33.5639
#
#
#
# Elastic Compliance Matrix: (Units=1/GPa)
#
#
# Indices 1 2 3 4 5 6 
#
# 1 0.008653 -0.008234 -0.001459 0.000000 0.000000 0.000000
# 2 -0.008234 0.037570 -0.008784 0.000000 0.000000 0.000000
# 3 -0.001459 -0.008784 0.012032 0.000000 0.000000 0.000000
# 4 0.000000 0.000000 0.000000 0.037052 0.000000 0.000000
# 5 0.000000 0.000000 0.000000 0.000000 0.026749 0.000000
# 6 0.000000 0.000000 0.000000 0.000000 0.000000 0.029794
#
#
# Mechanical properties :
#
#
# Convention : Reuss Voigt Hill
#
# Bulk Modulus (GPa) = 46.94280 72.17016 59.55648
# Shear Modulus (GPa) = 25.52282 32.28756 28.90519
#
# Velocity S-wave (km/s) = 3.35158 3.76966 3.56675
# Velocity P-wave (km/s) = 5.96975 7.12114 6.57071
#
# Compressibility (1/GPa) = 0.02130252
#
# Stress axis : x y z
#
# Youngs Moduli (GPa) = 115.56951 26.61710 83.11058
#
# Poissons Ratio (x) = 0.21916 0.12122
# Poissons Ratio (y) = 0.95157 0.73003
# Poissons Ratio (z) = 0.16857 0.23380
#
# Static dielectric constant tensor:
#      x y z
#    x 4.327280 0.000000 0.000000 
#    y 0.000000 4.312280 0.000000 
#    z 0.000000 0.000000 4.106070 
# 
# 
# High freq. dielectric constant tensor:
#      x y z
#    x 1.916610 0.000000 0.000000 
#    y 0.000000 1.915560 0.000000 
#    z 0.000000 0.000000 1.885760 
# 
# From -- ./inp_files/28963.got.cif
#   From: 2010.03.12/outbox.cif.g09.slc.cpg/sg62_15_cif.got.tgz:28963.got - 2010.04.10 19:12:36.
