data_PCOD8254259
_publ_section_title
;
Structure prediction by ZEFSAII (Michael W. Deem and Ramdas Pophale) SiO2 
 PCOD8254259
Probable space group: P N M A
;
_chemical_formula_sum "Si O2"
_cell_formula_units_Z 48
_cell_length_a 15.259172
_cell_length_b 16.856750
_cell_length_c 9.108280
_cell_angle_alpha 90.000000
_cell_angle_beta 90.000000
_cell_angle_gamma 90.000000
_cell_volume 2342.832215
_symmetry_space_group_name_H-M "P N M A"
_symmetry_group_IT_number 62
_symmetry_cell_setting 'orthorhombic'
loop_
_space_group_symop_operation_xyz
x,y,z
1/2-x,-y,1/2+z
1/2+x,1/2-y,1/2-z
-x,1/2+y,-z
-x,-y,-z
1/2+x,y,1/2-z
1/2-x,1/2+y,1/2+z
x,1/2-y,z
loop_
_atom_site_type_symbol
_atom_site_label
_atom_site_fract_x
_atom_site_fract_y
_atom_site_fract_z
Si Si1 0.674218 0.657691 0.099327
Si Si2 0.012124 0.081594 0.917179
Si Si3 0.988792 0.583267 0.421885
Si Si4 0.666571 0.158261 0.098000
Si Si5 0.819488 0.404535 0.910342
Si Si6 0.323510 0.908894 0.586407
O O1 0.677631 0.750000 0.133710
O O2 0.576343 0.633727 0.055626
O O3 0.708940 0.611118 0.242482
O O4 0.736448 0.636645 0.962902
O O5 0.033832 0.066892 0.747246
O O6 0.919406 0.127830 0.931567
O O7 0.093610 0.126247 0.994141
O O8 0.000000 0.000000 0.000000
O O9 0.909664 0.633287 0.488008
O O10 0.000000 0.500000 0.500000
O O11 0.657456 0.250000 0.139888
O O12 0.658985 0.105371 0.242971
O O13 0.759830 0.143835 0.022030
O O14 0.811362 0.497829 0.942701
#
# Coordination Sequence:
#
# PCOD8254259 Si02
#       6
#     8   8   8   8   8   8
#     4  11  23  40  60  88 122 159 202 256 311 362
#     4   9  20  38  63  91 116 151 205 258 303 357
#     4  11  22  40  66  91 120 163 210 257 308 376
#     4  12  25  40  59  92 129 162 203 263 322 369
#     4  10  21  40  64  87 116 160 211 254 302 372
#     4  11  22  40  62  89 122 163 208 254 308 376
#
# _framework density 20.488022999999998
#
# number of rings (size 3 to 8) (size 9 to 14) (size 15 to 20)
#    0.000    1.333    0.000    7.500    0.000    5.333 
#    0.000   10.833    0.000    0.000    0.000    0.000 
#    0.000    0.000    0.000    0.000    0.000    0.000 
#
# Total GULP energy -595363.352968 kJ/mol
# GULP energy per Si atom -12403.403187 kJ/mol
# Density = 2.044139 g / cm^3
# Si number density = 20.488023 Si / 1000 Ang^3
#
#
#
# Elastic Constant Matrix: (Units=GPa)
#
#
# Indices 1 2 3 4 5 6 
#
# 1 123.0797 29.3193 69.2860 0.0000 0.0000 0.0000
# 2 29.3193 75.4985 7.2745 0.0000 0.0000 0.0000
# 3 69.2860 7.2745 131.2275 0.0000 0.0000 0.0000
# 4 0.0000 0.0000 0.0000 22.9713 0.0000 0.0000
# 5 0.0000 0.0000 0.0000 0.0000 38.4284 0.0000
# 6 0.0000 0.0000 0.0000 0.0000 0.0000 27.7120
#
#
#
# Elastic Compliance Matrix: (Units=1/GPa)
#
#
# Indices 1 2 3 4 5 6 
#
# 1 0.012845 -0.004358 -0.006540 0.000000 0.000000 0.000000
# 2 -0.004358 0.014795 0.001481 0.000000 0.000000 0.000000
# 3 -0.006540 0.001481 0.010991 0.000000 0.000000 0.000000
# 4 0.000000 0.000000 0.000000 0.043533 0.000000 0.000000
# 5 0.000000 0.000000 0.000000 0.000000 0.026022 0.000000
# 6 0.000000 0.000000 0.000000 0.000000 0.000000 0.036085
#
#
# Mechanical properties :
#
#
# Convention : Reuss Voigt Hill
#
# Bulk Modulus (GPa) = 50.51449 60.17391 55.34420
# Shear Modulus (GPa) = 29.46291 32.75074 31.10682
#
# Velocity S-wave (km/s) = 3.79628 4.00250 3.90076
# Velocity P-wave (km/s) = 6.62758 7.12700 6.88182
#
# Compressibility (1/GPa) = 0.01979630
#
# Stress axis : x y z
#
# Youngs Moduli (GPa) = 77.85343 67.59042 90.98034
#
# Poissons Ratio (x) = 0.29456 0.59503
# Poissons Ratio (y) = 0.33928 -0.13472
# Poissons Ratio (z) = 0.50918 -0.10009
#
# Static dielectric constant tensor:
#      x y z
#    x 4.238210 0.000000 0.000000 
#    y 0.000000 3.475220 0.000000 
#    z 0.000000 0.000000 4.125340 
# 
# 
# High freq. dielectric constant tensor:
#      x y z
#    x 1.819900 0.000000 0.000000 
#    y 0.000000 1.786480 0.000000 
#    z 0.000000 0.000000 1.811310 
# 
# From -- ./inp_files/6475.got.cif
#   From: 2010.03.12/outbox.cif.g09.slc.cpg/sg62_4_cif.got.tgz:6475.got - 2010.04.10 19:12:36.
