data_PCOD8254397
_publ_section_title
;
Structure prediction by ZEFSAII (Michael W. Deem and Ramdas Pophale) SiO2 
 PCOD8254397
Probable space group: P N M A
;
_chemical_formula_sum "Si O2"
_cell_formula_units_Z 56
_cell_length_a 16.141069
_cell_length_b 14.597331
_cell_length_c 11.204942
_cell_angle_alpha 90.000000
_cell_angle_beta 90.000000
_cell_angle_gamma 90.000000
_cell_volume 2640.069518
_symmetry_space_group_name_H-M "P N M A"
_symmetry_group_IT_number 62
_symmetry_cell_setting 'orthorhombic'
loop_
_space_group_symop_operation_xyz
x,y,z
1/2-x,-y,1/2+z
1/2+x,1/2-y,1/2-z
-x,1/2+y,-z
-x,-y,-z
1/2+x,y,1/2-z
1/2-x,1/2+y,1/2+z
x,1/2-y,z
loop_
_atom_site_type_symbol
_atom_site_label
_atom_site_fract_x
_atom_site_fract_y
_atom_site_fract_z
Si Si1 0.028550 0.144299 0.687321
Si Si2 0.960553 0.146342 0.251453
Si Si3 0.189001 0.354175 0.531425
Si Si4 0.613200 0.644182 0.007309
Si Si5 0.847468 0.646209 0.744249
Si Si6 0.068662 0.484334 0.901667
Si Si7 0.727057 0.035294 0.450154
O O1 0.026938 0.250000 0.723090
O O2 0.105959 0.122520 0.602864
O O3 0.032759 0.087993 0.808377
O O4 0.944786 0.116719 0.618194
O O5 0.937313 0.250000 0.216413
O O6 0.939088 0.126173 0.387985
O O7 0.056850 0.125342 0.230497
O O8 0.909123 0.079498 0.165146
O O9 0.219007 0.250000 0.557317
O O10 0.171196 0.369637 0.393211
O O11 0.259335 0.426485 0.571212
O O12 0.640783 0.750000 0.015189
O O13 0.693061 0.579970 0.011979
O O14 0.826092 0.750000 0.781556
O O15 0.789557 0.580014 0.821632
O O16 0.151381 0.445310 0.961090
O O17 0.000000 0.500000 0.000000
#
# Coordination Sequence:
#
# PCOD8254397 Si02
#       7
#     8   8   8   8   8   8   8
#     4  10  23  46  71  96 131 179 228 280 341 409
#     4  10  21  42  71  94 122 167 221 277 329 398
#     4  10  23  43  69 100 134 176 227 284 345 399
#     4  10  22  43  73 104 127 165 230 289 337 392
#     4  10  21  42  69  95 130 173 223 278 337 401
#     4  12  27  44  63  93 140 183 222 263 336 417
#     4  12  26  39  67 101 141 176 220 283 341 399
#
# _framework density 21.211563000000002
#
# number of rings (size 3 to 8) (size 9 to 14) (size 15 to 20)
#    0.000    1.429    2.857    1.286    6.000    3.429 
#    0.000    0.000    0.000    0.000    0.000    0.000 
#    0.000    0.000    0.000    0.000    0.000    0.000 
#
# Total GULP energy -694672.797917 kJ/mol
# GULP energy per Si atom -12404.871391 kJ/mol
# Density = 2.116328 g / cm^3
# Si number density = 21.211563 Si / 1000 Ang^3
#
#
#
# Elastic Constant Matrix: (Units=GPa)
#
#
# Indices 1 2 3 4 5 6 
#
# 1 97.3012 50.8956 60.4413 0.0000 0.0000 0.0000
# 2 50.8956 115.1115 74.1558 0.0000 0.0000 0.0000
# 3 60.4413 74.1558 130.9277 0.0000 0.0000 0.0000
# 4 0.0000 0.0000 0.0000 38.5993 0.0000 0.0000
# 5 0.0000 0.0000 0.0000 0.0000 31.6943 0.0000
# 6 0.0000 0.0000 0.0000 0.0000 0.0000 35.2013
#
#
#
# Elastic Compliance Matrix: (Units=1/GPa)
#
#
# Indices 1 2 3 4 5 6 
#
# 1 0.015244 -0.003474 -0.005069 0.000000 0.000000 0.000000
# 2 -0.003474 0.014470 -0.006592 0.000000 0.000000 0.000000
# 3 -0.005069 -0.006592 0.013711 0.000000 0.000000 0.000000
# 4 0.000000 0.000000 0.000000 0.025907 0.000000 0.000000
# 5 0.000000 0.000000 0.000000 0.000000 0.031551 0.000000
# 6 0.000000 0.000000 0.000000 0.000000 0.000000 0.028408
#
#
# Mechanical properties :
#
#
# Convention : Reuss Voigt Hill
#
# Bulk Modulus (GPa) = 76.01978 79.36953 77.69465
# Shear Modulus (GPa) = 30.49779 31.62216 31.05998
#
# Velocity S-wave (km/s) = 3.79594 3.86527 3.83076
# Velocity P-wave (km/s) = 7.42488 7.57758 7.50162
#
# Compressibility (1/GPa) = 0.01315447
#
# Stress axis : x y z
#
# Youngs Moduli (GPa) = 65.60169 69.11000 72.93183
#
# Poissons Ratio (x) = 0.24009 0.36971
# Poissons Ratio (y) = 0.22791 0.48074
# Poissons Ratio (z) = 0.33256 0.45555
#
# Static dielectric constant tensor:
#      x y z
#    x 3.833380 0.000000 0.000000 
#    y 0.000000 4.106900 0.000000 
#    z 0.000000 0.000000 3.774480 
# 
# 
# High freq. dielectric constant tensor:
#      x y z
#    x 1.827430 0.000000 0.000000 
#    y 0.000000 1.844960 0.000000 
#    z 0.000000 0.000000 1.830820 
# 
# From -- ./inp_files/13382.got.cif
#   From: 2010.03.12/outbox.cif.g09.slc.cpg/sg62_7_cif.got.tgz:13382.got - 2010.04.10 19:12:36.
