data_PCOD8254927
_publ_section_title
;
Structure prediction by ZEFSAII (Michael W. Deem and Ramdas Pophale) SiO2 
 PCOD8254927
Probable space group: P N M A
;
_chemical_formula_sum "Si O2"
_cell_formula_units_Z 40
_cell_length_a 7.847987
_cell_length_b 13.718899
_cell_length_c 16.031154
_cell_angle_alpha 90.000000
_cell_angle_beta 90.000000
_cell_angle_gamma 90.000000
_cell_volume 1726.006075
_symmetry_space_group_name_H-M "P N M A"
_symmetry_group_IT_number 62
_symmetry_cell_setting 'orthorhombic'
loop_
_space_group_symop_operation_xyz
x,y,z
1/2-x,-y,1/2+z
1/2+x,1/2-y,1/2-z
-x,1/2+y,-z
-x,-y,-z
1/2+x,y,1/2-z
1/2-x,1/2+y,1/2+z
x,1/2-y,z
loop_
_atom_site_type_symbol
_atom_site_label
_atom_site_fract_x
_atom_site_fract_y
_atom_site_fract_z
Si Si1 0.037342 0.555147 0.915964
Si Si2 0.718697 0.861481 0.842818
Si Si3 0.793340 0.965344 0.224397
Si Si4 0.403957 0.635379 0.953325
Si Si5 0.982914 0.864419 0.361441
O O1 0.044074 0.478886 0.837991
O O2 0.885763 0.632331 0.901615
O O3 0.220015 0.607136 0.918881
O O4 0.000000 0.500000 0.000000
O O5 0.693432 0.750000 0.813760
O O6 0.747561 0.927676 0.761568
O O7 0.553941 0.902781 0.892436
O O8 0.643970 0.926648 0.166338
O O9 0.830551 0.887017 0.296868
O O10 0.419146 0.750000 0.957689
O O11 0.431910 0.595638 0.047259
O O12 0.024164 0.750000 0.361222
#
# Coordination Sequence:
#
# PCOD8254927 Si02
#       5
#     8   8   8   8   8
#     4  12  25  44  71 103 143 187 239 291 352 426
#     4  11  25  46  72 107 148 189 237 293 358 428
#     4  12  24  44  67 105 142 184 232 294 357 416
#     4  10  24  46  72 101 140 188 235 288 350 424
#     4  11  24  45  70 100 137 182 236 294 356 421
#
# _framework density 23.174887999999999
#
# number of rings (size 3 to 8) (size 9 to 14) (size 15 to 20)
#    0.000    0.800    2.000    4.800    0.000    4.000 
#    0.000    2.000    0.000    0.000    0.000    0.000 
#    0.000    0.000    0.000    0.000    0.000    0.000 
#
# Total GULP energy -496134.345926 kJ/mol
# GULP energy per Si atom -12403.358648 kJ/mol
# Density = 2.312214 g / cm^3
# Si number density = 23.174888 Si / 1000 Ang^3
#
#
#
# Elastic Constant Matrix: (Units=GPa)
#
#
# Indices 1 2 3 4 5 6 
#
# 1 145.3675 17.1521 28.8616 0.0000 0.0000 0.0000
# 2 17.1521 84.2745 32.7371 0.0000 0.0000 0.0000
# 3 28.8616 32.7371 122.2281 0.0000 0.0000 0.0000
# 4 0.0000 0.0000 0.0000 38.0484 0.0000 0.0000
# 5 0.0000 0.0000 0.0000 0.0000 43.7388 0.0000
# 6 0.0000 0.0000 0.0000 0.0000 0.0000 37.7739
#
#
#
# Elastic Compliance Matrix: (Units=1/GPa)
#
#
# Indices 1 2 3 4 5 6 
#
# 1 0.007279 -0.000908 -0.001476 0.000000 0.000000 0.000000
# 2 -0.000908 0.013357 -0.003363 0.000000 0.000000 0.000000
# 3 -0.001476 -0.003363 0.009431 0.000000 0.000000 0.000000
# 4 0.000000 0.000000 0.000000 0.026282 0.000000 0.000000
# 5 0.000000 0.000000 0.000000 0.000000 0.022863 0.000000
# 6 0.000000 0.000000 0.000000 0.000000 0.000000 0.026473
#
#
# Mechanical properties :
#
#
# Convention : Reuss Voigt Hill
#
# Bulk Modulus (GPa) = 53.84104 56.59686 55.21895
# Shear Modulus (GPa) = 40.52825 42.12017 41.32421
#
# Velocity S-wave (km/s) = 4.18640 4.26783 4.22731
# Velocity P-wave (km/s) = 6.83015 6.98287 6.90693
#
# Compressibility (1/GPa) = 0.01857319
#
# Stress axis : x y z
#
# Youngs Moduli (GPa) = 137.37680 74.86561 106.03780
#
# Poissons Ratio (x) = 0.06800 0.15647
# Poissons Ratio (y) = 0.12478 0.35661
# Poissons Ratio (z) = 0.20271 0.25178
#
# Static dielectric constant tensor:
#      x y z
#    x 4.433570 0.000000 0.000000 
#    y 0.000000 4.065860 0.000000 
#    z 0.000000 0.000000 4.586660 
# 
# 
# High freq. dielectric constant tensor:
#      x y z
#    x 1.925510 0.000000 0.000000 
#    y 0.000000 1.914600 0.000000 
#    z 0.000000 0.000000 1.935950 
# 
# From -- ./inp_files/16682.got.cif
#   From: 2010.03.12/outbox.cif.g09.slc.cpg/sg62_9_cif.got.tgz:16682.got - 2010.04.10 19:12:36.
