data_PCOD8254883
_publ_section_title
;
Structure prediction by ZEFSAII (Michael W. Deem and Ramdas Pophale) SiO2 
 PCOD8254883
Probable space group: P N M A
;
_chemical_formula_sum "Si O2"
_cell_formula_units_Z 48
_cell_length_a 8.614994
_cell_length_b 25.552675
_cell_length_c 10.537465
_cell_angle_alpha 90.000000
_cell_angle_beta 90.000000
_cell_angle_gamma 90.000000
_cell_volume 2319.676890
_symmetry_space_group_name_H-M "P N M A"
_symmetry_group_IT_number 62
_symmetry_cell_setting 'orthorhombic'
loop_
_space_group_symop_operation_xyz
x,y,z
1/2-x,-y,1/2+z
1/2+x,1/2-y,1/2-z
-x,1/2+y,-z
-x,-y,-z
1/2+x,y,1/2-z
1/2-x,1/2+y,1/2+z
x,1/2-y,z
loop_
_atom_site_type_symbol
_atom_site_label
_atom_site_fract_x
_atom_site_fract_y
_atom_site_fract_z
Si Si1 0.169300 0.811567 0.356525
Si Si2 0.541663 0.848263 0.882724
Si Si3 0.995064 0.055336 0.065417
Si Si4 0.982211 0.342120 0.895955
Si Si5 0.366952 0.750000 0.779133
Si Si6 0.778484 0.590858 0.730839
Si Si7 0.572212 0.750000 0.568577
O O1 0.123494 0.750000 0.350080
O O2 0.088679 0.841599 0.472158
O O3 0.115355 0.843525 0.232979
O O4 0.352515 0.816978 0.366378
O O5 0.452283 0.798504 0.837636
O O6 0.417587 0.895137 0.865892
O O7 0.691337 0.858472 0.792151
O O8 0.150043 0.059613 0.150003
O O9 0.842898 0.055937 0.153681
O O10 0.990097 0.101028 0.959670
O O11 0.000000 0.000000 0.000000
O O12 0.893689 0.302321 0.989959
O O13 0.395418 0.750000 0.625667
O O14 0.185409 0.750000 0.809310
#
# Coordination Sequence:
#
# PCOD8254883 Si02
#       7
#     8   8   8   8   4   8   4
#     4  12  25  43  64  99 142 187 229 281 348 427
#     4  11  22  40  66  97 135 177 225 277 344 407
#     4  11  25  48  74 102 137 178 239 295 354 413
#     4  12  27  44  67  94 143 181 229 285 348 420
#     4  12  24  33  65  96 130 175 223 269 337 408
#     4  10  23  46  69  98 134 176 227 297 345 408
#     4  12  26  41  63  98 136 175 227 279 349 416
#
# _framework density 20.692536
#
# number of rings (size 3 to 8) (size 9 to 14) (size 15 to 20)
#    0.000    0.667    4.167    4.000    7.000    1.333 
#    0.000    1.667    0.000    0.000    0.000    0.000 
#    0.000    0.000    0.000    0.000    0.000    0.000 
#
# Total GULP energy -595221.752280 kJ/mol
# GULP energy per Si atom -12400.453172 kJ/mol
# Density = 2.064544 g / cm^3
# Si number density = 20.692536 Si / 1000 Ang^3
#
#
#
# Elastic Constant Matrix: (Units=GPa)
#
#
# Indices 1 2 3 4 5 6 
#
# 1 102.0554 27.6399 48.1285 0.0000 0.0000 0.0000
# 2 27.6399 117.4158 46.7828 0.0000 0.0000 0.0000
# 3 48.1285 46.7828 130.9420 0.0000 0.0000 0.0000
# 4 0.0000 0.0000 0.0000 83.2758 0.0000 0.0000
# 5 0.0000 0.0000 0.0000 0.0000 41.7878 0.0000
# 6 0.0000 0.0000 0.0000 0.0000 0.0000 19.3421
#
#
#
# Elastic Compliance Matrix: (Units=1/GPa)
#
#
# Indices 1 2 3 4 5 6 
#
# 1 0.012007 -0.001245 -0.003968 0.000000 0.000000 0.000000
# 2 -0.001245 0.010060 -0.003136 0.000000 0.000000 0.000000
# 3 -0.003968 -0.003136 0.010216 0.000000 0.000000 0.000000
# 4 0.000000 0.000000 0.000000 0.012008 0.000000 0.000000
# 5 0.000000 0.000000 0.000000 0.000000 0.023930 0.000000
# 6 0.000000 0.000000 0.000000 0.000000 0.000000 0.051701
#
#
# Mechanical properties :
#
#
# Convention : Reuss Voigt Hill
#
# Bulk Modulus (GPa) = 64.17341 66.16839 65.17090
# Shear Modulus (GPa) = 35.25670 44.07193 39.66431
#
# Velocity S-wave (km/s) = 4.13223 4.62003 4.38292
# Velocity P-wave (km/s) = 7.33807 7.77856 7.56152
#
# Compressibility (1/GPa) = 0.01558278
#
# Stress axis : x y z
#
# Youngs Moduli (GPa) = 83.28218 99.40821 97.88446
#
# Poissons Ratio (x) = 0.12380 0.38845
# Poissons Ratio (y) = 0.10372 0.30700
# Poissons Ratio (z) = 0.33050 0.31177
#
# Static dielectric constant tensor:
#      x y z
#    x 4.153610 0.000000 0.000000 
#    y 0.000000 3.507530 0.000000 
#    z 0.000000 0.000000 4.111120 
# 
# 
# High freq. dielectric constant tensor:
#      x y z
#    x 1.827480 0.000000 0.000000 
#    y 0.000000 1.784670 0.000000 
#    z 0.000000 0.000000 1.820790 
# 
# From -- ./inp_files/4581.got.cif
#   From: 2010.03.12/outbox.cif.g09.slc.cpg/sg62_3_cif.got.tgz:4581.got - 2010.04.10 19:12:36.
