data_PCOD8254527
_publ_section_title
;
Structure prediction by ZEFSAII (Michael W. Deem and Ramdas Pophale) SiO2 
 PCOD8254527
Probable space group: P N M A
;
_chemical_formula_sum "Si O2"
_cell_formula_units_Z 32
_cell_length_a 11.098901
_cell_length_b 7.193082
_cell_length_c 22.022998
_cell_angle_alpha 90.000000
_cell_angle_beta 90.000000
_cell_angle_gamma 90.000000
_cell_volume 1758.212762
_symmetry_space_group_name_H-M "P N M A"
_symmetry_group_IT_number 62
_symmetry_cell_setting 'orthorhombic'
loop_
_space_group_symop_operation_xyz
x,y,z
1/2-x,-y,1/2+z
1/2+x,1/2-y,1/2-z
-x,1/2+y,-z
-x,-y,-z
1/2+x,y,1/2-z
1/2-x,1/2+y,1/2+z
x,1/2-y,z
loop_
_atom_site_type_symbol
_atom_site_label
_atom_site_fract_x
_atom_site_fract_y
_atom_site_fract_z
Si Si1 0.491081 0.250000 0.891748
Si Si2 0.084398 0.971384 0.825633
Si Si3 0.881863 0.250000 0.854554
Si Si4 0.771594 0.750000 0.470723
Si Si5 0.793271 0.952592 0.586324
Si Si6 0.644440 0.250000 0.775567
O O1 0.601458 0.250000 0.937402
O O2 0.411427 0.429166 0.903754
O O3 0.534491 0.250000 0.822652
O O4 0.068716 0.750000 0.818114
O O5 0.176691 0.030652 0.878925
O O6 0.133890 0.061964 0.763744
O O7 0.956943 0.062551 0.842893
O O8 0.838139 0.250000 0.923970
O O9 0.771856 0.250000 0.808224
O O10 0.763305 0.933211 0.514103
O O11 0.824024 0.750000 0.614102
#
# Coordination Sequence:
#
# PCOD8254527 Si02
#       6
#     4   8   4   4   8   4
#     4  11  19  38  62  85 117 159 187 251 298 337
#     4  10  22  40  58  87 116 158 197 238 298 352
#     4  10  22  41  59  87 121 153 196 246 295 348
#     4   9  21  40  57  90 120 149 204 240 286 357
#     4   9  21  37  58  87 114 153 195 238 292 349
#     4  10  24  37  60  86 118 153 199 245 295 352
#
# _framework density 18.200299000000001
#
# number of rings (size 3 to 8) (size 9 to 14) (size 15 to 20)
#    0.750    1.500    0.000    2.250    7.000    3.000 
#    2.250    2.500    0.000    0.000    0.000    0.000 
#    0.000    0.000    0.000    0.000    0.000    0.000 
#
# Total GULP energy -396644.625153 kJ/mol
# GULP energy per Si atom -12395.144536 kJ/mol
# Density = 1.815887 g / cm^3
# Si number density = 18.200299 Si / 1000 Ang^3
#
#
#
# Elastic Constant Matrix: (Units=GPa)
#
#
# Indices 1 2 3 4 5 6 
#
# 1 96.9085 39.8219 73.6116 0.0000 0.0000 0.0000
# 2 39.8219 105.4882 50.8307 0.0000 0.0000 0.0000
# 3 73.6116 50.8307 152.6072 0.0000 0.0000 0.0000
# 4 0.0000 0.0000 0.0000-2019.8174 0.0000 0.0000
# 5 0.0000 0.0000 0.0000 0.0000 31.4200 0.0000
# 6 0.0000 0.0000 0.0000 0.0000 0.0000 21.5710
#
#
#
# Elastic Compliance Matrix: (Units=1/GPa)
#
#
# Indices 1 2 3 4 5 6 
#
# 1 0.017019 -0.002941 -0.007230 0.000000 0.000000 0.000000
# 2 -0.002941 0.011800 -0.002512 0.000000 0.000000 0.000000
# 3 -0.007230 -0.002512 0.010877 0.000000 0.000000 0.000000
# 4 0.000000 0.000000 0.000000 -0.000495 0.000000 0.000000
# 5 0.000000 0.000000 0.000000 0.000000 0.031827 0.000000
# 6 0.000000 0.000000 0.000000 0.000000 0.000000 0.046358
#
#
# Mechanical properties :
#
#
# Convention : Reuss Voigt Hill
#
# Bulk Modulus (GPa) = 69.77859 75.94803 72.86331
# Shear Modulus (GPa) = 33.89163 -380.64929 -173.37883
#
# Velocity S-wave (km/s) = 4.31994 -14.47752 -9.77079
# Velocity P-wave (km/s) = 7.95644 15.41574 9.33649
#
# Compressibility (1/GPa) = 0.01433104
#
# Stress axis : x y z
#
# Youngs Moduli (GPa) = 58.75678 84.74333 91.93886
#
# Poissons Ratio (x) = 0.24923 0.66470
# Poissons Ratio (y) = 0.17281 0.23094
# Poissons Ratio (z) = 0.42480 0.21286
#
# Static dielectric constant tensor:
#      x y z
#    x 3.326620 0.000000 0.000000 
#    y 0.000000 3.198270 0.000000 
#    z 0.000000 0.000000 3.494420 
# 
# 
# High freq. dielectric constant tensor:
#      x y z
#    x 1.713010 0.000000 0.000000 
#    y 0.000000 1.701450 0.000000 
#    z 0.000000 0.000000 1.713800 
# 
# From -- ./inp_files/28551.got.cif
#   From: 2010.03.12/outbox.cif.g09.slc.cpg/sg62_15_cif.got.tgz:28551.got - 2010.04.10 19:12:36.
