data_PCOD8254672
_publ_section_title
;
Structure prediction by ZEFSAII (Michael W. Deem and Ramdas Pophale) SiO2 
 PCOD8254672
Probable space group: P N M A
;
_chemical_formula_sum "Si O2"
_cell_formula_units_Z 40
_cell_length_a 10.213697
_cell_length_b 21.008556
_cell_length_c 8.852774
_cell_angle_alpha 90.000000
_cell_angle_beta 90.000000
_cell_angle_gamma 90.000000
_cell_volume 1899.584206
_symmetry_space_group_name_H-M "P N M A"
_symmetry_group_IT_number 62
_symmetry_cell_setting 'orthorhombic'
loop_
_space_group_symop_operation_xyz
x,y,z
1/2-x,-y,1/2+z
1/2+x,1/2-y,1/2-z
-x,1/2+y,-z
-x,-y,-z
1/2+x,y,1/2-z
1/2-x,1/2+y,1/2+z
x,1/2-y,z
loop_
_atom_site_type_symbol
_atom_site_label
_atom_site_fract_x
_atom_site_fract_y
_atom_site_fract_z
Si Si1 0.714685 0.819244 0.529903
Si Si2 0.496544 0.677562 0.088019
Si Si3 0.394750 0.552557 0.660564
Si Si4 0.532688 0.587751 0.361426
Si Si5 0.128761 0.879505 0.680624
O O1 0.667828 0.750000 0.470630
O O2 0.870448 0.824068 0.519079
O O3 0.654078 0.874747 0.430876
O O4 0.669735 0.824205 0.703485
O O5 0.526796 0.750000 0.141931
O O6 0.471362 0.631294 0.230120
O O7 0.616344 0.651315 0.985860
O O8 0.424139 0.571670 0.487283
O O9 0.410399 0.478354 0.699929
O O10 0.490939 0.589380 0.773332
O O11 0.243007 0.567896 0.688387
#
# Coordination Sequence:
#
# PCOD8254672 Si02
#       5
#     8   8   8   8   8
#     4  10  22  42  63  90 130 168 213 267 317 385
#     4  11  24  40  65  97 128 170 217 265 324 382
#     4  10  24  42  68  92 131 169 216 260 329 378
#     4  10  24  42  63  96 129 166 213 269 322 384
#     4  11  22  44  65  95 125 175 214 267 314 391
#
# _framework density 21.05724
#
# number of rings (size 3 to 8) (size 9 to 14) (size 15 to 20)
#    0.000    1.600    2.000    1.200    5.600    4.000 
#    0.000    2.000    0.000    0.000    0.000    0.000 
#    0.000    0.000    0.000    0.000    0.000    0.000 
#
# Total GULP energy -495997.800020 kJ/mol
# GULP energy per Si atom -12399.945001 kJ/mol
# Density = 2.100931 g / cm^3
# Si number density = 21.057240 Si / 1000 Ang^3
#
#
#
# Elastic Constant Matrix: (Units=GPa)
#
#
# Indices 1 2 3 4 5 6 
#
# 1 59.7117 27.6486 17.4094 0.0000 0.0000 0.0000
# 2 27.6486 155.8007 49.3947 0.0000 0.0000 0.0000
# 3 17.4094 49.3947 91.8565 0.0000 0.0000 0.0000
# 4 0.0000 0.0000 0.0000 26.3340 0.0000 0.0000
# 5 0.0000 0.0000 0.0000 0.0000 20.0640 0.0000
# 6 0.0000 0.0000 0.0000 0.0000 0.0000 31.2055
#
#
#
# Elastic Compliance Matrix: (Units=1/GPa)
#
#
# Indices 1 2 3 4 5 6 
#
# 1 0.018579 -0.002629 -0.002108 0.000000 0.000000 0.000000
# 2 -0.002629 0.008110 -0.003863 0.000000 0.000000 0.000000
# 3 -0.002108 -0.003863 0.013363 0.000000 0.000000 0.000000
# 4 0.000000 0.000000 0.000000 0.037974 0.000000 0.000000
# 5 0.000000 0.000000 0.000000 0.000000 0.049840 0.000000
# 6 0.000000 0.000000 0.000000 0.000000 0.000000 0.032046
#
#
# Mechanical properties :
#
#
# Convention : Reuss Voigt Hill
#
# Bulk Modulus (GPa) = 43.75708 55.14159 49.44933
# Shear Modulus (GPa) = 27.06696 29.71513 28.39104
#
# Velocity S-wave (km/s) = 3.58914 3.76062 3.67588
# Velocity P-wave (km/s) = 6.16450 6.71563 6.44596
#
# Compressibility (1/GPa) = 0.02285345
#
# Stress axis : x y z
#
# Youngs Moduli (GPa) = 53.82463 123.31133 74.83329
#
# Poissons Ratio (x) = 0.32417 0.15772
# Poissons Ratio (y) = 0.14150 0.28905
# Poissons Ratio (z) = 0.11344 0.47630
#
# Static dielectric constant tensor:
#      x y z
#    x 3.583360 0.000000 0.000000 
#    y 0.000000 3.988730 0.000000 
#    z 0.000000 0.000000 3.835500 
# 
# 
# High freq. dielectric constant tensor:
#      x y z
#    x 1.818500 0.000000 0.000000 
#    y 0.000000 1.838230 0.000000 
#    z 0.000000 0.000000 1.821440 
# 
# From -- ./inp_files/4287.got.cif
#   From: 2010.03.12/outbox.cif.g09.slc.cpg/sg62_3_cif.got.tgz:4287.got - 2010.04.10 19:12:36.
