data_PCOD8254044
_publ_section_title
;
Structure prediction by ZEFSAII (Michael W. Deem and Ramdas Pophale) SiO2 
 PCOD8254044
Probable space group: P N M A
;
_chemical_formula_sum "Si O2"
_cell_formula_units_Z 40
_cell_length_a 5.437422
_cell_length_b 16.362018
_cell_length_c 18.412249
_cell_angle_alpha 90.000000
_cell_angle_beta 90.000000
_cell_angle_gamma 90.000000
_cell_volume 1638.086177
_symmetry_space_group_name_H-M "P N M A"
_symmetry_group_IT_number 62
_symmetry_cell_setting 'orthorhombic'
loop_
_space_group_symop_operation_xyz
x,y,z
1/2-x,-y,1/2+z
1/2+x,1/2-y,1/2-z
-x,1/2+y,-z
-x,-y,-z
1/2+x,y,1/2-z
1/2-x,1/2+y,1/2+z
x,1/2-y,z
loop_
_atom_site_type_symbol
_atom_site_label
_atom_site_fract_x
_atom_site_fract_y
_atom_site_fract_z
Si Si1 0.536437 0.426406 0.712096
Si Si2 0.287559 0.156920 0.911352
Si Si3 0.685691 0.052491 0.954912
Si Si4 0.990498 0.120677 0.212648
Si Si5 0.930020 0.609857 0.944465
O O1 0.284636 0.393089 0.747994
O O2 0.558040 0.387380 0.630110
O O3 0.532489 0.523492 0.712845
O O4 0.313270 0.250000 0.885575
O O5 0.538529 0.105491 0.893818
O O6 0.260772 0.152287 0.999564
O O7 0.865778 0.984141 0.920183
O O8 0.816316 0.112624 0.011520
O O9 0.500000 0.000000 0.000000
O O10 0.726819 0.153356 0.241898
O O11 0.034136 0.156770 0.131466
#
# Coordination Sequence:
#
# PCOD8254044 Si02
#       5
#     8   8   8   8   8
#     4  10  23  40  61  91 132 171 212 258 315 385
#     4  11  25  40  61  90 126 176 221 262 325 399
#     4   9  19  35  61  86 117 156 207 263 317 364
#     4  10  22  36  64  99 126 159 207 268 333 384
#     4  10  21  38  63  90 124 162 216 277 325 381
#
# _framework density 24.41874
#
# number of rings (size 3 to 8) (size 9 to 14) (size 15 to 20)
#    0.000    2.000    0.000    3.600   16.800    1.600 
#    0.000    0.000    0.000    1.200    0.000    0.000 
#    0.000    0.000    0.000    0.000    0.000    0.000 
#
# Total GULP energy -495564.050415 kJ/mol
# GULP energy per Si atom -12389.101260 kJ/mol
# Density = 2.436316 g / cm^3
# Si number density = 24.418740 Si / 1000 Ang^3
#
#
#
# Elastic Constant Matrix: (Units=GPa)
#
#
# Indices 1 2 3 4 5 6 
#
# 1 141.2181 4.9600 44.7973 0.0000 0.0000 0.0000
# 2 4.9600 68.0090 -9.2113 0.0000 0.0000 0.0000
# 3 44.7973 -9.2113 128.5409 0.0000 0.0000 0.0000
# 4 0.0000 0.0000 0.0000 11.6965 0.0000 0.0000
# 5 0.0000 0.0000 0.0000 0.0000 46.4384 0.0000
# 6 0.0000 0.0000 0.0000 0.0000 0.0000 5.7310
#
#
#
# Elastic Compliance Matrix: (Units=1/GPa)
#
#
# Indices 1 2 3 4 5 6 
#
# 1 0.008025 -0.000973 -0.002866 0.000000 0.000000 0.000000
# 2 -0.000973 0.014966 0.001412 0.000000 0.000000 0.000000
# 3 -0.002866 0.001412 0.008880 0.000000 0.000000 0.000000
# 4 0.000000 0.000000 0.000000 0.085496 0.000000 0.000000
# 5 0.000000 0.000000 0.000000 0.000000 0.021534 0.000000
# 6 0.000000 0.000000 0.000000 0.000000 0.000000 0.174490
#
#
# Mechanical properties :
#
#
# Convention : Reuss Voigt Hill
#
# Bulk Modulus (GPa) = 37.01743 46.53999 41.77871
# Shear Modulus (GPa) = 15.27877 32.58798 23.93337
#
# Velocity S-wave (km/s) = 2.50411 3.65711 3.13409
# Velocity P-wave (km/s) = 4.85315 6.07726 5.49937
#
# Compressibility (1/GPa) = 0.02701430
#
# Stress axis : x y z
#
# Youngs Moduli (GPa) = 124.61487 66.81745 112.61567
#
# Poissons Ratio (x) = 0.06505 0.32280
# Poissons Ratio (y) = 0.12131 -0.15898
# Poissons Ratio (z) = 0.35720 -0.09433
#
# Static dielectric constant tensor:
#      x y z
#    x 4.427030 0.000000 0.000000 
#    y 0.000000 4.088440 0.000000 
#    z 0.000000 0.000000 4.283890 
# 
# 
# High freq. dielectric constant tensor:
#      x y z
#    x 1.987210 0.000000 0.000000 
#    y 0.000000 1.916400 0.000000 
#    z 0.000000 0.000000 1.972650 
# 
# From -- ./inp_files/21494.got.cif
#   From: 2010.03.12/outbox.cif.g09.slc.cpg/sg62_11_cif.got.tgz:21494.got - 2010.04.10 19:12:36.
