data_PCOD8254336
_publ_section_title
;
Structure prediction by ZEFSAII (Michael W. Deem and Ramdas Pophale) SiO2 
 PCOD8254336
Probable space group: P N M A
;
_chemical_formula_sum "Si O2"
_cell_formula_units_Z 48
_cell_length_a 21.816978
_cell_length_b 8.930310
_cell_length_c 12.311192
_cell_angle_alpha 90.000000
_cell_angle_beta 90.000000
_cell_angle_gamma 90.000000
_cell_volume 2398.618799
_symmetry_space_group_name_H-M "P N M A"
_symmetry_group_IT_number 62
_symmetry_cell_setting 'orthorhombic'
loop_
_space_group_symop_operation_xyz
x,y,z
1/2-x,-y,1/2+z
1/2+x,1/2-y,1/2-z
-x,1/2+y,-z
-x,-y,-z
1/2+x,y,1/2-z
1/2-x,1/2+y,1/2+z
x,1/2-y,z
loop_
_atom_site_type_symbol
_atom_site_label
_atom_site_fract_x
_atom_site_fract_y
_atom_site_fract_z
Si Si1 0.933586 0.072488 0.514719
Si Si2 0.307802 0.927784 0.579999
Si Si3 0.863717 0.075783 0.132121
Si Si4 0.485223 0.578171 0.388273
Si Si5 0.174823 0.575610 0.633562
Si Si6 0.606530 0.579287 0.252164
O O1 0.943141 0.250000 0.507777
O O2 0.886105 0.008344 0.423766
O O3 0.902512 0.026070 0.628729
O O4 0.000000 0.000000 0.500000
O O5 0.310017 0.750000 0.573996
O O6 0.238085 0.989646 0.585184
O O7 0.337687 0.993867 0.472546
O O8 0.343626 0.977187 0.688081
O O9 0.870437 0.250000 0.103641
O O10 0.822008 0.046333 0.237308
O O11 0.929015 0.008619 0.165755
O O12 0.500000 0.500000 0.500000
O O13 0.467612 0.750000 0.409832
O O14 0.541263 0.561644 0.307978
O O15 0.172467 0.750000 0.608111
O O16 0.629798 0.750000 0.258019
#
# Coordination Sequence:
#
# PCOD8254336 Si02
#       6
#     8   8   8   8   8   8
#     4  10  21  41  65  90 121 157 199 248 304 361
#     4  11  23  39  60  88 119 158 205 246 298 360
#     4  11  22  39  61  86 119 155 197 247 298 354
#     4  11  21  35  56  87 122 156 197 245 297 351
#     4   9  22  41  61  86 120 159 197 244 301 358
#     4  10  22  38  60  88 122 158 197 248 304 356
#
# _framework density 20.011516
#
# number of rings (size 3 to 8) (size 9 to 14) (size 15 to 20)
#    0.000    1.667    1.667    2.500    2.333    1.333 
#    0.000    5.000    0.000    0.000    0.000    0.000 
#    0.000    0.000    0.000    0.000    0.000    0.000 
#
# Total GULP energy -595198.449338 kJ/mol
# GULP energy per Si atom -12399.967695 kJ/mol
# Density = 1.996597 g / cm^3
# Si number density = 20.011516 Si / 1000 Ang^3
#
#
#
# Elastic Constant Matrix: (Units=GPa)
#
#
# Indices 1 2 3 4 5 6 
#
# 1 140.4302 47.5022 56.1154 0.0000 0.0000 0.0000
# 2 47.5022 80.5911 43.4468 0.0000 0.0000 0.0000
# 3 56.1154 43.4468 114.9130 0.0000 0.0000 0.0000
# 4 0.0000 0.0000 0.0000 18.2810 0.0000 0.0000
# 5 0.0000 0.0000 0.0000 0.0000 20.7127 0.0000
# 6 0.0000 0.0000 0.0000 0.0000 0.0000 29.0532
#
#
#
# Elastic Compliance Matrix: (Units=1/GPa)
#
#
# Indices 1 2 3 4 5 6 
#
# 1 0.009779 -0.004006 -0.003261 0.000000 0.000000 0.000000
# 2 -0.004006 0.017226 -0.004557 0.000000 0.000000 0.000000
# 3 -0.003261 -0.004557 0.012017 0.000000 0.000000 0.000000
# 4 0.000000 0.000000 0.000000 0.054702 0.000000 0.000000
# 5 0.000000 0.000000 0.000000 0.000000 0.048280 0.000000
# 6 0.000000 0.000000 0.000000 0.000000 0.000000 0.034420
#
#
# Mechanical properties :
#
#
# Convention : Reuss Voigt Hill
#
# Bulk Modulus (GPa) = 65.03844 70.00704 67.52274
# Shear Modulus (GPa) = 24.36701 26.20070 25.28386
#
# Velocity S-wave (km/s) = 3.49327 3.62232 3.55838
# Velocity P-wave (km/s) = 6.98868 7.24943 7.12025
#
# Compressibility (1/GPa) = 0.01537552
#
# Stress axis : x y z
#
# Youngs Moduli (GPa) = 102.25903 58.05149 83.21305
#
# Poissons Ratio (x) = 0.23256 0.27134
# Poissons Ratio (y) = 0.40966 0.37917
# Poissons Ratio (z) = 0.33344 0.26452
#
# Static dielectric constant tensor:
#      x y z
#    x 3.764980 0.000000 0.000000 
#    y 0.000000 3.489380 0.000000 
#    z 0.000000 0.000000 3.636970 
# 
# 
# High freq. dielectric constant tensor:
#      x y z
#    x 1.792200 0.000000 0.000000 
#    y 0.000000 1.766790 0.000000 
#    z 0.000000 0.000000 1.793510 
# 
# From -- ./inp_files/15130.got.cif
#   From: 2010.03.12/outbox.cif.g09.slc.cpg/sg62_8_cif.got.tgz:15130.got - 2010.04.10 19:12:36.
