data_PCOD8254551
_publ_section_title
;
Structure prediction by ZEFSAII (Michael W. Deem and Ramdas Pophale) SiO2 
 PCOD8254551
Probable space group: P N M A
;
_chemical_formula_sum "Si O2"
_cell_formula_units_Z 48
_cell_length_a 13.779040
_cell_length_b 24.004359
_cell_length_c 6.729816
_cell_angle_alpha 90.000000
_cell_angle_beta 90.000000
_cell_angle_gamma 90.000000
_cell_volume 2225.933904
_symmetry_space_group_name_H-M "P N M A"
_symmetry_group_IT_number 62
_symmetry_cell_setting 'orthorhombic'
loop_
_space_group_symop_operation_xyz
x,y,z
1/2-x,-y,1/2+z
1/2+x,1/2-y,1/2-z
-x,1/2+y,-z
-x,-y,-z
1/2+x,y,1/2-z
1/2-x,1/2+y,1/2+z
x,1/2-y,z
loop_
_atom_site_type_symbol
_atom_site_label
_atom_site_fract_x
_atom_site_fract_y
_atom_site_fract_z
Si Si1 0.141734 0.686733 0.501675
Si Si2 0.566697 0.448413 0.236287
Si Si3 0.302916 0.687713 0.179965
Si Si4 0.520266 0.382864 0.859531
Si Si5 0.255854 0.623027 0.820042
Si Si6 0.102444 0.942017 0.050174
O O1 0.143745 0.750000 0.580924
O O2 0.204325 0.680243 0.302340
O O3 0.181735 0.642227 0.655658
O O4 0.030015 0.668222 0.476995
O O5 0.646343 0.400584 0.283329
O O6 0.619343 0.505855 0.300394
O O7 0.468199 0.450235 0.362473
O O8 0.540020 0.437311 0.001871
O O9 0.344558 0.750000 0.210309
O O10 0.381617 0.640676 0.240732
O O11 0.281225 0.677743 0.947847
O O12 0.447253 0.395281 0.682797
O O13 0.206761 0.576835 0.965540
#
# Coordination Sequence:
#
# PCOD8254551 Si02
#       6
#     8   8   8   8   8   8
#     4  11  22  38  62  91 123 160 204 252 305 363
#     4  10  24  41  62  90 125 160 205 251 305 366
#     4  10  22  40  61  88 122 161 206 250 302 364
#     4  11  21  40  64  89 124 161 201 252 307 363
#     4  11  22  41  63  91 122 162 201 255 307 366
#     4  11  22  42  63  92 123 162 204 250 307 369
#
# _framework density 21.563984999999999
#
# number of rings (size 3 to 8) (size 9 to 14) (size 15 to 20)
#    0.000    1.333    3.333    2.500    0.000    1.333 
#   12.000    0.000    0.000    0.000    0.000    0.000 
#    0.000    0.000    0.000    0.000    0.000    0.000 
#
# Total GULP energy -594749.471514 kJ/mol
# GULP energy per Si atom -12390.613990 kJ/mol
# Density = 2.151490 g / cm^3
# Si number density = 21.563985 Si / 1000 Ang^3
#
#
#
# Elastic Constant Matrix: (Units=GPa)
#
#
# Indices 1 2 3 4 5 6 
#
# 1 51.1368 1.1278 -0.6044 0.0000 0.0000 0.0000
# 2 1.1278 68.4768 19.3320 0.0000 0.0000 0.0000
# 3 -0.6044 19.3320 48.6556 0.0000 0.0000 0.0000
# 4 0.0000 0.0000 0.0000 33.7061 0.0000 0.0000
# 5 0.0000 0.0000 0.0000 0.0000 -17.3168 0.0000
# 6 0.0000 0.0000 0.0000 0.0000 0.0000 26.9547
#
#
#
# Elastic Compliance Matrix: (Units=1/GPa)
#
#
# Indices 1 2 3 4 5 6 
#
# 1 0.019570 -0.000440 0.000418 0.000000 0.000000 0.000000
# 2 -0.000440 0.016458 -0.006545 0.000000 0.000000 0.000000
# 3 0.000418 -0.006545 0.023158 0.000000 0.000000 0.000000
# 4 0.000000 0.000000 0.000000 0.029668 0.000000 0.000000
# 5 0.000000 0.000000 0.000000 0.000000 -0.057747 0.000000
# 6 0.000000 0.000000 0.000000 0.000000 0.000000 0.037099
#
#
# Mechanical properties :
#
#
# Convention : Reuss Voigt Hill
#
# Bulk Modulus (GPa) = 21.71436 23.10891 22.41163
# Shear Modulus (GPa) = 51.71072 18.56304 35.13688
#
# Velocity S-wave (km/s) = 4.90226 2.93718 4.04099
# Velocity P-wave (km/s) = 6.49111 4.71619 5.67349
#
# Compressibility (1/GPa) = 0.04605248
#
# Stress axis : x y z
#
# Youngs Moduli (GPa) = 51.09856 60.75913 43.18126
#
# Poissons Ratio (x) = 0.02675 -0.01805
# Poissons Ratio (y) = 0.02250 0.28261
# Poissons Ratio (z) = -0.02136 0.39766
#
# Static dielectric constant tensor:
#      x y z
#    x 3.877330 0.000000 0.000000 
#    y 0.000000 3.877170 0.000000 
#    z 0.000000 0.000000 3.776830 
# 
# 
# High freq. dielectric constant tensor:
#      x y z
#    x 1.854470 0.000000 0.000000 
#    y 0.000000 1.843130 0.000000 
#    z 0.000000 0.000000 1.838440 
# 
# From -- ./inp_files/1155.got.cif
#   From: 2010.03.12/outbox.cif.g09.slc.cpg/sg62_1_cif.got.tgz:1155.got - 2010.04.10 19:12:36.
