data_PCOD8254255
_publ_section_title
;
Structure prediction by ZEFSAII (Michael W. Deem and Ramdas Pophale) SiO2 
 PCOD8254255
Probable space group: P N M A
;
_chemical_formula_sum "Si O2"
_cell_formula_units_Z 48
_cell_length_a 8.680686
_cell_length_b 18.479087
_cell_length_c 13.692338
_cell_angle_alpha 90.000000
_cell_angle_beta 90.000000
_cell_angle_gamma 90.000000
_cell_volume 2196.403710
_symmetry_space_group_name_H-M "P N M A"
_symmetry_group_IT_number 62
_symmetry_cell_setting 'orthorhombic'
loop_
_space_group_symop_operation_xyz
x,y,z
1/2-x,-y,1/2+z
1/2+x,1/2-y,1/2-z
-x,1/2+y,-z
-x,-y,-z
1/2+x,y,1/2-z
1/2-x,1/2+y,1/2+z
x,1/2-y,z
loop_
_atom_site_type_symbol
_atom_site_label
_atom_site_fract_x
_atom_site_fract_y
_atom_site_fract_z
Si Si1 0.113494 0.334455 0.066796
Si Si2 0.534090 0.550022 0.689186
Si Si3 0.085016 0.889954 0.474806
Si Si4 0.629529 0.457752 0.115035
Si Si5 0.807264 0.167659 0.709839
Si Si6 0.996899 0.895297 0.128044
O O1 0.086619 0.250000 0.086341
O O2 0.064570 0.379019 0.162371
O O3 0.291139 0.348703 0.041888
O O4 0.003048 0.362267 0.979683
O O5 0.713563 0.565826 0.668011
O O6 0.504892 0.533031 0.803494
O O7 0.474093 0.481411 0.625989
O O8 0.061528 0.844377 0.374332
O O9 0.926857 0.897207 0.536368
O O10 0.152218 0.968555 0.445278
O O11 0.750965 0.250000 0.710697
O O12 0.664313 0.117200 0.682905
O O13 0.867336 0.145145 0.815116
#
# Coordination Sequence:
#
# PCOD8254255 Si02
#       6
#     8   8   8   8   8   8
#     4  11  24  43  65  93 133 173 216 268 328 385
#     4  12  22  43  64  99 124 172 215 269 317 382
#     4  10  21  40  63  95 124 168 212 266 326 377
#     4  11  23  39  67  94 127 163 220 270 312 385
#     4  11  21  37  60  92 133 168 207 264 333 388
#     4  11  21  38  61  93 127 169 210 265 322 389
#
# _framework density 21.853905999999998
#
# number of rings (size 3 to 8) (size 9 to 14) (size 15 to 20)
#    0.000    1.000    5.000    4.500    0.000    1.333 
#    0.000    7.500    0.000    0.000    0.000    0.000 
#    0.000    0.000    0.000    0.000    0.000    0.000 
#
# Total GULP energy -595257.248600 kJ/mol
# GULP energy per Si atom -12401.192679 kJ/mol
# Density = 2.180417 g / cm^3
# Si number density = 21.853906 Si / 1000 Ang^3
#
#
#
# Elastic Constant Matrix: (Units=GPa)
#
#
# Indices 1 2 3 4 5 6 
#
# 1 36.9297 13.8065 9.6714 0.0000 0.0000 0.0000
# 2 13.8065 139.8819 22.1373 0.0000 0.0000 0.0000
# 3 9.6714 22.1373 49.2039 0.0000 0.0000 0.0000
# 4 0.0000 0.0000 0.0000 33.9111 0.0000 0.0000
# 5 0.0000 0.0000 0.0000 0.0000 42.0855 0.0000
# 6 0.0000 0.0000 0.0000 0.0000 0.0000 25.7443
#
#
#
# Elastic Compliance Matrix: (Units=1/GPa)
#
#
# Indices 1 2 3 4 5 6 
#
# 1 0.029120 -0.002119 -0.004770 0.000000 0.000000 0.000000
# 2 -0.002119 0.007851 -0.003116 0.000000 0.000000 0.000000
# 3 -0.004770 -0.003116 0.022663 0.000000 0.000000 0.000000
# 4 0.000000 0.000000 0.000000 0.029489 0.000000 0.000000
# 5 0.000000 0.000000 0.000000 0.000000 0.023761 0.000000
# 6 0.000000 0.000000 0.000000 0.000000 0.000000 0.038844
#
#
# Mechanical properties :
#
#
# Convention : Reuss Voigt Hill
#
# Bulk Modulus (GPa) = 25.23747 35.24956 30.24351
# Shear Modulus (GPa) = 27.03485 32.37485 29.70485
#
# Velocity S-wave (km/s) = 3.52102 3.85310 3.69080
# Velocity P-wave (km/s) = 5.30127 5.99665 5.65965
#
# Compressibility (1/GPa) = 0.03962363
#
# Stress axis : x y z
#
# Youngs Moduli (GPa) = 34.34054 127.36991 44.12471
#
# Poissons Ratio (x) = 0.26993 0.21049
# Poissons Ratio (y) = 0.07278 0.13748
# Poissons Ratio (z) = 0.16382 0.39685
#
# Static dielectric constant tensor:
#      x y z
#    x 3.742500 0.000000 0.000000 
#    y 0.000000 3.848180 0.000000 
#    z 0.000000 0.000000 4.073160 
# 
# 
# High freq. dielectric constant tensor:
#      x y z
#    x 1.842760 0.000000 0.000000 
#    y 0.000000 1.848540 0.000000 
#    z 0.000000 0.000000 1.859150 
# 
# From -- ./inp_files/16926.got.cif
#   From: 2010.03.12/outbox.cif.g09.slc.cpg/sg62_9_cif.got.tgz:16926.got - 2010.04.10 19:12:36.
