data_PCOD8254474
_publ_section_title
;
Structure prediction by ZEFSAII (Michael W. Deem and Ramdas Pophale) SiO2 
 PCOD8254474
Probable space group: P N M A
;
_chemical_formula_sum "Si O2"
_cell_formula_units_Z 44
_cell_length_a 8.999237
_cell_length_b 16.487056
_cell_length_c 14.734850
_cell_angle_alpha 90.000000
_cell_angle_beta 90.000000
_cell_angle_gamma 90.000000
_cell_volume 2186.223315
_symmetry_space_group_name_H-M "P N M A"
_symmetry_group_IT_number 62
_symmetry_cell_setting 'orthorhombic'
loop_
_space_group_symop_operation_xyz
x,y,z
1/2-x,-y,1/2+z
1/2+x,1/2-y,1/2-z
-x,1/2+y,-z
-x,-y,-z
1/2+x,y,1/2-z
1/2-x,1/2+y,1/2+z
x,1/2-y,z
loop_
_atom_site_type_symbol
_atom_site_label
_atom_site_fract_x
_atom_site_fract_y
_atom_site_fract_z
Si Si1 0.387050 0.898513 0.526997
Si Si2 0.373698 0.750000 0.265169
Si Si3 0.204332 0.583154 0.278770
Si Si4 0.021801 0.013081 0.850344
Si Si5 0.549146 0.750000 0.444787
Si Si6 0.434763 0.087260 0.970209
Si Si7 0.899967 0.750000 0.439610
O O1 0.413839 0.961903 0.446889
O O2 0.480413 0.821775 0.501313
O O3 0.209169 0.887769 0.529734
O O4 0.445501 0.926645 0.627087
O O5 0.274028 0.671618 0.280507
O O6 0.504932 0.750000 0.338995
O O7 0.448153 0.750000 0.166286
O O8 0.108399 0.571668 0.187712
O O9 0.336812 0.515073 0.282163
O O10 0.096094 0.575315 0.363980
O O11 0.724517 0.750000 0.450672
O O12 0.542146 0.165696 0.984338
O O13 0.500000 0.000000 0.000000
#
# Coordination Sequence:
#
# PCOD8254474 Si02
#       7
#     8   4   8   8   4   8   4
#     4  10  23  41  62  84 133 168 214 246 336 376
#     4  12  23  36  59  96 133 162 195 261 343 397
#     4  11  23  38  62  91 134 164 214 256 328 382
#     4  10  22  38  61  91 121 168 206 257 300 394
#     4  12  23  41  64  87 128 177 200 277 321 395
#     4  11  25  40  63  94 135 175 218 272 322 394
#     4  12  28  37  65  97 131 163 231 266 328 400
#
# _framework density 20.126031000000001
#
# number of rings (size 3 to 8) (size 9 to 14) (size 15 to 20)
#    0.000    1.091    3.636    3.273   15.273    0.000 
#    0.000    0.000    0.000    2.182    0.000    0.000 
#    0.000    0.000    0.000    0.000    0.000    0.000 
#
# Total GULP energy -545121.145244 kJ/mol
# GULP energy per Si atom -12389.116937 kJ/mol
# Density = 2.008022 g / cm^3
# Si number density = 20.126031 Si / 1000 Ang^3
#
#
#
# Elastic Constant Matrix: (Units=GPa)
#
#
# Indices 1 2 3 4 5 6 
#
# 1 155.7208 59.5031 29.0992 0.0000 0.0000 0.0000
# 2 59.5031 115.1186 29.9987 0.0000 0.0000 0.0000
# 3 29.0992 29.9987 36.7572 0.0000 0.0000 0.0000
# 4 0.0000 0.0000 0.0000 31.6697 0.0000 0.0000
# 5 0.0000 0.0000 0.0000 0.0000 27.2841 0.0000
# 6 0.0000 0.0000 0.0000 0.0000 0.0000 39.0154
#
#
#
# Elastic Compliance Matrix: (Units=1/GPa)
#
#
# Indices 1 2 3 4 5 6 
#
# 1 0.008433 -0.003327 -0.003961 0.000000 0.000000 0.000000
# 2 -0.003327 0.012346 -0.007442 0.000000 0.000000 0.000000
# 3 -0.003961 -0.007442 0.036415 0.000000 0.000000 0.000000
# 4 0.000000 0.000000 0.000000 0.031576 0.000000 0.000000
# 5 0.000000 0.000000 0.000000 0.000000 0.036651 0.000000
# 6 0.000000 0.000000 0.000000 0.000000 0.000000 0.025631
#
#
# Mechanical properties :
#
#
# Convention : Reuss Voigt Hill
#
# Bulk Modulus (GPa) = 36.05667 60.53318 48.29492
# Shear Modulus (GPa) = 26.34960 32.19355 29.27157
#
# Velocity S-wave (km/s) = 3.62225 4.00384 3.81781
# Velocity P-wave (km/s) = 5.95387 7.17751 6.59414
#
# Compressibility (1/GPa) = 0.02773412
#
# Stress axis : x y z
#
# Youngs Moduli (GPa) = 118.57961 81.00104 27.46119
#
# Poissons Ratio (x) = 0.26947 0.10878
# Poissons Ratio (y) = 0.39448 0.20436
# Poissons Ratio (z) = 0.46971 0.60280
#
# Static dielectric constant tensor:
#      x y z
#    x 4.091900 0.000000 0.000000 
#    y 0.000000 4.532970 0.000000 
#    z 0.000000 0.000000 3.767820 
# 
# 
# High freq. dielectric constant tensor:
#      x y z
#    x 1.812720 0.000000 0.000000 
#    y 0.000000 1.775510 0.000000 
#    z 0.000000 0.000000 1.753740 
# 
# From -- ./inp_files/16875.got.cif
#   From: 2010.03.12/outbox.cif.g09.slc.cpg/sg62_9_cif.got.tgz:16875.got - 2010.04.10 19:12:36.
