data_PCOD8254365
_publ_section_title
;
Structure prediction by ZEFSAII (Michael W. Deem and Ramdas Pophale) SiO2 
 PCOD8254365
Probable space group: P N M A
;
_chemical_formula_sum "Si O2"
_cell_formula_units_Z 48
_cell_length_a 9.114870
_cell_length_b 17.578500
_cell_length_c 14.088317
_cell_angle_alpha 90.000000
_cell_angle_beta 90.000000
_cell_angle_gamma 90.000000
_cell_volume 2257.311049
_symmetry_space_group_name_H-M "P N M A"
_symmetry_group_IT_number 62
_symmetry_cell_setting 'orthorhombic'
loop_
_space_group_symop_operation_xyz
x,y,z
1/2-x,-y,1/2+z
1/2+x,1/2-y,1/2-z
-x,1/2+y,-z
-x,-y,-z
1/2+x,y,1/2-z
1/2-x,1/2+y,1/2+z
x,1/2-y,z
loop_
_atom_site_type_symbol
_atom_site_label
_atom_site_fract_x
_atom_site_fract_y
_atom_site_fract_z
Si Si1 0.195240 0.337583 0.309300
Si Si2 0.856286 0.572257 0.218839
Si Si3 0.201708 0.446019 0.994483
Si Si4 0.606777 0.886029 0.519702
Si Si5 0.114406 0.584104 0.666961
Si Si6 0.366843 0.333885 0.676743
O O1 0.146897 0.250000 0.314219
O O2 0.322053 0.356151 0.384567
O O3 0.270947 0.354469 0.208443
O O4 0.053170 0.389432 0.326823
O O5 0.861519 0.492776 0.273277
O O6 0.785873 0.639762 0.279162
O O7 0.020898 0.599231 0.201714
O O8 0.770835 0.564757 0.118153
O O9 0.346882 0.425739 0.055375
O O10 0.068804 0.393313 0.033122
O O11 0.167663 0.533310 0.015015
O O12 0.646158 0.826722 0.436876
O O13 0.407755 0.250000 0.716340
#
# Coordination Sequence:
#
# PCOD8254365 Si02
#       6
#     8   8   8   8   8   8
#     4  12  26  43  65  98 133 172 214 268 331 383
#     4  11  23  41  66  93 125 168 214 263 313 383
#     4  10  22  41  69  99 122 165 223 267 312 379
#     4  10  21  41  68  93 128 165 215 267 318 380
#     4  12  24  43  69  94 129 171 218 271 315 387
#     4  11  23  41  63  94 130 168 208 260 323 380
#
# _framework density 21.264239
#
# number of rings (size 3 to 8) (size 9 to 14) (size 15 to 20)
#    0.000    1.000    3.333    3.500    2.333    2.000 
#    0.000   10.833    0.000    0.000    0.000    0.000 
#    0.000    0.000    0.000    0.000    0.000    0.000 
#
# Total GULP energy -595246.076700 kJ/mol
# GULP energy per Si atom -12400.959931 kJ/mol
# Density = 2.121584 g / cm^3
# Si number density = 21.264239 Si / 1000 Ang^3
#
#
#
# Elastic Constant Matrix: (Units=GPa)
#
#
# Indices 1 2 3 4 5 6 
#
# 1 39.4443 21.9693 16.2845 0.0000 0.0000 0.0000
# 2 21.9693 107.3015 41.0153 0.0000 0.0000 0.0000
# 3 16.2845 41.0153 78.4184 0.0000 0.0000 0.0000
# 4 0.0000 0.0000 0.0000 10.0045 0.0000 0.0000
# 5 0.0000 0.0000 0.0000 0.0000 39.9437 0.0000
# 6 0.0000 0.0000 0.0000 0.0000 0.0000 23.1614
#
#
#
# Elastic Compliance Matrix: (Units=1/GPa)
#
#
# Indices 1 2 3 4 5 6 
#
# 1 0.029451 -0.004615 -0.003702 0.000000 0.000000 0.000000
# 2 -0.004615 0.012371 -0.005512 0.000000 0.000000 0.000000
# 3 -0.003702 -0.005512 0.016404 0.000000 0.000000 0.000000
# 4 0.000000 0.000000 0.000000 0.099955 0.000000 0.000000
# 5 0.000000 0.000000 0.000000 0.000000 0.025035 0.000000
# 6 0.000000 0.000000 0.000000 0.000000 0.000000 0.043175
#
#
# Mechanical properties :
#
#
# Convention : Reuss Voigt Hill
#
# Bulk Modulus (GPa) = 32.71413 42.63361 37.67387
# Shear Modulus (GPa) = 18.92218 24.34825 21.63522
#
# Velocity S-wave (km/s) = 2.98629 3.38750 3.19320
# Velocity P-wave (km/s) = 5.22576 5.94922 5.59918
#
# Compressibility (1/GPa) = 0.03056783
#
# Stress axis : x y z
#
# Youngs Moduli (GPa) = 33.95485 80.83136 60.96054
#
# Poissons Ratio (x) = 0.37302 0.22569
# Poissons Ratio (y) = 0.15669 0.33604
# Poissons Ratio (z) = 0.12571 0.44557
#
# Static dielectric constant tensor:
#      x y z
#    x 3.702430 0.000000 0.000000 
#    y 0.000000 3.792470 0.000000 
#    z 0.000000 0.000000 3.958030 
# 
# 
# High freq. dielectric constant tensor:
#      x y z
#    x 1.827500 0.000000 0.000000 
#    y 0.000000 1.833990 0.000000 
#    z 0.000000 0.000000 1.840460 
# 
# From -- ./inp_files/16906.got.cif
#   From: 2010.03.12/outbox.cif.g09.slc.cpg/sg62_9_cif.got.tgz:16906.got - 2010.04.10 19:12:36.
