data_PCOD8254098
_publ_section_title
;
Structure prediction by ZEFSAII (Michael W. Deem and Ramdas Pophale) SiO2 
 PCOD8254098
Probable space group: P N M A
;
_chemical_formula_sum "Si O2"
_cell_formula_units_Z 64
_cell_length_a 23.605595
_cell_length_b 8.811206
_cell_length_c 15.387917
_cell_angle_alpha 90.000000
_cell_angle_beta 90.000000
_cell_angle_gamma 90.000000
_cell_volume 3200.590720
_symmetry_space_group_name_H-M "P N M A"
_symmetry_group_IT_number 62
_symmetry_cell_setting 'orthorhombic'
loop_
_space_group_symop_operation_xyz
x,y,z
1/2-x,-y,1/2+z
1/2+x,1/2-y,1/2-z
-x,1/2+y,-z
-x,-y,-z
1/2+x,y,1/2-z
1/2-x,1/2+y,1/2+z
x,1/2-y,z
loop_
_atom_site_type_symbol
_atom_site_label
_atom_site_fract_x
_atom_site_fract_y
_atom_site_fract_z
Si Si1 0.996983 0.928908 0.185097
Si Si2 0.114600 0.570511 0.112431
Si Si3 0.495892 0.427397 0.134338
Si Si4 0.235348 0.929976 0.175973
Si Si5 0.584309 0.573239 0.021658
Si Si6 0.899042 0.074879 0.082451
Si Si7 0.713632 0.570821 0.991146
Si Si8 0.277836 0.425710 0.350747
O O1 0.999087 0.750000 0.192142
O O2 0.058556 0.995727 0.158752
O O3 0.977822 0.996234 0.276392
O O4 0.951366 0.974932 0.113435
O O5 0.112214 0.750000 0.114527
O O6 0.170644 0.514413 0.162582
O O7 0.117542 0.514635 0.013052
O O8 0.498283 0.250000 0.149048
O O9 0.557438 0.484377 0.102914
O O10 0.447681 0.475891 0.066080
O O11 0.241358 0.750000 0.163869
O O12 0.274835 0.013843 0.106235
O O13 0.253707 0.975140 0.272409
O O14 0.575916 0.750000 0.040159
O O15 0.649414 0.528350 0.014234
O O16 0.918117 0.250000 0.079498
O O17 0.845559 0.053931 0.146208
O O18 0.724394 0.750000 0.996961
O O19 0.753322 0.483363 0.058163
O O20 0.261449 0.250000 0.337888
#
# Coordination Sequence:
#
# PCOD8254098 Si02
#       8
#     8   8   8   8   8   8   8   8
#     4  11  23  37  60  91 120 153 200 249 303 361
#     4   9  20  41  63  84 118 160 194 243 307 359
#     4  10  21  39  60  87 119 157 201 245 298 358
#     4  11  23  42  65  92 126 166 207 252 310 371
#     4   9  21  40  61  83 118 160 196 244 304 357
#     4  10  21  42  64  83 117 159 199 247 305 360
#     4  11  23  41  65  94 125 163 207 255 312 371
#     4  11  24  42  64  92 126 165 207 256 312 370
#
# _framework density 19.996309
#
# number of rings (size 3 to 8) (size 9 to 14) (size 15 to 20)
#    0.000    1.750    1.250    2.250    3.500    2.500 
#    0.000    2.500    0.000    0.000    0.000    0.000 
#    0.000    0.000    0.000    0.000    0.000    0.000 
#
# Total GULP energy -793879.271282 kJ/mol
# GULP energy per Si atom -12404.363614 kJ/mol
# Density = 1.995080 g / cm^3
# Si number density = 19.996309 Si / 1000 Ang^3
#
#
#
# Elastic Constant Matrix: (Units=GPa)
#
#
# Indices 1 2 3 4 5 6 
#
# 1 83.6747 28.4085 11.2118 0.0000 0.0000 0.0000
# 2 28.4085 49.3259 13.1919 0.0000 0.0000 0.0000
# 3 11.2118 13.1919 84.6263 0.0000 0.0000 0.0000
# 4 0.0000 0.0000 0.0000 34.5775 0.0000 0.0000
# 5 0.0000 0.0000 0.0000 0.0000 30.7566 0.0000
# 6 0.0000 0.0000 0.0000 0.0000 0.0000 29.5504
#
#
#
# Elastic Compliance Matrix: (Units=1/GPa)
#
#
# Indices 1 2 3 4 5 6 
#
# 1 0.014892 -0.008399 -0.000664 0.000000 0.000000 0.000000
# 2 -0.008399 0.025892 -0.002923 0.000000 0.000000 0.000000
# 3 -0.000664 -0.002923 0.012360 0.000000 0.000000 0.000000
# 4 0.000000 0.000000 0.000000 0.028921 0.000000 0.000000
# 5 0.000000 0.000000 0.000000 0.000000 0.032513 0.000000
# 6 0.000000 0.000000 0.000000 0.000000 0.000000 0.033840
#
#
# Mechanical properties :
#
#
# Convention : Reuss Voigt Hill
#
# Bulk Modulus (GPa) = 34.27948 35.91683 35.09815
# Shear Modulus (GPa) = 27.45518 29.96455 28.70986
#
# Velocity S-wave (km/s) = 3.70944 3.87525 3.79325
# Velocity P-wave (km/s) = 5.96043 6.16637 6.06427
#
# Compressibility (1/GPa) = 0.02917197
#
# Stress axis : x y z
#
# Youngs Moduli (GPa) = 67.15225 38.62125 80.90418
#
# Poissons Ratio (x) = 0.32438 0.05369
# Poissons Ratio (y) = 0.56402 0.23652
# Poissons Ratio (z) = 0.04456 0.11291
#
# Static dielectric constant tensor:
#      x y z
#    x 3.821280 0.000000 0.000000 
#    y 0.000000 3.515050 0.000000 
#    z 0.000000 0.000000 3.657280 
# 
# 
# High freq. dielectric constant tensor:
#      x y z
#    x 1.790410 0.000000 0.000000 
#    y 0.000000 1.772710 0.000000 
#    z 0.000000 0.000000 1.787960 
# 
# From -- ./inp_files/20779.got.cif
#   From: 2010.03.12/outbox.cif.g09.slc.cpg/sg62_11_cif.got.tgz:20779.got - 2010.04.10 19:12:36.
