data_PCOD8254692
_publ_section_title
;
Structure prediction by ZEFSAII (Michael W. Deem and Ramdas Pophale) SiO2 
 PCOD8254692
Probable space group: P N M A
;
_chemical_formula_sum "Si O2"
_cell_formula_units_Z 40
_cell_length_a 12.297156
_cell_length_b 8.792844
_cell_length_c 18.411100
_cell_angle_alpha 90.000000
_cell_angle_beta 90.000000
_cell_angle_gamma 90.000000
_cell_volume 1990.736537
_symmetry_space_group_name_H-M "P N M A"
_symmetry_group_IT_number 62
_symmetry_cell_setting 'orthorhombic'
loop_
_space_group_symop_operation_xyz
x,y,z
1/2-x,-y,1/2+z
1/2+x,1/2-y,1/2-z
-x,1/2+y,-z
-x,-y,-z
1/2+x,y,1/2-z
1/2-x,1/2+y,1/2+z
x,1/2-y,z
loop_
_atom_site_type_symbol
_atom_site_label
_atom_site_fract_x
_atom_site_fract_y
_atom_site_fract_z
Si Si1 0.552738 0.571301 0.428993
Si Si2 0.101748 0.925148 0.815526
Si Si3 0.777107 0.427527 0.452182
Si Si4 0.969454 0.075198 0.346675
Si Si5 0.307918 0.427398 0.880950
O O1 0.500000 0.500000 0.500000
O O2 0.546069 0.750000 0.437544
O O3 0.486995 0.523047 0.357977
O O4 0.676624 0.520025 0.419421
O O5 0.087252 0.750000 0.837715
O O6 0.086605 0.950910 0.730430
O O7 0.222925 0.977743 0.833938
O O8 0.751296 0.250000 0.443228
O O9 0.884240 0.474317 0.408243
O O10 0.795452 0.474072 0.535277
O O11 0.005648 0.250000 0.357082
O O12 0.072617 0.966887 0.353241
O O13 0.285610 0.250000 0.869499
#
# Coordination Sequence:
#
# PCOD8254692 Si02
#       5
#     8   8   8   8   8
#     4  12  24  40  64  94 125 165 210 261 314 371
#     4  11  24  42  64  91 126 170 213 259 315 377
#     4  10  22  42  66  94 125 163 212 261 312 376
#     4  10  24  43  65  91 126 170 212 256 312 381
#     4  11  23  40  65  94 128 164 207 266 317 371
#
# _framework density 20.093064999999999
#
# number of rings (size 3 to 8) (size 9 to 14) (size 15 to 20)
#    0.000    1.200    2.000    3.600    2.800    3.200 
#    0.000    0.000    0.000    0.000    0.000    0.000 
#    0.000    0.000    0.000    0.000    0.000    0.000 
#
# Total GULP energy -496322.639511 kJ/mol
# GULP energy per Si atom -12408.065988 kJ/mol
# Density = 2.004733 g / cm^3
# Si number density = 20.093065 Si / 1000 Ang^3
#
#
#
# Elastic Constant Matrix: (Units=GPa)
#
#
# Indices 1 2 3 4 5 6 
#
# 1 137.1261 50.9596 45.7611 0.0000 0.0000 0.0000
# 2 50.9596 93.2047 33.9454 0.0000 0.0000 0.0000
# 3 45.7611 33.9454 73.7417 0.0000 0.0000 0.0000
# 4 0.0000 0.0000 0.0000 28.3916 0.0000 0.0000
# 5 0.0000 0.0000 0.0000 0.0000 34.5829 0.0000
# 6 0.0000 0.0000 0.0000 0.0000 0.0000 32.9110
#
#
#
# Elastic Compliance Matrix: (Units=1/GPa)
#
#
# Indices 1 2 3 4 5 6 
#
# 1 0.010287 -0.003964 -0.004559 0.000000 0.000000 0.000000
# 2 -0.003964 0.014418 -0.004177 0.000000 0.000000 0.000000
# 3 -0.004559 -0.004177 0.018313 0.000000 0.000000 0.000000
# 4 0.000000 0.000000 0.000000 0.035222 0.000000 0.000000
# 5 0.000000 0.000000 0.000000 0.000000 0.028916 0.000000
# 6 0.000000 0.000000 0.000000 0.000000 0.000000 0.030385
#
#
# Mechanical properties :
#
#
# Convention : Reuss Voigt Hill
#
# Bulk Modulus (GPa) = 56.76162 62.82275 59.79219
# Shear Modulus (GPa) = 29.61863 30.73753 30.17808
#
# Velocity S-wave (km/s) = 3.84353 3.91546 3.87966
# Velocity P-wave (km/s) = 6.92876 7.19547 7.06337
#
# Compressibility (1/GPa) = 0.01761754
#
# Stress axis : x y z
#
# Youngs Moduli (GPa) = 97.20906 69.35932 54.60688
#
# Poissons Ratio (x) = 0.27495 0.24895
# Poissons Ratio (y) = 0.38534 0.22809
# Poissons Ratio (z) = 0.44317 0.28971
#
# Static dielectric constant tensor:
#      x y z
#    x 3.746140 0.000000 0.000000 
#    y 0.000000 3.986290 0.000000 
#    z 0.000000 0.000000 3.777360 
# 
# 
# High freq. dielectric constant tensor:
#      x y z
#    x 1.797750 0.000000 0.000000 
#    y 0.000000 1.787760 0.000000 
#    z 0.000000 0.000000 1.792600 
# 
# From -- ./inp_files/22766.got.cif
#   From: 2010.03.12/outbox.cif.g09.slc.cpg/sg62_12_cif.got.tgz:22766.got - 2010.04.10 19:12:36.
