data_PCOD8254648
_publ_section_title
;
Structure prediction by ZEFSAII (Michael W. Deem and Ramdas Pophale) SiO2 
 PCOD8254648
Probable space group: P N M A
;
_chemical_formula_sum "Si O2"
_cell_formula_units_Z 56
_cell_length_a 20.067865
_cell_length_b 22.470007
_cell_length_c 5.298316
_cell_angle_alpha 90.000000
_cell_angle_beta 90.000000
_cell_angle_gamma 90.000000
_cell_volume 2389.143497
_symmetry_space_group_name_H-M "P N M A"
_symmetry_group_IT_number 62
_symmetry_cell_setting 'orthorhombic'
loop_
_space_group_symop_operation_xyz
x,y,z
1/2-x,-y,1/2+z
1/2+x,1/2-y,1/2-z
-x,1/2+y,-z
-x,-y,-z
1/2+x,y,1/2-z
1/2-x,1/2+y,1/2+z
x,1/2-y,z
loop_
_atom_site_type_symbol
_atom_site_label
_atom_site_fract_x
_atom_site_fract_y
_atom_site_fract_z
Si Si1 0.418654 0.430687 0.958868
Si Si2 0.263389 0.816963 0.457097
Si Si3 0.881967 0.184172 0.796862
Si Si4 0.941450 0.940155 0.672875
Si Si5 0.818570 0.119342 0.181231
Si Si6 0.285117 0.008090 0.533709
Si Si7 0.873795 0.594390 0.159292
O O1 0.414592 0.491137 0.788354
O O2 0.349216 0.424076 0.106831
O O3 0.429866 0.367768 0.811078
O O4 0.478569 0.440944 0.156949
O O5 0.287231 0.750000 0.509301
O O6 0.192960 0.817756 0.313556
O O7 0.250277 0.851442 0.721747
O O8 0.323474 0.849952 0.313656
O O9 0.913932 0.250000 0.760155
O O10 0.870569 0.171074 0.096382
O O11 0.914848 0.910113 0.416803
O O12 0.922430 0.900204 0.915520
O O13 0.808983 0.076874 0.933529
O O14 0.271830 0.982702 0.812828
O O15 0.333875 0.965967 0.378849
#
# Coordination Sequence:
#
# PCOD8254648 Si02
#       7
#     8   8   8   8   8   8   8
#     4  10  24  42  65  95 129 169 220 274 326 378
#     4  10  23  41  62  93 131 171 216 266 326 396
#     4  10  22  41  66  94 127 169 219 273 329 384
#     4  11  26  43  68  97 133 174 217 270 327 387
#     4  11  21  36  65  93 126 168 215 273 329 382
#     4  12  23  36  60  97 135 165 206 269 330 392
#     4  12  24  42  64  97 134 173 214 262 329 396
#
# _framework density 23.439364000000001
#
# number of rings (size 3 to 8) (size 9 to 14) (size 15 to 20)
#    0.000    1.143    2.857    3.000    6.000    1.714 
#    0.000    1.429    0.000    0.000    0.000    0.000 
#    0.000    0.000    0.000    0.000    0.000    0.000 
#
# Total GULP energy -693863.370067 kJ/mol
# GULP energy per Si atom -12390.417323 kJ/mol
# Density = 2.338602 g / cm^3
# Si number density = 23.439364 Si / 1000 Ang^3
#
#
#
# Elastic Constant Matrix: (Units=GPa)
#
#
# Indices 1 2 3 4 5 6 
#
# 1 42.1909 29.0903 2.8706 0.0000 0.0000 0.0000
# 2 29.0903 160.7407 25.6745 0.0000 0.0000 0.0000
# 3 2.8706 25.6745 87.3795 0.0000 0.0000 0.0000
# 4 0.0000 0.0000 0.0000 27.5477 0.0000 0.0000
# 5 0.0000 0.0000 0.0000 0.0000 23.9231 0.0000
# 6 0.0000 0.0000 0.0000 0.0000 0.0000 31.3922
#
#
#
# Elastic Compliance Matrix: (Units=1/GPa)
#
#
# Indices 1 2 3 4 5 6 
#
# 1 0.027109 -0.004998 0.000578 0.000000 0.000000 0.000000
# 2 -0.004998 0.007449 -0.002025 0.000000 0.000000 0.000000
# 3 0.000578 -0.002025 0.012020 0.000000 0.000000 0.000000
# 4 0.000000 0.000000 0.000000 0.036301 0.000000 0.000000
# 5 0.000000 0.000000 0.000000 0.000000 0.041801 0.000000
# 6 0.000000 0.000000 0.000000 0.000000 0.000000 0.031855
#
#
# Mechanical properties :
#
#
# Convention : Reuss Voigt Hill
#
# Bulk Modulus (GPa) = 29.68375 45.06465 37.37420
# Shear Modulus (GPa) = 27.67725 32.08431 29.88078
#
# Velocity S-wave (km/s) = 3.44001 3.70377 3.57432
# Velocity P-wave (km/s) = 5.33571 6.12849 5.74579
#
# Compressibility (1/GPa) = 0.03368846
#
# Stress axis : x y z
#
# Youngs Moduli (GPa) = 36.88838 134.24317 83.19323
#
# Poissons Ratio (x) = 0.67100 -0.04809
# Poissons Ratio (y) = 0.18438 0.16843
# Poissons Ratio (z) = -0.02133 0.27178
#
# Static dielectric constant tensor:
#      x y z
#    x 4.043050 0.000000 0.000000 
#    y 0.000000 4.389390 0.000000 
#    z 0.000000 0.000000 4.344680 
# 
# 
# High freq. dielectric constant tensor:
#      x y z
#    x 1.900120 0.000000 0.000000 
#    y 0.000000 1.926300 0.000000 
#    z 0.000000 0.000000 1.931620 
# 
# From -- ./inp_files/2300.got.cif
#   From: 2010.03.12/outbox.cif.g09.slc.cpg/sg62_2_cif.got.tgz:2300.got - 2010.04.10 19:12:36.
