data_PCOD8254793
_publ_section_title
;
Structure prediction by ZEFSAII (Michael W. Deem and Ramdas Pophale) SiO2 
 PCOD8254793
Probable space group: P N M A
;
_chemical_formula_sum "Si O2"
_cell_formula_units_Z 40
_cell_length_a 9.052890
_cell_length_b 19.184195
_cell_length_c 10.421801
_cell_angle_alpha 90.000000
_cell_angle_beta 90.000000
_cell_angle_gamma 90.000000
_cell_volume 1809.979266
_symmetry_space_group_name_H-M "P N M A"
_symmetry_group_IT_number 62
_symmetry_cell_setting 'orthorhombic'
loop_
_space_group_symop_operation_xyz
x,y,z
1/2-x,-y,1/2+z
1/2+x,1/2-y,1/2-z
-x,1/2+y,-z
-x,-y,-z
1/2+x,y,1/2-z
1/2-x,1/2+y,1/2+z
x,1/2-y,z
loop_
_atom_site_type_symbol
_atom_site_label
_atom_site_fract_x
_atom_site_fract_y
_atom_site_fract_z
Si Si1 0.210254 0.168755 0.413156
Si Si2 0.236167 0.596854 0.423950
Si Si3 0.250253 0.963407 0.073374
Si Si4 0.508201 0.068899 0.741369
Si Si5 0.880621 0.330099 0.337540
O O1 0.218769 0.250000 0.456493
O O2 0.242201 0.118207 0.533024
O O3 0.331822 0.150679 0.305814
O O4 0.050551 0.149640 0.355402
O O5 0.239722 0.513144 0.449933
O O6 0.385858 0.617450 0.347706
O O7 0.095113 0.615813 0.334847
O O8 0.227172 0.633268 0.560532
O O9 0.097530 0.977235 0.149940
O O10 0.386789 0.979897 0.170093
O O11 0.852390 0.250000 0.363954
#
# Coordination Sequence:
#
# PCOD8254793 Si02
#       5
#     8   8   8   8   8
#     4  10  23  41  62  90 121 158 203 249 297 350
#     4  11  23  40  64  87 126 157 202 247 298 356
#     4  11  23  40  64  87 126 157 202 247 298 356
#     4  10  24  40  57  96 117 158 206 238 308 358
#     4  10  23  41  62  90 121 158 203 249 297 350
#
# _framework density 22.099699999999999
#
# number of rings (size 3 to 8) (size 9 to 14) (size 15 to 20)
#    0.000    1.600    2.000    1.200    8.400    0.000 
#    0.000    6.000    0.000    0.000    0.000    0.000 
#    0.000    0.000    0.000    0.000    0.000    0.000 
#
# Total GULP energy -495934.088055 kJ/mol
# GULP energy per Si atom -12398.352201 kJ/mol
# Density = 2.204940 g / cm^3
# Si number density = 22.099700 Si / 1000 Ang^3
#
#
#
# Elastic Constant Matrix: (Units=GPa)
#
#
# Indices 1 2 3 4 5 6 
#
# 1 141.5395 24.9396 49.1645 0.0000 0.0000 0.0000
# 2 24.9396 67.2559 40.7012 0.0000 0.0000 0.0000
# 3 49.1645 40.7012 100.8986 0.0000 0.0000 0.0000
# 4 0.0000 0.0000 0.0000 30.5724 0.0000 0.0000
# 5 0.0000 0.0000 0.0000 0.0000 41.6704 0.0000
# 6 0.0000 0.0000 0.0000 0.0000 0.0000 16.3600
#
#
#
# Elastic Compliance Matrix: (Units=1/GPa)
#
#
# Indices 1 2 3 4 5 6 
#
# 1 0.008542 -0.000858 -0.003816 0.000000 0.000000 0.000000
# 2 -0.000858 0.019757 -0.007551 0.000000 0.000000 0.000000
# 3 -0.003816 -0.007551 0.014817 0.000000 0.000000 0.000000
# 4 0.000000 0.000000 0.000000 0.032709 0.000000 0.000000
# 5 0.000000 0.000000 0.000000 0.000000 0.023998 0.000000
# 6 0.000000 0.000000 0.000000 0.000000 0.000000 0.061125
#
#
# Mechanical properties :
#
#
# Convention : Reuss Voigt Hill
#
# Bulk Modulus (GPa) = 53.57941 59.92273 56.75107
# Shear Modulus (GPa) = 26.09341 30.71314 28.40328
#
# Velocity S-wave (km/s) = 3.43988 3.73198 3.58890
# Velocity P-wave (km/s) = 6.33041 6.76342 6.55049
#
# Compressibility (1/GPa) = 0.01866388
#
# Stress axis : x y z
#
# Youngs Moduli (GPa) = 117.07018 50.61572 67.49222
#
# Poissons Ratio (x) = 0.04344 0.25755
# Poissons Ratio (y) = 0.10046 0.50967
# Poissons Ratio (z) = 0.44674 0.38222
#
# Static dielectric constant tensor:
#      x y z
#    x 4.316400 0.000000 0.000000 
#    y 0.000000 3.542350 0.000000 
#    z 0.000000 0.000000 4.044960 
# 
# 
# High freq. dielectric constant tensor:
#      x y z
#    x 1.888250 0.000000 0.000000 
#    y 0.000000 1.823660 0.000000 
#    z 0.000000 0.000000 1.883370 
# 
# From -- ./inp_files/11085.got.cif
#   From: 2010.03.12/outbox.cif.g09.slc.cpg/sg62_6_cif.got.tgz:11085.got - 2010.04.10 19:12:36.
