data_PCOD8254363
_publ_section_title
;
Structure prediction by ZEFSAII (Michael W. Deem and Ramdas Pophale) SiO2 
 PCOD8254363
Probable space group: P N M A
;
_chemical_formula_sum "Si O2"
_cell_formula_units_Z 48
_cell_length_a 8.616966
_cell_length_b 16.096375
_cell_length_c 14.813314
_cell_angle_alpha 90.000000
_cell_angle_beta 90.000000
_cell_angle_gamma 90.000000
_cell_volume 2054.635036
_symmetry_space_group_name_H-M "P N M A"
_symmetry_group_IT_number 62
_symmetry_cell_setting 'orthorhombic'
loop_
_space_group_symop_operation_xyz
x,y,z
1/2-x,-y,1/2+z
1/2+x,1/2-y,1/2-z
-x,1/2+y,-z
-x,-y,-z
1/2+x,y,1/2-z
1/2-x,1/2+y,1/2+z
x,1/2-y,z
loop_
_atom_site_type_symbol
_atom_site_label
_atom_site_fract_x
_atom_site_fract_y
_atom_site_fract_z
Si Si1 0.234596 0.914167 0.655063
Si Si2 0.410029 0.086105 0.975414
Si Si3 0.634132 0.908362 0.345896
Si Si4 0.583528 0.343953 0.196883
Si Si5 0.289870 0.846321 0.321417
Si Si6 0.282145 0.841880 0.984755
O O1 0.229301 0.899670 0.547457
O O2 0.338354 0.844970 0.704662
O O3 0.058103 0.908489 0.691163
O O4 0.314582 0.000027 0.683282
O O5 0.331720 0.096437 0.877744
O O6 0.539264 0.157468 0.981570
O O7 0.500000 0.000000 0.000000
O O8 0.454509 0.890826 0.330783
O O9 0.734625 0.846495 0.282815
O O10 0.675110 0.899370 0.452324
O O11 0.525715 0.250000 0.177078
O O12 0.713351 0.369963 0.120840
O O13 0.296808 0.750000 0.354156
O O14 0.213597 0.750000 0.994056
#
# Coordination Sequence:
#
# PCOD8254363 Si02
#       6
#     8   8   8   8   8   8
#     4  11  24  42  68 100 137 180 228 290 344 412
#     4  11  24  45  67  99 135 180 227 283 346 410
#     4  12  25  43  71 103 140 181 231 287 345 414
#     4  10  23  41  66  96 135 183 233 287 350 414
#     4  12  27  44  69 102 141 183 231 283 345 414
#     4  10  21  41  67  94 133 182 231 283 347 415
#
# _framework density 23.361813000000001
#
# number of rings (size 3 to 8) (size 9 to 14) (size 15 to 20)
#    0.000    1.000    1.667    4.500    4.667    4.000 
#    0.000    0.000    0.000    0.000    0.000    0.000 
#    0.000    0.000    0.000    0.000    0.000    0.000 
#
# Total GULP energy -594925.942674 kJ/mol
# GULP energy per Si atom -12394.290472 kJ/mol
# Density = 2.330864 g / cm^3
# Si number density = 23.361813 Si / 1000 Ang^3
#
#
#
# Elastic Constant Matrix: (Units=GPa)
#
#
# Indices 1 2 3 4 5 6 
#
# 1 76.1956 35.7076 22.4828 0.0000 0.0000 0.0000
# 2 35.7076 86.4228 36.4530 0.0000 0.0000 0.0000
# 3 22.4828 36.4530 65.1017 0.0000 0.0000 0.0000
# 4 0.0000 0.0000 0.0000 28.8442 0.0000 0.0000
# 5 0.0000 0.0000 0.0000 0.0000 50.6231 0.0000
# 6 0.0000 0.0000 0.0000 0.0000 0.0000 34.2998
#
#
#
# Elastic Compliance Matrix: (Units=1/GPa)
#
#
# Indices 1 2 3 4 5 6 
#
# 1 0.016574 -0.005805 -0.002474 0.000000 0.000000 0.000000
# 2 -0.005805 0.017182 -0.007616 0.000000 0.000000 0.000000
# 3 -0.002474 -0.007616 0.020479 0.000000 0.000000 0.000000
# 4 0.000000 0.000000 0.000000 0.034669 0.000000 0.000000
# 5 0.000000 0.000000 0.000000 0.000000 0.019754 0.000000
# 6 0.000000 0.000000 0.000000 0.000000 0.000000 0.029155
#
#
# Mechanical properties :
#
#
# Convention : Reuss Voigt Hill
#
# Bulk Modulus (GPa) = 44.55018 46.33412 45.44215
# Shear Modulus (GPa) = 28.23517 31.62520 29.93018
#
# Velocity S-wave (km/s) = 3.48027 3.68328 3.58321
# Velocity P-wave (km/s) = 5.93808 6.16158 6.05086
#
# Compressibility (1/GPa) = 0.02244660
#
# Stress axis : x y z
#
# Youngs Moduli (GPa) = 60.33454 58.20105 48.82953
#
# Poissons Ratio (x) = 0.33784 0.12079
# Poissons Ratio (y) = 0.35022 0.37189
# Poissons Ratio (z) = 0.14925 0.44327
#
# Static dielectric constant tensor:
#      x y z
#    x 3.940230 0.000000 0.000000 
#    y 0.000000 4.043230 0.000000 
#    z 0.000000 0.000000 4.413050 
# 
# 
# High freq. dielectric constant tensor:
#      x y z
#    x 1.909280 0.000000 0.000000 
#    y 0.000000 1.921950 0.000000 
#    z 0.000000 0.000000 1.932460 
# 
# From -- ./inp_files/16968.got.cif
#   From: 2010.03.12/outbox.cif.g09.slc.cpg/sg62_9_cif.got.tgz:16968.got - 2010.04.10 19:12:36.
