data_PCOD8254960
_publ_section_title
;
Structure prediction by ZEFSAII (Michael W. Deem and Ramdas Pophale) SiO2 
 PCOD8254960
Probable space group: P N M A
;
_chemical_formula_sum "Si O2"
_cell_formula_units_Z 64
_cell_length_a 13.610121
_cell_length_b 19.063703
_cell_length_c 11.938434
_cell_angle_alpha 90.000000
_cell_angle_beta 90.000000
_cell_angle_gamma 90.000000
_cell_volume 3097.537783
_symmetry_space_group_name_H-M "P N M A"
_symmetry_group_IT_number 62
_symmetry_cell_setting 'orthorhombic'
loop_
_space_group_symop_operation_xyz
x,y,z
1/2-x,-y,1/2+z
1/2+x,1/2-y,1/2-z
-x,1/2+y,-z
-x,-y,-z
1/2+x,y,1/2-z
1/2-x,1/2+y,1/2+z
x,1/2-y,z
loop_
_atom_site_type_symbol
_atom_site_label
_atom_site_fract_x
_atom_site_fract_y
_atom_site_fract_z
Si Si1 0.572421 0.170047 0.110282
Si Si2 0.111133 0.564232 0.886477
Si Si3 0.431895 0.946397 0.068054
Si Si4 0.787775 0.013960 0.907696
Si Si5 0.509376 0.172033 0.524346
Si Si6 0.667212 0.356936 0.350863
Si Si7 0.520247 0.937629 0.303815
Si Si8 0.867713 0.174482 0.291593
O O1 0.600500 0.250000 0.078739
O O2 0.623864 0.148719 0.225672
O O3 0.456292 0.159446 0.124817
O O4 0.600963 0.119933 0.007162
O O5 0.155783 0.605322 0.781505
O O6 0.025987 0.510308 0.850651
O O7 0.195363 0.526471 0.958931
O O8 0.071465 0.627765 0.959926
O O9 0.328413 0.976544 0.116906
O O10 0.500081 0.926214 0.173043
O O11 0.500000 0.000000 0.000000
O O12 0.861939 0.061887 0.831475
O O13 0.820904 0.936864 0.880962
O O14 0.471618 0.250000 0.555965
O O15 0.600825 0.180976 0.441980
O O16 0.532803 0.128710 0.637315
O O17 0.769341 0.315917 0.362636
O O18 0.888252 0.250000 0.228390
#
# Coordination Sequence:
#
# PCOD8254960 Si02
#       8
#     8   8   8   8   8   8   8   8
#     4  11  24  43  63  91 134 174 211 268 331 385
#     4  11  19  39  62  92 126 162 213 266 317 384
#     4  12  26  43  65  97 130 173 221 266 324 396
#     4  11  22  39  66  94 127 168 210 270 323 379
#     4  11  21  37  65  90 122 164 210 270 325 376
#     4  12  20  38  62  94 127 161 215 265 323 386
#     4  11  23  43  62  93 129 167 215 264 318 386
#     4  11  22  35  60  94 126 164 209 264 324 383
#
# _framework density 20.661570999999999
#
# number of rings (size 3 to 8) (size 9 to 14) (size 15 to 20)
#    0.000    0.750    3.750    6.000    0.000    1.500 
#    2.250    2.500    0.000    0.000    0.000    0.000 
#    0.000    0.000    0.000    0.000    0.000    0.000 
#
# Total GULP energy -793115.383005 kJ/mol
# GULP energy per Si atom -12392.427859 kJ/mol
# Density = 2.061454 g / cm^3
# Si number density = 20.661571 Si / 1000 Ang^3
#
#
#
# Elastic Constant Matrix: (Units=GPa)
#
#
# Indices 1 2 3 4 5 6 
#
# 1 92.4734 4.8941 3.5207 0.0000 0.0000 0.0000
# 2 4.8941 136.2141 35.0545 0.0000 0.0000 0.0000
# 3 3.5207 35.0545 76.5247 0.0000 0.0000 0.0000
# 4 0.0000 0.0000 0.0000 20.6091 0.0000 0.0000
# 5 0.0000 0.0000 0.0000 0.0000 21.6708 0.0000
# 6 0.0000 0.0000 0.0000 0.0000 0.0000 33.9982
#
#
#
# Elastic Compliance Matrix: (Units=1/GPa)
#
#
# Indices 1 2 3 4 5 6 
#
# 1 0.010843 -0.000296 -0.000363 0.000000 0.000000 0.000000
# 2 -0.000296 0.008331 -0.003802 0.000000 0.000000 0.000000
# 3 -0.000363 -0.003802 0.014826 0.000000 0.000000 0.000000
# 4 0.000000 0.000000 0.000000 0.048522 0.000000 0.000000
# 5 0.000000 0.000000 0.000000 0.000000 0.046145 0.000000
# 6 0.000000 0.000000 0.000000 0.000000 0.000000 0.029413
#
#
# Mechanical properties :
#
#
# Convention : Reuss Voigt Hill
#
# Bulk Modulus (GPa) = 39.87779 43.57230 41.72505
# Shear Modulus (GPa) = 28.51223 32.70514 30.60869
#
# Velocity S-wave (km/s) = 3.71882 3.98288 3.85311
# Velocity P-wave (km/s) = 6.14669 6.50273 6.32721
#
# Compressibility (1/GPa) = 0.02507662
#
# Stress axis : x y z
#
# Youngs Moduli (GPa) = 92.22178 120.03969 67.44804
#
# Poissons Ratio (x) = 0.03555 0.02450
# Poissons Ratio (y) = 0.02731 0.25647
# Poissons Ratio (z) = 0.03350 0.45645
#
# Static dielectric constant tensor:
#      x y z
#    x 3.849000 0.000000 0.000000 
#    y 0.000000 4.019440 0.000000 
#    z 0.000000 0.000000 4.009430 
# 
# 
# High freq. dielectric constant tensor:
#      x y z
#    x 1.810920 0.000000 0.000000 
#    y 0.000000 1.820290 0.000000 
#    z 0.000000 0.000000 1.790290 
# 
# From -- ./inp_files/13591.got.cif
#   From: 2010.03.12/outbox.cif.g09.slc.cpg/sg62_7_cif.got.tgz:13591.got - 2010.04.10 19:12:36.
