data_PCOD8254326
_publ_section_title
;
Structure prediction by ZEFSAII (Michael W. Deem and Ramdas Pophale) SiO2 
 PCOD8254326
Probable space group: P N M A
;
_chemical_formula_sum "Si O2"
_cell_formula_units_Z 48
_cell_length_a 20.453553
_cell_length_b 13.465741
_cell_length_c 8.129281
_cell_angle_alpha 90.000000
_cell_angle_beta 90.000000
_cell_angle_gamma 90.000000
_cell_volume 2238.984841
_symmetry_space_group_name_H-M "P N M A"
_symmetry_group_IT_number 62
_symmetry_cell_setting 'orthorhombic'
loop_
_space_group_symop_operation_xyz
x,y,z
1/2-x,-y,1/2+z
1/2+x,1/2-y,1/2-z
-x,1/2+y,-z
-x,-y,-z
1/2+x,y,1/2-z
1/2-x,1/2+y,1/2+z
x,1/2-y,z
loop_
_atom_site_type_symbol
_atom_site_label
_atom_site_fract_x
_atom_site_fract_y
_atom_site_fract_z
Si Si1 0.572551 0.356374 0.694691
Si Si2 0.295078 0.635813 0.151970
Si Si3 0.000032 0.468364 0.311705
Si Si4 0.122732 0.454210 0.107336
Si Si5 0.749906 0.049726 0.193039
Si Si6 0.616415 0.865491 0.640479
O O1 0.538196 0.250000 0.702951
O O2 0.626027 0.367039 0.840087
O O3 0.514813 0.434179 0.705364
O O4 0.609481 0.367658 0.522409
O O5 0.269467 0.750000 0.162174
O O6 0.266319 0.568935 0.302126
O O7 0.274127 0.582263 0.985323
O O8 0.072309 0.437510 0.257479
O O9 0.000000 0.500000 0.500000
O O10 0.944636 0.387198 0.263637
O O11 0.194552 0.430598 0.172869
O O12 0.116387 0.563368 0.021508
O O13 0.815989 0.111121 0.237968
O O14 0.613577 0.750000 0.587062
#
# Coordination Sequence:
#
# PCOD8254326 Si02
#       6
#     8   8   8   8   8   8
#     4  10  21  41  64  92 126 168 216 266 328 396
#     4  11  22  40  67  96 133 178 221 273 336 396
#     4  11  24  43  65  94 131 171 217 277 334 398
#     4  11  24  39  69  94 133 175 215 276 334 395
#     4  12  22  41  68  99 137 173 220 281 328 396
#     4  11  24  44  68  96 132 177 226 276 338 402
#
# _framework density 21.438286000000002
#
# number of rings (size 3 to 8) (size 9 to 14) (size 15 to 20)
#    0.000    1.000    5.000    3.500    0.000    4.667 
#    0.000    1.667    0.000    0.000    0.000    0.000 
#    0.000    0.000    0.000    0.000    0.000    0.000 
#
# Total GULP energy -594807.486961 kJ/mol
# GULP energy per Si atom -12391.822645 kJ/mol
# Density = 2.138949 g / cm^3
# Si number density = 21.438286 Si / 1000 Ang^3
#
#
#
# Elastic Constant Matrix: (Units=GPa)
#
#
# Indices 1 2 3 4 5 6 
#
# 1 109.1773 3.4874 26.7900 0.0000 0.0000 0.0000
# 2 3.4874 121.7273 17.2738 0.0000 0.0000 0.0000
# 3 26.7900 17.2738 77.0262 0.0000 0.0000 0.0000
# 4 0.0000 0.0000 0.0000 19.7705 0.0000 0.0000
# 5 0.0000 0.0000 0.0000 0.0000 43.2659 0.0000
# 6 0.0000 0.0000 0.0000 0.0000 0.0000 20.4665
#
#
#
# Elastic Compliance Matrix: (Units=1/GPa)
#
#
# Indices 1 2 3 4 5 6 
#
# 1 0.010019 0.000214 -0.003533 0.000000 0.000000 0.000000
# 2 0.000214 0.008490 -0.001978 0.000000 0.000000 0.000000
# 3 -0.003533 -0.001978 0.014655 0.000000 0.000000 0.000000
# 4 0.000000 0.000000 0.000000 0.050581 0.000000 0.000000
# 5 0.000000 0.000000 0.000000 0.000000 0.023113 0.000000
# 6 0.000000 0.000000 0.000000 0.000000 0.000000 0.048860
#
#
# Mechanical properties :
#
#
# Convention : Reuss Voigt Hill
#
# Bulk Modulus (GPa) = 44.30624 44.78147 44.54386
# Shear Modulus (GPa) = 28.76284 34.05920 31.41102
#
# Velocity S-wave (km/s) = 3.66684 3.99019 3.83192
# Velocity P-wave (km/s) = 6.21606 6.49328 6.35618
#
# Compressibility (1/GPa) = 0.02257018
#
# Stress axis : x y z
#
# Youngs Moduli (GPa) = 99.80572 117.78984 68.23597
#
# Poissons Ratio (x) = -0.02524 0.24107
# Poissons Ratio (y) = -0.02139 0.13500
# Poissons Ratio (z) = 0.35260 0.23304
#
# Static dielectric constant tensor:
#      x y z
#    x 4.315460 0.000000 0.000000 
#    y 0.000000 3.988740 0.000000 
#    z 0.000000 0.000000 3.797330 
# 
# 
# High freq. dielectric constant tensor:
#      x y z
#    x 1.853930 0.000000 0.000000 
#    y 0.000000 1.835160 0.000000 
#    z 0.000000 0.000000 1.829400 
# 
# From -- ./inp_files/8594.got.cif
#   From: 2010.03.12/outbox.cif.g09.slc.cpg/sg62_5_cif.got.tgz:8594.got - 2010.04.10 19:12:36.
