data_PCOD8254185
_publ_section_title
;
Structure prediction by ZEFSAII (Michael W. Deem and Ramdas Pophale) SiO2 
 PCOD8254185
Probable space group: P N M A
;
_chemical_formula_sum "Si O2"
_cell_formula_units_Z 64
_cell_length_a 15.482620
_cell_length_b 8.459390
_cell_length_c 23.919484
_cell_angle_alpha 90.000000
_cell_angle_beta 90.000000
_cell_angle_gamma 90.000000
_cell_volume 3132.819035
_symmetry_space_group_name_H-M "P N M A"
_symmetry_group_IT_number 62
_symmetry_cell_setting 'orthorhombic'
loop_
_space_group_symop_operation_xyz
x,y,z
1/2-x,-y,1/2+z
1/2+x,1/2-y,1/2-z
-x,1/2+y,-z
-x,-y,-z
1/2+x,y,1/2-z
1/2-x,1/2+y,1/2+z
x,1/2-y,z
loop_
_atom_site_type_symbol
_atom_site_label
_atom_site_fract_x
_atom_site_fract_y
_atom_site_fract_z
Si Si1 0.997170 0.937471 0.938023
Si Si2 0.595333 0.431638 0.746303
Si Si3 0.840484 0.066020 0.133619
Si Si4 0.159600 0.566345 0.363117
Si Si5 0.850263 0.435352 0.360858
Si Si6 0.009054 0.063116 0.437983
Si Si7 0.908247 0.565316 0.748575
Si Si8 0.840646 0.564695 0.866372
O O1 0.994131 0.750000 0.938362
O O2 0.081090 0.997086 0.904526
O O3 0.911971 0.010446 0.907802
O O4 0.000000 0.000000 0.000000
O O5 0.609735 0.250000 0.730013
O O6 0.636037 0.539305 0.698209
O O7 0.642781 0.467941 0.804018
O O8 0.495041 0.465740 0.754945
O O9 0.823012 0.250000 0.123758
O O10 0.755694 0.969907 0.114832
O O11 0.148231 0.750000 0.350112
O O12 0.092070 0.515970 0.410271
O O13 0.147680 0.467511 0.306375
O O14 0.857851 0.250000 0.346952
O O15 0.756146 0.478378 0.386510
O O16 0.923206 0.488189 0.404508
O O17 0.020994 0.250000 0.437767
O O18 0.000000 0.000000 0.500000
O O19 0.931911 0.750000 0.751271
O O20 0.855155 0.507218 0.802677
O O21 0.855093 0.750000 0.867503
#
# Coordination Sequence:
#
# PCOD8254185 Si02
#       8
#     8   8   8   8   8   8   8   8
#     4  10  22  41  63  89 121 160 206 256 308 362
#     4  12  23  36  60  94 130 162 201 257 313 367
#     4  11  23  42  65  90 125 168 211 253 308 382
#     4  12  25  41  63  95 129 161 206 264 317 372
#     4  10  21  39  65  91 120 163 208 250 309 377
#     4  11  24  42  64  90 124 168 215 261 314 370
#     4  11  20  37  64  91 124 166 204 246 309 381
#     4   9  19  38  63  90 118 155 203 248 297 368
#
# _framework density 20.428884
#
# number of rings (size 3 to 8) (size 9 to 14) (size 15 to 20)
#    0.000    1.250    2.500    4.125    0.000    3.500 
#    0.000    2.500    0.000    0.000    0.000    0.000 
#    0.000    0.000    0.000    0.000    0.000    0.000 
#
# Total GULP energy -793851.748442 kJ/mol
# GULP energy per Si atom -12403.933569 kJ/mol
# Density = 2.038239 g / cm^3
# Si number density = 20.428884 Si / 1000 Ang^3
#
#
#
# Elastic Constant Matrix: (Units=GPa)
#
#
# Indices 1 2 3 4 5 6 
#
# 1 170.6333 25.3963 69.8071 0.0000 0.0000 0.0000
# 2 25.3963 50.0019 20.1199 0.0000 0.0000 0.0000
# 3 69.8071 20.1199 145.2221 0.0000 0.0000 0.0000
# 4 0.0000 0.0000 0.0000 31.1033 0.0000 0.0000
# 5 0.0000 0.0000 0.0000 0.0000 14.2069 0.0000
# 6 0.0000 0.0000 0.0000 0.0000 0.0000 21.8875
#
#
#
# Elastic Compliance Matrix: (Units=1/GPa)
#
#
# Indices 1 2 3 4 5 6 
#
# 1 0.007585 -0.002526 -0.003296 0.000000 0.000000 0.000000
# 2 -0.002526 0.022021 -0.001837 0.000000 0.000000 0.000000
# 3 -0.003296 -0.001837 0.008725 0.000000 0.000000 0.000000
# 4 0.000000 0.000000 0.000000 0.032151 0.000000 0.000000
# 5 0.000000 0.000000 0.000000 0.000000 0.070388 0.000000
# 6 0.000000 0.000000 0.000000 0.000000 0.000000 0.045688
#
#
# Mechanical properties :
#
#
# Convention : Reuss Voigt Hill
#
# Bulk Modulus (GPa) = 43.45291 66.27820 54.86555
# Shear Modulus (GPa) = 23.86095 30.14182 27.00139
#
# Velocity S-wave (km/s) = 3.42131 3.84533 3.63950
# Velocity P-wave (km/s) = 6.07648 7.22698 6.67656
#
# Compressibility (1/GPa) = 0.02301342
#
# Stress axis : x y z
#
# Youngs Moduli (GPa) = 131.84040 45.41048 114.61535
#
# Poissons Ratio (x) = 0.11471 0.37777
# Poissons Ratio (y) = 0.33305 0.21051
# Poissons Ratio (z) = 0.43455 0.08340
#
# Static dielectric constant tensor:
#      x y z
#    x 4.120530 0.000000 0.000000 
#    y 0.000000 3.432460 0.000000 
#    z 0.000000 0.000000 3.572780 
# 
# 
# High freq. dielectric constant tensor:
#      x y z
#    x 1.817280 0.000000 0.000000 
#    y 0.000000 1.785770 0.000000 
#    z 0.000000 0.000000 1.793780 
# 
# From -- ./inp_files/29846.got.cif
#   From: 2010.03.12/outbox.cif.g09.slc.cpg/sg62_15_cif.got.tgz:29846.got - 2010.04.10 19:12:36.
