data_PCOD8254073
_publ_section_title
;
Structure prediction by ZEFSAII (Michael W. Deem and Ramdas Pophale) SiO2 
 PCOD8254073
Probable space group: P N M A
;
_chemical_formula_sum "Si O2"
_cell_formula_units_Z 40
_cell_length_a 18.337241
_cell_length_b 16.752523
_cell_length_c 5.433104
_cell_angle_alpha 90.000000
_cell_angle_beta 90.000000
_cell_angle_gamma 90.000000
_cell_volume 1669.022664
_symmetry_space_group_name_H-M "P N M A"
_symmetry_group_IT_number 62
_symmetry_cell_setting 'orthorhombic'
loop_
_space_group_symop_operation_xyz
x,y,z
1/2-x,-y,1/2+z
1/2+x,1/2-y,1/2-z
-x,1/2+y,-z
-x,-y,-z
1/2+x,y,1/2-z
1/2-x,1/2+y,1/2+z
x,1/2-y,z
loop_
_atom_site_type_symbol
_atom_site_label
_atom_site_fract_x
_atom_site_fract_y
_atom_site_fract_z
Si Si1 0.567183 0.601705 0.435350
Si Si2 0.799179 0.588681 0.023066
Si Si3 0.958064 0.945515 0.685222
Si Si4 0.073452 0.158505 0.724241
Si Si5 0.725064 0.599232 0.521024
O O1 0.519916 0.605487 0.681561
O O2 0.585291 0.509252 0.356630
O O3 0.515041 0.649415 0.243577
O O4 0.645389 0.641320 0.491343
O O5 0.885440 0.615922 0.039643
O O6 0.768498 0.627211 0.277452
O O7 0.784142 0.495530 0.033995
O O8 0.762869 0.626955 0.777671
O O9 0.903297 0.887968 0.528756
O O10 0.000000 0.000000 0.500000
O O11 0.096607 0.250000 0.706952
#
# Coordination Sequence:
#
# PCOD8254073 Si02
#       5
#     8   8   8   8   8
#     4  10  21  38  67  97 125 168 231 293 327 395
#     4  10  23  39  63 100 134 173 218 283 344 406
#     4   9  19  35  65  94 124 160 222 280 333 381
#     4  11  25  42  63  95 138 186 225 273 347 422
#     4  10  22  39  68  98 130 165 228 289 340 386
#
# _framework density 23.966123
#
# number of rings (size 3 to 8) (size 9 to 14) (size 15 to 20)
#    0.000    2.000    0.000    3.600   16.800    0.800 
#    0.000    2.000    0.000    0.000    0.000    0.000 
#    0.000    0.000    0.000    0.000    0.000    0.000 
#
# Total GULP energy -495539.431980 kJ/mol
# GULP energy per Si atom -12388.485800 kJ/mol
# Density = 2.391158 g / cm^3
# Si number density = 23.966123 Si / 1000 Ang^3
#
#
#
# Elastic Constant Matrix: (Units=GPa)
#
#
# Indices 1 2 3 4 5 6 
#
# 1 132.9952 2.8458 59.3661 0.0000 0.0000 0.0000
# 2 2.8458 75.6859 14.1114 0.0000 0.0000 0.0000
# 3 59.3661 14.1114 151.2063 0.0000 0.0000 0.0000
# 4 0.0000 0.0000 0.0000 14.8253 0.0000 0.0000
# 5 0.0000 0.0000 0.0000 0.0000 36.8251 0.0000
# 6 0.0000 0.0000 0.0000 0.0000 0.0000 13.6261
#
#
#
# Elastic Compliance Matrix: (Units=1/GPa)
#
#
# Indices 1 2 3 4 5 6 
#
# 1 0.009125 0.000331 -0.003613 0.000000 0.000000 0.000000
# 2 0.000331 0.013458 -0.001386 0.000000 0.000000 0.000000
# 3 -0.003613 -0.001386 0.008162 0.000000 0.000000 0.000000
# 4 0.000000 0.000000 0.000000 0.067452 0.000000 0.000000
# 5 0.000000 0.000000 0.000000 0.000000 0.027155 0.000000
# 6 0.000000 0.000000 0.000000 0.000000 0.000000 0.073389
#
#
# Mechanical properties :
#
#
# Convention : Reuss Voigt Hill
#
# Bulk Modulus (GPa) = 46.71240 56.94823 51.83031
# Shear Modulus (GPa) = 23.23260 31.95955 27.59607
#
# Velocity S-wave (km/s) = 3.11689 3.65571 3.39700
# Velocity P-wave (km/s) = 5.69970 6.45233 6.08766
#
# Compressibility (1/GPa) = 0.02140759
#
# Stress axis : x y z
#
# Youngs Moduli (GPa) = 109.58948 74.30270 122.52613
#
# Poissons Ratio (x) = -0.02457 0.44274
# Poissons Ratio (y) = -0.03623 0.16980
# Poissons Ratio (z) = 0.39600 0.10297
#
# Static dielectric constant tensor:
#      x y z
#    x 4.348090 0.000000 0.000000 
#    y 0.000000 3.892710 0.000000 
#    z 0.000000 0.000000 4.703820 
# 
# 
# High freq. dielectric constant tensor:
#      x y z
#    x 1.960570 0.000000 0.000000 
#    y 0.000000 1.882090 0.000000 
#    z 0.000000 0.000000 1.972850 
# 
# From -- ./inp_files/1556.got.cif
#   From: 2010.03.12/outbox.cif.g09.slc.cpg/sg62_1_cif.got.tgz:1556.got - 2010.04.10 19:12:36.
