data_PCOD8254535
_publ_section_title
;
Structure prediction by ZEFSAII (Michael W. Deem and Ramdas Pophale) SiO2 
 PCOD8254535
Probable space group: P N M A
;
_chemical_formula_sum "Si O2"
_cell_formula_units_Z 52
_cell_length_a 21.781820
_cell_length_b 13.640882
_cell_length_c 7.775794
_cell_angle_alpha 90.000000
_cell_angle_beta 90.000000
_cell_angle_gamma 90.000000
_cell_volume 2310.369079
_symmetry_space_group_name_H-M "P N M A"
_symmetry_group_IT_number 62
_symmetry_cell_setting 'orthorhombic'
loop_
_space_group_symop_operation_xyz
x,y,z
1/2-x,-y,1/2+z
1/2+x,1/2-y,1/2-z
-x,1/2+y,-z
-x,-y,-z
1/2+x,y,1/2-z
1/2-x,1/2+y,1/2+z
x,1/2-y,z
loop_
_atom_site_type_symbol
_atom_site_label
_atom_site_fract_x
_atom_site_fract_y
_atom_site_fract_z
Si Si1 0.254924 0.750000 0.478203
Si Si2 0.643388 0.250000 0.822560
Si Si3 0.094464 0.063555 0.540079
Si Si4 0.207809 0.952552 0.549839
Si Si5 0.772847 0.750000 0.630348
Si Si6 0.446313 0.365503 0.559553
Si Si7 0.503685 0.041826 0.238762
Si Si8 0.813256 0.426760 0.064695
O O1 0.304707 0.750000 0.325325
O O2 0.209410 0.843648 0.467794
O O3 0.287773 0.750000 0.665741
O O4 0.603756 0.349698 0.817073
O O5 0.665497 0.250000 0.021381
O O6 0.059422 0.974865 0.635915
O O7 0.158287 0.022257 0.454286
O O8 0.052745 0.098908 0.380088
O O9 0.179096 0.961375 0.740113
O O10 0.278433 0.989531 0.546178
O O11 0.733538 0.660678 0.566250
O O12 0.449851 0.250000 0.606582
O O13 0.469597 0.433728 0.714225
O O14 0.490818 0.387391 0.398794
O O15 0.376928 0.397326 0.519422
#
# Coordination Sequence:
#
# PCOD8254535 Si02
#       8
#     4   4   8   8   4   8   8   8
#     4  10  26  40  63 106 138 179 230 274 359 428
#     4  12  24  44  71 103 141 185 230 289 348 433
#     4  11  24  46  67  97 138 179 235 290 350 421
#     4  11  23  41  66  98 137 176 218 289 351 414
#     4  10  22  40  60 103 135 170 224 273 357 413
#     4  11  24  45  72  97 133 184 233 292 347 426
#     4  10  26  46  65 100 135 183 237 289 348 411
#     4  11  22  40  66  97 133 168 220 282 349 417
#
# _framework density 22.507227
#
# number of rings (size 3 to 8) (size 9 to 14) (size 15 to 20)
#    0.000    1.231    3.846    0.923    4.308    0.000 
#    4.154    0.000    0.000    0.000    0.000    0.000 
#    0.000    0.000    0.000    0.000    0.000    0.000 
#
# Total GULP energy -644495.957768 kJ/mol
# GULP energy per Si atom -12394.153034 kJ/mol
# Density = 2.245600 g / cm^3
# Si number density = 22.507227 Si / 1000 Ang^3
#
#
#
# Elastic Constant Matrix: (Units=GPa)
#
#
# Indices 1 2 3 4 5 6 
#
# 1 104.0630 36.3154 24.6481 0.0000 0.0000 0.0000
# 2 36.3154 111.3100 7.2412 0.0000 0.0000 0.0000
# 3 24.6481 7.2412 60.4294 0.0000 0.0000 0.0000
# 4 0.0000 0.0000 0.0000 32.2662 0.0000 0.0000
# 5 0.0000 0.0000 0.0000 0.0000 27.5294 0.0000
# 6 0.0000 0.0000 0.0000 0.0000 0.0000 40.5907
#
#
#
# Elastic Compliance Matrix: (Units=1/GPa)
#
#
# Indices 1 2 3 4 5 6 
#
# 1 0.011914 -0.003599 -0.004428 0.000000 0.000000 0.000000
# 2 -0.003599 0.010142 0.000253 0.000000 0.000000 0.000000
# 3 -0.004428 0.000253 0.018324 0.000000 0.000000 0.000000
# 4 0.000000 0.000000 0.000000 0.030992 0.000000 0.000000
# 5 0.000000 0.000000 0.000000 0.000000 0.036325 0.000000
# 6 0.000000 0.000000 0.000000 0.000000 0.000000 0.024636
#
#
# Mechanical properties :
#
#
# Convention : Reuss Voigt Hill
#
# Bulk Modulus (GPa) = 40.27247 45.80131 43.03689
# Shear Modulus (GPa) = 32.01845 33.91712 32.96778
#
# Velocity S-wave (km/s) = 3.77581 3.88615 3.83138
# Velocity P-wave (km/s) = 6.07791 6.36632 6.22378
#
# Compressibility (1/GPa) = 0.02483086
#
# Stress axis : x y z
#
# Youngs Moduli (GPa) = 83.93173 98.60291 54.57259
#
# Poissons Ratio (x) = 0.35488 0.24167
# Poissons Ratio (y) = 0.30208 -0.01379
# Poissons Ratio (z) = 0.37168 -0.02492
#
# Static dielectric constant tensor:
#      x y z
#    x 4.136380 0.000000 0.000000 
#    y 0.000000 4.208480 0.000000 
#    z 0.000000 0.000000 4.062680 
# 
# 
# High freq. dielectric constant tensor:
#      x y z
#    x 1.892440 0.000000 0.000000 
#    y 0.000000 1.889110 0.000000 
#    z 0.000000 0.000000 1.878000 
# 
# From -- ./inp_files/8686.got.cif
#   From: 2010.03.12/outbox.cif.g09.slc.cpg/sg62_5_cif.got.tgz:8686.got - 2010.04.10 19:12:36.
