data_PCOD8254758
_publ_section_title
;
Structure prediction by ZEFSAII (Michael W. Deem and Ramdas Pophale) SiO2 
 PCOD8254758
Probable space group: P N M A
;
_chemical_formula_sum "Si O2"
_cell_formula_units_Z 48
_cell_length_a 14.175731
_cell_length_b 24.782820
_cell_length_c 6.420904
_cell_angle_alpha 90.000000
_cell_angle_beta 90.000000
_cell_angle_gamma 90.000000
_cell_volume 2255.757255
_symmetry_space_group_name_H-M "P N M A"
_symmetry_group_IT_number 62
_symmetry_cell_setting 'orthorhombic'
loop_
_space_group_symop_operation_xyz
x,y,z
1/2-x,-y,1/2+z
1/2+x,1/2-y,1/2-z
-x,1/2+y,-z
-x,-y,-z
1/2+x,y,1/2-z
1/2-x,1/2+y,1/2+z
x,1/2-y,z
loop_
_atom_site_type_symbol
_atom_site_label
_atom_site_fract_x
_atom_site_fract_y
_atom_site_fract_z
Si Si1 0.055620 0.463391 0.657780
Si Si2 0.020658 0.622287 0.054055
Si Si3 0.340019 0.687845 0.595200
Si Si4 0.148207 0.568817 0.720293
Si Si5 0.181463 0.636981 0.339855
Si Si6 0.688750 0.385820 0.042712
O O1 0.999109 0.436586 0.847251
O O2 0.131673 0.505022 0.753672
O O3 0.092279 0.415063 0.512676
O O4 0.000000 0.500000 0.500000
O O5 0.088920 0.657357 0.210619
O O6 0.923688 0.654427 0.016692
O O7 0.075886 0.608739 0.841566
O O8 0.368177 0.750000 0.586967
O O9 0.237081 0.680102 0.484948
O O10 0.332562 0.670423 0.837937
O O11 0.145368 0.586432 0.477843
O O12 0.254285 0.576663 0.798602
O O13 0.257659 0.619165 0.172777
#
# Coordination Sequence:
#
# PCOD8254758 Si02
#       6
#     8   8   8   8   8   8
#     4  12  22  37  66  96 138 180 214 257 337 402
#     4  11  23  42  67 101 138 171 227 279 322 410
#     4  11  25  45  69  93 127 175 226 288 344 386
#     4  10  23  38  65  97 137 176 211 265 330 400
#     4  10  22  46  65  97 134 170 222 275 329 404
#     4  10  24  41  62  95 134 168 223 271 323 410
#
# _framework density 21.278884999999999
#
# number of rings (size 3 to 8) (size 9 to 14) (size 15 to 20)
#    0.000    1.333    3.333    1.500    2.333    1.333 
#    0.000    6.667    0.000    0.000    0.000    0.000 
#    0.000    0.000    0.000    0.000    0.000    0.000 
#
# Total GULP energy -594841.427481 kJ/mol
# GULP energy per Si atom -12392.529739 kJ/mol
# Density = 2.123045 g / cm^3
# Si number density = 21.278885 Si / 1000 Ang^3
#
#
#
# Elastic Constant Matrix: (Units=GPa)
#
#
# Indices 1 2 3 4 5 6 
#
# 1 85.9962 30.5010 40.0297 0.0000 0.0000 0.0000
# 2 30.5010 98.5989 41.6996 0.0000 0.0000 0.0000
# 3 40.0297 41.6996 125.5789 0.0000 0.0000 0.0000
# 4 0.0000 0.0000 0.0000 25.1266 0.0000 0.0000
# 5 0.0000 0.0000 0.0000 0.0000 43.1864 0.0000
# 6 0.0000 0.0000 0.0000 0.0000 0.0000 22.5377
#
#
#
# Elastic Compliance Matrix: (Units=1/GPa)
#
#
# Indices 1 2 3 4 5 6 
#
# 1 0.014339 -0.002911 -0.003604 0.000000 0.000000 0.000000
# 2 -0.002911 0.012390 -0.003186 0.000000 0.000000 0.000000
# 3 -0.003604 -0.003186 0.010170 0.000000 0.000000 0.000000
# 4 0.000000 0.000000 0.000000 0.039799 0.000000 0.000000
# 5 0.000000 0.000000 0.000000 0.000000 0.023155 0.000000
# 6 0.000000 0.000000 0.000000 0.000000 0.000000 0.044370
#
#
# Mechanical properties :
#
#
# Convention : Reuss Voigt Hill
#
# Bulk Modulus (GPa) = 57.15674 59.40384 58.28029
# Shear Modulus (GPa) = 29.50589 31.36637 30.43613
#
# Velocity S-wave (km/s) = 3.72778 3.84352 3.78609
# Velocity P-wave (km/s) = 6.74148 6.90465 6.82356
#
# Compressibility (1/GPa) = 0.01749575
#
# Stress axis : x y z
#
# Youngs Moduli (GPa) = 69.74202 80.70848 98.32933
#
# Poissons Ratio (x) = 0.23498 0.35436
# Poissons Ratio (y) = 0.20305 0.31330
# Poissons Ratio (z) = 0.25134 0.25716
#
# Static dielectric constant tensor:
#      x y z
#    x 4.184200 0.000000 0.000000 
#    y 0.000000 4.723750 0.000000 
#    z 0.000000 0.000000 4.406040 
# 
# 
# High freq. dielectric constant tensor:
#      x y z
#    x 1.849100 0.000000 0.000000 
#    y 0.000000 1.793500 0.000000 
#    z 0.000000 0.000000 1.854230 
# 
# From -- ./inp_files/1158.got.cif
#   From: 2010.03.12/outbox.cif.g09.slc.cpg/sg62_1_cif.got.tgz:1158.got - 2010.04.10 19:12:36.
