data_PCOD8254775
_publ_section_title
;
Structure prediction by ZEFSAII (Michael W. Deem and Ramdas Pophale) SiO2 
 PCOD8254775
Probable space group: P N M A
;
_chemical_formula_sum "Si O2"
_cell_formula_units_Z 56
_cell_length_a 14.503774
_cell_length_b 8.662228
_cell_length_c 21.730859
_cell_angle_alpha 90.000000
_cell_angle_beta 90.000000
_cell_angle_gamma 90.000000
_cell_volume 2730.156411
_symmetry_space_group_name_H-M "P N M A"
_symmetry_group_IT_number 62
_symmetry_cell_setting 'orthorhombic'
loop_
_space_group_symop_operation_xyz
x,y,z
1/2-x,-y,1/2+z
1/2+x,1/2-y,1/2-z
-x,1/2+y,-z
-x,-y,-z
1/2+x,y,1/2-z
1/2-x,1/2+y,1/2+z
x,1/2-y,z
loop_
_atom_site_type_symbol
_atom_site_label
_atom_site_fract_x
_atom_site_fract_y
_atom_site_fract_z
Si Si1 0.923519 0.068822 0.456104
Si Si2 0.436411 0.570224 0.175966
Si Si3 0.916544 0.069739 0.895481
Si Si4 0.779973 0.931757 0.991513
Si Si5 0.303290 0.070068 0.269397
Si Si6 0.388293 0.068727 0.399071
Si Si7 0.114346 0.929401 0.245975
O O1 0.928434 0.250000 0.461664
O O2 0.822845 0.009958 0.476446
O O3 0.944398 0.021952 0.386718
O O4 0.000000 0.000000 0.500000
O O5 0.433016 0.750000 0.160601
O O6 0.344073 0.524460 0.212176
O O7 0.522892 0.523987 0.217699
O O8 0.902193 0.250000 0.909029
O O9 0.901272 0.026759 0.824703
O O10 0.843901 0.971474 0.933789
O O11 0.019233 0.023345 0.915605
O O12 0.783906 0.750000 0.004321
O O13 0.810867 0.023117 0.051964
O O14 0.317029 0.250000 0.256919
O O15 0.353038 0.018395 0.332015
O O16 0.195832 0.030383 0.274678
O O17 0.408067 0.250000 0.402640
O O18 0.138084 0.750000 0.254128
#
# Coordination Sequence:
#
# PCOD8254775 Si02
#       7
#     8   8   8   8   8   8   8
#     4  11  26  46  68  96 129 171 218 267 322 378
#     4  11  23  43  68  96 129 169 213 262 318 380
#     4  11  22  41  66  95 128 167 210 258 316 379
#     4  11  25  43  64  91 126 169 213 262 317 378
#     4  11  24  40  63  96 130 168 212 265 322 378
#     4  11  24  41  63  94 128 166 211 261 319 378
#     4  10  23  40  64  94 126 167 210 256 315 379
#
# _framework density 20.511644
#
# number of rings (size 3 to 8) (size 9 to 14) (size 15 to 20)
#    0.000    1.143    1.429    3.857    2.000    8.571 
#    0.000    0.000    0.000    0.000    0.000    0.000 
#    0.000    0.000    0.000    0.000    0.000    0.000 
#
# Total GULP energy -694874.011132 kJ/mol
# GULP energy per Si atom -12408.464484 kJ/mol
# Density = 2.046496 g / cm^3
# Si number density = 20.511644 Si / 1000 Ang^3
#
#
#
# Elastic Constant Matrix: (Units=GPa)
#
#
# Indices 1 2 3 4 5 6 
#
# 1 107.9633 26.3126 41.2110 0.0000 0.0000 0.0000
# 2 26.3126 40.7964 22.2947 0.0000 0.0000 0.0000
# 3 41.2110 22.2947 117.5917 0.0000 0.0000 0.0000
# 4 0.0000 0.0000 0.0000 36.2465 0.0000 0.0000
# 5 0.0000 0.0000 0.0000 0.0000 27.3773 0.0000
# 6 0.0000 0.0000 0.0000 0.0000 0.0000 36.0219
#
#
#
# Elastic Compliance Matrix: (Units=1/GPa)
#
#
# Indices 1 2 3 4 5 6 
#
# 1 0.011882 -0.006011 -0.003024 0.000000 0.000000 0.000000
# 2 -0.006011 0.030386 -0.003655 0.000000 0.000000 0.000000
# 3 -0.003024 -0.003655 0.010257 0.000000 0.000000 0.000000
# 4 0.000000 0.000000 0.000000 0.027589 0.000000 0.000000
# 5 0.000000 0.000000 0.000000 0.000000 0.036527 0.000000
# 6 0.000000 0.000000 0.000000 0.000000 0.000000 0.027761
#
#
# Mechanical properties :
#
#
# Convention : Reuss Voigt Hill
#
# Bulk Modulus (GPa) = 36.83890 49.55422 43.19656
# Shear Modulus (GPa) = 27.95976 31.69801 29.82889
#
# Velocity S-wave (km/s) = 3.69605 3.93538 3.81759
# Velocity P-wave (km/s) = 6.01775 6.69785 6.36689
#
# Compressibility (1/GPa) = 0.02714522
#
# Stress axis : x y z
#
# Youngs Moduli (GPa) = 84.16246 32.91013 97.49594
#
# Poissons Ratio (x) = 0.19781 0.29488
# Poissons Ratio (y) = 0.50586 0.35630
# Poissons Ratio (z) = 0.25455 0.12027
#
# Static dielectric constant tensor:
#      x y z
#    x 3.858910 0.000000 0.000000 
#    y 0.000000 3.657470 0.000000 
#    z 0.000000 0.000000 3.744350 
# 
# 
# High freq. dielectric constant tensor:
#      x y z
#    x 1.815640 0.000000 0.000000 
#    y 0.000000 1.807950 0.000000 
#    z 0.000000 0.000000 1.814150 
# 
# From -- ./inp_files/27294.got.cif
#   From: 2010.03.12/outbox.cif.g09.slc.cpg/sg62_14_cif.got.tgz:27294.got - 2010.04.10 19:12:36.
