data_PCOD8254624
_publ_section_title
;
Structure prediction by ZEFSAII (Michael W. Deem and Ramdas Pophale) SiO2 
 PCOD8254624
Probable space group: P N M A
;
_chemical_formula_sum "Si O2"
_cell_formula_units_Z 56
_cell_length_a 8.049126
_cell_length_b 12.799360
_cell_length_c 23.576831
_cell_angle_alpha 90.000000
_cell_angle_beta 90.000000
_cell_angle_gamma 90.000000
_cell_volume 2428.971453
_symmetry_space_group_name_H-M "P N M A"
_symmetry_group_IT_number 62
_symmetry_cell_setting 'orthorhombic'
loop_
_space_group_symop_operation_xyz
x,y,z
1/2-x,-y,1/2+z
1/2+x,1/2-y,1/2-z
-x,1/2+y,-z
-x,-y,-z
1/2+x,y,1/2-z
1/2-x,1/2+y,1/2+z
x,1/2-y,z
loop_
_atom_site_type_symbol
_atom_site_label
_atom_site_fract_x
_atom_site_fract_y
_atom_site_fract_z
Si Si1 0.761407 0.635216 0.419872
Si Si2 0.490131 0.627538 0.609354
Si Si3 0.184553 0.125278 0.457477
Si Si4 0.899909 0.458454 0.814400
Si Si5 0.860465 0.365370 0.598063
Si Si6 0.684358 0.874236 0.972863
Si Si7 0.273618 0.629895 0.285617
O O1 0.683421 0.750000 0.427575
O O2 0.768728 0.575491 0.480633
O O3 0.646486 0.573444 0.377732
O O4 0.943867 0.642929 0.394461
O O5 0.483655 0.750000 0.619602
O O6 0.673444 0.591910 0.587289
O O7 0.463755 0.575976 0.671988
O O8 0.342587 0.594794 0.565167
O O9 0.188321 0.250000 0.465788
O O10 0.992315 0.092371 0.442005
O O11 0.758962 0.449765 0.766817
O O12 0.029628 0.375146 0.790234
O O13 0.779774 0.250000 0.597964
O O14 0.808243 0.422902 0.538334
O O15 0.797346 0.420325 0.655804
O O16 0.677122 0.750000 0.982721
O O17 0.217531 0.750000 0.274115
#
# Coordination Sequence:
#
# PCOD8254624 Si02
#       7
#     8   8   8   8   8   8   8
#     4   9  17  33  57  88 126 161 198 248 306 373
#     4  10  22  41  63  90 128 164 208 262 307 369
#     4   8  16  33  58  88 125 166 201 245 309 371
#     4  12  25  40  60  91 119 160 216 256 317 383
#     4   8  16  33  60  90 122 163 200 241 308 378
#     4   8  15  33  61  91 125 166 203 242 308 374
#     4  11  23  41  63  87 121 159 204 266 320 376
#
# _framework density 23.055026999999999
#
# number of rings (size 3 to 8) (size 9 to 14) (size 15 to 20)
#    0.000    2.571    0.000    3.857    2.000    1.714 
#    5.143    2.143    0.000    0.000    0.000    0.000 
#    0.000    0.000    0.000    0.000    0.000    0.000 
#
# Total GULP energy -693813.588784 kJ/mol
# GULP energy per Si atom -12389.528371 kJ/mol
# Density = 2.300255 g / cm^3
# Si number density = 23.055027 Si / 1000 Ang^3
#
#
#
# Elastic Constant Matrix: (Units=GPa)
#
#
# Indices 1 2 3 4 5 6 
#
# 1 91.1139 22.1489 34.7081 0.0000 0.0000 0.0000
# 2 22.1489 48.7216 52.4461 0.0000 0.0000 0.0000
# 3 34.7081 52.4461 117.0588 0.0000 0.0000 0.0000
# 4 0.0000 0.0000 0.0000 31.9424 0.0000 0.0000
# 5 0.0000 0.0000 0.0000 0.0000 18.7190 0.0000
# 6 0.0000 0.0000 0.0000 0.0000 0.0000 16.7248
#
#
#
# Elastic Compliance Matrix: (Units=1/GPa)
#
#
# Indices 1 2 3 4 5 6 
#
# 1 0.012643 -0.003307 -0.002267 0.000000 0.000000 0.000000
# 2 -0.003307 0.040510 -0.017169 0.000000 0.000000 0.000000
# 3 -0.002267 -0.017169 0.016907 0.000000 0.000000 0.000000
# 4 0.000000 0.000000 0.000000 0.031306 0.000000 0.000000
# 5 0.000000 0.000000 0.000000 0.000000 0.053422 0.000000
# 6 0.000000 0.000000 0.000000 0.000000 0.000000 0.059792
#
#
# Mechanical properties :
#
#
# Convention : Reuss Voigt Hill
#
# Bulk Modulus (GPa) = 40.69455 52.83339 46.76397
# Shear Modulus (GPa) = 18.63885 23.31664 20.97774
#
# Velocity S-wave (km/s) = 2.84641 3.18362 3.01973
# Velocity P-wave (km/s) = 5.33780 6.03986 5.69965
#
# Compressibility (1/GPa) = 0.02457332
#
# Stress axis : x y z
#
# Youngs Moduli (GPa) = 79.09667 24.68534 59.14671
#
# Poissons Ratio (x) = 0.08164 0.13407
# Poissons Ratio (y) = 0.26160 1.01549
# Poissons Ratio (z) = 0.17930 0.42382
#
# Static dielectric constant tensor:
#      x y z
#    x 4.129760 0.000000 0.000000 
#    y 0.000000 4.272990 0.000000 
#    z 0.000000 0.000000 4.215950 
# 
# 
# High freq. dielectric constant tensor:
#      x y z
#    x 1.910010 0.000000 0.000000 
#    y 0.000000 1.922320 0.000000 
#    z 0.000000 0.000000 1.888940 
# 
# From -- ./inp_files/25967.got.cif
#   From: 2010.03.12/outbox.cif.g09.slc.cpg/sg62_13_cif.got.tgz:25967.got - 2010.04.10 19:12:36.
