data_PCOD8254574
_publ_section_title
;
Structure prediction by ZEFSAII (Michael W. Deem and Ramdas Pophale) SiO2 
 PCOD8254574
Probable space group: P N M A
;
_chemical_formula_sum "Si O2"
_cell_formula_units_Z 40
_cell_length_a 9.832713
_cell_length_b 23.718319
_cell_length_c 9.032411
_cell_angle_alpha 90.000000
_cell_angle_beta 90.000000
_cell_angle_gamma 90.000000
_cell_volume 2106.497557
_symmetry_space_group_name_H-M "P N M A"
_symmetry_group_IT_number 62
_symmetry_cell_setting 'orthorhombic'
loop_
_space_group_symop_operation_xyz
x,y,z
1/2-x,-y,1/2+z
1/2+x,1/2-y,1/2-z
-x,1/2+y,-z
-x,-y,-z
1/2+x,y,1/2-z
1/2-x,1/2+y,1/2+z
x,1/2-y,z
loop_
_atom_site_type_symbol
_atom_site_label
_atom_site_fract_x
_atom_site_fract_y
_atom_site_fract_z
Si Si1 0.017559 0.153362 0.364669
Si Si2 0.466669 0.750000 0.095206
Si Si3 0.883188 0.530785 0.585276
Si Si4 0.202750 0.149474 0.094082
Si Si5 0.363530 0.979275 0.573249
Si Si6 0.726682 0.250000 0.628771
O O1 0.053396 0.196083 0.493350
O O2 0.082439 0.095880 0.419161
O O3 0.092661 0.170982 0.213439
O O4 0.855078 0.149476 0.336618
O O5 0.614598 0.750000 0.170321
O O6 0.353672 0.750000 0.219729
O O7 0.869185 0.508830 0.752346
O O8 0.746227 0.520360 0.497156
O O9 0.000000 0.500000 0.500000
O O10 0.166946 0.086461 0.038283
O O11 0.190963 0.193185 0.960050
O O12 0.500000 0.000000 0.500000
#
# Coordination Sequence:
#
# PCOD8254574 Si02
#       6
#     8   4   8   8   8   4
#     4  10  22  40  64  87 121 160 203 247 301 364
#     4  10  23  42  60  92 122 156 199 256 306 354
#     4  11  22  41  61  90 127 160 205 254 299 367
#     4  10  22  41  63  89 119 160 205 245 300 369
#     4  11  24  39  63  92 124 166 208 250 309 362
#     4  10  23  42  62  90 124 154 201 254 304 358
#
# _framework density 18.988866000000002
#
# number of rings (size 3 to 8) (size 9 to 14) (size 15 to 20)
#    0.000    1.600    2.000    1.800    8.400    4.800 
#    0.000    0.000    0.000    0.000    0.000    0.000 
#    0.000    0.000    0.000    0.000    0.000    0.000 
#
# Total GULP energy -496037.784423 kJ/mol
# GULP energy per Si atom -12400.944611 kJ/mol
# Density = 1.894565 g / cm^3
# Si number density = 18.988866 Si / 1000 Ang^3
#
#
#
# Elastic Constant Matrix: (Units=GPa)
#
#
# Indices 1 2 3 4 5 6 
#
# 1 145.3629 46.8830 64.2881 0.0000 0.0000 0.0000
# 2 46.8830 69.7908 53.9316 0.0000 0.0000 0.0000
# 3 64.2881 53.9316 114.8408 0.0000 0.0000 0.0000
# 4 0.0000 0.0000 0.0000 18.0639 0.0000 0.0000
# 5 0.0000 0.0000 0.0000 0.0000 49.7021 0.0000
# 6 0.0000 0.0000 0.0000 0.0000 0.0000 33.1108
#
#
#
# Elastic Compliance Matrix: (Units=1/GPa)
#
#
# Indices 1 2 3 4 5 6 
#
# 1 0.009699 -0.003641 -0.003719 0.000000 0.000000 0.000000
# 2 -0.003641 0.023857 -0.009166 0.000000 0.000000 0.000000
# 3 -0.003719 -0.009166 0.015094 0.000000 0.000000 0.000000
# 4 0.000000 0.000000 0.000000 0.055359 0.000000 0.000000
# 5 0.000000 0.000000 0.000000 0.000000 0.020120 0.000000
# 6 0.000000 0.000000 0.000000 0.000000 0.000000 0.030202
#
#
# Mechanical properties :
#
#
# Convention : Reuss Voigt Hill
#
# Bulk Modulus (GPa) = 64.11067 73.35556 68.73311
# Shear Modulus (GPa) = 25.96299 31.16816 28.56557
#
# Velocity S-wave (km/s) = 3.70168 4.05580 3.88278
# Velocity P-wave (km/s) = 7.21841 7.78765 7.50842
#
# Compressibility (1/GPa) = 0.01559803
#
# Stress axis : x y z
#
# Youngs Moduli (GPa) = 103.10799 41.91593 66.25053
#
# Poissons Ratio (x) = 0.15261 0.24641
# Poissons Ratio (y) = 0.37541 0.60723
# Poissons Ratio (z) = 0.38350 0.38419
#
# Static dielectric constant tensor:
#      x y z
#    x 3.715120 0.000000 0.000000 
#    y 0.000000 3.771230 0.000000 
#    z 0.000000 0.000000 3.366970 
# 
# 
# High freq. dielectric constant tensor:
#      x y z
#    x 1.756930 0.000000 0.000000 
#    y 0.000000 1.751580 0.000000 
#    z 0.000000 0.000000 1.737260 
# 
# From -- ./inp_files/4321.got.cif
#   From: 2010.03.12/outbox.cif.g09.slc.cpg/sg62_3_cif.got.tgz:4321.got - 2010.04.10 19:12:36.
