data_PCOD8254453
_publ_section_title
;
Structure prediction by ZEFSAII (Michael W. Deem and Ramdas Pophale) SiO2 
 PCOD8254453
Probable space group: P N M A
;
_chemical_formula_sum "Si O2"
_cell_formula_units_Z 64
_cell_length_a 16.614535
_cell_length_b 17.564959
_cell_length_c 11.215898
_cell_angle_alpha 90.000000
_cell_angle_beta 90.000000
_cell_angle_gamma 90.000000
_cell_volume 3273.176183
_symmetry_space_group_name_H-M "P N M A"
_symmetry_group_IT_number 62
_symmetry_cell_setting 'orthorhombic'
loop_
_space_group_symop_operation_xyz
x,y,z
1/2-x,-y,1/2+z
1/2+x,1/2-y,1/2-z
-x,1/2+y,-z
-x,-y,-z
1/2+x,y,1/2-z
1/2-x,1/2+y,1/2+z
x,1/2-y,z
loop_
_atom_site_type_symbol
_atom_site_label
_atom_site_fract_x
_atom_site_fract_y
_atom_site_fract_z
Si Si1 0.388304 0.429257 0.952508
Si Si2 0.716366 0.593588 0.674742
Si Si3 0.715593 0.338610 0.932090
Si Si4 0.564966 0.072982 0.918624
Si Si5 0.895748 0.557642 0.942729
Si Si6 0.304521 0.451142 0.722023
Si Si7 0.248310 0.162662 0.083842
Si Si8 0.552514 0.520702 0.675932
O O1 0.479844 0.400387 0.975322
O O2 0.374265 0.423978 0.810902
O O3 0.384878 0.516734 0.994875
O O4 0.321967 0.380962 0.021870
O O5 0.749952 0.624323 0.551492
O O6 0.747781 0.508745 0.704511
O O7 0.743843 0.653602 0.774352
O O8 0.619719 0.586682 0.675636
O O9 0.734938 0.250000 0.931639
O O10 0.620068 0.352084 0.913133
O O11 0.756032 0.376715 0.816672
O O12 0.549523 0.027545 0.796550
O O13 0.839065 0.488969 0.897742
O O14 0.839939 0.632238 0.954178
O O15 0.968427 0.565627 0.846955
O O16 0.932038 0.540164 0.071454
O O17 0.253083 0.250000 0.046007
#
# Coordination Sequence:
#
# PCOD8254453 Si02
#       8
#     8   8   8   8   8   8   8   8
#     4  11  22  38  65  91 120 162 214 256 313 375
#     4  11  21  40  66  90 119 165 215 256 304 371
#     4  12  25  40  61  95 133 170 206 263 329 373
#     4  11  22  39  64  96 122 160 211 272 308 377
#     4  10  22  37  66  93 116 162 213 259 299 366
#     4  11  20  37  63  90 122 164 210 257 302 383
#     4  11  24  41  59  87 127 167 204 251 317 381
#     4  11  19  38  68  92 116 150 216 265 304 356
#
# _framework density 19.552873999999999
#
# number of rings (size 3 to 8) (size 9 to 14) (size 15 to 20)
#    0.000    1.000    6.250    1.875    0.000    1.000 
#    0.000    1.250    0.000    0.000    0.000    0.000 
#    0.000    0.000    0.000    0.000    0.000    0.000 
#
# Total GULP energy -793536.659493 kJ/mol
# GULP energy per Si atom -12399.010305 kJ/mol
# Density = 1.950837 g / cm^3
# Si number density = 19.552874 Si / 1000 Ang^3
#
#
#
# Elastic Constant Matrix: (Units=GPa)
#
#
# Indices 1 2 3 4 5 6 
#
# 1 135.6355 60.0216 23.6670 0.0000 0.0000 0.0000
# 2 60.0216 101.9217 34.4475 0.0000 0.0000 0.0000
# 3 23.6670 34.4475 84.0736 0.0000 0.0000 0.0000
# 4 0.0000 0.0000 0.0000 17.0915 0.0000 0.0000
# 5 0.0000 0.0000 0.0000 0.0000 34.1858 0.0000
# 6 0.0000 0.0000 0.0000 0.0000 0.0000 19.8633
#
#
#
# Elastic Compliance Matrix: (Units=1/GPa)
#
#
# Indices 1 2 3 4 5 6 
#
# 1 0.009987 -0.005724 -0.000466 0.000000 0.000000 0.000000
# 2 -0.005724 0.014669 -0.004399 0.000000 0.000000 0.000000
# 3 -0.000466 -0.004399 0.013828 0.000000 0.000000 0.000000
# 4 0.000000 0.000000 0.000000 0.058509 0.000000 0.000000
# 5 0.000000 0.000000 0.000000 0.000000 0.029252 0.000000
# 6 0.000000 0.000000 0.000000 0.000000 0.000000 0.050344
#
#
# Mechanical properties :
#
#
# Convention : Reuss Voigt Hill
#
# Bulk Modulus (GPa) = 57.78363 61.98923 59.88643
# Shear Modulus (GPa) = 24.56579 27.79444 26.18012
#
# Velocity S-wave (km/s) = 3.54839 3.77437 3.66312
# Velocity P-wave (km/s) = 6.81210 7.12508 6.97035
#
# Compressibility (1/GPa) = 0.01730594
#
# Stress axis : x y z
#
# Youngs Moduli (GPa) = 100.13101 68.17119 72.31710
#
# Poissons Ratio (x) = 0.39019 0.03371
# Poissons Ratio (y) = 0.57312 0.31813
# Poissons Ratio (z) = 0.04668 0.29989
#
# Static dielectric constant tensor:
#      x y z
#    x 3.843680 0.000000 0.000000 
#    y 0.000000 3.193400 0.000000 
#    z 0.000000 0.000000 3.702700 
# 
# 
# High freq. dielectric constant tensor:
#      x y z
#    x 1.781320 0.000000 0.000000 
#    y 0.000000 1.715610 0.000000 
#    z 0.000000 0.000000 1.776760 
# 
# From -- ./inp_files/14326.got.cif
#   From: 2010.03.12/outbox.cif.g09.slc.cpg/sg62_8_cif.got.tgz:14326.got - 2010.04.10 19:12:36.
