data_PCOD8254594
_publ_section_title
;
Structure prediction by ZEFSAII (Michael W. Deem and Ramdas Pophale) SiO2 
 PCOD8254594
Probable space group: P N M A
;
_chemical_formula_sum "Si O2"
_cell_formula_units_Z 48
_cell_length_a 13.710790
_cell_length_b 15.728077
_cell_length_c 9.847214
_cell_angle_alpha 90.000000
_cell_angle_beta 90.000000
_cell_angle_gamma 90.000000
_cell_volume 2123.496169
_symmetry_space_group_name_H-M "P N M A"
_symmetry_group_IT_number 62
_symmetry_cell_setting 'orthorhombic'
loop_
_space_group_symop_operation_xyz
x,y,z
1/2-x,-y,1/2+z
1/2+x,1/2-y,1/2-z
-x,1/2+y,-z
-x,-y,-z
1/2+x,y,1/2-z
1/2-x,1/2+y,1/2+z
x,1/2-y,z
loop_
_atom_site_type_symbol
_atom_site_label
_atom_site_fract_x
_atom_site_fract_y
_atom_site_fract_z
Si Si1 0.743753 0.153776 0.575929
Si Si2 0.639807 0.903677 0.322643
Si Si3 0.118577 0.848997 0.663106
Si Si4 0.957962 0.594186 0.023487
Si Si5 0.260493 0.153307 0.425870
Si Si6 0.579118 0.411081 0.229503
O O1 0.708915 0.250000 0.550199
O O2 0.814763 0.153441 0.705050
O O3 0.801770 0.118610 0.445122
O O4 0.646754 0.096432 0.600184
O O5 0.540204 0.860133 0.382957
O O6 0.717513 0.908764 0.446856
O O7 0.617994 0.994834 0.257437
O O8 0.093771 0.750000 0.636471
O O9 0.158344 0.864828 0.813269
O O10 0.022449 0.907357 0.646775
O O11 0.939330 0.636551 0.875000
O O12 0.000000 0.500000 0.000000
O O13 0.265941 0.250000 0.478043
O O14 0.154851 0.138673 0.362898
#
# Coordination Sequence:
#
# PCOD8254594 Si02
#       6
#     8   8   8   8   8   8
#     4  11  25  45  69 103 143 184 228 293 362 419
#     4  11  26  42  70 103 144 182 230 290 361 427
#     4  10  22  40  66  99 136 181 242 291 340 415
#     4  10  23  44  66  99 133 184 231 276 345 418
#     4  11  23  41  68 102 137 186 241 293 345 421
#     4  11  23  40  71  99 139 181 237 292 352 418
#
# _framework density 22.604233000000001
#
# number of rings (size 3 to 8) (size 9 to 14) (size 15 to 20)
#    0.000    1.333    3.333    1.000    4.667    4.000 
#    0.000    1.667    0.000    0.000    0.000    0.000 
#    0.000    0.000    0.000    0.000    0.000    0.000 
#
# Total GULP energy -595068.252234 kJ/mol
# GULP energy per Si atom -12397.255255 kJ/mol
# Density = 2.255279 g / cm^3
# Si number density = 22.604233 Si / 1000 Ang^3
#
#
#
# Elastic Constant Matrix: (Units=GPa)
#
#
# Indices 1 2 3 4 5 6 
#
# 1 163.6662 56.7858 42.8789 0.0000 0.0000 0.0000
# 2 56.7858 65.2426 35.4774 0.0000 0.0000 0.0000
# 3 42.8789 35.4774 101.4531 0.0000 0.0000 0.0000
# 4 0.0000 0.0000 0.0000 26.7785 0.0000 0.0000
# 5 0.0000 0.0000 0.0000 0.0000 47.0788 0.0000
# 6 0.0000 0.0000 0.0000 0.0000 0.0000 28.1477
#
#
#
# Elastic Compliance Matrix: (Units=1/GPa)
#
#
# Indices 1 2 3 4 5 6 
#
# 1 0.008890 -0.007031 -0.001298 0.000000 0.000000 0.000000
# 2 -0.007031 0.024488 -0.005591 0.000000 0.000000 0.000000
# 3 -0.001298 -0.005591 0.012361 0.000000 0.000000 0.000000
# 4 0.000000 0.000000 0.000000 0.037343 0.000000 0.000000
# 5 0.000000 0.000000 0.000000 0.000000 0.021241 0.000000
# 6 0.000000 0.000000 0.000000 0.000000 0.000000 0.035527
#
#
# Mechanical properties :
#
#
# Convention : Reuss Voigt Hill
#
# Bulk Modulus (GPa) = 55.87849 66.73847 61.30848
# Shear Modulus (GPa) = 28.79228 33.41566 31.10397
#
# Velocity S-wave (km/s) = 3.57284 3.84903 3.71350
# Velocity P-wave (km/s) = 6.46485 7.02440 6.75043
#
# Compressibility (1/GPa) = 0.01789597
#
# Stress axis : x y z
#
# Youngs Moduli (GPa) = 112.48830 40.83646 80.90076
#
# Poissons Ratio (x) = 0.28714 0.10504
# Poissons Ratio (y) = 0.79096 0.45235
# Poissons Ratio (z) = 0.14606 0.22833
#
# Static dielectric constant tensor:
#      x y z
#    x 4.431580 0.000000 0.000000 
#    y 0.000000 3.671790 0.000000 
#    z 0.000000 0.000000 4.245880 
# 
# 
# High freq. dielectric constant tensor:
#      x y z
#    x 1.907340 0.000000 0.000000 
#    y 0.000000 1.864860 0.000000 
#    z 0.000000 0.000000 1.889260 
# 
# From -- ./inp_files/12269.got.cif
#   From: 2010.03.12/outbox.cif.g09.slc.cpg/sg62_7_cif.got.tgz:12269.got - 2010.04.10 19:12:36.
