data_PCOD8254541
_publ_section_title
;
Structure prediction by ZEFSAII (Michael W. Deem and Ramdas Pophale) SiO2 
 PCOD8254541
Probable space group: P N M A
;
_chemical_formula_sum "Si O2"
_cell_formula_units_Z 48
_cell_length_a 30.821521
_cell_length_b 8.865390
_cell_length_c 8.884117
_cell_angle_alpha 90.000000
_cell_angle_beta 90.000000
_cell_angle_gamma 90.000000
_cell_volume 2427.538809
_symmetry_space_group_name_H-M "P N M A"
_symmetry_group_IT_number 62
_symmetry_cell_setting 'orthorhombic'
loop_
_space_group_symop_operation_xyz
x,y,z
1/2-x,-y,1/2+z
1/2+x,1/2-y,1/2-z
-x,1/2+y,-z
-x,-y,-z
1/2+x,y,1/2-z
1/2-x,1/2+y,1/2+z
x,1/2-y,z
loop_
_atom_site_type_symbol
_atom_site_label
_atom_site_fract_x
_atom_site_fract_y
_atom_site_fract_z
Si Si1 0.872873 0.073977 0.086925
Si Si2 0.540103 0.928125 0.414797
Si Si3 0.710443 0.426310 0.083637
Si Si4 0.538473 0.074628 0.091488
Si Si5 0.375487 0.922529 0.097970
Si Si6 0.791779 0.927912 0.926562
O O1 0.863943 0.250000 0.072379
O O2 0.877471 0.032228 0.260804
O O3 0.916567 0.025447 0.002716
O O4 0.832872 0.988506 0.014854
O O5 0.533479 0.750000 0.407580
O O6 0.500000 0.000000 0.500000
O O7 0.543540 0.992800 0.249021
O O8 0.721494 0.250000 0.076832
O O9 0.706787 0.483898 0.254650
O O10 0.665636 0.465474 0.002653
O O11 0.747999 0.516358 0.001951
O O12 0.528223 0.250000 0.117919
O O13 0.582445 0.049575 0.001453
O O14 0.500000 0.000000 0.000000
O O15 0.372847 0.750000 0.154113
O O16 0.793263 0.750000 0.935462
#
# Coordination Sequence:
#
# PCOD8254541 Si02
#       6
#     8   8   8   8   8   8
#     4  11  24  40  60  88 120 154 196 245 294 349
#     4  11  24  41  62  89 121 159 202 249 301 355
#     4  10  22  40  60  86 118 152 195 243 291 347
#     4  11  23  40  63  91 123 159 200 246 297 356
#     4  10  22  40  62  87 118 157 198 242 294 352
#     4  11  23  39  61  87 117 155 195 239 294 353
#
# _framework density 19.773112000000001
#
# number of rings (size 3 to 8) (size 9 to 14) (size 15 to 20)
#    0.000    1.333    0.000    5.000    0.000   12.667 
#    0.000    0.000    0.000    0.000    0.000    0.000 
#    0.000    0.000    0.000    0.000    0.000    0.000 
#
# Total GULP energy -595514.705224 kJ/mol
# GULP energy per Si atom -12406.556359 kJ/mol
# Density = 1.972811 g / cm^3
# Si number density = 19.773112 Si / 1000 Ang^3
#
#
#
# Elastic Constant Matrix: (Units=GPa)
#
#
# Indices 1 2 3 4 5 6 
#
# 1 162.8194 56.1716 59.6514 0.0000 0.0000 0.0000
# 2 56.1716 57.6515 34.9147 0.0000 0.0000 0.0000
# 3 59.6514 34.9147 133.8565 0.0000 0.0000 0.0000
# 4 0.0000 0.0000 0.0000 39.9289 0.0000 0.0000
# 5 0.0000 0.0000 0.0000 0.0000 48.5057 0.0000
# 6 0.0000 0.0000 0.0000 0.0000 0.0000 34.9983
#
#
#
# Elastic Compliance Matrix: (Units=1/GPa)
#
#
# Indices 1 2 3 4 5 6 
#
# 1 0.009779 -0.008181 -0.002224 0.000000 0.000000 0.000000
# 2 -0.008181 0.027444 -0.003513 0.000000 0.000000 0.000000
# 3 -0.002224 -0.003513 0.009378 0.000000 0.000000 0.000000
# 4 0.000000 0.000000 0.000000 0.025045 0.000000 0.000000
# 5 0.000000 0.000000 0.000000 0.000000 0.020616 0.000000
# 6 0.000000 0.000000 0.000000 0.000000 0.000000 0.028573
#
#
# Mechanical properties :
#
#
# Convention : Reuss Voigt Hill
#
# Bulk Modulus (GPa) = 53.28888 72.86699 63.07793
# Shear Modulus (GPa) = 32.27370 38.25921 35.26646
#
# Velocity S-wave (km/s) = 4.04443 4.40353 4.22780
# Velocity P-wave (km/s) = 6.98703 7.92379 7.47011
#
# Compressibility (1/GPa) = 0.01876564
#
# Stress axis : x y z
#
# Youngs Moduli (GPa) = 102.26029 36.43789 106.63284
#
# Poissons Ratio (x) = 0.29810 0.23715
# Poissons Ratio (y) = 0.83660 0.37456
# Poissons Ratio (z) = 0.22742 0.12799
#
# Static dielectric constant tensor:
#      x y z
#    x 3.877180 0.000000 0.000000 
#    y 0.000000 3.706190 0.000000 
#    z 0.000000 0.000000 3.790610 
# 
# 
# High freq. dielectric constant tensor:
#      x y z
#    x 1.792810 0.000000 0.000000 
#    y 0.000000 1.778310 0.000000 
#    z 0.000000 0.000000 1.790970 
# 
# From -- ./inp_files/10197.got.cif
#   From: 2010.03.12/outbox.cif.g09.slc.cpg/sg62_6_cif.got.tgz:10197.got - 2010.04.10 19:12:36.
