data_PCOD8254463
_publ_section_title
;
Structure prediction by ZEFSAII (Michael W. Deem and Ramdas Pophale) SiO2 
 PCOD8254463
Probable space group: P N M A
;
_chemical_formula_sum "Si O2"
_cell_formula_units_Z 56
_cell_length_a 9.013814
_cell_length_b 23.498029
_cell_length_c 14.012551
_cell_angle_alpha 90.000000
_cell_angle_beta 90.000000
_cell_angle_gamma 90.000000
_cell_volume 2967.954467
_symmetry_space_group_name_H-M "P N M A"
_symmetry_group_IT_number 62
_symmetry_cell_setting 'orthorhombic'
loop_
_space_group_symop_operation_xyz
x,y,z
1/2-x,-y,1/2+z
1/2+x,1/2-y,1/2-z
-x,1/2+y,-z
-x,-y,-z
1/2+x,y,1/2-z
1/2-x,1/2+y,1/2+z
x,1/2-y,z
loop_
_atom_site_type_symbol
_atom_site_label
_atom_site_fract_x
_atom_site_fract_y
_atom_site_fract_z
Si Si1 0.896287 0.434352 0.582046
Si Si2 0.398078 0.250000 0.365931
Si Si3 0.817309 0.490244 0.762168
Si Si4 0.739350 0.250000 0.332929
Si Si5 0.073428 0.931476 0.732315
Si Si6 0.271575 0.539317 0.034724
Si Si7 0.921523 0.128923 0.080633
Si Si8 0.767007 0.133149 0.431963
O O1 0.862173 0.436999 0.695408
O O2 0.803482 0.485605 0.532550
O O3 0.836242 0.374910 0.537892
O O4 0.072093 0.436469 0.569957
O O5 0.563465 0.250000 0.324727
O O6 0.289866 0.250000 0.275924
O O7 0.373862 0.305167 0.433594
O O8 0.648849 0.508350 0.739121
O O9 0.832787 0.475979 0.874444
O O10 0.902538 0.549056 0.730970
O O11 0.797932 0.195655 0.391534
O O12 0.101622 0.881262 0.806683
O O13 0.139618 0.912655 0.630572
O O14 0.182915 0.588396 0.979982
O O15 0.094091 0.118000 0.058755
#
# Coordination Sequence:
#
# PCOD8254463 Si02
#       8
#     8   4   8   4   8   8   8   8
#     4  11  22  37  56  83 117 152 190 235 288 348
#     4  10  22  38  58  85 114 153 194 239 288 340
#     4  12  23  36  53  86 118 150 191 231 285 344
#     4  10  22  38  58  85 116 151 196 237 290 340
#     4  12  20  33  56  83 118 150 186 230 280 342
#     4  11  23  37  57  83 116 154 190 235 290 344
#     4  11  23  36  57  84 117 154 193 236 287 344
#     4  11  23  37  56  85 117 155 193 237 286 342
#
# _framework density 18.868213999999998
#
# number of rings (size 3 to 8) (size 9 to 14) (size 15 to 20)
#    0.000    0.857    7.143    0.857    2.000    2.286 
#    0.000    0.000    0.000    0.857    0.000    0.000 
#    0.000    0.000    0.000    0.000    0.000    0.000 
#
# Total GULP energy -694111.877561 kJ/mol
# GULP energy per Si atom -12394.854956 kJ/mol
# Density = 1.882527 g / cm^3
# Si number density = 18.868214 Si / 1000 Ang^3
#
#
#
# Elastic Constant Matrix: (Units=GPa)
#
#
# Indices 1 2 3 4 5 6 
#
# 1 65.2501 38.9466 34.4428 0.0000 0.0000 0.0000
# 2 38.9466 73.3347 31.6527 0.0000 0.0000 0.0000
# 3 34.4428 31.6527 79.7021 0.0000 0.0000 0.0000
# 4 0.0000 0.0000 0.0000 25.3833 0.0000 0.0000
# 5 0.0000 0.0000 0.0000 0.0000 28.8362 0.0000
# 6 0.0000 0.0000 0.0000 0.0000 0.0000 23.7258
#
#
#
# Elastic Compliance Matrix: (Units=1/GPa)
#
#
# Indices 1 2 3 4 5 6 
#
# 1 0.025089 -0.010433 -0.006699 0.000000 0.000000 0.000000
# 2 -0.010433 0.020795 -0.003750 0.000000 0.000000 0.000000
# 3 -0.006699 -0.003750 0.016931 0.000000 0.000000 0.000000
# 4 0.000000 0.000000 0.000000 0.039396 0.000000 0.000000
# 5 0.000000 0.000000 0.000000 0.000000 0.034679 0.000000
# 6 0.000000 0.000000 0.000000 0.000000 0.000000 0.042148
#
#
# Mechanical properties :
#
#
# Convention : Reuss Voigt Hill
#
# Bulk Modulus (GPa) = 47.50221 47.59681 47.54951
# Shear Modulus (GPa) = 21.94729 23.13871 22.54300
#
# Velocity S-wave (km/s) = 3.41425 3.50570 3.46028
# Velocity P-wave (km/s) = 6.38540 6.45502 6.42030
#
# Compressibility (1/GPa) = 0.02105165
#
# Stress axis : x y z
#
# Youngs Moduli (GPa) = 39.85842 48.08746 59.06380
#
# Poissons Ratio (x) = 0.50169 0.39565
# Poissons Ratio (y) = 0.41584 0.22150
# Poissons Ratio (z) = 0.26700 0.18033
#
# Static dielectric constant tensor:
#      x y z
#    x 3.545190 0.000000 0.000000 
#    y 0.000000 3.411700 0.000000 
#    z 0.000000 0.000000 3.461630 
# 
# 
# High freq. dielectric constant tensor:
#      x y z
#    x 1.749330 0.000000 0.000000 
#    y 0.000000 1.706320 0.000000 
#    z 0.000000 0.000000 1.717960 
# 
# From -- ./inp_files/17253.got.cif
#   From: 2010.03.12/outbox.cif.g09.slc.cpg/sg62_9_cif.got.tgz:17253.got - 2010.04.10 19:12:36.
