data_PCOD8254859
_publ_section_title
;
Structure prediction by ZEFSAII (Michael W. Deem and Ramdas Pophale) SiO2 
 PCOD8254859
Probable space group: P N M A
;
_chemical_formula_sum "Si O2"
_cell_formula_units_Z 40
_cell_length_a 18.538003
_cell_length_b 8.428546
_cell_length_c 12.178558
_cell_angle_alpha 90.000000
_cell_angle_beta 90.000000
_cell_angle_gamma 90.000000
_cell_volume 1902.880336
_symmetry_space_group_name_H-M "P N M A"
_symmetry_group_IT_number 62
_symmetry_cell_setting 'orthorhombic'
loop_
_space_group_symop_operation_xyz
x,y,z
1/2-x,-y,1/2+z
1/2+x,1/2-y,1/2-z
-x,1/2+y,-z
-x,-y,-z
1/2+x,y,1/2-z
1/2-x,1/2+y,1/2+z
x,1/2-y,z
loop_
_atom_site_type_symbol
_atom_site_label
_atom_site_fract_x
_atom_site_fract_y
_atom_site_fract_z
Si Si1 0.815879 0.567725 0.612620
Si Si2 0.884360 0.433652 0.825046
Si Si3 0.046604 0.065299 0.781989
Si Si4 0.426746 0.434855 0.050619
Si Si5 0.668244 0.067958 0.546187
O O1 0.830002 0.750000 0.642845
O O2 0.841924 0.458636 0.712269
O O3 0.859021 0.523240 0.502824
O O4 0.731639 0.541954 0.591482
O O5 0.881579 0.250000 0.858462
O O6 0.966381 0.492389 0.811189
O O7 0.846286 0.535346 0.918913
O O8 0.046908 0.250000 0.749278
O O9 0.096142 0.028309 0.886351
O O10 0.076258 0.964874 0.680188
O O11 0.420692 0.250000 0.024779
O O12 0.500000 0.500000 0.000000
O O13 0.691591 0.250000 0.560565
#
# Coordination Sequence:
#
# PCOD8254859 Si02
#       5
#     8   8   8   8   8
#     4  12  26  44  66  95 132 175 222 273 330 389
#     4  11  23  43  69  97 132 173 218 270 328 393
#     4  10  23  43  69  98 132 171 217 269 327 390
#     4  12  24  41  67  97 131 170 219 271 326 389
#     4  11  25  44  67  97 134 175 219 270 330 394
#
# _framework density 21.020765999999998
#
# number of rings (size 3 to 8) (size 9 to 14) (size 15 to 20)
#    0.000    0.800    2.000    5.400    2.800    2.400 
#    0.000    0.000    0.000    0.000    0.000    0.000 
#    0.000    0.000    0.000    0.000    0.000    0.000 
#
# Total GULP energy -496401.617460 kJ/mol
# GULP energy per Si atom -12410.040437 kJ/mol
# Density = 2.097292 g / cm^3
# Si number density = 21.020766 Si / 1000 Ang^3
#
#
#
# Elastic Constant Matrix: (Units=GPa)
#
#
# Indices 1 2 3 4 5 6 
#
# 1 125.0181 18.7856 48.1178 0.0000 0.0000 0.0000
# 2 18.7856 74.1739 17.4826 0.0000 0.0000 0.0000
# 3 48.1178 17.4826 95.3649 0.0000 0.0000 0.0000
# 4 0.0000 0.0000 0.0000 36.4250 0.0000 0.0000
# 5 0.0000 0.0000 0.0000 0.0000 34.1223 0.0000
# 6 0.0000 0.0000 0.0000 0.0000 0.0000 30.6694
#
#
#
# Elastic Compliance Matrix: (Units=1/GPa)
#
#
# Indices 1 2 3 4 5 6 
#
# 1 0.010066 -0.001413 -0.004820 0.000000 0.000000 0.000000
# 2 -0.001413 0.014289 -0.001906 0.000000 0.000000 0.000000
# 3 -0.004820 -0.001906 0.013268 0.000000 0.000000 0.000000
# 4 0.000000 0.000000 0.000000 0.027454 0.000000 0.000000
# 5 0.000000 0.000000 0.000000 0.000000 0.029306 0.000000
# 6 0.000000 0.000000 0.000000 0.000000 0.000000 0.032606
#
#
# Mechanical properties :
#
#
# Convention : Reuss Voigt Hill
#
# Bulk Modulus (GPa) = 46.85280 51.48100 49.16690
# Shear Modulus (GPa) = 33.24846 34.25475 33.75160
#
# Velocity S-wave (km/s) = 3.98137 4.04117 4.01138
# Velocity P-wave (km/s) = 6.59335 6.80577 6.70040
#
# Compressibility (1/GPa) = 0.02134344
#
# Stress axis : x y z
#
# Youngs Moduli (GPa) = 99.34044 69.98328 75.37189
#
# Poissons Ratio (x) = 0.09891 0.36330
# Poissons Ratio (y) = 0.14041 0.14369
# Poissons Ratio (z) = 0.47883 0.13341
#
# Static dielectric constant tensor:
#      x y z
#    x 3.828460 0.000000 0.000000 
#    y 0.000000 3.849500 0.000000 
#    z 0.000000 0.000000 3.861250 
# 
# 
# High freq. dielectric constant tensor:
#      x y z
#    x 1.831870 0.000000 0.000000 
#    y 0.000000 1.828400 0.000000 
#    z 0.000000 0.000000 1.832620 
# 
# From -- ./inp_files/13851.got.cif
#   From: 2010.03.12/outbox.cif.g09.slc.cpg/sg62_7_cif.got.tgz:13851.got - 2010.04.10 19:12:36.
