data_PCOD8254083
_publ_section_title
;
Structure prediction by ZEFSAII (Michael W. Deem and Ramdas Pophale) SiO2 
 PCOD8254083
Probable space group: P N M A
;
_chemical_formula_sum "Si O2"
_cell_formula_units_Z 48
_cell_length_a 19.877643
_cell_length_b 13.998291
_cell_length_c 8.599666
_cell_angle_alpha 90.000000
_cell_angle_beta 90.000000
_cell_angle_gamma 90.000000
_cell_volume 2392.883131
_symmetry_space_group_name_H-M "P N M A"
_symmetry_group_IT_number 62
_symmetry_cell_setting 'orthorhombic'
loop_
_space_group_symop_operation_xyz
x,y,z
1/2-x,-y,1/2+z
1/2+x,1/2-y,1/2-z
-x,1/2+y,-z
-x,-y,-z
1/2+x,y,1/2-z
1/2-x,1/2+y,1/2+z
x,1/2-y,z
loop_
_atom_site_type_symbol
_atom_site_label
_atom_site_fract_x
_atom_site_fract_y
_atom_site_fract_z
Si Si1 0.418941 0.637295 0.802011
Si Si2 0.369156 0.137837 0.773596
Si Si3 0.921225 0.994987 0.971649
Si Si4 0.798760 0.970979 0.565906
Si Si5 0.170119 0.964255 0.758839
Si Si6 0.441598 0.142280 0.080894
O O1 0.416518 0.750000 0.796718
O O2 0.404824 0.597357 0.630851
O O3 0.489115 0.591379 0.865956
O O4 0.360888 0.599807 0.913610
O O5 0.348239 0.250000 0.752378
O O6 0.395379 0.093037 0.611550
O O7 0.430339 0.128092 0.897195
O O8 0.308775 0.074139 0.847803
O O9 0.880609 0.976067 0.131175
O O10 0.000000 0.000000 0.000000
O O11 0.730192 0.923780 0.631995
O O12 0.793219 0.977793 0.379299
O O13 0.124460 0.884120 0.678800
O O14 0.455408 0.250000 0.124453
#
# Coordination Sequence:
#
# PCOD8254083 Si02
#       6
#     8   8   8   8   8   8
#     4  10  21  39  59  89 123 156 200 248 299 358
#     4   9  20  37  59  86 117 153 198 245 295 360
#     4  11  22  35  60  89 120 162 199 245 300 354
#     4  10  22  38  63  84 118 160 198 247 305 355
#     4  11  22  40  59  87 121 157 206 247 301 361
#     4   9  19  36  62  89 118 158 200 245 301 357
#
# _framework density 20.059484000000001
#
# number of rings (size 3 to 8) (size 9 to 14) (size 15 to 20)
#    0.000    2.000    1.667    2.000    2.333    4.000 
#    0.000    7.500    0.000    0.000    0.000    0.000 
#    0.000    0.000    0.000    0.000    0.000    0.000 
#
# Total GULP energy -594758.126247 kJ/mol
# GULP energy per Si atom -12390.794297 kJ/mol
# Density = 2.001383 g / cm^3
# Si number density = 20.059484 Si / 1000 Ang^3
#
#
#
# Elastic Constant Matrix: (Units=GPa)
#
#
# Indices 1 2 3 4 5 6 
#
# 1 129.2320 15.2706 45.8624 0.0000 0.0000 0.0000
# 2 15.2706 80.8050 16.6026 0.0000 0.0000 0.0000
# 3 45.8624 16.6026 118.7771 0.0000 0.0000 0.0000
# 4 0.0000 0.0000 0.0000 18.5889 0.0000 0.0000
# 5 0.0000 0.0000 0.0000 0.0000 41.3419 0.0000
# 6 0.0000 0.0000 0.0000 0.0000 0.0000 16.0826
#
#
#
# Elastic Compliance Matrix: (Units=1/GPa)
#
#
# Indices 1 2 3 4 5 6 
#
# 1 0.009048 -0.001021 -0.003351 0.000000 0.000000 0.000000
# 2 -0.001021 0.012857 -0.001403 0.000000 0.000000 0.000000
# 3 -0.003351 -0.001403 0.009909 0.000000 0.000000 0.000000
# 4 0.000000 0.000000 0.000000 0.053795 0.000000 0.000000
# 5 0.000000 0.000000 0.000000 0.000000 0.024189 0.000000
# 6 0.000000 0.000000 0.000000 0.000000 0.000000 0.062179
#
#
# Mechanical properties :
#
#
# Convention : Reuss Voigt Hill
#
# Bulk Modulus (GPa) = 49.34923 53.80948 51.57936
# Shear Modulus (GPa) = 26.27690 31.94123 29.10907
#
# Velocity S-wave (km/s) = 3.62325 3.99472 3.81351
# Velocity P-wave (km/s) = 6.49298 6.93976 6.72008
#
# Compressibility (1/GPa) = 0.02026374
#
# Stress axis : x y z
#
# Youngs Moduli (GPa) = 110.52334 77.78044 100.91814
#
# Poissons Ratio (x) = 0.07944 0.33816
# Poissons Ratio (y) = 0.11289 0.14156
# Poissons Ratio (z) = 0.37034 0.10910
#
# Static dielectric constant tensor:
#      x y z
#    x 3.780530 0.000000 0.000000 
#    y 0.000000 3.447370 0.000000 
#    z 0.000000 0.000000 3.932100 
# 
# 
# High freq. dielectric constant tensor:
#      x y z
#    x 1.792510 0.000000 0.000000 
#    y 0.000000 1.752460 0.000000 
#    z 0.000000 0.000000 1.795900 
# 
# From -- ./inp_files/7672.got.cif
#   From: 2010.03.12/outbox.cif.g09.slc.cpg/sg62_4_cif.got.tgz:7672.got - 2010.04.10 19:12:36.
