data_PCOD8254491
_publ_section_title
;
Structure prediction by ZEFSAII (Michael W. Deem and Ramdas Pophale) SiO2 
 PCOD8254491
Probable space group: P N M A
;
_chemical_formula_sum "Si O2"
_cell_formula_units_Z 48
_cell_length_a 19.968955
_cell_length_b 8.897442
_cell_length_c 14.304235
_cell_angle_alpha 90.000000
_cell_angle_beta 90.000000
_cell_angle_gamma 90.000000
_cell_volume 2541.470894
_symmetry_space_group_name_H-M "P N M A"
_symmetry_group_IT_number 62
_symmetry_cell_setting 'orthorhombic'
loop_
_space_group_symop_operation_xyz
x,y,z
1/2-x,-y,1/2+z
1/2+x,1/2-y,1/2-z
-x,1/2+y,-z
-x,-y,-z
1/2+x,y,1/2-z
1/2-x,1/2+y,1/2+z
x,1/2-y,z
loop_
_atom_site_type_symbol
_atom_site_label
_atom_site_fract_x
_atom_site_fract_y
_atom_site_fract_z
Si Si1 0.268944 0.426269 0.013443
Si Si2 0.327008 0.573807 0.841370
Si Si3 0.428222 0.424107 0.710299
Si Si4 0.803580 0.075298 0.276150
Si Si5 0.578380 0.423834 0.667836
Si Si6 0.873449 0.072419 0.989183
O O1 0.257036 0.250000 0.001855
O O2 0.323035 0.485565 0.939179
O O3 0.200070 0.509853 0.992099
O O4 0.295631 0.466738 0.115711
O O5 0.330044 0.750000 0.861339
O O6 0.394811 0.522959 0.790854
O O7 0.264337 0.529407 0.776384
O O8 0.409381 0.250000 0.724725
O O9 0.507363 0.450997 0.717396
O O10 0.401323 0.481712 0.610283
O O11 0.819656 0.250000 0.261096
O O12 0.864702 0.979592 0.237667
O O13 0.589999 0.250000 0.645358
O O14 0.578064 0.511290 0.569811
O O15 0.871194 0.250000 0.996612
#
# Coordination Sequence:
#
# PCOD8254491 Si02
#       6
#     8   8   8   8   8   8
#     4  11  22  38  60  87 118 151 193 241 289 344
#     4  11  22  38  61  89 118 151 196 242 290 345
#     4  10  23  40  58  86 121 158 198 239 289 349
#     4  10  22  39  59  86 118 152 195 243 288 345
#     4  11  23  38  59  87 120 158 197 238 292 350
#     4  11  21  35  58  87 121 154 190 239 291 347
#
# _framework density 18.886700000000001
#
# number of rings (size 3 to 8) (size 9 to 14) (size 15 to 20)
#    0.000    1.333    3.333    2.500    0.000    4.000 
#    0.000    0.833    0.000    0.000    0.000    0.000 
#    0.000    0.000    0.000    0.000    0.000    0.000 
#
# Total GULP energy -595522.194671 kJ/mol
# GULP energy per Si atom -12406.712389 kJ/mol
# Density = 1.884371 g / cm^3
# Si number density = 18.886700 Si / 1000 Ang^3
#
#
#
# Elastic Constant Matrix: (Units=GPa)
#
#
# Indices 1 2 3 4 5 6 
#
# 1 66.8028 22.0055 9.5739 0.0000 0.0000 0.0000
# 2 22.0055 66.9971 29.2658 0.0000 0.0000 0.0000
# 3 9.5739 29.2658 84.4399 0.0000 0.0000 0.0000
# 4 0.0000 0.0000 0.0000 31.3459 0.0000 0.0000
# 5 0.0000 0.0000 0.0000 0.0000 24.9651 0.0000
# 6 0.0000 0.0000 0.0000 0.0000 0.0000 30.4825
#
#
#
# Elastic Compliance Matrix: (Units=1/GPa)
#
#
# Indices 1 2 3 4 5 6 
#
# 1 0.016786 -0.005517 0.000009 0.000000 0.000000 0.000000
# 2 -0.005517 0.019402 -0.006099 0.000000 0.000000 0.000000
# 3 0.000009 -0.006099 0.013956 0.000000 0.000000 0.000000
# 4 0.000000 0.000000 0.000000 0.031902 0.000000 0.000000
# 5 0.000000 0.000000 0.000000 0.000000 0.040056 0.000000
# 6 0.000000 0.000000 0.000000 0.000000 0.000000 0.032806
#
#
# Mechanical properties :
#
#
# Convention : Reuss Voigt Hill
#
# Bulk Modulus (GPa) = 37.13469 37.77001 37.45235
# Shear Modulus (GPa) = 26.72394 27.85167 27.28780
#
# Velocity S-wave (km/s) = 3.76568 3.84431 3.80520
# Velocity P-wave (km/s) = 6.21382 6.30449 6.25932
#
# Compressibility (1/GPa) = 0.02692899
#
# Stress axis : x y z
#
# Youngs Moduli (GPa) = 59.57501 51.54002 71.65597
#
# Poissons Ratio (x) = 0.28436 -0.00065
# Poissons Ratio (y) = 0.32869 0.43703
# Poissons Ratio (z) = -0.00054 0.31435
#
# Static dielectric constant tensor:
#      x y z
#    x 3.364600 0.000000 0.000000 
#    y 0.000000 3.480850 0.000000 
#    z 0.000000 0.000000 3.556620 
# 
# 
# High freq. dielectric constant tensor:
#      x y z
#    x 1.727550 0.000000 0.000000 
#    y 0.000000 1.742280 0.000000 
#    z 0.000000 0.000000 1.738910 
# 
# From -- ./inp_files/19521.got.cif
#   From: 2010.03.12/outbox.cif.g09.slc.cpg/sg62_10_cif.got.tgz:19521.got - 2010.04.10 19:12:36.
