data_PCOD8254616
_publ_section_title
;
Structure prediction by ZEFSAII (Michael W. Deem and Ramdas Pophale) SiO2 
 PCOD8254616
Probable space group: P N M A
;
_chemical_formula_sum "Si O2"
_cell_formula_units_Z 48
_cell_length_a 8.647499
_cell_length_b 23.166204
_cell_length_c 11.199525
_cell_angle_alpha 90.000000
_cell_angle_beta 90.000000
_cell_angle_gamma 90.000000
_cell_volume 2243.597774
_symmetry_space_group_name_H-M "P N M A"
_symmetry_group_IT_number 62
_symmetry_cell_setting 'orthorhombic'
loop_
_space_group_symop_operation_xyz
x,y,z
1/2-x,-y,1/2+z
1/2+x,1/2-y,1/2-z
-x,1/2+y,-z
-x,-y,-z
1/2+x,y,1/2-z
1/2-x,1/2+y,1/2+z
x,1/2-y,z
loop_
_atom_site_type_symbol
_atom_site_label
_atom_site_fract_x
_atom_site_fract_y
_atom_site_fract_z
Si Si1 0.610443 0.014570 0.209976
Si Si2 0.944690 0.684875 0.801261
Si Si3 0.881113 0.419219 0.118164
Si Si4 0.315594 0.416727 0.641605
Si Si5 0.522985 0.897364 0.129518
Si Si6 0.875205 0.184171 0.423560
O O1 0.478474 0.041280 0.292771
O O2 0.700373 0.066478 0.144348
O O3 0.724809 0.978741 0.298168
O O4 0.547639 0.967053 0.113096
O O5 0.978747 0.750000 0.841694
O O6 0.772289 0.666254 0.840992
O O7 0.076836 0.647411 0.864831
O O8 0.970768 0.678618 0.658091
O O9 0.912631 0.430033 0.978207
O O10 0.420535 0.380283 0.736133
O O11 0.157852 0.382125 0.615535
O O12 0.618117 0.860607 0.032588
O O13 0.857759 0.250000 0.471074
#
# Coordination Sequence:
#
# PCOD8254616 Si02
#       6
#     8   8   8   8   8   8
#     4  10  22  41  62  98 132 171 216 267 322 394
#     4  10  24  43  66  98 129 168 220 272 321 380
#     4  12  23  39  67  98 130 177 218 264 337 386
#     4  10  24  42  63  94 135 172 215 266 328 389
#     4  10  23  45  63  94 132 172 213 278 316 392
#     4  10  23  45  70  94 130 171 216 272 326 386
#
# _framework density 21.394210000000001
#
# number of rings (size 3 to 8) (size 9 to 14) (size 15 to 20)
#    1.000    0.667    1.667    1.500    7.000    3.333 
#    0.000    1.667    0.000    0.000    0.000    0.000 
#    0.000    0.000    0.000    0.000    0.000    0.000 
#
# Total GULP energy -594631.864122 kJ/mol
# GULP energy per Si atom -12388.163836 kJ/mol
# Density = 2.134552 g / cm^3
# Si number density = 21.394210 Si / 1000 Ang^3
#
#
#
# Elastic Constant Matrix: (Units=GPa)
#
#
# Indices 1 2 3 4 5 6 
#
# 1 71.5432 38.6631 27.4056 0.0000 0.0000 0.0000
# 2 38.6631 95.7036 54.0792 0.0000 0.0000 0.0000
# 3 27.4056 54.0792 119.3470 0.0000 0.0000 0.0000
# 4 0.0000 0.0000 0.0000 38.5616 0.0000 0.0000
# 5 0.0000 0.0000 0.0000 0.0000 33.5127 0.0000
# 6 0.0000 0.0000 0.0000 0.0000 0.0000 26.0485
#
#
#
# Elastic Compliance Matrix: (Units=1/GPa)
#
#
# Indices 1 2 3 4 5 6 
#
# 1 0.017993 -0.006633 -0.001126 0.000000 0.000000 0.000000
# 2 -0.006633 0.016490 -0.005949 0.000000 0.000000 0.000000
# 3 -0.001126 -0.005949 0.011333 0.000000 0.000000 0.000000
# 4 0.000000 0.000000 0.000000 0.025933 0.000000 0.000000
# 5 0.000000 0.000000 0.000000 0.000000 0.029839 0.000000
# 6 0.000000 0.000000 0.000000 0.000000 0.000000 0.038390
#
#
# Mechanical properties :
#
#
# Convention : Reuss Voigt Hill
#
# Bulk Modulus (GPa) = 54.34605 58.54329 56.44467
# Shear Modulus (GPa) = 28.81375 30.72095 29.76735
#
# Velocity S-wave (km/s) = 3.67386 3.79350 3.73416
# Velocity P-wave (km/s) = 6.59194 6.82723 6.71062
#
# Compressibility (1/GPa) = 0.01840060
#
# Stress axis : x y z
#
# Youngs Moduli (GPa) = 55.57577 60.64269 88.23607
#
# Poissons Ratio (x) = 0.40222 0.09939
# Poissons Ratio (y) = 0.36861 0.52492
# Poissons Ratio (z) = 0.06260 0.36076
#
# Static dielectric constant tensor:
#      x y z
#    x 3.674240 0.000000 0.000000 
#    y 0.000000 3.738920 0.000000 
#    z 0.000000 0.000000 3.709300 
# 
# 
# High freq. dielectric constant tensor:
#      x y z
#    x 1.837500 0.000000 0.000000 
#    y 0.000000 1.822570 0.000000 
#    z 0.000000 0.000000 1.833070 
# 
# From -- ./inp_files/11323.got.cif
#   From: 2010.03.12/outbox.cif.g09.slc.cpg/sg62_6_cif.got.tgz:11323.got - 2010.04.10 19:12:36.
