data_PCOD8254451
_publ_section_title
;
Structure prediction by ZEFSAII (Michael W. Deem and Ramdas Pophale) SiO2 
 PCOD8254451
Probable space group: P N M A
;
_chemical_formula_sum "Si O2"
_cell_formula_units_Z 64
_cell_length_a 14.773767
_cell_length_b 17.490549
_cell_length_c 11.812617
_cell_angle_alpha 90.000000
_cell_angle_beta 90.000000
_cell_angle_gamma 90.000000
_cell_volume 3052.395538
_symmetry_space_group_name_H-M "P N M A"
_symmetry_group_IT_number 62
_symmetry_cell_setting 'orthorhombic'
loop_
_space_group_symop_operation_xyz
x,y,z
1/2-x,-y,1/2+z
1/2+x,1/2-y,1/2-z
-x,1/2+y,-z
-x,-y,-z
1/2+x,y,1/2-z
1/2-x,1/2+y,1/2+z
x,1/2-y,z
loop_
_atom_site_type_symbol
_atom_site_label
_atom_site_fract_x
_atom_site_fract_y
_atom_site_fract_z
Si Si1 0.691928 0.333461 0.842961
Si Si2 0.854518 0.015875 0.009415
Si Si3 0.184600 0.662610 0.849421
Si Si4 0.841063 0.461314 0.549901
Si Si5 0.124171 0.371547 0.414626
Si Si6 0.936823 0.397877 0.342222
Si Si7 0.937789 0.558021 0.215521
Si Si8 0.370782 0.092881 0.707469
O O1 0.677685 0.250000 0.787981
O O2 0.648802 0.398794 0.765599
O O3 0.800861 0.348286 0.851612
O O4 0.647603 0.330626 0.967192
O O5 0.853379 0.101990 0.059963
O O6 0.756226 0.979609 0.999715
O O7 0.919650 0.961984 0.083637
O O8 0.885004 0.020392 0.878174
O O9 0.170534 0.750000 0.891561
O O10 0.291949 0.645253 0.830126
O O11 0.133301 0.651149 0.731274
O O12 0.895701 0.539708 0.561133
O O13 0.894298 0.404883 0.467228
O O14 0.826545 0.425543 0.672853
O O15 0.029300 0.347456 0.355902
O O16 0.954260 0.481159 0.287313
O O17 0.023743 0.616375 0.226118
#
# Coordination Sequence:
#
# PCOD8254451 Si02
#       8
#     8   8   8   8   8   8   8   8
#     4  12  25  41  61  90 129 171 212 251 308 384
#     4  10  22  37  63  93 123 161 208 255 315 365
#     4  10  23  40  61  92 130 165 203 251 308 375
#     4  11  20  36  64  96 125 155 202 272 317 350
#     4  11  21  38  66  93 125 163 208 261 309 369
#     4  11  22  39  68 100 124 156 211 265 319 362
#     4  11  22  40  64  96 125 159 207 266 316 368
#     4  12  22  38  65  92 127 159 208 262 313 370
#
# _framework density 20.967137999999998
#
# number of rings (size 3 to 8) (size 9 to 14) (size 15 to 20)
#    0.000    1.000    6.250    1.875    3.500    1.500 
#    0.000    0.625    0.000    0.000    0.000    0.000 
#    0.000    0.000    0.000    0.000    0.000    0.000 
#
# Total GULP energy -793152.044345 kJ/mol
# GULP energy per Si atom -12393.000693 kJ/mol
# Density = 2.091942 g / cm^3
# Si number density = 20.967138 Si / 1000 Ang^3
#
#
#
# Elastic Constant Matrix: (Units=GPa)
#
#
# Indices 1 2 3 4 5 6 
#
# 1 115.3284 26.6192 32.4926 0.0000 0.0000 0.0000
# 2 26.6192 56.4007 -4.1006 0.0000 0.0000 0.0000
# 3 32.4926 -4.1006 97.2620 0.0000 0.0000 0.0000
# 4 0.0000 0.0000 0.0000 -4.4028 0.0000 0.0000
# 5 0.0000 0.0000 0.0000 0.0000 32.3434 0.0000
# 6 0.0000 0.0000 0.0000 0.0000 0.0000 7.0088
#
#
#
# Elastic Compliance Matrix: (Units=1/GPa)
#
#
# Indices 1 2 3 4 5 6 
#
# 1 0.011045 -0.005498 -0.003922 0.000000 0.000000 0.000000
# 2 -0.005498 0.020521 0.002702 0.000000 0.000000 0.000000
# 3 -0.003922 0.002702 0.011706 0.000000 0.000000 0.000000
# 4 0.000000 0.000000 0.000000 -0.227127 0.000000 0.000000
# 5 0.000000 0.000000 0.000000 0.000000 0.030918 0.000000
# 6 0.000000 0.000000 0.000000 0.000000 0.000000 0.142678
#
#
# Mechanical properties :
#
#
# Convention : Reuss Voigt Hill
#
# Bulk Modulus (GPa) = 33.51575 42.11262 37.81419
# Shear Modulus (GPa) = 381.07821 21.25521 201.16671
#
# Velocity S-wave (km/s) = 13.49610 3.18738 9.80572
# Velocity P-wave (km/s) = 16.08973 5.80298 12.09450
#
# Compressibility (1/GPa) = 0.02983671
#
# Stress axis : x y z
#
# Youngs Moduli (GPa) = 90.54109 48.72938 85.42991
#
# Poissons Ratio (x) = 0.26791 0.33502
# Poissons Ratio (y) = 0.49778 -0.23082
# Poissons Ratio (z) = 0.35506 -0.13166
#
# Static dielectric constant tensor:
#      x y z
#    x 4.022930 0.000000 0.000000 
#    y 0.000000 3.411050 0.000000 
#    z 0.000000 0.000000 3.803100 
# 
# 
# High freq. dielectric constant tensor:
#      x y z
#    x 1.839300 0.000000 0.000000 
#    y 0.000000 1.777460 0.000000 
#    z 0.000000 0.000000 1.822230 
# 
# From -- ./inp_files/13616.got.cif
#   From: 2010.03.12/outbox.cif.g09.slc.cpg/sg62_7_cif.got.tgz:13616.got - 2010.04.10 19:12:36.
