data_PCOD8254582
_publ_section_title
;
Structure prediction by ZEFSAII (Michael W. Deem and Ramdas Pophale) SiO2 
 PCOD8254582
Probable space group: P N M A
;
_chemical_formula_sum "Si O2"
_cell_formula_units_Z 32
_cell_length_a 9.833944
_cell_length_b 8.725374
_cell_length_c 18.230057
_cell_angle_alpha 90.000000
_cell_angle_beta 90.000000
_cell_angle_gamma 90.000000
_cell_volume 1564.227111
_symmetry_space_group_name_H-M "P N M A"
_symmetry_group_IT_number 62
_symmetry_cell_setting 'orthorhombic'
loop_
_space_group_symop_operation_xyz
x,y,z
1/2-x,-y,1/2+z
1/2+x,1/2-y,1/2-z
-x,1/2+y,-z
-x,-y,-z
1/2+x,y,1/2-z
1/2-x,1/2+y,1/2+z
x,1/2-y,z
loop_
_atom_site_type_symbol
_atom_site_label
_atom_site_fract_x
_atom_site_fract_y
_atom_site_fract_z
Si Si1 0.996936 0.573813 0.201182
Si Si2 0.105555 0.570368 0.943594
Si Si3 0.301379 0.574188 0.169257
Si Si4 0.644711 0.570040 0.983443
O O1 0.963653 0.750000 0.180744
O O2 0.939367 0.464115 0.138721
O O3 0.924039 0.527718 0.276930
O O4 0.158217 0.548563 0.210843
O O5 0.111524 0.750000 0.957239
O O6 0.253025 0.499011 0.956941
O O7 0.000000 0.500000 0.000000
O O8 0.316099 0.750000 0.143422
O O9 0.305821 0.467345 0.098419
O O10 0.639033 0.750000 0.994265
O O11 0.500000 0.500000 0.000000
#
# Coordination Sequence:
#
# PCOD8254582 Si02
#       4
#     8   8   8   8
#     4  10  22  40  64  94 130 171 213 262 321 384
#     4  12  24  42  67  96 128 169 216 266 320 380
#     4  10  22  41  64  94 131 170 213 261 320 384
#     4  12  26  44  67  96 131 170 216 271 325 382
#
# _framework density 20.457388000000002
#
# number of rings (size 3 to 8) (size 9 to 14) (size 15 to 20)
#    0.000    1.000    2.500    4.500    3.500    1.000 
#    0.000    0.000    0.000    0.000    0.000    0.000 
#    0.000    0.000    0.000    0.000    0.000    0.000 
#
# Total GULP energy -397029.350162 kJ/mol
# GULP energy per Si atom -12407.167193 kJ/mol
# Density = 2.041083 g / cm^3
# Si number density = 20.457388 Si / 1000 Ang^3
#
#
#
# Elastic Constant Matrix: (Units=GPa)
#
#
# Indices 1 2 3 4 5 6 
#
# 1 130.6805 38.8530 18.2150 0.0000 0.0000 0.0000
# 2 38.8530 138.8965 21.1330 0.0000 0.0000 0.0000
# 3 18.2150 21.1330 60.5678 0.0000 0.0000 0.0000
# 4 0.0000 0.0000 0.0000 37.5995 0.0000 0.0000
# 5 0.0000 0.0000 0.0000 0.0000 44.9916 0.0000
# 6 0.0000 0.0000 0.0000 0.0000 0.0000 31.1136
#
#
#
# Elastic Compliance Matrix: (Units=1/GPa)
#
#
# Indices 1 2 3 4 5 6 
#
# 1 0.008534 -0.002109 -0.001831 0.000000 0.000000 0.000000
# 2 -0.002109 0.008124 -0.002201 0.000000 0.000000 0.000000
# 3 -0.001831 -0.002201 0.017829 0.000000 0.000000 0.000000
# 4 0.000000 0.000000 0.000000 0.026596 0.000000 0.000000
# 5 0.000000 0.000000 0.000000 0.000000 0.022226 0.000000
# 6 0.000000 0.000000 0.000000 0.000000 0.000000 0.032140
#
#
# Mechanical properties :
#
#
# Convention : Reuss Voigt Hill
#
# Bulk Modulus (GPa) = 45.03020 54.06077 49.54548
# Shear Modulus (GPa) = 37.00062 39.53719 38.26890
#
# Velocity S-wave (km/s) = 4.25746 4.40097 4.32981
# Velocity P-wave (km/s) = 6.79907 7.23244 7.01910
#
# Compressibility (1/GPa) = 0.02220732
#
# Stress axis : x y z
#
# Youngs Moduli (GPa) = 117.17279 123.08784 56.08898
#
# Poissons Ratio (x) = 0.25956 0.10269
# Poissons Ratio (y) = 0.24709 0.12342
# Poissons Ratio (z) = 0.21453 0.27085
#
# Static dielectric constant tensor:
#      x y z
#    x 4.033020 0.000000 0.000000 
#    y 0.000000 3.756100 0.000000 
#    z 0.000000 0.000000 3.895440 
# 
# 
# High freq. dielectric constant tensor:
#      x y z
#    x 1.820190 0.000000 0.000000 
#    y 0.000000 1.798990 0.000000 
#    z 0.000000 0.000000 1.797000 
# 
# From -- ./inp_files/22734.got.cif
#   From: 2010.03.12/outbox.cif.g09.slc.cpg/sg62_12_cif.got.tgz:22734.got - 2010.04.10 19:12:36.
