data_PCOD8254706
_publ_section_title
;
Structure prediction by ZEFSAII (Michael W. Deem and Ramdas Pophale) SiO2 
 PCOD8254706
Probable space group: P N M A
;
_chemical_formula_sum "Si O2"
_cell_formula_units_Z 52
_cell_length_a 17.787304
_cell_length_b 19.001270
_cell_length_c 7.049433
_cell_angle_alpha 90.000000
_cell_angle_beta 90.000000
_cell_angle_gamma 90.000000
_cell_volume 2382.576994
_symmetry_space_group_name_H-M "P N M A"
_symmetry_group_IT_number 62
_symmetry_cell_setting 'orthorhombic'
loop_
_space_group_symop_operation_xyz
x,y,z
1/2-x,-y,1/2+z
1/2+x,1/2-y,1/2-z
-x,1/2+y,-z
-x,-y,-z
1/2+x,y,1/2-z
1/2-x,1/2+y,1/2+z
x,1/2-y,z
loop_
_atom_site_type_symbol
_atom_site_label
_atom_site_fract_x
_atom_site_fract_y
_atom_site_fract_z
Si Si1 0.874912 0.750000 0.740053
Si Si2 0.600103 0.250000 0.689250
Si Si3 0.720094 0.380378 0.287638
Si Si4 0.924606 0.483933 0.109433
Si Si5 0.019780 0.750000 0.478499
Si Si6 0.116088 0.882897 0.584649
Si Si7 0.682541 0.964949 0.262161
Si Si8 0.331490 0.892749 0.289380
O O1 0.825545 0.681437 0.681154
O O2 0.952312 0.750000 0.627965
O O3 0.897093 0.750000 0.962500
O O4 0.641695 0.316918 0.784480
O O5 0.513926 0.250000 0.764536
O O6 0.807477 0.359651 0.308383
O O7 0.708930 0.457270 0.191879
O O8 0.682830 0.387236 0.489967
O O9 0.936779 0.421088 0.259822
O O10 0.898340 0.550635 0.235299
O O11 0.862503 0.462862 0.956327
O O12 0.000000 0.500000 0.000000
O O13 0.072398 0.816932 0.503340
O O14 0.134235 0.934185 0.409928
O O15 0.755271 0.917325 0.313395
#
# Coordination Sequence:
#
# PCOD8254706 Si02
#       8
#     4   4   8   8   4   8   8   8
#     4  10  23  43  69  89 139 172 221 275 326 403
#     4  10  24  44  66  90 138 177 218 267 336 397
#     4   9  19  42  69  96 120 176 219 278 329 376
#     4  11  25  40  66 101 132 173 217 269 348 389
#     4  12  29  41  61 105 133 181 219 258 346 412
#     4  11  25  43  66  96 139 169 222 283 324 401
#     4  10  22  42  70 101 126 169 230 279 330 395
#     4   9  20  42  69  96 125 170 226 270 320 405
#
# _framework density 21.825109000000001
#
# number of rings (size 3 to 8) (size 9 to 14) (size 15 to 20)
#    0.000    1.846    1.538    0.462    8.615    4.923 
#    0.000    0.769    0.000    1.846    0.000    0.000 
#    0.000    0.000    0.000    0.000    0.000    0.000 
#
# Total GULP energy -644708.047446 kJ/mol
# GULP energy per Si atom -12398.231682 kJ/mol
# Density = 2.177543 g / cm^3
# Si number density = 21.825109 Si / 1000 Ang^3
#
#
#
# Elastic Constant Matrix: (Units=GPa)
#
#
# Indices 1 2 3 4 5 6 
#
# 1 99.1165 69.6222 22.4078 0.0000 0.0000 0.0000
# 2 69.6222 155.7117 33.6241 0.0000 0.0000 0.0000
# 3 22.4078 33.6241 54.4281 0.0000 0.0000 0.0000
# 4 0.0000 0.0000 0.0000 21.5211 0.0000 0.0000
# 5 0.0000 0.0000 0.0000 0.0000 38.9355 0.0000
# 6 0.0000 0.0000 0.0000 0.0000 0.0000 24.2079
#
#
#
# Elastic Compliance Matrix: (Units=1/GPa)
#
#
# Indices 1 2 3 4 5 6 
#
# 1 0.014962 -0.006185 -0.002339 0.000000 0.000000 0.000000
# 2 -0.006185 0.009967 -0.003611 0.000000 0.000000 0.000000
# 3 -0.002339 -0.003611 0.021567 0.000000 0.000000 0.000000
# 4 0.000000 0.000000 0.000000 0.046466 0.000000 0.000000
# 5 0.000000 0.000000 0.000000 0.000000 0.025684 0.000000
# 6 0.000000 0.000000 0.000000 0.000000 0.000000 0.041309
#
#
# Mechanical properties :
#
#
# Convention : Reuss Voigt Hill
#
# Bulk Modulus (GPa) = 44.99225 62.28493 53.63859
# Shear Modulus (GPa) = 26.09139 29.17305 27.63222
#
# Velocity S-wave (km/s) = 3.46132 3.66002 3.56205
# Velocity P-wave (km/s) = 6.05260 6.81624 6.44574
#
# Compressibility (1/GPa) = 0.02222605
#
# Stress axis : x y z
#
# Youngs Moduli (GPa) = 66.83418 100.32760 46.36761
#
# Poissons Ratio (x) = 0.62052 0.10846
# Poissons Ratio (y) = 0.41336 0.16744
# Poissons Ratio (z) = 0.15633 0.36231
#
# Static dielectric constant tensor:
#      x y z
#    x 4.022950 0.000000 0.000000 
#    y 0.000000 4.550800 0.000000 
#    z 0.000000 0.000000 3.026150 
# 
# 
# High freq. dielectric constant tensor:
#      x y z
#    x 1.855630 0.000000 0.000000 
#    y 0.000000 1.865700 0.000000 
#    z 0.000000 0.000000 1.857500 
# 
# From -- ./inp_files/7947.got.cif
#   From: 2010.03.12/outbox.cif.g09.slc.cpg/sg62_4_cif.got.tgz:7947.got - 2010.04.10 19:12:36.
