data_PCOD8254431
_publ_section_title
;
Structure prediction by ZEFSAII (Michael W. Deem and Ramdas Pophale) SiO2 
 PCOD8254431
Probable space group: P N M A
;
_chemical_formula_sum "Si O2"
_cell_formula_units_Z 64
_cell_length_a 11.558904
_cell_length_b 9.359721
_cell_length_c 33.199866
_cell_angle_alpha 90.000000
_cell_angle_beta 90.000000
_cell_angle_gamma 90.000000
_cell_volume 3591.830971
_symmetry_space_group_name_H-M "P N M A"
_symmetry_group_IT_number 62
_symmetry_cell_setting 'orthorhombic'
loop_
_space_group_symop_operation_xyz
x,y,z
1/2-x,-y,1/2+z
1/2+x,1/2-y,1/2-z
-x,1/2+y,-z
-x,-y,-z
1/2+x,y,1/2-z
1/2-x,1/2+y,1/2+z
x,1/2-y,z
loop_
_atom_site_type_symbol
_atom_site_label
_atom_site_fract_x
_atom_site_fract_y
_atom_site_fract_z
Si Si1 0.773896 0.082695 0.868336
Si Si2 0.813324 0.917462 0.598523
Si Si3 0.580333 0.917007 0.444728
Si Si4 0.098927 0.410555 0.279758
Si Si5 0.358558 0.415714 0.466863
Si Si6 0.462240 0.083729 0.139194
Si Si7 0.171054 0.586540 0.826996
Si Si8 0.950576 0.417911 0.798890
O O1 0.749776 0.250000 0.871857
O O2 0.844020 0.028000 0.907432
O O3 0.844774 0.044013 0.828340
O O4 0.652803 0.004221 0.867146
O O5 0.820998 0.750000 0.607392
O O6 0.764993 0.954138 0.553941
O O7 0.943603 0.974343 0.606169
O O8 0.722813 0.976657 0.631441
O O9 0.553444 0.750000 0.440929
O O10 0.649807 0.953155 0.485924
O O11 0.458373 0.996800 0.444598
O O12 0.074265 0.250000 0.263877
O O13 0.013579 0.445099 0.316629
O O14 0.231974 0.423858 0.292570
O O15 0.076473 0.523703 0.245088
O O16 0.388013 0.250000 0.460204
O O17 0.433658 0.250000 0.132923
O O18 0.128074 0.750000 0.831533
O O19 0.065798 0.486468 0.815967
O O20 0.970452 0.250000 0.795977
#
# Coordination Sequence:
#
# PCOD8254431 Si02
#       8
#     8   8   8   8   8   8   8   8
#     4  10  22  37  49  70 107 143 169 200 250 308
#     4   8  15  31  54  78  99 124 166 215 257 294
#     4   9  18  32  49  74 109 141 167 204 253 302
#     4   9  20  37  54  73  96 125 165 210 255 298
#     4   9  16  29  54  80 102 132 170 212 255 299
#     4   9  19  36  56  74  96 130 170 213 254 297
#     4   9  18  34  54  74  98 125 160 209 255 299
#     4  11  23  34  49  73 101 132 165 205 250 300
#
# _framework density 17.818211999999999
#
# number of rings (size 3 to 8) (size 9 to 14) (size 15 to 20)
#    0.000    2.750    0.000    2.625    1.750    2.500 
#    0.000    3.125    0.000    0.000    0.000    0.000 
#    0.000    0.000    0.000    0.000    0.000    0.000 
#
# Total GULP energy -793459.053363 kJ/mol
# GULP energy per Si atom -12397.797709 kJ/mol
# Density = 1.777766 g / cm^3
# Si number density = 17.818212 Si / 1000 Ang^3
#
#
#
# Elastic Constant Matrix: (Units=GPa)
#
#
# Indices 1 2 3 4 5 6 
#
# 1 110.7107 49.0138 45.0768 0.0000 0.0000 0.0000
# 2 49.0138 54.4489 34.8898 0.0000 0.0000 0.0000
# 3 45.0768 34.8898 74.4114 0.0000 0.0000 0.0000
# 4 0.0000 0.0000 0.0000 21.2746 0.0000 0.0000
# 5 0.0000 0.0000 0.0000 0.0000 18.1433 0.0000
# 6 0.0000 0.0000 0.0000 0.0000 0.0000 24.6116
#
#
#
# Elastic Compliance Matrix: (Units=1/GPa)
#
#
# Indices 1 2 3 4 5 6 
#
# 1 0.015873 -0.011618 -0.004168 0.000000 0.000000 0.000000
# 2 -0.011618 0.034757 -0.009259 0.000000 0.000000 0.000000
# 3 -0.004168 -0.009259 0.020305 0.000000 0.000000 0.000000
# 4 0.000000 0.000000 0.000000 0.047004 0.000000 0.000000
# 5 0.000000 0.000000 0.000000 0.000000 0.055117 0.000000
# 6 0.000000 0.000000 0.000000 0.000000 0.000000 0.040631
#
#
# Mechanical properties :
#
#
# Convention : Reuss Voigt Hill
#
# Bulk Modulus (GPa) = 47.97263 55.28130 51.62696
# Shear Modulus (GPa) = 18.46890 20.17863 19.32377
#
# Velocity S-wave (km/s) = 3.22299 3.36887 3.29674
# Velocity P-wave (km/s) = 6.39000 6.79889 6.59761
#
# Compressibility (1/GPa) = 0.02084522
#
# Stress axis : x y z
#
# Youngs Moduli (GPa) = 62.99985 28.77141 49.24850
#
# Poissons Ratio (x) = 0.33426 0.20528
# Poissons Ratio (y) = 0.73191 0.45599
# Poissons Ratio (z) = 0.26260 0.26639
#
# Static dielectric constant tensor:
#      x y z
#    x 3.267630 0.000000 0.000000 
#    y 0.000000 3.145620 0.000000 
#    z 0.000000 0.000000 3.437150 
# 
# 
# High freq. dielectric constant tensor:
#      x y z
#    x 1.687930 0.000000 0.000000 
#    y 0.000000 1.674010 0.000000 
#    z 0.000000 0.000000 1.693390 
# 
# From -- ./inp_files/32483.got.cif
#   From: 2010.03.12/outbox.cif.g09.slc.cpg/sg62_17_cif.got.tgz:32483.got - 2010.04.10 19:12:36.
