data_PCOD8254402
_publ_section_title
;
Structure prediction by ZEFSAII (Michael W. Deem and Ramdas Pophale) SiO2 
 PCOD8254402
Probable space group: P N M A
;
_chemical_formula_sum "Si O2"
_cell_formula_units_Z 48
_cell_length_a 18.402941
_cell_length_b 13.978968
_cell_length_c 8.380380
_cell_angle_alpha 90.000000
_cell_angle_beta 90.000000
_cell_angle_gamma 90.000000
_cell_volume 2155.887310
_symmetry_space_group_name_H-M "P N M A"
_symmetry_group_IT_number 62
_symmetry_cell_setting 'orthorhombic'
loop_
_space_group_symop_operation_xyz
x,y,z
1/2-x,-y,1/2+z
1/2+x,1/2-y,1/2-z
-x,1/2+y,-z
-x,-y,-z
1/2+x,y,1/2-z
1/2-x,1/2+y,1/2+z
x,1/2-y,z
loop_
_atom_site_type_symbol
_atom_site_label
_atom_site_fract_x
_atom_site_fract_y
_atom_site_fract_z
Si Si1 0.102070 0.053585 0.076345
Si Si2 0.629228 0.250000 0.009846
Si Si3 0.322901 0.750000 0.637982
Si Si4 0.311100 0.250000 0.914740
Si Si5 0.653488 0.454960 0.918866
Si Si6 0.523076 0.750000 0.112697
Si Si7 0.016173 0.046665 0.750885
Si Si8 0.710886 0.950572 0.235166
O O1 0.134173 0.158737 0.077214
O O2 0.165981 0.975679 0.103625
O O3 0.064221 0.042958 0.909106
O O4 0.046990 0.031808 0.225050
O O5 0.653838 0.340553 0.908492
O O6 0.540140 0.250000 0.023418
O O7 0.674382 0.250000 0.172414
O O8 0.239616 0.750000 0.573204
O O9 0.396318 0.250000 0.966779
O O10 0.293218 0.339471 0.803535
O O11 0.570545 0.490835 0.888933
O O12 0.707131 0.485434 0.774840
O O13 0.679743 0.488708 0.089768
O O14 0.515330 0.846362 0.220790
#
# Coordination Sequence:
#
# PCOD8254402 Si02
#       8
#     8   4   4   4   8   4   8   8
#     4  11  23  42  69  96 135 172 222 273 331 395
#     4  10  23  41  69  93 131 168 224 269 330 403
#     4  12  23  43  63  99 134 176 213 275 335 387
#     4  12  25  41  65  94 136 171 221 271 333 399
#     4  11  23  41  66  96 129 175 219 274 332 399
#     4  10  21  43  69 100 131 179 224 269 336 401
#     4  10  22  42  68  99 133 174 219 274 332 397
#     4  12  24  41  67  96 131 173 223 273 331 397
#
# _framework density 22.264614999999999
#
# number of rings (size 3 to 8) (size 9 to 14) (size 15 to 20)
#    0.000    1.000    3.333    4.000    0.000    3.333 
#    0.000    0.000    0.000    0.000    0.000    0.000 
#    0.000    0.000    0.000    0.000    0.000    0.000 
#
# Total GULP energy -594856.756380 kJ/mol
# GULP energy per Si atom -12392.849091 kJ/mol
# Density = 2.221394 g / cm^3
# Si number density = 22.264615 Si / 1000 Ang^3
#
#
#
# Elastic Constant Matrix: (Units=GPa)
#
#
# Indices 1 2 3 4 5 6 
#
# 1 160.1933 46.5858 38.4544 0.0000 0.0000 0.0000
# 2 46.5858 99.9638 19.4855 0.0000 0.0000 0.0000
# 3 38.4544 19.4855 50.1625 0.0000 0.0000 0.0000
# 4 0.0000 0.0000 0.0000 34.6806 0.0000 0.0000
# 5 0.0000 0.0000 0.0000 0.0000 49.9188 0.0000
# 6 0.0000 0.0000 0.0000 0.0000 0.0000 31.7045
#
#
#
# Elastic Compliance Matrix: (Units=1/GPa)
#
#
# Indices 1 2 3 4 5 6 
#
# 1 0.008342 -0.002857 -0.005285 0.000000 0.000000 0.000000
# 2 -0.002857 0.011802 -0.002394 0.000000 0.000000 0.000000
# 3 -0.005285 -0.002394 0.024917 0.000000 0.000000 0.000000
# 4 0.000000 0.000000 0.000000 0.028835 0.000000 0.000000
# 5 0.000000 0.000000 0.000000 0.000000 0.020033 0.000000
# 6 0.000000 0.000000 0.000000 0.000000 0.000000 0.031541
#
#
# Mechanical properties :
#
#
# Convention : Reuss Voigt Hill
#
# Bulk Modulus (GPa) = 41.68786 57.70789 49.69788
# Shear Modulus (GPa) = 32.35455 36.98037 34.66746
#
# Velocity S-wave (km/s) = 3.81620 4.07989 3.95025
# Velocity P-wave (km/s) = 6.17918 6.94042 6.57083
#
# Compressibility (1/GPa) = 0.02398780
#
# Stress axis : x y z
#
# Youngs Moduli (GPa) = 119.87366 84.73208 40.13388
#
# Poissons Ratio (x) = 0.24212 0.21211
# Poissons Ratio (y) = 0.34253 0.09608
# Poissons Ratio (z) = 0.63354 0.20284
#
# Static dielectric constant tensor:
#      x y z
#    x 4.658610 0.000000 0.000000 
#    y 0.000000 4.245960 0.000000 
#    z 0.000000 0.000000 3.924230 
# 
# 
# High freq. dielectric constant tensor:
#      x y z
#    x 1.902960 0.000000 0.000000 
#    y 0.000000 1.875220 0.000000 
#    z 0.000000 0.000000 1.866800 
# 
# From -- ./inp_files/7734.got.cif
#   From: 2010.03.12/outbox.cif.g09.slc.cpg/sg62_4_cif.got.tgz:7734.got - 2010.04.10 19:12:36.
