data_PCOD8254798
_publ_section_title
;
Structure prediction by ZEFSAII (Michael W. Deem and Ramdas Pophale) SiO2 
 PCOD8254798
Probable space group: P N M A
;
_chemical_formula_sum "Si O2"
_cell_formula_units_Z 40
_cell_length_a 10.102572
_cell_length_b 9.677964
_cell_length_c 18.055228
_cell_angle_alpha 90.000000
_cell_angle_beta 90.000000
_cell_angle_gamma 90.000000
_cell_volume 1765.301676
_symmetry_space_group_name_H-M "P N M A"
_symmetry_group_IT_number 62
_symmetry_cell_setting 'orthorhombic'
loop_
_space_group_symop_operation_xyz
x,y,z
1/2-x,-y,1/2+z
1/2+x,1/2-y,1/2-z
-x,1/2+y,-z
-x,-y,-z
1/2+x,y,1/2-z
1/2-x,1/2+y,1/2+z
x,1/2-y,z
loop_
_atom_site_type_symbol
_atom_site_label
_atom_site_fract_x
_atom_site_fract_y
_atom_site_fract_z
Si Si1 0.383729 0.599409 0.670468
Si Si2 0.862395 0.499131 0.240146
Si Si3 0.256956 0.907924 0.409827
Si Si4 0.032709 0.094985 0.610791
Si Si5 0.800674 0.416169 0.957317
O O1 0.365641 0.750000 0.632506
O O2 0.521983 0.604268 0.714478
O O3 0.264051 0.581871 0.728573
O O4 0.390107 0.477603 0.608963
O O5 0.820526 0.593718 0.171254
O O6 0.924673 0.594974 0.303559
O O7 0.259990 0.750000 0.439330
O O8 0.109245 0.975536 0.403461
O O9 0.338254 0.009411 0.465334
O O10 0.012177 0.250000 0.585356
O O11 0.150342 0.032987 0.560493
O O12 0.819556 0.250000 0.961040
#
# Coordination Sequence:
#
# PCOD8254798 Si02
#       5
#     8   8   8   8   8
#     4  11  24  43  67  95 130 169 214 265 321 384
#     4  11  22  41  65  98 130 167 212 265 322 381
#     4  11  22  39  66  96 130 171 216 263 320 382
#     4   9  19  38  62  94 128 169 216 262 315 379
#     4  10  23  41  64  93 132 172 215 266 319 379
#
# _framework density 22.659019000000001
#
# number of rings (size 3 to 8) (size 9 to 14) (size 15 to 20)
#    0.000    1.600    2.000    2.400    0.000    4.800 
#    0.000    1.000    0.000    0.000    0.000    0.000 
#    0.000    0.000    0.000    0.000    0.000    0.000 
#
# Total GULP energy -495742.288610 kJ/mol
# GULP energy per Si atom -12393.557215 kJ/mol
# Density = 2.260745 g / cm^3
# Si number density = 22.659019 Si / 1000 Ang^3
#
#
#
# Elastic Constant Matrix: (Units=GPa)
#
#
# Indices 1 2 3 4 5 6 
#
# 1 60.1713 14.2825 11.7158 0.0000 0.0000 0.0000
# 2 14.2825 125.2272 43.7465 0.0000 0.0000 0.0000
# 3 11.7158 43.7465 124.1017 0.0000 0.0000 0.0000
# 4 0.0000 0.0000 0.0000 33.3635 0.0000 0.0000
# 5 0.0000 0.0000 0.0000 0.0000 25.1070 0.0000
# 6 0.0000 0.0000 0.0000 0.0000 0.0000 11.3521
#
#
#
# Elastic Compliance Matrix: (Units=1/GPa)
#
#
# Indices 1 2 3 4 5 6 
#
# 1 0.017204 -0.001591 -0.001063 0.000000 0.000000 0.000000
# 2 -0.001591 0.009254 -0.003112 0.000000 0.000000 0.000000
# 3 -0.001063 -0.003112 0.009255 0.000000 0.000000 0.000000
# 4 0.000000 0.000000 0.000000 0.029973 0.000000 0.000000
# 5 0.000000 0.000000 0.000000 0.000000 0.039830 0.000000
# 6 0.000000 0.000000 0.000000 0.000000 0.000000 0.088089
#
#
# Mechanical properties :
#
#
# Convention : Reuss Voigt Hill
#
# Bulk Modulus (GPa) = 41.35457 49.88778 45.62118
# Shear Modulus (GPa) = 23.45248 29.94823 26.70036
#
# Velocity S-wave (km/s) = 3.22066 3.63945 3.43644
# Velocity P-wave (km/s) = 5.66751 6.30280 5.99358
#
# Compressibility (1/GPa) = 0.02418112
#
# Stress axis : x y z
#
# Youngs Moduli (GPa) = 58.12661 108.06124 108.04662
#
# Poissons Ratio (x) = 0.17189 0.11490
# Poissons Ratio (y) = 0.09246 0.33623
# Poissons Ratio (z) = 0.06181 0.33628
#
# Static dielectric constant tensor:
#      x y z
#    x 4.447850 0.000000 0.000000 
#    y 0.000000 3.610230 0.000000 
#    z 0.000000 0.000000 3.944270 
# 
# 
# High freq. dielectric constant tensor:
#      x y z
#    x 1.907240 0.000000 0.000000 
#    y 0.000000 1.867840 0.000000 
#    z 0.000000 0.000000 1.893520 
# 
# From -- ./inp_files/22792.got.cif
#   From: 2010.03.12/outbox.cif.g09.slc.cpg/sg62_12_cif.got.tgz:22792.got - 2010.04.10 19:12:36.
