data_PCOD8254752
_publ_section_title
;
Structure prediction by ZEFSAII (Michael W. Deem and Ramdas Pophale) SiO2 
 PCOD8254752
Probable space group: P N M A
;
_chemical_formula_sum "Si O2"
_cell_formula_units_Z 40
_cell_length_a 14.391360
_cell_length_b 13.601091
_cell_length_c 8.999995
_cell_angle_alpha 90.000000
_cell_angle_beta 90.000000
_cell_angle_gamma 90.000000
_cell_volume 1761.642794
_symmetry_space_group_name_H-M "P N M A"
_symmetry_group_IT_number 62
_symmetry_cell_setting 'orthorhombic'
loop_
_space_group_symop_operation_xyz
x,y,z
1/2-x,-y,1/2+z
1/2+x,1/2-y,1/2-z
-x,1/2+y,-z
-x,-y,-z
1/2+x,y,1/2-z
1/2-x,1/2+y,1/2+z
x,1/2-y,z
loop_
_atom_site_type_symbol
_atom_site_label
_atom_site_fract_x
_atom_site_fract_y
_atom_site_fract_z
Si Si1 0.248290 0.960965 0.465399
Si Si2 0.928203 0.860120 0.137320
Si Si3 0.499744 0.141287 0.321490
Si Si4 0.215770 0.634610 0.778427
Si Si5 0.946659 0.466364 0.642963
O O1 0.335347 0.924143 0.369467
O O2 0.257618 0.925183 0.635904
O O3 0.152349 0.918349 0.397739
O O4 0.249164 0.079714 0.430778
O O5 0.892609 0.750000 0.150118
O O6 0.989663 0.885401 0.279329
O O7 0.995742 0.876917 0.997337
O O8 0.536840 0.250000 0.281058
O O9 0.395096 0.127357 0.266825
O O10 0.567738 0.062881 0.245307
O O11 0.246831 0.750000 0.778822
O O12 0.000000 0.500000 0.500000
#
# Coordination Sequence:
#
# PCOD8254752 Si02
#       5
#     8   8   8   8   8
#     4  12  24  44  74 101 143 188 232 292 359 422
#     4  11  25  44  68 101 138 188 240 289 350 425
#     4  10  22  44  71  97 134 183 233 288 352 419
#     4  11  25  45  71 106 141 184 238 292 355 424
#     4  12  24  42  67 102 138 181 232 290 352 414
#
# _framework density 22.706078999999999
#
# number of rings (size 3 to 8) (size 9 to 14) (size 15 to 20)
#    0.000    0.800    4.000    2.400    2.800    4.800 
#    0.000    4.000    0.000    0.000    0.000    0.000 
#    0.000    0.000    0.000    0.000    0.000    0.000 
#
# Total GULP energy -495869.713930 kJ/mol
# GULP energy per Si atom -12396.742848 kJ/mol
# Density = 2.265440 g / cm^3
# Si number density = 22.706079 Si / 1000 Ang^3
#
#
#
# Elastic Constant Matrix: (Units=GPa)
#
#
# Indices 1 2 3 4 5 6 
#
# 1 94.0808 16.8749 19.3332 0.0000 0.0000 0.0000
# 2 16.8749 136.6487 53.8247 0.0000 0.0000 0.0000
# 3 19.3332 53.8247 98.1576 0.0000 0.0000 0.0000
# 4 0.0000 0.0000 0.0000 31.7047 0.0000 0.0000
# 5 0.0000 0.0000 0.0000 0.0000 37.3833 0.0000
# 6 0.0000 0.0000 0.0000 0.0000 0.0000 14.2619
#
#
#
# Elastic Compliance Matrix: (Units=1/GPa)
#
#
# Indices 1 2 3 4 5 6 
#
# 1 0.011123 -0.000651 -0.001834 0.000000 0.000000 0.000000
# 2 -0.000651 0.009372 -0.005011 0.000000 0.000000 0.000000
# 3 -0.001834 -0.005011 0.013297 0.000000 0.000000 0.000000
# 4 0.000000 0.000000 0.000000 0.031541 0.000000 0.000000
# 5 0.000000 0.000000 0.000000 0.000000 0.026750 0.000000
# 6 0.000000 0.000000 0.000000 0.000000 0.000000 0.070117
#
#
# Mechanical properties :
#
#
# Convention : Reuss Voigt Hill
#
# Bulk Modulus (GPa) = 53.19196 56.55029 54.87112
# Shear Modulus (GPa) = 27.25419 32.59360 29.92389
#
# Velocity S-wave (km/s) = 3.46830 3.79285 3.63420
# Velocity P-wave (km/s) = 6.28617 6.64382 6.46747
#
# Compressibility (1/GPa) = 0.01879983
#
# Stress axis : x y z
#
# Youngs Moduli (GPa) = 89.90560 106.69796 75.20713
#
# Poissons Ratio (x) = 0.06950 0.13790
# Poissons Ratio (y) = 0.05856 0.37686
# Poissons Ratio (z) = 0.16485 0.53466
#
# Static dielectric constant tensor:
#      x y z
#    x 4.454750 0.000000 0.000000 
#    y 0.000000 4.383910 0.000000 
#    z 0.000000 0.000000 5.090410 
# 
# 
# High freq. dielectric constant tensor:
#      x y z
#    x 1.911010 0.000000 0.000000 
#    y 0.000000 1.895170 0.000000 
#    z 0.000000 0.000000 1.888320 
# 
# From -- ./inp_files/6105.got.cif
#   From: 2010.03.12/outbox.cif.g09.slc.cpg/sg62_4_cif.got.tgz:6105.got - 2010.04.10 19:12:36.
