data_PCOD8254178
_publ_section_title
;
Structure prediction by ZEFSAII (Michael W. Deem and Ramdas Pophale) SiO2 
 PCOD8254178
Probable space group: P N M A
;
_chemical_formula_sum "Si O2"
_cell_formula_units_Z 48
_cell_length_a 18.910156
_cell_length_b 8.730292
_cell_length_c 14.949918
_cell_angle_alpha 90.000000
_cell_angle_beta 90.000000
_cell_angle_gamma 90.000000
_cell_volume 2468.099658
_symmetry_space_group_name_H-M "P N M A"
_symmetry_group_IT_number 62
_symmetry_cell_setting 'orthorhombic'
loop_
_space_group_symop_operation_xyz
x,y,z
1/2-x,-y,1/2+z
1/2+x,1/2-y,1/2-z
-x,1/2+y,-z
-x,-y,-z
1/2+x,y,1/2-z
1/2-x,1/2+y,1/2+z
x,1/2-y,z
loop_
_atom_site_type_symbol
_atom_site_label
_atom_site_fract_x
_atom_site_fract_y
_atom_site_fract_z
Si Si1 0.168304 0.429505 0.374374
Si Si2 0.434121 0.075356 0.225906
Si Si3 0.168241 0.926804 0.884889
Si Si4 0.075167 0.927838 0.521695
Si Si5 0.577608 0.571065 0.280228
Si Si6 0.073505 0.070743 0.030724
O O1 0.154140 0.250000 0.362316
O O2 0.250457 0.471060 0.374417
O O3 0.135643 0.484571 0.467723
O O4 0.133670 0.518863 0.292843
O O5 0.460466 0.250000 0.239021
O O6 0.369455 0.036178 0.291058
O O7 0.406629 0.049249 0.125683
O O8 0.498865 0.964400 0.246821
O O9 0.158448 0.750000 0.911702
O O10 0.135560 0.029615 0.962581
O O11 0.074002 0.750000 0.494146
O O12 0.000000 0.000000 0.500000
O O13 0.584623 0.750000 0.296736
O O14 0.595711 0.486488 0.371970
O O15 0.062470 0.250000 0.033875
O O16 0.000000 0.000000 0.000000
#
# Coordination Sequence:
#
# PCOD8254178 Si02
#       6
#     8   8   8   8   8   8
#     4  11  24  42  63  92 131 170 207 261 321 373
#     4  10  21  39  64  90 121 162 210 262 312 368
#     4  10  23  43  65  92 128 167 210 260 315 373
#     4  11  22  37  62  93 125 164 212 262 312 375
#     4  12  24  39  64  95 125 165 214 261 310 373
#     4  12  24  40  65  95 128 166 211 260 313 375
#
# _framework density 19.448162
#
# number of rings (size 3 to 8) (size 9 to 14) (size 15 to 20)
#    0.000    1.000    3.333    4.000    0.000    3.333 
#    0.000    1.667    0.000    0.000    0.000    0.000 
#    0.000    0.000    0.000    0.000    0.000    0.000 
#
# Total GULP energy -595530.320029 kJ/mol
# GULP energy per Si atom -12406.881667 kJ/mol
# Density = 1.940390 g / cm^3
# Si number density = 19.448162 Si / 1000 Ang^3
#
#
#
# Elastic Constant Matrix: (Units=GPa)
#
#
# Indices 1 2 3 4 5 6 
#
# 1 141.4280 60.7864 64.3033 0.0000 0.0000 0.0000
# 2 60.7864 124.0373 50.2105 0.0000 0.0000 0.0000
# 3 64.3033 50.2105 144.2070 0.0000 0.0000 0.0000
# 4 0.0000 0.0000 0.0000 36.4665 0.0000 0.0000
# 5 0.0000 0.0000 0.0000 0.0000 31.9718 0.0000
# 6 0.0000 0.0000 0.0000 0.0000 0.0000 27.0680
#
#
#
# Elastic Compliance Matrix: (Units=1/GPa)
#
#
# Indices 1 2 3 4 5 6 
#
# 1 0.010109 -0.003643 -0.003239 0.000000 0.000000 0.000000
# 2 -0.003643 0.010698 -0.002100 0.000000 0.000000 0.000000
# 3 -0.003239 -0.002100 0.009110 0.000000 0.000000 0.000000
# 4 0.000000 0.000000 0.000000 0.027422 0.000000 0.000000
# 5 0.000000 0.000000 0.000000 0.000000 0.031278 0.000000
# 6 0.000000 0.000000 0.000000 0.000000 0.000000 0.036944
#
#
# Mechanical properties :
#
#
# Convention : Reuss Voigt Hill
#
# Bulk Modulus (GPa) = 83.66908 84.47474 84.07191
# Shear Modulus (GPa) = 33.89589 34.72606 34.31098
#
# Velocity S-wave (km/s) = 4.17932 4.23019 4.20483
# Velocity P-wave (km/s) = 8.14886 8.20911 8.17904
#
# Compressibility (1/GPa) = 0.01195185
#
# Stress axis : x y z
#
# Youngs Moduli (GPa) = 98.91815 93.47927 109.76612
#
# Poissons Ratio (x) = 0.34054 0.35558
# Poissons Ratio (y) = 0.36035 0.23054
# Poissons Ratio (z) = 0.32044 0.19634
#
# Static dielectric constant tensor:
#      x y z
#    x 2.442260 0.000000 0.000000 
#    y 0.000000 3.300320 0.000000 
#    z 0.000000 0.000000 5.777820 
# 
# 
# High freq. dielectric constant tensor:
#      x y z
#    x 1.752980 0.000000 0.000000 
#    y 0.000000 1.767110 0.000000 
#    z 0.000000 0.000000 1.776370 
# 
# From -- ./inp_files/19576.got.cif
#   From: 2010.03.12/outbox.cif.g09.slc.cpg/sg62_10_cif.got.tgz:19576.got - 2010.04.10 19:12:36.
