data_PCOD8254768
_publ_section_title
;
Structure prediction by ZEFSAII (Michael W. Deem and Ramdas Pophale) SiO2 
 PCOD8254768
Probable space group: P N M A
;
_chemical_formula_sum "Si O2"
_cell_formula_units_Z 48
_cell_length_a 20.352926
_cell_length_b 19.261174
_cell_length_c 5.215111
_cell_angle_alpha 90.000000
_cell_angle_beta 90.000000
_cell_angle_gamma 90.000000
_cell_volume 2044.434328
_symmetry_space_group_name_H-M "P N M A"
_symmetry_group_IT_number 62
_symmetry_cell_setting 'orthorhombic'
loop_
_space_group_symop_operation_xyz
x,y,z
1/2-x,-y,1/2+z
1/2+x,1/2-y,1/2-z
-x,1/2+y,-z
-x,-y,-z
1/2+x,y,1/2-z
1/2-x,1/2+y,1/2+z
x,1/2-y,z
loop_
_atom_site_type_symbol
_atom_site_label
_atom_site_fract_x
_atom_site_fract_y
_atom_site_fract_z
Si Si1 0.401165 0.460440 0.848914
Si Si2 0.663393 0.250000 0.623140
Si Si3 0.928141 0.619813 0.173615
Si Si4 0.252249 0.250000 0.380305
Si Si5 0.684232 0.030295 0.793028
Si Si6 0.699233 0.604338 0.489837
Si Si7 0.004874 0.079853 0.307552
O O1 0.371373 0.404213 0.651629
O O2 0.466826 0.501210 0.753916
O O3 0.343487 0.514951 0.919655
O O4 0.427558 0.422229 0.112155
O O5 0.615331 0.313841 0.633014
O O6 0.711142 0.250000 0.862570
O O7 0.706171 0.250000 0.365497
O O8 0.878246 0.555032 0.122702
O O9 0.956613 0.618384 0.460947
O O10 0.985924 0.620620 0.959711
O O11 0.297530 0.180403 0.381441
O O12 0.711643 0.957204 0.693004
O O13 0.739109 0.091324 0.795303
#
# Coordination Sequence:
#
# PCOD8254768 Si02
#       7
#     8   4   8   4   8   8   8
#     4  10  23  39  66  97 136 169 228 279 342 396
#     4  12  26  46  66  97 135 180 224 283 336 410
#     4  11  23  43  67  97 131 171 231 277 338 394
#     4  12  30  42  68  97 147 174 218 277 360 404
#     4  11  23  37  71  97 135 175 234 279 338 405
#     4  12  24  42  64 103 133 188 219 289 338 424
#     4  10  23  41  67 100 128 175 222 290 331 398
#
# _framework density 23.478377999999999
#
# number of rings (size 3 to 8) (size 9 to 14) (size 15 to 20)
#    0.000    1.000    5.000    1.000    9.333    2.000 
#    0.000    1.667    0.000    0.000    0.000    0.000 
#    0.000    0.000    0.000    0.000    0.000    0.000 
#
# Total GULP energy -594867.823266 kJ/mol
# GULP energy per Si atom -12393.079651 kJ/mol
# Density = 2.342494 g / cm^3
# Si number density = 23.478378 Si / 1000 Ang^3
#
#
#
# Elastic Constant Matrix: (Units=GPa)
#
#
# Indices 1 2 3 4 5 6 
#
# 1 69.6645 21.4480 5.1865 0.0000 0.0000 0.0000
# 2 21.4480 127.2547 17.7094 0.0000 0.0000 0.0000
# 3 5.1865 17.7094 95.0424 0.0000 0.0000 0.0000
# 4 0.0000 0.0000 0.0000 36.2808 0.0000 0.0000
# 5 0.0000 0.0000 0.0000 0.0000 36.7575 0.0000
# 6 0.0000 0.0000 0.0000 0.0000 0.0000 33.2207
#
#
#
# Elastic Compliance Matrix: (Units=1/GPa)
#
#
# Indices 1 2 3 4 5 6 
#
# 1 0.015152 -0.002504 -0.000360 0.000000 0.000000 0.000000
# 2 -0.002504 0.008481 -0.001444 0.000000 0.000000 0.000000
# 3 -0.000360 -0.001444 0.010810 0.000000 0.000000 0.000000
# 4 0.000000 0.000000 0.000000 0.027563 0.000000 0.000000
# 5 0.000000 0.000000 0.000000 0.000000 0.027205 0.000000
# 6 0.000000 0.000000 0.000000 0.000000 0.000000 0.030102
#
#
# Mechanical properties :
#
#
# Convention : Reuss Voigt Hill
#
# Bulk Modulus (GPa) = 38.71735 42.29439 40.50587
# Shear Modulus (GPa) = 36.61980 37.75966 37.18973
#
# Velocity S-wave (km/s) = 3.95362 4.01468 3.98427
# Velocity P-wave (km/s) = 6.11293 6.28836 6.20127
#
# Compressibility (1/GPa) = 0.02582821
#
# Stress axis : x y z
#
# Youngs Moduli (GPa) = 65.99718 117.90867 92.50447
#
# Poissons Ratio (x) = 0.29520 0.03333
# Poissons Ratio (y) = 0.16523 0.13355
# Poissons Ratio (z) = 0.02378 0.17022
#
# Static dielectric constant tensor:
#      x y z
#    x 4.569650 0.000000 0.000000 
#    y 0.000000 4.219890 0.000000 
#    z 0.000000 0.000000 4.164000 
# 
# 
# High freq. dielectric constant tensor:
#      x y z
#    x 1.940880 0.000000 0.000000 
#    y 0.000000 1.892530 0.000000 
#    z 0.000000 0.000000 1.934380 
# 
# From -- ./inp_files/2209.got.cif
#   From: 2010.03.12/outbox.cif.g09.slc.cpg/sg62_2_cif.got.tgz:2209.got - 2010.04.10 19:12:36.
