data_PCOD8254393
_publ_section_title
;
Structure prediction by ZEFSAII (Michael W. Deem and Ramdas Pophale) SiO2 
 PCOD8254393
Probable space group: P N M A
;
_chemical_formula_sum "Si O2"
_cell_formula_units_Z 48
_cell_length_a 9.976471
_cell_length_b 8.637271
_cell_length_c 27.185234
_cell_angle_alpha 90.000000
_cell_angle_beta 90.000000
_cell_angle_gamma 90.000000
_cell_volume 2342.537577
_symmetry_space_group_name_H-M "P N M A"
_symmetry_group_IT_number 62
_symmetry_cell_setting 'orthorhombic'
loop_
_space_group_symop_operation_xyz
x,y,z
1/2-x,-y,1/2+z
1/2+x,1/2-y,1/2-z
-x,1/2+y,-z
-x,-y,-z
1/2+x,y,1/2-z
1/2-x,1/2+y,1/2+z
x,1/2-y,z
loop_
_atom_site_type_symbol
_atom_site_label
_atom_site_fract_x
_atom_site_fract_y
_atom_site_fract_z
Si Si1 0.392896 0.932086 0.963078
Si Si2 0.527113 0.929697 0.638941
Si Si3 0.254599 0.571443 0.784171
Si Si4 0.003844 0.070585 0.356420
Si Si5 0.763265 0.071104 0.820498
Si Si6 0.606459 0.068791 0.537042
O O1 0.387237 0.750000 0.969256
O O2 0.429471 0.979703 0.907574
O O3 0.249603 0.999735 0.977037
O O4 0.500000 0.000000 0.000000
O O5 0.541502 0.750000 0.624467
O O6 0.627071 0.972402 0.682970
O O7 0.377156 0.965074 0.655698
O O8 0.565726 0.031673 0.592502
O O9 0.246999 0.750000 0.767324
O O10 0.390785 0.538133 0.813285
O O11 0.249601 0.462787 0.737063
O O12 0.961121 0.250000 0.357125
O O13 0.874713 0.965578 0.348021
O O14 0.799607 0.250000 0.828309
O O15 0.612743 0.250000 0.529303
O O16 0.500000 0.000000 0.500000
#
# Coordination Sequence:
#
# PCOD8254393 Si02
#       6
#     8   8   8   8   8   8
#     4  11  24  45  70  99 131 169 217 267 322 386
#     4  11  23  44  69  94 128 171 219 268 322 386
#     4  10  21  42  68  92 122 169 219 266 321 384
#     4  10  22  43  67  91 125 171 217 261 315 384
#     4  12  26  39  59  97 135 171 214 266 320 379
#     4  12  26  45  70  99 132 170 213 267 327 388
#
# _framework density 20.490599
#
# number of rings (size 3 to 8) (size 9 to 14) (size 15 to 20)
#    0.000    1.000    1.667    5.000    2.333    7.333 
#    0.000    0.000    0.000    0.000    0.000    0.000 
#    0.000    0.000    0.000    0.000    0.000    0.000 
#
# Total GULP energy -595590.446872 kJ/mol
# GULP energy per Si atom -12408.134310 kJ/mol
# Density = 2.044396 g / cm^3
# Si number density = 20.490599 Si / 1000 Ang^3
#
#
#
# Elastic Constant Matrix: (Units=GPa)
#
#
# Indices 1 2 3 4 5 6 
#
# 1 149.4857 35.0199 52.4936 0.0000 0.0000 0.0000
# 2 35.0199 74.3364 46.1127 0.0000 0.0000 0.0000
# 3 52.4936 46.1127 90.0293 0.0000 0.0000 0.0000
# 4 0.0000 0.0000 0.0000 35.7423 0.0000 0.0000
# 5 0.0000 0.0000 0.0000 0.0000 23.0279 0.0000
# 6 0.0000 0.0000 0.0000 0.0000 0.0000 34.2785
#
#
#
# Elastic Compliance Matrix: (Units=1/GPa)
#
#
# Indices 1 2 3 4 5 6 
#
# 1 0.008505 -0.001364 -0.004261 0.000000 0.000000 0.000000
# 2 -0.001364 0.019936 -0.009416 0.000000 0.000000 0.000000
# 3 -0.004261 -0.009416 0.018414 0.000000 0.000000 0.000000
# 4 0.000000 0.000000 0.000000 0.027978 0.000000 0.000000
# 5 0.000000 0.000000 0.000000 0.000000 0.043426 0.000000
# 6 0.000000 0.000000 0.000000 0.000000 0.000000 0.029173
#
#
# Mechanical properties :
#
#
# Convention : Reuss Voigt Hill
#
# Bulk Modulus (GPa) = 59.61274 64.56709 62.08992
# Shear Modulus (GPa) = 27.30687 30.62474 28.96581
#
# Velocity S-wave (km/s) = 3.65451 3.87017 3.76389
# Velocity P-wave (km/s) = 6.85297 7.17983 7.01830
#
# Compressibility (1/GPa) = 0.01677494
#
# Stress axis : x y z
#
# Youngs Moduli (GPa) = 117.57391 50.16126 54.30512
#
# Poissons Ratio (x) = 0.06841 0.23137
# Poissons Ratio (y) = 0.16036 0.51132
# Poissons Ratio (z) = 0.50094 0.47231
#
# Static dielectric constant tensor:
#      x y z
#    x 3.903820 0.000000 0.000000 
#    y 0.000000 3.475760 0.000000 
#    z 0.000000 0.000000 3.779880 
# 
# 
# High freq. dielectric constant tensor:
#      x y z
#    x 1.820880 0.000000 0.000000 
#    y 0.000000 1.801960 0.000000 
#    z 0.000000 0.000000 1.811410 
# 
# From -- ./inp_files/31965.got.cif
#   From: 2010.03.12/outbox.cif.g09.slc.cpg/sg62_16_cif.got.tgz:31965.got - 2010.04.10 19:12:36.
