data_PCOD8254509
_publ_section_title
;
Structure prediction by ZEFSAII (Michael W. Deem and Ramdas Pophale) SiO2 
 PCOD8254509
Probable space group: P N M A
;
_chemical_formula_sum "Si O2"
_cell_formula_units_Z 40
_cell_length_a 5.229824
_cell_length_b 25.259971
_cell_length_c 13.669369
_cell_angle_alpha 90.000000
_cell_angle_beta 90.000000
_cell_angle_gamma 90.000000
_cell_volume 1805.794761
_symmetry_space_group_name_H-M "P N M A"
_symmetry_group_IT_number 62
_symmetry_cell_setting 'orthorhombic'
loop_
_space_group_symop_operation_xyz
x,y,z
1/2-x,-y,1/2+z
1/2+x,1/2-y,1/2-z
-x,1/2+y,-z
-x,-y,-z
1/2+x,y,1/2-z
1/2-x,1/2+y,1/2+z
x,1/2-y,z
loop_
_atom_site_type_symbol
_atom_site_label
_atom_site_fract_x
_atom_site_fract_y
_atom_site_fract_z
Si Si1 0.967814 0.810500 0.479529
Si Si2 0.639816 0.309609 0.204658
Si Si3 0.020258 0.458586 0.810254
Si Si4 0.526236 0.374348 0.526953
Si Si5 0.458533 0.082047 0.311533
O O1 0.971476 0.750000 0.441537
O O2 0.958859 0.811661 0.596335
O O3 0.224488 0.839777 0.446707
O O4 0.718728 0.840072 0.438231
O O5 0.923488 0.335458 0.222686
O O6 0.690501 0.250000 0.241657
O O7 0.260307 0.442294 0.743953
O O8 0.022343 0.520300 0.835581
O O9 0.035988 0.428318 0.912598
O O10 0.511658 0.387901 0.413109
O O11 0.667727 0.095576 0.225881
#
# Coordination Sequence:
#
# PCOD8254509 Si02
#       5
#     8   8   8   8   8
#     4  11  24  38  55  83 120 163 207 253 297 342
#     4   9  17  30  47  68 100 145 192 232 274 330
#     4  10  22  42  66  92 121 153 198 255 312 368
#     4  12  23  39  65  89 120 164 205 246 302 364
#     4  10  22  39  62  96 131 157 190 242 302 372
#
# _framework density 22.150911000000001
#
# number of rings (size 3 to 8) (size 9 to 14) (size 15 to 20)
#    0.000    1.600    0.000    4.800    0.000    8.000 
#    0.000    8.000    0.000   13.200    0.000    0.000 
#    0.000    0.000    0.000    0.000    0.000    0.000 
#
# Total GULP energy -496214.600796 kJ/mol
# GULP energy per Si atom -12405.365020 kJ/mol
# Density = 2.210049 g / cm^3
# Si number density = 22.150911 Si / 1000 Ang^3
#
#
#
# Elastic Constant Matrix: (Units=GPa)
#
#
# Indices 1 2 3 4 5 6 
#
# 1 180.2777 74.2981 12.6484 0.0000 0.0000 0.0000
# 2 74.2981 154.9702 47.8415 0.0000 0.0000 0.0000
# 3 12.6484 47.8415 40.5610 0.0000 0.0000 0.0000
# 4 0.0000 0.0000 0.0000 29.5254 0.0000 0.0000
# 5 0.0000 0.0000 0.0000 0.0000 19.0993 0.0000
# 6 0.0000 0.0000 0.0000 0.0000 0.0000 28.2245
#
#
#
# Elastic Compliance Matrix: (Units=1/GPa)
#
#
# Indices 1 2 3 4 5 6 
#
# 1 0.007115 -0.004287 0.002838 0.000000 0.000000 0.000000
# 2 -0.004287 0.012731 -0.013680 0.000000 0.000000 0.000000
# 3 0.002838 -0.013680 0.039904 0.000000 0.000000 0.000000
# 4 0.000000 0.000000 0.000000 0.033869 0.000000 0.000000
# 5 0.000000 0.000000 0.000000 0.000000 0.052358 0.000000
# 6 0.000000 0.000000 0.000000 0.000000 0.000000 0.035430
#
#
# Mechanical properties :
#
#
# Convention : Reuss Voigt Hill
#
# Bulk Modulus (GPa) = 33.90650 71.70944 52.80797
# Shear Modulus (GPa) = 22.57372 31.43791 27.00582
#
# Velocity S-wave (km/s) = 3.19578 3.77139 3.49546
# Velocity P-wave (km/s) = 5.38123 7.16993 6.33899
#
# Compressibility (1/GPa) = 0.02949287
#
# Stress axis : x y z
#
# Youngs Moduli (GPa) = 140.55238 78.54572 25.05994
#
# Poissons Ratio (x) = 0.33675 -0.07112
# Poissons Ratio (y) = 0.60258 0.34281
# Poissons Ratio (z) = -0.39891 1.07448
#
# Static dielectric constant tensor:
#      x y z
#    x 4.474160 0.000000 0.000000 
#    y 0.000000 4.670310 0.000000 
#    z 0.000000 0.000000 3.471890 
# 
# 
# High freq. dielectric constant tensor:
#      x y z
#    x 1.905240 0.000000 0.000000 
#    y 0.000000 1.924320 0.000000 
#    z 0.000000 0.000000 1.828420 
# 
# From -- ./inp_files/16167.got.cif
#   From: 2010.03.12/outbox.cif.g09.slc.cpg/sg62_9_cif.got.tgz:16167.got - 2010.04.10 19:12:36.
