data_PCOD8254733
_publ_section_title
;
Structure prediction by ZEFSAII (Michael W. Deem and Ramdas Pophale) SiO2 
 PCOD8254733
Probable space group: P N M A
;
_chemical_formula_sum "Si O2"
_cell_formula_units_Z 48
_cell_length_a 9.257693
_cell_length_b 29.190669
_cell_length_c 7.391868
_cell_angle_alpha 90.000000
_cell_angle_beta 90.000000
_cell_angle_gamma 90.000000
_cell_volume 1997.565488
_symmetry_space_group_name_H-M "P N M A"
_symmetry_group_IT_number 62
_symmetry_cell_setting 'orthorhombic'
loop_
_space_group_symop_operation_xyz
x,y,z
1/2-x,-y,1/2+z
1/2+x,1/2-y,1/2-z
-x,1/2+y,-z
-x,-y,-z
1/2+x,y,1/2-z
1/2-x,1/2+y,1/2+z
x,1/2-y,z
loop_
_atom_site_type_symbol
_atom_site_label
_atom_site_fract_x
_atom_site_fract_y
_atom_site_fract_z
Si Si1 0.984288 0.750000 0.689852
Si Si2 0.221017 0.442521 0.626527
Si Si3 0.566350 0.838681 0.010557
Si Si4 0.187781 0.750000 0.989264
Si Si5 0.271665 0.658165 0.186225
Si Si6 0.979194 0.067066 0.346200
Si Si7 0.825063 0.534131 0.959183
O O1 0.061476 0.707293 0.599603
O O2 0.028763 0.750000 0.900343
O O3 0.812116 0.750000 0.665619
O O4 0.278031 0.390323 0.594141
O O5 0.078345 0.452309 0.508150
O O6 0.344647 0.478619 0.561963
O O7 0.177663 0.448184 0.836654
O O8 0.722821 0.843662 0.104611
O O9 0.444814 0.838856 0.169478
O O10 0.542505 0.878724 0.867036
O O11 0.199048 0.703447 0.102736
O O12 0.047542 0.058760 0.149665
O O13 0.825421 0.042567 0.354933
#
# Coordination Sequence:
#
# PCOD8254733 Si02
#       7
#     4   8   8   4   8   8   8
#     4  10  23  42  66 100 138 167 222 288 335 420
#     4  11  24  44  70 100 140 186 237 290 352 415
#     4  10  22  44  67  96 136 171 231 281 343 415
#     4  10  23  44  70 102 136 177 224 282 351 414
#     4  10  22  43  69  96 130 180 226 278 342 419
#     4  11  26  45  68 104 138 184 241 282 358 417
#     4  12  25  45  71  98 143 187 233 299 344 421
#
# _framework density 24.029247999999999
#
# number of rings (size 3 to 8) (size 9 to 14) (size 15 to 20)
#    0.000    1.333    3.333    1.000    0.000    7.333 
#    9.000    0.000    0.000    0.000    0.000    0.000 
#    0.000    0.000    0.000    0.000    0.000    0.000 
#
# Total GULP energy -595153.684346 kJ/mol
# GULP energy per Si atom -12399.035091 kJ/mol
# Density = 2.397456 g / cm^3
# Si number density = 24.029248 Si / 1000 Ang^3
#
#
#
# Elastic Constant Matrix: (Units=GPa)
#
#
# Indices 1 2 3 4 5 6 
#
# 1 41.9332 23.0826 28.6734 0.0000 0.0000 0.0000
# 2 23.0826 182.6029 35.8768 0.0000 0.0000 0.0000
# 3 28.6734 35.8768 92.6146 0.0000 0.0000 0.0000
# 4 0.0000 0.0000 0.0000 60.4521 0.0000 0.0000
# 5 0.0000 0.0000 0.0000 0.0000 47.6984 0.0000
# 6 0.0000 0.0000 0.0000 0.0000 0.0000 7.5885
#
#
#
# Elastic Compliance Matrix: (Units=1/GPa)
#
#
# Indices 1 2 3 4 5 6 
#
# 1 0.031050 -0.002204 -0.008759 0.000000 0.000000 0.000000
# 2 -0.002204 0.006084 -0.001674 0.000000 0.000000 0.000000
# 3 -0.008759 -0.001674 0.014158 0.000000 0.000000 0.000000
# 4 0.000000 0.000000 0.000000 0.016542 0.000000 0.000000
# 5 0.000000 0.000000 0.000000 0.000000 0.020965 0.000000
# 6 0.000000 0.000000 0.000000 0.000000 0.000000 0.131778
#
#
# Mechanical properties :
#
#
# Convention : Reuss Voigt Hill
#
# Bulk Modulus (GPa) = 38.43710 54.71294 46.57502
# Shear Modulus (GPa) = 19.64446 38.44902 29.04674
#
# Velocity S-wave (km/s) = 2.86234 4.00446 3.48056
# Velocity P-wave (km/s) = 5.19179 6.64828 5.96466
#
# Compressibility (1/GPa) = 0.02601653
#
# Stress axis : x y z
#
# Youngs Moduli (GPa) = 32.20589 164.36684 70.63168
#
# Poissons Ratio (x) = 0.36227 0.61869
# Poissons Ratio (y) = 0.07098 0.11827
# Poissons Ratio (z) = 0.28210 0.27522
#
# Static dielectric constant tensor:
#      x y z
#    x 4.238050 0.000000 0.000000 
#    y 0.000000 4.757190 0.000000 
#    z 0.000000 0.000000 4.072040 
# 
# 
# High freq. dielectric constant tensor:
#      x y z
#    x 1.943800 0.000000 0.000000 
#    y 0.000000 1.980490 0.000000 
#    z 0.000000 0.000000 1.940520 
# 
# From -- ./inp_files/4552.got.cif
#   From: 2010.03.12/outbox.cif.g09.slc.cpg/sg62_3_cif.got.tgz:4552.got - 2010.04.10 19:12:36.
