data_PCOD8254662
_publ_section_title
;
Structure prediction by ZEFSAII (Michael W. Deem and Ramdas Pophale) SiO2 
 PCOD8254662
Probable space group: P N M A
;
_chemical_formula_sum "Si O2"
_cell_formula_units_Z 56
_cell_length_a 9.846080
_cell_length_b 19.001047
_cell_length_c 14.071851
_cell_angle_alpha 90.000000
_cell_angle_beta 90.000000
_cell_angle_gamma 90.000000
_cell_volume 2632.643908
_symmetry_space_group_name_H-M "P N M A"
_symmetry_group_IT_number 62
_symmetry_cell_setting 'orthorhombic'
loop_
_space_group_symop_operation_xyz
x,y,z
1/2-x,-y,1/2+z
1/2+x,1/2-y,1/2-z
-x,1/2+y,-z
-x,-y,-z
1/2+x,y,1/2-z
1/2-x,1/2+y,1/2+z
x,1/2-y,z
loop_
_atom_site_type_symbol
_atom_site_label
_atom_site_fract_x
_atom_site_fract_y
_atom_site_fract_z
Si Si1 0.257384 0.250000 0.643716
Si Si2 0.148852 0.114437 0.226622
Si Si3 0.422502 0.328892 0.146786
Si Si4 0.254716 0.599804 0.062559
Si Si5 0.753327 0.513363 0.623015
Si Si6 0.056168 0.750000 0.327578
Si Si7 0.962895 0.997384 0.891281
Si Si8 0.059519 0.611313 0.442124
O O1 0.278137 0.317538 0.575561
O O2 0.368781 0.250000 0.726648
O O3 0.106337 0.250000 0.688915
O O4 0.287738 0.153849 0.205744
O O5 0.164618 0.043917 0.289206
O O6 0.047060 0.166737 0.279785
O O7 0.086511 0.082323 0.130183
O O8 0.413743 0.250000 0.107889
O O9 0.443879 0.378409 0.055951
O O10 0.154388 0.555027 0.131561
O O11 0.411104 0.585350 0.091693
O O12 0.232310 0.576275 0.953661
O O13 0.605735 0.487292 0.662295
O O14 0.831239 0.448436 0.577043
O O15 0.102829 0.681754 0.386976
O O16 0.000000 0.000000 0.000000
#
# Coordination Sequence:
#
# PCOD8254662 Si02
#       8
#     4   8   8   8   8   4   8   8
#     4  10  24  44  68  95 133 173 221 272 342 404
#     4  12  25  42  69 101 133 179 232 277 340 408
#     4  12  25  46  69  99 137 177 229 283 342 411
#     4  10  22  41  68  97 130 174 219 274 337 400
#     4  11  23  41  67 100 135 174 225 277 339 400
#     4  10  24  46  64  97 131 175 227 272 338 408
#     4  10  23  43  62  94 139 171 218 282 332 398
#     4  11  23  43  72  96 133 179 223 283 338 405
#
# _framework density 21.271391000000001
#
# number of rings (size 3 to 8) (size 9 to 14) (size 15 to 20)
#    0.000    1.143    3.571    2.571    4.000    1.143 
#    1.286    0.000    4.714    0.000    0.000    0.000 
#    0.000    0.000    0.000    0.000    0.000    0.000 
#
# Total GULP energy -694342.113054 kJ/mol
# GULP energy per Si atom -12398.966305 kJ/mol
# Density = 2.122298 g / cm^3
# Si number density = 21.271391 Si / 1000 Ang^3
#
#
#
# Elastic Constant Matrix: (Units=GPa)
#
#
# Indices 1 2 3 4 5 6 
#
# 1 145.5258 55.4262 29.9310 0.0000 0.0000 0.0000
# 2 55.4262 115.1331 35.3911 0.0000 0.0000 0.0000
# 3 29.9310 35.3911 70.6518 0.0000 0.0000 0.0000
# 4 0.0000 0.0000 0.0000 36.0509 0.0000 0.0000
# 5 0.0000 0.0000 0.0000 0.0000 29.5273 0.0000
# 6 0.0000 0.0000 0.0000 0.0000 0.0000 30.2156
#
#
#
# Elastic Compliance Matrix: (Units=1/GPa)
#
#
# Indices 1 2 3 4 5 6 
#
# 1 0.008616 -0.003577 -0.001859 0.000000 0.000000 0.000000
# 2 -0.003577 0.011751 -0.004371 0.000000 0.000000 0.000000
# 3 -0.001859 -0.004371 0.017131 0.000000 0.000000 0.000000
# 4 0.000000 0.000000 0.000000 0.027739 0.000000 0.000000
# 5 0.000000 0.000000 0.000000 0.000000 0.033867 0.000000
# 6 0.000000 0.000000 0.000000 0.000000 0.000000 0.033095
#
#
# Mechanical properties :
#
#
# Convention : Reuss Voigt Hill
#
# Bulk Modulus (GPa) = 55.91138 63.64527 59.77832
# Shear Modulus (GPa) = 31.69101 33.19626 32.44364
#
# Velocity S-wave (km/s) = 3.86403 3.95474 3.90965
# Velocity P-wave (km/s) = 6.80070 7.13013 6.96736
#
# Compressibility (1/GPa) = 0.01788545
#
# Stress axis : x y z
#
# Youngs Moduli (GPa) = 116.06188 85.09864 58.37406
#
# Poissons Ratio (x) = 0.30436 0.10849
# Poissons Ratio (y) = 0.41510 0.25516
# Poissons Ratio (z) = 0.21571 0.37198
#
# Static dielectric constant tensor:
#      x y z
#    x -286.941240 0.000000 0.000000 
#    y 0.000000 3.900140 0.000000 
#    z 0.000000 0.000000 3.728490 
# 
# 
# High freq. dielectric constant tensor:
#      x y z
#    x 1.852290 0.000000 0.000000 
#    y 0.000000 1.830760 0.000000 
#    z 0.000000 0.000000 1.826000 
# 
# From -- ./inp_files/17234.got.cif
#   From: 2010.03.12/outbox.cif.g09.slc.cpg/sg62_9_cif.got.tgz:17234.got - 2010.04.10 19:12:36.
