data_PCOD8254721
_publ_section_title
;
Structure prediction by ZEFSAII (Michael W. Deem and Ramdas Pophale) SiO2 
 PCOD8254721
Probable space group: P N M A
;
_chemical_formula_sum "Si O2"
_cell_formula_units_Z 48
_cell_length_a 11.696181
_cell_length_b 8.621554
_cell_length_c 22.944080
_cell_angle_alpha 90.000000
_cell_angle_beta 90.000000
_cell_angle_gamma 90.000000
_cell_volume 2313.663959
_symmetry_space_group_name_H-M "P N M A"
_symmetry_group_IT_number 62
_symmetry_cell_setting 'orthorhombic'
loop_
_space_group_symop_operation_xyz
x,y,z
1/2-x,-y,1/2+z
1/2+x,1/2-y,1/2-z
-x,1/2+y,-z
-x,-y,-z
1/2+x,y,1/2-z
1/2-x,1/2+y,1/2+z
x,1/2-y,z
loop_
_atom_site_type_symbol
_atom_site_label
_atom_site_fract_x
_atom_site_fract_y
_atom_site_fract_z
Si Si1 0.424912 0.420788 0.663743
Si Si2 0.872656 0.069495 0.225390
Si Si3 0.995541 0.933624 0.565267
Si Si4 0.770186 0.435929 0.623638
Si Si5 0.563506 0.083081 0.550711
Si Si6 0.832266 0.567019 0.346645
O O1 0.426128 0.250000 0.694810
O O2 0.504541 0.544762 0.695766
O O3 0.468632 0.397269 0.599193
O O4 0.298200 0.488774 0.659013
O O5 0.849376 0.250000 0.235297
O O6 0.767569 0.999951 0.187140
O O7 0.889252 0.981312 0.286137
O O8 0.981514 0.750000 0.561710
O O9 0.111517 0.978627 0.598672
O O10 0.000000 0.000000 0.500000
O O11 0.893093 0.004569 0.603833
O O12 0.768074 0.250000 0.627433
O O13 0.677467 0.499406 0.576339
O O14 0.602763 0.250000 0.526844
O O15 0.500000 0.000000 0.500000
O O16 0.844097 0.750000 0.357379
#
# Coordination Sequence:
#
# PCOD8254721 Si02
#       6
#     8   8   8   8   8   8
#     4   9  21  41  62  88 122 163 211 258 313 382
#     4  11  23  40  65  98 131 166 211 267 325 384
#     4  12  27  46  67  96 132 174 222 270 327 394
#     4  10  22  43  66  92 127 171 216 262 319 385
#     4   9  19  35  59  90 120 155 202 253 307 365
#     4  11  24  43  68  94 127 172 215 266 325 387
#
# _framework density 20.746316
#
# number of rings (size 3 to 8) (size 9 to 14) (size 15 to 20)
#    0.000    1.667    0.000    5.000    4.667    4.667 
#    0.000    0.000    0.000    0.000    0.000    0.000 
#    0.000    0.000    0.000    0.000    0.000    0.000 
#
# Total GULP energy -595041.167555 kJ/mol
# GULP energy per Si atom -12396.690991 kJ/mol
# Density = 2.069910 g / cm^3
# Si number density = 20.746316 Si / 1000 Ang^3
#
#
#
# Elastic Constant Matrix: (Units=GPa)
#
#
# Indices 1 2 3 4 5 6 
#
# 1 103.1290 24.1662 36.9488 0.0000 0.0000 0.0000
# 2 24.1662 82.4484 24.8218 0.0000 0.0000 0.0000
# 3 36.9488 24.8218 91.7581 0.0000 0.0000 0.0000
# 4 0.0000 0.0000 0.0000 33.6981 0.0000 0.0000
# 5 0.0000 0.0000 0.0000 0.0000 18.1466 0.0000
# 6 0.0000 0.0000 0.0000 0.0000 0.0000 34.0612
#
#
#
# Elastic Compliance Matrix: (Units=1/GPa)
#
#
# Indices 1 2 3 4 5 6 
#
# 1 0.011682 -0.002186 -0.004113 0.000000 0.000000 0.000000
# 2 -0.002186 0.013613 -0.002802 0.000000 0.000000 0.000000
# 3 -0.004113 -0.002802 0.013312 0.000000 0.000000 0.000000
# 4 0.000000 0.000000 0.000000 0.029675 0.000000 0.000000
# 5 0.000000 0.000000 0.000000 0.000000 0.055107 0.000000
# 6 0.000000 0.000000 0.000000 0.000000 0.000000 0.029359
#
#
# Mechanical properties :
#
#
# Convention : Reuss Voigt Hill
#
# Bulk Modulus (GPa) = 49.00596 49.91212 49.45904
# Shear Modulus (GPa) = 28.12893 29.94112 29.03502
#
# Velocity S-wave (km/s) = 3.68618 3.80307 3.74508
# Velocity P-wave (km/s) = 6.46452 6.58749 6.52630
#
# Compressibility (1/GPa) = 0.02040568
#
# Stress axis : x y z
#
# Youngs Moduli (GPa) = 85.59893 73.45824 75.11766
#
# Poissons Ratio (x) = 0.16058 0.30895
# Poissons Ratio (y) = 0.18712 0.21050
# Poissons Ratio (z) = 0.35206 0.20585
#
# Static dielectric constant tensor:
#      x y z
#    x 3.856750 0.000000 0.000000 
#    y 0.000000 29.666960 0.000000 
#    z 0.000000 0.000000 3.735540 
# 
# 
# High freq. dielectric constant tensor:
#      x y z
#    x 1.820080 0.000000 0.000000 
#    y 0.000000 1.811840 0.000000 
#    z 0.000000 0.000000 1.813320 
# 
# From -- ./inp_files/29261.got.cif
#   From: 2010.03.12/outbox.cif.g09.slc.cpg/sg62_15_cif.got.tgz:29261.got - 2010.04.10 19:12:36.
