data_PCOD8254121
_publ_section_title
;
Structure prediction by ZEFSAII (Michael W. Deem and Ramdas Pophale) SiO2 
 PCOD8254121
Probable space group: P N M A
;
_chemical_formula_sum "Si O2"
_cell_formula_units_Z 64
_cell_length_a 23.630844
_cell_length_b 8.776401
_cell_length_c 15.106771
_cell_angle_alpha 90.000000
_cell_angle_beta 90.000000
_cell_angle_gamma 90.000000
_cell_volume 3133.050083
_symmetry_space_group_name_H-M "P N M A"
_symmetry_group_IT_number 62
_symmetry_cell_setting 'orthorhombic'
loop_
_space_group_symop_operation_xyz
x,y,z
1/2-x,-y,1/2+z
1/2+x,1/2-y,1/2-z
-x,1/2+y,-z
-x,-y,-z
1/2+x,y,1/2-z
1/2-x,1/2+y,1/2+z
x,1/2-y,z
loop_
_atom_site_type_symbol
_atom_site_label
_atom_site_fract_x
_atom_site_fract_y
_atom_site_fract_z
Si Si1 0.248948 0.070090 0.729952
Si Si2 0.668173 0.431210 0.927012
Si Si3 0.132863 0.921358 0.011485
Si Si4 0.039733 0.429368 0.573364
Si Si5 0.367005 0.573109 0.686439
Si Si6 0.475352 0.076422 0.413810
Si Si7 0.973554 0.072115 0.747177
Si Si8 0.751991 0.428786 0.077626
O O1 0.245936 0.250000 0.732283
O O2 0.201479 0.007148 0.660578
O O3 0.309876 0.020128 0.696106
O O4 0.241165 0.010849 0.829068
O O5 0.668608 0.250000 0.922428
O O6 0.603931 0.495121 0.928883
O O7 0.698102 0.483671 0.019149
O O8 0.134151 0.750000 0.051142
O O9 0.092437 0.926016 0.925940
O O10 0.194534 0.973566 0.981692
O O11 0.109761 0.035169 0.087903
O O12 0.041443 0.250000 0.559352
O O13 0.000000 0.500000 0.500000
O O14 0.011948 0.476804 0.665478
O O15 0.355036 0.750000 0.700735
O O16 0.414199 0.518976 0.756767
O O17 0.497654 0.250000 0.400366
O O18 0.500000 0.000000 0.500000
O O19 0.489844 0.971726 0.331678
O O20 0.959598 0.250000 0.748044
O O21 0.748874 0.250000 0.097122
#
# Coordination Sequence:
#
# PCOD8254121 Si02
#       8
#     8   8   8   8   8   8   8   8
#     4  11  23  41  65  93 127 164 204 257 319 377
#     4   9  20  42  67  90 125 166 203 253 317 377
#     4  10  21  39  61  87 127 166 200 250 314 374
#     4  10  24  45  67  92 121 165 218 267 319 370
#     4  12  24  39  63  91 123 162 212 261 314 384
#     4  11  22  36  58  90 127 167 207 250 307 375
#     4  11  24  41  62  89 127 167 212 264 315 375
#     4  10  21  40  64  91 123 163 204 250 313 381
#
# _framework density 20.427378999999998
#
# number of rings (size 3 to 8) (size 9 to 14) (size 15 to 20)
#    0.000    1.500    2.500    2.250    3.500    2.000 
#    0.000    1.250    0.000    0.000    0.000    0.000 
#    0.000    0.000    0.000    0.000    0.000    0.000 
#
# Total GULP energy -793582.946580 kJ/mol
# GULP energy per Si atom -12399.733540 kJ/mol
# Density = 2.038089 g / cm^3
# Si number density = 20.427379 Si / 1000 Ang^3
#
#
#
# Elastic Constant Matrix: (Units=GPa)
#
#
# Indices 1 2 3 4 5 6 
#
# 1 149.9693 22.4888 60.2081 0.0000 0.0000 0.0000
# 2 22.4888 41.9280 44.1048 0.0000 0.0000 0.0000
# 3 60.2081 44.1048 116.8964 0.0000 0.0000 0.0000
# 4 0.0000 0.0000 0.0000 35.2782 0.0000 0.0000
# 5 0.0000 0.0000 0.0000 0.0000 28.8877 0.0000
# 6 0.0000 0.0000 0.0000 0.0000 0.0000 26.9219
#
#
#
# Elastic Compliance Matrix: (Units=1/GPa)
#
#
# Indices 1 2 3 4 5 6 
#
# 1 0.008406 0.000076 -0.004358 0.000000 0.000000 0.000000
# 2 0.000076 0.039546 -0.014960 0.000000 0.000000 0.000000
# 3 -0.004358 -0.014960 0.016444 0.000000 0.000000 0.000000
# 4 0.000000 0.000000 0.000000 0.028346 0.000000 0.000000
# 5 0.000000 0.000000 0.000000 0.000000 0.034617 0.000000
# 6 0.000000 0.000000 0.000000 0.000000 0.000000 0.037145
#
#
# Mechanical properties :
#
#
# Convention : Reuss Voigt Hill
#
# Bulk Modulus (GPa) = 38.59284 62.48856 50.54070
# Shear Modulus (GPa) = 23.62664 30.35034 26.98849
#
# Velocity S-wave (km/s) = 3.40460 3.85875 3.63876
# Velocity P-wave (km/s) = 5.86419 7.10706 6.51533
#
# Compressibility (1/GPa) = 0.02591154
#
# Stress axis : x y z
#
# Youngs Moduli (GPa) = 118.95677 25.28692 60.81387
#
# Poissons Ratio (x) = -0.00191 0.26505
# Poissons Ratio (y) = -0.00900 0.90975
# Poissons Ratio (z) = 0.51845 0.37828
#
# Static dielectric constant tensor:
#      x y z
#    x 4.110950 0.000000 0.000000 
#    y 0.000000 3.552880 0.000000 
#    z 0.000000 0.000000 3.660140 
# 
# 
# High freq. dielectric constant tensor:
#      x y z
#    x 1.816000 0.000000 0.000000 
#    y 0.000000 1.781660 0.000000 
#    z 0.000000 0.000000 1.800720 
# 
# From -- ./inp_files/20788.got.cif
#   From: 2010.03.12/outbox.cif.g09.slc.cpg/sg62_11_cif.got.tgz:20788.got - 2010.04.10 19:12:36.
