data_PCOD8254771
_publ_section_title
;
Structure prediction by ZEFSAII (Michael W. Deem and Ramdas Pophale) SiO2 
 PCOD8254771
Probable space group: P N M A
;
_chemical_formula_sum "Si O2"
_cell_formula_units_Z 48
_cell_length_a 14.351433
_cell_length_b 8.519311
_cell_length_c 20.129862
_cell_angle_alpha 90.000000
_cell_angle_beta 90.000000
_cell_angle_gamma 90.000000
_cell_volume 2461.163910
_symmetry_space_group_name_H-M "P N M A"
_symmetry_group_IT_number 62
_symmetry_cell_setting 'orthorhombic'
loop_
_space_group_symop_operation_xyz
x,y,z
1/2-x,-y,1/2+z
1/2+x,1/2-y,1/2-z
-x,1/2+y,-z
-x,-y,-z
1/2+x,y,1/2-z
1/2-x,1/2+y,1/2+z
x,1/2-y,z
loop_
_atom_site_type_symbol
_atom_site_label
_atom_site_fract_x
_atom_site_fract_y
_atom_site_fract_z
Si Si1 0.490743 0.931523 0.225257
Si Si2 0.301848 0.430921 0.189609
Si Si3 0.298103 0.069309 0.430131
Si Si4 0.006567 0.930095 0.867374
Si Si5 0.824081 0.068371 0.921294
Si Si6 0.196475 0.931913 0.311570
O O1 0.469914 0.750000 0.211290
O O2 0.589411 0.984413 0.194905
O O3 0.411661 0.033842 0.189521
O O4 0.491869 0.957931 0.303898
O O5 0.284557 0.250000 0.172747
O O6 0.253298 0.536274 0.134043
O O7 0.260597 0.467997 0.262112
O O8 0.274259 0.250000 0.415554
O O9 0.405169 0.031943 0.413073
O O10 0.281290 0.026006 0.506962
O O11 0.229113 0.963001 0.386602
O O12 0.006522 0.750000 0.843223
O O13 0.914750 0.962892 0.910021
O O14 0.853851 0.250000 0.918521
O O15 0.207915 0.750000 0.292961
#
# Coordination Sequence:
#
# PCOD8254771 Si02
#       6
#     8   8   8   8   8   8
#     4  11  23  39  61  91 122 157 201 249 300 357
#     4  12  24  39  62  89 120 158 203 252 299 356
#     4  10  23  40  60  88 124 161 201 248 302 359
#     4  11  21  35  59  92 125 160 198 246 302 359
#     4  11  23  40  60  87 124 164 202 247 302 360
#     4  11  23  39  63  89 119 158 200 246 299 361
#
# _framework density 19.502969
#
# number of rings (size 3 to 8) (size 9 to 14) (size 15 to 20)
#    0.000    1.000    3.333    4.000    0.000    4.000 
#    0.000    0.833    0.000    0.000    0.000    0.000 
#    0.000    0.000    0.000    0.000    0.000    0.000 
#
# Total GULP energy -595566.674879 kJ/mol
# GULP energy per Si atom -12407.639060 kJ/mol
# Density = 1.945858 g / cm^3
# Si number density = 19.502969 Si / 1000 Ang^3
#
#
#
# Elastic Constant Matrix: (Units=GPa)
#
#
# Indices 1 2 3 4 5 6 
#
# 1 102.4832 21.8838 25.9727 0.0000 0.0000 0.0000
# 2 21.8838 47.5669 7.5091 0.0000 0.0000 0.0000
# 3 25.9727 7.5091 96.4070 0.0000 0.0000 0.0000
# 4 0.0000 0.0000 0.0000 29.1144 0.0000 0.0000
# 5 0.0000 0.0000 0.0000 0.0000 27.8559 0.0000
# 6 0.0000 0.0000 0.0000 0.0000 0.0000 27.4591
#
#
#
# Elastic Compliance Matrix: (Units=1/GPa)
#
#
# Indices 1 2 3 4 5 6 
#
# 1 0.011482 -0.004854 -0.002715 0.000000 0.000000 0.000000
# 2 -0.004854 0.023337 -0.000510 0.000000 0.000000 0.000000
# 3 -0.002715 -0.000510 0.011144 0.000000 0.000000 0.000000
# 4 0.000000 0.000000 0.000000 0.034347 0.000000 0.000000
# 5 0.000000 0.000000 0.000000 0.000000 0.035899 0.000000
# 6 0.000000 0.000000 0.000000 0.000000 0.000000 0.036418
#
#
# Mechanical properties :
#
#
# Convention : Reuss Voigt Hill
#
# Bulk Modulus (GPa) = 33.55215 39.68759 36.61987
# Shear Modulus (GPa) = 27.97665 29.62532 28.80098
#
# Velocity S-wave (km/s) = 3.79156 3.90168 3.84702
# Velocity P-wave (km/s) = 6.03398 6.37897 6.20887
#
# Compressibility (1/GPa) = 0.02980435
#
# Stress axis : x y z
#
# Youngs Moduli (GPa) = 87.09020 42.85101 89.73486
#
# Poissons Ratio (x) = 0.20800 0.24366
# Poissons Ratio (y) = 0.42273 0.04577
# Poissons Ratio (z) = 0.23648 0.02185
#
# Static dielectric constant tensor:
#      x y z
#    x 3.618240 0.000000 0.000000 
#    y 0.000000 3.542960 0.000000 
#    z 0.000000 0.000000 3.468880 
# 
# 
# High freq. dielectric constant tensor:
#      x y z
#    x 1.761500 0.000000 0.000000 
#    y 0.000000 1.766450 0.000000 
#    z 0.000000 0.000000 1.752190 
# 
# From -- ./inp_files/23674.got.cif
#   From: 2010.03.12/outbox.cif.g09.slc.cpg/sg62_12_cif.got.tgz:23674.got - 2010.04.10 19:12:36.
