data_PCOD8254813
_publ_section_title
;
Structure prediction by ZEFSAII (Michael W. Deem and Ramdas Pophale) SiO2 
 PCOD8254813
Probable space group: P N M A
;
_chemical_formula_sum "Si O2"
_cell_formula_units_Z 64
_cell_length_a 25.198430
_cell_length_b 8.423653
_cell_length_c 14.349174
_cell_angle_alpha 90.000000
_cell_angle_beta 90.000000
_cell_angle_gamma 90.000000
_cell_volume 3045.796288
_symmetry_space_group_name_H-M "P N M A"
_symmetry_group_IT_number 62
_symmetry_cell_setting 'orthorhombic'
loop_
_space_group_symop_operation_xyz
x,y,z
1/2-x,-y,1/2+z
1/2+x,1/2-y,1/2-z
-x,1/2+y,-z
-x,-y,-z
1/2+x,y,1/2-z
1/2-x,1/2+y,1/2+z
x,1/2-y,z
loop_
_atom_site_type_symbol
_atom_site_label
_atom_site_fract_x
_atom_site_fract_y
_atom_site_fract_z
Si Si1 0.423830 0.061060 0.254160
Si Si2 0.251027 0.931506 0.539223
Si Si3 0.893610 0.435693 0.709618
Si Si4 0.447723 0.563048 0.451709
Si Si5 0.502904 0.939048 0.104887
Si Si6 0.215301 0.432945 0.353137
Si Si7 0.862586 0.436922 0.911821
Si Si8 0.193666 0.933639 0.723686
O O1 0.425687 0.250000 0.263131
O O2 0.363669 0.993941 0.247932
O O3 0.451242 0.980905 0.343200
O O4 0.452947 0.007338 0.160535
O O5 0.250939 0.750000 0.503968
O O6 0.205247 0.959013 0.615160
O O7 0.238041 0.050863 0.456514
O O8 0.307530 0.970246 0.584271
O O9 0.901077 0.250000 0.709773
O O10 0.943947 0.508356 0.654819
O O11 0.839978 0.476492 0.655340
O O12 0.891751 0.495371 0.817016
O O13 0.500000 0.500000 0.500000
O O14 0.443341 0.750000 0.464734
O O15 0.397175 0.479188 0.498137
O O16 0.501479 0.750000 0.105418
O O17 0.500000 0.000000 0.000000
O O18 0.205154 0.250000 0.328683
O O19 0.259129 0.511925 0.284550
O O20 0.851407 0.250000 0.910061
O O21 0.192556 0.750000 0.751072
#
# Coordination Sequence:
#
# PCOD8254813 Si02
#       8
#     8   8   8   8   8   8   8   8
#     4  11  23  43  68  95 130 172 216 269 328 390
#     4  11  22  39  61  90 127 169 211 255 316 386
#     4  10  23  42  64  89 125 167 210 265 324 382
#     4  12  25  42  66  97 130 170 214 265 324 389
#     4  11  25  45  66  93 128 171 223 275 328 388
#     4  11  22  39  63  94 127 165 214 264 317 381
#     4  11  22  40  65  96 130 167 213 266 322 385
#     4   9  21  40  62  89 128 168 205 256 316 377
#
# _framework density 21.012567000000001
#
# number of rings (size 3 to 8) (size 9 to 14) (size 15 to 20)
#    0.000    1.250    1.250    4.500    1.750    3.500 
#    0.000    3.750    0.000    0.000    0.000    0.000 
#    0.000    0.000    0.000    0.000    0.000    0.000 
#
# Total GULP energy -793874.478510 kJ/mol
# GULP energy per Si atom -12404.288727 kJ/mol
# Density = 2.096474 g / cm^3
# Si number density = 21.012567 Si / 1000 Ang^3
#
#
#
# Elastic Constant Matrix: (Units=GPa)
#
#
# Indices 1 2 3 4 5 6 
#
# 1 121.0094 12.1315 36.5589 0.0000 0.0000 0.0000
# 2 12.1315 39.5973 15.9648 0.0000 0.0000 0.0000
# 3 36.5589 15.9648 119.5343 0.0000 0.0000 0.0000
# 4 0.0000 0.0000 0.0000 35.7404 0.0000 0.0000
# 5 0.0000 0.0000 0.0000 0.0000 41.4590 0.0000
# 6 0.0000 0.0000 0.0000 0.0000 0.0000 27.4493
#
#
#
# Elastic Compliance Matrix: (Units=1/GPa)
#
#
# Indices 1 2 3 4 5 6 
#
# 1 0.009223 -0.001784 -0.002582 0.000000 0.000000 0.000000
# 2 -0.001784 0.027037 -0.003065 0.000000 0.000000 0.000000
# 3 -0.002582 -0.003065 0.009565 0.000000 0.000000 0.000000
# 4 0.000000 0.000000 0.000000 0.027980 0.000000 0.000000
# 5 0.000000 0.000000 0.000000 0.000000 0.024120 0.000000
# 6 0.000000 0.000000 0.000000 0.000000 0.000000 0.036431
#
#
# Mechanical properties :
#
#
# Convention : Reuss Voigt Hill
#
# Bulk Modulus (GPa) = 32.29926 45.49461 38.89693
# Shear Modulus (GPa) = 31.34016 35.29545 33.31780
#
# Velocity S-wave (km/s) = 3.86618 4.10290 3.98630
# Velocity P-wave (km/s) = 5.94429 6.64403 6.30388
#
# Compressibility (1/GPa) = 0.03096046
#
# Stress axis : x y z
#
# Youngs Moduli (GPa) = 108.42562 36.98666 104.54767
#
# Poissons Ratio (x) = 0.06600 0.26999
# Poissons Ratio (y) = 0.19348 0.32046
# Poissons Ratio (z) = 0.28000 0.11337
#
# Static dielectric constant tensor:
#      x y z
#    x 4.005120 0.000000 0.000000 
#    y 0.000000 3.645400 0.000000 
#    z 0.000000 0.000000 3.940260 
# 
# 
# High freq. dielectric constant tensor:
#      x y z
#    x 1.835710 0.000000 0.000000 
#    y 0.000000 1.813280 0.000000 
#    z 0.000000 0.000000 1.835940 
# 
# From -- ./inp_files/20781.got.cif
#   From: 2010.03.12/outbox.cif.g09.slc.cpg/sg62_11_cif.got.tgz:20781.got - 2010.04.10 19:12:36.
