data_PCOD8254188
_publ_section_title
;
Structure prediction by ZEFSAII (Michael W. Deem and Ramdas Pophale) SiO2 
 PCOD8254188
Probable space group: P N M A
;
_chemical_formula_sum "Si O2"
_cell_formula_units_Z 48
_cell_length_a 11.743054
_cell_length_b 13.533296
_cell_length_c 14.391774
_cell_angle_alpha 90.000000
_cell_angle_beta 90.000000
_cell_angle_gamma 90.000000
_cell_volume 2287.172756
_symmetry_space_group_name_H-M "P N M A"
_symmetry_group_IT_number 62
_symmetry_cell_setting 'orthorhombic'
loop_
_space_group_symop_operation_xyz
x,y,z
1/2-x,-y,1/2+z
1/2+x,1/2-y,1/2-z
-x,1/2+y,-z
-x,-y,-z
1/2+x,y,1/2-z
1/2-x,1/2+y,1/2+z
x,1/2-y,z
loop_
_atom_site_type_symbol
_atom_site_label
_atom_site_fract_x
_atom_site_fract_y
_atom_site_fract_z
Si Si1 0.146643 0.495256 0.555752
Si Si2 0.256969 0.866489 0.885305
Si Si3 0.820388 0.522753 0.797569
Si Si4 0.949221 0.006836 0.102096
Si Si5 0.960986 0.359901 0.570744
Si Si6 0.271940 0.860262 0.318157
O O1 0.187602 0.431104 0.466974
O O2 0.250640 0.549044 0.609033
O O3 0.067464 0.587117 0.526513
O O4 0.065416 0.422166 0.617487
O O5 0.275167 0.750000 0.900898
O O6 0.309224 0.898009 0.785345
O O7 0.122315 0.892003 0.885677
O O8 0.756176 0.419952 0.774669
O O9 0.952325 0.508211 0.820679
O O10 0.867924 0.912454 0.119219
O O11 0.000000 0.000000 0.000000
O O12 0.004999 0.250000 0.550839
O O13 0.848441 0.359521 0.631023
O O14 0.314132 0.750000 0.294441
#
# Coordination Sequence:
#
# PCOD8254188 Si02
#       6
#     8   8   8   8   8   8
#     4  11  22  42  67  92 133 174 215 276 332 392
#     4  11  25  44  65 101 136 173 227 276 335 412
#     4  11  24  42  66  93 134 176 215 270 339 391
#     4  11  22  44  67  96 133 178 220 279 338 399
#     4  10  21  39  65  93 124 167 217 268 323 384
#     4  10  23  40  61  96 131 168 220 271 329 399
#
# _framework density 20.986608
#
# number of rings (size 3 to 8) (size 9 to 14) (size 15 to 20)
#    0.000    1.333    5.000    0.500    4.667    4.000 
#    0.000    0.000    0.000    0.000    0.000    0.000 
#    0.000    0.000    0.000    0.000    0.000    0.000 
#
# Total GULP energy -594830.362410 kJ/mol
# GULP energy per Si atom -12392.299217 kJ/mol
# Density = 2.093884 g / cm^3
# Si number density = 20.986608 Si / 1000 Ang^3
#
#
#
# Elastic Constant Matrix: (Units=GPa)
#
#
# Indices 1 2 3 4 5 6 
#
# 1 104.7540 -0.8382 23.7366 0.0000 0.0000 0.0000
# 2 -0.8382 49.4639 -1.2649 0.0000 0.0000 0.0000
# 3 23.7366 -1.2649 74.6585 0.0000 0.0000 0.0000
# 4 0.0000 0.0000 0.0000 17.1114 0.0000 0.0000
# 5 0.0000 0.0000 0.0000 0.0000 41.5761 0.0000
# 6 0.0000 0.0000 0.0000 0.0000 0.0000 22.4045
#
#
#
# Elastic Compliance Matrix: (Units=1/GPa)
#
#
# Indices 1 2 3 4 5 6 
#
# 1 0.010288 0.000091 -0.003269 0.000000 0.000000 0.000000
# 2 0.000091 0.020226 0.000314 0.000000 0.000000 0.000000
# 3 -0.003269 0.000314 0.014439 0.000000 0.000000 0.000000
# 4 0.000000 0.000000 0.000000 0.058441 0.000000 0.000000
# 5 0.000000 0.000000 0.000000 0.000000 0.024052 0.000000
# 6 0.000000 0.000000 0.000000 0.000000 0.000000 0.044634
#
#
# Mechanical properties :
#
#
# Convention : Reuss Voigt Hill
#
# Bulk Modulus (GPa) = 25.49482 30.23815 27.86649
# Shear Modulus (GPa) = 26.19393 30.03459 28.11426
#
# Velocity S-wave (km/s) = 3.53672 3.78713 3.66406
# Velocity P-wave (km/s) = 5.37144 5.79334 5.58637
#
# Compressibility (1/GPa) = 0.03922365
#
# Stress axis : x y z
#
# Youngs Moduli (GPa) = 97.20344 49.44049 69.25657
#
# Poissons Ratio (x) = -0.00449 0.22642
# Poissons Ratio (y) = -0.00882 -0.02173
# Poissons Ratio (z) = 0.31779 -0.01552
#
# Static dielectric constant tensor:
#      x y z
#    x 4.158710 0.000000 0.000000 
#    y 0.000000 4.115740 0.000000 
#    z 0.000000 0.000000 3.684130 
# 
# 
# High freq. dielectric constant tensor:
#      x y z
#    x 1.846600 0.000000 0.000000 
#    y 0.000000 1.810410 0.000000 
#    z 0.000000 0.000000 1.815260 
# 
# From -- ./inp_files/18003.got.cif
#   From: 2010.03.12/outbox.cif.g09.slc.cpg/sg62_10_cif.got.tgz:18003.got - 2010.04.10 19:12:36.
