data_PCOD8254161
_publ_section_title
;
Structure prediction by ZEFSAII (Michael W. Deem and Ramdas Pophale) SiO2 
 PCOD8254161
Probable space group: P N M A
;
_chemical_formula_sum "Si O2"
_cell_formula_units_Z 48
_cell_length_a 18.600661
_cell_length_b 9.046736
_cell_length_c 14.660503
_cell_angle_alpha 90.000000
_cell_angle_beta 90.000000
_cell_angle_gamma 90.000000
_cell_volume 2467.000093
_symmetry_space_group_name_H-M "P N M A"
_symmetry_group_IT_number 62
_symmetry_cell_setting 'orthorhombic'
loop_
_space_group_symop_operation_xyz
x,y,z
1/2-x,-y,1/2+z
1/2+x,1/2-y,1/2-z
-x,1/2+y,-z
-x,-y,-z
1/2+x,y,1/2-z
1/2-x,1/2+y,1/2+z
x,1/2-y,z
loop_
_atom_site_type_symbol
_atom_site_label
_atom_site_fract_x
_atom_site_fract_y
_atom_site_fract_z
Si Si1 0.018185 0.925604 0.595176
Si Si2 0.082966 0.922156 0.261271
Si Si3 0.324784 0.424180 0.154433
Si Si4 0.710255 0.078555 0.493553
Si Si5 0.935249 0.077595 0.948904
Si Si6 0.743625 0.580108 0.196042
O O1 0.013986 0.750000 0.584386
O O2 0.097245 0.980227 0.623847
O O3 0.000000 0.000000 0.500000
O O4 0.963568 0.977552 0.672403
O O5 0.074461 0.750000 0.288108
O O6 0.057708 0.953542 0.158584
O O7 0.165314 0.973573 0.271666
O O8 0.324538 0.250000 0.162486
O O9 0.305761 0.490356 0.252684
O O10 0.265883 0.479444 0.081917
O O11 0.690480 0.250000 0.479274
O O12 0.749221 0.051439 0.589180
O O13 0.638632 0.983728 0.488675
O O14 0.938215 0.250000 0.970268
O O15 0.000000 0.000000 0.000000
O O16 0.754868 0.750000 0.221576
#
# Coordination Sequence:
#
# PCOD8254161 Si02
#       6
#     8   8   8   8   8   8
#     4  11  24  41  63  92 125 162 203 251 303 362
#     4  10  22  42  64  89 124 164 204 249 303 362
#     4  10  22  40  61  89 123 156 198 251 301 357
#     4  10  21  39  63  88 120 158 198 249 307 359
#     4  11  24  41  62  88 123 163 206 253 302 364
#     4  10  21  39  63  89 119 157 201 250 303 361
#
# _framework density 19.456828999999999
#
# number of rings (size 3 to 8) (size 9 to 14) (size 15 to 20)
#    0.000    1.667    1.667    2.000    2.333    6.667 
#    0.000    1.667    0.000    0.000    0.000    0.000 
#    0.000    0.000    0.000    0.000    0.000    0.000 
#
# Total GULP energy -595468.015454 kJ/mol
# GULP energy per Si atom -12405.583655 kJ/mol
# Density = 1.941254 g / cm^3
# Si number density = 19.456829 Si / 1000 Ang^3
#
#
#
# Elastic Constant Matrix: (Units=GPa)
#
#
# Indices 1 2 3 4 5 6 
#
# 1 118.0783 42.8187 36.4823 0.0000 0.0000 0.0000
# 2 42.8187 57.2588 36.3625 0.0000 0.0000 0.0000
# 3 36.4823 36.3625 87.8722 0.0000 0.0000 0.0000
# 4 0.0000 0.0000 0.0000 37.5569 0.0000 0.0000
# 5 0.0000 0.0000 0.0000 0.0000 38.8878 0.0000
# 6 0.0000 0.0000 0.0000 0.0000 0.0000 35.5811
#
#
#
# Elastic Compliance Matrix: (Units=1/GPa)
#
#
# Indices 1 2 3 4 5 6 
#
# 1 0.011803 -0.007751 -0.001693 0.000000 0.000000 0.000000
# 2 -0.007751 0.028781 -0.008692 0.000000 0.000000 0.000000
# 3 -0.001693 -0.008692 0.015680 0.000000 0.000000 0.000000
# 4 0.000000 0.000000 0.000000 0.026626 0.000000 0.000000
# 5 0.000000 0.000000 0.000000 0.000000 0.025715 0.000000
# 6 0.000000 0.000000 0.000000 0.000000 0.000000 0.028105
#
#
# Mechanical properties :
#
#
# Convention : Reuss Voigt Hill
#
# Bulk Modulus (GPa) = 50.02018 54.94848 52.48433
# Shear Modulus (GPa) = 27.83278 32.24156 30.03717
#
# Velocity S-wave (km/s) = 3.78628 4.07514 3.93337
# Velocity P-wave (km/s) = 6.69916 7.10246 6.90375
#
# Compressibility (1/GPa) = 0.01999193
#
# Stress axis : x y z
#
# Youngs Moduli (GPa) = 84.72590 34.74548 63.77716
#
# Poissons Ratio (x) = 0.26932 0.10795
# Poissons Ratio (y) = 0.65674 0.55433
# Poissons Ratio (z) = 0.14341 0.30200
#
# Static dielectric constant tensor:
#      x y z
#    x 3.941130 0.000000 0.000000 
#    y 0.000000 3.704640 0.000000 
#    z 0.000000 0.000000 3.600590 
# 
# 
# High freq. dielectric constant tensor:
#      x y z
#    x 1.769720 0.000000 0.000000 
#    y 0.000000 1.753990 0.000000 
#    z 0.000000 0.000000 1.771830 
# 
# From -- ./inp_files/19526.got.cif
#   From: 2010.03.12/outbox.cif.g09.slc.cpg/sg62_10_cif.got.tgz:19526.got - 2010.04.10 19:12:36.
