data_PCOD8254549
_publ_section_title
;
Structure prediction by ZEFSAII (Michael W. Deem and Ramdas Pophale) SiO2 
 PCOD8254549
Probable space group: P N M A
;
_chemical_formula_sum "Si O2"
_cell_formula_units_Z 48
_cell_length_a 9.491116
_cell_length_b 9.101542
_cell_length_c 28.051927
_cell_angle_alpha 90.000000
_cell_angle_beta 90.000000
_cell_angle_gamma 90.000000
_cell_volume 2423.231796
_symmetry_space_group_name_H-M "P N M A"
_symmetry_group_IT_number 62
_symmetry_cell_setting 'orthorhombic'
loop_
_space_group_symop_operation_xyz
x,y,z
1/2-x,-y,1/2+z
1/2+x,1/2-y,1/2-z
-x,1/2+y,-z
-x,-y,-z
1/2+x,y,1/2-z
1/2-x,1/2+y,1/2+z
x,1/2-y,z
loop_
_atom_site_type_symbol
_atom_site_label
_atom_site_fract_x
_atom_site_fract_y
_atom_site_fract_z
Si Si1 0.202000 0.576303 0.713412
Si Si2 0.010279 0.084230 0.639614
Si Si3 0.520724 0.575741 0.697221
Si Si4 0.889772 0.917729 0.467815
Si Si5 0.803568 0.578098 0.120634
Si Si6 0.856528 0.576799 0.011523
O O1 0.200074 0.750000 0.711316
O O2 0.108993 0.520721 0.669833
O O3 0.362998 0.518377 0.709796
O O4 0.129434 0.521133 0.762183
O O5 0.022079 0.250000 0.659377
O O6 0.061596 0.077662 0.585998
O O7 0.848057 0.030220 0.641805
O O8 0.520954 0.750000 0.692191
O O9 0.571490 0.507401 0.647412
O O10 0.872779 0.750000 0.485336
O O11 0.745913 0.006321 0.472615
O O12 0.000000 0.000000 0.500000
O O13 0.829531 0.750000 0.127873
O O14 0.806948 0.538025 0.064911
O O15 0.866173 0.750000 0.003382
O O16 0.000000 0.500000 0.000000
#
# Coordination Sequence:
#
# PCOD8254549 Si02
#       6
#     8   8   8   8   8   8
#     4  10  22  40  62  90 120 153 195 246 298 355
#     4  10  22  40  61  87 120 157 199 244 297 357
#     4  10  22  40  62  89 120 153 196 246 298 356
#     4  11  22  40  63  90 123 164 208 253 301 357
#     4  10  22  41  61  85 120 159 198 245 298 356
#     4  11  24  42  61  88 125 164 208 255 304 362
#
# _framework density 19.808257999999999
#
# number of rings (size 3 to 8) (size 9 to 14) (size 15 to 20)
#    0.000    1.667    1.667    2.000    2.333    6.000 
#    0.000    0.000    0.000    0.000    0.000    0.000 
#    0.000    0.000    0.000    0.000    0.000    0.000 
#
# Total GULP energy -595292.091872 kJ/mol
# GULP energy per Si atom -12401.918581 kJ/mol
# Density = 1.976317 g / cm^3
# Si number density = 19.808258 Si / 1000 Ang^3
#
#
#
# Elastic Constant Matrix: (Units=GPa)
#
#
# Indices 1 2 3 4 5 6 
#
# 1 142.4763 36.9665 26.5153 0.0000 0.0000 0.0000
# 2 36.9665 59.7195 28.9195 0.0000 0.0000 0.0000
# 3 26.5153 28.9195 56.7148 0.0000 0.0000 0.0000
# 4 0.0000 0.0000 0.0000 36.4335 0.0000 0.0000
# 5 0.0000 0.0000 0.0000 0.0000 40.5467 0.0000
# 6 0.0000 0.0000 0.0000 0.0000 0.0000 36.1894
#
#
#
# Elastic Compliance Matrix: (Units=1/GPa)
#
#
# Indices 1 2 3 4 5 6 
#
# 1 0.008485 -0.004423 -0.001711 0.000000 0.000000 0.000000
# 2 -0.004423 0.024542 -0.010446 0.000000 0.000000 0.000000
# 3 -0.001711 -0.010446 0.023759 0.000000 0.000000 0.000000
# 4 0.000000 0.000000 0.000000 0.027447 0.000000 0.000000
# 5 0.000000 0.000000 0.000000 0.000000 0.024663 0.000000
# 6 0.000000 0.000000 0.000000 0.000000 0.000000 0.027632
#
#
# Mechanical properties :
#
#
# Convention : Reuss Voigt Hill
#
# Bulk Modulus (GPa) = 42.33035 49.30145 45.81590
# Shear Modulus (GPa) = 28.15892 33.73453 30.94673
#
# Velocity S-wave (km/s) = 3.77447 4.13128 3.95690
# Velocity P-wave (km/s) = 6.35704 6.90652 6.63747
#
# Compressibility (1/GPa) = 0.02362371
#
# Stress axis : x y z
#
# Youngs Moduli (GPa) = 117.85665 40.74721 42.08998
#
# Poissons Ratio (x) = 0.18024 0.07203
# Poissons Ratio (y) = 0.52133 0.43967
# Poissons Ratio (z) = 0.20169 0.42564
#
# Static dielectric constant tensor:
#      x y z
#    x 3.819250 0.000000 0.000000 
#    y 0.000000 3.552830 0.000000 
#    z 0.000000 0.000000 3.412590 
# 
# 
# High freq. dielectric constant tensor:
#      x y z
#    x 1.791220 0.000000 0.000000 
#    y 0.000000 1.768620 0.000000 
#    z 0.000000 0.000000 1.774730 
# 
# From -- ./inp_files/31978.got.cif
#   From: 2010.03.12/outbox.cif.g09.slc.cpg/sg62_16_cif.got.tgz:31978.got - 2010.04.10 19:12:36.
