data_PCOD8254102
_publ_section_title
;
Structure prediction by ZEFSAII (Michael W. Deem and Ramdas Pophale) SiO2 
 PCOD8254102
Probable space group: P N M A
;
_chemical_formula_sum "Si O2"
_cell_formula_units_Z 40
_cell_length_a 22.966455
_cell_length_b 8.709426
_cell_length_c 10.240130
_cell_angle_alpha 90.000000
_cell_angle_beta 90.000000
_cell_angle_gamma 90.000000
_cell_volume 2048.278320
_symmetry_space_group_name_H-M "P N M A"
_symmetry_group_IT_number 62
_symmetry_cell_setting 'orthorhombic'
loop_
_space_group_symop_operation_xyz
x,y,z
1/2-x,-y,1/2+z
1/2+x,1/2-y,1/2-z
-x,1/2+y,-z
-x,-y,-z
1/2+x,y,1/2-z
1/2-x,1/2+y,1/2+z
x,1/2-y,z
loop_
_atom_site_type_symbol
_atom_site_label
_atom_site_fract_x
_atom_site_fract_y
_atom_site_fract_z
Si Si1 0.617283 0.431786 0.732583
Si Si2 0.689372 0.930538 0.498626
Si Si3 0.820849 0.931105 0.490576
Si Si4 0.125726 0.071442 0.237980
Si Si5 0.498131 0.071463 0.357485
O O1 0.612995 0.250000 0.736660
O O2 0.652196 0.479835 0.604808
O O3 0.552341 0.497769 0.729465
O O4 0.649073 0.499876 0.860865
O O5 0.685625 0.750000 0.526688
O O6 0.755259 0.993852 0.504701
O O7 0.663970 0.966857 0.356774
O O8 0.817994 0.750000 0.475375
O O9 0.858577 0.979981 0.615575
O O10 0.140719 0.250000 0.212966
O O11 0.057865 0.038383 0.217727
O O12 0.485593 0.250000 0.374426
O O13 0.500000 0.000000 0.500000
#
# Coordination Sequence:
#
# PCOD8254102 Si02
#       5
#     8   8   8   8   8
#     4  11  22  38  60  85 117 154 190 236 291 342
#     4  11  21  36  60  87 116 150 194 239 280 341
#     4   9  21  39  58  85 118 151 189 237 291 342
#     4  10  21  39  61  83 113 153 192 235 288 342
#     4  11  22  37  60  86 114 149 196 241 285 342
#
# _framework density 19.528596
#
# number of rings (size 3 to 8) (size 9 to 14) (size 15 to 20)
#    0.000    1.600    2.000    3.000    0.000    1.600 
#    0.000    6.000    0.000    0.000    0.000    0.000 
#    0.000    0.000    0.000    0.000    0.000    0.000 
#
# Total GULP energy -496180.785416 kJ/mol
# GULP energy per Si atom -12404.519635 kJ/mol
# Density = 1.948415 g / cm^3
# Si number density = 19.528596 Si / 1000 Ang^3
#
#
#
# Elastic Constant Matrix: (Units=GPa)
#
#
# Indices 1 2 3 4 5 6 
#
# 1 150.1851 37.9326 48.9041 0.0000 0.0000 0.0000
# 2 37.9326 60.1971 14.8187 0.0000 0.0000 0.0000
# 3 48.9041 14.8187 97.9191 0.0000 0.0000 0.0000
# 4 0.0000 0.0000 0.0000 16.0167 0.0000 0.0000
# 5 0.0000 0.0000 0.0000 0.0000 26.1734 0.0000
# 6 0.0000 0.0000 0.0000 0.0000 0.0000 28.7086
#
#
#
# Elastic Compliance Matrix: (Units=1/GPa)
#
#
# Indices 1 2 3 4 5 6 
#
# 1 0.009118 -0.004803 -0.003827 0.000000 0.000000 0.000000
# 2 -0.004803 0.019785 -0.000595 0.000000 0.000000 0.000000
# 3 -0.003827 -0.000595 0.012214 0.000000 0.000000 0.000000
# 4 0.000000 0.000000 0.000000 0.062435 0.000000 0.000000
# 5 0.000000 0.000000 0.000000 0.000000 0.038207 0.000000
# 6 0.000000 0.000000 0.000000 0.000000 0.000000 0.034833
#
#
# Mechanical properties :
#
#
# Convention : Reuss Voigt Hill
#
# Bulk Modulus (GPa) = 44.11874 56.84579 50.48226
# Shear Modulus (GPa) = 24.67946 27.95614 26.31780
#
# Velocity S-wave (km/s) = 3.55880 3.78769 3.67502
# Velocity P-wave (km/s) = 6.28710 6.94989 6.62679
#
# Compressibility (1/GPa) = 0.02266611
#
# Stress axis : x y z
#
# Youngs Moduli (GPa) = 109.67597 50.54213 81.87447
#
# Poissons Ratio (x) = 0.24278 0.31332
# Poissons Ratio (y) = 0.52682 0.04874
# Poissons Ratio (z) = 0.41971 0.03009
#
# Static dielectric constant tensor:
#      x y z
#    x 3.905320 0.000000 0.000000 
#    y 0.000000 3.428690 0.000000 
#    z 0.000000 0.000000 3.770380 
# 
# 
# High freq. dielectric constant tensor:
#      x y z
#    x 1.778670 0.000000 0.000000 
#    y 0.000000 1.748430 0.000000 
#    z 0.000000 0.000000 1.766270 
# 
# From -- ./inp_files/9086.got.cif
#   From: 2010.03.12/outbox.cif.g09.slc.cpg/sg62_5_cif.got.tgz:9086.got - 2010.04.10 19:12:36.
