data_PCOD8254273
_publ_section_title
;
Structure prediction by ZEFSAII (Michael W. Deem and Ramdas Pophale) SiO2 
 PCOD8254273
Probable space group: P N M A
;
_chemical_formula_sum "Si O2"
_cell_formula_units_Z 40
_cell_length_a 10.129443
_cell_length_b 12.900636
_cell_length_c 12.891032
_cell_angle_alpha 90.000000
_cell_angle_beta 90.000000
_cell_angle_gamma 90.000000
_cell_volume 1684.551811
_symmetry_space_group_name_H-M "P N M A"
_symmetry_group_IT_number 62
_symmetry_cell_setting 'orthorhombic'
loop_
_space_group_symop_operation_xyz
x,y,z
1/2-x,-y,1/2+z
1/2+x,1/2-y,1/2-z
-x,1/2+y,-z
-x,-y,-z
1/2+x,y,1/2-z
1/2-x,1/2+y,1/2+z
x,1/2-y,z
loop_
_atom_site_type_symbol
_atom_site_label
_atom_site_fract_x
_atom_site_fract_y
_atom_site_fract_z
Si Si1 0.043042 0.872189 0.326846
Si Si2 0.330409 0.632340 0.545081
Si Si3 0.975899 0.130897 0.446715
Si Si4 0.667797 0.456255 0.670442
Si Si5 0.836267 0.628547 0.729995
O O1 0.029666 0.750000 0.336600
O O2 0.993903 0.919047 0.439273
O O3 0.952755 0.911934 0.234884
O O4 0.196733 0.894702 0.304211
O O5 0.365866 0.750000 0.511232
O O6 0.369604 0.555579 0.451786
O O7 0.396902 0.600900 0.655419
O O8 0.177788 0.623298 0.575974
O O9 0.022245 0.250000 0.446222
O O10 0.059893 0.079092 0.352811
O O11 0.695592 0.575425 0.702301
O O12 0.810331 0.750000 0.722327
#
# Coordination Sequence:
#
# PCOD8254273 Si02
#       5
#     8   8   8   8   8
#     4  10  21  40  64  94 125 157 206 262 310 363
#     4   9  19  38  61  85 120 161 203 252 311 366
#     4   8  17  35  60  83 113 159 205 248 299 360
#     4  11  23  37  66  92 122 167 209 248 310 371
#     4  10  22  37  57  89 125 161 204 256 302 362
#
# _framework density 23.745187999999999
#
# number of rings (size 3 to 8) (size 9 to 14) (size 15 to 20)
#    0.000    2.400    0.000    3.000    5.600    1.600 
#    0.000    3.000    0.000    7.200    0.000    0.000 
#    0.000    0.000    0.000    0.000    0.000    0.000 
#
# Total GULP energy -495870.909817 kJ/mol
# GULP energy per Si atom -12396.772745 kJ/mol
# Density = 2.369114 g / cm^3
# Si number density = 23.745188 Si / 1000 Ang^3
#
#
#
# Elastic Constant Matrix: (Units=GPa)
#
#
# Indices 1 2 3 4 5 6 
#
# 1 52.9496 3.1761 46.6707 0.0000 0.0000 0.0000
# 2 3.1761 50.9365 67.7222 0.0000 0.0000 0.0000
# 3 46.6707 67.7222 199.7429 0.0000 0.0000 0.0000
# 4 0.0000 0.0000 0.0000 37.0596 0.0000 0.0000
# 5 0.0000 0.0000 0.0000 0.0000 36.5043 0.0000
# 6 0.0000 0.0000 0.0000 0.0000 0.0000 21.7362
#
#
#
# Elastic Compliance Matrix: (Units=1/GPa)
#
#
# Indices 1 2 3 4 5 6 
#
# 1 0.027528 0.012445 -0.010651 0.000000 0.000000 0.000000
# 2 0.012445 0.041372 -0.016935 0.000000 0.000000 0.000000
# 3 -0.010651 -0.016935 0.013237 0.000000 0.000000 0.000000
# 4 0.000000 0.000000 0.000000 0.026984 0.000000 0.000000
# 5 0.000000 0.000000 0.000000 0.000000 0.027394 0.000000
# 6 0.000000 0.000000 0.000000 0.000000 0.000000 0.046006
#
#
# Mechanical properties :
#
#
# Convention : Reuss Voigt Hill
#
# Bulk Modulus (GPa) = 19.28491 59.86301 39.57396
# Shear Modulus (GPa) = 21.73088 31.46401 26.59745
#
# Velocity S-wave (km/s) = 3.02846 3.64410 3.35045
# Velocity P-wave (km/s) = 4.51309 6.55525 5.62758
#
# Compressibility (1/GPa) = 0.05185402
#
# Stress axis : x y z
#
# Youngs Moduli (GPa) = 36.32700 24.17105 75.54655
#
# Poissons Ratio (x) = -0.30081 0.80468
# Poissons Ratio (y) = -0.45209 1.27937
# Poissons Ratio (z) = 0.38693 0.40933
#
# Static dielectric constant tensor:
#      x y z
#    x 3.915320 0.000000 0.000000 
#    y 0.000000 4.446950 0.000000 
#    z 0.000000 0.000000 4.807040 
# 
# 
# High freq. dielectric constant tensor:
#      x y z
#    x 1.909750 0.000000 0.000000 
#    y 0.000000 1.959190 0.000000 
#    z 0.000000 0.000000 1.962610 
# 
# From -- ./inp_files/12044.got.cif
#   From: 2010.03.12/outbox.cif.g09.slc.cpg/sg62_7_cif.got.tgz:12044.got - 2010.04.10 19:12:36.
