data_PCOD8254978
_publ_section_title
;
Structure prediction by ZEFSAII (Michael W. Deem and Ramdas Pophale) SiO2 
 PCOD8254978
Probable space group: P N M A
;
_chemical_formula_sum "Si O2"
_cell_formula_units_Z 40
_cell_length_a 8.580668
_cell_length_b 18.591327
_cell_length_c 12.149338
_cell_angle_alpha 90.000000
_cell_angle_beta 90.000000
_cell_angle_gamma 90.000000
_cell_volume 1938.135350
_symmetry_space_group_name_H-M "P N M A"
_symmetry_group_IT_number 62
_symmetry_cell_setting 'orthorhombic'
loop_
_space_group_symop_operation_xyz
x,y,z
1/2-x,-y,1/2+z
1/2+x,1/2-y,1/2-z
-x,1/2+y,-z
-x,-y,-z
1/2+x,y,1/2-z
1/2-x,1/2+y,1/2+z
x,1/2-y,z
loop_
_atom_site_type_symbol
_atom_site_label
_atom_site_fract_x
_atom_site_fract_y
_atom_site_fract_z
Si Si1 0.762958 0.899564 0.221892
Si Si2 0.559183 0.667803 0.387288
Si Si3 0.657328 0.956922 0.013545
Si Si4 0.200203 0.442516 0.199687
Si Si5 0.130199 0.920779 0.902466
O O1 0.711938 0.839300 0.310079
O O2 0.643066 0.903262 0.117538
O O3 0.930722 0.881122 0.171842
O O4 0.762845 0.976280 0.282134
O O5 0.505069 0.750000 0.394476
O O6 0.594850 0.642396 0.511600
O O7 0.806931 0.009457 0.032728
O O8 0.699354 0.912222 0.903623
O O9 0.500000 0.000000 0.000000
O O10 0.238002 0.397563 0.311591
O O11 0.018805 0.440313 0.171934
#
# Coordination Sequence:
#
# PCOD8254978 Si02
#       5
#     8   8   8   8   8
#     4  11  22  38  65  95 127 162 216 263 331 369
#     4  12  25  44  63  89 135 180 213 252 306 402
#     4  11  20  35  63  99 132 154 200 280 335 372
#     4  11  20  37  65  95 129 156 203 288 325 368
#     4  11  23  40  62  97 130 167 212 261 334 375
#
# _framework density 20.638393000000001
#
# number of rings (size 3 to 8) (size 9 to 14) (size 15 to 20)
#    0.000    0.800    4.000    7.200    0.000    0.000 
#    0.000    1.000    0.000    0.000    0.000    0.000 
#    0.000    0.000    0.000    0.000    0.000    0.000 
#
# Total GULP energy -495795.752204 kJ/mol
# GULP energy per Si atom -12394.893805 kJ/mol
# Density = 2.059142 g / cm^3
# Si number density = 20.638393 Si / 1000 Ang^3
#
#
#
# Elastic Constant Matrix: (Units=GPa)
#
#
# Indices 1 2 3 4 5 6 
#
# 1 107.1814 18.0515 44.6161 0.0000 0.0000 0.0000
# 2 18.0515 67.1923 34.1487 0.0000 0.0000 0.0000
# 3 44.6161 34.1487 158.6650 0.0000 0.0000 0.0000
# 4 0.0000 0.0000 0.0000 23.6683 0.0000 0.0000
# 5 0.0000 0.0000 0.0000 0.0000 50.6304 0.0000
# 6 0.0000 0.0000 0.0000 0.0000 0.0000 15.7015
#
#
#
# Elastic Compliance Matrix: (Units=1/GPa)
#
#
# Indices 1 2 3 4 5 6 
#
# 1 0.010702 -0.001511 -0.002684 0.000000 0.000000 0.000000
# 2 -0.001511 0.016924 -0.003218 0.000000 0.000000 0.000000
# 3 -0.002684 -0.003218 0.007750 0.000000 0.000000 0.000000
# 4 0.000000 0.000000 0.000000 0.042251 0.000000 0.000000
# 5 0.000000 0.000000 0.000000 0.000000 0.019751 0.000000
# 6 0.000000 0.000000 0.000000 0.000000 0.000000 0.063688
#
#
# Mechanical properties :
#
#
# Convention : Reuss Voigt Hill
#
# Bulk Modulus (GPa) = 48.66132 58.51904 53.59018
# Shear Modulus (GPa) = 27.36123 33.74822 30.55472
#
# Velocity S-wave (km/s) = 3.64503 4.04817 3.85187
# Velocity P-wave (km/s) = 6.42995 7.08987 6.76795
#
# Compressibility (1/GPa) = 0.02055020
#
# Stress axis : x y z
#
# Youngs Moduli (GPa) = 93.44265 59.08830 129.03481
#
# Poissons Ratio (x) = 0.08928 0.34634
# Poissons Ratio (y) = 0.14119 0.41518
# Poissons Ratio (z) = 0.25081 0.19012
#
# Static dielectric constant tensor:
#      x y z
#    x 3.815610 0.000000 0.000000 
#    y 0.000000 3.120750 0.000000 
#    z 0.000000 0.000000 4.550420 
# 
# 
# High freq. dielectric constant tensor:
#      x y z
#    x 1.816710 0.000000 0.000000 
#    y 0.000000 1.729390 0.000000 
#    z 0.000000 0.000000 1.847780 
# 
# From -- ./inp_files/11065.got.cif
#   From: 2010.03.12/outbox.cif.g09.slc.cpg/sg62_6_cif.got.tgz:11065.got - 2010.04.10 19:12:36.
