data_PCOD8254487
_publ_section_title
;
Structure prediction by ZEFSAII (Michael W. Deem and Ramdas Pophale) SiO2 
 PCOD8254487
Probable space group: P N M A
;
_chemical_formula_sum "Si O2"
_cell_formula_units_Z 48
_cell_length_a 21.877230
_cell_length_b 8.956042
_cell_length_c 12.720330
_cell_angle_alpha 90.000000
_cell_angle_beta 90.000000
_cell_angle_gamma 90.000000
_cell_volume 2492.337388
_symmetry_space_group_name_H-M "P N M A"
_symmetry_group_IT_number 62
_symmetry_cell_setting 'orthorhombic'
loop_
_space_group_symop_operation_xyz
x,y,z
1/2-x,-y,1/2+z
1/2+x,1/2-y,1/2-z
-x,1/2+y,-z
-x,-y,-z
1/2+x,y,1/2-z
1/2-x,1/2+y,1/2+z
x,1/2-y,z
loop_
_atom_site_type_symbol
_atom_site_label
_atom_site_fract_x
_atom_site_fract_y
_atom_site_fract_z
Si Si1 0.688007 0.926835 0.014165
Si Si2 0.909446 0.924815 0.117219
Si Si3 0.490976 0.581508 0.727713
Si Si4 0.818644 0.574979 0.935701
Si Si5 0.384769 0.080857 0.184552
Si Si6 0.864931 0.427202 0.732338
O O1 0.683185 0.750000 0.017922
O O2 0.664731 0.991088 0.125128
O O3 0.757297 0.979254 0.994077
O O4 0.644562 0.988462 0.920630
O O5 0.920239 0.750000 0.129566
O O6 0.974986 0.010095 0.125003
O O7 0.865900 0.981343 0.213729
O O8 0.877071 0.964297 0.007563
O O9 0.469952 0.750000 0.699387
O O10 0.540679 0.580365 0.823174
O O11 0.433827 0.484491 0.761330
O O12 0.815445 0.750000 0.911410
O O13 0.824018 0.487222 0.827291
O O14 0.360871 0.250000 0.202400
O O15 0.865467 0.250000 0.735502
#
# Coordination Sequence:
#
# PCOD8254487 Si02
#       6
#     8   8   8   8   8   8
#     4   9  20  39  59  82 115 152 185 230 284 333
#     4   9  18  34  58  85 111 145 187 231 279 329
#     4   9  19  36  59  85 114 149 188 229 281 341
#     4  10  22  39  59  81 116 154 185 229 283 337
#     4   8  17  35  59  82 109 148 187 225 278 335
#     4  11  23  37  58  87 115 145 189 237 281 332
#
# _framework density 19.259031
#
# number of rings (size 3 to 8) (size 9 to 14) (size 15 to 20)
#    1.000    1.667    0.000    1.000    2.333    2.667 
#    0.000    3.333    0.000    0.000    0.000    0.000 
#    0.000    0.000    0.000    0.000    0.000    0.000 
#
# Total GULP energy -594851.367245 kJ/mol
# GULP energy per Si atom -12392.736818 kJ/mol
# Density = 1.921520 g / cm^3
# Si number density = 19.259031 Si / 1000 Ang^3
#
#
#
# Elastic Constant Matrix: (Units=GPa)
#
#
# Indices 1 2 3 4 5 6 
#
# 1 75.5189 19.7201 13.7248 0.0000 0.0000 0.0000
# 2 19.7201 59.3092 33.8333 0.0000 0.0000 0.0000
# 3 13.7248 33.8333 90.7797 0.0000 0.0000 0.0000
# 4 0.0000 0.0000 0.0000 25.5033 0.0000 0.0000
# 5 0.0000 0.0000 0.0000 0.0000 34.4573 0.0000
# 6 0.0000 0.0000 0.0000 0.0000 0.0000 19.9532
#
#
#
# Elastic Compliance Matrix: (Units=1/GPa)
#
#
# Indices 1 2 3 4 5 6 
#
# 1 0.014519 -0.004541 -0.000503 0.000000 0.000000 0.000000
# 2 -0.004541 0.022834 -0.007823 0.000000 0.000000 0.000000
# 3 -0.000503 -0.007823 0.014007 0.000000 0.000000 0.000000
# 4 0.000000 0.000000 0.000000 0.039211 0.000000 0.000000
# 5 0.000000 0.000000 0.000000 0.000000 0.029021 0.000000
# 6 0.000000 0.000000 0.000000 0.000000 0.000000 0.050117
#
#
# Mechanical properties :
#
#
# Convention : Reuss Voigt Hill
#
# Bulk Modulus (GPa) = 39.02293 40.01824 39.52059
# Shear Modulus (GPa) = 24.51164 26.53808 25.52486
#
# Velocity S-wave (km/s) = 3.57141 3.71611 3.64448
# Velocity P-wave (km/s) = 6.10842 6.26392 6.18666
#
# Compressibility (1/GPa) = 0.02562596
#
# Stress axis : x y z
#
# Youngs Moduli (GPa) = 68.87632 43.79528 71.39047
#
# Poissons Ratio (x) = 0.19886 0.03589
# Poissons Ratio (y) = 0.31274 0.55852
# Poissons Ratio (z) = 0.03463 0.34263
#
# Static dielectric constant tensor:
#      x y z
#    x 3.451120 0.000000 0.000000 
#    y 0.000000 3.325860 0.000000 
#    z 0.000000 0.000000 3.549750 
# 
# 
# High freq. dielectric constant tensor:
#      x y z
#    x 1.747340 0.000000 0.000000 
#    y 0.000000 1.735080 0.000000 
#    z 0.000000 0.000000 1.743050 
# 
# From -- ./inp_files/20043.got.cif
#   From: 2010.03.12/outbox.cif.g09.slc.cpg/sg62_11_cif.got.tgz:20043.got - 2010.04.10 19:12:36.
