data_PCOD8254076
_publ_section_title
;
Structure prediction by ZEFSAII (Michael W. Deem and Ramdas Pophale) SiO2 
 PCOD8254076
Probable space group: P N M A
;
_chemical_formula_sum "Si O2"
_cell_formula_units_Z 64
_cell_length_a 17.375998
_cell_length_b 8.776536
_cell_length_c 21.972998
_cell_angle_alpha 90.000000
_cell_angle_beta 90.000000
_cell_angle_gamma 90.000000
_cell_volume 3350.905750
_symmetry_space_group_name_H-M "P N M A"
_symmetry_group_IT_number 62
_symmetry_cell_setting 'orthorhombic'
loop_
_space_group_symop_operation_xyz
x,y,z
1/2-x,-y,1/2+z
1/2+x,1/2-y,1/2-z
-x,1/2+y,-z
-x,-y,-z
1/2+x,y,1/2-z
1/2-x,1/2+y,1/2+z
x,1/2-y,z
loop_
_atom_site_type_symbol
_atom_site_label
_atom_site_fract_x
_atom_site_fract_y
_atom_site_fract_z
Si Si1 0.162980 0.923433 0.219858
Si Si2 0.924195 0.572115 0.433694
Si Si3 0.628930 0.070217 0.470922
Si Si4 0.972814 0.430546 0.867341
Si Si5 0.127501 0.568646 0.895817
Si Si6 0.741520 0.075353 0.897964
Si Si7 0.288829 0.929405 0.843008
Si Si8 0.078158 0.070319 0.428293
O O1 0.159143 0.750000 0.242731
O O2 0.081413 0.972347 0.190177
O O3 0.229093 0.945473 0.170054
O O4 0.186246 0.029594 0.275190
O O5 0.941553 0.750000 0.432598
O O6 0.847804 0.528808 0.396600
O O7 0.911869 0.513623 0.502624
O O8 0.996529 0.489038 0.402401
O O9 0.615295 0.250000 0.470566
O O10 0.564133 0.990925 0.429790
O O11 0.622075 0.007534 0.538539
O O12 0.713273 0.031324 0.445033
O O13 0.982311 0.250000 0.873302
O O14 0.054791 0.510971 0.856341
O O15 0.126063 0.750000 0.902451
O O16 0.204217 0.509741 0.861153
O O17 0.752238 0.250000 0.920380
O O18 0.288188 0.750000 0.849020
O O19 0.351882 0.999790 0.889206
O O20 0.079160 0.250000 0.423309
#
# Coordination Sequence:
#
# PCOD8254076 Si02
#       8
#     8   8   8   8   8   8   8   8
#     4   9  20  38  58  77 104 142 184 228 272 321
#     4   9  17  32  55  80 107 138 176 220 270 326
#     4  11  21  33  55  87 118 148 180 223 276 330
#     4  10  21  39  59  82 112 147 184 227 275 327
#     4  11  22  37  57  83 113 147 184 226 276 331
#     4   9  18  35  56  79 109 146 184 225 273 325
#     4  10  22  39  57  77 108 148 185 226 276 325
#     4   9  18  33  52  77 108 140 173 218 271 324
#
# _framework density 19.099314
#
# number of rings (size 3 to 8) (size 9 to 14) (size 15 to 20)
#    0.000    2.250    0.000    3.750    0.000    6.500 
#    2.250    2.500    0.000    0.000    0.000    0.000 
#    0.000    0.000    0.000    0.000    0.000    0.000 
#
# Total GULP energy -793644.027225 kJ/mol
# GULP energy per Si atom -12400.687925 kJ/mol
# Density = 1.905584 g / cm^3
# Si number density = 19.099314 Si / 1000 Ang^3
#
#
#
# Elastic Constant Matrix: (Units=GPa)
#
#
# Indices 1 2 3 4 5 6 
#
# 1 170.1944 26.8345 56.1175 0.0000 0.0000 0.0000
# 2 26.8345 45.0864 18.4981 0.0000 0.0000 0.0000
# 3 56.1175 18.4981 72.6262 0.0000 0.0000 0.0000
# 4 0.0000 0.0000 0.0000 29.6472 0.0000 0.0000
# 5 0.0000 0.0000 0.0000 0.0000 15.5032 0.0000
# 6 0.0000 0.0000 0.0000 0.0000 0.0000 33.0987
#
#
#
# Elastic Compliance Matrix: (Units=1/GPa)
#
#
# Indices 1 2 3 4 5 6 
#
# 1 0.008134 -0.002527 -0.005642 0.000000 0.000000 0.000000
# 2 -0.002527 0.025553 -0.004556 0.000000 0.000000 0.000000
# 3 -0.005642 -0.004556 0.019289 0.000000 0.000000 0.000000
# 4 0.000000 0.000000 0.000000 0.033730 0.000000 0.000000
# 5 0.000000 0.000000 0.000000 0.000000 0.064503 0.000000
# 6 0.000000 0.000000 0.000000 0.000000 0.000000 0.030213
#
#
# Mechanical properties :
#
#
# Convention : Reuss Voigt Hill
#
# Bulk Modulus (GPa) = 36.32796 54.53416 45.43106
# Shear Modulus (GPa) = 23.14326 28.08028 25.61177
#
# Velocity S-wave (km/s) = 3.48477 3.83851 3.66591
# Velocity P-wave (km/s) = 5.93745 6.94698 6.46196
#
# Compressibility (1/GPa) = 0.02752701
#
# Stress axis : x y z
#
# Youngs Moduli (GPa) = 122.93745 39.13482 51.84347
#
# Poissons Ratio (x) = 0.09888 0.29248
# Poissons Ratio (y) = 0.31062 0.23620
# Poissons Ratio (z) = 0.69357 0.17830
#
# Static dielectric constant tensor:
#      x y z
#    x 3.920490 0.000000 0.000000 
#    y 0.000000 3.406820 0.000000 
#    z 0.000000 0.000000 3.310660 
# 
# 
# High freq. dielectric constant tensor:
#      x y z
#    x 1.759150 0.000000 0.000000 
#    y 0.000000 1.735270 0.000000 
#    z 0.000000 0.000000 1.723790 
# 
# From -- ./inp_files/27694.got.cif
#   From: 2010.03.12/outbox.cif.g09.slc.cpg/sg62_14_cif.got.tgz:27694.got - 2010.04.10 19:12:36.
