data_PCOD8254643
_publ_section_title
;
Structure prediction by ZEFSAII (Michael W. Deem and Ramdas Pophale) SiO2 
 PCOD8254643
Probable space group: P N M A
;
_chemical_formula_sum "Si O2"
_cell_formula_units_Z 32
_cell_length_a 13.508018
_cell_length_b 17.292076
_cell_length_c 5.070820
_cell_angle_alpha 90.000000
_cell_angle_beta 90.000000
_cell_angle_gamma 90.000000
_cell_volume 1184.450623
_symmetry_space_group_name_H-M "P N M A"
_symmetry_group_IT_number 62
_symmetry_cell_setting 'orthorhombic'
loop_
_space_group_symop_operation_xyz
x,y,z
1/2-x,-y,1/2+z
1/2+x,1/2-y,1/2-z
-x,1/2+y,-z
-x,-y,-z
1/2+x,y,1/2-z
1/2-x,1/2+y,1/2+z
x,1/2-y,z
loop_
_atom_site_type_symbol
_atom_site_label
_atom_site_fract_x
_atom_site_fract_y
_atom_site_fract_z
Si Si1 0.458444 0.662425 0.055350
Si Si2 0.750721 0.836701 0.668131
Si Si3 0.453236 0.413841 0.443897
Si Si4 0.301436 0.967468 0.481820
O O1 0.499259 0.750000 0.016831
O O2 0.340056 0.661553 0.041022
O O3 0.506671 0.603875 0.846526
O O4 0.481674 0.630003 0.341974
O O5 0.721804 0.750000 0.749809
O O6 0.658113 0.879482 0.539111
O O7 0.789388 0.878469 0.935823
O O8 0.420508 0.506398 0.496153
O O9 0.262678 0.981279 0.187840
#
# Coordination Sequence:
#
# PCOD8254643 Si02
#       4
#     8   8   8   8
#     4  11  24  40  64  98 127 166 219 255 309 386
#     4  10  23  43  67  94 129 168 209 264 318 370
#     4  11  23  42  66  92 131 169 206 264 317 367
#     4  10  22  41  65  94 125 166 216 256 310 383
#
# _framework density 27.016743999999999
#
# number of rings (size 3 to 8) (size 9 to 14) (size 15 to 20)
#    0.000    1.500    0.000    5.250    0.000    8.000 
#    0.000   13.750    0.000    0.000    0.000    0.000 
#    0.000    0.000    0.000    0.000    0.000    0.000 
#
# Total GULP energy -396922.650246 kJ/mol
# GULP energy per Si atom -12403.832820 kJ/mol
# Density = 2.695525 g / cm^3
# Si number density = 27.016744 Si / 1000 Ang^3
#
#
#
# Elastic Constant Matrix: (Units=GPa)
#
#
# Indices 1 2 3 4 5 6 
#
# 1 84.7400 -7.6327 26.7001 0.0000 0.0000 0.0000
# 2 -7.6327 141.8406 40.6190 0.0000 0.0000 0.0000
# 3 26.7001 40.6190 90.2760 0.0000 0.0000 0.0000
# 4 0.0000 0.0000 0.0000 33.0512 0.0000 0.0000
# 5 0.0000 0.0000 0.0000 0.0000 47.2307 0.0000
# 6 0.0000 0.0000 0.0000 0.0000 0.0000 24.7117
#
#
#
# Elastic Compliance Matrix: (Units=1/GPa)
#
#
# Indices 1 2 3 4 5 6 
#
# 1 0.013565 0.002157 -0.004982 0.000000 0.000000 0.000000
# 2 0.002157 0.008436 -0.004434 0.000000 0.000000 0.000000
# 3 -0.004982 -0.004434 0.014546 0.000000 0.000000 0.000000
# 4 0.000000 0.000000 0.000000 0.030256 0.000000 0.000000
# 5 0.000000 0.000000 0.000000 0.000000 0.021173 0.000000
# 6 0.000000 0.000000 0.000000 0.000000 0.000000 0.040467
#
#
# Mechanical properties :
#
#
# Convention : Reuss Voigt Hill
#
# Bulk Modulus (GPa) = 45.39670 48.46993 46.93332
# Shear Modulus (GPa) = 33.26618 38.14340 35.70479
#
# Velocity S-wave (km/s) = 3.51282 3.76153 3.63930
# Velocity P-wave (km/s) = 5.77000 6.07002 5.92191
#
# Compressibility (1/GPa) = 0.02202803
#
# Stress axis : x y z
#
# Youngs Moduli (GPa) = 73.71952 118.54151 68.74948
#
# Poissons Ratio (x) = -0.25567 0.34254
# Poissons Ratio (y) = -0.15900 0.30480
# Poissons Ratio (z) = 0.36730 0.52556
#
# Static dielectric constant tensor:
#      x y z
#    x 5.831760 0.000000 0.000000 
#    y 0.000000 5.780070 0.000000 
#    z 0.000000 0.000000 4.332150 
# 
# 
# High freq. dielectric constant tensor:
#      x y z
#    x 2.135400 0.000000 0.000000 
#    y 0.000000 2.119420 0.000000 
#    z 0.000000 0.000000 2.072620 
# 
# From -- ./inp_files/923.got.cif
#   From: 2010.03.12/outbox.cif.g09.slc.cpg/sg62_1_cif.got.tgz:923.got - 2010.04.10 19:12:36.
