data_PCOD8254631
_publ_section_title
;
Structure prediction by ZEFSAII (Michael W. Deem and Ramdas Pophale) SiO2 
 PCOD8254631
Probable space group: P N M A
;
_chemical_formula_sum "Si O2"
_cell_formula_units_Z 64
_cell_length_a 23.524818
_cell_length_b 8.889433
_cell_length_c 15.041979
_cell_angle_alpha 90.000000
_cell_angle_beta 90.000000
_cell_angle_gamma 90.000000
_cell_volume 3145.613146
_symmetry_space_group_name_H-M "P N M A"
_symmetry_group_IT_number 62
_symmetry_cell_setting 'orthorhombic'
loop_
_space_group_symop_operation_xyz
x,y,z
1/2-x,-y,1/2+z
1/2+x,1/2-y,1/2-z
-x,1/2+y,-z
-x,-y,-z
1/2+x,y,1/2-z
1/2-x,1/2+y,1/2+z
x,1/2-y,z
loop_
_atom_site_type_symbol
_atom_site_label
_atom_site_fract_x
_atom_site_fract_y
_atom_site_fract_z
Si Si1 0.245635 0.927983 0.733755
Si Si2 0.666683 0.570763 0.927630
Si Si3 0.130380 0.922534 0.004871
Si Si4 0.042701 0.426342 0.568896
Si Si5 0.371027 0.572519 0.686720
Si Si6 0.465249 0.926901 0.421175
Si Si7 0.973424 0.076389 0.743273
Si Si8 0.747608 0.423689 0.065390
O O1 0.242561 0.750000 0.729974
O O2 0.199362 0.989464 0.661870
O O3 0.308117 0.986281 0.708284
O O4 0.236243 0.983455 0.835456
O O5 0.663001 0.750000 0.927803
O O6 0.604080 0.502950 0.931745
O O7 0.698690 0.519790 0.017770
O O8 0.111581 0.750000 0.004722
O O9 0.197378 0.942714 0.995618
O O10 0.098773 0.007207 0.924219
O O11 0.108621 0.995422 0.096066
O O12 0.049665 0.250000 0.548908
O O13 0.000000 0.500000 0.500000
O O14 0.014786 0.459307 0.663062
O O15 0.372506 0.750000 0.676242
O O16 0.415012 0.519731 0.763283
O O17 0.463523 0.750000 0.432838
O O18 0.491649 0.976735 0.328548
O O19 0.500000 0.000000 0.500000
O O20 0.955651 0.250000 0.746769
O O21 0.727649 0.250000 0.071096
#
# Coordination Sequence:
#
# PCOD8254631 Si02
#       8
#     8   8   8   8   8   8   8   8
#     4   9  21  40  62  92 126 161 204 254 312 374
#     4  11  23  43  68  97 130 165 210 266 318 377
#     4  11  22  36  58  88 125 164 204 252 307 370
#     4  11  26  48  69  93 125 168 218 270 322 375
#     4  11  21  37  63  90 122 163 208 256 312 377
#     4  11  22  37  58  87 123 162 200 248 307 373
#     4  10  24  43  62  88 125 162 207 261 313 370
#     4  10  22  41  64  90 123 166 208 254 311 375
#
# _framework density 20.345794999999999
#
# number of rings (size 3 to 8) (size 9 to 14) (size 15 to 20)
#    0.000    1.500    2.500    1.875    3.500    2.000 
#    0.000    1.875    0.000    0.000    0.000    0.000 
#    0.000    0.000    0.000    0.000    0.000    0.000 
#
# Total GULP energy -793596.584909 kJ/mol
# GULP energy per Si atom -12399.946639 kJ/mol
# Density = 2.029949 g / cm^3
# Si number density = 20.345795 Si / 1000 Ang^3
#
#
#
# Elastic Constant Matrix: (Units=GPa)
#
#
# Indices 1 2 3 4 5 6 
#
# 1 146.0223 58.7274 54.7223 0.0000 0.0000 0.0000
# 2 58.7274 84.7004 45.1091 0.0000 0.0000 0.0000
# 3 54.7223 45.1091 120.6721 0.0000 0.0000 0.0000
# 4 0.0000 0.0000 0.0000 27.3276 0.0000 0.0000
# 5 0.0000 0.0000 0.0000 0.0000 31.1491 0.0000
# 6 0.0000 0.0000 0.0000 0.0000 0.0000 36.5252
#
#
#
# Elastic Compliance Matrix: (Units=1/GPa)
#
#
# Indices 1 2 3 4 5 6 
#
# 1 0.010039 -0.005663 -0.002435 0.000000 0.000000 0.000000
# 2 -0.005663 0.017936 -0.004137 0.000000 0.000000 0.000000
# 3 -0.002435 -0.004137 0.010938 0.000000 0.000000 0.000000
# 4 0.000000 0.000000 0.000000 0.036593 0.000000 0.000000
# 5 0.000000 0.000000 0.000000 0.000000 0.032104 0.000000
# 6 0.000000 0.000000 0.000000 0.000000 0.000000 0.027378
#
#
# Mechanical properties :
#
#
# Convention : Reuss Voigt Hill
#
# Bulk Modulus (GPa) = 69.24305 74.27917 71.76111
# Shear Modulus (GPa) = 30.43741 31.85611 31.14676
#
# Velocity S-wave (km/s) = 3.87202 3.96123 3.91688
# Velocity P-wave (km/s) = 7.35507 7.58349 7.47015
#
# Compressibility (1/GPa) = 0.01444188
#
# Stress axis : x y z
#
# Youngs Moduli (GPa) = 99.61570 55.75356 91.42806
#
# Poissons Ratio (x) = 0.31575 0.22265
# Poissons Ratio (y) = 0.56416 0.37820
# Poissons Ratio (z) = 0.24259 0.23063
#
# Static dielectric constant tensor:
#      x y z
#    x 3.890040 0.000000 0.000000 
#    y 0.000000 3.608380 0.000000 
#    z 0.000000 0.000000 3.765290 
# 
# 
# High freq. dielectric constant tensor:
#      x y z
#    x 1.809730 0.000000 0.000000 
#    y 0.000000 1.786230 0.000000 
#    z 0.000000 0.000000 1.798470 
# 
# From -- ./inp_files/20787.got.cif
#   From: 2010.03.12/outbox.cif.g09.slc.cpg/sg62_11_cif.got.tgz:20787.got - 2010.04.10 19:12:36.
