data_PCOD8254494
_publ_section_title
;
Structure prediction by ZEFSAII (Michael W. Deem and Ramdas Pophale) SiO2 
 PCOD8254494
Probable space group: P N M A
;
_chemical_formula_sum "Si O2"
_cell_formula_units_Z 32
_cell_length_a 13.836575
_cell_length_b 10.168798
_cell_length_c 10.775012
_cell_angle_alpha 90.000000
_cell_angle_beta 90.000000
_cell_angle_gamma 90.000000
_cell_volume 1516.058586
_symmetry_space_group_name_H-M "P N M A"
_symmetry_group_IT_number 62
_symmetry_cell_setting 'orthorhombic'
loop_
_space_group_symop_operation_xyz
x,y,z
1/2-x,-y,1/2+z
1/2+x,1/2-y,1/2-z
-x,1/2+y,-z
-x,-y,-z
1/2+x,y,1/2-z
1/2-x,1/2+y,1/2+z
x,1/2-y,z
loop_
_atom_site_type_symbol
_atom_site_label
_atom_site_fract_x
_atom_site_fract_y
_atom_site_fract_z
Si Si1 0.920300 0.456186 0.320814
Si Si2 0.787948 0.905908 0.743857
Si Si3 0.591260 0.891788 0.096913
Si Si4 0.961006 0.891060 0.908614
O O1 0.812722 0.479667 0.269348
O O2 0.914501 0.376452 0.448750
O O3 0.982984 0.587774 0.347324
O O4 0.976160 0.374864 0.215726
O O5 0.776264 0.750000 0.709318
O O6 0.851078 0.922572 0.868964
O O7 0.838649 0.986958 0.632479
O O8 0.628264 0.750000 0.147835
O O9 0.964754 0.750000 0.977833
O O10 0.000000 0.000000 0.000000
#
# Coordination Sequence:
#
# PCOD8254494 Si02
#       4
#     8   8   8   8
#     4  10  22  41  64  87 127 166 201 248 314 371
#     4  10  22  40  63  90 123 166 205 247 312 372
#     4  10  22  40  65  94 122 158 211 263 304 360
#     4  10  22  39  60  87 123 160 198 245 300 360
#
# _framework density 21.107365000000001
#
# number of rings (size 3 to 8) (size 9 to 14) (size 15 to 20)
#    0.000    2.000    0.000    2.250    3.500   12.000 
#    0.000    0.000    0.000    0.000    0.000    0.000 
#    0.000    0.000    0.000    0.000    0.000    0.000 
#
# Total GULP energy -396439.700183 kJ/mol
# GULP energy per Si atom -12388.740631 kJ/mol
# Density = 2.105932 g / cm^3
# Si number density = 21.107365 Si / 1000 Ang^3
#
#
#
# Elastic Constant Matrix: (Units=GPa)
#
#
# Indices 1 2 3 4 5 6 
#
# 1 140.6193 35.4489 30.6708 0.0000 0.0000 0.0000
# 2 35.4489 117.8276 46.7931 0.0000 0.0000 0.0000
# 3 30.6708 46.7931 80.5570 0.0000 0.0000 0.0000
# 4 0.0000 0.0000 0.0000 15.0584 0.0000 0.0000
# 5 0.0000 0.0000 0.0000 0.0000 27.9557 0.0000
# 6 0.0000 0.0000 0.0000 0.0000 0.0000 12.5813
#
#
#
# Elastic Compliance Matrix: (Units=1/GPa)
#
#
# Indices 1 2 3 4 5 6 
#
# 1 0.007967 -0.001550 -0.002133 0.000000 0.000000 0.000000
# 2 -0.001550 0.011333 -0.005993 0.000000 0.000000 0.000000
# 3 -0.002133 -0.005993 0.016707 0.000000 0.000000 0.000000
# 4 0.000000 0.000000 0.000000 0.066408 0.000000 0.000000
# 5 0.000000 0.000000 0.000000 0.000000 0.035771 0.000000
# 6 0.000000 0.000000 0.000000 0.000000 0.000000 0.079483
#
#
# Mechanical properties :
#
#
# Convention : Reuss Voigt Hill
#
# Bulk Modulus (GPa) = 60.04072 62.75885 61.39978
# Shear Modulus (GPa) = 20.61229 26.19183 23.40206
#
# Velocity S-wave (km/s) = 3.12836 3.52644 3.33335
# Velocity P-wave (km/s) = 6.44639 6.81020 6.63079
#
# Compressibility (1/GPa) = 0.01665536
#
# Stress axis : x y z
#
# Youngs Moduli (GPa) = 125.51179 88.23552 59.85535
#
# Poissons Ratio (x) = 0.13675 0.12768
# Poissons Ratio (y) = 0.19453 0.35872
# Poissons Ratio (z) = 0.26774 0.52880
#
# Static dielectric constant tensor:
#      x y z
#    x 4.071200 0.000000 0.000000 
#    y 0.000000 3.634460 0.000000 
#    z 0.000000 0.000000 3.666670 
# 
# 
# High freq. dielectric constant tensor:
#      x y z
#    x 1.833670 0.000000 0.000000 
#    y 0.000000 1.821610 0.000000 
#    z 0.000000 0.000000 1.812620 
# 
# From -- ./inp_files/12759.got.cif
#   From: 2010.03.12/outbox.cif.g09.slc.cpg/sg62_7_cif.got.tgz:12759.got - 2010.04.10 19:12:36.
