data_PCOD8254300
_publ_section_title
;
Structure prediction by ZEFSAII (Michael W. Deem and Ramdas Pophale) SiO2 
 PCOD8254300
Probable space group: P N M A
;
_chemical_formula_sum "Si O2"
_cell_formula_units_Z 64
_cell_length_a 23.702263
_cell_length_b 13.875344
_cell_length_c 9.495362
_cell_angle_alpha 90.000000
_cell_angle_beta 90.000000
_cell_angle_gamma 90.000000
_cell_volume 3122.806669
_symmetry_space_group_name_H-M "P N M A"
_symmetry_group_IT_number 62
_symmetry_cell_setting 'orthorhombic'
loop_
_space_group_symop_operation_xyz
x,y,z
1/2-x,-y,1/2+z
1/2+x,1/2-y,1/2-z
-x,1/2+y,-z
-x,-y,-z
1/2+x,y,1/2-z
1/2-x,1/2+y,1/2+z
x,1/2-y,z
loop_
_atom_site_type_symbol
_atom_site_label
_atom_site_fract_x
_atom_site_fract_y
_atom_site_fract_z
Si Si1 0.363852 0.480973 0.735603
Si Si2 0.674354 0.020034 0.570259
Si Si3 0.977847 0.359386 0.339489
Si Si4 0.285763 0.137940 0.923557
Si Si5 0.093588 0.360508 0.451187
Si Si6 0.351906 0.138253 0.203151
Si Si7 0.588305 0.138652 0.736446
Si Si8 0.014249 0.978378 0.156392
O O1 0.326969 0.507477 0.598291
O O2 0.334888 0.393235 0.817161
O O3 0.373397 0.571777 0.840882
O O4 0.422839 0.439688 0.679175
O O5 0.733110 0.069696 0.609974
O O6 0.624417 0.090898 0.613749
O O7 0.666056 0.920838 0.657681
O O8 0.973935 0.250000 0.292354
O O9 0.913119 0.396174 0.362787
O O10 0.024529 0.374576 0.463658
O O11 0.007060 0.414580 0.213752
O O12 0.270832 0.250000 0.896738
O O13 0.305603 0.121650 0.083434
O O14 0.106821 0.250000 0.407328
O O15 0.115672 0.381865 0.609397
O O16 0.354402 0.250000 0.247937
O O17 0.585346 0.250000 0.702864
O O18 0.525294 0.098367 0.732036
O O19 0.000000 0.000000 0.000000
#
# Coordination Sequence:
#
# PCOD8254300 Si02
#       8
#     8   8   8   8   8   8   8   8
#     4  11  24  39  67  94 131 167 209 269 321 383
#     4  12  23  45  64  91 128 167 216 263 321 375
#     4   9  18  34  59  87 121 158 197 249 304 374
#     4  11  26  44  64  91 122 168 220 268 317 371
#     4   9  21  38  60  96 129 166 210 254 314 379
#     4  10  21  40  67  92 121 163 209 256 315 381
#     4  11  23  38  62  90 128 175 216 261 318 384
#     4  11  21  38  57  95 132 164 204 258 326 391
#
# _framework density 20.494384
#
# number of rings (size 3 to 8) (size 9 to 14) (size 15 to 20)
#    0.000    1.500    2.500    1.875    1.750    3.500 
#    0.000    0.625    0.000    0.000    0.000    0.000 
#    0.000    0.000    0.000    0.000    0.000    0.000 
#
# Total GULP energy -793204.358351 kJ/mol
# GULP energy per Si atom -12393.818099 kJ/mol
# Density = 2.044774 g / cm^3
# Si number density = 20.494384 Si / 1000 Ang^3
#
#
#
# Elastic Constant Matrix: (Units=GPa)
#
#
# Indices 1 2 3 4 5 6 
#
# 1 92.4520 31.6979 13.0237 0.0000 0.0000 0.0000
# 2 31.6979 84.5283 41.8123 0.0000 0.0000 0.0000
# 3 13.0237 41.8123 99.0371 0.0000 0.0000 0.0000
# 4 0.0000 0.0000 0.0000 25.9867 0.0000 0.0000
# 5 0.0000 0.0000 0.0000 0.0000 29.7411 0.0000
# 6 0.0000 0.0000 0.0000 0.0000 0.0000 26.4046
#
#
#
# Elastic Compliance Matrix: (Units=1/GPa)
#
#
# Indices 1 2 3 4 5 6 
#
# 1 0.012426 -0.004868 0.000421 0.000000 0.000000 0.000000
# 2 -0.004868 0.016860 -0.006478 0.000000 0.000000 0.000000
# 3 0.000421 -0.006478 0.012777 0.000000 0.000000 0.000000
# 4 0.000000 0.000000 0.000000 0.038481 0.000000 0.000000
# 5 0.000000 0.000000 0.000000 0.000000 0.033624 0.000000
# 6 0.000000 0.000000 0.000000 0.000000 0.000000 0.037872
#
#
# Mechanical properties :
#
#
# Convention : Reuss Voigt Hill
#
# Bulk Modulus (GPa) = 49.47240 49.89834 49.68537
# Shear Modulus (GPa) = 27.68121 29.05870 28.36996
#
# Velocity S-wave (km/s) = 3.67914 3.76957 3.72463
# Velocity P-wave (km/s) = 6.49923 6.58380 6.54165
#
# Compressibility (1/GPa) = 0.02021329
#
# Stress axis : x y z
#
# Youngs Moduli (GPa) = 80.47532 59.31096 78.26690
#
# Poissons Ratio (x) = 0.28873 -0.03297
# Poissons Ratio (y) = 0.39176 0.50702
# Poissons Ratio (z) = -0.03390 0.38422
#
# Static dielectric constant tensor:
#      x y z
#    x 6.537390 0.000000 0.000000 
#    y 0.000000 3.290160 0.000000 
#    z 0.000000 0.000000 3.907550 
# 
# 
# High freq. dielectric constant tensor:
#      x y z
#    x 1.800470 0.000000 0.000000 
#    y 0.000000 1.806810 0.000000 
#    z 0.000000 0.000000 1.799880 
# 
# From -- ./inp_files/9520.got.cif
#   From: 2010.03.12/outbox.cif.g09.slc.cpg/sg62_5_cif.got.tgz:9520.got - 2010.04.10 19:12:36.
