data_PCOD8254911
_publ_section_title
;
Structure prediction by ZEFSAII (Michael W. Deem and Ramdas Pophale) SiO2 
 PCOD8254911
Probable space group: P N M A
;
_chemical_formula_sum "Si O2"
_cell_formula_units_Z 40
_cell_length_a 18.501537
_cell_length_b 8.421193
_cell_length_c 12.247142
_cell_angle_alpha 90.000000
_cell_angle_beta 90.000000
_cell_angle_gamma 90.000000
_cell_volume 1908.166129
_symmetry_space_group_name_H-M "P N M A"
_symmetry_group_IT_number 62
_symmetry_cell_setting 'orthorhombic'
loop_
_space_group_symop_operation_xyz
x,y,z
1/2-x,-y,1/2+z
1/2+x,1/2-y,1/2-z
-x,1/2+y,-z
-x,-y,-z
1/2+x,y,1/2-z
1/2-x,1/2+y,1/2+z
x,1/2-y,z
loop_
_atom_site_type_symbol
_atom_site_label
_atom_site_fract_x
_atom_site_fract_y
_atom_site_fract_z
Si Si1 0.885567 0.066406 0.175402
Si Si2 0.540274 0.567598 0.293123
Si Si3 0.068598 0.434860 0.436048
Si Si4 0.817964 0.064446 0.404121
Si Si5 0.154687 0.067285 0.048978
O O1 0.870137 0.250000 0.150714
O O2 0.847060 0.011476 0.286439
O O3 0.970977 0.040896 0.185350
O O4 0.851286 0.961352 0.079945
O O5 0.515716 0.750000 0.292347
O O6 0.577156 0.522958 0.178921
O O7 0.597468 0.542420 0.389358
O O8 0.057627 0.250000 0.413924
O O9 0.141048 0.464216 0.503981
O O10 0.000000 0.500000 0.500000
O O11 0.832410 0.250000 0.425406
O O12 0.734080 0.020575 0.410201
O O13 0.137834 0.250000 0.075670
#
# Coordination Sequence:
#
# PCOD8254911 Si02
#       5
#     8   8   8   8   8
#     4  11  23  43  68  95 130 173 219 269 324 385
#     4  12  25  43  68  98 130 171 220 269 325 386
#     4  12  24  41  67  97 131 169 215 267 322 383
#     4  10  24  44  66  95 132 172 217 267 323 387
#     4  11  25  44  66  97 134 173 217 269 327 388
#
# _framework density 20.962537000000001
#
# number of rings (size 3 to 8) (size 9 to 14) (size 15 to 20)
#    0.000    0.800    2.000    5.400    2.800    2.400 
#    0.000    0.000    0.000    0.000    0.000    0.000 
#    0.000    0.000    0.000    0.000    0.000    0.000 
#
# Total GULP energy -496395.348226 kJ/mol
# GULP energy per Si atom -12409.883706 kJ/mol
# Density = 2.091483 g / cm^3
# Si number density = 20.962537 Si / 1000 Ang^3
#
#
#
# Elastic Constant Matrix: (Units=GPa)
#
#
# Indices 1 2 3 4 5 6 
#
# 1 121.4483 16.4716 45.1532 0.0000 0.0000 0.0000
# 2 16.4716 65.4852 15.4234 0.0000 0.0000 0.0000
# 3 45.1532 15.4234 106.3094 0.0000 0.0000 0.0000
# 4 0.0000 0.0000 0.0000 36.2436 0.0000 0.0000
# 5 0.0000 0.0000 0.0000 0.0000 27.6486 0.0000
# 6 0.0000 0.0000 0.0000 0.0000 0.0000 27.3228
#
#
#
# Elastic Compliance Matrix: (Units=1/GPa)
#
#
# Indices 1 2 3 4 5 6 
#
# 1 0.009929 -0.001557 -0.003991 0.000000 0.000000 0.000000
# 2 -0.001557 0.016055 -0.001668 0.000000 0.000000 0.000000
# 3 -0.003991 -0.001668 0.011344 0.000000 0.000000 0.000000
# 4 0.000000 0.000000 0.000000 0.027591 0.000000 0.000000
# 5 0.000000 0.000000 0.000000 0.000000 0.036168 0.000000
# 6 0.000000 0.000000 0.000000 0.000000 0.000000 0.036599
#
#
# Mechanical properties :
#
#
# Convention : Reuss Voigt Hill
#
# Bulk Modulus (GPa) = 43.67771 49.70436 46.69104
# Shear Modulus (GPa) = 31.29864 32.65598 31.97731
#
# Velocity S-wave (km/s) = 3.86822 3.95121 3.90994
# Velocity P-wave (km/s) = 6.39001 6.67672 6.53494
#
# Compressibility (1/GPa) = 0.02289497
#
# Stress axis : x y z
#
# Youngs Moduli (GPa) = 100.71415 62.28518 88.15466
#
# Poissons Ratio (x) = 0.09700 0.35185
# Poissons Ratio (y) = 0.15686 0.14702
# Poissons Ratio (z) = 0.40198 0.10388
#
# Static dielectric constant tensor:
#      x y z
#    x 3.771510 0.000000 0.000000 
#    y 0.000000 3.793340 0.000000 
#    z 0.000000 0.000000 3.988080 
# 
# 
# High freq. dielectric constant tensor:
#      x y z
#    x 1.825170 0.000000 0.000000 
#    y 0.000000 1.825870 0.000000 
#    z 0.000000 0.000000 1.835890 
# 
# From -- ./inp_files/13838.got.cif
#   From: 2010.03.12/outbox.cif.g09.slc.cpg/sg62_7_cif.got.tgz:13838.got - 2010.04.10 19:12:36.
