data_PCOD8254320
_publ_section_title
;
Structure prediction by ZEFSAII (Michael W. Deem and Ramdas Pophale) SiO2 
 PCOD8254320
Probable space group: P N M A
;
_chemical_formula_sum "Si O2"
_cell_formula_units_Z 48
_cell_length_a 27.250832
_cell_length_b 8.645678
_cell_length_c 10.028308
_cell_angle_alpha 90.000000
_cell_angle_beta 90.000000
_cell_angle_gamma 90.000000
_cell_volume 2362.688606
_symmetry_space_group_name_H-M "P N M A"
_symmetry_group_IT_number 62
_symmetry_cell_setting 'orthorhombic'
loop_
_space_group_symop_operation_xyz
x,y,z
1/2-x,-y,1/2+z
1/2+x,1/2-y,1/2-z
-x,1/2+y,-z
-x,-y,-z
1/2+x,y,1/2-z
1/2-x,1/2+y,1/2+z
x,1/2-y,z
loop_
_atom_site_type_symbol
_atom_site_label
_atom_site_fract_x
_atom_site_fract_y
_atom_site_fract_z
Si Si1 0.643703 0.430496 0.017336
Si Si2 0.360326 0.932733 0.519456
Si Si3 0.465684 0.930476 0.888019
Si Si4 0.287923 0.933135 0.744940
Si Si5 0.962788 0.067750 0.894273
Si Si6 0.322792 0.067902 0.251758
O O1 0.651050 0.250000 0.984292
O O2 0.649557 0.530410 0.884641
O O3 0.590622 0.463780 0.077492
O O4 0.683544 0.491833 0.124006
O O5 0.367620 0.750000 0.529177
O O6 0.314961 0.990816 0.610755
O O7 0.408416 0.011537 0.575984
O O8 0.351568 0.981707 0.368294
O O9 0.476141 0.750000 0.873124
O O10 0.479748 0.012900 0.750874
O O11 0.500000 0.000000 0.000000
O O12 0.287461 0.750000 0.745225
O O13 0.232703 0.998331 0.745600
O O14 0.965074 0.250000 0.901664
O O15 0.000000 0.000000 0.000000
O O16 0.323714 0.250000 0.278768
#
# Coordination Sequence:
#
# PCOD8254320 Si02
#       6
#     8   8   8   8   8   8
#     4  10  21  41  64  87 123 169 208 252 313 373
#     4  11  22  42  66  91 127 170 211 259 318 376
#     4  11  24  44  69  95 127 167 211 259 316 376
#     4   9  19  39  64  89 123 165 213 262 311 368
#     4  12  26  45  69  97 127 163 209 262 320 383
#     4  11  23  37  59  95 130 165 212 262 308 366
#
# _framework density 20.315836999999998
#
# number of rings (size 3 to 8) (size 9 to 14) (size 15 to 20)
#    0.000    1.333    1.667    4.000    2.333    1.333 
#    0.000    3.333    0.000    0.000    0.000    0.000 
#    0.000    0.000    0.000    0.000    0.000    0.000 
#
# Total GULP energy -595481.991419 kJ/mol
# GULP energy per Si atom -12405.874821 kJ/mol
# Density = 2.026960 g / cm^3
# Si number density = 20.315837 Si / 1000 Ang^3
#
#
#
# Elastic Constant Matrix: (Units=GPa)
#
#
# Indices 1 2 3 4 5 6 
#
# 1 73.6331 48.8347 39.9837 0.0000 0.0000 0.0000
# 2 48.8347 105.4960 50.5455 0.0000 0.0000 0.0000
# 3 39.9837 50.5455 157.7870 0.0000 0.0000 0.0000
# 4 0.0000 0.0000 0.0000 30.0993 0.0000 0.0000
# 5 0.0000 0.0000 0.0000 0.0000 43.1062 0.0000
# 6 0.0000 0.0000 0.0000 0.0000 0.0000 31.4062
#
#
#
# Elastic Compliance Matrix: (Units=1/GPa)
#
#
# Indices 1 2 3 4 5 6 
#
# 1 0.020422 -0.008238 -0.002536 0.000000 0.000000 0.000000
# 2 -0.008238 0.014521 -0.002564 0.000000 0.000000 0.000000
# 3 -0.002536 -0.002564 0.007802 0.000000 0.000000 0.000000
# 4 0.000000 0.000000 0.000000 0.033223 0.000000 0.000000
# 5 0.000000 0.000000 0.000000 0.000000 0.023199 0.000000
# 6 0.000000 0.000000 0.000000 0.000000 0.000000 0.031841
#
#
# Mechanical properties :
#
#
# Convention : Reuss Voigt Hill
#
# Bulk Modulus (GPa) = 62.23593 68.40489 65.32041
# Shear Modulus (GPa) = 30.66741 34.09249 32.37995
#
# Velocity S-wave (km/s) = 3.88949 4.10093 3.99661
# Velocity P-wave (km/s) = 7.13243 7.49449 7.31570
#
# Compressibility (1/GPa) = 0.01606789
#
# Stress axis : x y z
#
# Youngs Moduli (GPa) = 48.96772 68.86526 128.17845
#
# Poissons Ratio (x) = 0.56733 0.32504
# Poissons Ratio (y) = 0.40341 0.32866
# Poissons Ratio (z) = 0.12417 0.17658
#
# Static dielectric constant tensor:
#      x y z
#    x 3.899860 0.000000 0.000000 
#    y 0.000000 3.559130 0.000000 
#    z 0.000000 0.000000 4.158060 
# 
# 
# High freq. dielectric constant tensor:
#      x y z
#    x 1.804890 0.000000 0.000000 
#    y 0.000000 1.785840 0.000000 
#    z 0.000000 0.000000 1.812450 
# 
# From -- ./inp_files/10280.got.cif
#   From: 2010.03.12/outbox.cif.g09.slc.cpg/sg62_6_cif.got.tgz:10280.got - 2010.04.10 19:12:36.
