data_PCOD8254794
_publ_section_title
;
Structure prediction by ZEFSAII (Michael W. Deem and Ramdas Pophale) SiO2 
 PCOD8254794
Probable space group: P N M A
;
_chemical_formula_sum "Si O2"
_cell_formula_units_Z 40
_cell_length_a 25.080960
_cell_length_b 8.404702
_cell_length_c 8.769715
_cell_angle_alpha 90.000000
_cell_angle_beta 90.000000
_cell_angle_gamma 90.000000
_cell_volume 1848.638336
_symmetry_space_group_name_H-M "P N M A"
_symmetry_group_IT_number 62
_symmetry_cell_setting 'orthorhombic'
loop_
_space_group_symop_operation_xyz
x,y,z
1/2-x,-y,1/2+z
1/2+x,1/2-y,1/2-z
-x,1/2+y,-z
-x,-y,-z
1/2+x,y,1/2-z
1/2-x,1/2+y,1/2+z
x,1/2-y,z
loop_
_atom_site_type_symbol
_atom_site_label
_atom_site_fract_x
_atom_site_fract_y
_atom_site_fract_z
Si Si1 0.393968 0.066957 0.822528
Si Si2 0.185287 0.566020 0.824119
Si Si3 0.714461 0.935705 0.336187
Si Si4 0.589580 0.067312 0.851866
Si Si5 0.993976 0.565629 0.831446
O O1 0.405813 0.250000 0.781858
O O2 0.334109 0.020828 0.775383
O O3 0.433856 0.957716 0.726005
O O4 0.399773 0.041626 0.002151
O O5 0.168922 0.750000 0.820096
O O6 0.234658 0.537341 0.712276
O O7 0.134414 0.464025 0.774445
O O8 0.199975 0.510770 0.993562
O O9 0.729119 0.750000 0.328758
O O10 0.590682 0.250000 0.903405
O O11 0.532044 0.029041 0.783146
O O12 0.009405 0.750000 0.829429
O O13 0.000000 0.500000 0.000000
#
# Coordination Sequence:
#
# PCOD8254794 Si02
#       5
#     8   8   8   8   8
#     4  11  23  42  66  93 127 166 209 257 311 370
#     4  11  23  40  63  91 124 162 207 258 311 371
#     4  10  23  41  62  90 124 162 205 254 309 372
#     4  12  25  42  64  92 126 164 209 259 313 371
#     4  12  25  43  66  94 127 164 208 256 311 370
#
# _framework density 21.637547000000001
#
# number of rings (size 3 to 8) (size 9 to 14) (size 15 to 20)
#    0.000    0.800    0.000    7.800    0.000    8.000 
#    0.000    0.000    0.000    0.000    0.000    0.000 
#    0.000    0.000    0.000    0.000    0.000    0.000 
#
# Total GULP energy -496423.275548 kJ/mol
# GULP energy per Si atom -12410.581889 kJ/mol
# Density = 2.158830 g / cm^3
# Si number density = 21.637547 Si / 1000 Ang^3
#
#
#
# Elastic Constant Matrix: (Units=GPa)
#
#
# Indices 1 2 3 4 5 6 
#
# 1 68.3728 22.8053 -5.9968 0.0000 0.0000 0.0000
# 2 22.8053 71.6685 12.7648 0.0000 0.0000 0.0000
# 3 -5.9968 12.7648 87.5800 0.0000 0.0000 0.0000
# 4 0.0000 0.0000 0.0000 34.3590 0.0000 0.0000
# 5 0.0000 0.0000 0.0000 0.0000 44.1959 0.0000
# 6 0.0000 0.0000 0.0000 0.0000 0.0000 35.4650
#
#
#
# Elastic Compliance Matrix: (Units=1/GPa)
#
#
# Indices 1 2 3 4 5 6 
#
# 1 0.016686 -0.005660 0.001967 0.000000 0.000000 0.000000
# 2 -0.005660 0.016245 -0.002755 0.000000 0.000000 0.000000
# 3 0.001967 -0.002755 0.011954 0.000000 0.000000 0.000000
# 4 0.000000 0.000000 0.000000 0.029104 0.000000 0.000000
# 5 0.000000 0.000000 0.000000 0.000000 0.022627 0.000000
# 6 0.000000 0.000000 0.000000 0.000000 0.000000 0.028197
#
#
# Mechanical properties :
#
#
# Convention : Reuss Voigt Hill
#
# Bulk Modulus (GPa) = 31.25989 31.86310 31.56150
# Shear Modulus (GPa) = 33.69902 36.00717 34.85309
#
# Velocity S-wave (km/s) = 3.95071 4.08377 4.01779
# Velocity P-wave (km/s) = 5.94048 6.08227 6.01179
#
# Compressibility (1/GPa) = 0.03198987
#
# Stress axis : x y z
#
# Youngs Moduli (GPa) = 59.92995 61.55772 83.65097
#
# Poissons Ratio (x) = 0.34842 -0.16458
# Poissons Ratio (y) = 0.33921 0.23048
# Poissons Ratio (z) = -0.11791 0.16961
#
# Static dielectric constant tensor:
#      x y z
#    x 3.972920 0.000000 0.000000 
#    y 0.000000 3.823730 0.000000 
#    z 0.000000 0.000000 3.792120 
# 
# 
# High freq. dielectric constant tensor:
#      x y z
#    x 1.862400 0.000000 0.000000 
#    y 0.000000 1.851980 0.000000 
#    z 0.000000 0.000000 1.864030 
# 
# From -- ./inp_files/9091.got.cif
#   From: 2010.03.12/outbox.cif.g09.slc.cpg/sg62_5_cif.got.tgz:9091.got - 2010.04.10 19:12:36.
