data_PCOD8254991
_publ_section_title
;
Structure prediction by ZEFSAII (Michael W. Deem and Ramdas Pophale) SiO2 
 PCOD8254991
Probable space group: P N M A
;
_chemical_formula_sum "Si O2"
_cell_formula_units_Z 48
_cell_length_a 9.870762
_cell_length_b 19.030635
_cell_length_c 13.198844
_cell_angle_alpha 90.000000
_cell_angle_beta 90.000000
_cell_angle_gamma 90.000000
_cell_volume 2479.361517
_symmetry_space_group_name_H-M "P N M A"
_symmetry_group_IT_number 62
_symmetry_cell_setting 'orthorhombic'
loop_
_space_group_symop_operation_xyz
x,y,z
1/2-x,-y,1/2+z
1/2+x,1/2-y,1/2-z
-x,1/2+y,-z
-x,-y,-z
1/2+x,y,1/2-z
1/2-x,1/2+y,1/2+z
x,1/2-y,z
loop_
_atom_site_type_symbol
_atom_site_label
_atom_site_fract_x
_atom_site_fract_y
_atom_site_fract_z
Si Si1 0.901328 0.551983 0.333717
Si Si2 0.946306 0.107321 0.327111
Si Si3 0.437931 0.331040 0.389706
Si Si4 0.203435 0.070239 0.440635
Si Si5 0.706543 0.921183 0.160652
Si Si6 0.270845 0.832023 0.523508
O O1 0.912959 0.472080 0.296191
O O2 0.861303 0.555914 0.450634
O O3 0.786492 0.588357 0.266041
O O4 0.046739 0.589055 0.318439
O O5 0.930841 0.157125 0.230471
O O6 0.844141 0.130409 0.413021
O O7 0.098195 0.112460 0.370142
O O8 0.402941 0.250000 0.412977
O O9 0.334923 0.381010 0.450164
O O10 0.585394 0.351944 0.428839
O O11 0.239561 0.995697 0.391354
O O12 0.762763 0.859128 0.090810
O O13 0.243966 0.750000 0.524392
#
# Coordination Sequence:
#
# PCOD8254991 Si02
#       6
#     8   8   8   8   8   8
#     4  11  23  39  66  98 120 159 214 257 307 376
#     4  11  20  40  64  94 126 160 202 257 317 371
#     4  11  25  39  61  97 128 165 212 256 314 383
#     4  11  22  41  64  93 132 160 207 260 308 375
#     4  11  23  42  65  93 124 162 211 258 308 368
#     4  11  24  42  61  88 130 168 205 256 315 371
#
# _framework density 19.359822999999999
#
# number of rings (size 3 to 8) (size 9 to 14) (size 15 to 20)
#    0.000    1.000    5.000    2.500    4.667    3.333 
#    0.000    1.667    0.000    0.000    0.000    0.000 
#    0.000    0.000    0.000    0.000    0.000    0.000 
#
# Total GULP energy -595461.912291 kJ/mol
# GULP energy per Si atom -12405.456506 kJ/mol
# Density = 1.931576 g / cm^3
# Si number density = 19.359823 Si / 1000 Ang^3
#
#
#
# Elastic Constant Matrix: (Units=GPa)
#
#
# Indices 1 2 3 4 5 6 
#
# 1 101.0253 -90.5250 14.5705 0.0000 0.0000 0.0000
# 2 -90.5250 297.6312 3.8545 0.0000 0.0000 0.0000
# 3 14.5705 3.8545 76.9804 0.0000 0.0000 0.0000
# 4 0.0000 0.0000 0.0000 20.7640 0.0000 0.0000
# 5 0.0000 0.0000 0.0000 0.0000 32.0789 0.0000
# 6 0.0000 0.0000 0.0000 0.0000 0.0000 22.8364
#
#
#
# Elastic Compliance Matrix: (Units=1/GPa)
#
#
# Indices 1 2 3 4 5 6 
#
# 1 0.014231 0.004366 -0.002912 0.000000 0.000000 0.000000
# 2 0.004366 0.004702 -0.001062 0.000000 0.000000 0.000000
# 3 -0.002912 -0.001062 0.013595 0.000000 0.000000 0.000000
# 4 0.000000 0.000000 0.000000 0.048160 0.000000 0.000000
# 5 0.000000 0.000000 0.000000 0.000000 0.031173 0.000000
# 6 0.000000 0.000000 0.000000 0.000000 0.000000 0.043790
#
#
# Mechanical properties :
#
#
# Convention : Reuss Voigt Hill
#
# Bulk Modulus (GPa) = 30.01999 36.82631 33.42315
# Shear Modulus (GPa) = 30.12597 51.65165 40.88881
#
# Velocity S-wave (km/s) = 3.94903 5.17085 4.60068
# Velocity P-wave (km/s) = 6.02770 7.39687 6.74710
#
# Compressibility (1/GPa) = 0.03331114
#
# Stress axis : x y z
#
# Youngs Moduli (GPa) = 70.27044 212.69612 73.55816
#
# Poissons Ratio (x) = -0.92863 0.21421
# Poissons Ratio (y) = -0.30680 0.07810
# Poissons Ratio (z) = 0.20464 0.22584
#
# Static dielectric constant tensor:
#      x y z
#    x 3.653210 0.000000 0.000000 
#    y 0.000000 3.440020 0.000000 
#    z 0.000000 0.000000 3.581540 
# 
# 
# High freq. dielectric constant tensor:
#      x y z
#    x 1.769500 0.000000 0.000000 
#    y 0.000000 1.740140 0.000000 
#    z 0.000000 0.000000 1.756680 
# 
# From -- ./inp_files/17068.got.cif
#   From: 2010.03.12/outbox.cif.g09.slc.cpg/sg62_9_cif.got.tgz:17068.got - 2010.04.10 19:12:36.
