data_PCOD8254310
_publ_section_title
;
Structure prediction by ZEFSAII (Michael W. Deem and Ramdas Pophale) SiO2 
 PCOD8254310
Probable space group: P N M A
;
_chemical_formula_sum "Si O2"
_cell_formula_units_Z 40
_cell_length_a 15.195055
_cell_length_b 9.745583
_cell_length_c 10.389381
_cell_angle_alpha 90.000000
_cell_angle_beta 90.000000
_cell_angle_gamma 90.000000
_cell_volume 1538.508054
_symmetry_space_group_name_H-M "P N M A"
_symmetry_group_IT_number 62
_symmetry_cell_setting 'orthorhombic'
loop_
_space_group_symop_operation_xyz
x,y,z
1/2-x,-y,1/2+z
1/2+x,1/2-y,1/2-z
-x,1/2+y,-z
-x,-y,-z
1/2+x,y,1/2-z
1/2-x,1/2+y,1/2+z
x,1/2-y,z
loop_
_atom_site_type_symbol
_atom_site_label
_atom_site_fract_x
_atom_site_fract_y
_atom_site_fract_z
Si Si1 0.753680 0.750000 0.999804
Si Si2 0.052392 0.250000 0.046791
Si Si3 0.098988 0.750000 0.328863
Si Si4 0.469758 0.750000 0.954720
Si Si5 0.585018 0.042769 0.241031
Si Si6 0.199734 0.250000 0.628039
Si Si7 0.643130 0.750000 0.575385
Si Si8 0.718742 0.548359 0.773602
O O1 0.858507 0.750000 0.040568
O O2 0.724540 0.617489 0.915384
O O3 0.703746 0.750000 0.138896
O O4 0.059816 0.390899 0.125127
O O5 0.950995 0.250000 0.998543
O O6 0.066148 0.619043 0.249017
O O7 0.060419 0.750000 0.471279
O O8 0.472645 0.612296 0.870011
O O9 0.387450 0.750000 0.046491
O O10 0.686632 0.070769 0.206570
O O11 0.287809 0.250000 0.541386
O O12 0.196518 0.111826 0.713555
O O13 0.651579 0.618508 0.671761
#
# Coordination Sequence:
#
# PCOD8254310 Si02
#       8
#     4   4   4   4   8   4   4   8
#     4   9  21  40  60  92 125 172 211 263 323 400
#     4   9  22  42  66  81 133 171 221 256 326 395
#     4  12  23  33  68  94 128 158 217 274 345 374
#     4  11  22  36  58  97 132 161 215 268 328 396
#     4  10  21  41  58  95 129 166 209 277 319 398
#     4  12  23  41  69  99 133 172 227 266 336 400
#     4  11  23  44  69  95 129 186 217 271 342 383
#     4  10  22  41  66  90 135 175 213 273 330 396
#
# _framework density 25.999213000000001
#
# number of rings (size 3 to 8) (size 9 to 14) (size 15 to 20)
#    0.000    1.600    2.000    3.600    8.400    0.000 
#    0.000    4.000    0.000    0.000    0.000    0.000 
#    0.000    0.000    0.000    0.000    0.000    0.000 
#
# Total GULP energy -495717.993895 kJ/mol
# GULP energy per Si atom -12392.949847 kJ/mol
# Density = 2.594004 g / cm^3
# Si number density = 25.999213 Si / 1000 Ang^3
#
#
#
# Elastic Constant Matrix: (Units=GPa)
#
#
# Indices 1 2 3 4 5 6 
#
# 1 97.5939 20.1691 -7.5779 0.0000 0.0000 0.0000
# 2 20.1691 225.8317 45.4790 0.0000 0.0000 0.0000
# 3 -7.5779 45.4790 16.7027 0.0000 0.0000 0.0000
# 4 0.0000 0.0000 0.0000 38.6716 0.0000 0.0000
# 5 0.0000 0.0000 0.0000 0.0000 13.6794 0.0000
# 6 0.0000 0.0000 0.0000 0.0000 0.0000 37.4202
#
#
#
# Elastic Compliance Matrix: (Units=1/GPa)
#
#
# Indices 1 2 3 4 5 6 
#
# 1 0.012848 -0.005140 0.019823 0.000000 0.000000 0.000000
# 2 -0.005140 0.011860 -0.034625 0.000000 0.000000 0.000000
# 3 0.019823 -0.034625 0.163142 0.000000 0.000000 0.000000
# 4 0.000000 0.000000 0.000000 0.025859 0.000000 0.000000
# 5 0.000000 0.000000 0.000000 0.000000 0.073103 0.000000
# 6 0.000000 0.000000 0.000000 0.000000 0.000000 0.026724
#
#
# Mechanical properties :
#
#
# Convention : Reuss Voigt Hill
#
# Bulk Modulus (GPa) = 6.75822 50.69652 28.72737
# Shear Modulus (GPa) = 12.41496 36.75811 24.58653
#
# Velocity S-wave (km/s) = 2.18758 3.76415 3.07850
# Velocity P-wave (km/s) = 2.99762 6.19947 4.86924
#
# Compressibility (1/GPa) = 0.14796795
#
# Stress axis : x y z
#
# Youngs Moduli (GPa) = 77.83366 84.31724 6.12962
#
# Poissons Ratio (x) = 0.43335 -0.12151
# Poissons Ratio (y) = 0.40003 0.21224
# Poissons Ratio (z) = -1.54291 2.91946
#
# Static dielectric constant tensor:
#      x y z
#    x 4.881900 0.000000 0.000000 
#    y 0.000000 4.799950 0.000000 
#    z 0.000000 0.000000 4.305950 
# 
# 
# High freq. dielectric constant tensor:
#      x y z
#    x 2.041790 0.000000 0.000000 
#    y 0.000000 2.051850 0.000000 
#    z 0.000000 0.000000 2.019380 
# 
# From -- ./inp_files/18717.got.cif
#   From: 2010.03.12/outbox.cif.g09.slc.cpg/sg62_10_cif.got.tgz:18717.got - 2010.04.10 19:12:36.
