data_PCOD8254916
_publ_section_title
;
Structure prediction by ZEFSAII (Michael W. Deem and Ramdas Pophale) SiO2 
 PCOD8254916
Probable space group: P N M A
;
_chemical_formula_sum "Si O2"
_cell_formula_units_Z 32
_cell_length_a 11.120799
_cell_length_b 14.329935
_cell_length_c 8.694264
_cell_angle_alpha 90.000000
_cell_angle_beta 90.000000
_cell_angle_gamma 90.000000
_cell_volume 1385.520752
_symmetry_space_group_name_H-M "P N M A"
_symmetry_group_IT_number 62
_symmetry_cell_setting 'orthorhombic'
loop_
_space_group_symop_operation_xyz
x,y,z
1/2-x,-y,1/2+z
1/2+x,1/2-y,1/2-z
-x,1/2+y,-z
-x,-y,-z
1/2+x,y,1/2-z
1/2-x,1/2+y,1/2+z
x,1/2-y,z
loop_
_atom_site_type_symbol
_atom_site_label
_atom_site_fract_x
_atom_site_fract_y
_atom_site_fract_z
Si Si1 0.913623 0.515284 0.642047
Si Si2 0.031284 0.359080 0.073119
Si Si3 0.740881 0.354577 0.658754
Si Si4 0.764872 0.147405 0.996923
O O1 0.863755 0.412224 0.668590
O O2 0.794362 0.575052 0.610949
O O3 0.000000 0.500000 0.500000
O O4 0.976353 0.568798 0.783932
O O5 0.046558 0.250000 0.124214
O O6 0.907289 0.372988 0.980420
O O7 0.138884 0.391111 0.958889
O O8 0.777608 0.250000 0.610858
O O9 0.693767 0.357469 0.834308
O O10 0.747683 0.250000 0.069538
#
# Coordination Sequence:
#
# PCOD8254916 Si02
#       4
#     8   8   8   8
#     4  12  27  41  66 104 137 183 228 286 342 415
#     4  10  24  47  73  99 138 185 235 290 347 415
#     4  10  24  44  68  97 133 180 229 283 343 407
#     4  10  24  46  71  98 134 179 230 287 346 412
#
# _framework density 23.096008999999999
#
# number of rings (size 3 to 8) (size 9 to 14) (size 15 to 20)
#    0.000    1.500    0.000    2.250   10.500    4.000 
#    0.000    0.000    0.000    0.000    0.000    0.000 
#    0.000    0.000    0.000    0.000    0.000    0.000 
#
# Total GULP energy -396551.478854 kJ/mol
# GULP energy per Si atom -12392.233714 kJ/mol
# Density = 2.304344 g / cm^3
# Si number density = 23.096009 Si / 1000 Ang^3
#
#
#
# Elastic Constant Matrix: (Units=GPa)
#
#
# Indices 1 2 3 4 5 6 
#
# 1 83.4124 38.9108 40.7412 0.0000 0.0000 0.0000
# 2 38.9108 88.3901 41.9083 0.0000 0.0000 0.0000
# 3 40.7412 41.9083 116.1372 0.0000 0.0000 0.0000
# 4 0.0000 0.0000 0.0000 40.0592 0.0000 0.0000
# 5 0.0000 0.0000 0.0000 0.0000 45.6237 0.0000
# 6 0.0000 0.0000 0.0000 0.0000 0.0000 31.5512
#
#
#
# Elastic Compliance Matrix: (Units=1/GPa)
#
#
# Indices 1 2 3 4 5 6 
#
# 1 0.016361 -0.005406 -0.003789 0.000000 0.000000 0.000000
# 2 -0.005406 0.015435 -0.003673 0.000000 0.000000 0.000000
# 3 -0.003789 -0.003673 0.011265 0.000000 0.000000 0.000000
# 4 0.000000 0.000000 0.000000 0.024963 0.000000 0.000000
# 5 0.000000 0.000000 0.000000 0.000000 0.021918 0.000000
# 6 0.000000 0.000000 0.000000 0.000000 0.000000 0.031695
#
#
# Mechanical properties :
#
#
# Convention : Reuss Voigt Hill
#
# Bulk Modulus (GPa) = 57.72011 59.00671 58.36341
# Shear Modulus (GPa) = 32.64816 34.53878 33.59347
#
# Velocity S-wave (km/s) = 3.76385 3.87129 3.81795
# Velocity P-wave (km/s) = 6.62830 6.75177 6.69032
#
# Compressibility (1/GPa) = 0.01732498
#
# Stress axis : x y z
#
# Youngs Moduli (GPa) = 61.12096 64.78817 88.76988
#
# Poissons Ratio (x) = 0.35025 0.33632
# Poissons Ratio (y) = 0.33042 0.32607
# Poissons Ratio (z) = 0.23157 0.23798
#
# Static dielectric constant tensor:
#      x y z
#    x 3.889320 0.000000 0.000000 
#    y 0.000000 4.639030 0.000000 
#    z 0.000000 0.000000 4.099420 
# 
# 
# High freq. dielectric constant tensor:
#      x y z
#    x 1.904640 0.000000 0.000000 
#    y 0.000000 1.935490 0.000000 
#    z 0.000000 0.000000 1.905560 
# 
# From -- ./inp_files/4831.got.cif
#   From: 2010.03.12/outbox.cif.g09.slc.cpg/sg62_3_cif.got.tgz:4831.got - 2010.04.10 19:12:36.
