data_PCOD8254237
_publ_section_title
;
Structure prediction by ZEFSAII (Michael W. Deem and Ramdas Pophale) SiO2 
 PCOD8254237
Probable space group: P N M A
;
_chemical_formula_sum "Si O2"
_cell_formula_units_Z 48
_cell_length_a 18.607798
_cell_length_b 8.587582
_cell_length_c 15.012028
_cell_angle_alpha 90.000000
_cell_angle_beta 90.000000
_cell_angle_gamma 90.000000
_cell_volume 2398.861894
_symmetry_space_group_name_H-M "P N M A"
_symmetry_group_IT_number 62
_symmetry_cell_setting 'orthorhombic'
loop_
_space_group_symop_operation_xyz
x,y,z
1/2-x,-y,1/2+z
1/2+x,1/2-y,1/2-z
-x,1/2+y,-z
-x,-y,-z
1/2+x,y,1/2-z
1/2-x,1/2+y,1/2+z
x,1/2-y,z
loop_
_atom_site_type_symbol
_atom_site_label
_atom_site_fract_x
_atom_site_fract_y
_atom_site_fract_z
Si Si1 0.678699 0.069282 0.994059
Si Si2 0.076850 0.569457 0.160882
Si Si3 0.925015 0.932467 0.653545
Si Si4 0.831895 0.929670 0.988893
Si Si5 0.088149 0.928866 0.655114
Si Si6 0.924094 0.071046 0.140417
O O1 0.698397 0.250000 0.001445
O O2 0.749524 0.968833 0.007964
O O3 0.642930 0.036618 0.898644
O O4 0.623370 0.017505 0.070649
O O5 0.056960 0.750000 0.157167
O O6 0.102667 0.524052 0.259768
O O7 0.141298 0.533012 0.093557
O O8 0.007681 0.470864 0.131179
O O9 0.920528 0.750000 0.675158
O O10 0.006924 0.979648 0.631621
O O11 0.839630 0.750000 0.963296
O O12 0.877226 0.962771 0.077332
O O13 0.101388 0.750000 0.628465
O O14 0.103101 0.956003 0.759280
O O15 0.914621 0.250000 0.111398
#
# Coordination Sequence:
#
# PCOD8254237 Si02
#       6
#     8   8   8   8   8   8
#     4  11  23  38  58  85 118 154 192 236 285 338
#     4  11  22  38  62  89 115 147 191 238 283 337
#     4   9  20  39  61  86 117 152 189 234 287 336
#     4  12  25  40  58  82 116 155 193 235 286 343
#     4   9  19  37  61  87 116 151 188 231 283 338
#     4  10  21  40  63  87 116 149 189 236 286 338
#
# _framework density 20.009487
#
# number of rings (size 3 to 8) (size 9 to 14) (size 15 to 20)
#    0.000    1.667    0.000    6.000    0.000    6.000 
#    0.000    1.667    0.000    0.000    0.000    0.000 
#    0.000    0.000    0.000    0.000    0.000    0.000 
#
# Total GULP energy -595530.259570 kJ/mol
# GULP energy per Si atom -12406.880408 kJ/mol
# Density = 1.996394 g / cm^3
# Si number density = 20.009487 Si / 1000 Ang^3
#
#
#
# Elastic Constant Matrix: (Units=GPa)
#
#
# Indices 1 2 3 4 5 6 
#
# 1 57.3451 16.1848 27.4085 0.0000 0.0000 0.0000
# 2 16.1848 68.6583 30.5482 0.0000 0.0000 0.0000
# 3 27.4085 30.5482 84.9152 0.0000 0.0000 0.0000
# 4 0.0000 0.0000 0.0000 35.9823 0.0000 0.0000
# 5 0.0000 0.0000 0.0000 0.0000 10.9053 0.0000
# 6 0.0000 0.0000 0.0000 0.0000 0.0000 33.7096
#
#
#
# Elastic Compliance Matrix: (Units=1/GPa)
#
#
# Indices 1 2 3 4 5 6 
#
# 1 0.020918 -0.002294 -0.005927 0.000000 0.000000 0.000000
# 2 -0.002294 0.017592 -0.005588 0.000000 0.000000 0.000000
# 3 -0.005927 -0.005588 0.015700 0.000000 0.000000 0.000000
# 4 0.000000 0.000000 0.000000 0.027791 0.000000 0.000000
# 5 0.000000 0.000000 0.000000 0.000000 0.091698 0.000000
# 6 0.000000 0.000000 0.000000 0.000000 0.000000 0.029665
#
#
# Mechanical properties :
#
#
# Convention : Reuss Voigt Hill
#
# Bulk Modulus (GPa) = 37.60497 39.91131 38.75814
# Shear Modulus (GPa) = 20.84660 25.23792 23.04226
#
# Velocity S-wave (km/s) = 3.23125 3.55533 3.39716
# Velocity P-wave (km/s) = 5.72326 6.06987 5.89911
#
# Compressibility (1/GPa) = 0.02659223
#
# Stress axis : x y z
#
# Youngs Moduli (GPa) = 47.80473 56.84379 63.69514
#
# Poissons Ratio (x) = 0.13041 0.37750
# Poissons Ratio (y) = 0.10967 0.35594
# Poissons Ratio (z) = 0.28332 0.31766
#
# Static dielectric constant tensor:
#      x y z
#    x 3.549500 0.000000 0.000000 
#    y 0.000000 3.567760 0.000000 
#    z 0.000000 0.000000 3.690600 
# 
# 
# High freq. dielectric constant tensor:
#      x y z
#    x 1.774300 0.000000 0.000000 
#    y 0.000000 1.784080 0.000000 
#    z 0.000000 0.000000 1.789950 
# 
# From -- ./inp_files/19543.got.cif
#   From: 2010.03.12/outbox.cif.g09.slc.cpg/sg62_10_cif.got.tgz:19543.got - 2010.04.10 19:12:36.
