data_PCOD8254881
_publ_section_title
;
Structure prediction by ZEFSAII (Michael W. Deem and Ramdas Pophale) SiO2 
 PCOD8254881
Probable space group: P N M A
;
_chemical_formula_sum "Si O2"
_cell_formula_units_Z 40
_cell_length_a 11.450030
_cell_length_b 14.281662
_cell_length_c 11.763651
_cell_angle_alpha 90.000000
_cell_angle_beta 90.000000
_cell_angle_gamma 90.000000
_cell_volume 1923.656422
_symmetry_space_group_name_H-M "P N M A"
_symmetry_group_IT_number 62
_symmetry_cell_setting 'orthorhombic'
loop_
_space_group_symop_operation_xyz
x,y,z
1/2-x,-y,1/2+z
1/2+x,1/2-y,1/2-z
-x,1/2+y,-z
-x,-y,-z
1/2+x,y,1/2-z
1/2-x,1/2+y,1/2+z
x,1/2-y,z
loop_
_atom_site_type_symbol
_atom_site_label
_atom_site_fract_x
_atom_site_fract_y
_atom_site_fract_z
Si Si1 0.747952 0.357112 0.101810
Si Si2 0.042125 0.143066 0.717540
Si Si3 0.806108 0.472279 0.319677
Si Si4 0.592996 0.945804 0.424545
Si Si5 0.987545 0.356708 0.465113
O O1 0.746606 0.250000 0.139061
O O2 0.799857 0.415429 0.204469
O O3 0.618363 0.390027 0.066816
O O4 0.834614 0.370396 0.996400
O O5 0.084436 0.250000 0.735635
O O6 0.968838 0.134772 0.600545
O O7 0.962868 0.110589 0.821316
O O8 0.156476 0.078182 0.710414
O O9 0.679534 0.473745 0.377853
O O10 0.898459 0.425286 0.403953
O O11 0.500000 0.000000 0.500000
O O12 0.965927 0.250000 0.425025
#
# Coordination Sequence:
#
# PCOD8254881 Si02
#       5
#     8   8   8   8   8
#     4  11  24  44  69  99 136 178 223 281 339 394
#     4  11  24  42  67  97 130 176 227 275 330 393
#     4  12  24  43  72  97 137 175 227 276 332 404
#     4  12  26  43  67 101 139 176 220 278 342 399
#     4  10  23  45  71  99 131 178 229 275 331 398
#
# _framework density 20.793734000000001
#
# number of rings (size 3 to 8) (size 9 to 14) (size 15 to 20)
#    0.000    0.800    4.000    3.000    2.800    0.800 
#    0.000    5.000    0.000    0.000    0.000    0.000 
#    0.000    0.000    0.000    0.000    0.000    0.000 
#
# Total GULP energy -496174.222754 kJ/mol
# GULP energy per Si atom -12404.355569 kJ/mol
# Density = 2.074641 g / cm^3
# Si number density = 20.793734 Si / 1000 Ang^3
#
#
#
# Elastic Constant Matrix: (Units=GPa)
#
#
# Indices 1 2 3 4 5 6 
#
# 1 96.4906 49.4606 55.8584 0.0000 0.0000 0.0000
# 2 49.4606 126.3350 61.1207 0.0000 0.0000 0.0000
# 3 55.8584 61.1207 142.8872 0.0000 0.0000 0.0000
# 4 0.0000 0.0000 0.0000 33.5520 0.0000 0.0000
# 5 0.0000 0.0000 0.0000 0.0000 41.2876 0.0000
# 6 0.0000 0.0000 0.0000 0.0000 0.0000 26.4587
#
#
#
# Elastic Compliance Matrix: (Units=1/GPa)
#
#
# Indices 1 2 3 4 5 6 
#
# 1 0.014678 -0.003746 -0.004136 0.000000 0.000000 0.000000
# 2 -0.003746 0.010937 -0.003214 0.000000 0.000000 0.000000
# 3 -0.004136 -0.003214 0.009990 0.000000 0.000000 0.000000
# 4 0.000000 0.000000 0.000000 0.029804 0.000000 0.000000
# 5 0.000000 0.000000 0.000000 0.000000 0.024220 0.000000
# 6 0.000000 0.000000 0.000000 0.000000 0.000000 0.037795
#
#
# Mechanical properties :
#
#
# Convention : Reuss Voigt Hill
#
# Bulk Modulus (GPa) = 74.54867 77.62135 76.08501
# Shear Modulus (GPa) = 32.44930 33.54452 32.99691
#
# Velocity S-wave (km/s) = 3.95464 4.02083 3.98787
# Velocity P-wave (km/s) = 7.53536 7.67895 7.60749
#
# Compressibility (1/GPa) = 0.01341405
#
# Stress axis : x y z
#
# Youngs Moduli (GPa) = 68.12983 91.43433 100.09867
#
# Poissons Ratio (x) = 0.34247 0.41399
# Poissons Ratio (y) = 0.25518 0.32172
# Poissons Ratio (z) = 0.28177 0.29387
#
# Static dielectric constant tensor:
#      x y z
#    x 3.783440 0.000000 0.000000 
#    y 0.000000 3.856640 0.000000 
#    z 0.000000 0.000000 3.957010 
# 
# 
# High freq. dielectric constant tensor:
#      x y z
#    x 1.811620 0.000000 0.000000 
#    y 0.000000 1.822420 0.000000 
#    z 0.000000 0.000000 1.831550 
# 
# From -- ./inp_files/12056.got.cif
#   From: 2010.03.12/outbox.cif.g09.slc.cpg/sg62_7_cif.got.tgz:12056.got - 2010.04.10 19:12:36.
