data_PCOD8254889
_publ_section_title
;
Structure prediction by ZEFSAII (Michael W. Deem and Ramdas Pophale) SiO2 
 PCOD8254889
Probable space group: P N M A
;
_chemical_formula_sum "Si O2"
_cell_formula_units_Z 64
_cell_length_a 8.158931
_cell_length_b 15.634642
_cell_length_c 24.460086
_cell_angle_alpha 90.000000
_cell_angle_beta 90.000000
_cell_angle_gamma 90.000000
_cell_volume 3120.176641
_symmetry_space_group_name_H-M "P N M A"
_symmetry_group_IT_number 62
_symmetry_cell_setting 'orthorhombic'
loop_
_space_group_symop_operation_xyz
x,y,z
1/2-x,-y,1/2+z
1/2+x,1/2-y,1/2-z
-x,1/2+y,-z
-x,-y,-z
1/2+x,y,1/2-z
1/2-x,1/2+y,1/2+z
x,1/2-y,z
loop_
_atom_site_type_symbol
_atom_site_label
_atom_site_fract_x
_atom_site_fract_y
_atom_site_fract_z
Si Si1 0.627053 0.576001 0.261071
Si Si2 0.104236 0.008524 0.670838
Si Si3 0.148364 0.153791 0.824594
Si Si4 0.251042 0.084040 0.935240
Si Si5 0.073423 0.348864 0.032107
Si Si6 0.789758 0.604805 0.535317
Si Si7 0.413834 0.652301 0.077472
Si Si8 0.101897 0.653967 0.599162
O O1 0.722375 0.508221 0.298731
O O2 0.527389 0.519949 0.218389
O O3 0.738668 0.642142 0.228158
O O4 0.532633 0.635178 0.303984
O O5 0.071024 0.915563 0.645889
O O6 0.096393 0.087405 0.628280
O O7 0.163767 0.250000 0.847330
O O8 0.193117 0.087715 0.872598
O O9 0.399795 0.150331 0.945477
O O10 0.327033 0.992054 0.948608
O O11 0.097148 0.102649 0.974473
O O12 0.078680 0.250000 0.019325
O O13 0.228417 0.375055 0.069793
O O14 0.894325 0.372184 0.057120
O O15 0.790010 0.621911 0.470144
O O16 0.939296 0.658595 0.561160
O O17 0.372250 0.750000 0.095382
O O18 0.125002 0.750000 0.623179
#
# Coordination Sequence:
#
# PCOD8254889 Si02
#       8
#     8   8   8   8   8   8   8   8
#     4  10  24  41  63  85 125 167 209 277 331 381
#     4  11  24  45  65  93 126 166 218 269 332 387
#     4  11  22  38  59  90 123 167 219 266 323 385
#     4  12  23  39  62  91 132 175 215 266 318 388
#     4  11  24  39  61  97 133 171 219 262 314 386
#     4  12  24  42  64  96 136 178 215 261 321 386
#     4  12  23  39  64  94 133 179 218 260 321 390
#     4  11  23  44  71  97 131 172 214 268 328 388
#
# _framework density 20.511658000000001
#
# number of rings (size 3 to 8) (size 9 to 14) (size 15 to 20)
#    0.000    0.750    3.750    4.125    3.500    2.500 
#    0.000    0.625    0.000    0.000    0.000    0.000 
#    0.000    0.000    0.000    0.000    0.000    0.000 
#
# Total GULP energy -793467.933482 kJ/mol
# GULP energy per Si atom -12397.936461 kJ/mol
# Density = 2.046497 g / cm^3
# Si number density = 20.511658 Si / 1000 Ang^3
#
#
#
# Elastic Constant Matrix: (Units=GPa)
#
#
# Indices 1 2 3 4 5 6 
#
# 1 131.1880 21.6148 31.0858 0.0000 0.0000 0.0000
# 2 21.6148 121.0891 52.3824 0.0000 0.0000 0.0000
# 3 31.0858 52.3824 76.9151 0.0000 0.0000 0.0000
# 4 0.0000 0.0000 0.0000 22.8584 0.0000 0.0000
# 5 0.0000 0.0000 0.0000 0.0000 32.2191 0.0000
# 6 0.0000 0.0000 0.0000 0.0000 0.0000 24.7352
#
#
#
# Elastic Compliance Matrix: (Units=1/GPa)
#
#
# Indices 1 2 3 4 5 6 
#
# 1 0.008430 -0.000044 -0.003377 0.000000 0.000000 0.000000
# 2 -0.000044 0.011708 -0.007956 0.000000 0.000000 0.000000
# 3 -0.003377 -0.007956 0.019785 0.000000 0.000000 0.000000
# 4 0.000000 0.000000 0.000000 0.043748 0.000000 0.000000
# 5 0.000000 0.000000 0.000000 0.000000 0.031037 0.000000
# 6 0.000000 0.000000 0.000000 0.000000 0.000000 0.040428
#
#
# Mechanical properties :
#
#
# Convention : Reuss Voigt Hill
#
# Bulk Modulus (GPa) = 58.24548 59.92869 59.08708
# Shear Modulus (GPa) = 27.23128 30.90317 29.06723
#
# Velocity S-wave (km/s) = 3.64758 3.88572 3.76853
# Velocity P-wave (km/s) = 6.79689 7.02938 6.91411
#
# Compressibility (1/GPa) = 0.01716871
#
# Stress axis : x y z
#
# Youngs Moduli (GPa) = 118.62220 85.41295 50.54461
#
# Poissons Ratio (x) = 0.00374 0.17070
# Poissons Ratio (y) = 0.00520 0.40212
# Poissons Ratio (z) = 0.40062 0.67953
#
# Static dielectric constant tensor:
#      x y z
#    x 4.038320 0.000000 0.000000 
#    y 0.000000 3.585110 0.000000 
#    z 0.000000 0.000000 3.606280 
# 
# 
# High freq. dielectric constant tensor:
#      x y z
#    x 1.818390 0.000000 0.000000 
#    y 0.000000 1.794910 0.000000 
#    z 0.000000 0.000000 1.788810 
# 
# From -- ./inp_files/29016.got.cif
#   From: 2010.03.12/outbox.cif.g09.slc.cpg/sg62_15_cif.got.tgz:29016.got - 2010.04.10 19:12:36.
