data_PCOD8254513
_publ_section_title
;
Structure prediction by ZEFSAII (Michael W. Deem and Ramdas Pophale) SiO2 
 PCOD8254513
Probable space group: P N M A
;
_chemical_formula_sum "Si O2"
_cell_formula_units_Z 56
_cell_length_a 14.705861
_cell_length_b 20.681690
_cell_length_c 8.995711
_cell_angle_alpha 90.000000
_cell_angle_beta 90.000000
_cell_angle_gamma 90.000000
_cell_volume 2735.974060
_symmetry_space_group_name_H-M "P N M A"
_symmetry_group_IT_number 62
_symmetry_cell_setting 'orthorhombic'
loop_
_space_group_symop_operation_xyz
x,y,z
1/2-x,-y,1/2+z
1/2+x,1/2-y,1/2-z
-x,1/2+y,-z
-x,-y,-z
1/2+x,y,1/2-z
1/2-x,1/2+y,1/2+z
x,1/2-y,z
loop_
_atom_site_type_symbol
_atom_site_label
_atom_site_fract_x
_atom_site_fract_y
_atom_site_fract_z
Si Si1 0.244589 0.032760 0.807495
Si Si2 0.056117 0.941526 0.425161
Si Si3 0.946143 0.175451 0.018656
Si Si4 0.921342 0.623128 0.208564
Si Si5 0.647731 0.181607 0.997440
Si Si6 0.207509 0.921696 0.998746
Si Si7 0.464068 0.321723 0.136871
O O1 0.340911 0.037672 0.891494
O O2 0.172758 0.089556 0.841997
O O3 0.265696 0.030665 0.632970
O O4 0.192087 0.967111 0.855757
O O5 0.998369 0.924779 0.276774
O O6 0.070595 0.878761 0.530166
O O7 0.000000 0.000000 0.500000
O O8 0.920062 0.250000 0.986408
O O9 0.873747 0.125113 0.950652
O O10 0.946045 0.160366 0.192777
O O11 0.041022 0.159342 0.937528
O O12 0.897873 0.674815 0.335505
O O13 0.701616 0.250000 0.998496
O O14 0.709151 0.123006 0.044990
O O15 0.571917 0.183589 0.123704
O O16 0.421497 0.250000 0.098056
#
# Coordination Sequence:
#
# PCOD8254513 Si02
#       7
#     8   8   8   8   8   8   8
#     4  11  24  41  60  96 127 166 216 260 324 380
#     4  11  22  42  66  92 127 173 217 265 323 388
#     4  11  23  42  64  93 129 164 210 267 329 383
#     4  10  22  39  63  94 121 163 208 269 318 372
#     4   9  18  39  64  86 116 161 210 255 313 381
#     4  11  24  40  61  92 126 166 210 262 318 384
#     4   9  21  39  61  89 123 166 209 261 324 389
#
# _framework density 20.468029999999999
#
# number of rings (size 3 to 8) (size 9 to 14) (size 15 to 20)
#    0.000    1.714    1.429    3.429    4.000    3.429 
#    0.000    1.429    0.000    0.000    0.000    0.000 
#    0.000    0.000    0.000    0.000    0.000    0.000 
#
# Total GULP energy -693907.305285 kJ/mol
# GULP energy per Si atom -12391.201880 kJ/mol
# Density = 2.042144 g / cm^3
# Si number density = 20.468030 Si / 1000 Ang^3
#
#
#
# Elastic Constant Matrix: (Units=GPa)
#
#
# Indices 1 2 3 4 5 6 
#
# 1 81.9577 27.2271 18.4295 0.0000 0.0000 0.0000
# 2 27.2271 119.5969 46.0342 0.0000 0.0000 0.0000
# 3 18.4295 46.0342 42.9559 0.0000 0.0000 0.0000
# 4 0.0000 0.0000 0.0000 26.4624 0.0000 0.0000
# 5 0.0000 0.0000 0.0000 0.0000 29.3290 0.0000
# 6 0.0000 0.0000 0.0000 0.0000 0.0000 -113.4754
#
#
#
# Elastic Compliance Matrix: (Units=1/GPa)
#
#
# Indices 1 2 3 4 5 6 
#
# 1 0.013651 -0.001453 -0.004300 0.000000 0.000000 0.000000
# 2 -0.001453 0.014387 -0.014794 0.000000 0.000000 0.000000
# 3 -0.004300 -0.014794 0.040979 0.000000 0.000000 0.000000
# 4 0.000000 0.000000 0.000000 0.037789 0.000000 0.000000
# 5 0.000000 0.000000 0.000000 0.000000 0.034096 0.000000
# 6 0.000000 0.000000 0.000000 0.000000 0.000000 -0.008812
#
#
# Mechanical properties :
#
#
# Convention : Reuss Voigt Hill
#
# Bulk Modulus (GPa) = 35.81320 47.54356 41.67838
# Shear Modulus (GPa) = 27.39859 -1.34883 13.02488
#
# Velocity S-wave (km/s) = 3.66266 -0.81266 2.52534
# Velocity P-wave (km/s) = 5.95163 4.73266 5.37680
#
# Compressibility (1/GPa) = 0.02792267
#
# Stress axis : x y z
#
# Youngs Moduli (GPa) = 73.25527 69.50886 24.40270
#
# Poissons Ratio (x) = 0.10097 0.10493
# Poissons Ratio (y) = 0.10641 0.36102
# Poissons Ratio (z) = 0.31500 1.02834
#
# Static dielectric constant tensor:
#      x y z
#    x 3.687700 0.000000 0.000000 
#    y 0.000000 4.036640 0.000000 
#    z 0.000000 0.000000 3.593890 
# 
# 
# High freq. dielectric constant tensor:
#      x y z
#    x 1.795210 0.000000 0.000000 
#    y 0.000000 1.812770 0.000000 
#    z 0.000000 0.000000 1.792600 
# 
# From -- ./inp_files/6762.got.cif
#   From: 2010.03.12/outbox.cif.g09.slc.cpg/sg62_4_cif.got.tgz:6762.got - 2010.04.10 19:12:36.
