data_PCOD8254094
_publ_section_title
;
Structure prediction by ZEFSAII (Michael W. Deem and Ramdas Pophale) SiO2 
 PCOD8254094
Probable space group: P N M A
;
_chemical_formula_sum "Si O2"
_cell_formula_units_Z 40
_cell_length_a 15.352352
_cell_length_b 17.008917
_cell_length_c 7.734262
_cell_angle_alpha 90.000000
_cell_angle_beta 90.000000
_cell_angle_gamma 90.000000
_cell_volume 2019.623712
_symmetry_space_group_name_H-M "P N M A"
_symmetry_group_IT_number 62
_symmetry_cell_setting 'orthorhombic'
loop_
_space_group_symop_operation_xyz
x,y,z
1/2-x,-y,1/2+z
1/2+x,1/2-y,1/2-z
-x,1/2+y,-z
-x,-y,-z
1/2+x,y,1/2-z
1/2-x,1/2+y,1/2+z
x,1/2-y,z
loop_
_atom_site_type_symbol
_atom_site_label
_atom_site_fract_x
_atom_site_fract_y
_atom_site_fract_z
Si Si1 0.840279 0.480120 0.755627
Si Si2 0.997019 0.908574 0.775951
Si Si3 0.437985 0.838294 0.074812
Si Si4 0.070065 0.662391 0.111716
Si Si5 0.849209 0.994448 0.368756
O O1 0.851795 0.399665 0.863648
O O2 0.743282 0.513043 0.782438
O O3 0.855429 0.463029 0.553702
O O4 0.909248 0.544303 0.823190
O O5 0.074740 0.971288 0.751171
O O6 0.985844 0.855772 0.605980
O O7 0.017740 0.852016 0.935121
O O8 0.398961 0.750000 0.070507
O O9 0.506280 0.847651 0.227654
O O10 0.360610 0.900518 0.106571
O O11 0.109846 0.750000 0.105528
#
# Coordination Sequence:
#
# PCOD8254094 Si02
#       5
#     8   8   8   8   8
#     4  11  22  38  62  90 122 156 206 248 296 357
#     4  11  21  41  62  90 117 159 202 251 294 357
#     4  10  21  39  60  86 120 153 194 246 301 356
#     4  11  22  37  62  88 117 157 196 243 303 355
#     4  11  22  38  62  90 120 161 201 250 300 351
#
# _framework density 19.805669999999999
#
# number of rings (size 3 to 8) (size 9 to 14) (size 15 to 20)
#    0.000    1.200    4.000    3.600    2.800    0.800 
#    0.000    0.000    0.000    4.800    0.000    0.000 
#    0.000    0.000    0.000    0.000    0.000    0.000 
#
# Total GULP energy -496113.090386 kJ/mol
# GULP energy per Si atom -12402.827260 kJ/mol
# Density = 1.976059 g / cm^3
# Si number density = 19.805670 Si / 1000 Ang^3
#
#
#
# Elastic Constant Matrix: (Units=GPa)
#
#
# Indices 1 2 3 4 5 6 
#
# 1 100.0683 31.6293 6.7705 0.0000 0.0000 0.0000
# 2 31.6293 94.6598 40.5693 0.0000 0.0000 0.0000
# 3 6.7705 40.5693 83.3416 0.0000 0.0000 0.0000
# 4 0.0000 0.0000 0.0000 22.2596 0.0000 0.0000
# 5 0.0000 0.0000 0.0000 0.0000 28.5292 0.0000
# 6 0.0000 0.0000 0.0000 0.0000 0.0000 14.4934
#
#
#
# Elastic Compliance Matrix: (Units=1/GPa)
#
#
# Indices 1 2 3 4 5 6 
#
# 1 0.011261 -0.004259 0.001158 0.000000 0.000000 0.000000
# 2 -0.004259 0.014960 -0.006936 0.000000 0.000000 0.000000
# 3 0.001158 -0.006936 0.015281 0.000000 0.000000 0.000000
# 4 0.000000 0.000000 0.000000 0.044924 0.000000 0.000000
# 5 0.000000 0.000000 0.000000 0.000000 0.035052 0.000000
# 6 0.000000 0.000000 0.000000 0.000000 0.000000 0.068997
#
#
# Mechanical properties :
#
#
# Convention : Reuss Voigt Hill
#
# Bulk Modulus (GPa) = 46.66744 48.44530 47.55637
# Shear Modulus (GPa) = 22.96819 26.32981 24.64900
#
# Velocity S-wave (km/s) = 3.40910 3.65006 3.53163
# Velocity P-wave (km/s) = 6.25378 6.50210 6.37915
#
# Compressibility (1/GPa) = 0.02142821
#
# Stress axis : x y z
#
# Youngs Moduli (GPa) = 88.80178 66.84460 65.44004
#
# Poissons Ratio (x) = 0.28471 -0.07581
# Poissons Ratio (y) = 0.37823 0.45391
# Poissons Ratio (z) = -0.10288 0.46365
#
# Static dielectric constant tensor:
#      x y z
#    x 3.384870 0.000000 0.000000 
#    y 0.000000 3.685920 0.000000 
#    z 0.000000 0.000000 3.721420 
# 
# 
# High freq. dielectric constant tensor:
#      x y z
#    x 1.753670 0.000000 0.000000 
#    y 0.000000 1.767850 0.000000 
#    z 0.000000 0.000000 1.790400 
# 
# From -- ./inp_files/6114.got.cif
#   From: 2010.03.12/outbox.cif.g09.slc.cpg/sg62_4_cif.got.tgz:6114.got - 2010.04.10 19:12:36.
