data_PCOD8254505
_publ_section_title
;
Structure prediction by ZEFSAII (Michael W. Deem and Ramdas Pophale) SiO2 
 PCOD8254505
Probable space group: P N M A
;
_chemical_formula_sum "Si O2"
_cell_formula_units_Z 48
_cell_length_a 13.461852
_cell_length_b 12.537061
_cell_length_c 12.939979
_cell_angle_alpha 90.000000
_cell_angle_beta 90.000000
_cell_angle_gamma 90.000000
_cell_volume 2183.906908
_symmetry_space_group_name_H-M "P N M A"
_symmetry_group_IT_number 62
_symmetry_cell_setting 'orthorhombic'
loop_
_space_group_symop_operation_xyz
x,y,z
1/2-x,-y,1/2+z
1/2+x,1/2-y,1/2-z
-x,1/2+y,-z
-x,-y,-z
1/2+x,y,1/2-z
1/2-x,1/2+y,1/2+z
x,1/2-y,z
loop_
_atom_site_type_symbol
_atom_site_label
_atom_site_fract_x
_atom_site_fract_y
_atom_site_fract_z
Si Si1 0.473830 0.875529 0.960799
Si Si2 0.801256 0.443388 0.141115
Si Si3 0.501165 0.625573 0.726247
Si Si4 0.294466 0.577378 0.655984
Si Si5 0.232695 0.131644 0.562483
Si Si6 0.181569 0.630157 0.456885
O O1 0.485000 0.750000 0.958872
O O2 0.474072 0.914417 0.841773
O O3 0.569444 0.919816 0.026110
O O4 0.374174 0.908710 0.021342
O O5 0.740054 0.383773 0.231103
O O6 0.913354 0.452656 0.182668
O O7 0.803111 0.370825 0.038627
O O8 0.750046 0.558020 0.117069
O O9 0.533130 0.750000 0.723794
O O10 0.409956 0.605906 0.647928
O O11 0.274241 0.449686 0.647694
O O12 0.233322 0.639033 0.568867
O O13 0.230655 0.250000 0.610462
O O14 0.175223 0.750000 0.410623
#
# Coordination Sequence:
#
# PCOD8254505 Si02
#       6
#     8   8   8   8   8   8
#     4   9  18  36  65  93 118 158 210 264 308 354
#     4  11  23  38  61  93 125 164 207 260 312 373
#     4  11  22  38  65  96 125 159 211 263 313 370
#     4  11  23  38  61  93 125 164 207 260 312 373
#     4  10  22  39  61  91 129 167 207 256 311 370
#     4  10  22  39  61  91 129 167 207 256 311 370
#
# _framework density 21.978959
#
# number of rings (size 3 to 8) (size 9 to 14) (size 15 to 20)
#    0.000    1.667    3.333    1.000    0.000    8.667 
#    0.000    2.500    0.000    0.000    0.000    0.000 
#    0.000    0.000    0.000    0.000    0.000    0.000 
#
# Total GULP energy -594998.072940 kJ/mol
# GULP energy per Si atom -12395.793186 kJ/mol
# Density = 2.192893 g / cm^3
# Si number density = 21.978959 Si / 1000 Ang^3
#
#
#
# Elastic Constant Matrix: (Units=GPa)
#
#
# Indices 1 2 3 4 5 6 
#
# 1 120.8152 -1.0380 22.6811 0.0000 0.0000 0.0000
# 2 -1.0380 60.2769 0.7472 0.0000 0.0000 0.0000
# 3 22.6811 0.7472 60.5991 0.0000 0.0000 0.0000
# 4 0.0000 0.0000 0.0000 20.0202 0.0000 0.0000
# 5 0.0000 0.0000 0.0000 0.0000 25.2733 0.0000
# 6 0.0000 0.0000 0.0000 0.0000 0.0000 19.0431
#
#
#
# Elastic Compliance Matrix: (Units=1/GPa)
#
#
# Indices 1 2 3 4 5 6 
#
# 1 0.008905 0.000195 -0.003335 0.000000 0.000000 0.000000
# 2 0.000195 0.016597 -0.000278 0.000000 0.000000 0.000000
# 3 -0.003335 -0.000278 0.017754 0.000000 0.000000 0.000000
# 4 0.000000 0.000000 0.000000 0.049950 0.000000 0.000000
# 5 0.000000 0.000000 0.000000 0.000000 0.039567 0.000000
# 6 0.000000 0.000000 0.000000 0.000000 0.000000 0.052512
#
#
# Mechanical properties :
#
#
# Convention : Reuss Voigt Hill
#
# Bulk Modulus (GPa) = 27.45807 31.83020 29.64414
# Shear Modulus (GPa) = 24.47848 27.48737 25.98292
#
# Velocity S-wave (km/s) = 3.34087 3.54025 3.44200
# Velocity P-wave (km/s) = 5.23468 5.58791 5.41418
#
# Compressibility (1/GPa) = 0.03641916
#
# Stress axis : x y z
#
# Youngs Moduli (GPa) = 112.29727 60.25223 56.32633
#
# Poissons Ratio (x) = -0.01173 0.18787
# Poissons Ratio (y) = -0.02186 0.01563
# Poissons Ratio (z) = 0.37455 0.01672
#
# Static dielectric constant tensor:
#      x y z
#    x 4.142200 0.000000 0.000000 
#    y 0.000000 3.920390 0.000000 
#    z 0.000000 0.000000 3.744870 
# 
# 
# High freq. dielectric constant tensor:
#      x y z
#    x 1.868880 0.000000 0.000000 
#    y 0.000000 1.870200 0.000000 
#    z 0.000000 0.000000 1.845370 
# 
# From -- ./inp_files/17979.got.cif
#   From: 2010.03.12/outbox.cif.g09.slc.cpg/sg62_9_cif.got.tgz:17979.got - 2010.04.10 19:12:36.
