data_PCOD8254016
_publ_section_title
;
Structure prediction by ZEFSAII (Michael W. Deem and Ramdas Pophale) SiO2 
 PCOD8254016
Probable space group: P N M A
;
_chemical_formula_sum "Si O2"
_cell_formula_units_Z 56
_cell_length_a 10.828529
_cell_length_b 11.391917
_cell_length_c 22.277345
_cell_angle_alpha 90.000000
_cell_angle_beta 90.000000
_cell_angle_gamma 90.000000
_cell_volume 2748.082122
_symmetry_space_group_name_H-M "P N M A"
_symmetry_group_IT_number 62
_symmetry_cell_setting 'orthorhombic'
loop_
_space_group_symop_operation_xyz
x,y,z
1/2-x,-y,1/2+z
1/2+x,1/2-y,1/2-z
-x,1/2+y,-z
-x,-y,-z
1/2+x,y,1/2-z
1/2-x,1/2+y,1/2+z
x,1/2-y,z
loop_
_atom_site_type_symbol
_atom_site_label
_atom_site_fract_x
_atom_site_fract_y
_atom_site_fract_z
Si Si1 0.151696 0.750000 0.813183
Si Si2 0.282536 0.882087 0.008935
Si Si3 0.844595 0.383342 0.687374
Si Si4 0.872694 0.750000 0.783310
Si Si5 0.179463 0.504116 0.188523
Si Si6 0.897433 0.885727 0.371200
Si Si7 0.315531 0.024775 0.395388
Si Si8 0.960044 0.118086 0.917895
O O1 0.280280 0.750000 0.774913
O O2 0.149036 0.638107 0.856632
O O3 0.023979 0.750000 0.772470
O O4 0.324396 0.750000 0.995857
O O5 0.370984 0.934840 0.061244
O O6 0.141021 0.889070 0.030182
O O7 0.290168 0.949369 0.945380
O O8 0.826649 0.250000 0.709171
O O9 0.860746 0.468089 0.743783
O O10 0.727015 0.422613 0.649364
O O11 0.960291 0.398250 0.643549
O O12 0.840166 0.634736 0.822353
O O13 0.322438 0.537564 0.177427
O O14 0.097326 0.583622 0.145892
O O15 0.852048 0.750000 0.367940
O O16 0.432134 0.974162 0.431765
O O17 0.012750 0.250000 0.913477
#
# Coordination Sequence:
#
# PCOD8254016 Si02
#       8
#     4   8   8   4   8   8   8   8
#     4  12  26  44  62  94 130 176 208 266 318 378
#     4   9  19  38  63  85 119 162 204 256 307 378
#     4  11  24  38  60  91 123 161 202 260 315 380
#     4  12  26  42  62  90 134 166 214 256 314 380
#     4  11  22  39  62  87 120 161 204 249 311 374
#     4   9  21  41  62  90 122 160 204 255 323 373
#     4  12  22  38  63  90 120 163 211 251 317 368
#     4  10  21  38  61  92 120 155 201 259 313 363
#
# _framework density 20.377846999999999
#
# number of rings (size 3 to 8) (size 9 to 14) (size 15 to 20)
#    0.000    1.429    3.571    3.000    4.000    0.571 
#    0.000    0.000    6.286    0.000    0.000    0.000 
#    0.000    0.000    0.000    0.000    0.000    0.000 
#
# Total GULP energy -694191.117124 kJ/mol
# GULP energy per Si atom -12396.269949 kJ/mol
# Density = 2.033147 g / cm^3
# Si number density = 20.377847 Si / 1000 Ang^3
#
#
#
# Elastic Constant Matrix: (Units=GPa)
#
#
# Indices 1 2 3 4 5 6 
#
# 1 47.8874 27.8556 -0.9094 0.0000 0.0000 0.0000
# 2 27.8556 98.6220 26.2878 0.0000 0.0000 0.0000
# 3 -0.9094 26.2878 62.7609 0.0000 0.0000 0.0000
# 4 0.0000 0.0000 0.0000 16.0972 0.0000 0.0000
# 5 0.0000 0.0000 0.0000 0.0000 17.5509 0.0000
# 6 0.0000 0.0000 0.0000 0.0000 0.0000 20.7399
#
#
#
# Elastic Compliance Matrix: (Units=1/GPa)
#
#
# Indices 1 2 3 4 5 6 
#
# 1 0.025791 -0.008312 0.003855 0.000000 0.000000 0.000000
# 2 -0.008312 0.014093 -0.006023 0.000000 0.000000 0.000000
# 3 0.003855 -0.006023 0.018512 0.000000 0.000000 0.000000
# 4 0.000000 0.000000 0.000000 0.062123 0.000000 0.000000
# 5 0.000000 0.000000 0.000000 0.000000 0.056977 0.000000
# 6 0.000000 0.000000 0.000000 0.000000 0.000000 0.048216
#
#
# Mechanical properties :
#
#
# Convention : Reuss Voigt Hill
#
# Bulk Modulus (GPa) = 26.71266 35.08205 30.89735
# Shear Modulus (GPa) = 19.29379 21.28003 20.28691
#
# Velocity S-wave (km/s) = 3.08035 3.23503 3.15864
# Velocity P-wave (km/s) = 5.07824 5.58632 5.33833
#
# Compressibility (1/GPa) = 0.03743544
#
# Stress axis : x y z
#
# Youngs Moduli (GPa) = 38.77374 70.95703 54.01817
#
# Poissons Ratio (x) = 0.58981 -0.20826
# Poissons Ratio (y) = 0.32229 0.32537
# Poissons Ratio (z) = -0.14948 0.42740
#
# Static dielectric constant tensor:
#      x y z
#    x 3.669680 0.000000 0.000000 
#    y 0.000000 3.810550 0.000000 
#    z 0.000000 0.000000 3.598990 
# 
# 
# High freq. dielectric constant tensor:
#      x y z
#    x 1.787210 0.000000 0.000000 
#    y 0.000000 1.798920 0.000000 
#    z 0.000000 0.000000 1.791710 
# 
# From -- ./inp_files/29420.got.cif
#   From: 2010.03.12/outbox.cif.g09.slc.cpg/sg62_15_cif.got.tgz:29420.got - 2010.04.10 19:12:36.
