data_PCOD8254697
_publ_section_title
;
Structure prediction by ZEFSAII (Michael W. Deem and Ramdas Pophale) SiO2 
 PCOD8254697
Probable space group: P N M A
;
_chemical_formula_sum "Si O2"
_cell_formula_units_Z 32
_cell_length_a 5.059003
_cell_length_b 12.875633
_cell_length_c 20.273516
_cell_angle_alpha 90.000000
_cell_angle_beta 90.000000
_cell_angle_gamma 90.000000
_cell_volume 1320.573568
_symmetry_space_group_name_H-M "P N M A"
_symmetry_group_IT_number 62
_symmetry_cell_setting 'orthorhombic'
loop_
_space_group_symop_operation_xyz
x,y,z
1/2-x,-y,1/2+z
1/2+x,1/2-y,1/2-z
-x,1/2+y,-z
-x,-y,-z
1/2+x,y,1/2-z
1/2-x,1/2+y,1/2+z
x,1/2-y,z
loop_
_atom_site_type_symbol
_atom_site_label
_atom_site_fract_x
_atom_site_fract_y
_atom_site_fract_z
Si Si1 0.956239 0.367106 0.927489
Si Si2 0.254383 0.570203 0.209254
Si Si3 0.744275 0.068765 0.062745
Si Si4 0.239764 0.365714 0.139801
O O1 0.059767 0.250000 0.938667
O O2 0.790783 0.372810 0.859927
O O3 0.204946 0.445732 0.925179
O O4 0.759713 0.402790 0.985789
O O5 0.536890 0.604641 0.237196
O O6 0.241412 0.444891 0.201049
O O7 0.453041 0.097481 0.086046
O O8 0.958012 0.134470 0.103698
O O9 0.299890 0.250000 0.166190
#
# Coordination Sequence:
#
# PCOD8254697 Si02
#       4
#     8   8   8   8
#     4  10  22  42  68  94 130 176 215 268 335 385
#     4  11  25  42  59  89 128 167 218 261 298 376
#     4  10  23  41  65 102 131 157 216 278 327 396
#     4  11  22  41  68  95 129 168 209 271 338 387
#
# _framework density 24.231895000000002
#
# number of rings (size 3 to 8) (size 9 to 14) (size 15 to 20)
#    0.000    1.500    0.000    5.250    0.000   13.000 
#    0.000   17.500    0.000    0.000    0.000    0.000 
#    0.000    0.000    0.000    0.000    0.000    0.000 
#
# Total GULP energy -396909.645733 kJ/mol
# GULP energy per Si atom -12403.426429 kJ/mol
# Density = 2.417674 g / cm^3
# Si number density = 24.231895 Si / 1000 Ang^3
#
#
#
# Elastic Constant Matrix: (Units=GPa)
#
#
# Indices 1 2 3 4 5 6 
#
# 1 64.5677 4.7073 10.5775 0.0000 0.0000 0.0000
# 2 4.7073 165.4465 -1.0231 0.0000 0.0000 0.0000
# 3 10.5775 -1.0231 78.0104 0.0000 0.0000 0.0000
# 4 0.0000 0.0000 0.0000 13.3043 0.0000 0.0000
# 5 0.0000 0.0000 0.0000 0.0000 30.8862 0.0000
# 6 0.0000 0.0000 0.0000 0.0000 0.0000 17.6941
#
#
#
# Elastic Compliance Matrix: (Units=1/GPa)
#
#
# Indices 1 2 3 4 5 6 
#
# 1 0.015875 -0.000465 -0.002159 0.000000 0.000000 0.000000
# 2 -0.000465 0.006058 0.000143 0.000000 0.000000 0.000000
# 3 -0.002159 0.000143 0.013113 0.000000 0.000000 0.000000
# 4 0.000000 0.000000 0.000000 0.075164 0.000000 0.000000
# 5 0.000000 0.000000 0.000000 0.000000 0.032377 0.000000
# 6 0.000000 0.000000 0.000000 0.000000 0.000000 0.056516
#
#
# Mechanical properties :
#
#
# Convention : Reuss Voigt Hill
#
# Bulk Modulus (GPa) = 33.23961 37.39421 35.31691
# Shear Modulus (GPa) = 23.35422 31.96111 27.65766
#
# Velocity S-wave (km/s) = 3.10785 3.63570 3.38209
# Velocity P-wave (km/s) = 5.15998 5.75237 5.46421
#
# Compressibility (1/GPa) = 0.03008459
#
# Stress axis : x y z
#
# Youngs Moduli (GPa) = 62.99149 165.06106 76.25810
#
# Poissons Ratio (x) = 0.07676 0.16461
# Poissons Ratio (y) = 0.02929 -0.01087
# Poissons Ratio (z) = 0.13597 -0.02352
#
# Static dielectric constant tensor:
#      x y z
#    x 4.092640 0.000000 0.000000 
#    y 0.000000 4.524920 0.000000 
#    z 0.000000 0.000000 4.297640 
# 
# 
# High freq. dielectric constant tensor:
#      x y z
#    x 1.955580 0.000000 0.000000 
#    y 0.000000 1.961330 0.000000 
#    z 0.000000 0.000000 1.963270 
# 
# From -- ./inp_files/28122.got.cif
#   From: 2010.03.12/outbox.cif.g09.slc.cpg/sg62_15_cif.got.tgz:28122.got - 2010.04.10 19:12:36.
