data_PCOD8254693
_publ_section_title
;
Structure prediction by ZEFSAII (Michael W. Deem and Ramdas Pophale) SiO2 
 PCOD8254693
Probable space group: P N M A
;
_chemical_formula_sum "Si O2"
_cell_formula_units_Z 64
_cell_length_a 8.014189
_cell_length_b 14.340930
_cell_length_c 26.025431
_cell_angle_alpha 90.000000
_cell_angle_beta 90.000000
_cell_angle_gamma 90.000000
_cell_volume 2991.126818
_symmetry_space_group_name_H-M "P N M A"
_symmetry_group_IT_number 62
_symmetry_cell_setting 'orthorhombic'
loop_
_space_group_symop_operation_xyz
x,y,z
1/2-x,-y,1/2+z
1/2+x,1/2-y,1/2-z
-x,1/2+y,-z
-x,-y,-z
1/2+x,y,1/2-z
1/2-x,1/2+y,1/2+z
x,1/2-y,z
loop_
_atom_site_type_symbol
_atom_site_label
_atom_site_fract_x
_atom_site_fract_y
_atom_site_fract_z
Si Si1 0.384607 0.503831 0.951754
Si Si2 0.438201 0.144115 0.359821
Si Si3 0.266271 0.356350 0.202917
Si Si4 0.928455 0.561058 0.655405
Si Si5 0.898308 0.356386 0.026917
Si Si6 0.504783 0.139715 0.682078
Si Si7 0.387371 0.859704 0.431514
Si Si8 0.212570 0.537448 0.258631
O O1 0.488454 0.524280 0.899907
O O2 0.271585 0.590452 0.966130
O O3 0.289460 0.407885 0.940120
O O4 0.500000 0.500000 0.000000
O O5 0.393660 0.250000 0.347028
O O6 0.598380 0.112122 0.327007
O O7 0.268517 0.088022 0.348021
O O8 0.497531 0.132848 0.419225
O O9 0.248412 0.250000 0.223889
O O10 0.436896 0.359014 0.169429
O O11 0.285338 0.432345 0.248349
O O12 0.936124 0.479909 0.699370
O O13 0.852479 0.250000 0.015135
O O14 0.999444 0.396561 0.978410
O O15 0.478322 0.250000 0.686722
O O16 0.529290 0.109701 0.622562
O O17 0.661452 0.109201 0.715660
O O18 0.346768 0.085428 0.705712
O O19 0.355728 0.750000 0.433288
#
# Coordination Sequence:
#
# PCOD8254693 Si02
#       8
#     8   8   8   8   8   8   8   8
#     4  11  24  39  64  97 128 168 205 263 330 388
#     4   9  20  39  63  93 130 174 214 253 311 386
#     4  11  25  40  65 100 135 178 218 259 325 401
#     4  11  23  42  62  93 136 173 214 268 321 384
#     4   9  20  40  65  93 126 165 208 259 315 388
#     4  11  24  44  69  92 123 173 224 283 341 382
#     4  10  22  42  67  92 123 166 218 268 326 389
#     4  12  23  44  64  93 131 166 225 280 323 397
#
# _framework density 21.396618
#
# number of rings (size 3 to 8) (size 9 to 14) (size 15 to 20)
#    0.000    1.500    2.500    1.875    3.500    3.000 
#    0.000    0.000    0.000    0.000    0.000    0.000 
#    0.000    0.000    0.000    0.000    0.000    0.000 
#
# Total GULP energy -793147.312024 kJ/mol
# GULP energy per Si atom -12392.926750 kJ/mol
# Density = 2.134792 g / cm^3
# Si number density = 21.396618 Si / 1000 Ang^3
#
#
#
# Elastic Constant Matrix: (Units=GPa)
#
#
# Indices 1 2 3 4 5 6 
#
# 1 64.6157 14.5325 28.1136 0.0000 0.0000 0.0000
# 2 14.5325 75.3473 44.5960 0.0000 0.0000 0.0000
# 3 28.1136 44.5960 143.9691 0.0000 0.0000 0.0000
# 4 0.0000 0.0000 0.0000 30.6525 0.0000 0.0000
# 5 0.0000 0.0000 0.0000 0.0000 36.3619 0.0000
# 6 0.0000 0.0000 0.0000 0.0000 0.0000 30.0282
#
#
#
# Elastic Compliance Matrix: (Units=1/GPa)
#
#
# Indices 1 2 3 4 5 6 
#
# 1 0.017072 -0.001616 -0.002833 0.000000 0.000000 0.000000
# 2 -0.001616 0.016404 -0.004766 0.000000 0.000000 0.000000
# 3 -0.002833 -0.004766 0.008975 0.000000 0.000000 0.000000
# 4 0.000000 0.000000 0.000000 0.032624 0.000000 0.000000
# 5 0.000000 0.000000 0.000000 0.000000 0.027501 0.000000
# 6 0.000000 0.000000 0.000000 0.000000 0.000000 0.033302
#
#
# Mechanical properties :
#
#
# Convention : Reuss Voigt Hill
#
# Bulk Modulus (GPa) = 41.62837 50.93514 46.28176
# Shear Modulus (GPa) = 30.80400 32.52118 31.66259
#
# Velocity S-wave (km/s) = 3.79841 3.90285 3.85098
# Velocity P-wave (km/s) = 6.22375 6.64579 6.43823
#
# Compressibility (1/GPa) = 0.02402208
#
# Stress axis : x y z
#
# Youngs Moduli (GPa) = 58.57454 60.95951 111.41460
#
# Poissons Ratio (x) = 0.09850 0.31567
# Poissons Ratio (y) = 0.09465 0.53099
# Poissons Ratio (z) = 0.16596 0.29053
#
# Static dielectric constant tensor:
#      x y z
#    x 3.698350 0.000000 0.000000 
#    y 0.000000 3.069680 0.000000 
#    z 0.000000 0.000000 3.172870 
# 
# 
# High freq. dielectric constant tensor:
#      x y z
#    x 1.820690 0.000000 0.000000 
#    y 0.000000 1.843350 0.000000 
#    z 0.000000 0.000000 1.862570 
# 
# From -- ./inp_files/28984.got.cif
#   From: 2010.03.12/outbox.cif.g09.slc.cpg/sg62_15_cif.got.tgz:28984.got - 2010.04.10 19:12:36.
