data_PCOD8254957
_publ_section_title
;
Structure prediction by ZEFSAII (Michael W. Deem and Ramdas Pophale) SiO2 
 PCOD8254957
Probable space group: P N M A
;
_chemical_formula_sum "Si O2"
_cell_formula_units_Z 64
_cell_length_a 11.512832
_cell_length_b 22.705900
_cell_length_c 11.343800
_cell_angle_alpha 90.000000
_cell_angle_beta 90.000000
_cell_angle_gamma 90.000000
_cell_volume 2965.373820
_symmetry_space_group_name_H-M "P N M A"
_symmetry_group_IT_number 62
_symmetry_cell_setting 'orthorhombic'
loop_
_space_group_symop_operation_xyz
x,y,z
1/2-x,-y,1/2+z
1/2+x,1/2-y,1/2-z
-x,1/2+y,-z
-x,-y,-z
1/2+x,y,1/2-z
1/2-x,1/2+y,1/2+z
x,1/2-y,z
loop_
_atom_site_type_symbol
_atom_site_label
_atom_site_fract_x
_atom_site_fract_y
_atom_site_fract_z
Si Si1 0.745246 0.382517 0.416059
Si Si2 0.992653 0.371117 0.491178
Si Si3 0.439879 0.815467 0.445561
Si Si4 0.340599 0.683616 0.184399
Si Si5 0.614874 0.896145 0.347957
Si Si6 0.257052 0.511370 0.046820
Si Si7 0.650636 0.425137 0.174029
Si Si8 0.007298 0.033026 0.660758
O O1 0.866528 0.349074 0.447349
O O2 0.646645 0.337869 0.454263
O O3 0.735209 0.443662 0.488481
O O4 0.730384 0.400618 0.279038
O O5 0.054880 0.333922 0.594408
O O6 0.077062 0.370374 0.377752
O O7 0.974418 0.441052 0.529647
O O8 0.478330 0.750000 0.481350
O O9 0.384893 0.815988 0.316906
O O10 0.552418 0.856972 0.447043
O O11 0.300096 0.750000 0.150743
O O12 0.232856 0.638530 0.185124
O O13 0.642543 0.960955 0.396065
O O14 0.524154 0.909538 0.241446
O O15 0.356197 0.518436 0.149144
O O16 0.270081 0.548760 0.928528
O O17 0.562009 0.477180 0.210199
#
# Coordination Sequence:
#
# PCOD8254957 Si02
#       8
#     8   8   8   8   8   8   8   8
#     4  12  25  41  69 102 140 182 228 288 341 423
#     4  11  21  43  66  93 137 185 228 279 338 418
#     4  11  27  45  64  97 135 175 231 294 347 398
#     4  11  24  43  70  96 125 181 240 289 349 406
#     4  12  21  40  67  99 140 171 222 288 348 411
#     4  11  22  38  65 102 137 181 221 269 345 424
#     4  11  22  39  62  99 141 183 218 266 344 419
#     4  11  19  36  65  98 137 179 214 265 340 420
#
# _framework density 21.582438
#
# number of rings (size 3 to 8) (size 9 to 14) (size 15 to 20)
#    0.000    0.750    7.500    1.875    0.000    3.000 
#    0.000    0.625    0.000    0.000    0.000    0.000 
#    0.000    0.000    0.000    0.000    0.000    0.000 
#
# Total GULP energy -792960.145778 kJ/mol
# GULP energy per Si atom -12390.002278 kJ/mol
# Density = 2.153332 g / cm^3
# Si number density = 21.582438 Si / 1000 Ang^3
#
#
#
# Elastic Constant Matrix: (Units=GPa)
#
#
# Indices 1 2 3 4 5 6 
#
# 1 52.3142 11.4501 29.8970 0.0000 0.0000 0.0000
# 2 11.4501 64.2182 17.7482 0.0000 0.0000 0.0000
# 3 29.8970 17.7482 82.5660 0.0000 0.0000 0.0000
# 4 0.0000 0.0000 0.0000 12.8810 0.0000 0.0000
# 5 0.0000 0.0000 0.0000 0.0000 26.8069 0.0000
# 6 0.0000 0.0000 0.0000 0.0000 0.0000 26.2866
#
#
#
# Elastic Compliance Matrix: (Units=1/GPa)
#
#
# Indices 1 2 3 4 5 6 
#
# 1 0.024348 -0.002025 -0.008381 0.000000 0.000000 0.000000
# 2 -0.002025 0.016724 -0.002862 0.000000 0.000000 0.000000
# 3 -0.008381 -0.002862 0.015761 0.000000 0.000000 0.000000
# 4 0.000000 0.000000 0.000000 0.077634 0.000000 0.000000
# 5 0.000000 0.000000 0.000000 0.000000 0.037304 0.000000
# 6 0.000000 0.000000 0.000000 0.000000 0.000000 0.038042
#
#
# Mechanical properties :
#
#
# Convention : Reuss Voigt Hill
#
# Bulk Modulus (GPa) = 33.00555 35.25432 34.12993
# Shear Modulus (GPa) = 20.28821 22.52843 21.40832
#
# Velocity S-wave (km/s) = 3.06932 3.23434 3.15291
# Velocity P-wave (km/s) = 5.28081 5.50619 5.39468
#
# Compressibility (1/GPa) = 0.03029794
#
# Stress axis : x y z
#
# Youngs Moduli (GPa) = 41.07072 59.79482 63.44583
#
# Poissons Ratio (x) = 0.12108 0.53175
# Poissons Ratio (y) = 0.08317 0.18156
# Poissons Ratio (z) = 0.34422 0.17111
#
# Static dielectric constant tensor:
#      x y z
#    x 3.885420 0.000000 0.000000 
#    y 0.000000 3.992550 0.000000 
#    z 0.000000 0.000000 3.740530 
# 
# 
# High freq. dielectric constant tensor:
#      x y z
#    x 1.847650 0.000000 0.000000 
#    y 0.000000 1.836130 0.000000 
#    z 0.000000 0.000000 1.830530 
# 
# From -- ./inp_files/12537.got.cif
#   From: 2010.03.12/outbox.cif.g09.slc.cpg/sg62_7_cif.got.tgz:12537.got - 2010.04.10 19:12:36.
