data_PCOD8254321
_publ_section_title
;
Structure prediction by ZEFSAII (Michael W. Deem and Ramdas Pophale) SiO2 
 PCOD8254321
Probable space group: P N M A
;
_chemical_formula_sum "Si O2"
_cell_formula_units_Z 48
_cell_length_a 27.561280
_cell_length_b 8.419696
_cell_length_c 10.033641
_cell_angle_alpha 90.000000
_cell_angle_beta 90.000000
_cell_angle_gamma 90.000000
_cell_volume 2328.382639
_symmetry_space_group_name_H-M "P N M A"
_symmetry_group_IT_number 62
_symmetry_cell_setting 'orthorhombic'
loop_
_space_group_symop_operation_xyz
x,y,z
1/2-x,-y,1/2+z
1/2+x,1/2-y,1/2-z
-x,1/2+y,-z
-x,-y,-z
1/2+x,y,1/2-z
1/2-x,1/2+y,1/2+z
x,1/2-y,z
loop_
_atom_site_type_symbol
_atom_site_label
_atom_site_fract_x
_atom_site_fract_y
_atom_site_fract_z
Si Si1 0.035833 0.564597 0.233604
Si Si2 0.069764 0.564553 0.756401
Si Si3 0.895612 0.438608 0.530142
Si Si4 0.289572 0.438326 0.898683
Si Si5 0.288065 0.561997 0.610345
Si Si6 0.106115 0.435421 0.021749
O O1 0.023161 0.750000 0.246237
O O2 0.066736 0.500026 0.358830
O O3 0.987148 0.463795 0.226836
O O4 0.065628 0.536039 0.098753
O O5 0.081068 0.750000 0.771844
O O6 0.087201 0.498930 0.613335
O O7 0.100373 0.468102 0.865229
O O8 0.894339 0.250000 0.533255
O O9 0.842474 0.508067 0.563669
O O10 0.290707 0.250000 0.901332
O O11 0.273489 0.494993 0.753493
O O12 0.250679 0.505064 0.004253
O O13 0.286142 0.750000 0.614215
O O14 0.341360 0.502727 0.568259
O O15 0.099221 0.250000 0.051993
#
# Coordination Sequence:
#
# PCOD8254321 Si02
#       6
#     8   8   8   8   8   8
#     4  11  21  39  63  87 115 156 200 243 296 349
#     4  11  23  38  59  89 119 156 198 243 294 348
#     4   9  20  38  61  87 117 153 195 238 289 349
#     4  10  21  41  64  88 120 155 193 239 290 353
#     4  10  23  40  62  91 121 152 193 244 294 343
#     4  11  23  40  58  86 123 157 195 243 291 346
#
# _framework density 20.615168000000001
#
# number of rings (size 3 to 8) (size 9 to 14) (size 15 to 20)
#    0.000    1.667    1.667    2.500    2.333    1.333 
#    0.000    4.167    0.000    0.000    0.000    0.000 
#    0.000    0.000    0.000    0.000    0.000    0.000 
#
# Total GULP energy -595480.104517 kJ/mol
# GULP energy per Si atom -12405.835511 kJ/mol
# Density = 2.056825 g / cm^3
# Si number density = 20.615168 Si / 1000 Ang^3
#
#
#
# Elastic Constant Matrix: (Units=GPa)
#
#
# Indices 1 2 3 4 5 6 
#
# 1 109.0581 12.5876 48.9523 0.0000 0.0000 0.0000
# 2 12.5876 24.4317 11.5141 0.0000 0.0000 0.0000
# 3 48.9523 11.5141 149.2404 0.0000 0.0000 0.0000
# 4 0.0000 0.0000 0.0000 30.5534 0.0000 0.0000
# 5 0.0000 0.0000 0.0000 0.0000 38.6691 0.0000
# 6 0.0000 0.0000 0.0000 0.0000 0.0000 -0.3760
#
#
#
# Elastic Compliance Matrix: (Units=1/GPa)
#
#
# Indices 1 2 3 4 5 6 
#
# 1 0.011148 -0.004172 -0.003335 0.000000 0.000000 0.000000
# 2 -0.004172 0.044036 -0.002029 0.000000 0.000000 0.000000
# 3 -0.003335 -0.002029 0.007951 0.000000 0.000000 0.000000
# 4 0.000000 0.000000 0.000000 0.032730 0.000000 0.000000
# 5 0.000000 0.000000 0.000000 0.000000 0.025860 0.000000
# 6 0.000000 0.000000 0.000000 0.000000 0.000000 -2.659627
#
#
# Mechanical properties :
#
#
# Convention : Reuss Voigt Hill
#
# Bulk Modulus (GPa) = 22.69451 47.64867 35.17159
# Shear Modulus (GPa) = -1.99669 27.74772 12.87551
#
# Velocity S-wave (km/s) = -0.98522 3.67275 2.50184
# Velocity P-wave (km/s) = 3.12063 6.41475 5.04417
#
# Compressibility (1/GPa) = 0.04406352
#
# Stress axis : x y z
#
# Youngs Moduli (GPa) = 89.70393 22.70865 125.77102
#
# Poissons Ratio (x) = 0.09474 0.41941
# Poissons Ratio (y) = 0.37424 0.25519
# Poissons Ratio (z) = 0.29914 0.04608
#
# Static dielectric constant tensor:
#      x y z
#    x 3.924920 0.000000 0.000000 
#    y 0.000000 3.383440 0.000000 
#    z 0.000000 0.000000 3.929290 
# 
# 
# High freq. dielectric constant tensor:
#      x y z
#    x 1.815130 0.000000 0.000000 
#    y 0.000000 1.784120 0.000000 
#    z 0.000000 0.000000 1.822460 
# 
# From -- ./inp_files/10148.got.cif
#   From: 2010.03.12/outbox.cif.g09.slc.cpg/sg62_6_cif.got.tgz:10148.got - 2010.04.10 19:12:36.
