data_PCOD8254290
_publ_section_title
;
Structure prediction by ZEFSAII (Michael W. Deem and Ramdas Pophale) SiO2 
 PCOD8254290
Probable space group: P N M A
;
_chemical_formula_sum "Si O2"
_cell_formula_units_Z 48
_cell_length_a 15.130205
_cell_length_b 13.251880
_cell_length_c 11.564058
_cell_angle_alpha 90.000000
_cell_angle_beta 90.000000
_cell_angle_gamma 90.000000
_cell_volume 2318.635965
_symmetry_space_group_name_H-M "P N M A"
_symmetry_group_IT_number 62
_symmetry_cell_setting 'orthorhombic'
loop_
_space_group_symop_operation_xyz
x,y,z
1/2-x,-y,1/2+z
1/2+x,1/2-y,1/2-z
-x,1/2+y,-z
-x,-y,-z
1/2+x,y,1/2-z
1/2-x,1/2+y,1/2+z
x,1/2-y,z
loop_
_atom_site_type_symbol
_atom_site_label
_atom_site_fract_x
_atom_site_fract_y
_atom_site_fract_z
Si Si1 0.689185 0.461782 0.974133
Si Si2 0.314053 0.636734 0.576630
Si Si3 0.519319 0.135304 0.583351
Si Si4 0.145904 0.866069 0.935869
Si Si5 0.078690 0.986283 0.737327
Si Si6 0.909482 0.630293 0.685291
O O1 0.729642 0.573779 0.965783
O O2 0.627787 0.450036 0.862064
O O3 0.771196 0.383480 0.978816
O O4 0.630447 0.440980 0.086331
O O5 0.279096 0.750000 0.587390
O O6 0.387138 0.626059 0.478376
O O7 0.356465 0.602955 0.698261
O O8 0.497465 0.250000 0.618289
O O9 0.442915 0.095503 0.498113
O O10 0.519122 0.068915 0.698011
O O11 0.140450 0.750000 0.899983
O O12 0.152643 0.932624 0.818886
O O13 0.012790 0.898501 0.693608
O O14 0.901976 0.750000 0.656887
#
# Coordination Sequence:
#
# PCOD8254290 Si02
#       6
#     8   8   8   8   8   8
#     4  12  25  38  61  98 130 163 203 264 329 374
#     4  10  21  41  66  91 123 164 212 260 307 372
#     4  10  21  40  66  94 124 165 211 262 314 369
#     4  11  22  41  67  93 121 165 222 263 306 377
#     4  12  23  41  66  92 129 169 214 263 322 381
#     4  11  24  44  67  92 127 172 218 260 311 382
#
# _framework density 20.701827000000002
#
# number of rings (size 3 to 8) (size 9 to 14) (size 15 to 20)
#    0.000    1.000    3.333    4.000    0.000    4.000 
#    0.000    0.833    0.000    0.000    0.000    0.000 
#    0.000    0.000    0.000    0.000    0.000    0.000 
#
# Total GULP energy -595234.833316 kJ/mol
# GULP energy per Si atom -12400.725694 kJ/mol
# Density = 2.065471 g / cm^3
# Si number density = 20.701827 Si / 1000 Ang^3
#
#
#
# Elastic Constant Matrix: (Units=GPa)
#
#
# Indices 1 2 3 4 5 6 
#
# 1 81.2021 31.7482 44.5569 0.0000 0.0000 0.0000
# 2 31.7482 62.7078 57.8093 0.0000 0.0000 0.0000
# 3 44.5569 57.8093 96.7245 0.0000 0.0000 0.0000
# 4 0.0000 0.0000 0.0000 26.8754 0.0000 0.0000
# 5 0.0000 0.0000 0.0000 0.0000 33.2782 0.0000
# 6 0.0000 0.0000 0.0000 0.0000 0.0000 38.4189
#
#
#
# Elastic Compliance Matrix: (Units=1/GPa)
#
#
# Indices 1 2 3 4 5 6 
#
# 1 0.016737 -0.003042 -0.005892 0.000000 0.000000 0.000000
# 2 -0.003042 0.036068 -0.020155 0.000000 0.000000 0.000000
# 3 -0.005892 -0.020155 0.025099 0.000000 0.000000 0.000000
# 4 0.000000 0.000000 0.000000 0.037209 0.000000 0.000000
# 5 0.000000 0.000000 0.000000 0.000000 0.030050 0.000000
# 6 0.000000 0.000000 0.000000 0.000000 0.000000 0.026029
#
#
# Mechanical properties :
#
#
# Convention : Reuss Voigt Hill
#
# Bulk Modulus (GPa) = 50.69597 56.54036 53.61817
# Shear Modulus (GPa) = 21.19127 26.81584 24.00355
#
# Velocity S-wave (km/s) = 3.20291 3.60298 3.40882
# Velocity P-wave (km/s) = 6.18223 6.68429 6.43816
#
# Compressibility (1/GPa) = 0.01972543
#
# Stress axis : x y z
#
# Youngs Moduli (GPa) = 59.74640 27.72533 39.84210
#
# Poissons Ratio (x) = 0.08435 0.23475
# Poissons Ratio (y) = 0.18176 0.80303
# Poissons Ratio (z) = 0.35202 0.55881
#
# Static dielectric constant tensor:
#      x y z
#    x 3.747610 0.000000 0.000000 
#    y 0.000000 3.879780 0.000000 
#    z 0.000000 0.000000 3.676850 
# 
# 
# High freq. dielectric constant tensor:
#      x y z
#    x 1.812570 0.000000 0.000000 
#    y 0.000000 1.817420 0.000000 
#    z 0.000000 0.000000 1.798820 
# 
# From -- ./inp_files/13302.got.cif
#   From: 2010.03.12/outbox.cif.g09.slc.cpg/sg62_7_cif.got.tgz:13302.got - 2010.04.10 19:12:36.
