data_PCOD8254637
_publ_section_title
;
Structure prediction by ZEFSAII (Michael W. Deem and Ramdas Pophale) SiO2 
 PCOD8254637
Probable space group: P N M A
;
_chemical_formula_sum "Si O2"
_cell_formula_units_Z 56
_cell_length_a 8.889395
_cell_length_b 14.163675
_cell_length_c 19.592063
_cell_angle_alpha 90.000000
_cell_angle_beta 90.000000
_cell_angle_gamma 90.000000
_cell_volume 2466.768114
_symmetry_space_group_name_H-M "P N M A"
_symmetry_group_IT_number 62
_symmetry_cell_setting 'orthorhombic'
loop_
_space_group_symop_operation_xyz
x,y,z
1/2-x,-y,1/2+z
1/2+x,1/2-y,1/2-z
-x,1/2+y,-z
-x,-y,-z
1/2+x,y,1/2-z
1/2-x,1/2+y,1/2+z
x,1/2-y,z
loop_
_atom_site_type_symbol
_atom_site_label
_atom_site_fract_x
_atom_site_fract_y
_atom_site_fract_z
Si Si1 0.422572 0.143790 0.473841
Si Si2 0.723540 0.451103 0.513925
Si Si3 0.771230 0.646145 0.153702
Si Si4 0.966357 0.077994 0.759177
Si Si5 0.261746 0.645147 0.847615
Si Si6 0.284793 0.045974 0.206563
Si Si7 0.572177 0.858320 0.912407
O O1 0.385501 0.250000 0.503416
O O2 0.595860 0.120370 0.486459
O O3 0.389260 0.145035 0.392854
O O4 0.318635 0.059649 0.505019
O O5 0.742938 0.434482 0.595418
O O6 0.876971 0.424567 0.475012
O O7 0.758097 0.750000 0.120074
O O8 0.643692 0.638374 0.211383
O O9 0.933533 0.640882 0.190350
O O10 0.867434 0.011195 0.809825
O O11 0.069278 0.020157 0.706372
O O12 0.298998 0.750000 0.820138
O O13 0.235249 0.579043 0.784080
O O14 0.402807 0.610674 0.893604
O O15 0.314072 0.127826 0.151787
O O16 0.578629 0.750000 0.935368
#
# Coordination Sequence:
#
# PCOD8254637 Si02
#       7
#     8   8   8   8   8   8   8
#     4  10  22  42  66  96 129 169 219 267 325 394
#     4  11  25  41  68  95 132 176 217 270 329 394
#     4  11  23  45  67  96 132 171 220 278 331 387
#     4  10  23  39  67  91 124 168 225 271 328 386
#     4  10  22  41  64  94 132 171 216 270 327 391
#     4  11  21  40  61  95 131 173 219 267 326 384
#     4  11  24  40  61  97 134 176 220 266 327 399
#
# _framework density 22.701768000000001
#
# number of rings (size 3 to 8) (size 9 to 14) (size 15 to 20)
#    0.000    1.429    1.429    3.857    6.000    0.571 
#    0.000    0.000    0.000    0.000    0.000    0.000 
#    0.000    0.000    0.000    0.000    0.000    0.000 
#
# Total GULP energy -694270.385325 kJ/mol
# GULP energy per Si atom -12397.685452 kJ/mol
# Density = 2.265010 g / cm^3
# Si number density = 22.701768 Si / 1000 Ang^3
#
#
#
# Elastic Constant Matrix: (Units=GPa)
#
#
# Indices 1 2 3 4 5 6 
#
# 1 85.9333 18.7376 39.2032 0.0000 0.0000 0.0000
# 2 18.7376 112.5936 19.9547 0.0000 0.0000 0.0000
# 3 39.2032 19.9547 94.1550 0.0000 0.0000 0.0000
# 4 0.0000 0.0000 0.0000 27.4479 0.0000 0.0000
# 5 0.0000 0.0000 0.0000 0.0000 31.9306 0.0000
# 6 0.0000 0.0000 0.0000 0.0000 0.0000 19.5558
#
#
#
# Elastic Compliance Matrix: (Units=1/GPa)
#
#
# Indices 1 2 3 4 5 6 
#
# 1 0.014576 -0.001403 -0.005772 0.000000 0.000000 0.000000
# 2 -0.001403 0.009363 -0.001400 0.000000 0.000000 0.000000
# 3 -0.005772 -0.001400 0.013321 0.000000 0.000000 0.000000
# 4 0.000000 0.000000 0.000000 0.036433 0.000000 0.000000
# 5 0.000000 0.000000 0.000000 0.000000 0.031318 0.000000
# 6 0.000000 0.000000 0.000000 0.000000 0.000000 0.051136
#
#
# Mechanical properties :
#
#
# Convention : Reuss Voigt Hill
#
# Bulk Modulus (GPa) = 49.72592 49.83031 49.77811
# Shear Modulus (GPa) = 27.77796 30.10596 28.94196
#
# Velocity S-wave (km/s) = 3.50180 3.64559 3.57442
# Velocity P-wave (km/s) = 6.18883 6.30222 6.24579
#
# Compressibility (1/GPa) = 0.02011024
#
# Stress axis : x y z
#
# Youngs Moduli (GPa) = 68.60661 106.80202 75.07129
#
# Poissons Ratio (x) = 0.14982 0.43328
# Poissons Ratio (y) = 0.09624 0.10512
# Poissons Ratio (z) = 0.39597 0.14955
#
# Static dielectric constant tensor:
#      x y z
#    x 4.180890 0.000000 0.000000 
#    y 0.000000 4.166030 0.000000 
#    z 0.000000 0.000000 3.745380 
# 
# 
# High freq. dielectric constant tensor:
#      x y z
#    x 1.901390 0.000000 0.000000 
#    y 0.000000 1.903580 0.000000 
#    z 0.000000 0.000000 1.874820 
# 
# From -- ./inp_files/25976.got.cif
#   From: 2010.03.12/outbox.cif.g09.slc.cpg/sg62_13_cif.got.tgz:25976.got - 2010.04.10 19:12:36.
