data_PCOD8254704
_publ_section_title
;
Structure prediction by ZEFSAII (Michael W. Deem and Ramdas Pophale) SiO2 
 PCOD8254704
Probable space group: P N M A
;
_chemical_formula_sum "Si O2"
_cell_formula_units_Z 40
_cell_length_a 10.088104
_cell_length_b 17.452726
_cell_length_c 10.162416
_cell_angle_alpha 90.000000
_cell_angle_beta 90.000000
_cell_angle_gamma 90.000000
_cell_volume 1789.244909
_symmetry_space_group_name_H-M "P N M A"
_symmetry_group_IT_number 62
_symmetry_cell_setting 'orthorhombic'
loop_
_space_group_symop_operation_xyz
x,y,z
1/2-x,-y,1/2+z
1/2+x,1/2-y,1/2-z
-x,1/2+y,-z
-x,-y,-z
1/2+x,y,1/2-z
1/2-x,1/2+y,1/2+z
x,1/2-y,z
loop_
_atom_site_type_symbol
_atom_site_label
_atom_site_fract_x
_atom_site_fract_y
_atom_site_fract_z
Si Si1 0.688990 0.338164 0.838655
Si Si2 0.349190 0.974850 0.991798
Si Si3 0.002814 0.840456 0.838415
Si Si4 0.484106 0.162398 0.631946
Si Si5 0.746756 0.573843 0.774082
O O1 0.651579 0.250000 0.868953
O O2 0.660428 0.384765 0.971533
O O3 0.597792 0.374995 0.723198
O O4 0.842450 0.345860 0.795943
O O5 0.260588 0.023018 0.094369
O O6 0.289219 0.982817 0.845331
O O7 0.500000 0.000000 0.000000
O O8 0.029069 0.750000 0.828602
O O9 0.106418 0.885324 0.747695
O O10 0.855707 0.859805 0.790463
O O11 0.021533 0.873497 0.986590
O O12 0.526118 0.250000 0.613039
#
# Coordination Sequence:
#
# PCOD8254704 Si02
#       5
#     8   8   8   8   8
#     4  10  22  42  69  97 136 182 230 283 337 413
#     4  12  28  46  69 108 142 184 238 287 362 421
#     4  11  24  46  73 105 139 183 240 294 353 420
#     4   9  20  38  65 100 132 173 226 284 343 398
#     4  12  27  47  72 103 145 190 232 296 357 422
#
# _framework density 22.355798
#
# number of rings (size 3 to 8) (size 9 to 14) (size 15 to 20)
#    0.000    1.200    4.000    0.600    5.600    1.600 
#    0.000    0.000    0.000    0.000    0.000    0.000 
#    0.000    0.000    0.000    0.000    0.000    0.000 
#
# Total GULP energy -496093.454792 kJ/mol
# GULP energy per Si atom -12402.336370 kJ/mol
# Density = 2.230492 g / cm^3
# Si number density = 22.355798 Si / 1000 Ang^3
#
#
#
# Elastic Constant Matrix: (Units=GPa)
#
#
# Indices 1 2 3 4 5 6 
#
# 1 120.3859 26.0059 35.9296 0.0000 0.0000 0.0000
# 2 26.0059 73.2167 26.4287 0.0000 0.0000 0.0000
# 3 35.9296 26.4287 90.9883 0.0000 0.0000 0.0000
# 4 0.0000 0.0000 0.0000 32.1130 0.0000 0.0000
# 5 0.0000 0.0000 0.0000 0.0000 43.9269 0.0000
# 6 0.0000 0.0000 0.0000 0.0000 0.0000 27.1417
#
#
#
# Elastic Compliance Matrix: (Units=1/GPa)
#
#
# Indices 1 2 3 4 5 6 
#
# 1 0.009756 -0.002318 -0.003179 0.000000 0.000000 0.000000
# 2 -0.002318 0.015808 -0.003677 0.000000 0.000000 0.000000
# 3 -0.003179 -0.003677 0.013314 0.000000 0.000000 0.000000
# 4 0.000000 0.000000 0.000000 0.031140 0.000000 0.000000
# 5 0.000000 0.000000 0.000000 0.000000 0.022765 0.000000
# 6 0.000000 0.000000 0.000000 0.000000 0.000000 0.036844
#
#
# Mechanical properties :
#
#
# Convention : Reuss Voigt Hill
#
# Bulk Modulus (GPa) = 48.70623 51.25771 49.98197
# Shear Modulus (GPa) = 32.29596 33.71808 33.00702
#
# Velocity S-wave (km/s) = 3.80496 3.88783 3.84662
# Velocity P-wave (km/s) = 6.41387 6.56746 6.49112
#
# Compressibility (1/GPa) = 0.02053125
#
# Stress axis : x y z
#
# Youngs Moduli (GPa) = 102.49922 63.25749 75.11015
#
# Poissons Ratio (x) = 0.14661 0.23880
# Poissons Ratio (y) = 0.23756 0.27615
# Poissons Ratio (z) = 0.32588 0.23257
#
# Static dielectric constant tensor:
#      x y z
#    x 4.042190 0.000000 0.000000 
#    y 0.000000 3.874670 0.000000 
#    z 0.000000 0.000000 4.203790 
# 
# 
# High freq. dielectric constant tensor:
#      x y z
#    x 1.893180 0.000000 0.000000 
#    y 0.000000 1.870520 0.000000 
#    z 0.000000 0.000000 1.879400 
# 
# From -- ./inp_files/11205.got.cif
#   From: 2010.03.12/outbox.cif.g09.slc.cpg/sg62_6_cif.got.tgz:11205.got - 2010.04.10 19:12:36.
