data_PCOD8254095
_publ_section_title
;
Structure prediction by ZEFSAII (Michael W. Deem and Ramdas Pophale) SiO2 
 PCOD8254095
Probable space group: P N M A
;
_chemical_formula_sum "Si O2"
_cell_formula_units_Z 56
_cell_length_a 21.071090
_cell_length_b 9.133750
_cell_length_c 14.587286
_cell_angle_alpha 90.000000
_cell_angle_beta 90.000000
_cell_angle_gamma 90.000000
_cell_volume 2807.440885
_symmetry_space_group_name_H-M "P N M A"
_symmetry_group_IT_number 62
_symmetry_cell_setting 'orthorhombic'
loop_
_space_group_symop_operation_xyz
x,y,z
1/2-x,-y,1/2+z
1/2+x,1/2-y,1/2-z
-x,1/2+y,-z
-x,-y,-z
1/2+x,y,1/2-z
1/2-x,1/2+y,1/2+z
x,1/2-y,z
loop_
_atom_site_type_symbol
_atom_site_label
_atom_site_fract_x
_atom_site_fract_y
_atom_site_fract_z
Si Si1 0.053374 0.416405 0.054123
Si Si2 0.157873 0.916821 0.318466
Si Si3 0.147281 0.915859 0.945472
Si Si4 0.261845 0.418491 0.988742
Si Si5 0.394058 0.083276 0.247627
Si Si6 0.465376 0.585061 0.768076
Si Si7 0.230420 0.075364 0.682683
O O1 0.057315 0.250000 0.018112
O O2 0.117941 0.503185 0.033543
O O3 0.042240 0.422558 0.160448
O O4 0.000000 0.500000 0.000000
O O5 0.148456 0.750000 0.289620
O O6 0.175518 0.930643 0.426117
O O7 0.212201 0.981501 0.249174
O O8 0.089400 0.991460 0.314312
O O9 0.164390 0.750000 0.973276
O O10 0.100626 0.918985 0.858256
O O11 0.209712 0.009024 0.921702
O O12 0.246157 0.250000 0.011833
O O13 0.262685 0.511130 0.081324
O O14 0.379329 0.250000 0.215192
O O15 0.462667 0.030896 0.208119
O O16 0.338226 0.977454 0.216757
O O17 0.457278 0.750000 0.803753
O O18 0.229510 0.250000 0.679562
#
# Coordination Sequence:
#
# PCOD8254095 Si02
#       7
#     8   8   8   8   8   8   8
#     4  11  21  34  53  83 120 159 197 242 299 365
#     4  10  23  41  61  89 124 157 199 252 304 361
#     4  11  21  36  58  86 120 157 199 248 302 363
#     4  11  23  41  62  89 122 158 202 253 308 363
#     4  10  21  39  60  86 121 159 200 248 301 360
#     4  10  22  39  58  85 121 160 203 247 302 364
#     4  11  23  41  64  93 122 157 208 256 304 364
#
# _framework density 19.946991000000001
#
# number of rings (size 3 to 8) (size 9 to 14) (size 15 to 20)
#    0.000    1.429    2.857    2.571    0.000    6.857 
#    0.000    0.714    0.000    0.000    0.000    0.000 
#    0.000    0.000    0.000    0.000    0.000    0.000 
#
# Total GULP energy -694117.885986 kJ/mol
# GULP energy per Si atom -12394.962250 kJ/mol
# Density = 1.990159 g / cm^3
# Si number density = 19.946991 Si / 1000 Ang^3
#
#
#
# Elastic Constant Matrix: (Units=GPa)
#
#
# Indices 1 2 3 4 5 6 
#
# 1 110.1477 44.8237 15.2419 0.0000 0.0000 0.0000
# 2 44.8237 94.3540 20.7687 0.0000 0.0000 0.0000
# 3 15.2419 20.7687 53.5557 0.0000 0.0000 0.0000
# 4 0.0000 0.0000 0.0000 30.6399 0.0000 0.0000
# 5 0.0000 0.0000 0.0000 0.0000 29.1921 0.0000
# 6 0.0000 0.0000 0.0000 0.0000 0.0000 41.5623
#
#
#
# Elastic Compliance Matrix: (Units=1/GPa)
#
#
# Indices 1 2 3 4 5 6 
#
# 1 0.011330 -0.005109 -0.001243 0.000000 0.000000 0.000000
# 2 -0.005109 0.013891 -0.003933 0.000000 0.000000 0.000000
# 3 -0.001243 -0.003933 0.020551 0.000000 0.000000 0.000000
# 4 0.000000 0.000000 0.000000 0.032637 0.000000 0.000000
# 5 0.000000 0.000000 0.000000 0.000000 0.034256 0.000000
# 6 0.000000 0.000000 0.000000 0.000000 0.000000 0.024060
#
#
# Mechanical properties :
#
#
# Convention : Reuss Voigt Hill
#
# Bulk Modulus (GPa) = 39.67929 46.63624 43.15776
# Shear Modulus (GPa) = 30.17581 32.09373 31.13477
#
# Velocity S-wave (km/s) = 3.89369 4.01552 3.95508
# Velocity P-wave (km/s) = 6.33640 6.70299 6.52227
#
# Compressibility (1/GPa) = 0.02520207
#
# Stress axis : x y z
#
# Youngs Moduli (GPa) = 88.26395 71.98921 48.65895
#
# Poissons Ratio (x) = 0.36776 0.06050
# Poissons Ratio (y) = 0.45090 0.19137
# Poissons Ratio (z) = 0.10974 0.28313
#
# Static dielectric constant tensor:
#      x y z
#    x 4.876310 0.000000 0.000000 
#    y 0.000000 3.723610 0.000000 
#    z 0.000000 0.000000 3.157340 
# 
# 
# High freq. dielectric constant tensor:
#      x y z
#    x 1.786980 0.000000 0.000000 
#    y 0.000000 1.781400 0.000000 
#    z 0.000000 0.000000 1.761170 
# 
# From -- ./inp_files/20331.got.cif
#   From: 2010.03.12/outbox.cif.g09.slc.cpg/sg62_11_cif.got.tgz:20331.got - 2010.04.10 19:12:36.
