data_PCOD8254011
_publ_section_title
;
Structure prediction by ZEFSAII (Michael W. Deem and Ramdas Pophale) SiO2 
 PCOD8254011
Probable space group: P N M A
;
_chemical_formula_sum "Si O2"
_cell_formula_units_Z 56
_cell_length_a 12.267243
_cell_length_b 15.594899
_cell_length_c 13.468222
_cell_angle_alpha 90.000000
_cell_angle_beta 90.000000
_cell_angle_gamma 90.000000
_cell_volume 2576.557275
_symmetry_space_group_name_H-M "P N M A"
_symmetry_group_IT_number 62
_symmetry_cell_setting 'orthorhombic'
loop_
_space_group_symop_operation_xyz
x,y,z
1/2-x,-y,1/2+z
1/2+x,1/2-y,1/2-z
-x,1/2+y,-z
-x,-y,-z
1/2+x,y,1/2-z
1/2-x,1/2+y,1/2+z
x,1/2-y,z
loop_
_atom_site_type_symbol
_atom_site_label
_atom_site_fract_x
_atom_site_fract_y
_atom_site_fract_z
Si Si1 0.174327 0.346265 0.867235
Si Si2 0.747296 0.457105 0.326518
Si Si3 0.365389 0.025298 0.852805
Si Si4 0.158986 0.156475 0.447408
Si Si5 0.056289 0.415232 0.040052
Si Si6 0.403626 0.602941 0.150809
Si Si7 0.132172 0.655227 0.834877
O O1 0.223883 0.250000 0.873673
O O2 0.262716 0.420049 0.895649
O O3 0.125824 0.359203 0.757520
O O4 0.073160 0.353670 0.944691
O O5 0.660114 0.510782 0.262638
O O6 0.678965 0.419535 0.417112
O O7 0.840934 0.515208 0.373031
O O8 0.810535 0.389926 0.257668
O O9 0.468532 0.086469 0.859821
O O10 0.391361 0.931727 0.902486
O O11 0.120441 0.250000 0.399927
O O12 0.132675 0.166721 0.563577
O O13 0.288968 0.149823 0.430555
O O14 0.982964 0.381771 0.130576
O O15 0.000000 0.500000 0.000000
O O16 0.109665 0.750000 0.796937
#
# Coordination Sequence:
#
# PCOD8254011 Si02
#       7
#     8   8   8   8   8   8   8
#     4  11  25  40  59  93 129 165 213 262 315 387
#     4  10  21  38  61  89 118 159 211 261 313 381
#     4  10  21  40  62  87 124 164 207 264 324 379
#     4  10  21  38  61  89 121 160 211 265 315 379
#     4  12  22  40  65  91 126 169 212 264 332 393
#     4  11  21  39  62  88 124 167 210 258 320 386
#     4  10  22  39  59  87 121 162 212 264 321 383
#
# _framework density 21.734428999999999
#
# number of rings (size 3 to 8) (size 9 to 14) (size 15 to 20)
#    0.000    1.429    0.000    7.286    0.000    3.429 
#    0.000    3.571    0.000    0.857    0.000    0.000 
#    0.000    0.000    0.000    0.000    0.000    0.000 
#
# Total GULP energy -693845.371190 kJ/mol
# GULP energy per Si atom -12390.095914 kJ/mol
# Density = 2.168496 g / cm^3
# Si number density = 21.734429 Si / 1000 Ang^3
#
#
#
# Elastic Constant Matrix: (Units=GPa)
#
#
# Indices 1 2 3 4 5 6 
#
# 1 84.5439 32.6935 31.2808 0.0000 0.0000 0.0000
# 2 32.6935 133.9365 20.4843 0.0000 0.0000 0.0000
# 3 31.2808 20.4843 72.4255 0.0000 0.0000 0.0000
# 4 0.0000 0.0000 0.0000 17.7367 0.0000 0.0000
# 5 0.0000 0.0000 0.0000 0.0000 37.6229 0.0000
# 6 0.0000 0.0000 0.0000 0.0000 0.0000 24.3689
#
#
#
# Elastic Compliance Matrix: (Units=1/GPa)
#
#
# Indices 1 2 3 4 5 6 
#
# 1 0.015016 -0.002794 -0.005695 0.000000 0.000000 0.000000
# 2 -0.002794 0.008324 -0.001147 0.000000 0.000000 0.000000
# 3 -0.005695 -0.001147 0.016592 0.000000 0.000000 0.000000
# 4 0.000000 0.000000 0.000000 0.056380 0.000000 0.000000
# 5 0.000000 0.000000 0.000000 0.000000 0.026580 0.000000
# 6 0.000000 0.000000 0.000000 0.000000 0.000000 0.041036
#
#
# Mechanical properties :
#
#
# Convention : Reuss Voigt Hill
#
# Bulk Modulus (GPa) = 48.40818 51.09145 49.74981
# Shear Modulus (GPa) = 26.30384 29.70886 28.00635
#
# Velocity S-wave (km/s) = 3.48262 3.70118 3.59356
# Velocity P-wave (km/s) = 6.20423 6.46708 6.33702
#
# Compressibility (1/GPa) = 0.02065767
#
# Stress axis : x y z
#
# Youngs Moduli (GPa) = 66.59611 120.13766 60.27177
#
# Poissons Ratio (x) = 0.33570 0.34325
# Poissons Ratio (y) = 0.18609 0.06915
# Poissons Ratio (z) = 0.37927 0.13784
#
# Static dielectric constant tensor:
#      x y z
#    x 3.752200 0.000000 0.000000 
#    y 0.000000 4.270090 0.000000 
#    z 0.000000 0.000000 4.813880 
# 
# 
# High freq. dielectric constant tensor:
#      x y z
#    x 1.845870 0.000000 0.000000 
#    y 0.000000 1.856130 0.000000 
#    z 0.000000 0.000000 1.857610 
# 
# From -- ./inp_files/18093.got.cif
#   From: 2010.03.12/outbox.cif.g09.slc.cpg/sg62_10_cif.got.tgz:18093.got - 2010.04.10 19:12:36.
