data_PCOD8254922
_publ_section_title
;
Structure prediction by ZEFSAII (Michael W. Deem and Ramdas Pophale) SiO2 
 PCOD8254922
Probable space group: P N M A
;
_chemical_formula_sum "Si O2"
_cell_formula_units_Z 40
_cell_length_a 11.689945
_cell_length_b 20.325696
_cell_length_c 7.697300
_cell_angle_alpha 90.000000
_cell_angle_beta 90.000000
_cell_angle_gamma 90.000000
_cell_volume 1828.926729
_symmetry_space_group_name_H-M "P N M A"
_symmetry_group_IT_number 62
_symmetry_cell_setting 'orthorhombic'
loop_
_space_group_symop_operation_xyz
x,y,z
1/2-x,-y,1/2+z
1/2+x,1/2-y,1/2-z
-x,1/2+y,-z
-x,-y,-z
1/2+x,y,1/2-z
1/2-x,1/2+y,1/2+z
x,1/2-y,z
loop_
_atom_site_type_symbol
_atom_site_label
_atom_site_fract_x
_atom_site_fract_y
_atom_site_fract_z
Si Si1 0.087817 0.824038 0.176501
Si Si2 0.909477 0.825017 0.878573
Si Si3 0.249613 0.071049 0.547843
Si Si4 0.282851 0.428837 0.157044
Si Si5 0.992758 0.875462 0.518286
O O1 0.134004 0.750000 0.147584
O O2 0.194727 0.874093 0.173075
O O3 0.024584 0.827020 0.361281
O O4 0.001285 0.844045 0.023889
O O5 0.867855 0.750000 0.901043
O O6 0.800615 0.871329 0.908165
O O7 0.963837 0.832639 0.687700
O O8 0.307333 0.078852 0.360478
O O9 0.113638 0.080017 0.538871
O O10 0.276752 0.999064 0.623163
O O11 0.402266 0.424386 0.056310
#
# Coordination Sequence:
#
# PCOD8254922 Si02
#       5
#     8   8   8   8   8
#     4  11  25  44  69  98 134 176 223 278 335 399
#     4  10  24  45  67  97 132 174 226 276 335 397
#     4  11  25  44  69 101 138 175 231 277 333 405
#     4  11  24  44  69  98 137 181 221 283 335 392
#     4  11  24  45  68 102 132 179 220 282 334 398
#
# _framework density 21.870750000000001
#
# number of rings (size 3 to 8) (size 9 to 14) (size 15 to 20)
#    0.000    1.200    2.000    2.400    5.600    8.000 
#    0.000    0.000    0.000    0.000    0.000    0.000 
#    0.000    0.000    0.000    0.000    0.000    0.000 
#
# Total GULP energy -496248.097920 kJ/mol
# GULP energy per Si atom -12406.202448 kJ/mol
# Density = 2.182097 g / cm^3
# Si number density = 21.870750 Si / 1000 Ang^3
#
#
#
# Elastic Constant Matrix: (Units=GPa)
#
#
# Indices 1 2 3 4 5 6 
#
# 1 121.2579 67.0086 56.9237 0.0000 0.0000 0.0000
# 2 67.0086 137.8634 28.0021 0.0000 0.0000 0.0000
# 3 56.9237 28.0021 94.8901 0.0000 0.0000 0.0000
# 4 0.0000 0.0000 0.0000 29.9513 0.0000 0.0000
# 5 0.0000 0.0000 0.0000 0.0000 26.4293 0.0000
# 6 0.0000 0.0000 0.0000 0.0000 0.0000 4.1591
#
#
#
# Elastic Compliance Matrix: (Units=1/GPa)
#
#
# Indices 1 2 3 4 5 6 
#
# 1 0.014780 -0.005726 -0.007177 0.000000 0.000000 0.000000
# 2 -0.005726 0.009935 0.000503 0.000000 0.000000 0.000000
# 3 -0.007177 0.000503 0.014695 0.000000 0.000000 0.000000
# 4 0.000000 0.000000 0.000000 0.033387 0.000000 0.000000
# 5 0.000000 0.000000 0.000000 0.000000 0.037837 0.000000
# 6 0.000000 0.000000 0.000000 0.000000 0.000000 0.240439
#
#
# Mechanical properties :
#
#
# Convention : Reuss Voigt Hill
#
# Bulk Modulus (GPa) = 68.44193 73.09780 70.76986
# Shear Modulus (GPa) = 13.13220 25.57972 19.35596
#
# Velocity S-wave (km/s) = 2.45306 3.42363 2.97815
# Velocity P-wave (km/s) = 6.27575 7.00882 6.65239
#
# Compressibility (1/GPa) = 0.01461093
#
# Stress axis : x y z
#
# Youngs Moduli (GPa) = 67.65698 100.65845 68.04926
#
# Poissons Ratio (x) = 0.57640 0.48838
# Poissons Ratio (y) = 0.38743 -0.03426
# Poissons Ratio (z) = 0.48556 -0.05068
#
# Static dielectric constant tensor:
#      x y z
#    x 3.775920 0.000000 0.000000 
#    y 0.000000 3.753440 0.000000 
#    z 0.000000 0.000000 4.079790 
# 
# 
# High freq. dielectric constant tensor:
#      x y z
#    x 1.854880 0.000000 0.000000 
#    y 0.000000 1.861180 0.000000 
#    z 0.000000 0.000000 1.875790 
# 
# From -- ./inp_files/5010.got.cif
#   From: 2010.03.12/outbox.cif.g09.slc.cpg/sg62_3_cif.got.tgz:5010.got - 2010.04.10 19:12:36.
