data_PCOD8254866
_publ_section_title
;
Structure prediction by ZEFSAII (Michael W. Deem and Ramdas Pophale) SiO2 
 PCOD8254866
Probable space group: P N M A
;
_chemical_formula_sum "Si O2"
_cell_formula_units_Z 32
_cell_length_a 4.944368
_cell_length_b 10.350388
_cell_length_c 28.334537
_cell_angle_alpha 90.000000
_cell_angle_beta 90.000000
_cell_angle_gamma 90.000000
_cell_volume 1450.051870
_symmetry_space_group_name_H-M "P N M A"
_symmetry_group_IT_number 62
_symmetry_cell_setting 'orthorhombic'
loop_
_space_group_symop_operation_xyz
x,y,z
1/2-x,-y,1/2+z
1/2+x,1/2-y,1/2-z
-x,1/2+y,-z
-x,-y,-z
1/2+x,y,1/2-z
1/2-x,1/2+y,1/2+z
x,1/2-y,z
loop_
_atom_site_type_symbol
_atom_site_label
_atom_site_fract_x
_atom_site_fract_y
_atom_site_fract_z
Si Si1 0.017004 0.103960 0.639795
Si Si2 0.019971 0.050362 0.920994
Si Si3 0.210727 0.387231 0.490126
Si Si4 0.491058 0.604353 0.781600
O O1 0.087479 0.250000 0.657892
O O2 0.774383 0.121051 0.602717
O O3 0.277941 0.036731 0.616348
O O4 0.923196 0.007451 0.680965
O O5 0.121937 0.912999 0.941783
O O6 0.917691 0.129928 0.966342
O O7 0.059718 0.250000 0.483709
O O8 0.000000 0.500000 0.500000
O O9 0.294302 0.585643 0.737002
O O10 0.453414 0.750000 0.802876
#
# Coordination Sequence:
#
# PCOD8254866 Si02
#       4
#     8   8   8   8
#     4  12  24  41  68  97 128 167 216 271 320 379
#     4  11  25  42  62  96 133 173 214 270 325 376
#     4  11  24  43  67  93 132 179 224 271 324 385
#     4  10  23  44  67  93 129 167 204 258 326 390
#
# _framework density 22.068176000000001
#
# number of rings (size 3 to 8) (size 9 to 14) (size 15 to 20)
#    0.000    1.000    2.500    3.750    0.000    8.000 
#    0.000    0.000    0.000    0.000    0.000    0.000 
#    0.000    0.000    0.000    0.000    0.000    0.000 
#
# Total GULP energy -396583.977698 kJ/mol
# GULP energy per Si atom -12393.249303 kJ/mol
# Density = 2.201795 g / cm^3
# Si number density = 22.068176 Si / 1000 Ang^3
#
#
#
# Elastic Constant Matrix: (Units=GPa)
#
#
# Indices 1 2 3 4 5 6 
#
# 1 116.4963 52.0585 23.0122 0.0000 0.0000 0.0000
# 2 52.0585 198.3344 74.9124 0.0000 0.0000 0.0000
# 3 23.0122 74.9124 84.6146 0.0000 0.0000 0.0000
# 4 0.0000 0.0000 0.0000 -4.6404 0.0000 0.0000
# 5 0.0000 0.0000 0.0000 0.0000 35.8547 0.0000
# 6 0.0000 0.0000 0.0000 0.0000 0.0000 27.4458
#
#
#
# Elastic Compliance Matrix: (Units=1/GPa)
#
#
# Indices 1 2 3 4 5 6 
#
# 1 0.009743 -0.002339 -0.000579 0.000000 0.000000 0.000000
# 2 -0.002339 0.008136 -0.006567 0.000000 0.000000 0.000000
# 3 -0.000579 -0.006567 0.017790 0.000000 0.000000 0.000000
# 4 0.000000 0.000000 0.000000 -0.215500 0.000000 0.000000
# 5 0.000000 0.000000 0.000000 0.000000 0.027890 0.000000
# 6 0.000000 0.000000 0.000000 0.000000 0.000000 0.036435
#
#
# Mechanical properties :
#
#
# Convention : Reuss Voigt Hill
#
# Bulk Modulus (GPa) = 59.88315 77.71242 68.79779
# Shear Modulus (GPa) = -54.96497 28.36285 -13.30106
#
# Velocity S-wave (km/s) = -4.99609 3.58891 -2.45771
# Velocity P-wave (km/s) = 2.46715 7.24326 4.81550
#
# Compressibility (1/GPa) = 0.01669919
#
# Stress axis : x y z
#
# Youngs Moduli (GPa) = 102.63292 122.90466 56.21053
#
# Poissons Ratio (x) = 0.28742 0.03257
# Poissons Ratio (y) = 0.24002 0.36916
# Poissons Ratio (z) = 0.05947 0.80717
#
# Static dielectric constant tensor:
#      x y z
#    x 4.119340 0.000000 0.000000 
#    y 0.000000 3.865990 0.000000 
#    z 0.000000 0.000000 3.797460 
# 
# 
# High freq. dielectric constant tensor:
#      x y z
#    x 1.881890 0.000000 0.000000 
#    y 0.000000 1.868140 0.000000 
#    z 0.000000 0.000000 1.847380 
# 
# From -- ./inp_files/31416.got.cif
#   From: 2010.03.12/outbox.cif.g09.slc.cpg/sg62_16_cif.got.tgz:31416.got - 2010.04.10 19:12:36.
