data_PCOD8254039
_publ_section_title
;
Structure prediction by ZEFSAII (Michael W. Deem and Ramdas Pophale) SiO2 
 PCOD8254039
Probable space group: P N M A
;
_chemical_formula_sum "Si O2"
_cell_formula_units_Z 40
_cell_length_a 7.589111
_cell_length_b 14.339825
_cell_length_c 16.704431
_cell_angle_alpha 90.000000
_cell_angle_beta 90.000000
_cell_angle_gamma 90.000000
_cell_volume 1817.885155
_symmetry_space_group_name_H-M "P N M A"
_symmetry_group_IT_number 62
_symmetry_cell_setting 'orthorhombic'
loop_
_space_group_symop_operation_xyz
x,y,z
1/2-x,-y,1/2+z
1/2+x,1/2-y,1/2-z
-x,1/2+y,-z
-x,-y,-z
1/2+x,y,1/2-z
1/2-x,1/2+y,1/2+z
x,1/2-y,z
loop_
_atom_site_type_symbol
_atom_site_label
_atom_site_fract_x
_atom_site_fract_y
_atom_site_fract_z
Si Si1 0.488655 0.390923 0.995768
Si Si2 0.647145 0.044982 0.675795
Si Si3 0.701769 0.646974 0.607165
Si Si4 0.583249 0.145229 0.526432
Si Si5 0.498454 0.854386 0.176940
O O1 0.606173 0.348133 0.066351
O O2 0.285240 0.361321 0.005070
O O3 0.500000 0.500000 0.000000
O O4 0.582358 0.358186 0.912269
O O5 0.529198 0.073804 0.598669
O O6 0.801152 0.119147 0.662230
O O7 0.569368 0.066332 0.762723
O O8 0.699224 0.935363 0.673990
O O9 0.667866 0.750000 0.645644
O O10 0.547736 0.620451 0.545630
O O11 0.547137 0.250000 0.556380
O O12 0.477356 0.750000 0.212989
#
# Coordination Sequence:
#
# PCOD8254039 Si02
#       5
#     8   8   8   8   8
#     4  11  21  39  66  95 126 163 207 265 316 375
#     4  11  23  40  60  92 128 162 209 259 313 384
#     4  11  23  41  66  92 124 170 215 260 315 379
#     4  10  21  38  62  93 126 161 211 264 317 375
#     4  11  23  39  62  91 126 163 204 260 325 374
#
# _framework density 22.003591
#
# number of rings (size 3 to 8) (size 9 to 14) (size 15 to 20)
#    0.000    1.200    4.000    5.400    2.800    0.000 
#    0.000    1.000    0.000    0.000    0.000    0.000 
#    0.000    0.000    0.000    0.000    0.000    0.000 
#
# Total GULP energy -495650.793576 kJ/mol
# GULP energy per Si atom -12391.269839 kJ/mol
# Density = 2.195351 g / cm^3
# Si number density = 22.003591 Si / 1000 Ang^3
#
#
#
# Elastic Constant Matrix: (Units=GPa)
#
#
# Indices 1 2 3 4 5 6 
#
# 1 44.6799 1.9894 15.2557 0.0000 0.0000 0.0000
# 2 1.9894 150.4205 36.4228 0.0000 0.0000 0.0000
# 3 15.2557 36.4228 58.3914 0.0000 0.0000 0.0000
# 4 0.0000 0.0000 0.0000 35.4263 0.0000 0.0000
# 5 0.0000 0.0000 0.0000 0.0000 18.6249 0.0000
# 6 0.0000 0.0000 0.0000 0.0000 0.0000 15.1614
#
#
#
# Elastic Compliance Matrix: (Units=1/GPa)
#
#
# Indices 1 2 3 4 5 6 
#
# 1 0.024844 0.001464 -0.007404 0.000000 0.000000 0.000000
# 2 0.001464 0.007917 -0.005321 0.000000 0.000000 0.000000
# 3 -0.007404 -0.005321 0.022379 0.000000 0.000000 0.000000
# 4 0.000000 0.000000 0.000000 0.028228 0.000000 0.000000
# 5 0.000000 0.000000 0.000000 0.000000 0.053692 0.000000
# 6 0.000000 0.000000 0.000000 0.000000 0.000000 0.065957
#
#
# Mechanical properties :
#
#
# Convention : Reuss Voigt Hill
#
# Bulk Modulus (GPa) = 30.65723 40.09195 35.37459
# Shear Modulus (GPa) = 21.14952 27.16413 24.15682
#
# Velocity S-wave (km/s) = 3.10366 3.51740 3.31699
# Velocity P-wave (km/s) = 5.17752 5.89545 5.54811
#
# Compressibility (1/GPa) = 0.03261873
#
# Stress axis : x y z
#
# Youngs Moduli (GPa) = 40.25048 126.30901 44.68389
#
# Poissons Ratio (x) = -0.18496 0.33086
# Poissons Ratio (y) = -0.05894 0.23776
# Poissons Ratio (z) = 0.29803 0.67209
#
# Static dielectric constant tensor:
#      x y z
#    x 7.351030 0.000000 0.000000 
#    y 0.000000 3.995940 0.000000 
#    z 0.000000 0.000000 4.517820 
# 
# 
# High freq. dielectric constant tensor:
#      x y z
#    x 1.855640 0.000000 0.000000 
#    y 0.000000 1.885940 0.000000 
#    z 0.000000 0.000000 1.835750 
# 
# From -- ./inp_files/16666.got.cif
#   From: 2010.03.12/outbox.cif.g09.slc.cpg/sg62_9_cif.got.tgz:16666.got - 2010.04.10 19:12:36.
