data_PCOD8254303
_publ_section_title
;
Structure prediction by ZEFSAII (Michael W. Deem and Ramdas Pophale) SiO2 
 PCOD8254303
Probable space group: P N M A
;
_chemical_formula_sum "Si O2"
_cell_formula_units_Z 48
_cell_length_a 16.867835
_cell_length_b 14.369683
_cell_length_c 9.256633
_cell_angle_alpha 90.000000
_cell_angle_beta 90.000000
_cell_angle_gamma 90.000000
_cell_volume 2243.673080
_symmetry_space_group_name_H-M "P N M A"
_symmetry_group_IT_number 62
_symmetry_cell_setting 'orthorhombic'
loop_
_space_group_symop_operation_xyz
x,y,z
1/2-x,-y,1/2+z
1/2+x,1/2-y,1/2-z
-x,1/2+y,-z
-x,-y,-z
1/2+x,y,1/2-z
1/2-x,1/2+y,1/2+z
x,1/2-y,z
loop_
_atom_site_type_symbol
_atom_site_label
_atom_site_fract_x
_atom_site_fract_y
_atom_site_fract_z
Si Si1 0.404834 0.420664 0.098815
Si Si2 0.511921 0.581071 0.195925
Si Si3 0.316868 0.250000 0.234529
Si Si4 0.740473 0.750000 0.440425
Si Si5 0.273825 0.750000 0.464211
Si Si6 0.264038 0.455734 0.927548
Si Si7 0.167137 0.557627 0.139098
Si Si8 0.397861 0.750000 0.239267
O O1 0.467212 0.482753 0.184690
O O2 0.373562 0.338467 0.202938
O O3 0.446529 0.383921 0.951701
O O4 0.331268 0.484709 0.044570
O O5 0.574366 0.564945 0.325408
O O6 0.449361 0.658324 0.236734
O O7 0.275829 0.250000 0.389301
O O8 0.237071 0.250000 0.136521
O O9 0.699742 0.839382 0.374536
O O10 0.832878 0.750000 0.390753
O O11 0.232289 0.655986 0.407248
O O12 0.361969 0.750000 0.401602
O O13 0.286343 0.496243 0.770138
O O14 0.181980 0.498333 0.990951
#
# Coordination Sequence:
#
# PCOD8254303 Si02
#       8
#     8   8   4   4   4   8   8   4
#     4   9  20  42  65  95 130 173 212 262 331 391
#     4  10  22  41  67  97 133 173 210 263 339 403
#     4  10  23  41  68  94 130 168 226 281 316 372
#     4  12  25  41  68  95 126 175 235 269 320 390
#     4  10  22  41  63  94 126 167 213 269 321 377
#     4  10  21  40  68  92 126 169 221 267 315 390
#     4  11  23  41  67  98 127 169 222 270 326 390
#     4  12  22  41  71  93 128 176 220 259 325 405
#
# _framework density 21.39349
#
# number of rings (size 3 to 8) (size 9 to 14) (size 15 to 20)
#    0.000    1.667    1.667    2.000    4.667    1.333 
#    0.000    5.833    0.000    0.000    0.000    0.000 
#    0.000    0.000    0.000    0.000    0.000    0.000 
#
# Total GULP energy -594747.118336 kJ/mol
# GULP energy per Si atom -12390.564965 kJ/mol
# Density = 2.134480 g / cm^3
# Si number density = 21.393490 Si / 1000 Ang^3
#
#
#
# Elastic Constant Matrix: (Units=GPa)
#
#
# Indices 1 2 3 4 5 6 
#
# 1 139.1155 49.6602 66.7024 0.0000 0.0000 0.0000
# 2 49.6602 85.3546 37.5781 0.0000 0.0000 0.0000
# 3 66.7024 37.5781 103.1127 0.0000 0.0000 0.0000
# 4 0.0000 0.0000 0.0000 27.4684 0.0000 0.0000
# 5 0.0000 0.0000 0.0000 0.0000 37.4941 0.0000
# 6 0.0000 0.0000 0.0000 0.0000 0.0000 29.6609
#
#
#
# Elastic Compliance Matrix: (Units=1/GPa)
#
#
# Indices 1 2 3 4 5 6 
#
# 1 0.011495 -0.004066 -0.005954 0.000000 0.000000 0.000000
# 2 -0.004066 0.015393 -0.002979 0.000000 0.000000 0.000000
# 3 -0.005954 -0.002979 0.014635 0.000000 0.000000 0.000000
# 4 0.000000 0.000000 0.000000 0.036405 0.000000 0.000000
# 5 0.000000 0.000000 0.000000 0.000000 0.026671 0.000000
# 6 0.000000 0.000000 0.000000 0.000000 0.000000 0.033714
#
#
# Mechanical properties :
#
#
# Convention : Reuss Voigt Hill
#
# Bulk Modulus (GPa) = 64.41573 70.60713 67.51143
# Shear Modulus (GPa) = 29.50064 30.50083 30.00073
#
# Velocity S-wave (km/s) = 3.71746 3.77995 3.74883
# Velocity P-wave (km/s) = 6.97146 7.21986 7.09675
#
# Compressibility (1/GPa) = 0.01552416
#
# Stress axis : x y z
#
# Youngs Moduli (GPa) = 86.99780 64.96273 68.32785
#
# Poissons Ratio (x) = 0.26417 0.40680
# Poissons Ratio (y) = 0.35377 0.20358
# Poissons Ratio (z) = 0.51796 0.19355
#
# Static dielectric constant tensor:
#      x y z
#    x 3.980020 0.000000 0.000000 
#    y 0.000000 3.852880 0.000000 
#    z 0.000000 0.000000 4.007500 
# 
# 
# High freq. dielectric constant tensor:
#      x y z
#    x 1.835330 0.000000 0.000000 
#    y 0.000000 1.837420 0.000000 
#    z 0.000000 0.000000 1.840420 
# 
# From -- ./inp_files/6549.got.cif
#   From: 2010.03.12/outbox.cif.g09.slc.cpg/sg62_4_cif.got.tgz:6549.got - 2010.04.10 19:12:36.
