data_PCOD8254334
_publ_section_title
;
Structure prediction by ZEFSAII (Michael W. Deem and Ramdas Pophale) SiO2 
 PCOD8254334
Probable space group: P N M A
;
_chemical_formula_sum "Si O2"
_cell_formula_units_Z 56
_cell_length_a 18.163312
_cell_length_b 8.719326
_cell_length_c 17.175913
_cell_angle_alpha 90.000000
_cell_angle_beta 90.000000
_cell_angle_gamma 90.000000
_cell_volume 2720.180921
_symmetry_space_group_name_H-M "P N M A"
_symmetry_group_IT_number 62
_symmetry_cell_setting 'orthorhombic'
loop_
_space_group_symop_operation_xyz
x,y,z
1/2-x,-y,1/2+z
1/2+x,1/2-y,1/2-z
-x,1/2+y,-z
-x,-y,-z
1/2+x,y,1/2-z
1/2-x,1/2+y,1/2+z
x,1/2-y,z
loop_
_atom_site_type_symbol
_atom_site_label
_atom_site_fract_x
_atom_site_fract_y
_atom_site_fract_z
Si Si1 0.081879 0.569838 0.789416
Si Si2 0.330677 0.930308 0.417146
Si Si3 0.180027 0.573735 0.083190
Si Si4 0.921000 0.430530 0.490437
Si Si5 0.424086 0.070858 0.722851
Si Si6 0.172679 0.568054 0.366291
Si Si7 0.837864 0.928991 0.350361
O O1 0.089815 0.750000 0.778665
O O2 0.100973 0.519410 0.877826
O O3 0.141526 0.483006 0.735952
O O4 0.999186 0.522023 0.768202
O O5 0.342916 0.750000 0.407327
O O6 0.256674 0.988631 0.373487
O O7 0.326542 0.966279 0.508507
O O8 0.181888 0.750000 0.055832
O O9 0.110208 0.541154 0.138099
O O10 0.252804 0.533708 0.132667
O O11 0.926632 0.250000 0.496198
O O12 0.870098 0.498157 0.558919
O O13 0.889232 0.476569 0.407740
O O14 0.000000 0.500000 0.500000
O O15 0.440723 0.250000 0.736320
O O16 0.366471 0.009158 0.787685
O O17 0.172248 0.750000 0.367968
O O18 0.854636 0.750000 0.359277
#
# Coordination Sequence:
#
# PCOD8254334 Si02
#       7
#     8   8   8   8   8   8   8
#     4  12  26  42  61  91 126 161 208 261 312 372
#     4  11  22  41  67  92 122 164 208 255 313 371
#     4  10  22  40  65  95 126 161 207 258 308 368
#     4  11  21  35  57  91 128 166 207 253 304 364
#     4  10  21  41  65  89 121 163 208 256 312 370
#     4   9  19  37  62  89 120 158 204 250 300 364
#     4  11  22  40  64  91 125 164 205 253 313 376
#
# _framework density 20.586866000000001
#
# number of rings (size 3 to 8) (size 9 to 14) (size 15 to 20)
#    0.000    1.429    1.429    4.286    0.000    5.143 
#    0.000    3.571    0.000    0.000    0.000    0.000 
#    0.000    0.000    0.000    0.000    0.000    0.000 
#
# Total GULP energy -694633.805695 kJ/mol
# GULP energy per Si atom -12404.175102 kJ/mol
# Density = 2.054001 g / cm^3
# Si number density = 20.586866 Si / 1000 Ang^3
#
#
#
# Elastic Constant Matrix: (Units=GPa)
#
#
# Indices 1 2 3 4 5 6 
#
# 1 63.0754 24.9863 36.1468 0.0000 0.0000 0.0000
# 2 24.9863 63.9067 23.8565 0.0000 0.0000 0.0000
# 3 36.1468 23.8565 97.4812 0.0000 0.0000 0.0000
# 4 0.0000 0.0000 0.0000 34.6107 0.0000 0.0000
# 5 0.0000 0.0000 0.0000 0.0000 35.1604 0.0000
# 6 0.0000 0.0000 0.0000 0.0000 0.0000 26.5207
#
#
#
# Elastic Compliance Matrix: (Units=1/GPa)
#
#
# Indices 1 2 3 4 5 6 
#
# 1 0.022131 -0.006151 -0.006701 0.000000 0.000000 0.000000
# 2 -0.006151 0.018931 -0.002352 0.000000 0.000000 0.000000
# 3 -0.006701 -0.002352 0.013319 0.000000 0.000000 0.000000
# 4 0.000000 0.000000 0.000000 0.028893 0.000000 0.000000
# 5 0.000000 0.000000 0.000000 0.000000 0.028441 0.000000
# 6 0.000000 0.000000 0.000000 0.000000 0.000000 0.037706
#
#
# Mechanical properties :
#
#
# Convention : Reuss Voigt Hill
#
# Bulk Modulus (GPa) = 41.71518 43.82697 42.77107
# Shear Modulus (GPa) = 26.62125 28.55660 27.58892
#
# Velocity S-wave (km/s) = 3.59990 3.72846 3.66474
# Velocity P-wave (km/s) = 6.13074 6.31429 6.22319
#
# Compressibility (1/GPa) = 0.02397209
#
# Stress axis : x y z
#
# Youngs Moduli (GPa) = 45.18567 52.82385 75.08218
#
# Poissons Ratio (x) = 0.32494 0.50312
# Poissons Ratio (y) = 0.27795 0.17659
# Poissons Ratio (z) = 0.30279 0.12424
#
# Static dielectric constant tensor:
#      x y z
#    x 3.687560 0.000000 0.000000 
#    y 0.000000 3.487950 0.000000 
#    z 0.000000 0.000000 8.272250 
# 
# 
# High freq. dielectric constant tensor:
#      x y z
#    x 1.813430 0.000000 0.000000 
#    y 0.000000 1.789500 0.000000 
#    z 0.000000 0.000000 1.816590 
# 
# From -- ./inp_files/20412.got.cif
#   From: 2010.03.12/outbox.cif.g09.slc.cpg/sg62_11_cif.got.tgz:20412.got - 2010.04.10 19:12:36.
