data_PCOD8254012
_publ_section_title
;
Structure prediction by ZEFSAII (Michael W. Deem and Ramdas Pophale) SiO2 
 PCOD8254012
Probable space group: P N M A
;
_chemical_formula_sum "Si O2"
_cell_formula_units_Z 40
_cell_length_a 20.111463
_cell_length_b 17.115891
_cell_length_c 5.016994
_cell_angle_alpha 90.000000
_cell_angle_beta 90.000000
_cell_angle_gamma 90.000000
_cell_volume 1726.977813
_symmetry_space_group_name_H-M "P N M A"
_symmetry_group_IT_number 62
_symmetry_cell_setting 'orthorhombic'
loop_
_space_group_symop_operation_xyz
x,y,z
1/2-x,-y,1/2+z
1/2+x,1/2-y,1/2-z
-x,1/2+y,-z
-x,-y,-z
1/2+x,y,1/2-z
1/2-x,1/2+y,1/2+z
x,1/2-y,z
loop_
_atom_site_type_symbol
_atom_site_label
_atom_site_fract_x
_atom_site_fract_y
_atom_site_fract_z
Si Si1 0.745534 0.661295 0.487999
Si Si2 0.620333 0.104310 0.200100
Si Si3 0.450794 0.661691 0.319526
Si Si4 0.659744 0.661256 0.994659
Si Si5 0.551738 0.951535 0.171012
O O1 0.773221 0.750000 0.467905
O O2 0.804840 0.606227 0.590426
O O3 0.716483 0.632541 0.204545
O O4 0.685877 0.655367 0.696148
O O5 0.609748 0.154206 0.469982
O O6 0.603015 0.015264 0.288519
O O7 0.572548 0.140591 0.976837
O O8 0.477852 0.750000 0.324045
O O9 0.510937 0.600406 0.390357
O O10 0.640537 0.750000 0.070254
O O11 0.593852 0.609242 0.995848
O O12 0.500000 0.000000 0.000000
#
# Coordination Sequence:
#
# PCOD8254012 Si02
#       5
#     8   8   8   8   8
#     4  10  21  38  61  89 119 156 204 253 301 360
#     4  11  23  39  62  92 123 155 200 254 308 358
#     4  11  22  39  63  88 120 162 204 248 299 361
#     4  10  22  40  63  89 121 161 204 249 301 365
#     4  10  24  42  61  90 126 162 203 252 305 362
#
# _framework density 23.161847999999999
#
# number of rings (size 3 to 8) (size 9 to 14) (size 15 to 20)
#    0.000    1.600    0.000    4.200    0.000    9.600 
#    0.000    6.000    0.000    0.000    0.000    0.000 
#    0.000    0.000    0.000    0.000    0.000    0.000 
#
# Total GULP energy -495896.805833 kJ/mol
# GULP energy per Si atom -12397.420146 kJ/mol
# Density = 2.310913 g / cm^3
# Si number density = 23.161848 Si / 1000 Ang^3
#
#
#
# Elastic Constant Matrix: (Units=GPa)
#
#
# Indices 1 2 3 4 5 6 
#
# 1 89.2782 51.4499 -10.3813 0.0000 0.0000 0.0000
# 2 51.4499 128.3815 16.9554 0.0000 0.0000 0.0000
# 3 -10.3813 16.9554 68.3306 0.0000 0.0000 0.0000
# 4 0.0000 0.0000 0.0000 15.1981 0.0000 0.0000
# 5 0.0000 0.0000 0.0000 0.0000 27.7739 0.0000
# 6 0.0000 0.0000 0.0000 0.0000 0.0000 48.6061
#
#
#
# Elastic Compliance Matrix: (Units=1/GPa)
#
#
# Indices 1 2 3 4 5 6 
#
# 1 0.015577 -0.006777 0.004048 0.000000 0.000000 0.000000
# 2 -0.006777 0.011002 -0.003760 0.000000 0.000000 0.000000
# 3 0.004048 -0.003760 0.016183 0.000000 0.000000 0.000000
# 4 0.000000 0.000000 0.000000 0.065798 0.000000 0.000000
# 5 0.000000 0.000000 0.000000 0.000000 0.036005 0.000000
# 6 0.000000 0.000000 0.000000 0.000000 0.000000 0.020574
#
#
# Mechanical properties :
#
#
# Convention : Reuss Voigt Hill
#
# Bulk Modulus (GPa) = 33.57442 44.67095 39.12268
# Shear Modulus (GPa) = 26.58951 33.51337 30.05144
#
# Velocity S-wave (km/s) = 3.39187 3.80797 3.60593
# Velocity P-wave (km/s) = 5.46505 6.21792 5.85360
#
# Compressibility (1/GPa) = 0.02978458
#
# Stress axis : x y z
#
# Youngs Moduli (GPa) = 64.19539 90.89304 61.79435
#
# Poissons Ratio (x) = 0.61602 -0.25017
# Poissons Ratio (y) = 0.43508 0.23233
# Poissons Ratio (z) = -0.25989 0.34173
#
# Static dielectric constant tensor:
#      x y z
#    x 4.115800 0.000000 0.000000 
#    y 0.000000 4.606120 0.000000 
#    z 0.000000 0.000000 3.959080 
# 
# 
# High freq. dielectric constant tensor:
#      x y z
#    x 1.910560 0.000000 0.000000 
#    y 0.000000 1.921130 0.000000 
#    z 0.000000 0.000000 1.904760 
# 
# From -- ./inp_files/2127.got.cif
#   From: 2010.03.12/outbox.cif.g09.slc.cpg/sg62_2_cif.got.tgz:2127.got - 2010.04.10 19:12:36.
