data_PCOD8254633
_publ_section_title
;
Structure prediction by ZEFSAII (Michael W. Deem and Ramdas Pophale) SiO2 
 PCOD8254633
Probable space group: P N M A
;
_chemical_formula_sum "Si O2"
_cell_formula_units_Z 40
_cell_length_a 14.673909
_cell_length_b 8.846378
_cell_length_c 14.926974
_cell_angle_alpha 90.000000
_cell_angle_beta 90.000000
_cell_angle_gamma 90.000000
_cell_volume 1937.684612
_symmetry_space_group_name_H-M "P N M A"
_symmetry_group_IT_number 62
_symmetry_cell_setting 'orthorhombic'
loop_
_space_group_symop_operation_xyz
x,y,z
1/2-x,-y,1/2+z
1/2+x,1/2-y,1/2-z
-x,1/2+y,-z
-x,-y,-z
1/2+x,y,1/2-z
1/2-x,1/2+y,1/2+z
x,1/2-y,z
loop_
_atom_site_type_symbol
_atom_site_label
_atom_site_fract_x
_atom_site_fract_y
_atom_site_fract_z
Si Si1 0.929106 0.923374 0.434997
Si Si2 0.984268 0.428711 0.258214
Si Si3 0.323337 0.071810 0.735645
Si Si4 0.776790 0.421965 0.965644
Si Si5 0.156733 0.072681 0.861369
O O1 0.956757 0.750000 0.417962
O O2 0.831001 0.935534 0.480846
O O3 0.925845 0.009044 0.340974
O O4 0.000000 0.000000 0.500000
O O5 0.983896 0.250000 0.258964
O O6 0.935872 0.489413 0.168557
O O7 0.087071 0.485869 0.267482
O O8 0.338844 0.250000 0.744606
O O9 0.301600 0.024431 0.634095
O O10 0.241074 0.018876 0.799789
O O11 0.809004 0.250000 0.981617
O O12 0.826637 0.530759 0.035497
O O13 0.140621 0.250000 0.852261
#
# Coordination Sequence:
#
# PCOD8254633 Si02
#       5
#     8   8   8   8   8
#     4  11  22  40  64  95 129 165 213 264 320 379
#     4  12  25  40  63  94 128 169 213 263 319 380
#     4  10  22  43  66  89 125 170 214 264 321 378
#     4  10  22  41  64  91 125 165 210 263 317 378
#     4  11  23  42  66  93 126 169 213 263 321 381
#
# _framework density 20.643194999999999
#
# number of rings (size 3 to 8) (size 9 to 14) (size 15 to 20)
#    0.000    1.200    2.000    4.200    0.000    8.000 
#    0.000    0.000    0.000    0.000    0.000    0.000 
#    0.000    0.000    0.000    0.000    0.000    0.000 
#
# Total GULP energy -496273.394831 kJ/mol
# GULP energy per Si atom -12406.834871 kJ/mol
# Density = 2.059621 g / cm^3
# Si number density = 20.643195 Si / 1000 Ang^3
#
#
#
# Elastic Constant Matrix: (Units=GPa)
#
#
# Indices 1 2 3 4 5 6 
#
# 1 51.3651 23.8427 -9.1462 0.0000 0.0000 0.0000
# 2 23.8427 86.5837 16.3210 0.0000 0.0000 0.0000
# 3 -9.1462 16.3210 77.6033 0.0000 0.0000 0.0000
# 4 0.0000 0.0000 0.0000 40.4768 0.0000 0.0000
# 5 0.0000 0.0000 0.0000 0.0000 36.1797 0.0000
# 6 0.0000 0.0000 0.0000 0.0000 0.0000 31.4216
#
#
#
# Elastic Compliance Matrix: (Units=1/GPa)
#
#
# Indices 1 2 3 4 5 6 
#
# 1 0.023639 -0.007325 0.004327 0.000000 0.000000 0.000000
# 2 -0.007325 0.014296 -0.003870 0.000000 0.000000 0.000000
# 3 0.004327 -0.003870 0.014210 0.000000 0.000000 0.000000
# 4 0.000000 0.000000 0.000000 0.024705 0.000000 0.000000
# 5 0.000000 0.000000 0.000000 0.000000 0.027640 0.000000
# 6 0.000000 0.000000 0.000000 0.000000 0.000000 0.031825
#
#
# Mechanical properties :
#
#
# Convention : Reuss Voigt Hill
#
# Bulk Modulus (GPa) = 26.03613 30.84301 28.43957
# Shear Modulus (GPa) = 30.70211 33.91794 32.31003
#
# Velocity S-wave (km/s) = 3.86070 4.05786 3.96051
# Velocity P-wave (km/s) = 5.70204 6.07688 5.89244
#
# Compressibility (1/GPa) = 0.03840816
#
# Stress axis : x y z
#
# Youngs Moduli (GPa) = 42.30283 69.94894 70.37355
#
# Poissons Ratio (x) = 0.51238 -0.30448
# Poissons Ratio (y) = 0.30987 0.27235
# Poissons Ratio (z) = -0.18303 0.27070
#
# Static dielectric constant tensor:
#      x y z
#    x 3.726250 0.000000 0.000000 
#    y 0.000000 3.679160 0.000000 
#    z 0.000000 0.000000 3.772860 
# 
# 
# High freq. dielectric constant tensor:
#      x y z
#    x 1.812630 0.000000 0.000000 
#    y 0.000000 1.806550 0.000000 
#    z 0.000000 0.000000 1.815020 
# 
# From -- ./inp_files/18591.got.cif
#   From: 2010.03.12/outbox.cif.g09.slc.cpg/sg62_10_cif.got.tgz:18591.got - 2010.04.10 19:12:36.
