data_PCOD8254655
_publ_section_title
;
Structure prediction by ZEFSAII (Michael W. Deem and Ramdas Pophale) SiO2 
 PCOD8254655
Probable space group: P N M A
;
_chemical_formula_sum "Si O2"
_cell_formula_units_Z 56
_cell_length_a 14.928157
_cell_length_b 30.051058
_cell_length_c 5.134733
_cell_angle_alpha 90.000000
_cell_angle_beta 90.000000
_cell_angle_gamma 90.000000
_cell_volume 2303.476714
_symmetry_space_group_name_H-M "P N M A"
_symmetry_group_IT_number 62
_symmetry_cell_setting 'orthorhombic'
loop_
_space_group_symop_operation_xyz
x,y,z
1/2-x,-y,1/2+z
1/2+x,1/2-y,1/2-z
-x,1/2+y,-z
-x,-y,-z
1/2+x,y,1/2-z
1/2-x,1/2+y,1/2+z
x,1/2-y,z
loop_
_atom_site_type_symbol
_atom_site_label
_atom_site_fract_x
_atom_site_fract_y
_atom_site_fract_z
Si Si1 0.793729 0.387445 0.402021
Si Si2 0.040998 0.419189 0.757559
Si Si3 0.695456 0.053294 0.042986
Si Si4 0.481863 0.125887 0.255751
Si Si5 0.091105 0.298706 0.442144
Si Si6 0.865765 0.465280 0.771986
Si Si7 0.293967 0.699248 0.431696
O O1 0.826971 0.425899 0.593961
O O2 0.777811 0.341158 0.558822
O O3 0.875386 0.378020 0.200066
O O4 0.706304 0.404000 0.236806
O O5 0.145892 0.433635 0.732064
O O6 0.016701 0.409047 0.458186
O O7 0.968655 0.456040 0.857210
O O8 0.033317 0.379791 0.968520
O O9 0.796132 0.033789 0.013165
O O10 0.632738 0.014519 0.154867
O O11 0.504119 0.173699 0.136477
O O12 0.052460 0.250000 0.491646
O O13 0.136841 0.315831 0.707536
O O14 0.163602 0.299578 0.215241
O O15 0.256470 0.750000 0.370416
#
# Coordination Sequence:
#
# PCOD8254655 Si02
#       7
#     8   8   8   8   8   8   8
#     4  11  25  42  67  99 143 184 238 306 362 436
#     4  11  26  43  69 101 137 188 241 296 362 440
#     4  12  24  44  70  96 144 196 239 309 379 431
#     4  11  24  43  65 102 138 178 245 293 354 440
#     4  10  22  41  66  98 136 176 229 290 350 428
#     4  11  25  45  64 103 139 187 250 300 361 450
#     4  10  23  42  68 101 134 179 236 286 353 434
#
# _framework density 24.311077000000001
#
# number of rings (size 3 to 8) (size 9 to 14) (size 15 to 20)
#    0.000    1.143    2.857    2.143    8.000    0.571 
#    0.000    2.857    0.000    6.000    0.000    0.000 
#    0.000    0.000    0.000    0.000    0.000    0.000 
#
# Total GULP energy -694006.922600 kJ/mol
# GULP energy per Si atom -12392.980761 kJ/mol
# Density = 2.425574 g / cm^3
# Si number density = 24.311077 Si / 1000 Ang^3
#
#
#
# Elastic Constant Matrix: (Units=GPa)
#
#
# Indices 1 2 3 4 5 6 
#
# 1 77.8247 43.3665 13.1622 0.0000 0.0000 0.0000
# 2 43.3665 135.2369 35.7959 0.0000 0.0000 0.0000
# 3 13.1622 35.7959 91.7718 0.0000 0.0000 0.0000
# 4 0.0000 0.0000 0.0000 33.6340 0.0000 0.0000
# 5 0.0000 0.0000 0.0000 0.0000 40.5998 0.0000
# 6 0.0000 0.0000 0.0000 0.0000 0.0000 33.6265
#
#
#
# Elastic Compliance Matrix: (Units=1/GPa)
#
#
# Indices 1 2 3 4 5 6 
#
# 1 0.015653 -0.004935 -0.000320 0.000000 0.000000 0.000000
# 2 -0.004935 0.009801 -0.003115 0.000000 0.000000 0.000000
# 3 -0.000320 -0.003115 0.012158 0.000000 0.000000 0.000000
# 4 0.000000 0.000000 0.000000 0.029732 0.000000 0.000000
# 5 0.000000 0.000000 0.000000 0.000000 0.024631 0.000000
# 6 0.000000 0.000000 0.000000 0.000000 0.000000 0.029738
#
#
# Mechanical properties :
#
#
# Convention : Reuss Voigt Hill
#
# Bulk Modulus (GPa) = 47.91156 54.38695 51.14926
# Shear Modulus (GPa) = 34.38518 35.73931 35.06224
#
# Velocity S-wave (km/s) = 3.76491 3.83833 3.80179
# Velocity P-wave (km/s) = 6.21690 6.48564 6.35269
#
# Compressibility (1/GPa) = 0.02087179
#
# Stress axis : x y z
#
# Youngs Moduli (GPa) = 63.88391 102.02539 82.25267
#
# Poissons Ratio (x) = 0.50348 0.02634
# Poissons Ratio (y) = 0.31526 0.25624
# Poissons Ratio (z) = 0.02046 0.31784
#
# Static dielectric constant tensor:
#      x y z
#    x 4.528230 0.000000 0.000000 
#    y 0.000000 4.615360 0.000000 
#    z 0.000000 0.000000 4.289160 
# 
# 
# High freq. dielectric constant tensor:
#      x y z
#    x 1.955430 0.000000 0.000000 
#    y 0.000000 1.969990 0.000000 
#    z 0.000000 0.000000 1.967680 
# 
# From -- ./inp_files/1279.got.cif
#   From: 2010.03.12/outbox.cif.g09.slc.cpg/sg62_1_cif.got.tgz:1279.got - 2010.04.10 19:12:36.
