data_PCOD8254902
_publ_section_title
;
Structure prediction by ZEFSAII (Michael W. Deem and Ramdas Pophale) SiO2 
 PCOD8254902
Probable space group: P N M A
;
_chemical_formula_sum "Si O2"
_cell_formula_units_Z 64
_cell_length_a 14.921295
_cell_length_b 8.694246
_cell_length_c 23.577545
_cell_angle_alpha 90.000000
_cell_angle_beta 90.000000
_cell_angle_gamma 90.000000
_cell_volume 3058.700987
_symmetry_space_group_name_H-M "P N M A"
_symmetry_group_IT_number 62
_symmetry_cell_setting 'orthorhombic'
loop_
_space_group_symop_operation_xyz
x,y,z
1/2-x,-y,1/2+z
1/2+x,1/2-y,1/2-z
-x,1/2+y,-z
-x,-y,-z
1/2+x,y,1/2-z
1/2-x,1/2+y,1/2+z
x,1/2-y,z
loop_
_atom_site_type_symbol
_atom_site_label
_atom_site_fract_x
_atom_site_fract_y
_atom_site_fract_z
Si Si1 0.928601 0.569045 0.251448
Si Si2 0.274468 0.070775 0.755230
Si Si3 0.262659 0.074476 0.026594
Si Si4 0.825992 0.070439 0.873194
Si Si5 0.508291 0.929458 0.639576
Si Si6 0.570711 0.068144 0.168307
Si Si7 0.422905 0.931118 0.961477
Si Si8 0.576744 0.425077 0.536678
O O1 0.927746 0.750000 0.261820
O O2 0.827554 0.507115 0.241323
O O3 0.986727 0.526998 0.196821
O O4 0.978117 0.494258 0.305154
O O5 0.277421 0.250000 0.770112
O O6 0.305242 0.037009 0.691821
O O7 0.339742 0.987747 0.799480
O O8 0.294998 0.250000 0.034732
O O9 0.255100 0.993359 0.088090
O O10 0.168924 0.063640 0.995483
O O11 0.329355 0.981639 0.987308
O O12 0.840712 0.250000 0.885435
O O13 0.913999 0.972908 0.889804
O O14 0.515239 0.750000 0.653222
O O15 0.585685 0.981485 0.595919
O O16 0.569658 0.250000 0.172119
O O17 0.572069 0.009303 0.103394
O O18 0.431905 0.750000 0.962778
O O19 0.500000 0.000000 0.000000
O O20 0.500000 0.500000 0.500000
O O21 0.550715 0.250000 0.550378
#
# Coordination Sequence:
#
# PCOD8254902 Si02
#       8
#     8   8   8   8   8   8   8   8
#     4  11  24  43  67  96 129 170 218 265 327 397
#     4  10  24  43  67  98 130 172 217 264 328 396
#     4  11  25  43  66  97 130 174 222 271 330 391
#     4  11  22  40  66  96 130 169 217 271 328 395
#     4  12  24  39  61  93 131 172 215 264 324 389
#     4  11  25  45  69 101 135 170 219 278 335 391
#     4  11  27  49  71  98 131 175 229 283 338 394
#     4  11  23  39  61  92 131 172 214 261 319 390
#
# _framework density 20.923915000000001
#
# number of rings (size 3 to 8) (size 9 to 14) (size 15 to 20)
#    0.000    1.000    2.500    3.375    3.500    5.000 
#    0.000    0.000    0.000    0.000    0.000    0.000 
#    0.000    0.000    0.000    0.000    0.000    0.000 
#
# Total GULP energy -793811.491596 kJ/mol
# GULP energy per Si atom -12403.304556 kJ/mol
# Density = 2.087629 g / cm^3
# Si number density = 20.923915 Si / 1000 Ang^3
#
#
#
# Elastic Constant Matrix: (Units=GPa)
#
#
# Indices 1 2 3 4 5 6 
#
# 1 109.2681 42.1816 54.6430 0.0000 0.0000 0.0000
# 2 42.1816 77.6475 50.6635 0.0000 0.0000 0.0000
# 3 54.6430 50.6635 148.2845 0.0000 0.0000 0.0000
# 4 0.0000 0.0000 0.0000 34.5382 0.0000 0.0000
# 5 0.0000 0.0000 0.0000 0.0000 33.1391 0.0000
# 6 0.0000 0.0000 0.0000 0.0000 0.0000 32.0624
#
#
#
# Elastic Compliance Matrix: (Units=1/GPa)
#
#
# Indices 1 2 3 4 5 6 
#
# 1 0.012505 -0.004873 -0.002943 0.000000 0.000000 0.000000
# 2 -0.004873 0.018472 -0.004516 0.000000 0.000000 0.000000
# 3 -0.002943 -0.004516 0.009371 0.000000 0.000000 0.000000
# 4 0.000000 0.000000 0.000000 0.028953 0.000000 0.000000
# 5 0.000000 0.000000 0.000000 0.000000 0.030176 0.000000
# 6 0.000000 0.000000 0.000000 0.000000 0.000000 0.031189
#
#
# Mechanical properties :
#
#
# Convention : Reuss Voigt Hill
#
# Bulk Modulus (GPa) = 63.75550 70.01959 66.88755
# Shear Modulus (GPa) = 31.14140 32.46208 31.80174
#
# Velocity S-wave (km/s) = 3.86206 3.94310 3.90279
# Velocity P-wave (km/s) = 7.10096 7.36663 7.23501
#
# Compressibility (1/GPa) = 0.01568492
#
# Stress axis : x y z
#
# Youngs Moduli (GPa) = 79.97007 54.13543 106.71012
#
# Poissons Ratio (x) = 0.26379 0.31406
# Poissons Ratio (y) = 0.38968 0.48187
# Poissons Ratio (z) = 0.23536 0.24446
#
# Static dielectric constant tensor:
#      x y z
#    x 3.538760 0.000000 0.000000 
#    y 0.000000 3.854370 0.000000 
#    z 0.000000 0.000000 3.859580 
# 
# 
# High freq. dielectric constant tensor:
#      x y z
#    x 1.822640 0.000000 0.000000 
#    y 0.000000 1.825020 0.000000 
#    z 0.000000 0.000000 1.835100 
# 
# From -- ./inp_files/29914.got.cif
#   From: 2010.03.12/outbox.cif.g09.slc.cpg/sg62_15_cif.got.tgz:29914.got - 2010.04.10 19:12:36.
