data_PCOD8254485
_publ_section_title
;
Structure prediction by ZEFSAII (Michael W. Deem and Ramdas Pophale) SiO2 
 PCOD8254485
Probable space group: P N M A
;
_chemical_formula_sum "Si O2"
_cell_formula_units_Z 48
_cell_length_a 5.038074
_cell_length_b 16.908445
_cell_length_c 27.246370
_cell_angle_alpha 90.000000
_cell_angle_beta 90.000000
_cell_angle_gamma 90.000000
_cell_volume 2321.009197
_symmetry_space_group_name_H-M "P N M A"
_symmetry_group_IT_number 62
_symmetry_cell_setting 'orthorhombic'
loop_
_space_group_symop_operation_xyz
x,y,z
1/2-x,-y,1/2+z
1/2+x,1/2-y,1/2-z
-x,1/2+y,-z
-x,-y,-z
1/2+x,y,1/2-z
1/2-x,1/2+y,1/2+z
x,1/2-y,z
loop_
_atom_site_type_symbol
_atom_site_label
_atom_site_fract_x
_atom_site_fract_y
_atom_site_fract_z
Si Si1 0.503912 0.842248 0.468890
Si Si2 0.514760 0.049628 0.124936
Si Si3 0.997828 0.589763 0.517796
Si Si4 0.003654 0.157828 0.281667
Si Si5 0.374680 0.840239 0.281733
Si Si6 0.016496 0.944609 0.126501
O O1 0.537143 0.750000 0.459109
O O2 0.709746 0.872159 0.509772
O O3 0.568034 0.886511 0.418501
O O4 0.208491 0.859722 0.487184
O O5 0.793868 0.008348 0.112881
O O6 0.292376 0.986388 0.139953
O O7 0.429204 0.094920 0.075316
O O8 0.553251 0.111736 0.168311
O O9 0.000000 0.500000 0.500000
O O10 0.722261 0.134197 0.258666
O O11 0.022104 0.250000 0.294667
O O12 0.582905 0.858171 0.238632
O O13 0.403224 0.750000 0.299752
O O14 0.417423 0.896479 0.327136
#
# Coordination Sequence:
#
# PCOD8254485 Si02
#       6
#     8   8   8   8   8   8
#     4  12  25  42  67  96 128 172 217 260 320 390
#     4  12  25  39  69  93 123 167 212 253 330 383
#     4  12  23  45  66  92 135 172 209 273 328 377
#     4  10  23  44  65  90 128 165 207 269 326 379
#     4  10  22  39  58  84 123 165 204 254 307 361
#     4  12  23  40  62  94 124 166 204 264 312 381
#
# _framework density 20.680657
#
# number of rings (size 3 to 8) (size 9 to 14) (size 15 to 20)
#    0.000    0.667    3.333    4.500    0.000    5.333 
#    0.000    6.667    0.000    0.000    0.000    0.000 
#    0.000    0.000    0.000    0.000    0.000    0.000 
#
# Total GULP energy -595605.046355 kJ/mol
# GULP energy per Si atom -12408.438466 kJ/mol
# Density = 2.063359 g / cm^3
# Si number density = 20.680657 Si / 1000 Ang^3
#
#
#
# Elastic Constant Matrix: (Units=GPa)
#
#
# Indices 1 2 3 4 5 6 
#
# 1 84.1011 32.2383 -2.8810 0.0000 0.0000 0.0000
# 2 32.2383 96.2950 47.5941 0.0000 0.0000 0.0000
# 3 -2.8810 47.5941 87.8087 0.0000 0.0000 0.0000
# 4 0.0000 0.0000 0.0000 122.8773 0.0000 0.0000
# 5 0.0000 0.0000 0.0000 0.0000 21.2711 0.0000
# 6 0.0000 0.0000 0.0000 0.0000 0.0000 24.5434
#
#
#
# Elastic Compliance Matrix: (Units=1/GPa)
#
#
# Indices 1 2 3 4 5 6 
#
# 1 0.014749 -0.007071 0.004317 0.000000 0.000000 0.000000
# 2 -0.007071 0.017575 -0.009758 0.000000 0.000000 0.000000
# 3 0.004317 -0.009758 0.016819 0.000000 0.000000 0.000000
# 4 0.000000 0.000000 0.000000 0.008138 0.000000 0.000000
# 5 0.000000 0.000000 0.000000 0.000000 0.047012 0.000000
# 6 0.000000 0.000000 0.000000 0.000000 0.000000 0.040744
#
#
# Mechanical properties :
#
#
# Convention : Reuss Voigt Hill
#
# Bulk Modulus (GPa) = 41.46311 46.90082 44.18196
# Shear Modulus (GPa) = 28.07378 46.48858 37.28118
#
# Velocity S-wave (km/s) = 3.68841 4.74637 4.25044
# Velocity P-wave (km/s) = 6.18320 7.26397 6.74526
#
# Compressibility (1/GPa) = 0.02411783
#
# Stress axis : x y z
#
# Youngs Moduli (GPa) = 67.80140 56.89880 59.45628
#
# Poissons Ratio (x) = 0.40235 -0.25665
# Poissons Ratio (y) = 0.47944 0.58018
# Poissons Ratio (z) = -0.29268 0.55522
#
# Static dielectric constant tensor:
#      x y z
#    x 4.582660 0.000000 0.000000 
#    y 0.000000 3.782720 0.000000 
#    z 0.000000 0.000000 2.851380 
# 
# 
# High freq. dielectric constant tensor:
#      x y z
#    x 1.827280 0.000000 0.000000 
#    y 0.000000 1.809570 0.000000 
#    z 0.000000 0.000000 1.816310 
# 
# From -- ./inp_files/30404.got.cif
#   From: 2010.03.12/outbox.cif.g09.slc.cpg/sg62_16_cif.got.tgz:30404.got - 2010.04.10 19:12:36.
