data_PCOD8254734
_publ_section_title
;
Structure prediction by ZEFSAII (Michael W. Deem and Ramdas Pophale) SiO2 
 PCOD8254734
Probable space group: P N M A
;
_chemical_formula_sum "Si O2"
_cell_formula_units_Z 40
_cell_length_a 10.720138
_cell_length_b 16.938192
_cell_length_c 9.785792
_cell_angle_alpha 90.000000
_cell_angle_beta 90.000000
_cell_angle_gamma 90.000000
_cell_volume 1776.901721
_symmetry_space_group_name_H-M "P N M A"
_symmetry_group_IT_number 62
_symmetry_cell_setting 'orthorhombic'
loop_
_space_group_symop_operation_xyz
x,y,z
1/2-x,-y,1/2+z
1/2+x,1/2-y,1/2-z
-x,1/2+y,-z
-x,-y,-z
1/2+x,y,1/2-z
1/2-x,1/2+y,1/2+z
x,1/2-y,z
loop_
_atom_site_type_symbol
_atom_site_label
_atom_site_fract_x
_atom_site_fract_y
_atom_site_fract_z
Si Si1 0.016313 0.840036 0.019982
Si Si2 0.256812 0.908174 0.534255
Si Si3 0.742353 0.659639 0.675513
Si Si4 0.560204 0.841190 0.174200
Si Si5 0.615877 0.443350 0.977541
O O1 0.966734 0.750000 0.008735
O O2 0.084327 0.853228 0.164932
O O3 0.901237 0.899195 0.002961
O O4 0.114082 0.859031 0.901788
O O5 0.220746 0.856620 0.665542
O O6 0.174174 0.880700 0.406136
O O7 0.232060 0.001071 0.566698
O O8 0.783051 0.750000 0.654114
O O9 0.851502 0.604086 0.616131
O O10 0.552298 0.750000 0.134113
O O11 0.425752 0.880400 0.137562
O O12 0.500000 0.500000 0.000000
#
# Coordination Sequence:
#
# PCOD8254734 Si02
#       5
#     8   8   8   8   8
#     4  10  24  42  69 101 131 178 232 282 349 412
#     4  11  25  44  69 100 143 180 233 293 350 411
#     4  11  25  45  71 103 140 185 235 288 348 421
#     4  10  22  43  69  96 134 180 232 288 347 421
#     4  10  25  42  66  99 135 180 231 280 353 406
#
# _framework density 22.511095000000001
#
# number of rings (size 3 to 8) (size 9 to 14) (size 15 to 20)
#    0.000    1.600    0.000    2.400   11.200    2.400 
#    0.000    0.000    0.000    0.000    0.000    0.000 
#    0.000    0.000    0.000    0.000    0.000    0.000 
#
# Total GULP energy -496093.871131 kJ/mol
# GULP energy per Si atom -12402.346778 kJ/mol
# Density = 2.245986 g / cm^3
# Si number density = 22.511095 Si / 1000 Ang^3
#
#
#
# Elastic Constant Matrix: (Units=GPa)
#
#
# Indices 1 2 3 4 5 6 
#
# 1 96.6584 45.8045 54.9851 0.0000 0.0000 0.0000
# 2 45.8045 102.1720 19.3991 0.0000 0.0000 0.0000
# 3 54.9851 19.3991 118.2183 0.0000 0.0000 0.0000
# 4 0.0000 0.0000 0.0000 28.4440 0.0000 0.0000
# 5 0.0000 0.0000 0.0000 0.0000 41.5112 0.0000
# 6 0.0000 0.0000 0.0000 0.0000 0.0000 44.0370
#
#
#
# Elastic Compliance Matrix: (Units=1/GPa)
#
#
# Indices 1 2 3 4 5 6 
#
# 1 0.017416 -0.006472 -0.007039 0.000000 0.000000 0.000000
# 2 -0.006472 0.012507 0.000958 0.000000 0.000000 0.000000
# 3 -0.007039 0.000958 0.011576 0.000000 0.000000 0.000000
# 4 0.000000 0.000000 0.000000 0.035157 0.000000 0.000000
# 5 0.000000 0.000000 0.000000 0.000000 0.024090 0.000000
# 6 0.000000 0.000000 0.000000 0.000000 0.000000 0.022708
#
#
# Mechanical properties :
#
#
# Convention : Reuss Voigt Hill
#
# Bulk Modulus (GPa) = 60.99874 61.93624 61.46749
# Shear Modulus (GPa) = 32.46260 35.92246 34.19253
#
# Velocity S-wave (km/s) = 3.80158 3.99904 3.90156
# Velocity P-wave (km/s) = 6.81362 6.99260 6.90369
#
# Compressibility (1/GPa) = 0.01639378
#
# Stress axis : x y z
#
# Youngs Moduli (GPa) = 57.41688 79.95645 86.38870
#
# Poissons Ratio (x) = 0.51744 0.60807
# Poissons Ratio (y) = 0.37157 -0.08273
# Poissons Ratio (z) = 0.40414 -0.07657
#
# Static dielectric constant tensor:
#      x y z
#    x 3.962890 0.000000 0.000000 
#    y 0.000000 4.507320 0.000000 
#    z 0.000000 0.000000 4.007480 
# 
# 
# High freq. dielectric constant tensor:
#      x y z
#    x 1.881680 0.000000 0.000000 
#    y 0.000000 1.902060 0.000000 
#    z 0.000000 0.000000 1.887670 
# 
# From -- ./inp_files/5011.got.cif
#   From: 2010.03.12/outbox.cif.g09.slc.cpg/sg62_3_cif.got.tgz:5011.got - 2010.04.10 19:12:36.
