data_PCOD8254800
_publ_section_title
;
Structure prediction by ZEFSAII (Michael W. Deem and Ramdas Pophale) SiO2 
 PCOD8254800
Probable space group: P N M A
;
_chemical_formula_sum "Si O2"
_cell_formula_units_Z 36
_cell_length_a 5.217273
_cell_length_b 22.071868
_cell_length_c 12.841896
_cell_angle_alpha 90.000000
_cell_angle_beta 90.000000
_cell_angle_gamma 90.000000
_cell_volume 1478.808033
_symmetry_space_group_name_H-M "P N M A"
_symmetry_group_IT_number 62
_symmetry_cell_setting 'orthorhombic'
loop_
_space_group_symop_operation_xyz
x,y,z
1/2-x,-y,1/2+z
1/2+x,1/2-y,1/2-z
-x,1/2+y,-z
-x,-y,-z
1/2+x,y,1/2-z
1/2-x,1/2+y,1/2+z
x,1/2-y,z
loop_
_atom_site_type_symbol
_atom_site_label
_atom_site_fract_x
_atom_site_fract_y
_atom_site_fract_z
Si Si1 0.750732 0.470855 0.047972
Si Si2 0.150996 0.319835 0.197988
Si Si3 0.113285 0.750000 0.176993
Si Si4 0.236397 0.568270 0.310498
Si Si5 0.496999 0.143580 0.523147
O O1 0.749955 0.495319 0.167817
O O2 0.500000 0.500000 0.000000
O O3 0.771336 0.398949 0.026754
O O4 0.000000 0.500000 0.000000
O O5 0.907240 0.351087 0.255482
O O6 0.158604 0.250000 0.230618
O O7 0.140812 0.325151 0.073236
O O8 0.351934 0.750000 0.255963
O O9 0.128932 0.808229 0.101763
O O10 0.453966 0.586948 0.227542
O O11 0.287433 0.605173 0.416346
#
# Coordination Sequence:
#
# PCOD8254800 Si02
#       5
#     8   8   4   8   8
#     4  10  23  41  65  94 131 182 236 284 343 401
#     4  10  23  42  65  96 131 177 234 288 340 403
#     4  12  28  46  70 108 146 190 232 280 358 442
#     4  11  23  41  66 101 141 180 228 285 346 420
#     4  11  24  46  71 103 143 190 232 294 355 429
#
# _framework density 24.343933
#
# number of rings (size 3 to 8) (size 9 to 14) (size 15 to 20)
#    0.000    1.333    1.111    4.000    0.000   12.444 
#    0.000    0.000    0.000    0.000    0.000    0.000 
#    0.000    0.000    0.000    0.000    0.000    0.000 
#
# Total GULP energy -446043.967689 kJ/mol
# GULP energy per Si atom -12390.110214 kJ/mol
# Density = 2.428853 g / cm^3
# Si number density = 24.343933 Si / 1000 Ang^3
#
#
#
# Elastic Constant Matrix: (Units=GPa)
#
#
# Indices 1 2 3 4 5 6 
#
# 1 146.0004 27.1089 33.4991 0.0000 0.0000 0.0000
# 2 27.1089 95.5173 20.1669 0.0000 0.0000 0.0000
# 3 33.4991 20.1669 110.9201 0.0000 0.0000 0.0000
# 4 0.0000 0.0000 0.0000 52.4187 0.0000 0.0000
# 5 0.0000 0.0000 0.0000 0.0000 32.3387 0.0000
# 6 0.0000 0.0000 0.0000 0.0000 0.0000 15.7703
#
#
#
# Elastic Compliance Matrix: (Units=1/GPa)
#
#
# Indices 1 2 3 4 5 6 
#
# 1 0.007629 -0.001746 -0.001987 0.000000 0.000000 0.000000
# 2 -0.001746 0.011287 -0.001525 0.000000 0.000000 0.000000
# 3 -0.001987 -0.001525 0.009893 0.000000 0.000000 0.000000
# 4 0.000000 0.000000 0.000000 0.019077 0.000000 0.000000
# 5 0.000000 0.000000 0.000000 0.000000 0.030923 0.000000
# 6 0.000000 0.000000 0.000000 0.000000 0.000000 0.063411
#
#
# Mechanical properties :
#
#
# Convention : Reuss Voigt Hill
#
# Bulk Modulus (GPa) = 54.66263 57.10974 55.88619
# Shear Modulus (GPa) = 31.47982 38.21640 34.84811
#
# Velocity S-wave (km/s) = 3.59991 3.96644 3.78761
# Velocity P-wave (km/s) = 6.30731 6.66988 6.49113
#
# Compressibility (1/GPa) = 0.01829403
#
# Stress axis : x y z
#
# Youngs Moduli (GPa) = 131.07362 88.59961 101.08419
#
# Poissons Ratio (x) = 0.15468 0.20083
# Poissons Ratio (y) = 0.22883 0.15414
# Poissons Ratio (z) = 0.26041 0.13510
#
# Static dielectric constant tensor:
#      x y z
#    x 4.522940 0.000000 0.000000 
#    y 0.000000 4.984130 0.000000 
#    z 0.000000 0.000000 4.624800 
# 
# 
# High freq. dielectric constant tensor:
#      x y z
#    x 1.972170 0.000000 0.000000 
#    y 0.000000 1.960950 0.000000 
#    z 0.000000 0.000000 1.971610 
# 
# From -- ./inp_files/10689.got.cif
#   From: 2010.03.12/outbox.cif.g09.slc.cpg/sg62_6_cif.got.tgz:10689.got - 2010.04.10 19:12:36.
