data_PCOD8254344
_publ_section_title
;
Structure prediction by ZEFSAII (Michael W. Deem and Ramdas Pophale) SiO2 
 PCOD8254344
Probable space group: P N M A
;
_chemical_formula_sum "Si O2"
_cell_formula_units_Z 48
_cell_length_a 13.672683
_cell_length_b 18.694715
_cell_length_c 9.503393
_cell_angle_alpha 90.000000
_cell_angle_beta 90.000000
_cell_angle_gamma 90.000000
_cell_volume 2429.132938
_symmetry_space_group_name_H-M "P N M A"
_symmetry_group_IT_number 62
_symmetry_cell_setting 'orthorhombic'
loop_
_space_group_symop_operation_xyz
x,y,z
1/2-x,-y,1/2+z
1/2+x,1/2-y,1/2-z
-x,1/2+y,-z
-x,-y,-z
1/2+x,y,1/2-z
1/2-x,1/2+y,1/2+z
x,1/2-y,z
loop_
_atom_site_type_symbol
_atom_site_label
_atom_site_fract_x
_atom_site_fract_y
_atom_site_fract_z
Si Si1 0.758479 0.576433 0.442002
Si Si2 0.057001 0.669748 0.681170
Si Si3 0.772619 0.440460 0.268086
Si Si4 0.055551 0.168018 0.605661
Si Si5 0.069671 0.084645 0.128208
Si Si6 0.960039 0.075406 0.845692
O O1 0.801430 0.516090 0.337343
O O2 0.754604 0.549228 0.603618
O O3 0.834291 0.641677 0.427157
O O4 0.649083 0.599030 0.394301
O O5 0.095561 0.750000 0.705406
O O6 0.141441 0.614862 0.714798
O O7 0.013016 0.659815 0.528366
O O8 0.972297 0.652870 0.791905
O O9 0.685544 0.408147 0.361163
O O10 0.064466 0.250000 0.654713
O O11 0.996556 0.123259 0.719396
O O12 0.038262 0.008353 0.197774
O O13 0.038758 0.087286 0.967310
#
# Coordination Sequence:
#
# PCOD8254344 Si02
#       6
#     8   8   8   8   8   8
#     4  11  24  42  68  95 128 165 212 266 323 370
#     4  11  24  41  62  92 129 170 212 253 313 382
#     4  11  24  40  68  98 126 166 213 270 312 375
#     4  11  26  43  63  93 132 173 211 257 318 384
#     4  10  21  41  65  94 123 162 213 264 314 366
#     4  10  23  41  66  96 126 162 215 267 314 378
#
# _framework density 19.760137
#
# number of rings (size 3 to 8) (size 9 to 14) (size 15 to 20)
#    0.000    1.333    3.333    1.000    9.333    4.000 
#    0.000    1.667    0.000    0.000    0.000    0.000 
#    0.000    0.000    0.000    0.000    0.000    0.000 
#
# Total GULP energy -595167.535562 kJ/mol
# GULP energy per Si atom -12399.323658 kJ/mol
# Density = 1.971516 g / cm^3
# Si number density = 19.760137 Si / 1000 Ang^3
#
#
#
# Elastic Constant Matrix: (Units=GPa)
#
#
# Indices 1 2 3 4 5 6 
#
# 1 130.9516 -0.3570 3.2334 0.0000 0.0000 0.0000
# 2 -0.3570 71.8081 33.4678 0.0000 0.0000 0.0000
# 3 3.2334 33.4678 73.3828 0.0000 0.0000 0.0000
# 4 0.0000 0.0000 0.0000 22.1044 0.0000 0.0000
# 5 0.0000 0.0000 0.0000 0.0000 32.9342 0.0000
# 6 0.0000 0.0000 0.0000 0.0000 0.0000 18.0673
#
#
#
# Elastic Compliance Matrix: (Units=1/GPa)
#
#
# Indices 1 2 3 4 5 6 
#
# 1 0.007648 0.000248 -0.000450 0.000000 0.000000 0.000000
# 2 0.000248 0.017693 -0.008080 0.000000 0.000000 0.000000
# 3 -0.000450 -0.008080 0.017332 0.000000 0.000000 0.000000
# 4 0.000000 0.000000 0.000000 0.045240 0.000000 0.000000
# 5 0.000000 0.000000 0.000000 0.000000 0.030364 0.000000
# 6 0.000000 0.000000 0.000000 0.000000 0.000000 0.055349
#
#
# Mechanical properties :
#
#
# Convention : Reuss Voigt Hill
#
# Bulk Modulus (GPa) = 38.30161 38.75898 38.53030
# Shear Modulus (GPa) = 25.13908 30.60773 27.87341
#
# Velocity S-wave (km/s) = 3.57068 3.93996 3.75985
# Velocity P-wave (km/s) = 6.03531 6.35256 6.19597
#
# Compressibility (1/GPa) = 0.02610856
#
# Stress axis : x y z
#
# Youngs Moduli (GPa) = 130.74975 56.51871 57.69608
#
# Poissons Ratio (x) = -0.01400 0.02596
# Poissons Ratio (y) = -0.03239 0.46620
# Poissons Ratio (z) = 0.05884 0.45669
#
# Static dielectric constant tensor:
#      x y z
#    x 3.665420 0.000000 0.000000 
#    y 0.000000 3.659550 0.000000 
#    z 0.000000 0.000000 3.695240 
# 
# 
# High freq. dielectric constant tensor:
#      x y z
#    x 1.785680 0.000000 0.000000 
#    y 0.000000 1.760970 0.000000 
#    z 0.000000 0.000000 1.779000 
# 
# From -- ./inp_files/6453.got.cif
#   From: 2010.03.12/outbox.cif.g09.slc.cpg/sg62_4_cif.got.tgz:6453.got - 2010.04.10 19:12:36.
