data_PCOD8254651
_publ_section_title
;
Structure prediction by ZEFSAII (Michael W. Deem and Ramdas Pophale) SiO2 
 PCOD8254651
Probable space group: P N M A
;
_chemical_formula_sum "Si O2"
_cell_formula_units_Z 48
_cell_length_a 14.144635
_cell_length_b 19.796972
_cell_length_c 7.186646
_cell_angle_alpha 90.000000
_cell_angle_beta 90.000000
_cell_angle_gamma 90.000000
_cell_volume 2012.411390
_symmetry_space_group_name_H-M "P N M A"
_symmetry_group_IT_number 62
_symmetry_cell_setting 'orthorhombic'
loop_
_space_group_symop_operation_xyz
x,y,z
1/2-x,-y,1/2+z
1/2+x,1/2-y,1/2-z
-x,1/2+y,-z
-x,-y,-z
1/2+x,y,1/2-z
1/2-x,1/2+y,1/2+z
x,1/2-y,z
loop_
_atom_site_type_symbol
_atom_site_label
_atom_site_fract_x
_atom_site_fract_y
_atom_site_fract_z
Si Si1 0.659265 0.012814 0.327746
Si Si2 0.689311 0.174945 0.683327
Si Si3 0.356509 0.966750 0.248069
Si Si4 0.009322 0.323123 0.039946
Si Si5 0.502364 0.924904 0.854926
Si Si6 0.103598 0.631296 0.299469
O O1 0.771725 0.017970 0.301945
O O2 0.609743 0.058211 0.165455
O O3 0.628395 0.038447 0.530184
O O4 0.629097 0.936090 0.309084
O O5 0.677450 0.250000 0.777013
O O6 0.622166 0.170642 0.501280
O O7 0.799652 0.165705 0.625670
O O8 0.659243 0.111453 0.818257
O O9 0.447611 0.000457 0.151469
O O10 0.990970 0.250000 0.133511
O O11 0.952862 0.322669 0.844907
O O12 0.969311 0.380839 0.174877
O O13 0.530496 0.882188 0.033443
#
# Coordination Sequence:
#
# PCOD8254651 Si02
#       6
#     8   8   8   8   8   8
#     4  11  22  39  64  99 134 166 223 283 340 399
#     4  10  22  41  66  94 135 178 218 276 340 403
#     4  11  21  39  66 100 133 176 225 283 342 402
#     4  11  24  44  68  96 136 183 224 274 342 405
#     4  12  24  42  68 100 136 176 226 288 339 401
#     4  11  24  42  67  98 133 176 223 279 334 406
#
# _framework density 23.851983000000001
#
# number of rings (size 3 to 8) (size 9 to 14) (size 15 to 20)
#    0.000    1.000    3.333    4.500    0.000    4.000 
#    0.000    0.000    0.000    0.000    0.000    0.000 
#    0.000    0.000    0.000    0.000    0.000    0.000 
#
# Total GULP energy -594887.964515 kJ/mol
# GULP energy per Si atom -12393.499261 kJ/mol
# Density = 2.379769 g / cm^3
# Si number density = 23.851983 Si / 1000 Ang^3
#
#
#
# Elastic Constant Matrix: (Units=GPa)
#
#
# Indices 1 2 3 4 5 6 
#
# 1 119.4783 28.3993 20.4861 0.0000 0.0000 0.0000
# 2 28.3993 138.0195 21.8017 0.0000 0.0000 0.0000
# 3 20.4861 21.8017 58.1246 0.0000 0.0000 0.0000
# 4 0.0000 0.0000 0.0000 16.4701 0.0000 0.0000
# 5 0.0000 0.0000 0.0000 0.0000 30.8201 0.0000
# 6 0.0000 0.0000 0.0000 0.0000 0.0000 25.8128
#
#
#
# Elastic Compliance Matrix: (Units=1/GPa)
#
#
# Indices 1 2 3 4 5 6 
#
# 1 0.009178 -0.001464 -0.002686 0.000000 0.000000 0.000000
# 2 -0.001464 0.007935 -0.002460 0.000000 0.000000 0.000000
# 3 -0.002686 -0.002460 0.019074 0.000000 0.000000 0.000000
# 4 0.000000 0.000000 0.000000 0.060716 0.000000 0.000000
# 5 0.000000 0.000000 0.000000 0.000000 0.032446 0.000000
# 6 0.000000 0.000000 0.000000 0.000000 0.000000 0.038740
#
#
# Mechanical properties :
#
#
# Convention : Reuss Voigt Hill
#
# Bulk Modulus (GPa) = 43.54110 50.77741 47.15926
# Shear Modulus (GPa) = 26.45970 30.94960 28.70465
#
# Velocity S-wave (km/s) = 3.33427 3.60609 3.47284
# Velocity P-wave (km/s) = 5.75478 6.21878 5.99128
#
# Compressibility (1/GPa) = 0.02296680
#
# Stress axis : x y z
#
# Youngs Moduli (GPa) = 108.95297 126.01927 52.42788
#
# Poissons Ratio (x) = 0.18453 0.14080
# Poissons Ratio (y) = 0.15954 0.12899
# Poissons Ratio (z) = 0.29261 0.31005
#
# Static dielectric constant tensor:
#      x y z
#    x 4.638650 0.000000 0.000000 
#    y 0.000000 4.686840 0.000000 
#    z 0.000000 0.000000 3.952800 
# 
# 
# High freq. dielectric constant tensor:
#      x y z
#    x 1.958580 0.000000 0.000000 
#    y 0.000000 1.954160 0.000000 
#    z 0.000000 0.000000 1.914880 
# 
# From -- ./inp_files/6459.got.cif
#   From: 2010.03.12/outbox.cif.g09.slc.cpg/sg62_4_cif.got.tgz:6459.got - 2010.04.10 19:12:36.
