data_PCOD8254457
_publ_section_title
;
Structure prediction by ZEFSAII (Michael W. Deem and Ramdas Pophale) SiO2 
 PCOD8254457
Probable space group: P N M A
;
_chemical_formula_sum "Si O2"
_cell_formula_units_Z 40
_cell_length_a 9.748990
_cell_length_b 7.554065
_cell_length_c 28.951840
_cell_angle_alpha 90.000000
_cell_angle_beta 90.000000
_cell_angle_gamma 90.000000
_cell_volume 2132.143901
_symmetry_space_group_name_H-M "P N M A"
_symmetry_group_IT_number 62
_symmetry_cell_setting 'orthorhombic'
loop_
_space_group_symop_operation_xyz
x,y,z
1/2-x,-y,1/2+z
1/2+x,1/2-y,1/2-z
-x,1/2+y,-z
-x,-y,-z
1/2+x,y,1/2-z
1/2-x,1/2+y,1/2+z
x,1/2-y,z
loop_
_atom_site_type_symbol
_atom_site_label
_atom_site_fract_x
_atom_site_fract_y
_atom_site_fract_z
Si Si1 0.160598 0.545025 0.634058
Si Si2 0.663518 0.750000 0.203297
Si Si3 0.343556 0.458500 0.452375
Si Si4 0.147798 0.454458 0.053179
Si Si5 0.346909 0.750000 0.206989
Si Si6 0.844676 0.954227 0.630593
O O1 0.192609 0.750000 0.646186
O O2 0.252930 0.466600 0.592408
O O3 0.191533 0.427051 0.678833
O O4 0.003840 0.522095 0.618039
O O5 0.506793 0.750000 0.220128
O O6 0.761592 0.750000 0.246677
O O7 0.695913 0.573257 0.174224
O O8 0.353192 0.250000 0.450538
O O9 0.287112 0.515480 0.502545
O O10 0.495686 0.541943 0.444370
O O11 0.240266 0.526881 0.413247
O O12 0.135383 0.250000 0.064060
O O13 0.809269 0.750000 0.642333
#
# Coordination Sequence:
#
# PCOD8254457 Si02
#       6
#     8   4   8   8   4   8
#     4   9  19  36  54  74 104 137 170 212 257 305
#     4  10  22  38  56  80 104 132 174 218 263 312
#     4   9  18  31  48  74 105 137 173 211 253 302
#     4   9  18  31  48  74 105 137 173 211 253 302
#     4  10  22  38  56  80 104 132 174 218 263 312
#     4   9  19  36  54  74 104 137 170 212 257 305
#
# _framework density 18.760458
#
# number of rings (size 3 to 8) (size 9 to 14) (size 15 to 20)
#    0.000    2.800    0.000    0.000    2.800    3.200 
#    0.000    0.000    0.000    0.000    0.000    0.000 
#    0.000    0.000    0.000    0.000    0.000    0.000 
#
# Total GULP energy -495907.300195 kJ/mol
# GULP energy per Si atom -12397.682505 kJ/mol
# Density = 1.871776 g / cm^3
# Si number density = 18.760458 Si / 1000 Ang^3
#
#
#
# Elastic Constant Matrix: (Units=GPa)
#
#
# Indices 1 2 3 4 5 6 
#
# 1 65.1032 29.1721 54.3182 0.0000 0.0000 0.0000
# 2 29.1721 70.1386 39.1611 0.0000 0.0000 0.0000
# 3 54.3182 39.1611 103.3819 0.0000 0.0000 0.0000
# 4 0.0000 0.0000 0.0000 27.9560 0.0000 0.0000
# 5 0.0000 0.0000 0.0000 0.0000 41.3251 0.0000
# 6 0.0000 0.0000 0.0000 0.0000 0.0000 16.6286
#
#
#
# Elastic Compliance Matrix: (Units=1/GPa)
#
#
# Indices 1 2 3 4 5 6 
#
# 1 0.028387 -0.004412 -0.013243 0.000000 0.000000 0.000000
# 2 -0.004412 0.018768 -0.004791 0.000000 0.000000 0.000000
# 3 -0.013243 -0.004791 0.018446 0.000000 0.000000 0.000000
# 4 0.000000 0.000000 0.000000 0.035770 0.000000 0.000000
# 5 0.000000 0.000000 0.000000 0.000000 0.024198 0.000000
# 6 0.000000 0.000000 0.000000 0.000000 0.000000 0.060137
#
#
# Mechanical properties :
#
#
# Convention : Reuss Voigt Hill
#
# Bulk Modulus (GPa) = 48.29262 53.76961 51.03112
# Shear Modulus (GPa) = 21.05241 24.91342 22.98292
#
# Velocity S-wave (km/s) = 3.35351 3.64809 3.50390
# Velocity P-wave (km/s) = 6.38689 6.81675 6.60532
#
# Compressibility (1/GPa) = 0.02070710
#
# Stress axis : x y z
#
# Youngs Moduli (GPa) = 35.22750 53.28330 54.21244
#
# Poissons Ratio (x) = 0.23511 0.71796
# Poissons Ratio (y) = 0.15544 0.25972
# Poissons Ratio (z) = 0.46653 0.25527
#
# Static dielectric constant tensor:
#      x y z
#    x 3.698440 0.000000 0.000000 
#    y 0.000000 3.628040 0.000000 
#    z 0.000000 0.000000 3.323980 
# 
# 
# High freq. dielectric constant tensor:
#      x y z
#    x 1.724410 0.000000 0.000000 
#    y 0.000000 1.733450 0.000000 
#    z 0.000000 0.000000 1.717460 
# 
# From -- ./inp_files/22833.got.cif
#   From: 2010.03.12/outbox.cif.g09.slc.cpg/sg62_12_cif.got.tgz:22833.got - 2010.04.10 19:12:36.
