data_PCOD8254213
_publ_section_title
;
Structure prediction by ZEFSAII (Michael W. Deem and Ramdas Pophale) SiO2 
 PCOD8254213
Probable space group: P N M A
;
_chemical_formula_sum "Si O2"
_cell_formula_units_Z 40
_cell_length_a 7.709808
_cell_length_b 17.157432
_cell_length_c 15.413670
_cell_angle_alpha 90.000000
_cell_angle_beta 90.000000
_cell_angle_gamma 90.000000
_cell_volume 2038.928075
_symmetry_space_group_name_H-M "P N M A"
_symmetry_group_IT_number 62
_symmetry_cell_setting 'orthorhombic'
loop_
_space_group_symop_operation_xyz
x,y,z
1/2-x,-y,1/2+z
1/2+x,1/2-y,1/2-z
-x,1/2+y,-z
-x,-y,-z
1/2+x,y,1/2-z
1/2-x,1/2+y,1/2+z
x,1/2-y,z
loop_
_atom_site_type_symbol
_atom_site_label
_atom_site_fract_x
_atom_site_fract_y
_atom_site_fract_z
Si Si1 0.251003 0.478509 0.159442
Si Si2 0.559066 0.837539 0.053823
Si Si3 0.865963 0.014402 0.652680
Si Si4 0.216162 0.583539 0.997037
Si Si5 0.116737 0.337334 0.072557
O O1 0.219984 0.514097 0.253556
O O2 0.456114 0.465621 0.148000
O O3 0.151814 0.395711 0.152731
O O4 0.178750 0.535878 0.085028
O O5 0.536730 0.750000 0.090143
O O6 0.594144 0.895023 0.133929
O O7 0.385822 0.863020 0.003686
O O8 0.719083 0.842870 0.989364
O O9 0.736796 0.978058 0.581520
O O10 0.054234 0.639364 0.980305
O O11 0.093228 0.250000 0.109514
#
# Coordination Sequence:
#
# PCOD8254213 Si02
#       5
#     8   8   8   8   8
#     4  11  22  39  63  91 123 162 210 250 297 369
#     4  10  21  40  61  89 123 156 197 253 304 356
#     4  11  22  39  63  91 121 167 206 250 304 359
#     4  11  21  41  64  88 123 165 207 246 302 365
#     4  11  22  38  63  91 118 158 199 253 309 353
#
# _framework density 19.618151999999998
#
# number of rings (size 3 to 8) (size 9 to 14) (size 15 to 20)
#    0.000    1.200    4.000    3.600    2.800    0.000 
#    0.000   10.000    0.000    0.000    0.000    0.000 
#    0.000    0.000    0.000    0.000    0.000    0.000 
#
# Total GULP energy -496102.642449 kJ/mol
# GULP energy per Si atom -12402.566061 kJ/mol
# Density = 1.957350 g / cm^3
# Si number density = 19.618152 Si / 1000 Ang^3
#
#
#
# Elastic Constant Matrix: (Units=GPa)
#
#
# Indices 1 2 3 4 5 6 
#
# 1 76.0050 48.9756 5.6704 0.0000 0.0000 0.0000
# 2 48.9756 145.9737 49.3674 0.0000 0.0000 0.0000
# 3 5.6704 49.3674 105.4802 0.0000 0.0000 0.0000
# 4 0.0000 0.0000 0.0000 17.0306 0.0000 0.0000
# 5 0.0000 0.0000 0.0000 0.0000 27.6821 0.0000
# 6 0.0000 0.0000 0.0000 0.0000 0.0000 1.6777
#
#
#
# Elastic Compliance Matrix: (Units=1/GPa)
#
#
# Indices 1 2 3 4 5 6 
#
# 1 0.017171 -0.006474 0.002107 0.000000 0.000000 0.000000
# 2 -0.006474 0.010579 -0.004603 0.000000 0.000000 0.000000
# 3 0.002107 -0.004603 0.011522 0.000000 0.000000 0.000000
# 4 0.000000 0.000000 0.000000 0.058718 0.000000 0.000000
# 5 0.000000 0.000000 0.000000 0.000000 0.036124 0.000000
# 6 0.000000 0.000000 0.000000 0.000000 0.000000 0.596054
#
#
# Mechanical properties :
#
#
# Convention : Reuss Voigt Hill
#
# Bulk Modulus (GPa) = 46.87849 59.49842 53.18845
# Shear Modulus (GPa) = 6.62059 24.17445 15.39752
#
# Velocity S-wave (km/s) = 1.83904 3.51415 2.80458
# Velocity P-wave (km/s) = 5.33449 6.84542 6.13663
#
# Compressibility (1/GPa) = 0.02133175
#
# Stress axis : x y z
#
# Youngs Moduli (GPa) = 58.23683 94.52378 86.79271
#
# Poissons Ratio (x) = 0.61191 -0.18285
# Poissons Ratio (y) = 0.37700 0.39954
# Poissons Ratio (z) = -0.12269 0.43513
#
# Static dielectric constant tensor:
#      x y z
#    x 3.755980 0.000000 0.000000 
#    y 0.000000 3.831040 0.000000 
#    z 0.000000 0.000000 3.363050 
# 
# 
# High freq. dielectric constant tensor:
#      x y z
#    x 1.786160 0.000000 0.000000 
#    y 0.000000 1.764210 0.000000 
#    z 0.000000 0.000000 1.743720 
# 
# From -- ./inp_files/16662.got.cif
#   From: 2010.03.12/outbox.cif.g09.slc.cpg/sg62_9_cif.got.tgz:16662.got - 2010.04.10 19:12:36.
