data_PCOD8254730
_publ_section_title
;
Structure prediction by ZEFSAII (Michael W. Deem and Ramdas Pophale) SiO2 
 PCOD8254730
Probable space group: P N M A
;
_chemical_formula_sum "Si O2"
_cell_formula_units_Z 64
_cell_length_a 23.582663
_cell_length_b 8.876028
_cell_length_c 14.960375
_cell_angle_alpha 90.000000
_cell_angle_beta 90.000000
_cell_angle_gamma 90.000000
_cell_volume 3131.511337
_symmetry_space_group_name_H-M "P N M A"
_symmetry_group_IT_number 62
_symmetry_cell_setting 'orthorhombic'
loop_
_space_group_symop_operation_xyz
x,y,z
1/2-x,-y,1/2+z
1/2+x,1/2-y,1/2-z
-x,1/2+y,-z
-x,-y,-z
1/2+x,y,1/2-z
1/2-x,1/2+y,1/2+z
x,1/2-y,z
loop_
_atom_site_type_symbol
_atom_site_label
_atom_site_fract_x
_atom_site_fract_y
_atom_site_fract_z
Si Si1 0.253391 0.075616 0.725414
Si Si2 0.668952 0.427150 0.934806
Si Si3 0.136096 0.927657 0.995243
Si Si4 0.039024 0.427429 0.573889
Si Si5 0.368811 0.573391 0.677726
Si Si6 0.535285 0.075553 0.577202
Si Si7 0.969390 0.076254 0.743423
Si Si8 0.752376 0.574049 0.065544
O O1 0.271368 0.250000 0.713017
O O2 0.200946 0.036079 0.659373
O O3 0.239834 0.041910 0.829126
O O4 0.304838 0.967515 0.701306
O O5 0.672288 0.250000 0.954541
O O6 0.604114 0.484208 0.927160
O O7 0.694265 0.514112 0.021216
O O8 0.132969 0.750000 0.990481
O O9 0.097577 0.000101 0.917669
O O10 0.200091 0.982301 0.987155
O O11 0.111286 0.983226 0.089887
O O12 0.038150 0.250000 0.561487
O O13 0.000000 0.500000 0.500000
O O14 0.010582 0.478785 0.665773
O O15 0.373555 0.750000 0.660897
O O16 0.411588 0.521713 0.756441
O O17 0.542602 0.250000 0.555997
O O18 0.505355 0.044081 0.669348
O O19 0.500000 0.000000 0.500000
O O20 0.951697 0.250000 0.732838
O O21 0.758521 0.750000 0.045190
#
# Coordination Sequence:
#
# PCOD8254730 Si02
#       8
#     8   8   8   8   8   8   8   8
#     4  10  23  42  66  93 128 168 207 260 330 390
#     4  10  22  43  68  93 128 171 213 265 325 384
#     4  12  24  40  61  89 130 171 207 258 319 380
#     4  10  24  45  68  93 124 171 222 269 321 380
#     4  12  24  39  64  94 127 163 214 267 315 384
#     4  11  22  37  61  91 126 167 209 256 310 380
#     4  10  23  42  65  90 125 170 213 259 321 382
#     4  11  24  41  66  96 124 164 213 261 320 390
#
# _framework density 20.437415000000001
#
# number of rings (size 3 to 8) (size 9 to 14) (size 15 to 20)
#    0.000    1.250    2.500    3.000    3.500    2.500 
#    0.000    0.000    0.000    0.000    0.000    0.000 
#    0.000    0.000    0.000    0.000    0.000    0.000 
#
# Total GULP energy -793719.756472 kJ/mol
# GULP energy per Si atom -12401.871195 kJ/mol
# Density = 2.039090 g / cm^3
# Si number density = 20.437415 Si / 1000 Ang^3
#
#
#
# Elastic Constant Matrix: (Units=GPa)
#
#
# Indices 1 2 3 4 5 6 
#
# 1 156.9408 56.5684 57.6740 0.0000 0.0000 0.0000
# 2 56.5684 94.6913 58.4101 0.0000 0.0000 0.0000
# 3 57.6740 58.4101 115.0219 0.0000 0.0000 0.0000
# 4 0.0000 0.0000 0.0000 29.9077 0.0000 0.0000
# 5 0.0000 0.0000 0.0000 0.0000 31.6038 0.0000
# 6 0.0000 0.0000 0.0000 0.0000 0.0000 38.2454
#
#
#
# Elastic Compliance Matrix: (Units=1/GPa)
#
#
# Indices 1 2 3 4 5 6 
#
# 1 0.008578 -0.003599 -0.002474 0.000000 0.000000 0.000000
# 2 -0.003599 0.016887 -0.006771 0.000000 0.000000 0.000000
# 3 -0.002474 -0.006771 0.013373 0.000000 0.000000 0.000000
# 4 0.000000 0.000000 0.000000 0.033436 0.000000 0.000000
# 5 0.000000 0.000000 0.000000 0.000000 0.031642 0.000000
# 6 0.000000 0.000000 0.000000 0.000000 0.000000 0.026147
#
#
# Mechanical properties :
#
#
# Convention : Reuss Voigt Hill
#
# Bulk Modulus (GPa) = 76.03953 79.10657 77.57305
# Shear Modulus (GPa) = 31.22389 32.88481 32.05435
#
# Velocity S-wave (km/s) = 3.91292 4.01565 3.96462
# Velocity P-wave (km/s) = 7.59615 7.76475 7.68091
#
# Compressibility (1/GPa) = 0.01315105
#
# Stress axis : x y z
#
# Youngs Moduli (GPa) = 116.57758 59.21634 74.77786
#
# Poissons Ratio (x) = 0.21309 0.18498
# Poissons Ratio (y) = 0.41951 0.50634
# Poissons Ratio (z) = 0.28838 0.40097
#
# Static dielectric constant tensor:
#      x y z
#    x 3.934920 0.000000 0.000000 
#    y 0.000000 3.668230 0.000000 
#    z 0.000000 0.000000 3.291290 
# 
# 
# High freq. dielectric constant tensor:
#      x y z
#    x 1.812920 0.000000 0.000000 
#    y 0.000000 1.795580 0.000000 
#    z 0.000000 0.000000 1.800560 
# 
# From -- ./inp_files/20789.got.cif
#   From: 2010.03.12/outbox.cif.g09.slc.cpg/sg62_11_cif.got.tgz:20789.got - 2010.04.10 19:12:36.
