data_PCOD8254369
_publ_section_title
;
Structure prediction by ZEFSAII (Michael W. Deem and Ramdas Pophale) SiO2 
 PCOD8254369
Probable space group: P N M A
;
_chemical_formula_sum "Si O2"
_cell_formula_units_Z 40
_cell_length_a 8.966332
_cell_length_b 20.220262
_cell_length_c 9.399376
_cell_angle_alpha 90.000000
_cell_angle_beta 90.000000
_cell_angle_gamma 90.000000
_cell_volume 1704.121741
_symmetry_space_group_name_H-M "P N M A"
_symmetry_group_IT_number 62
_symmetry_cell_setting 'orthorhombic'
loop_
_space_group_symop_operation_xyz
x,y,z
1/2-x,-y,1/2+z
1/2+x,1/2-y,1/2-z
-x,1/2+y,-z
-x,-y,-z
1/2+x,y,1/2-z
1/2-x,1/2+y,1/2+z
x,1/2-y,z
loop_
_atom_site_type_symbol
_atom_site_label
_atom_site_fract_x
_atom_site_fract_y
_atom_site_fract_z
Si Si1 0.258619 0.086475 0.813467
Si Si2 0.517678 0.674818 0.310521
Si Si3 0.686677 0.676118 0.599792
Si Si4 0.210483 0.978534 0.599378
Si Si5 0.446486 0.900796 0.775993
O O1 0.407528 0.131382 0.814850
O O2 0.130899 0.137672 0.858585
O O3 0.232374 0.052801 0.658784
O O4 0.273136 0.026204 0.927675
O O5 0.481206 0.750000 0.260658
O O6 0.636776 0.675480 0.436960
O O7 0.722010 0.750000 0.650872
O O8 0.839467 0.634948 0.610693
O O9 0.555738 0.650508 0.700767
O O10 0.344471 0.933818 0.656711
O O11 0.045354 0.954979 0.642147
#
# Coordination Sequence:
#
# PCOD8254369 Si02
#       5
#     8   8   8   8   8
#     4  12  27  47  72 105 139 184 237 287 350 418
#     4  11  26  47  71  99 140 184 234 289 344 414
#     4  10  21  41  68  98 137 185 229 284 343 412
#     4  11  26  43  73 101 140 182 227 290 349 414
#     4  10  22  42  66 102 141 175 232 282 353 412
#
# _framework density 23.472501000000001
#
# number of rings (size 3 to 8) (size 9 to 14) (size 15 to 20)
#    0.000    1.200    2.000    2.400    8.400    3.200 
#    0.000    2.000    0.000    0.000    0.000    0.000 
#    0.000    0.000    0.000    0.000    0.000    0.000 
#
# Total GULP energy -496075.478680 kJ/mol
# GULP energy per Si atom -12401.886967 kJ/mol
# Density = 2.341908 g / cm^3
# Si number density = 23.472501 Si / 1000 Ang^3
#
#
#
# Elastic Constant Matrix: (Units=GPa)
#
#
# Indices 1 2 3 4 5 6 
#
# 1 116.0954 24.9753 13.1578 0.0000 0.0000 0.0000
# 2 24.9753 125.9411 28.9588 0.0000 0.0000 0.0000
# 3 13.1578 28.9588 75.4195 0.0000 0.0000 0.0000
# 4 0.0000 0.0000 0.0000 34.8753 0.0000 0.0000
# 5 0.0000 0.0000 0.0000 0.0000 26.4569 0.0000
# 6 0.0000 0.0000 0.0000 0.0000 0.0000 33.6586
#
#
#
# Elastic Compliance Matrix: (Units=1/GPa)
#
#
# Indices 1 2 3 4 5 6 
#
# 1 0.009063 -0.001572 -0.000977 0.000000 0.000000 0.000000
# 2 -0.001572 0.008982 -0.003174 0.000000 0.000000 0.000000
# 3 -0.000977 -0.003174 0.014649 0.000000 0.000000 0.000000
# 4 0.000000 0.000000 0.000000 0.028674 0.000000 0.000000
# 5 0.000000 0.000000 0.000000 0.000000 0.037797 0.000000
# 6 0.000000 0.000000 0.000000 0.000000 0.000000 0.029710
#
#
# Mechanical properties :
#
#
# Convention : Reuss Voigt Hill
#
# Bulk Modulus (GPa) = 47.07059 50.18223 48.62641
# Shear Modulus (GPa) = 33.92028 35.68908 34.80468
#
# Velocity S-wave (km/s) = 3.80558 3.90354 3.85487
# Velocity P-wave (km/s) = 6.27750 6.46084 6.36983
#
# Compressibility (1/GPa) = 0.02124469
#
# Stress axis : x y z
#
# Youngs Moduli (GPa) = 110.34294 111.33383 68.26606
#
# Poissons Ratio (x) = 0.17507 0.06672
# Poissons Ratio (y) = 0.17351 0.21671
# Poissons Ratio (z) = 0.10784 0.35343
#
# Static dielectric constant tensor:
#      x y z
#    x 4.297910 0.000000 0.000000 
#    y 0.000000 4.318520 0.000000 
#    z 0.000000 0.000000 3.990020 
# 
# 
# High freq. dielectric constant tensor:
#      x y z
#    x 1.946760 0.000000 0.000000 
#    y 0.000000 1.937930 0.000000 
#    z 0.000000 0.000000 1.914580 
# 
# From -- ./inp_files/4276.got.cif
#   From: 2010.03.12/outbox.cif.g09.slc.cpg/sg62_3_cif.got.tgz:4276.got - 2010.04.10 19:12:36.
