data_PCOD8254289
_publ_section_title
;
Structure prediction by ZEFSAII (Michael W. Deem and Ramdas Pophale) SiO2 
 PCOD8254289
Probable space group: P N M A
;
_chemical_formula_sum "Si O2"
_cell_formula_units_Z 56
_cell_length_a 14.447389
_cell_length_b 8.820797
_cell_length_c 21.691931
_cell_angle_alpha 90.000000
_cell_angle_beta 90.000000
_cell_angle_gamma 90.000000
_cell_volume 2764.365143
_symmetry_space_group_name_H-M "P N M A"
_symmetry_group_IT_number 62
_symmetry_cell_setting 'orthorhombic'
loop_
_space_group_symop_operation_xyz
x,y,z
1/2-x,-y,1/2+z
1/2+x,1/2-y,1/2-z
-x,1/2+y,-z
-x,-y,-z
1/2+x,y,1/2-z
1/2-x,1/2+y,1/2+z
x,1/2-y,z
loop_
_atom_site_type_symbol
_atom_site_label
_atom_site_fract_x
_atom_site_fract_y
_atom_site_fract_z
Si Si1 0.974581 0.573810 0.174689
Si Si2 0.627355 0.428778 0.250022
Si Si3 0.680635 0.072960 0.775774
Si Si4 0.717541 0.426763 0.025473
Si Si5 0.909325 0.072110 0.622326
Si Si6 0.571408 0.573557 0.546619
Si Si7 0.888044 0.572004 0.406815
O O1 0.991551 0.750000 0.162500
O O2 0.903146 0.543502 0.229434
O O3 0.934852 0.500362 0.113281
O O4 0.072580 0.499050 0.192082
O O5 0.618460 0.250000 0.252296
O O6 0.733611 0.476563 0.252262
O O7 0.583045 0.489635 0.187349
O O8 0.707211 0.250000 0.777582
O O9 0.651497 0.007924 0.842562
O O10 0.694175 0.250000 0.034187
O O11 0.678858 0.515266 0.084452
O O12 0.826422 0.455412 0.019791
O O13 0.669012 0.495747 0.964321
O O14 0.899674 0.250000 0.635151
O O15 0.003510 0.032342 0.585424
O O16 0.500000 0.500000 0.500000
O O17 0.549279 0.750000 0.552449
O O18 0.873171 0.750000 0.405167
#
# Coordination Sequence:
#
# PCOD8254289 Si02
#       7
#     8   8   8   8   8   8   8
#     4  11  23  43  68  92 123 167 212 260 315 373
#     4  12  25  39  61  94 129 163 204 260 318 377
#     4  10  21  40  66  93 125 167 213 259 311 377
#     4  10  22  40  63  92 126 166 206 258 319 370
#     4  11  21  39  64  93 126 166 211 254 308 378
#     4  11  25  43  64  92 127 167 214 264 318 378
#     4   9  19  38  63  92 125 161 206 255 308 370
#
# _framework density 20.257815000000001
#
# number of rings (size 3 to 8) (size 9 to 14) (size 15 to 20)
#    0.000    1.429    1.429    3.857    2.000    4.571 
#    0.000    1.429    0.000    0.000    0.000    0.000 
#    0.000    0.000    0.000    0.000    0.000    0.000 
#
# Total GULP energy -694690.108599 kJ/mol
# GULP energy per Si atom -12405.180511 kJ/mol
# Density = 2.021171 g / cm^3
# Si number density = 20.257815 Si / 1000 Ang^3
#
#
#
# Elastic Constant Matrix: (Units=GPa)
#
#
# Indices 1 2 3 4 5 6 
#
# 1 98.2474 52.0334 27.2125 0.0000 0.0000 0.0000
# 2 52.0334 109.1710 39.2144 0.0000 0.0000 0.0000
# 3 27.2125 39.2144 98.8594 0.0000 0.0000 0.0000
# 4 0.0000 0.0000 0.0000 32.2975 0.0000 0.0000
# 5 0.0000 0.0000 0.0000 0.0000 39.0322 0.0000
# 6 0.0000 0.0000 0.0000 0.0000 0.0000 26.1426
#
#
#
# Elastic Compliance Matrix: (Units=1/GPa)
#
#
# Indices 1 2 3 4 5 6 
#
# 1 0.013776 -0.006068 -0.001385 0.000000 0.000000 0.000000
# 2 -0.006068 0.013355 -0.003627 0.000000 0.000000 0.000000
# 3 -0.001385 -0.003627 0.011935 0.000000 0.000000 0.000000
# 4 0.000000 0.000000 0.000000 0.030962 0.000000 0.000000
# 5 0.000000 0.000000 0.000000 0.000000 0.025620 0.000000
# 6 0.000000 0.000000 0.000000 0.000000 0.000000 0.038252
#
#
# Mechanical properties :
#
#
# Convention : Reuss Voigt Hill
#
# Bulk Modulus (GPa) = 59.15228 60.35537 59.75382
# Shear Modulus (GPa) = 30.92218 32.01565 31.46891
#
# Velocity S-wave (km/s) = 3.91120 3.97975 3.94562
# Velocity P-wave (km/s) = 7.04697 7.13976 7.09351
#
# Compressibility (1/GPa) = 0.01690552
#
# Stress axis : x y z
#
# Youngs Moduli (GPa) = 72.59040 74.87725 83.78471
#
# Poissons Ratio (x) = 0.45439 0.11603
# Poissons Ratio (y) = 0.44051 0.30390
# Poissons Ratio (z) = 0.10053 0.27159
#
# Static dielectric constant tensor:
#      x y z
#    x 3.736910 0.000000 0.000000 
#    y 0.000000 3.579410 0.000000 
#    z 0.000000 0.000000 3.872760 
# 
# 
# High freq. dielectric constant tensor:
#      x y z
#    x 1.804090 0.000000 0.000000 
#    y 0.000000 1.779730 0.000000 
#    z 0.000000 0.000000 1.801770 
# 
# From -- ./inp_files/27207.got.cif
#   From: 2010.03.12/outbox.cif.g09.slc.cpg/sg62_14_cif.got.tgz:27207.got - 2010.04.10 19:12:36.
