data_PCOD8254867
_publ_section_title
;
Structure prediction by ZEFSAII (Michael W. Deem and Ramdas Pophale) SiO2 
 PCOD8254867
Probable space group: P N M A
;
_chemical_formula_sum "Si O2"
_cell_formula_units_Z 48
_cell_length_a 14.683192
_cell_length_b 17.753445
_cell_length_c 8.973102
_cell_angle_alpha 90.000000
_cell_angle_beta 90.000000
_cell_angle_gamma 90.000000
_cell_volume 2339.083478
_symmetry_space_group_name_H-M "P N M A"
_symmetry_group_IT_number 62
_symmetry_cell_setting 'orthorhombic'
loop_
_space_group_symop_operation_xyz
x,y,z
1/2-x,-y,1/2+z
1/2+x,1/2-y,1/2-z
-x,1/2+y,-z
-x,-y,-z
1/2+x,y,1/2-z
1/2-x,1/2+y,1/2+z
x,1/2-y,z
loop_
_atom_site_type_symbol
_atom_site_label
_atom_site_fract_x
_atom_site_fract_y
_atom_site_fract_z
Si Si1 0.245221 0.057044 0.589537
Si Si2 0.737934 0.910651 0.073973
Si Si3 0.108210 0.337467 0.437029
Si Si4 0.047012 0.577387 0.051413
Si Si5 0.055980 0.836921 0.352496
Si Si6 0.401293 0.661824 0.603826
O O1 0.239804 0.054000 0.766507
O O2 0.186531 0.126767 0.535405
O O3 0.346088 0.069264 0.523539
O O4 0.204234 0.978596 0.530924
O O5 0.658304 0.849015 0.087380
O O6 0.828473 0.873975 0.007537
O O7 0.130365 0.250000 0.432267
O O8 0.110500 0.371504 0.270214
O O9 0.010384 0.353359 0.509818
O O10 0.031128 0.603193 0.222933
O O11 0.000000 0.500000 0.000000
O O12 0.003403 0.642474 0.949332
O O13 0.046917 0.750000 0.296721
O O14 0.387662 0.750000 0.603510
#
# Coordination Sequence:
#
# PCOD8254867 Si02
#       6
#     8   8   8   8   8   8
#     4  11  24  39  64  92 130 166 209 269 321 384
#     4  11  23  41  65  96 129 170 217 267 326 386
#     4  10  24  42  63  95 129 168 217 265 318 386
#     4  11  23  41  63  95 129 163 214 264 318 387
#     4  10  23  44  67  95 128 169 219 267 323 388
#     4  11  23  42  66  91 128 171 213 265 322 382
#
# _framework density 20.520859000000002
#
# number of rings (size 3 to 8) (size 9 to 14) (size 15 to 20)
#    0.000    1.333    1.667    3.000    2.333    8.667 
#    0.000    3.333    0.000    0.000    0.000    0.000 
#    0.000    0.000    0.000    0.000    0.000    0.000 
#
# Total GULP energy -595279.623072 kJ/mol
# GULP energy per Si atom -12401.658814 kJ/mol
# Density = 2.047415 g / cm^3
# Si number density = 20.520859 Si / 1000 Ang^3
#
#
#
# Elastic Constant Matrix: (Units=GPa)
#
#
# Indices 1 2 3 4 5 6 
#
# 1 79.7528 42.3846 47.0120 0.0000 0.0000 0.0000
# 2 42.3846 77.8146 57.7737 0.0000 0.0000 0.0000
# 3 47.0120 57.7737 118.0784 0.0000 0.0000 0.0000
# 4 0.0000 0.0000 0.0000 38.9212 0.0000 0.0000
# 5 0.0000 0.0000 0.0000 0.0000 31.7582 0.0000
# 6 0.0000 0.0000 0.0000 0.0000 0.0000 39.4495
#
#
#
# Elastic Compliance Matrix: (Units=1/GPa)
#
#
# Indices 1 2 3 4 5 6 
#
# 1 0.018708 -0.007318 -0.003868 0.000000 0.000000 0.000000
# 2 -0.007318 0.023046 -0.008362 0.000000 0.000000 0.000000
# 3 -0.003868 -0.008362 0.014100 0.000000 0.000000 0.000000
# 4 0.000000 0.000000 0.000000 0.025693 0.000000 0.000000
# 5 0.000000 0.000000 0.000000 0.000000 0.031488 0.000000
# 6 0.000000 0.000000 0.000000 0.000000 0.000000 0.025349
#
#
# Mechanical properties :
#
#
# Convention : Reuss Voigt Hill
#
# Bulk Modulus (GPa) = 59.67436 63.33183 61.50309
# Shear Modulus (GPa) = 27.31251 30.59079 28.95165
#
# Velocity S-wave (km/s) = 3.65219 3.86517 3.76019
# Velocity P-wave (km/s) = 6.85038 7.13082 6.99200
#
# Compressibility (1/GPa) = 0.01675761
#
# Stress axis : x y z
#
# Youngs Moduli (GPa) = 53.45299 43.39179 70.92055
#
# Poissons Ratio (x) = 0.31756 0.27430
# Poissons Ratio (y) = 0.39119 0.59305
# Poissons Ratio (z) = 0.20674 0.36285
#
# Static dielectric constant tensor:
#      x y z
#    x 3.837840 0.000000 0.000000 
#    y 0.000000 3.818120 0.000000 
#    z 0.000000 0.000000 4.060620 
# 
# 
# High freq. dielectric constant tensor:
#      x y z
#    x 1.806840 0.000000 0.000000 
#    y 0.000000 1.809590 0.000000 
#    z 0.000000 0.000000 1.812740 
# 
# From -- ./inp_files/6481.got.cif
#   From: 2010.03.12/outbox.cif.g09.slc.cpg/sg62_4_cif.got.tgz:6481.got - 2010.04.10 19:12:36.
