data_PCOD8254619
_publ_section_title
;
Structure prediction by ZEFSAII (Michael W. Deem and Ramdas Pophale) SiO2 
 PCOD8254619
Probable space group: P N M A
;
_chemical_formula_sum "Si O2"
_cell_formula_units_Z 56
_cell_length_a 19.765084
_cell_length_b 8.819456
_cell_length_c 15.990837
_cell_angle_alpha 90.000000
_cell_angle_beta 90.000000
_cell_angle_gamma 90.000000
_cell_volume 2787.479349
_symmetry_space_group_name_H-M "P N M A"
_symmetry_group_IT_number 62
_symmetry_cell_setting 'orthorhombic'
loop_
_space_group_symop_operation_xyz
x,y,z
1/2-x,-y,1/2+z
1/2+x,1/2-y,1/2-z
-x,1/2+y,-z
-x,-y,-z
1/2+x,y,1/2-z
1/2-x,1/2+y,1/2+z
x,1/2-y,z
loop_
_atom_site_type_symbol
_atom_site_label
_atom_site_fract_x
_atom_site_fract_y
_atom_site_fract_z
Si Si1 0.399094 0.927583 0.673962
Si Si2 0.823986 0.073958 0.974349
Si Si3 0.305176 0.925988 0.826501
Si Si4 0.316960 0.428797 0.001687
Si Si5 0.051251 0.426358 0.564450
Si Si6 0.972002 0.924225 0.245027
Si Si7 0.848817 0.077063 0.164365
O O1 0.393578 0.750000 0.656437
O O2 0.349452 0.979123 0.748275
O O3 0.379400 0.016863 0.590749
O O4 0.475441 0.969283 0.697009
O O5 0.808016 0.250000 0.961124
O O6 0.854466 0.044001 0.065797
O O7 0.754272 0.984264 0.961713
O O8 0.316575 0.750000 0.848914
O O9 0.227128 0.956768 0.804415
O O10 0.328540 0.022234 0.906047
O O11 0.320235 0.250000 0.008059
O O12 0.375531 0.497250 0.059138
O O13 0.058421 0.250000 0.543756
O O14 0.021972 0.454625 0.656551
O O15 0.000000 0.500000 0.500000
O O16 0.987514 0.750000 0.223821
O O17 0.897075 0.963820 0.213771
O O18 0.869146 0.250000 0.184433
#
# Coordination Sequence:
#
# PCOD8254619 Si02
#       7
#     8   8   8   8   8   8   8
#     4  11  23  39  62  91 121 159 203 250 305 367
#     4  10  22  41  63  89 121 157 200 254 306 358
#     4   9  20  39  62  89 122 157 199 252 305 360
#     4  11  22  37  61  91 121 159 203 247 301 365
#     4  11  24  41  61  89 124 163 204 251 307 365
#     4  11  25  41  59  88 122 160 204 250 304 364
#     4   9  20  40  63  87 118 157 199 250 307 360
#
# _framework density 20.089835999999998
#
# number of rings (size 3 to 8) (size 9 to 14) (size 15 to 20)
#    0.000    1.714    0.000    4.714    2.000    9.143 
#    0.000    0.000    0.000    0.000    0.000    0.000 
#    0.000    0.000    0.000    0.000    0.000    0.000 
#
# Total GULP energy -694785.301290 kJ/mol
# GULP energy per Si atom -12406.880380 kJ/mol
# Density = 2.004411 g / cm^3
# Si number density = 20.089836 Si / 1000 Ang^3
#
#
#
# Elastic Constant Matrix: (Units=GPa)
#
#
# Indices 1 2 3 4 5 6 
#
# 1 82.4546 30.7452 25.8013 0.0000 0.0000 0.0000
# 2 30.7452 102.4428 37.9492 0.0000 0.0000 0.0000
# 3 25.8013 37.9492 50.1734 0.0000 0.0000 0.0000
# 4 0.0000 0.0000 0.0000 32.2560 0.0000 0.0000
# 5 0.0000 0.0000 0.0000 0.0000 34.2410 0.0000
# 6 0.0000 0.0000 0.0000 0.0000 0.0000 37.2547
#
#
#
# Elastic Compliance Matrix: (Units=1/GPa)
#
#
# Indices 1 2 3 4 5 6 
#
# 1 0.014820 -0.002257 -0.005914 0.000000 0.000000 0.000000
# 2 -0.002257 0.013905 -0.009357 0.000000 0.000000 0.000000
# 3 -0.005914 -0.009357 0.030049 0.000000 0.000000 0.000000
# 4 0.000000 0.000000 0.000000 0.031002 0.000000 0.000000
# 5 0.000000 0.000000 0.000000 0.000000 0.029205 0.000000
# 6 0.000000 0.000000 0.000000 0.000000 0.000000 0.026842
#
#
# Mechanical properties :
#
#
# Convention : Reuss Voigt Hill
#
# Bulk Modulus (GPa) = 42.16029 47.11800 44.63915
# Shear Modulus (GPa) = 26.48525 30.12203 28.30364
#
# Velocity S-wave (km/s) = 3.63484 3.87637 3.75754
# Velocity P-wave (km/s) = 6.21671 6.59845 6.41042
#
# Compressibility (1/GPa) = 0.02371900
#
# Stress axis : x y z
#
# Youngs Moduli (GPa) = 67.47625 71.91670 33.27898
#
# Poissons Ratio (x) = 0.16232 0.19681
# Poissons Ratio (y) = 0.15229 0.31138
# Poissons Ratio (z) = 0.39905 0.67289
#
# Static dielectric constant tensor:
#      x y z
#    x 3.592730 0.000000 0.000000 
#    y 0.000000 3.643840 0.000000 
#    z 0.000000 0.000000 3.629620 
# 
# 
# High freq. dielectric constant tensor:
#      x y z
#    x 1.790630 0.000000 0.000000 
#    y 0.000000 1.790690 0.000000 
#    z 0.000000 0.000000 1.786130 
# 
# From -- ./inp_files/20415.got.cif
#   From: 2010.03.12/outbox.cif.g09.slc.cpg/sg62_11_cif.got.tgz:20415.got - 2010.04.10 19:12:36.
