data_PCOD8254713
_publ_section_title
;
Structure prediction by ZEFSAII (Michael W. Deem and Ramdas Pophale) SiO2 
 PCOD8254713
Probable space group: P N M A
;
_chemical_formula_sum "Si O2"
_cell_formula_units_Z 40
_cell_length_a 9.020485
_cell_length_b 12.910482
_cell_length_c 15.783418
_cell_angle_alpha 90.000000
_cell_angle_beta 90.000000
_cell_angle_gamma 90.000000
_cell_volume 1838.118066
_symmetry_space_group_name_H-M "P N M A"
_symmetry_group_IT_number 62
_symmetry_cell_setting 'orthorhombic'
loop_
_space_group_symop_operation_xyz
x,y,z
1/2-x,-y,1/2+z
1/2+x,1/2-y,1/2-z
-x,1/2+y,-z
-x,-y,-z
1/2+x,y,1/2-z
1/2-x,1/2+y,1/2+z
x,1/2-y,z
loop_
_atom_site_type_symbol
_atom_site_label
_atom_site_fract_x
_atom_site_fract_y
_atom_site_fract_z
Si Si1 0.277294 0.859792 0.137251
Si Si2 0.368355 0.250000 0.136777
Si Si3 0.208868 0.250000 0.317201
Si Si4 0.029894 0.931608 0.246976
Si Si5 0.339677 0.043263 0.024153
Si Si6 0.273672 0.028167 0.355858
O O1 0.285169 0.750000 0.087098
O O2 0.135561 0.851841 0.198455
O O3 0.430376 0.867023 0.188538
O O4 0.254068 0.958309 0.078979
O O5 0.255517 0.250000 0.216797
O O6 0.531040 0.250000 0.176418
O O7 0.343638 0.150579 0.075412
O O8 0.274923 0.152061 0.369382
O O9 0.133159 0.013632 0.294690
O O10 0.928739 0.998108 0.184630
O O11 0.500000 0.000000 0.000000
O O12 0.244966 0.046217 0.937831
#
# Coordination Sequence:
#
# PCOD8254713 Si02
#       6
#     8   4   4   8   8   8
#     4  11  23  41  68  96 133 173 226 276 344 407
#     4  12  26  46  72 102 142 184 236 282 352 410
#     4  12  22  40  72 102 130 186 234 282 334 424
#     4  10  22  43  64  95 133 177 224 279 333 420
#     4  12  25  42  67 102 138 179 225 288 344 407
#     4  11  23  42  69  99 137 175 232 283 344 408
#
# _framework density 21.761388
#
# number of rings (size 3 to 8) (size 9 to 14) (size 15 to 20)
#    0.000    0.800    4.000    4.200    2.800    0.800 
#    9.000    0.000    0.000    0.000    0.000    0.000 
#    0.000    0.000    0.000    0.000    0.000    0.000 
#
# Total GULP energy -495779.573477 kJ/mol
# GULP energy per Si atom -12394.489337 kJ/mol
# Density = 2.171186 g / cm^3
# Si number density = 21.761388 Si / 1000 Ang^3
#
#
#
# Elastic Constant Matrix: (Units=GPa)
#
#
# Indices 1 2 3 4 5 6 
#
# 1 95.1962 24.8606 24.8104 0.0000 0.0000 0.0000
# 2 24.8606 160.1341 36.2048 0.0000 0.0000 0.0000
# 3 24.8104 36.2048 94.7155 0.0000 0.0000 0.0000
# 4 0.0000 0.0000 0.0000 35.0788 0.0000 0.0000
# 5 0.0000 0.0000 0.0000 0.0000 65.8270 0.0000
# 6 0.0000 0.0000 0.0000 0.0000 0.0000 -22.7870
#
#
#
# Elastic Compliance Matrix: (Units=1/GPa)
#
#
# Indices 1 2 3 4 5 6 
#
# 1 0.011484 -0.001207 -0.002547 0.000000 0.000000 0.000000
# 2 -0.001207 0.006962 -0.002345 0.000000 0.000000 0.000000
# 3 -0.002547 -0.002345 0.012121 0.000000 0.000000 0.000000
# 4 0.000000 0.000000 0.000000 0.028507 0.000000 0.000000
# 5 0.000000 0.000000 0.000000 0.000000 0.015191 0.000000
# 6 0.000000 0.000000 0.000000 0.000000 0.000000 -0.043885
#
#
# Mechanical properties :
#
#
# Convention : Reuss Voigt Hill
#
# Bulk Modulus (GPa) = 54.43772 57.97748 56.20760
# Shear Modulus (GPa) = 102.66457 33.23509 67.94983
#
# Velocity S-wave (km/s) = 6.87603 3.91225 5.59399
# Velocity P-wave (km/s) = 9.38668 6.86351 8.22246
#
# Compressibility (1/GPa) = 0.01836962
#
# Stress axis : x y z
#
# Youngs Moduli (GPa) = 87.08094 143.62908 82.49823
#
# Poissons Ratio (x) = 0.17336 0.21010
# Poissons Ratio (y) = 0.10511 0.19347
# Poissons Ratio (z) = 0.22177 0.33684
#
# Static dielectric constant tensor:
#      x y z
#    x 4.012900 0.000000 0.000000 
#    y 0.000000 4.000710 0.000000 
#    z 0.000000 0.000000 4.172560 
# 
# 
# High freq. dielectric constant tensor:
#      x y z
#    x 1.858470 0.000000 0.000000 
#    y 0.000000 1.864560 0.000000 
#    z 0.000000 0.000000 1.850230 
# 
# From -- ./inp_files/21936.got.cif
#   From: 2010.03.12/outbox.cif.g09.slc.cpg/sg62_11_cif.got.tgz:21936.got - 2010.04.10 19:12:36.
