data_PCOD8254595
_publ_section_title
;
Structure prediction by ZEFSAII (Michael W. Deem and Ramdas Pophale) SiO2 
 PCOD8254595
Probable space group: P N M A
;
_chemical_formula_sum "Si O2"
_cell_formula_units_Z 56
_cell_length_a 8.982090
_cell_length_b 12.993461
_cell_length_c 22.868140
_cell_angle_alpha 90.000000
_cell_angle_beta 90.000000
_cell_angle_gamma 90.000000
_cell_volume 2668.904856
_symmetry_space_group_name_H-M "P N M A"
_symmetry_group_IT_number 62
_symmetry_cell_setting 'orthorhombic'
loop_
_space_group_symop_operation_xyz
x,y,z
1/2-x,-y,1/2+z
1/2+x,1/2-y,1/2-z
-x,1/2+y,-z
-x,-y,-z
1/2+x,y,1/2-z
1/2-x,1/2+y,1/2+z
x,1/2-y,z
loop_
_atom_site_type_symbol
_atom_site_label
_atom_site_fract_x
_atom_site_fract_y
_atom_site_fract_z
Si Si1 0.934781 0.494958 0.756730
Si Si2 0.335372 0.864934 0.203838
Si Si3 0.565180 0.628128 0.975240
Si Si4 0.444431 0.366700 0.357070
Si Si5 0.339419 0.634576 0.072069
Si Si6 0.606390 0.368836 0.141529
Si Si7 0.126770 0.467576 0.044011
O O1 0.782118 0.456512 0.785331
O O2 0.027908 0.563466 0.801189
O O3 0.917195 0.560377 0.697736
O O4 0.024671 0.390221 0.744572
O O5 0.275195 0.750000 0.218692
O O6 0.398966 0.868053 0.137979
O O7 0.563443 0.750000 0.982240
O O8 0.503395 0.596239 0.911001
O O9 0.733343 0.589958 0.985677
O O10 0.459227 0.582660 0.027350
O O11 0.472663 0.250000 0.337436
O O12 0.276308 0.382152 0.380423
O O13 0.559472 0.392421 0.407914
O O14 0.303514 0.750000 0.051131
O O15 0.184296 0.573561 0.072088
O O16 0.575079 0.250000 0.158689
O O17 0.000000 0.500000 0.000000
#
# Coordination Sequence:
#
# PCOD8254595 Si02
#       7
#     8   8   8   8   8   8   8
#     4  12  22  43  64  93 133 169 219 267 334 387
#     4  11  24  42  67  92 126 173 223 270 320 384
#     4  10  22  42  67  96 129 167 216 269 324 394
#     4  11  24  42  63  96 133 170 217 272 331 398
#     4  10  22  42  64  90 126 172 219 267 320 384
#     4  10  22  40  67  98 132 175 215 263 329 400
#     4  12  24  39  64  96 131 173 211 269 332 385
#
# _framework density 20.982389000000001
#
# number of rings (size 3 to 8) (size 9 to 14) (size 15 to 20)
#    0.000    1.143    2.857    3.429    0.000    3.429 
#    0.000    0.000    0.000    0.000    0.000    0.000 
#    0.000    0.000    0.000    0.000    0.000    0.000 
#
# Total GULP energy -694444.375172 kJ/mol
# GULP energy per Si atom -12400.792414 kJ/mol
# Density = 2.093463 g / cm^3
# Si number density = 20.982389 Si / 1000 Ang^3
#
#
#
# Elastic Constant Matrix: (Units=GPa)
#
#
# Indices 1 2 3 4 5 6 
#
# 1 108.7885 33.3918 46.7267 0.0000 0.0000 0.0000
# 2 33.3918 83.2601 46.3458 0.0000 0.0000 0.0000
# 3 46.7267 46.3458 106.7232 0.0000 0.0000 0.0000
# 4 0.0000 0.0000 0.0000 38.7207 0.0000 0.0000
# 5 0.0000 0.0000 0.0000 0.0000 39.0467 0.0000
# 6 0.0000 0.0000 0.0000 0.0000 0.0000 39.7529
#
#
#
# Elastic Compliance Matrix: (Units=1/GPa)
#
#
# Indices 1 2 3 4 5 6 
#
# 1 0.011681 -0.002424 -0.004062 0.000000 0.000000 0.000000
# 2 -0.002424 0.016342 -0.006036 0.000000 0.000000 0.000000
# 3 -0.004062 -0.006036 0.013769 0.000000 0.000000 0.000000
# 4 0.000000 0.000000 0.000000 0.025826 0.000000 0.000000
# 5 0.000000 0.000000 0.000000 0.000000 0.025610 0.000000
# 6 0.000000 0.000000 0.000000 0.000000 0.000000 0.025155
#
#
# Mechanical properties :
#
#
# Convention : Reuss Voigt Hill
#
# Bulk Modulus (GPa) = 59.70027 61.30003 60.50015
# Shear Modulus (GPa) = 33.55492 34.99122 34.27307
#
# Velocity S-wave (km/s) = 4.00333 4.08811 4.04594
# Velocity P-wave (km/s) = 7.06280 7.18067 7.12198
#
# Compressibility (1/GPa) = 0.01675034
#
# Stress axis : x y z
#
# Youngs Moduli (GPa) = 85.61186 61.19095 72.62487
#
# Poissons Ratio (x) = 0.14831 0.29497
# Poissons Ratio (y) = 0.20750 0.43834
# Poissons Ratio (z) = 0.34772 0.36933
#
# Static dielectric constant tensor:
#      x y z
#    x 3.755510 0.000000 0.000000 
#    y 0.000000 3.966820 0.000000 
#    z 0.000000 0.000000 3.816200 
# 
# 
# High freq. dielectric constant tensor:
#      x y z
#    x 1.820620 0.000000 0.000000 
#    y 0.000000 1.844460 0.000000 
#    z 0.000000 0.000000 1.820470 
# 
# From -- ./inp_files/26020.got.cif
#   From: 2010.03.12/outbox.cif.g09.slc.cpg/sg62_14_cif.got.tgz:26020.got - 2010.04.10 19:12:36.
