data_PCOD8254183
_publ_section_title
;
Structure prediction by ZEFSAII (Michael W. Deem and Ramdas Pophale) SiO2 
 PCOD8254183
Probable space group: P N M A
;
_chemical_formula_sum "Si O2"
_cell_formula_units_Z 40
_cell_length_a 8.104665
_cell_length_b 12.475194
_cell_length_c 16.848251
_cell_angle_alpha 90.000000
_cell_angle_beta 90.000000
_cell_angle_gamma 90.000000
_cell_volume 1703.480632
_symmetry_space_group_name_H-M "P N M A"
_symmetry_group_IT_number 62
_symmetry_cell_setting 'orthorhombic'
loop_
_space_group_symop_operation_xyz
x,y,z
1/2-x,-y,1/2+z
1/2+x,1/2-y,1/2-z
-x,1/2+y,-z
-x,-y,-z
1/2+x,y,1/2-z
1/2-x,1/2+y,1/2+z
x,1/2-y,z
loop_
_atom_site_type_symbol
_atom_site_label
_atom_site_fract_x
_atom_site_fract_y
_atom_site_fract_z
Si Si1 0.086607 0.625193 0.908682
Si Si2 0.491498 0.369474 0.828050
Si Si3 0.590333 0.126649 0.004634
Si Si4 0.205921 0.998961 0.765372
Si Si5 0.224326 0.875969 0.600753
O O1 0.114424 0.750000 0.893144
O O2 0.232407 0.580211 0.965952
O O3 0.090218 0.567969 0.823562
O O4 0.901570 0.604878 0.943586
O O5 0.414750 0.250000 0.822204
O O6 0.626406 0.386564 0.759035
O O7 0.366776 0.468163 0.815049
O O8 0.583345 0.386921 0.910806
O O9 0.582142 0.250000 0.029101
O O10 0.425694 0.073545 0.046468
O O11 0.233884 0.929088 0.686884
O O12 0.194846 0.750000 0.613039
#
# Coordination Sequence:
#
# PCOD8254183 Si02
#       5
#     8   8   8   8   8
#     4  10  21  39  65 100 132 161 204 264 330 388
#     4  11  25  45  64  89 127 176 222 262 306 369
#     4   9  21  43  67  90 129 173 211 260 317 375
#     4  12  22  40  64  94 130 166 212 264 322 378
#     4  10  21  39  65 100 132 161 204 264 330 388
#
# _framework density 23.481335999999999
#
# number of rings (size 3 to 8) (size 9 to 14) (size 15 to 20)
#    0.000    1.600    2.000    2.400    0.000    3.200 
#    3.600    2.000    0.000    0.000    0.000    0.000 
#    0.000    0.000    0.000    0.000    0.000    0.000 
#
# Total GULP energy -495697.607280 kJ/mol
# GULP energy per Si atom -12392.440182 kJ/mol
# Density = 2.342789 g / cm^3
# Si number density = 23.481336 Si / 1000 Ang^3
#
#
#
# Elastic Constant Matrix: (Units=GPa)
#
#
# Indices 1 2 3 4 5 6 
#
# 1 149.9729 39.6314 71.7839 0.0000 0.0000 0.0000
# 2 39.6314 53.6962 23.0484 0.0000 0.0000 0.0000
# 3 71.7839 23.0484 106.4778 0.0000 0.0000 0.0000
# 4 0.0000 0.0000 0.0000 4.0714 0.0000 0.0000
# 5 0.0000 0.0000 0.0000 0.0000 40.4419 0.0000
# 6 0.0000 0.0000 0.0000 0.0000 0.0000 34.3409
#
#
#
# Elastic Compliance Matrix: (Units=1/GPa)
#
#
# Indices 1 2 3 4 5 6 
#
# 1 0.011153 -0.005517 -0.006325 0.000000 0.000000 0.000000
# 2 -0.005517 0.023260 -0.001316 0.000000 0.000000 0.000000
# 3 -0.006325 -0.001316 0.013940 0.000000 0.000000 0.000000
# 4 0.000000 0.000000 0.000000 0.245614 0.000000 0.000000
# 5 0.000000 0.000000 0.000000 0.000000 0.024727 0.000000
# 6 0.000000 0.000000 0.000000 0.000000 0.000000 0.029120
#
#
# Mechanical properties :
#
#
# Convention : Reuss Voigt Hill
#
# Bulk Modulus (GPa) = 45.37469 64.34159 54.85814
# Shear Modulus (GPa) = 13.10704 27.48306 20.29505
#
# Velocity S-wave (km/s) = 2.36517 3.42485 2.94310
# Velocity P-wave (km/s) = 5.17922 6.56507 5.91289
#
# Compressibility (1/GPa) = 0.02203872
#
# Stress axis : x y z
#
# Youngs Moduli (GPa) = 89.66093 42.99257 71.73385
#
# Poissons Ratio (x) = 0.23719 0.45371
# Poissons Ratio (y) = 0.49465 0.09437
# Poissons Ratio (z) = 0.56709 0.05656
#
# Static dielectric constant tensor:
#      x y z
#    x 4.603790 0.000000 0.000000 
#    y 0.000000 4.379640 0.000000 
#    z 0.000000 0.000000 3.918060 
# 
# 
# High freq. dielectric constant tensor:
#      x y z
#    x 1.939890 0.000000 0.000000 
#    y 0.000000 1.947500 0.000000 
#    z 0.000000 0.000000 1.916610 
# 
# From -- ./inp_files/16646.got.cif
#   From: 2010.03.12/outbox.cif.g09.slc.cpg/sg62_9_cif.got.tgz:16646.got - 2010.04.10 19:12:36.
