data_PCOD8254004
_publ_section_title
;
Structure prediction by ZEFSAII (Michael W. Deem and Ramdas Pophale) SiO2 
 PCOD8254004
Probable space group: P N M A
;
_chemical_formula_sum "Si O2"
_cell_formula_units_Z 64
_cell_length_a 26.001782
_cell_length_b 8.645182
_cell_length_c 14.716833
_cell_angle_alpha 90.000000
_cell_angle_beta 90.000000
_cell_angle_gamma 90.000000
_cell_volume 3308.198917
_symmetry_space_group_name_H-M "P N M A"
_symmetry_group_IT_number 62
_symmetry_cell_setting 'orthorhombic'
loop_
_space_group_symop_operation_xyz
x,y,z
1/2-x,-y,1/2+z
1/2+x,1/2-y,1/2-z
-x,1/2+y,-z
-x,-y,-z
1/2+x,y,1/2-z
1/2-x,1/2+y,1/2+z
x,1/2-y,z
loop_
_atom_site_type_symbol
_atom_site_label
_atom_site_fract_x
_atom_site_fract_y
_atom_site_fract_z
Si Si1 0.214477 0.568378 0.002873
Si Si2 0.500621 0.931741 0.100475
Si Si3 0.867316 0.066904 0.852233
Si Si4 0.104631 0.068548 0.334511
Si Si5 0.829401 0.933172 0.491236
Si Si6 0.371393 0.070052 0.368642
Si Si7 0.603169 0.570300 0.834977
Si Si8 0.555824 0.068460 0.490719
O O1 0.220382 0.750000 0.009561
O O2 0.182541 0.509654 0.090721
O O3 0.271672 0.497849 0.000725
O O4 0.184208 0.523694 0.910347
O O5 0.502365 0.750000 0.090247
O O6 0.549539 0.987223 0.157611
O O7 0.449881 0.978646 0.155215
O O8 0.500000 0.000000 0.000000
O O9 0.867947 0.250000 0.839805
O O10 0.865492 0.986111 0.754815
O O11 0.918184 0.015450 0.905272
O O12 0.095029 0.250000 0.331077
O O13 0.140071 0.020113 0.418637
O O14 0.830649 0.750000 0.475384
O O15 0.855242 0.016801 0.407085
O O16 0.383246 0.250000 0.389860
O O17 0.371626 0.034279 0.262313
O O18 0.414554 0.966300 0.415971
O O19 0.590819 0.750000 0.847829
O O20 0.553924 0.250000 0.471885
O O21 0.500000 0.000000 0.500000
#
# Coordination Sequence:
#
# PCOD8254004 Si02
#       8
#     8   8   8   8   8   8   8   8
#     4   8  17  38  63  85 115 156 197 243 298 349
#     4  12  24  40  61  84 119 158 198 245 301 356
#     4  10  21  39  61  85 118 157 198 244 298 350
#     4  11  23  38  59  89 122 158 202 244 295 356
#     4  10  21  38  61  86 117 157 200 246 297 350
#     4   9  20  39  60  84 117 154 194 240 292 349
#     4  11  23  38  60  89 121 155 199 245 295 357
#     4  11  22  37  58  84 116 151 194 242 294 355
#
# _framework density 19.345874999999999
#
# number of rings (size 3 to 8) (size 9 to 14) (size 15 to 20)
#    0.000    1.750    1.250    4.125    1.750    2.500 
#    0.000    4.375    0.000    0.000    0.000    0.000 
#    0.000    0.000    0.000    0.000    0.000    0.000 
#
# Total GULP energy -793776.209687 kJ/mol
# GULP energy per Si atom -12402.753276 kJ/mol
# Density = 1.930184 g / cm^3
# Si number density = 19.345875 Si / 1000 Ang^3
#
#
#
# Elastic Constant Matrix: (Units=GPa)
#
#
# Indices 1 2 3 4 5 6 
#
# 1 158.0591 40.9186 64.4924 0.0000 0.0000 0.0000
# 2 40.9186 65.8484 40.8360 0.0000 0.0000 0.0000
# 3 64.4924 40.8360 149.9820 0.0000 0.0000 0.0000
# 4 0.0000 0.0000 0.0000 31.1774 0.0000 0.0000
# 5 0.0000 0.0000 0.0000 0.0000 4.7361 0.0000
# 6 0.0000 0.0000 0.0000 0.0000 0.0000 25.0826
#
#
#
# Elastic Compliance Matrix: (Units=1/GPa)
#
#
# Indices 1 2 3 4 5 6 
#
# 1 0.008309 -0.003546 -0.002607 0.000000 0.000000 0.000000
# 2 -0.003546 0.019785 -0.003862 0.000000 0.000000 0.000000
# 3 -0.002607 -0.003862 0.008840 0.000000 0.000000 0.000000
# 4 0.000000 0.000000 0.000000 0.032074 0.000000 0.000000
# 5 0.000000 0.000000 0.000000 0.000000 0.211144 0.000000
# 6 0.000000 0.000000 0.000000 0.000000 0.000000 0.039868
#
#
# Mechanical properties :
#
#
# Convention : Reuss Voigt Hill
#
# Bulk Modulus (GPa) = 59.16139 74.04262 66.60200
# Shear Modulus (GPa) = 14.46402 27.37539 20.91970
#
# Velocity S-wave (km/s) = 2.73729 3.76580 3.29196
# Velocity P-wave (km/s) = 6.37477 7.56733 6.99650
#
# Compressibility (1/GPa) = 0.01690292
#
# Stress axis : x y z
#
# Youngs Moduli (GPa) = 120.35746 50.54309 113.12088
#
# Poissons Ratio (x) = 0.17923 0.29493
# Poissons Ratio (y) = 0.42681 0.43688
# Poissons Ratio (z) = 0.31379 0.19520
#
# Static dielectric constant tensor:
#      x y z
#    x 3.807580 0.000000 0.000000 
#    y 0.000000 3.505480 0.000000 
#    z 0.000000 0.000000 3.752080 
# 
# 
# High freq. dielectric constant tensor:
#      x y z
#    x 1.759420 0.000000 0.000000 
#    y 0.000000 1.749040 0.000000 
#    z 0.000000 0.000000 1.760030 
# 
# From -- ./inp_files/20940.got.cif
#   From: 2010.03.12/outbox.cif.g09.slc.cpg/sg62_11_cif.got.tgz:20940.got - 2010.04.10 19:12:36.
