data_PCOD8254375
_publ_section_title
;
Structure prediction by ZEFSAII (Michael W. Deem and Ramdas Pophale) SiO2 
 PCOD8254375
Probable space group: P N M A
;
_chemical_formula_sum "Si O2"
_cell_formula_units_Z 64
_cell_length_a 11.958760
_cell_length_b 8.553198
_cell_length_c 30.579639
_cell_angle_alpha 90.000000
_cell_angle_beta 90.000000
_cell_angle_gamma 90.000000
_cell_volume 3127.858011
_symmetry_space_group_name_H-M "P N M A"
_symmetry_group_IT_number 62
_symmetry_cell_setting 'orthorhombic'
loop_
_space_group_symop_operation_xyz
x,y,z
1/2-x,-y,1/2+z
1/2+x,1/2-y,1/2-z
-x,1/2+y,-z
-x,-y,-z
1/2+x,y,1/2-z
1/2-x,1/2+y,1/2+z
x,1/2-y,z
loop_
_atom_site_type_symbol
_atom_site_label
_atom_site_fract_x
_atom_site_fract_y
_atom_site_fract_z
Si Si1 0.611654 0.936704 0.631541
Si Si2 0.234199 0.066019 0.446353
Si Si3 0.210147 0.934198 0.704499
Si Si4 0.488641 0.067045 0.073240
Si Si5 0.497013 0.568208 0.165428
Si Si6 0.266338 0.931644 0.043713
Si Si7 0.735181 0.566910 0.204602
Si Si8 0.639920 0.433678 0.375222
O O1 0.616912 0.750000 0.634344
O O2 0.679766 0.001616 0.589414
O O3 0.485649 0.001149 0.627082
O O4 0.661756 0.008710 0.675557
O O5 0.224333 0.250000 0.439949
O O6 0.277478 0.025228 0.495043
O O7 0.110223 0.996319 0.438538
O O8 0.191538 0.750000 0.700723
O O9 0.287421 0.000230 0.665029
O O10 0.268387 0.975188 0.749956
O O11 0.090869 0.022299 0.703140
O O12 0.478083 0.250000 0.063165
O O13 0.463672 0.036648 0.124052
O O14 0.397040 0.975883 0.044798
O O15 0.487569 0.750000 0.153517
O O16 0.620880 0.523513 0.180299
O O17 0.251961 0.750000 0.053950
O O18 0.194207 0.026556 0.078374
O O19 0.746017 0.750000 0.213758
O O20 0.633533 0.250000 0.370776
#
# Coordination Sequence:
#
# PCOD8254375 Si02
#       8
#     8   8   8   8   8   8   8   8
#     4  10  21  42  65  86 119 160 205 250 295 355
#     4   9  20  37  60  89 120 158 201 249 300 358
#     4  11  24  41  63  90 122 160 205 244 291 356
#     4  11  20  36  61  89 122 158 201 248 296 356
#     4  11  23  40  63  93 126 158 193 246 305 355
#     4  11  22  37  59  88 122 160 200 247 308 359
#     4  11  25  42  62  93 127 155 196 248 303 357
#     4  10  23  41  61  88 118 156 204 250 295 354
#
# _framework density 20.461286000000001
#
# number of rings (size 3 to 8) (size 9 to 14) (size 15 to 20)
#    0.000    1.500    2.500    2.250    1.750    3.000 
#    0.000    3.125    0.000    0.000    0.000    0.000 
#    0.000    0.000    0.000    0.000    0.000    0.000 
#
# Total GULP energy -793875.247595 kJ/mol
# GULP energy per Si atom -12404.300744 kJ/mol
# Density = 2.041472 g / cm^3
# Si number density = 20.461286 Si / 1000 Ang^3
#
#
#
# Elastic Constant Matrix: (Units=GPa)
#
#
# Indices 1 2 3 4 5 6 
#
# 1 126.4532 17.6012 36.5589 0.0000 0.0000 0.0000
# 2 17.6012 19.7217 11.9515 0.0000 0.0000 0.0000
# 3 36.5589 11.9515 115.7846 0.0000 0.0000 0.0000
# 4 0.0000 0.0000 0.0000 29.5809 0.0000 0.0000
# 5 0.0000 0.0000 0.0000 0.0000 26.3389 0.0000
# 6 0.0000 0.0000 0.0000 0.0000 0.0000 23.7117
#
#
#
# Elastic Compliance Matrix: (Units=1/GPa)
#
#
# Indices 1 2 3 4 5 6 
#
# 1 0.009563 -0.007152 -0.002281 0.000000 0.000000 0.000000
# 2 -0.007152 0.059438 -0.003877 0.000000 0.000000 0.000000
# 3 -0.002281 -0.003877 0.009757 0.000000 0.000000 0.000000
# 4 0.000000 0.000000 0.000000 0.033806 0.000000 0.000000
# 5 0.000000 0.000000 0.000000 0.000000 0.037967 0.000000
# 6 0.000000 0.000000 0.000000 0.000000 0.000000 0.042173
#
#
# Mechanical properties :
#
#
# Convention : Reuss Voigt Hill
#
# Bulk Modulus (GPa) = 19.18008 43.79808 31.48908
# Shear Modulus (GPa) = 21.12336 28.98283 25.05309
#
# Velocity S-wave (km/s) = 3.21652 3.76769 3.50296
# Velocity P-wave (km/s) = 4.81548 6.35445 5.63773
#
# Compressibility (1/GPa) = 0.05213743
#
# Stress axis : x y z
#
# Youngs Moduli (GPa) = 104.56798 16.82415 102.48812
#
# Poissons Ratio (x) = 0.12033 0.23380
# Poissons Ratio (y) = 0.74791 0.39734
# Poissons Ratio (z) = 0.23855 0.06523
#
# Static dielectric constant tensor:
#      x y z
#    x 3.920260 0.000000 0.000000 
#    y 0.000000 3.453860 0.000000 
#    z 0.000000 0.000000 3.763710 
# 
# 
# High freq. dielectric constant tensor:
#      x y z
#    x 1.805670 0.000000 0.000000 
#    y 0.000000 1.784700 0.000000 
#    z 0.000000 0.000000 1.809040 
# 
# From -- ./inp_files/32458.got.cif
#   From: 2010.03.12/outbox.cif.g09.slc.cpg/sg62_17_cif.got.tgz:32458.got - 2010.04.10 19:12:36.
