data_PCOD8254191
_publ_section_title
;
Structure prediction by ZEFSAII (Michael W. Deem and Ramdas Pophale) SiO2 
 PCOD8254191
Probable space group: P N M A
;
_chemical_formula_sum "Si O2"
_cell_formula_units_Z 64
_cell_length_a 32.109082
_cell_length_b 8.613802
_cell_length_c 11.043843
_cell_angle_alpha 90.000000
_cell_angle_beta 90.000000
_cell_angle_gamma 90.000000
_cell_volume 3054.520175
_symmetry_space_group_name_H-M "P N M A"
_symmetry_group_IT_number 62
_symmetry_cell_setting 'orthorhombic'
loop_
_space_group_symop_operation_xyz
x,y,z
1/2-x,-y,1/2+z
1/2+x,1/2-y,1/2-z
-x,1/2+y,-z
-x,-y,-z
1/2+x,y,1/2-z
1/2-x,1/2+y,1/2+z
x,1/2-y,z
loop_
_atom_site_type_symbol
_atom_site_label
_atom_site_fract_x
_atom_site_fract_y
_atom_site_fract_z
Si Si1 0.809232 0.576075 0.265014
Si Si2 0.725696 0.071969 0.213325
Si Si3 0.838688 0.070278 0.865415
Si Si4 0.523709 0.433957 0.618580
Si Si5 0.098557 0.925423 0.342777
Si Si6 0.987512 0.569579 0.630787
Si Si7 0.824116 0.076617 0.504833
Si Si8 0.380988 0.571823 0.411037
O O1 0.793568 0.750000 0.239440
O O2 0.774990 0.458049 0.213003
O O3 0.813521 0.552122 0.407268
O O4 0.855216 0.548036 0.212063
O O5 0.717654 0.250000 0.179382
O O6 0.703488 0.029933 0.341837
O O7 0.704275 0.955789 0.120107
O O8 0.826939 0.250000 0.852748
O O9 0.874707 0.021493 0.772179
O O10 0.856810 0.036308 0.996069
O O11 0.500000 0.500000 0.500000
O O12 0.518102 0.250000 0.617706
O O13 0.508347 0.494731 0.749425
O O14 0.571867 0.484688 0.607800
O O15 0.081123 0.750000 0.325234
O O16 0.127224 0.933759 0.461709
O O17 0.061684 0.047267 0.356378
O O18 0.999041 0.750000 0.629812
O O19 0.000000 0.500000 0.500000
O O20 0.813802 0.250000 0.457032
O O21 0.380270 0.750000 0.455327
#
# Coordination Sequence:
#
# PCOD8254191 Si02
#       8
#     8   8   8   8   8   8   8   8
#     4  11  24  41  61  88 124 164 208 259 312 368
#     4  11  23  40  63  90 122 165 210 254 308 370
#     4  10  21  39  65  94 125 162 208 259 308 368
#     4  11  24  45  70 100 134 173 219 270 330 395
#     4   9  20  40  64  92 124 161 206 258 312 373
#     4  12  26  42  65  96 131 173 217 269 327 390
#     4  10  22  41  64  91 123 159 204 258 312 371
#     4  10  24  42  63  92 128 166 208 258 316 379
#
# _framework density 20.952553999999999
#
# number of rings (size 3 to 8) (size 9 to 14) (size 15 to 20)
#    0.000    1.500    0.000    5.250    3.500    7.000 
#    0.000    0.000    0.000    0.000    0.000    0.000 
#    0.000    0.000    0.000    0.000    0.000    0.000 
#
# Total GULP energy -793560.115343 kJ/mol
# GULP energy per Si atom -12399.376802 kJ/mol
# Density = 2.090486 g / cm^3
# Si number density = 20.952554 Si / 1000 Ang^3
#
#
#
# Elastic Constant Matrix: (Units=GPa)
#
#
# Indices 1 2 3 4 5 6 
#
# 1 127.8878 41.8250 40.4810 0.0000 0.0000 0.0000
# 2 41.8250 95.8983 36.1188 0.0000 0.0000 0.0000
# 3 40.4810 36.1188 109.6652 0.0000 0.0000 0.0000
# 4 0.0000 0.0000 0.0000 37.1232 0.0000 0.0000
# 5 0.0000 0.0000 0.0000 0.0000 22.5450 0.0000
# 6 0.0000 0.0000 0.0000 0.0000 0.0000 33.2272
#
#
#
# Elastic Compliance Matrix: (Units=1/GPa)
#
#
# Indices 1 2 3 4 5 6 
#
# 1 0.009682 -0.003284 -0.002492 0.000000 0.000000 0.000000
# 2 -0.003284 0.013018 -0.003075 0.000000 0.000000 0.000000
# 3 -0.002492 -0.003075 0.011052 0.000000 0.000000 0.000000
# 4 0.000000 0.000000 0.000000 0.026937 0.000000 0.000000
# 5 0.000000 0.000000 0.000000 0.000000 0.044356 0.000000
# 6 0.000000 0.000000 0.000000 0.000000 0.000000 0.030096
#
#
# Mechanical properties :
#
#
# Convention : Reuss Voigt Hill
#
# Bulk Modulus (GPa) = 62.31139 63.36676 62.83907
# Shear Modulus (GPa) = 31.60669 32.91420 32.26044
#
# Velocity S-wave (km/s) = 3.88814 3.96775 3.92815
# Velocity P-wave (km/s) = 7.06829 7.16236 7.11548
#
# Compressibility (1/GPa) = 0.01604843
#
# Stress axis : x y z
#
# Youngs Moduli (GPa) = 103.28071 76.81462 90.48466
#
# Poissons Ratio (x) = 0.25227 0.22553
# Poissons Ratio (y) = 0.33919 0.27828
# Poissons Ratio (z) = 0.25742 0.23624
#
# Static dielectric constant tensor:
#      x y z
#    x 3.912400 0.000000 0.000000 
#    y 0.000000 3.725350 0.000000 
#    z 0.000000 0.000000 3.794330 
# 
# 
# High freq. dielectric constant tensor:
#      x y z
#    x 1.827870 0.000000 0.000000 
#    y 0.000000 1.824260 0.000000 
#    z 0.000000 0.000000 1.821720 
# 
# From -- ./inp_files/15897.got.cif
#   From: 2010.03.12/outbox.cif.g09.slc.cpg/sg62_8_cif.got.tgz:15897.got - 2010.04.10 19:12:36.
