data_PCOD8254738
_publ_section_title
;
Structure prediction by ZEFSAII (Michael W. Deem and Ramdas Pophale) SiO2 
 PCOD8254738
Probable space group: P N M A
;
_chemical_formula_sum "Si O2"
_cell_formula_units_Z 40
_cell_length_a 8.640716
_cell_length_b 15.702085
_cell_length_c 12.337930
_cell_angle_alpha 90.000000
_cell_angle_beta 90.000000
_cell_angle_gamma 90.000000
_cell_volume 1673.976501
_symmetry_space_group_name_H-M "P N M A"
_symmetry_group_IT_number 62
_symmetry_cell_setting 'orthorhombic'
loop_
_space_group_symop_operation_xyz
x,y,z
1/2-x,-y,1/2+z
1/2+x,1/2-y,1/2-z
-x,1/2+y,-z
-x,-y,-z
1/2+x,y,1/2-z
1/2-x,1/2+y,1/2+z
x,1/2-y,z
loop_
_atom_site_type_symbol
_atom_site_label
_atom_site_fract_x
_atom_site_fract_y
_atom_site_fract_z
Si Si1 0.878158 0.344370 0.878066
Si Si2 0.660538 0.549460 0.009032
Si Si3 0.663936 0.896605 0.607516
Si Si4 0.174958 0.148736 0.176731
Si Si5 0.293567 0.850013 0.319880
O O1 0.894883 0.250000 0.830060
O O2 0.747906 0.387493 0.800191
O O3 0.043972 0.390844 0.861396
O O4 0.826245 0.336710 0.002059
O O5 0.705906 0.593483 0.895299
O O6 0.500000 0.500000 0.000000
O O7 0.794723 0.488484 0.057724
O O8 0.653801 0.624038 0.098755
O O9 0.493687 0.890771 0.658240
O O10 0.785661 0.864480 0.696903
O O11 0.180157 0.250000 0.148011
O O12 0.310138 0.750000 0.324537
#
# Coordination Sequence:
#
# PCOD8254738 Si02
#       5
#     8   8   8   8   8
#     4  10  22  43  72 106 139 186 241 302 367 440
#     4  12  28  46  73 110 151 197 251 315 383 447
#     4  12  27  46  77 110 149 196 256 317 380 448
#     4  12  26  51  78 108 153 208 257 315 385 463
#     4  10  23  44  73 102 145 193 242 300 372 452
#
# _framework density 23.895197
#
# number of rings (size 3 to 8) (size 9 to 14) (size 15 to 20)
#    0.000    0.800    2.000    4.200    5.600    0.000 
#    0.000    4.000    0.000    0.000    0.000    0.000 
#    0.000    0.000    0.000    0.000    0.000    0.000 
#
# Total GULP energy -495601.851516 kJ/mol
# GULP energy per Si atom -12390.046288 kJ/mol
# Density = 2.384081 g / cm^3
# Si number density = 23.895197 Si / 1000 Ang^3
#
#
#
# Elastic Constant Matrix: (Units=GPa)
#
#
# Indices 1 2 3 4 5 6 
#
# 1 120.9205 56.4944 86.3695 0.0000 0.0000 0.0000
# 2 56.4944 79.0279 33.3377 0.0000 0.0000 0.0000
# 3 86.3695 33.3377 201.6990 0.0000 0.0000 0.0000
# 4 0.0000 0.0000 0.0000 33.2457 0.0000 0.0000
# 5 0.0000 0.0000 0.0000 0.0000 50.5682 0.0000
# 6 0.0000 0.0000 0.0000 0.0000 0.0000 30.7910
#
#
#
# Elastic Compliance Matrix: (Units=1/GPa)
#
#
# Indices 1 2 3 4 5 6 
#
# 1 0.016753 -0.009621 -0.005584 0.000000 0.000000 0.000000
# 2 -0.009621 0.019127 0.000958 0.000000 0.000000 0.000000
# 3 -0.005584 0.000958 0.007190 0.000000 0.000000 0.000000
# 4 0.000000 0.000000 0.000000 0.030079 0.000000 0.000000
# 5 0.000000 0.000000 0.000000 0.000000 0.019775 0.000000
# 6 0.000000 0.000000 0.000000 0.000000 0.000000 0.032477
#
#
# Mechanical properties :
#
#
# Convention : Reuss Voigt Hill
#
# Bulk Modulus (GPa) = 68.59488 83.78340 76.18914
# Shear Modulus (GPa) = 31.49543 37.95069 34.72306
#
# Velocity S-wave (km/s) = 3.63446 3.98956 3.81614
# Velocity P-wave (km/s) = 6.81038 7.50741 7.16737
#
# Compressibility (1/GPa) = 0.01457835
#
# Stress axis : x y z
#
# Youngs Moduli (GPa) = 59.69120 52.28212 139.07329
#
# Poissons Ratio (x) = 0.50299 0.77653
# Poissons Ratio (y) = 0.57427 -0.13327
# Poissons Ratio (z) = 0.33329 -0.05010
#
# Static dielectric constant tensor:
#      x y z
#    x 4.540270 0.000000 0.000000 
#    y 0.000000 4.388200 0.000000 
#    z 0.000000 0.000000 4.711820 
# 
# 
# High freq. dielectric constant tensor:
#      x y z
#    x 1.943610 0.000000 0.000000 
#    y 0.000000 1.947170 0.000000 
#    z 0.000000 0.000000 1.966480 
# 
# From -- ./inp_files/11082.got.cif
#   From: 2010.03.12/outbox.cif.g09.slc.cpg/sg62_6_cif.got.tgz:11082.got - 2010.04.10 19:12:36.
