data_PCOD8254260
_publ_section_title
;
Structure prediction by ZEFSAII (Michael W. Deem and Ramdas Pophale) SiO2 
 PCOD8254260
Probable space group: P N M A
;
_chemical_formula_sum "Si O2"
_cell_formula_units_Z 48
_cell_length_a 28.495057
_cell_length_b 8.919974
_cell_length_c 9.533702
_cell_angle_alpha 90.000000
_cell_angle_beta 90.000000
_cell_angle_gamma 90.000000
_cell_volume 2423.230303
_symmetry_space_group_name_H-M "P N M A"
_symmetry_group_IT_number 62
_symmetry_cell_setting 'orthorhombic'
loop_
_space_group_symop_operation_xyz
x,y,z
1/2-x,-y,1/2+z
1/2+x,1/2-y,1/2-z
-x,1/2+y,-z
-x,-y,-z
1/2+x,y,1/2-z
1/2-x,1/2+y,1/2+z
x,1/2-y,z
loop_
_atom_site_type_symbol
_atom_site_label
_atom_site_fract_x
_atom_site_fract_y
_atom_site_fract_z
Si Si1 0.796525 0.426942 0.517372
Si Si2 0.637110 0.919866 0.521048
Si Si3 0.969314 0.420262 0.114512
Si Si4 0.380100 0.072099 0.788169
Si Si5 0.515910 0.572219 0.141349
Si Si6 0.289159 0.573640 0.286271
O O1 0.795972 0.250000 0.493131
O O2 0.845880 0.479713 0.585874
O O3 0.756487 0.477093 0.626635
O O4 0.788523 0.502345 0.367676
O O5 0.657037 0.750000 0.526645
O O6 0.584213 0.922642 0.571758
O O7 0.639363 0.985649 0.362328
O O8 0.665857 0.023757 0.625752
O O9 0.986690 0.250000 0.135737
O O10 0.976142 0.516420 0.253406
O O11 0.000000 0.500000 0.000000
O O12 0.382083 0.250000 0.778304
O O13 0.432432 0.010749 0.816393
O O14 0.515968 0.750000 0.131164
O O15 0.500000 0.500000 0.000000
O O16 0.290477 0.750000 0.265141
#
# Coordination Sequence:
#
# PCOD8254260 Si02
#       6
#     8   8   8   8   8   8
#     4  10  22  41  64  87 119 159 197 240 298 365
#     4  10  21  40  64  87 119 164 203 241 302 368
#     4  11  22  39  63  90 121 165 209 253 305 361
#     4   9  19  39  63  85 114 161 205 237 291 366
#     4  11  23  40  60  88 125 163 208 255 301 362
#     4  11  24  40  62  94 123 152 197 252 298 350
#
# _framework density 19.808271000000001
#
# number of rings (size 3 to 8) (size 9 to 14) (size 15 to 20)
#    0.000    1.667    1.667    2.500    2.333    4.000 
#    0.000    1.667    0.000    0.000    0.000    0.000 
#    0.000    0.000    0.000    0.000    0.000    0.000 
#
# Total GULP energy -595203.651047 kJ/mol
# GULP energy per Si atom -12400.076063 kJ/mol
# Density = 1.976319 g / cm^3
# Si number density = 19.808271 Si / 1000 Ang^3
#
#
#
# Elastic Constant Matrix: (Units=GPa)
#
#
# Indices 1 2 3 4 5 6 
#
# 1 81.5858 36.3563 51.2750 0.0000 0.0000 0.0000
# 2 36.3563 64.0405 50.5380 0.0000 0.0000 0.0000
# 3 51.2750 50.5380 186.4869 0.0000 0.0000 0.0000
# 4 0.0000 0.0000 0.0000 39.7580 0.0000 0.0000
# 5 0.0000 0.0000 0.0000 0.0000 38.9225 0.0000
# 6 0.0000 0.0000 0.0000 0.0000 0.0000 28.7526
#
#
#
# Elastic Compliance Matrix: (Units=1/GPa)
#
#
# Indices 1 2 3 4 5 6 
#
# 1 0.017401 -0.007763 -0.002681 0.000000 0.000000 0.000000
# 2 -0.007763 0.023327 -0.004187 0.000000 0.000000 0.000000
# 3 -0.002681 -0.004187 0.007234 0.000000 0.000000 0.000000
# 4 0.000000 0.000000 0.000000 0.025152 0.000000 0.000000
# 5 0.000000 0.000000 0.000000 0.000000 0.025692 0.000000
# 6 0.000000 0.000000 0.000000 0.000000 0.000000 0.034779
#
#
# Mechanical properties :
#
#
# Convention : Reuss Voigt Hill
#
# Bulk Modulus (GPa) = 53.47608 67.60575 60.54092
# Shear Modulus (GPa) = 29.57165 34.41624 31.99394
#
# Velocity S-wave (km/s) = 3.86799 4.17282 4.02329
# Velocity P-wave (km/s) = 6.85594 7.57764 7.22581
#
# Compressibility (1/GPa) = 0.01869995
#
# Stress axis : x y z
#
# Youngs Moduli (GPa) = 57.46700 42.86947 138.23573
#
# Poissons Ratio (x) = 0.33281 0.37056
# Poissons Ratio (y) = 0.44614 0.57879
# Poissons Ratio (z) = 0.15405 0.17949
#
# Static dielectric constant tensor:
#      x y z
#    x 3.681930 0.000000 0.000000 
#    y 0.000000 2.714770 0.000000 
#    z 0.000000 0.000000 3.933580 
# 
# 
# High freq. dielectric constant tensor:
#      x y z
#    x 1.781370 0.000000 0.000000 
#    y 0.000000 1.757040 0.000000 
#    z 0.000000 0.000000 1.792240 
# 
# From -- ./inp_files/10203.got.cif
#   From: 2010.03.12/outbox.cif.g09.slc.cpg/sg62_6_cif.got.tgz:10203.got - 2010.04.10 19:12:36.
