data_PCOD8254117
_publ_section_title
;
Structure prediction by ZEFSAII (Michael W. Deem and Ramdas Pophale) SiO2 
 PCOD8254117
Probable space group: P N M A
;
_chemical_formula_sum "Si O2"
_cell_formula_units_Z 48
_cell_length_a 9.225565
_cell_length_b 9.190023
_cell_length_c 28.518578
_cell_angle_alpha 90.000000
_cell_angle_beta 90.000000
_cell_angle_gamma 90.000000
_cell_volume 2417.895006
_symmetry_space_group_name_H-M "P N M A"
_symmetry_group_IT_number 62
_symmetry_cell_setting 'orthorhombic'
loop_
_space_group_symop_operation_xyz
x,y,z
1/2-x,-y,1/2+z
1/2+x,1/2-y,1/2-z
-x,1/2+y,-z
-x,-y,-z
1/2+x,y,1/2-z
1/2-x,1/2+y,1/2+z
x,1/2-y,z
loop_
_atom_site_type_symbol
_atom_site_label
_atom_site_fract_x
_atom_site_fract_y
_atom_site_fract_z
Si Si1 0.014333 0.082174 0.361899
Si Si2 0.695041 0.580147 0.215510
Si Si3 0.367664 0.415021 0.521202
Si Si4 0.590199 0.412500 0.037000
Si Si5 0.521682 0.920734 0.306852
Si Si6 0.311733 0.580554 0.615311
O O1 0.056779 0.250000 0.355967
O O2 0.841767 0.058917 0.359001
O O3 0.075122 0.019482 0.411216
O O4 0.089746 0.995071 0.321002
O O5 0.679246 0.750000 0.206587
O O6 0.861564 0.530078 0.209906
O O7 0.639005 0.538917 0.267182
O O8 0.500000 0.500000 0.500000
O O9 0.409386 0.250000 0.535790
O O10 0.255666 0.411988 0.478460
O O11 0.303523 0.499153 0.565727
O O12 0.524192 0.250000 0.038717
O O13 0.500000 0.500000 0.000000
O O14 0.525241 0.750000 0.318739
O O15 0.561698 0.010839 0.353206
O O16 0.346950 0.750000 0.606872
#
# Coordination Sequence:
#
# PCOD8254117 Si02
#       6
#     8   8   8   8   8   8
#     4  10  22  39  60  88 122 156 198 246 296 355
#     4  10  22  40  64  91 119 155 196 244 299 357
#     4  11  24  40  61  89 123 162 203 248 300 353
#     4  10  21  39  61  87 119 159 202 246 292 346
#     4  10  22  41  63  90 121 154 198 247 298 358
#     4  11  23  40  62  88 120 160 201 247 300 353
#
# _framework density 19.851977999999999
#
# number of rings (size 3 to 8) (size 9 to 14) (size 15 to 20)
#    0.000    1.667    1.667    2.000    2.333    5.333 
#    0.000    0.000    0.000    0.000    0.000    0.000 
#    0.000    0.000    0.000    0.000    0.000    0.000 
#
# Total GULP energy -595342.333515 kJ/mol
# GULP energy per Si atom -12402.965282 kJ/mol
# Density = 1.980679 g / cm^3
# Si number density = 19.851978 Si / 1000 Ang^3
#
#
#
# Elastic Constant Matrix: (Units=GPa)
#
#
# Indices 1 2 3 4 5 6 
#
# 1 88.0526 32.3442 14.6796 0.0000 0.0000 0.0000
# 2 32.3442 75.9706 32.3538 0.0000 0.0000 0.0000
# 3 14.6796 32.3538 70.5154 0.0000 0.0000 0.0000
# 4 0.0000 0.0000 0.0000 37.8833 0.0000 0.0000
# 5 0.0000 0.0000 0.0000 0.0000 41.4301 0.0000
# 6 0.0000 0.0000 0.0000 0.0000 0.0000 32.8034
#
#
#
# Elastic Compliance Matrix: (Units=1/GPa)
#
#
# Indices 1 2 3 4 5 6 
#
# 1 0.013465 -0.005641 -0.000215 0.000000 0.000000 0.000000
# 2 -0.005641 0.018723 -0.007416 0.000000 0.000000 0.000000
# 3 -0.000215 -0.007416 0.017629 0.000000 0.000000 0.000000
# 4 0.000000 0.000000 0.000000 0.026397 0.000000 0.000000
# 5 0.000000 0.000000 0.000000 0.000000 0.024137 0.000000
# 6 0.000000 0.000000 0.000000 0.000000 0.000000 0.030485
#
#
# Mechanical properties :
#
#
# Convention : Reuss Voigt Hill
#
# Bulk Modulus (GPa) = 42.96935 43.69932 43.33434
# Shear Modulus (GPa) = 30.27797 32.76741 31.52269
#
# Velocity S-wave (km/s) = 3.90960 4.06715 3.98915
# Velocity P-wave (km/s) = 6.48628 6.64198 6.56459
#
# Compressibility (1/GPa) = 0.02327240
#
# Stress axis : x y z
#
# Youngs Moduli (GPa) = 74.26776 53.41026 56.72583
#
# Poissons Ratio (x) = 0.30129 0.01218
# Poissons Ratio (y) = 0.41895 0.42069
# Poissons Ratio (z) = 0.01595 0.39610
#
# Static dielectric constant tensor:
#      x y z
#    x 3.772060 0.000000 0.000000 
#    y 0.000000 3.718860 0.000000 
#    z 0.000000 0.000000 3.327140 
# 
# 
# High freq. dielectric constant tensor:
#      x y z
#    x 1.782050 0.000000 0.000000 
#    y 0.000000 1.772750 0.000000 
#    z 0.000000 0.000000 1.781960 
# 
# From -- ./inp_files/31975.got.cif
#   From: 2010.03.12/outbox.cif.g09.slc.cpg/sg62_16_cif.got.tgz:31975.got - 2010.04.10 19:12:36.
