data_PCOD8254157
_publ_section_title
;
Structure prediction by ZEFSAII (Michael W. Deem and Ramdas Pophale) SiO2 
 PCOD8254157
Probable space group: P N M A
;
_chemical_formula_sum "Si O2"
_cell_formula_units_Z 40
_cell_length_a 13.451302
_cell_length_b 14.313320
_cell_length_c 9.795639
_cell_angle_alpha 90.000000
_cell_angle_beta 90.000000
_cell_angle_gamma 90.000000
_cell_volume 1885.981706
_symmetry_space_group_name_H-M "P N M A"
_symmetry_group_IT_number 62
_symmetry_cell_setting 'orthorhombic'
loop_
_space_group_symop_operation_xyz
x,y,z
1/2-x,-y,1/2+z
1/2+x,1/2-y,1/2-z
-x,1/2+y,-z
-x,-y,-z
1/2+x,y,1/2-z
1/2-x,1/2+y,1/2+z
x,1/2-y,z
loop_
_atom_site_type_symbol
_atom_site_label
_atom_site_fract_x
_atom_site_fract_y
_atom_site_fract_z
Si Si1 0.289695 0.450851 0.975536
Si Si2 0.591793 0.855593 0.259257
Si Si3 0.244012 0.350565 0.514132
Si Si4 0.067402 0.022445 0.872464
Si Si5 0.853342 0.352579 0.262721
O O1 0.320985 0.554985 0.033043
O O2 0.296444 0.377711 0.097998
O O3 0.363047 0.422471 0.855241
O O4 0.178106 0.449919 0.917239
O O5 0.585803 0.750000 0.204234
O O6 0.656320 0.861582 0.396967
O O7 0.480466 0.890752 0.291273
O O8 0.191407 0.250000 0.551246
O O9 0.271540 0.348503 0.355471
O O10 0.065352 0.931144 0.774232
O O11 0.000000 0.000000 0.000000
O O12 0.903857 0.250000 0.278847
#
# Coordination Sequence:
#
# PCOD8254157 Si02
#       5
#     8   8   8   8   8
#     4  11  22  40  67  94 131 172 212 268 333 379
#     4  11  23  41  64  97 134 171 217 269 320 392
#     4   9  18  35  60  87 124 166 211 260 312 376
#     4  11  23  40  70  94 129 175 219 265 325 392
#     4  10  21  39  62  95 131 165 214 274 318 377
#
# _framework density 21.209114
#
# number of rings (size 3 to 8) (size 9 to 14) (size 15 to 20)
#    0.000    1.600    4.000    3.000    0.000    2.400 
#    0.000    2.000    0.000    0.000    0.000    0.000 
#    0.000    0.000    0.000    0.000    0.000    0.000 
#
# Total GULP energy -495712.162468 kJ/mol
# GULP energy per Si atom -12392.804062 kJ/mol
# Density = 2.116084 g / cm^3
# Si number density = 21.209114 Si / 1000 Ang^3
#
#
#
# Elastic Constant Matrix: (Units=GPa)
#
#
# Indices 1 2 3 4 5 6 
#
# 1 56.2463 51.4868 23.6152 0.0000 0.0000 0.0000
# 2 51.4868 180.4206 43.8557 0.0000 0.0000 0.0000
# 3 23.6152 43.8557 91.5829 0.0000 0.0000 0.0000
# 4 0.0000 0.0000 0.0000 35.3395 0.0000 0.0000
# 5 0.0000 0.0000 0.0000 0.0000 31.0054 0.0000
# 6 0.0000 0.0000 0.0000 0.0000 0.0000 34.9821
#
#
#
# Elastic Compliance Matrix: (Units=1/GPa)
#
#
# Indices 1 2 3 4 5 6 
#
# 1 0.024981 -0.006296 -0.003427 0.000000 0.000000 0.000000
# 2 -0.006296 0.007859 -0.002140 0.000000 0.000000 0.000000
# 3 -0.003427 -0.002140 0.012827 0.000000 0.000000 0.000000
# 4 0.000000 0.000000 0.000000 0.028297 0.000000 0.000000
# 5 0.000000 0.000000 0.000000 0.000000 0.032252 0.000000
# 6 0.000000 0.000000 0.000000 0.000000 0.000000 0.028586
#
#
# Mechanical properties :
#
#
# Convention : Reuss Voigt Hill
#
# Bulk Modulus (GPa) = 45.57380 62.90726 54.24053
# Shear Modulus (GPa) = 30.14909 34.21821 32.18365
#
# Velocity S-wave (km/s) = 3.77439 4.02104 3.89966
# Velocity P-wave (km/s) = 6.36625 7.16123 6.77541
#
# Compressibility (1/GPa) = 0.02194243
#
# Stress axis : x y z
#
# Youngs Moduli (GPa) = 40.03089 127.23472 77.95753
#
# Poissons Ratio (x) = 0.80105 0.26713
# Poissons Ratio (y) = 0.25203 0.16684
# Poissons Ratio (z) = 0.13717 0.27231
#
# Static dielectric constant tensor:
#      x y z
#    x 3.691930 0.000000 0.000000 
#    y 0.000000 4.711490 0.000000 
#    z 0.000000 0.000000 3.915070 
# 
# 
# High freq. dielectric constant tensor:
#      x y z
#    x 1.779090 0.000000 0.000000 
#    y 0.000000 1.857920 0.000000 
#    z 0.000000 0.000000 1.844990 
# 
# From -- ./inp_files/6121.got.cif
#   From: 2010.03.12/outbox.cif.g09.slc.cpg/sg62_4_cif.got.tgz:6121.got - 2010.04.10 19:12:36.
