data_PCOD8254660
_publ_section_title
;
Structure prediction by ZEFSAII (Michael W. Deem and Ramdas Pophale) SiO2 
 PCOD8254660
Probable space group: P N M A
;
_chemical_formula_sum "Si O2"
_cell_formula_units_Z 48
_cell_length_a 29.175129
_cell_length_b 14.283462
_cell_length_c 5.195524
_cell_angle_alpha 90.000000
_cell_angle_beta 90.000000
_cell_angle_gamma 90.000000
_cell_volume 2165.088354
_symmetry_space_group_name_H-M "P N M A"
_symmetry_group_IT_number 62
_symmetry_cell_setting 'orthorhombic'
loop_
_space_group_symop_operation_xyz
x,y,z
1/2-x,-y,1/2+z
1/2+x,1/2-y,1/2-z
-x,1/2+y,-z
-x,-y,-z
1/2+x,y,1/2-z
1/2-x,1/2+y,1/2+z
x,1/2-y,z
loop_
_atom_site_type_symbol
_atom_site_label
_atom_site_fract_x
_atom_site_fract_y
_atom_site_fract_z
Si Si1 0.081229 0.143896 0.419925
Si Si2 0.359813 0.996731 0.624556
Si Si3 0.018330 0.639786 0.434938
Si Si4 0.330331 0.647690 0.243338
Si Si5 0.222834 0.479200 0.426769
Si Si6 0.427689 0.139358 0.432241
O O1 0.075456 0.250000 0.303896
O O2 0.117206 0.147470 0.650516
O O3 0.033176 0.101716 0.524622
O O4 0.098529 0.070951 0.207288
O O5 0.379647 0.086404 0.476000
O O6 0.325466 0.934176 0.451682
O O7 0.325301 0.032455 0.850631
O O8 0.015760 0.750000 0.453753
O O9 0.037317 0.609121 0.158333
O O10 0.051789 0.603828 0.661789
O O11 0.318309 0.750000 0.357088
O O12 0.293836 0.624910 0.015495
O O13 0.244580 0.530076 0.676781
O O14 0.417879 0.250000 0.435752
#
# Coordination Sequence:
#
# PCOD8254660 Si02
#       6
#     8   8   8   8   8   8
#     4   9  20  36  58  92 128 168 213 261 320 374
#     4  11  23  38  68  92 129 166 207 268 318 380
#     4   9  20  38  58  83 126 172 217 267 306 362
#     4  10  22  41  67  98 131 165 205 258 322 380
#     4  11  23  45  68  91 124 162 199 256 318 387
#     4  10  23  40  59  86 125 173 218 261 311 363
#
# _framework density 22.169996999999999
#
# number of rings (size 3 to 8) (size 9 to 14) (size 15 to 20)
#    0.000    2.000    1.667    0.500    7.000    2.000 
#    0.000    1.667    0.000    1.000    0.000    0.000 
#    0.000    0.000    0.000    0.000    0.000    0.000 
#
# Total GULP energy -594809.587836 kJ/mol
# GULP energy per Si atom -12391.866413 kJ/mol
# Density = 2.211954 g / cm^3
# Si number density = 22.169997 Si / 1000 Ang^3
#
#
#
# Elastic Constant Matrix: (Units=GPa)
#
#
# Indices 1 2 3 4 5 6 
#
# 1 97.0520 38.2127 18.8297 0.0000 0.0000 0.0000
# 2 38.2127 72.2149 23.0008 0.0000 0.0000 0.0000
# 3 18.8297 23.0008 83.6785 0.0000 0.0000 0.0000
# 4 0.0000 0.0000 0.0000 26.0915 0.0000 0.0000
# 5 0.0000 0.0000 0.0000 0.0000 36.6642 0.0000
# 6 0.0000 0.0000 0.0000 0.0000 0.0000 22.3879
#
#
#
# Elastic Compliance Matrix: (Units=1/GPa)
#
#
# Indices 1 2 3 4 5 6 
#
# 1 0.013115 -0.006575 -0.001144 0.000000 0.000000 0.000000
# 2 -0.006575 0.018473 -0.003598 0.000000 0.000000 0.000000
# 3 -0.001144 -0.003598 0.013197 0.000000 0.000000 0.000000
# 4 0.000000 0.000000 0.000000 0.038327 0.000000 0.000000
# 5 0.000000 0.000000 0.000000 0.000000 0.027275 0.000000
# 6 0.000000 0.000000 0.000000 0.000000 0.000000 0.044667
#
#
# Mechanical properties :
#
#
# Convention : Reuss Voigt Hill
#
# Bulk Modulus (GPa) = 45.14646 45.89240 45.51943
# Shear Modulus (GPa) = 27.01676 28.55552 27.78614
#
# Velocity S-wave (km/s) = 3.49466 3.59280 3.54407
# Velocity P-wave (km/s) = 6.05735 6.16085 6.10932
#
# Compressibility (1/GPa) = 0.02215013
#
# Stress axis : x y z
#
# Youngs Moduli (GPa) = 76.25088 54.13328 75.77554
#
# Poissons Ratio (x) = 0.35595 0.08667
# Poissons Ratio (y) = 0.50138 0.27264
# Poissons Ratio (z) = 0.08721 0.19477
#
# Static dielectric constant tensor:
#      x y z
#    x 4.119880 0.000000 0.000000 
#    y 0.000000 3.864380 0.000000 
#    z 0.000000 0.000000 4.102480 
# 
# 
# High freq. dielectric constant tensor:
#      x y z
#    x 1.873300 0.000000 0.000000 
#    y 0.000000 1.848910 0.000000 
#    z 0.000000 0.000000 1.875510 
# 
# From -- ./inp_files/3539.got.cif
#   From: 2010.03.12/outbox.cif.g09.slc.cpg/sg62_2_cif.got.tgz:3539.got - 2010.04.10 19:12:36.
