data_PCOD8254817
_publ_section_title
;
Structure prediction by ZEFSAII (Michael W. Deem and Ramdas Pophale) SiO2 
 PCOD8254817
Probable space group: P N M A
;
_chemical_formula_sum "Si O2"
_cell_formula_units_Z 48
_cell_length_a 27.185317
_cell_length_b 8.764179
_cell_length_c 9.807695
_cell_angle_alpha 90.000000
_cell_angle_beta 90.000000
_cell_angle_gamma 90.000000
_cell_volume 2336.751834
_symmetry_space_group_name_H-M "P N M A"
_symmetry_group_IT_number 62
_symmetry_cell_setting 'orthorhombic'
loop_
_space_group_symop_operation_xyz
x,y,z
1/2-x,-y,1/2+z
1/2+x,1/2-y,1/2-z
-x,1/2+y,-z
-x,-y,-z
1/2+x,y,1/2-z
1/2-x,1/2+y,1/2+z
x,1/2-y,z
loop_
_atom_site_type_symbol
_atom_site_label
_atom_site_fract_x
_atom_site_fract_y
_atom_site_fract_z
Si Si1 0.409306 0.571355 0.975155
Si Si2 0.936805 0.425403 0.246611
Si Si3 0.621853 0.924794 0.476178
Si Si4 0.538257 0.570144 0.269456
Si Si5 0.779874 0.570343 0.884283
Si Si6 0.202116 0.070453 0.419564
O O1 0.417913 0.750000 0.949750
O O2 0.447061 0.475348 0.883735
O O3 0.354291 0.521502 0.936875
O O4 0.419884 0.532597 0.130952
O O5 0.940919 0.250000 0.293922
O O6 0.896368 0.443819 0.129789
O O7 0.988913 0.481975 0.188344
O O8 0.634446 0.750000 0.442230
O O9 0.580597 0.985962 0.372197
O O10 0.670813 0.022528 0.461703
O O11 0.529044 0.750000 0.280111
O O12 0.776731 0.750000 0.885778
O O13 0.732544 0.505755 0.959894
O O14 0.779856 0.510819 0.728115
O O15 0.208878 0.250000 0.432878
#
# Coordination Sequence:
#
# PCOD8254817 Si02
#       6
#     8   8   8   8   8   8
#     4  11  23  42  64  89 125 164 206 256 303 361
#     4  11  24  40  61  92 127 164 205 253 304 362
#     4  10  23  42  64  91 126 162 203 255 307 362
#     4  11  22  40  65  92 122 163 208 252 308 365
#     4  11  24  42  67  94 122 161 204 251 307 365
#     4  10  24  44  64  92 126 160 202 253 307 363
#
# _framework density 20.541333999999999
#
# number of rings (size 3 to 8) (size 9 to 14) (size 15 to 20)
#    0.000    1.333    1.667    3.000    2.333    4.667 
#    0.000    0.000    0.000    0.000    0.000    0.000 
#    0.000    0.000    0.000    0.000    0.000    0.000 
#
# Total GULP energy -595546.832038 kJ/mol
# GULP energy per Si atom -12407.225667 kJ/mol
# Density = 2.049458 g / cm^3
# Si number density = 20.541334 Si / 1000 Ang^3
#
#
#
# Elastic Constant Matrix: (Units=GPa)
#
#
# Indices 1 2 3 4 5 6 
#
# 1 61.4238 26.6205 1.3446 0.0000 0.0000 0.0000
# 2 26.6205 31.4132 -1.0018 0.0000 0.0000 0.0000
# 3 1.3446 -1.0018 56.9807 0.0000 0.0000 0.0000
# 4 0.0000 0.0000 0.0000 28.1861 0.0000 0.0000
# 5 0.0000 0.0000 0.0000 0.0000 37.0927 0.0000
# 6 0.0000 0.0000 0.0000 0.0000 0.0000 36.5738
#
#
#
# Elastic Compliance Matrix: (Units=1/GPa)
#
#
# Indices 1 2 3 4 5 6 
#
# 1 0.025786 -0.021884 -0.000993 0.000000 0.000000 0.000000
# 2 -0.021884 0.050423 0.001403 0.000000 0.000000 0.000000
# 3 -0.000993 0.001403 0.017598 0.000000 0.000000 0.000000
# 4 0.000000 0.000000 0.000000 0.035478 0.000000 0.000000
# 5 0.000000 0.000000 0.000000 0.000000 0.026960 0.000000
# 6 0.000000 0.000000 0.000000 0.000000 0.000000 0.027342
#
#
# Mechanical properties :
#
#
# Convention : Reuss Voigt Hill
#
# Bulk Modulus (GPa) = 19.66202 22.63826 21.15014
# Shear Modulus (GPa) = 20.53484 28.56083 24.54783
#
# Velocity S-wave (km/s) = 3.16521 3.73286 3.46069
# Velocity P-wave (km/s) = 4.79070 5.44277 5.12711
#
# Compressibility (1/GPa) = 0.05085948
#
# Stress axis : x y z
#
# Youngs Moduli (GPa) = 38.78035 19.83207 56.82498
#
# Poissons Ratio (x) = 0.43400 0.05644
# Poissons Ratio (y) = 0.84866 -0.07972
# Poissons Ratio (z) = 0.03852 -0.02782
#
# Static dielectric constant tensor:
#      x y z
#    x 3.803180 0.000000 0.000000 
#    y 0.000000 3.675180 0.000000 
#    z 0.000000 0.000000 3.800670 
# 
# 
# High freq. dielectric constant tensor:
#      x y z
#    x 1.812540 0.000000 0.000000 
#    y 0.000000 1.803640 0.000000 
#    z 0.000000 0.000000 1.814290 
# 
# From -- ./inp_files/10181.got.cif
#   From: 2010.03.12/outbox.cif.g09.slc.cpg/sg62_6_cif.got.tgz:10181.got - 2010.04.10 19:12:36.
