data_PCOD8254921
_publ_section_title
;
Structure prediction by ZEFSAII (Michael W. Deem and Ramdas Pophale) SiO2 
 PCOD8254921
Probable space group: P N M A
;
_chemical_formula_sum "Si O2"
_cell_formula_units_Z 48
_cell_length_a 8.833940
_cell_length_b 17.051985
_cell_length_c 16.014179
_cell_angle_alpha 90.000000
_cell_angle_beta 90.000000
_cell_angle_gamma 90.000000
_cell_volume 2412.315269
_symmetry_space_group_name_H-M "P N M A"
_symmetry_group_IT_number 62
_symmetry_cell_setting 'orthorhombic'
loop_
_space_group_symop_operation_xyz
x,y,z
1/2-x,-y,1/2+z
1/2+x,1/2-y,1/2-z
-x,1/2+y,-z
-x,-y,-z
1/2+x,y,1/2-z
1/2-x,1/2+y,1/2+z
x,1/2-y,z
loop_
_atom_site_type_symbol
_atom_site_label
_atom_site_fract_x
_atom_site_fract_y
_atom_site_fract_z
Si Si1 0.968408 0.660509 0.659374
Si Si2 0.671437 0.659990 0.993341
Si Si3 0.840875 0.418620 0.204715
Si Si4 0.917477 0.542599 0.925621
Si Si5 0.541888 0.842392 0.171539
Si Si6 0.751112 0.432216 0.797182
O O1 0.922574 0.750000 0.676333
O O2 0.824446 0.606118 0.674233
O O3 0.024338 0.647765 0.564852
O O4 0.106311 0.636893 0.719893
O O5 0.725212 0.750000 0.989671
O O6 0.808962 0.607771 0.963190
O O7 0.628437 0.634984 0.086798
O O8 0.832076 0.508315 0.234282
O O9 0.960695 0.411667 0.130454
O O10 0.825499 0.479299 0.872795
O O11 0.000000 0.500000 0.000000
O O12 0.538102 0.750000 0.186085
O O13 0.371129 0.873114 0.164584
O O14 0.623264 0.882073 0.249700
#
# Coordination Sequence:
#
# PCOD8254921 Si02
#       6
#     8   8   8   8   8   8
#     4  11  22  39  64  95 132 176 214 261 323 390
#     4  10  24  45  67  96 136 175 217 272 332 394
#     4  12  22  41  63  96 130 169 219 266 322 389
#     4  12  26  42  66 100 130 173 221 273 333 387
#     4  11  25  45  68  94 127 175 222 273 331 389
#     4  12  23  44  67  95 130 168 221 273 325 394
#
# _framework density 19.897895999999999
#
# number of rings (size 3 to 8) (size 9 to 14) (size 15 to 20)
#    0.000    0.667    5.000    2.000    2.333    3.333 
#    0.000    0.833    0.000    0.000    0.000    0.000 
#    0.000    0.000    0.000    0.000    0.000    0.000 
#
# Total GULP energy -595527.113519 kJ/mol
# GULP energy per Si atom -12406.814865 kJ/mol
# Density = 1.985261 g / cm^3
# Si number density = 19.897896 Si / 1000 Ang^3
#
#
#
# Elastic Constant Matrix: (Units=GPa)
#
#
# Indices 1 2 3 4 5 6 
#
# 1 117.6007 48.2300 52.8712 0.0000 0.0000 0.0000
# 2 48.2300 88.8453 54.6631 0.0000 0.0000 0.0000
# 3 52.8712 54.6631 100.4907 0.0000 0.0000 0.0000
# 4 0.0000 0.0000 0.0000 35.1154 0.0000 0.0000
# 5 0.0000 0.0000 0.0000 0.0000 36.8626 0.0000
# 6 0.0000 0.0000 0.0000 0.0000 0.0000 37.3091
#
#
#
# Elastic Compliance Matrix: (Units=1/GPa)
#
#
# Indices 1 2 3 4 5 6 
#
# 1 0.011995 -0.003951 -0.004162 0.000000 0.000000 0.000000
# 2 -0.003951 0.018219 -0.007832 0.000000 0.000000 0.000000
# 3 -0.004162 -0.007832 0.016401 0.000000 0.000000 0.000000
# 4 0.000000 0.000000 0.000000 0.028478 0.000000 0.000000
# 5 0.000000 0.000000 0.000000 0.000000 0.027128 0.000000
# 6 0.000000 0.000000 0.000000 0.000000 0.000000 0.026803
#
#
# Mechanical properties :
#
#
# Convention : Reuss Voigt Hill
#
# Bulk Modulus (GPa) = 67.90712 68.71836 68.31274
# Shear Modulus (GPa) = 30.15324 31.93558 31.04441
#
# Velocity S-wave (km/s) = 3.89704 4.01056 3.95420
# Velocity P-wave (km/s) = 7.37910 7.48709 7.43329
#
# Compressibility (1/GPa) = 0.01472600
#
# Stress axis : x y z
#
# Youngs Moduli (GPa) = 83.37043 54.88845 60.97239
#
# Poissons Ratio (x) = 0.21686 0.25375
# Poissons Ratio (y) = 0.32938 0.47752
# Poissons Ratio (z) = 0.34696 0.42987
#
# Static dielectric constant tensor:
#      x y z
#    x 3.665980 0.000000 0.000000 
#    y 0.000000 3.866340 0.000000 
#    z 0.000000 0.000000 3.809750 
# 
# 
# High freq. dielectric constant tensor:
#      x y z
#    x 1.786560 0.000000 0.000000 
#    y 0.000000 1.785710 0.000000 
#    z 0.000000 0.000000 1.785670 
# 
# From -- ./inp_files/16939.got.cif
#   From: 2010.03.12/outbox.cif.g09.slc.cpg/sg62_9_cif.got.tgz:16939.got - 2010.04.10 19:12:36.
