data_PCOD8254564
_publ_section_title
;
Structure prediction by ZEFSAII (Michael W. Deem and Ramdas Pophale) SiO2 
 PCOD8254564
Probable space group: P N M A
;
_chemical_formula_sum "Si O2"
_cell_formula_units_Z 48
_cell_length_a 8.667475
_cell_length_b 10.613535
_cell_length_c 25.539809
_cell_angle_alpha 90.000000
_cell_angle_beta 90.000000
_cell_angle_gamma 90.000000
_cell_volume 2349.472138
_symmetry_space_group_name_H-M "P N M A"
_symmetry_group_IT_number 62
_symmetry_cell_setting 'orthorhombic'
loop_
_space_group_symop_operation_xyz
x,y,z
1/2-x,-y,1/2+z
1/2+x,1/2-y,1/2-z
-x,1/2+y,-z
-x,-y,-z
1/2+x,y,1/2-z
1/2-x,1/2+y,1/2+z
x,1/2-y,z
loop_
_atom_site_type_symbol
_atom_site_label
_atom_site_fract_x
_atom_site_fract_y
_atom_site_fract_z
Si Si1 0.383875 0.750000 0.677974
Si Si2 0.635687 0.503855 0.199642
Si Si3 0.145419 0.007806 0.114092
Si Si4 0.967928 0.250000 0.284031
Si Si5 0.681300 0.391251 0.606569
Si Si6 0.681981 0.391633 0.793780
Si Si7 0.866416 0.602666 0.993923
O O1 0.418872 0.871850 0.644205
O O2 0.516533 0.750000 0.721661
O O3 0.210841 0.750000 0.700865
O O4 0.554241 0.370367 0.192827
O O5 0.728244 0.519271 0.145869
O O6 0.748669 0.513349 0.249998
O O7 0.502980 0.607542 0.208688
O O8 0.220731 0.058053 0.059312
O O9 0.272696 0.934955 0.147862
O O10 0.001577 0.915393 0.105901
O O11 0.709196 0.250000 0.626712
O O12 0.740139 0.408061 0.546196
O O13 0.739374 0.250000 0.782552
O O14 0.922984 0.750000 0.988795
O O15 0.000000 0.500000 0.000000
#
# Coordination Sequence:
#
# PCOD8254564 Si02
#       7
#     4   8   8   4   8   8   8
#     4  12  24  40  60  88 124 158 204 251 305 358
#     4  12  24  41  61  88 123 160 204 247 310 358
#     4  11  21  38  64  89 119 162 201 251 308 359
#     4  12  24  42  60  90 124 160 210 251 297 370
#     4  10  22  40  62  92 124 158 203 254 301 364
#     4  12  24  39  61  88 122 160 200 249 302 373
#     4   9  19  37  62  90 122 158 206 255 308 364
#
# _framework density 20.430122000000001
#
# number of rings (size 3 to 8) (size 9 to 14) (size 15 to 20)
#    0.000    1.000    4.167    3.000    2.333    0.667 
#    1.500    0.833    0.000    0.000    0.000    0.000 
#    0.000    0.000    0.000    0.000    0.000    0.000 
#
# Total GULP energy -594958.895173 kJ/mol
# GULP energy per Si atom -12394.976983 kJ/mol
# Density = 2.038362 g / cm^3
# Si number density = 20.430122 Si / 1000 Ang^3
#
#
#
# Elastic Constant Matrix: (Units=GPa)
#
#
# Indices 1 2 3 4 5 6 
#
# 1 54.8097 -2.1581 35.7745 0.0000 0.0000 0.0000
# 2 -2.1581 90.2635 27.3506 0.0000 0.0000 0.0000
# 3 35.7745 27.3506 157.5893 0.0000 0.0000 0.0000
# 4 0.0000 0.0000 0.0000 -4.7346 0.0000 0.0000
# 5 0.0000 0.0000 0.0000 0.0000 26.9874 0.0000
# 6 0.0000 0.0000 0.0000 0.0000 0.0000 24.4111
#
#
#
# Elastic Compliance Matrix: (Units=1/GPa)
#
#
# Indices 1 2 3 4 5 6 
#
# 1 0.021801 0.002133 -0.005319 0.000000 0.000000 0.000000
# 2 0.002133 0.011902 -0.002550 0.000000 0.000000 0.000000
# 3 -0.005319 -0.002550 0.007996 0.000000 0.000000 0.000000
# 4 0.000000 0.000000 0.000000 -0.211213 0.000000 0.000000
# 5 0.000000 0.000000 0.000000 0.000000 0.037054 0.000000
# 6 0.000000 0.000000 0.000000 0.000000 0.000000 0.040965
#
#
# Mechanical properties :
#
#
# Convention : Reuss Voigt Hill
#
# Bulk Modulus (GPa) = 33.08354 47.17739 40.13046
# Shear Modulus (GPa) = -71.48285 25.44581 -23.01852
#
# Velocity S-wave (km/s) = -5.92156 3.53300 -3.36027
# Velocity P-wave (km/s) = 5.52490 6.30753 2.15179
#
# Compressibility (1/GPa) = 0.03022651
#
# Stress axis : x y z
#
# Youngs Moduli (GPa) = 45.86986 84.01717 125.06752
#
# Poissons Ratio (x) = -0.17921 0.66526
# Poissons Ratio (y) = -0.09784 0.31891
# Poissons Ratio (z) = 0.24399 0.21424
#
# Static dielectric constant tensor:
#      x y z
#    x 3.317140 0.000000 0.000000 
#    y 0.000000 3.914690 0.000000 
#    z 0.000000 0.000000 4.231020 
# 
# 
# High freq. dielectric constant tensor:
#      x y z
#    x 1.759690 0.000000 0.000000 
#    y 0.000000 1.820120 0.000000 
#    z 0.000000 0.000000 1.813520 
# 
# From -- ./inp_files/28836.got.cif
#   From: 2010.03.12/outbox.cif.g09.slc.cpg/sg62_15_cif.got.tgz:28836.got - 2010.04.10 19:12:36.
