data_PCOD8254481
_publ_section_title
;
Structure prediction by ZEFSAII (Michael W. Deem and Ramdas Pophale) SiO2 
 PCOD8254481
Probable space group: P N M A
;
_chemical_formula_sum "Si O2"
_cell_formula_units_Z 32
_cell_length_a 20.567521
_cell_length_b 14.059537
_cell_length_c 4.840621
_cell_angle_alpha 90.000000
_cell_angle_beta 90.000000
_cell_angle_gamma 90.000000
_cell_volume 1399.761515
_symmetry_space_group_name_H-M "P N M A"
_symmetry_group_IT_number 62
_symmetry_cell_setting 'orthorhombic'
loop_
_space_group_symop_operation_xyz
x,y,z
1/2-x,-y,1/2+z
1/2+x,1/2-y,1/2-z
-x,1/2+y,-z
-x,-y,-z
1/2+x,y,1/2-z
1/2-x,1/2+y,1/2+z
x,1/2-y,z
loop_
_atom_site_type_symbol
_atom_site_label
_atom_site_fract_x
_atom_site_fract_y
_atom_site_fract_z
Si Si1 0.207657 0.987663 0.287359
Si Si2 0.905439 0.142233 0.705341
Si Si3 0.585560 0.045951 0.945547
Si Si4 0.028278 0.142643 0.057090
O O1 0.167862 0.890695 0.208831
O O2 0.265524 0.966493 0.505028
O O3 0.159163 0.062773 0.441460
O O4 0.904719 0.250000 0.585177
O O5 0.931158 0.066963 0.475205
O O6 0.952902 0.134514 0.969133
O O7 0.536079 0.108948 0.128554
O O8 0.575286 0.075515 0.628834
O O9 0.053082 0.250000 0.025856
#
# Coordination Sequence:
#
# PCOD8254481 Si02
#       4
#     8   8   8   8
#     4  10  22  40  61  84 121 159 209 247 292 354
#     4   9  22  39  67  91 123 161 204 248 308 368
#     4  10  22  38  66  87 125 159 201 253 307 346
#     4  11  21  39  61  98 125 157 201 250 310 368
#
# _framework density 22.861035999999999
#
# number of rings (size 3 to 8) (size 9 to 14) (size 15 to 20)
#    1.500    0.500    0.000    3.750    0.000    2.000 
#    0.000   17.500    0.000    0.000    0.000    0.000 
#    0.000    0.000    0.000    0.000    0.000    0.000 
#
# Total GULP energy -396487.211967 kJ/mol
# GULP energy per Si atom -12390.225374 kJ/mol
# Density = 2.280900 g / cm^3
# Si number density = 22.861036 Si / 1000 Ang^3
#
#
#
# Elastic Constant Matrix: (Units=GPa)
#
#
# Indices 1 2 3 4 5 6 
#
# 1 86.2481 31.7874 3.4475 0.0000 0.0000 0.0000
# 2 31.7874 129.8532 2.3204 0.0000 0.0000 0.0000
# 3 3.4475 2.3204 59.4008 0.0000 0.0000 0.0000
# 4 0.0000 0.0000 0.0000 -17.2880 0.0000 0.0000
# 5 0.0000 0.0000 0.0000 0.0000 19.5399 0.0000
# 6 0.0000 0.0000 0.0000 0.0000 0.0000 29.6539
#
#
#
# Elastic Compliance Matrix: (Units=1/GPa)
#
#
# Indices 1 2 3 4 5 6 
#
# 1 0.012767 -0.003114 -0.000619 0.000000 0.000000 0.000000
# 2 -0.003114 0.008466 -0.000150 0.000000 0.000000 0.000000
# 3 -0.000619 -0.000150 0.016877 0.000000 0.000000 0.000000
# 4 0.000000 0.000000 0.000000 -0.057844 0.000000 0.000000
# 5 0.000000 0.000000 0.000000 0.000000 0.051177 0.000000
# 6 0.000000 0.000000 0.000000 0.000000 0.000000 0.033722
#
#
# Mechanical properties :
#
#
# Convention : Reuss Voigt Hill
#
# Bulk Modulus (GPa) = 32.95700 38.95697 35.95699
# Shear Modulus (GPa) = 60.20686 22.24427 41.22556
#
# Velocity S-wave (km/s) = 5.13743 3.12271 4.25115
# Velocity P-wave (km/s) = 7.04546 5.48448 6.31340
#
# Compressibility (1/GPa) = 0.03034257
#
# Stress axis : x y z
#
# Youngs Moduli (GPa) = 78.32700 118.11905 59.25370
#
# Poissons Ratio (x) = 0.36785 0.03670
# Poissons Ratio (y) = 0.24393 0.00889
# Poissons Ratio (z) = 0.04851 0.01771
#
# Static dielectric constant tensor:
#      x y z
#    x 4.173430 0.000000 0.000000 
#    y 0.000000 3.950270 0.000000 
#    z 0.000000 0.000000 3.710190 
# 
# 
# High freq. dielectric constant tensor:
#      x y z
#    x 1.908790 0.000000 0.000000 
#    y 0.000000 1.874540 0.000000 
#    z 0.000000 0.000000 1.899950 
# 
# From -- ./inp_files/2050.got.cif
#   From: 2010.03.12/outbox.cif.g09.slc.cpg/sg62_2_cif.got.tgz:2050.got - 2010.04.10 19:12:36.
