data_PCOD8254910
_publ_section_title
;
Structure prediction by ZEFSAII (Michael W. Deem and Ramdas Pophale) SiO2 
 PCOD8254910
Probable space group: P N M A
;
_chemical_formula_sum "Si O2"
_cell_formula_units_Z 64
_cell_length_a 23.871397
_cell_length_b 8.582428
_cell_length_c 15.172995
_cell_angle_alpha 90.000000
_cell_angle_beta 90.000000
_cell_angle_gamma 90.000000
_cell_volume 3108.560462
_symmetry_space_group_name_H-M "P N M A"
_symmetry_group_IT_number 62
_symmetry_cell_setting 'orthorhombic'
loop_
_space_group_symop_operation_xyz
x,y,z
1/2-x,-y,1/2+z
1/2+x,1/2-y,1/2-z
-x,1/2+y,-z
-x,-y,-z
1/2+x,y,1/2-z
1/2-x,1/2+y,1/2+z
x,1/2-y,z
loop_
_atom_site_type_symbol
_atom_site_label
_atom_site_fract_x
_atom_site_fract_y
_atom_site_fract_z
Si Si1 0.725747 0.928851 0.588843
Si Si2 0.380900 0.071517 0.149988
Si Si3 0.877732 0.568713 0.168137
Si Si4 0.999301 0.567582 0.097271
Si Si5 0.572185 0.433648 0.248912
Si Si6 0.228136 0.072976 0.602800
Si Si7 0.695810 0.934405 0.234264
Si Si8 0.495087 0.568472 0.096802
O O1 0.720102 0.750000 0.619281
O O2 0.737934 0.941028 0.486300
O O3 0.667249 0.020865 0.595091
O O4 0.774276 0.011115 0.644993
O O5 0.398986 0.250000 0.136136
O O6 0.361521 0.036949 0.248940
O O7 0.327371 0.031669 0.090142
O O8 0.432346 0.958965 0.129327
O O9 0.872145 0.750000 0.191547
O O10 0.939523 0.524918 0.137656
O O11 0.009655 0.750000 0.092079
O O12 0.047012 0.496708 0.159525
O O13 0.000000 0.500000 0.000000
O O14 0.567789 0.250000 0.250816
O O15 0.636043 0.484284 0.241074
O O16 0.538824 0.492369 0.163610
O O17 0.209329 0.250000 0.621982
O O18 0.266927 0.012325 0.682476
O O19 0.686978 0.750000 0.232686
O O20 0.508275 0.750000 0.094298
O O21 0.500000 0.500000 0.000000
#
# Coordination Sequence:
#
# PCOD8254910 Si02
#       8
#     8   8   8   8   8   8   8   8
#     4  11  24  42  66  98 130 169 219 270 325 388
#     4  12  24  41  69  99 129 169 219 271 326 386
#     4  11  23  42  67  95 130 171 216 270 330 387
#     4  11  25  44  68  98 133 175 222 273 330 392
#     4  12  26  45  68  97 134 175 221 272 328 393
#     4  10  24  44  66  94 132 173 215 266 327 388
#     4  11  24  44  67  93 131 177 218 266 329 392
#     4  12  26  46  70  98 133 173 220 271 330 393
#
# _framework density 20.588308000000001
#
# number of rings (size 3 to 8) (size 9 to 14) (size 15 to 20)
#    0.000    0.750    2.500    4.875    3.500    3.000 
#    0.000    0.000    0.000    0.000    0.000    0.000 
#    0.000    0.000    0.000    0.000    0.000    0.000 
#
# Total GULP energy -793950.741282 kJ/mol
# GULP energy per Si atom -12405.480333 kJ/mol
# Density = 2.054145 g / cm^3
# Si number density = 20.588308 Si / 1000 Ang^3
#
#
#
# Elastic Constant Matrix: (Units=GPa)
#
#
# Indices 1 2 3 4 5 6 
#
# 1 100.9346 34.7667 16.9688 0.0000 0.0000 0.0000
# 2 34.7667 92.1757 22.7880 0.0000 0.0000 0.0000
# 3 16.9688 22.7880 95.0376 0.0000 0.0000 0.0000
# 4 0.0000 0.0000 0.0000 35.5657 0.0000 0.0000
# 5 0.0000 0.0000 0.0000 0.0000 17.8096 0.0000
# 6 0.0000 0.0000 0.0000 0.0000 0.0000 37.7572
#
#
#
# Elastic Compliance Matrix: (Units=1/GPa)
#
#
# Indices 1 2 3 4 5 6 
#
# 1 0.011489 -0.004067 -0.001076 0.000000 0.000000 0.000000
# 2 -0.004067 0.012972 -0.002384 0.000000 0.000000 0.000000
# 3 -0.001076 -0.002384 0.011286 0.000000 0.000000 0.000000
# 4 0.000000 0.000000 0.000000 0.028117 0.000000 0.000000
# 5 0.000000 0.000000 0.000000 0.000000 0.056150 0.000000
# 6 0.000000 0.000000 0.000000 0.000000 0.000000 0.026485
#
#
# Mechanical properties :
#
#
# Convention : Reuss Voigt Hill
#
# Bulk Modulus (GPa) = 48.32776 48.57722 48.45249
# Shear Modulus (GPa) = 29.68196 32.46811 31.07504
#
# Velocity S-wave (km/s) = 3.80108 3.97548 3.88925
# Velocity P-wave (km/s) = 6.54130 6.68718 6.61464
#
# Compressibility (1/GPa) = 0.02069204
#
# Stress axis : x y z
#
# Youngs Moduli (GPa) = 87.03703 77.08634 88.60548
#
# Poissons Ratio (x) = 0.31355 0.09535
# Poissons Ratio (y) = 0.35402 0.21126
# Poissons Ratio (z) = 0.09366 0.18380
#
# Static dielectric constant tensor:
#      x y z
#    x 3.865620 0.000000 0.000000 
#    y 0.000000 3.954410 0.000000 
#    z 0.000000 0.000000 3.721070 
# 
# 
# High freq. dielectric constant tensor:
#      x y z
#    x 1.820160 0.000000 0.000000 
#    y 0.000000 1.817290 0.000000 
#    z 0.000000 0.000000 1.814380 
# 
# From -- ./inp_files/20954.got.cif
#   From: 2010.03.12/outbox.cif.g09.slc.cpg/sg62_11_cif.got.tgz:20954.got - 2010.04.10 19:12:36.
