data_PCOD8254202
_publ_section_title
;
Structure prediction by ZEFSAII (Michael W. Deem and Ramdas Pophale) SiO2 
 PCOD8254202
Probable space group: P N M A
;
_chemical_formula_sum "Si O2"
_cell_formula_units_Z 64
_cell_length_a 8.890659
_cell_length_b 31.706465
_cell_length_c 11.024596
_cell_angle_alpha 90.000000
_cell_angle_beta 90.000000
_cell_angle_gamma 90.000000
_cell_volume 3107.738453
_symmetry_space_group_name_H-M "P N M A"
_symmetry_group_IT_number 62
_symmetry_cell_setting 'orthorhombic'
loop_
_space_group_symop_operation_xyz
x,y,z
1/2-x,-y,1/2+z
1/2+x,1/2-y,1/2-z
-x,1/2+y,-z
-x,-y,-z
1/2+x,y,1/2-z
1/2-x,1/2+y,1/2+z
x,1/2-y,z
loop_
_atom_site_type_symbol
_atom_site_label
_atom_site_fract_x
_atom_site_fract_y
_atom_site_fract_z
Si Si1 0.606248 0.066016 0.411630
Si Si2 0.788320 0.443310 0.189237
Si Si3 0.493630 0.200719 0.164498
Si Si4 0.161215 0.298259 0.092605
Si Si5 0.498297 0.641584 0.438534
Si Si6 0.227429 0.036070 0.845299
Si Si7 0.320320 0.632211 0.979165
Si Si8 0.517699 0.411362 0.803757
O O1 0.465501 0.048949 0.332603
O O2 0.755036 0.069071 0.328411
O O3 0.562682 0.111974 0.454928
O O4 0.638610 0.036640 0.527134
O O5 0.708897 0.488869 0.168623
O O6 0.717137 0.407386 0.106060
O O7 0.520086 0.250000 0.129730
O O8 0.533199 0.193647 0.305789
O O9 0.322708 0.185389 0.141892
O O10 0.601550 0.171106 0.086602
O O11 0.181887 0.250000 0.061912
O O12 0.106585 0.317772 0.963650
O O13 0.672527 0.651643 0.459431
O O14 0.480903 0.621831 0.306578
O O15 0.117500 0.048143 0.733474
O O16 0.355216 0.071553 0.840458
O O17 0.426989 0.614155 0.081833
#
# Coordination Sequence:
#
# PCOD8254202 Si02
#       8
#     8   8   8   8   8   8   8   8
#     4  10  24  39  60  90 123 166 209 273 322 378
#     4  11  24  40  62  92 127 163 222 270 324 385
#     4  10  22  39  64  99 135 169 204 260 325 390
#     4  10  21  39  67  98 132 168 207 258 325 387
#     4  10  22  42  61  90 124 166 215 263 316 383
#     4  11  24  42  64  84 129 169 217 272 329 379
#     4  11  24  39  63  92 126 168 218 264 320 387
#     4  11  24  42  63  89 121 176 219 263 324 386
#
# _framework density 20.593755000000002
#
# number of rings (size 3 to 8) (size 9 to 14) (size 15 to 20)
#    0.000    1.500    1.250    2.625    7.000    4.000 
#    0.000    0.625    0.000    0.000    0.000    0.000 
#    0.000    0.000    0.000    0.000    0.000    0.000 
#
# Total GULP energy -793461.292888 kJ/mol
# GULP energy per Si atom -12397.832701 kJ/mol
# Density = 2.054688 g / cm^3
# Si number density = 20.593755 Si / 1000 Ang^3
#
#
#
# Elastic Constant Matrix: (Units=GPa)
#
#
# Indices 1 2 3 4 5 6 
#
# 1 68.9919 12.6827 13.3334 0.0000 0.0000 0.0000
# 2 12.6827 59.5149 26.4751 0.0000 0.0000 0.0000
# 3 13.3334 26.4751 68.9814 0.0000 0.0000 0.0000
# 4 0.0000 0.0000 0.0000 22.4367 0.0000 0.0000
# 5 0.0000 0.0000 0.0000 0.0000 32.6792 0.0000
# 6 0.0000 0.0000 0.0000 0.0000 0.0000 29.6943
#
#
#
# Elastic Compliance Matrix: (Units=1/GPa)
#
#
# Indices 1 2 3 4 5 6 
#
# 1 0.015324 -0.002349 -0.002060 0.000000 0.000000 0.000000
# 2 -0.002349 0.020622 -0.007461 0.000000 0.000000 0.000000
# 3 -0.002060 -0.007461 0.017758 0.000000 0.000000 0.000000
# 4 0.000000 0.000000 0.000000 0.044570 0.000000 0.000000
# 5 0.000000 0.000000 0.000000 0.000000 0.030601 0.000000
# 6 0.000000 0.000000 0.000000 0.000000 0.000000 0.033677
#
#
# Mechanical properties :
#
#
# Convention : Reuss Voigt Hill
#
# Bulk Modulus (GPa) = 33.37300 33.60785 33.49042
# Shear Modulus (GPa) = 25.47377 26.62850 26.05113
#
# Velocity S-wave (km/s) = 3.52087 3.59978 3.56054
# Velocity P-wave (km/s) = 5.72444 5.79938 5.76203
#
# Compressibility (1/GPa) = 0.02996434
#
# Stress axis : x y z
#
# Youngs Moduli (GPa) = 65.25499 48.49195 56.31155
#
# Poissons Ratio (x) = 0.11391 0.11603
# Poissons Ratio (y) = 0.15329 0.42012
# Poissons Ratio (z) = 0.13446 0.36178
#
# Static dielectric constant tensor:
#      x y z
#    x 3.957810 0.000000 0.000000 
#    y 0.000000 3.721640 0.000000 
#    z 0.000000 0.000000 3.670320 
# 
# 
# High freq. dielectric constant tensor:
#      x y z
#    x 1.817280 0.000000 0.000000 
#    y 0.000000 1.804720 0.000000 
#    z 0.000000 0.000000 1.797750 
# 
# From -- ./inp_files/11578.got.cif
#   From: 2010.03.12/outbox.cif.g09.slc.cpg/sg62_6_cif.got.tgz:11578.got - 2010.04.10 19:12:36.
