data_PCOD8254971
_publ_section_title
;
Structure prediction by ZEFSAII (Michael W. Deem and Ramdas Pophale) SiO2 
 PCOD8254971
Probable space group: P N M A
;
_chemical_formula_sum "Si O2"
_cell_formula_units_Z 64
_cell_length_a 8.466197
_cell_length_b 21.778257
_cell_length_c 18.521964
_cell_angle_alpha 90.000000
_cell_angle_beta 90.000000
_cell_angle_gamma 90.000000
_cell_volume 3415.061461
_symmetry_space_group_name_H-M "P N M A"
_symmetry_group_IT_number 62
_symmetry_cell_setting 'orthorhombic'
loop_
_space_group_symop_operation_xyz
x,y,z
1/2-x,-y,1/2+z
1/2+x,1/2-y,1/2-z
-x,1/2+y,-z
-x,-y,-z
1/2+x,y,1/2-z
1/2-x,1/2+y,1/2+z
x,1/2-y,z
loop_
_atom_site_type_symbol
_atom_site_label
_atom_site_fract_x
_atom_site_fract_y
_atom_site_fract_z
Si Si1 0.464477 0.612634 0.087475
Si Si2 0.759056 0.041858 0.020431
Si Si3 0.776754 0.368032 0.803937
Si Si4 0.779040 0.509312 0.808610
Si Si5 0.757056 0.178877 0.518916
Si Si6 0.576904 0.005087 0.156688
Si Si7 0.612867 0.180760 0.671223
Si Si8 0.897372 0.926783 0.943818
O O1 0.363457 0.654794 0.142741
O O2 0.565160 0.657133 0.036549
O O3 0.573919 0.567165 0.135738
O O4 0.342298 0.571965 0.042294
O O5 0.649291 0.042958 0.090734
O O6 0.919386 0.079427 0.034505
O O7 0.803335 0.972669 0.997197
O O8 0.817629 0.438152 0.823953
O O9 0.715174 0.363899 0.721859
O O10 0.927745 0.326243 0.815672
O O11 0.599257 0.527568 0.825197
O O12 0.814550 0.521117 0.724995
O O13 0.888507 0.550253 0.861075
O O14 0.759849 0.250000 0.496028
O O15 0.648468 0.165906 0.588352
O O16 0.683697 0.139889 0.452952
O O17 0.663134 0.250000 0.690102
#
# Coordination Sequence:
#
# PCOD8254971 Si02
#       8
#     8   8   8   8   8   8   8   8
#     4  11  21  37  55  85 118 155 192 243 291 350
#     4  11  21  36  61  89 117 154 186 248 307 352
#     4  11  21  34  53  78 113 156 198 243 287 337
#     4  11  22  34  55  87 118 155 192 244 304 352
#     4  11  24  39  58  81 113 158 201 240 284 350
#     4  11  20  34  54  85 122 149 189 238 297 359
#     4  11  23  37  52  76 114 162 205 241 281 339
#     4  11  22  38  60  86 120 151 198 241 307 352
#
# _framework density 18.740511999999999
#
# number of rings (size 3 to 8) (size 9 to 14) (size 15 to 20)
#    0.000    1.000    3.750    6.000    1.750    2.000 
#    0.000    0.625    0.000    0.000    0.000    7.875 
#    0.000    0.000    0.000    0.000    0.000    0.000 
#
# Total GULP energy -793744.999550 kJ/mol
# GULP energy per Si atom -12402.265618 kJ/mol
# Density = 1.869786 g / cm^3
# Si number density = 18.740512 Si / 1000 Ang^3
#
#
#
# Elastic Constant Matrix: (Units=GPa)
#
#
# Indices 1 2 3 4 5 6 
#
# 1 81.9331 28.8586 21.4759 0.0000 0.0000 0.0000
# 2 28.8586 81.4330 31.4845 0.0000 0.0000 0.0000
# 3 21.4759 31.4845 94.3517 0.0000 0.0000 0.0000
# 4 0.0000 0.0000 0.0000 24.8528 0.0000 0.0000
# 5 0.0000 0.0000 0.0000 0.0000 37.8591 0.0000
# 6 0.0000 0.0000 0.0000 0.0000 0.0000 21.3220
#
#
#
# Elastic Compliance Matrix: (Units=1/GPa)
#
#
# Indices 1 2 3 4 5 6 
#
# 1 0.014202 -0.004344 -0.001783 0.000000 0.000000 0.000000
# 2 -0.004344 0.015427 -0.004159 0.000000 0.000000 0.000000
# 3 -0.001783 -0.004159 0.012392 0.000000 0.000000 0.000000
# 4 0.000000 0.000000 0.000000 0.040237 0.000000 0.000000
# 5 0.000000 0.000000 0.000000 0.000000 0.026414 0.000000
# 6 0.000000 0.000000 0.000000 0.000000 0.000000 0.046900
#
#
# Mechanical properties :
#
#
# Convention : Reuss Voigt Hill
#
# Bulk Modulus (GPa) = 46.62030 46.81729 46.71880
# Shear Modulus (GPa) = 27.27837 28.53337 27.90587
#
# Velocity S-wave (km/s) = 3.81935 3.90622 3.86303
# Velocity P-wave (km/s) = 6.66188 6.73653 6.69931
#
# Compressibility (1/GPa) = 0.02144988
#
# Stress axis : x y z
#
# Youngs Moduli (GPa) = 70.41048 64.81932 80.69402
#
# Poissons Ratio (x) = 0.28155 0.14390
# Poissons Ratio (y) = 0.30584 0.33564
# Poissons Ratio (z) = 0.12556 0.26961
#
# Static dielectric constant tensor:
#      x y z
#    x 3.626460 0.000000 0.000000 
#    y 0.000000 3.125610 0.000000 
#    z 0.000000 0.000000 3.455740 
# 
# 
# High freq. dielectric constant tensor:
#      x y z
#    x 1.745550 0.000000 0.000000 
#    y 0.000000 1.684740 0.000000 
#    z 0.000000 0.000000 1.725920 
# 
# From -- ./inp_files/22549.got.cif
#   From: 2010.03.12/outbox.cif.g09.slc.cpg/sg62_12_cif.got.tgz:22549.got - 2010.04.10 19:12:36.
