data_PCOD8254358
_publ_section_title
;
Structure prediction by ZEFSAII (Michael W. Deem and Ramdas Pophale) SiO2 
 PCOD8254358
Probable space group: P N M A
;
_chemical_formula_sum "Si O2"
_cell_formula_units_Z 40
_cell_length_a 9.407904
_cell_length_b 14.094341
_cell_length_c 13.641549
_cell_angle_alpha 90.000000
_cell_angle_beta 90.000000
_cell_angle_gamma 90.000000
_cell_volume 1808.844939
_symmetry_space_group_name_H-M "P N M A"
_symmetry_group_IT_number 62
_symmetry_cell_setting 'orthorhombic'
loop_
_space_group_symop_operation_xyz
x,y,z
1/2-x,-y,1/2+z
1/2+x,1/2-y,1/2-z
-x,1/2+y,-z
-x,-y,-z
1/2+x,y,1/2-z
1/2-x,1/2+y,1/2+z
x,1/2-y,z
loop_
_atom_site_type_symbol
_atom_site_label
_atom_site_fract_x
_atom_site_fract_y
_atom_site_fract_z
Si Si1 0.386016 0.858169 0.053982
Si Si2 0.252955 0.543805 0.746673
Si Si3 0.597124 0.544813 0.417442
Si Si4 0.510001 0.140191 0.147044
Si Si5 0.394978 0.641845 0.275014
O O1 0.343822 0.750000 0.037026
O O2 0.240389 0.914659 0.036427
O O3 0.451201 0.874538 0.162705
O O4 0.501050 0.885931 0.969400
O O5 0.361774 0.540211 0.655702
O O6 0.327858 0.612673 0.824268
O O7 0.228109 0.437442 0.791481
O O8 0.101589 0.582107 0.710866
O O9 0.500000 0.500000 0.500000
O O10 0.518291 0.627074 0.354819
O O11 0.481920 0.250000 0.167296
O O12 0.335588 0.750000 0.286148
#
# Coordination Sequence:
#
# PCOD8254358 Si02
#       5
#     8   8   8   8   8
#     4   9  21  39  63  91 129 174 220 274 332 395
#     4  11  23  43  66  98 132 176 224 280 335 406
#     4  11  22  40  65  94 134 172 221 273 344 403
#     4  11  23  44  67  96 134 180 228 279 340 402
#     4  10  21  41  66  96 134 176 222 273 341 409
#
# _framework density 22.11356
#
# number of rings (size 3 to 8) (size 9 to 14) (size 15 to 20)
#    0.000    1.600    2.000    2.400    0.000    4.000 
#    7.200    3.000    0.000    0.000    0.000    0.000 
#    0.000    0.000    0.000    0.000    0.000    0.000 
#
# Total GULP energy -495730.332665 kJ/mol
# GULP energy per Si atom -12393.258317 kJ/mol
# Density = 2.206323 g / cm^3
# Si number density = 22.113560 Si / 1000 Ang^3
#
#
#
# Elastic Constant Matrix: (Units=GPa)
#
#
# Indices 1 2 3 4 5 6 
#
# 1 71.6123 36.6163 36.9465 0.0000 0.0000 0.0000
# 2 36.6163 101.3751 37.7955 0.0000 0.0000 0.0000
# 3 36.9465 37.7955 85.4712 0.0000 0.0000 0.0000
# 4 0.0000 0.0000 0.0000 26.6110 0.0000 0.0000
# 5 0.0000 0.0000 0.0000 0.0000 45.5523 0.0000
# 6 0.0000 0.0000 0.0000 0.0000 0.0000 23.5436
#
#
#
# Elastic Compliance Matrix: (Units=1/GPa)
#
#
# Indices 1 2 3 4 5 6 
#
# 1 0.019691 -0.004716 -0.006426 0.000000 0.000000 0.000000
# 2 -0.004716 0.012941 -0.003684 0.000000 0.000000 0.000000
# 3 -0.006426 -0.003684 0.016107 0.000000 0.000000 0.000000
# 4 0.000000 0.000000 0.000000 0.037578 0.000000 0.000000
# 5 0.000000 0.000000 0.000000 0.000000 0.021953 0.000000
# 6 0.000000 0.000000 0.000000 0.000000 0.000000 0.042474
#
#
# Mechanical properties :
#
#
# Convention : Reuss Voigt Hill
#
# Bulk Modulus (GPa) = 52.39437 53.46390 52.92914
# Shear Modulus (GPa) = 26.77232 28.94807 27.86020
#
# Velocity S-wave (km/s) = 3.48325 3.62202 3.55331
# Velocity P-wave (km/s) = 6.31840 6.45922 6.38920
#
# Compressibility (1/GPa) = 0.01908602
#
# Stress axis : x y z
#
# Youngs Moduli (GPa) = 50.78439 77.27137 62.08594
#
# Poissons Ratio (x) = 0.36445 0.39898
# Poissons Ratio (y) = 0.23952 0.22872
# Poissons Ratio (z) = 0.32635 0.28466
#
# Static dielectric constant tensor:
#      x y z
#    x 3.731320 0.000000 0.000000 
#    y 0.000000 4.097880 0.000000 
#    z 0.000000 0.000000 4.327830 
# 
# 
# High freq. dielectric constant tensor:
#      x y z
#    x 1.852850 0.000000 0.000000 
#    y 0.000000 1.874020 0.000000 
#    z 0.000000 0.000000 1.876000 
# 
# From -- ./inp_files/16683.got.cif
#   From: 2010.03.12/outbox.cif.g09.slc.cpg/sg62_9_cif.got.tgz:16683.got - 2010.04.10 19:12:36.
