data_PCOD8254313
_publ_section_title
;
Structure prediction by ZEFSAII (Michael W. Deem and Ramdas Pophale) SiO2 
 PCOD8254313
Probable space group: P N M A
;
_chemical_formula_sum "Si O2"
_cell_formula_units_Z 64
_cell_length_a 15.350169
_cell_length_b 9.143567
_cell_length_c 23.670191
_cell_angle_alpha 90.000000
_cell_angle_beta 90.000000
_cell_angle_gamma 90.000000
_cell_volume 3322.236728
_symmetry_space_group_name_H-M "P N M A"
_symmetry_group_IT_number 62
_symmetry_cell_setting 'orthorhombic'
loop_
_space_group_symop_operation_xyz
x,y,z
1/2-x,-y,1/2+z
1/2+x,1/2-y,1/2-z
-x,1/2+y,-z
-x,-y,-z
1/2+x,y,1/2-z
1/2-x,1/2+y,1/2+z
x,1/2-y,z
loop_
_atom_site_type_symbol
_atom_site_label
_atom_site_fract_x
_atom_site_fract_y
_atom_site_fract_z
Si Si1 0.172665 0.577734 0.495359
Si Si2 0.131863 0.421730 0.001373
Si Si3 0.984459 0.419909 0.915682
Si Si4 0.981375 0.079878 0.785620
Si Si5 0.325698 0.921907 0.775308
Si Si6 0.409698 0.582090 0.892493
Si Si7 0.891690 0.420649 0.382298
Si Si8 0.661615 0.422224 0.774577
O O1 0.166896 0.750000 0.488940
O O2 0.271343 0.520753 0.488668
O O3 0.113587 0.511864 0.446654
O O4 0.135991 0.526906 0.555633
O O5 0.132262 0.250000 0.012147
O O6 0.072427 0.467415 0.948216
O O7 0.097666 0.494519 0.058903
O O8 0.965820 0.250000 0.924551
O O9 0.996707 0.460711 0.850733
O O10 0.957671 0.250000 0.777644
O O11 0.069295 0.038735 0.753135
O O12 0.902494 0.982842 0.763615
O O13 0.316906 0.750000 0.763556
O O14 0.345975 0.954659 0.840764
O O15 0.235903 0.002596 0.762498
O O16 0.403582 0.750000 0.910756
O O17 0.507078 0.543404 0.872911
O O18 0.871014 0.250000 0.372936
O O19 0.835688 0.513463 0.337712
O O20 0.679218 0.250000 0.776417
#
# Coordination Sequence:
#
# PCOD8254313 Si02
#       8
#     8   8   8   8   8   8   8   8
#     4  10  22  36  60  88 114 151 196 245 296 352
#     4   9  19  36  55  83 115 150 191 234 289 348
#     4   9  19  36  57  79 114 151 186 237 289 343
#     4  10  22  40  62  90 119 154 200 248 302 356
#     4  11  24  41  62  88 122 162 200 247 301 360
#     4  10  22  40  60  84 118 155 196 245 296 354
#     4  10  21  41  61  85 121 156 196 245 298 359
#     4  11  24  40  63  92 122 159 202 252 302 359
#
# _framework density 19.264130999999999
#
# number of rings (size 3 to 8) (size 9 to 14) (size 15 to 20)
#    0.000    2.000    1.250    1.125    3.500    3.500 
#    0.000    0.000    0.000    0.000    0.000    0.000 
#    0.000    0.000    0.000    0.000    0.000    0.000 
#
# Total GULP energy -793895.625175 kJ/mol
# GULP energy per Si atom -12404.619143 kJ/mol
# Density = 1.922028 g / cm^3
# Si number density = 19.264131 Si / 1000 Ang^3
#
#
#
# Elastic Constant Matrix: (Units=GPa)
#
#
# Indices 1 2 3 4 5 6 
#
# 1 53.7554 23.3379 19.3721 0.0000 0.0000 0.0000
# 2 23.3379 52.7177 38.2571 0.0000 0.0000 0.0000
# 3 19.3721 38.2571 109.9263 0.0000 0.0000 0.0000
# 4 0.0000 0.0000 0.0000 34.5426 0.0000 0.0000
# 5 0.0000 0.0000 0.0000 0.0000 27.3321 0.0000
# 6 0.0000 0.0000 0.0000 0.0000 0.0000 31.7339
#
#
#
# Elastic Compliance Matrix: (Units=1/GPa)
#
#
# Indices 1 2 3 4 5 6 
#
# 1 0.023067 -0.009715 -0.000684 0.000000 0.000000 0.000000
# 2 -0.009715 0.029471 -0.008544 0.000000 0.000000 0.000000
# 3 -0.000684 -0.008544 0.012191 0.000000 0.000000 0.000000
# 4 0.000000 0.000000 0.000000 0.028950 0.000000 0.000000
# 5 0.000000 0.000000 0.000000 0.000000 0.036587 0.000000
# 6 0.000000 0.000000 0.000000 0.000000 0.000000 0.031512
#
#
# Mechanical properties :
#
#
# Convention : Reuss Voigt Hill
#
# Bulk Modulus (GPa) = 37.25565 42.03706 39.64635
# Shear Modulus (GPa) = 23.96789 27.75053 25.85921
#
# Velocity S-wave (km/s) = 3.53111 3.79955 3.66778
# Velocity P-wave (km/s) = 6.00053 6.41230 6.20983
#
# Compressibility (1/GPa) = 0.02684156
#
# Stress axis : x y z
#
# Youngs Moduli (GPa) = 43.35155 33.93214 82.02662
#
# Poissons Ratio (x) = 0.32967 0.05609
# Poissons Ratio (y) = 0.42118 0.70086
# Poissons Ratio (z) = 0.02965 0.28993
#
# Static dielectric constant tensor:
#      x y z
#    x 3.654750 0.000000 0.000000 
#    y 0.000000 3.459830 0.000000 
#    z 0.000000 0.000000 3.562130 
# 
# 
# High freq. dielectric constant tensor:
#      x y z
#    x 1.757200 0.000000 0.000000 
#    y 0.000000 1.744450 0.000000 
#    z 0.000000 0.000000 1.759530 
# 
# From -- ./inp_files/29943.got.cif
#   From: 2010.03.12/outbox.cif.g09.slc.cpg/sg62_15_cif.got.tgz:29943.got - 2010.04.10 19:12:36.
