data_PCOD8254484
_publ_section_title
;
Structure prediction by ZEFSAII (Michael W. Deem and Ramdas Pophale) SiO2 
 PCOD8254484
Probable space group: P N M A
;
_chemical_formula_sum "Si O2"
_cell_formula_units_Z 64
_cell_length_a 26.327230
_cell_length_b 9.167054
_cell_length_c 12.808396
_cell_angle_alpha 90.000000
_cell_angle_beta 90.000000
_cell_angle_gamma 90.000000
_cell_volume 3091.218497
_symmetry_space_group_name_H-M "P N M A"
_symmetry_group_IT_number 62
_symmetry_cell_setting 'orthorhombic'
loop_
_space_group_symop_operation_xyz
x,y,z
1/2-x,-y,1/2+z
1/2+x,1/2-y,1/2-z
-x,1/2+y,-z
-x,-y,-z
1/2+x,y,1/2-z
1/2-x,1/2+y,1/2+z
x,1/2-y,z
loop_
_atom_site_type_symbol
_atom_site_label
_atom_site_fract_x
_atom_site_fract_y
_atom_site_fract_z
Si Si1 0.110207 0.580043 0.633028
Si Si2 0.159636 0.078419 0.219582
Si Si3 0.010770 0.082051 0.603664
Si Si4 0.787279 0.420046 0.966783
Si Si5 0.969199 0.914238 0.084336
Si Si6 0.824777 0.921538 0.540027
Si Si7 0.562145 0.590469 0.271862
Si Si8 0.868813 0.417380 0.137928
O O1 0.101552 0.750000 0.607970
O O2 0.056782 0.503089 0.660589
O O3 0.135679 0.506377 0.532431
O O4 0.144054 0.560320 0.738891
O O5 0.164386 0.250000 0.206682
O O6 0.170907 0.028452 0.338607
O O7 0.198510 0.006146 0.138541
O O8 0.102245 0.029323 0.189384
O O9 0.027338 0.250000 0.589027
O O10 0.953891 0.070313 0.652415
O O11 0.000000 0.000000 0.500000
O O12 0.792513 0.250000 0.941659
O O13 0.730613 0.463095 0.998492
O O14 0.821302 0.464274 0.066701
O O15 0.959249 0.750000 0.046619
O O16 0.005088 0.920379 0.184203
O O17 0.915319 0.985059 0.103121
O O18 0.000000 0.000000 0.000000
O O19 0.835890 0.750000 0.531440
O O20 0.586106 0.750000 0.296335
O O21 0.883769 0.250000 0.116673
#
# Coordination Sequence:
#
# PCOD8254484 Si02
#       8
#     8   8   8   8   8   8   8   8
#     4  11  23  39  64  96 129 165 210 261 312 372
#     4  11  24  41  64  94 126 159 207 263 309 369
#     4  11  22  38  60  89 126 166 209 253 302 364
#     4  10  23  44  67  90 122 165 206 254 319 378
#     4  11  22  37  58  87 123 164 205 251 301 360
#     4  10  24  44  66  91 124 165 206 257 320 375
#     4  10  22  39  58  83 122 165 201 240 297 362
#     4  10  22  40  63  92 126 165 207 255 311 373
#
# _framework density 20.703810000000001
#
# number of rings (size 3 to 8) (size 9 to 14) (size 15 to 20)
#    0.000    1.500    1.250    3.000    1.750    9.500 
#    0.000    0.000    0.000    0.000    0.000    0.000 
#    0.000    0.000    0.000    0.000    0.000    0.000 
#
# Total GULP energy -793349.593109 kJ/mol
# GULP energy per Si atom -12396.087392 kJ/mol
# Density = 2.065669 g / cm^3
# Si number density = 20.703810 Si / 1000 Ang^3
#
#
#
# Elastic Constant Matrix: (Units=GPa)
#
#
# Indices 1 2 3 4 5 6 
#
# 1 87.6699 38.0446 18.4324 0.0000 0.0000 0.0000
# 2 38.0446 95.9818 41.3012 0.0000 0.0000 0.0000
# 3 18.4324 41.3012 89.5268 0.0000 0.0000 0.0000
# 4 0.0000 0.0000 0.0000 34.6260 0.0000 0.0000
# 5 0.0000 0.0000 0.0000 0.0000 30.1862 0.0000
# 6 0.0000 0.0000 0.0000 0.0000 0.0000 29.9513
#
#
#
# Elastic Compliance Matrix: (Units=1/GPa)
#
#
# Indices 1 2 3 4 5 6 
#
# 1 0.013787 -0.005294 -0.000396 0.000000 0.000000 0.000000
# 2 -0.005294 0.015032 -0.005845 0.000000 0.000000 0.000000
# 3 -0.000396 -0.005845 0.013948 0.000000 0.000000 0.000000
# 4 0.000000 0.000000 0.000000 0.028880 0.000000 0.000000
# 5 0.000000 0.000000 0.000000 0.000000 0.033128 0.000000
# 6 0.000000 0.000000 0.000000 0.000000 0.000000 0.033388
#
#
# Mechanical properties :
#
#
# Convention : Reuss Voigt Hill
#
# Bulk Modulus (GPa) = 50.77020 52.08165 51.42593
# Shear Modulus (GPa) = 29.79763 30.64606 30.22184
#
# Velocity S-wave (km/s) = 3.79784 3.85153 3.82478
# Velocity P-wave (km/s) = 6.61867 6.70740 6.66318
#
# Compressibility (1/GPa) = 0.01969659
#
# Stress axis : x y z
#
# Youngs Moduli (GPa) = 72.53078 66.52376 71.69623
#
# Poissons Ratio (x) = 0.35221 0.02840
# Poissons Ratio (y) = 0.38401 0.41905
# Poissons Ratio (z) = 0.02873 0.38881
#
# Static dielectric constant tensor:
#      x y z
#    x 4.394280 0.000000 0.000000 
#    y 0.000000 1.409570 0.000000 
#    z 0.000000 0.000000 3.853000 
# 
# 
# High freq. dielectric constant tensor:
#      x y z
#    x 1.807890 0.000000 0.000000 
#    y 0.000000 1.811050 0.000000 
#    z 0.000000 0.000000 1.827090 
# 
# From -- ./inp_files/15847.got.cif
#   From: 2010.03.12/outbox.cif.g09.slc.cpg/sg62_8_cif.got.tgz:15847.got - 2010.04.10 19:12:36.
