data_PCOD8254476
_publ_section_title
;
Structure prediction by ZEFSAII (Michael W. Deem and Ramdas Pophale) SiO2 
 PCOD8254476
Probable space group: P N M A
;
_chemical_formula_sum "Si O2"
_cell_formula_units_Z 48
_cell_length_a 14.249244
_cell_length_b 8.485710
_cell_length_c 20.216608
_cell_angle_alpha 90.000000
_cell_angle_beta 90.000000
_cell_angle_gamma 90.000000
_cell_volume 2444.490192
_symmetry_space_group_name_H-M "P N M A"
_symmetry_group_IT_number 62
_symmetry_cell_setting 'orthorhombic'
loop_
_space_group_symop_operation_xyz
x,y,z
1/2-x,-y,1/2+z
1/2+x,1/2-y,1/2-z
-x,1/2+y,-z
-x,-y,-z
1/2+x,y,1/2-z
1/2-x,1/2+y,1/2+z
x,1/2-y,z
loop_
_atom_site_type_symbol
_atom_site_label
_atom_site_fract_x
_atom_site_fract_y
_atom_site_fract_z
Si Si1 0.209763 0.566166 0.798286
Si Si2 0.815209 0.433452 0.825024
Si Si3 0.506877 0.067103 0.879668
Si Si4 0.180176 0.433288 0.428016
Si Si5 0.483753 0.935215 0.271885
Si Si6 0.193984 0.568586 0.565602
O O1 0.226936 0.750000 0.785251
O O2 0.247695 0.467843 0.736566
O O3 0.263344 0.508366 0.863750
O O4 0.099819 0.529757 0.807166
O O5 0.807832 0.250000 0.841560
O O6 0.921104 0.484193 0.808773
O O7 0.783662 0.531581 0.888918
O O8 0.479967 0.250000 0.884857
O O9 0.508423 0.010080 0.804000
O O10 0.430012 0.966850 0.919098
O O11 0.607427 0.039543 0.912276
O O12 0.196424 0.250000 0.441128
O O13 0.220575 0.529251 0.490234
O O14 0.464062 0.750000 0.276548
O O15 0.165645 0.750000 0.573099
#
# Coordination Sequence:
#
# PCOD8254476 Si02
#       6
#     8   8   8   8   8   8
#     4  11  23  38  62  91 121 156 199 248 296 351
#     4  11  22  40  63  88 120 158 200 245 295 355
#     4  11  21  37  61  91 124 160 197 245 301 358
#     4  11  24  41  60  88 124 163 201 248 301 356
#     4  10  22  38  62  91 121 158 199 244 296 353
#     4  12  25  40  60  89 122 161 202 248 302 358
#
# _framework density 19.635995999999999
#
# number of rings (size 3 to 8) (size 9 to 14) (size 15 to 20)
#    0.000    1.000    3.333    4.000    0.000    4.000 
#    0.000    0.833    0.000    0.000    0.000    0.000 
#    0.000    0.000    0.000    0.000    0.000    0.000 
#
# Total GULP energy -595613.191923 kJ/mol
# GULP energy per Si atom -12408.608165 kJ/mol
# Density = 1.959130 g / cm^3
# Si number density = 19.635996 Si / 1000 Ang^3
#
#
#
# Elastic Constant Matrix: (Units=GPa)
#
#
# Indices 1 2 3 4 5 6 
#
# 1 88.9142 15.9295 20.3850 0.0000 0.0000 0.0000
# 2 15.9295 51.3379 21.6192 0.0000 0.0000 0.0000
# 3 20.3850 21.6192 90.7641 0.0000 0.0000 0.0000
# 4 0.0000 0.0000 0.0000 31.5603 0.0000 0.0000
# 5 0.0000 0.0000 0.0000 0.0000 29.8907 0.0000
# 6 0.0000 0.0000 0.0000 0.0000 0.0000 31.4545
#
#
#
# Elastic Compliance Matrix: (Units=1/GPa)
#
#
# Indices 1 2 3 4 5 6 
#
# 1 0.012243 -0.002935 -0.002050 0.000000 0.000000 0.000000
# 2 -0.002935 0.022354 -0.004665 0.000000 0.000000 0.000000
# 3 -0.002050 -0.004665 0.012589 0.000000 0.000000 0.000000
# 4 0.000000 0.000000 0.000000 0.031685 0.000000 0.000000
# 5 0.000000 0.000000 0.000000 0.000000 0.033455 0.000000
# 6 0.000000 0.000000 0.000000 0.000000 0.000000 0.031792
#
#
# Mechanical properties :
#
#
# Convention : Reuss Voigt Hill
#
# Bulk Modulus (GPa) = 35.86269 38.54262 37.20266
# Shear Modulus (GPa) = 28.94929 30.11993 29.53461
#
# Velocity S-wave (km/s) = 3.84382 3.92077 3.88249
# Velocity P-wave (km/s) = 6.16469 6.33780 6.25184
#
# Compressibility (1/GPa) = 0.02788413
#
# Stress axis : x y z
#
# Youngs Moduli (GPa) = 81.68079 44.73423 79.43233
#
# Poissons Ratio (x) = 0.13131 0.16287
# Poissons Ratio (y) = 0.23976 0.37058
# Poissons Ratio (z) = 0.16748 0.20870
#
# Static dielectric constant tensor:
#      x y z
#    x 3.576210 0.000000 0.000000 
#    y 0.000000 3.481670 0.000000 
#    z 0.000000 0.000000 3.667380 
# 
# 
# High freq. dielectric constant tensor:
#      x y z
#    x 1.761830 0.000000 0.000000 
#    y 0.000000 1.770300 0.000000 
#    z 0.000000 0.000000 1.764480 
# 
# From -- ./inp_files/23657.got.cif
#   From: 2010.03.12/outbox.cif.g09.slc.cpg/sg62_12_cif.got.tgz:23657.got - 2010.04.10 19:12:36.
