data_PCOD8254449
_publ_section_title
;
Structure prediction by ZEFSAII (Michael W. Deem and Ramdas Pophale) SiO2 
 PCOD8254449
Probable space group: P N M A
;
_chemical_formula_sum "Si O2"
_cell_formula_units_Z 20
_cell_length_a 4.864049
_cell_length_b 7.220148
_cell_length_c 22.303669
_cell_angle_alpha 90.000000
_cell_angle_beta 90.000000
_cell_angle_gamma 90.000000
_cell_volume 783.285979
_symmetry_space_group_name_H-M "P N M A"
_symmetry_group_IT_number 62
_symmetry_cell_setting 'orthorhombic'
loop_
_space_group_symop_operation_xyz
x,y,z
1/2-x,-y,1/2+z
1/2+x,1/2-y,1/2-z
-x,1/2+y,-z
-x,-y,-z
1/2+x,y,1/2-z
1/2-x,1/2+y,1/2+z
x,1/2-y,z
loop_
_atom_site_type_symbol
_atom_site_label
_atom_site_fract_x
_atom_site_fract_y
_atom_site_fract_z
Si Si1 0.418346 0.750000 0.708488
Si Si2 0.793876 0.454758 0.882187
Si Si3 0.556904 0.250000 0.061984
Si Si4 0.554036 0.250000 0.517025
O O1 0.612066 0.750000 0.765694
O O2 0.465290 0.566740 0.667978
O O3 0.710297 0.250000 0.857652
O O4 0.519025 0.568755 0.898875
O O5 0.979222 0.432058 0.942903
O O6 0.876019 0.250000 0.044724
O O7 0.375719 0.250000 0.000104
#
# Coordination Sequence:
#
# PCOD8254449 Si02
#       4
#     4   8   4   4
#     4  11  26  47  64  84 118 157 206 267 306 336
#     4   9  23  40  62  95 118 160 204 242 294 368
#     4  11  20  40  58  94 132 162 184 237 296 360
#     4  10  22  37  62  90 132 159 192 236 294 364
#
# _framework density 25.533460000000002
#
# number of rings (size 3 to 8) (size 9 to 14) (size 15 to 20)
#    1.200    0.800    0.000    2.400    0.000   11.200 
#    0.000    0.000    0.000    0.000    0.000    0.000 
#    0.000    0.000    0.000    0.000    0.000    0.000 
#
# Total GULP energy -247983.828608 kJ/mol
# GULP energy per Si atom -12399.191430 kJ/mol
# Density = 2.547534 g / cm^3
# Si number density = 25.533460 Si / 1000 Ang^3
#
#
#
# Elastic Constant Matrix: (Units=GPa)
#
#
# Indices 1 2 3 4 5 6 
#
# 1 41.9521 8.3625 9.6745 0.0000 0.0000 0.0000
# 2 8.3625 206.0833 36.7884 0.0000 0.0000 0.0000
# 3 9.6745 36.7884 98.5954 0.0000 0.0000 0.0000
# 4 0.0000 0.0000 0.0000 46.3402 0.0000 0.0000
# 5 0.0000 0.0000 0.0000 0.0000 24.3223 0.0000
# 6 0.0000 0.0000 0.0000 0.0000 0.0000 15.3063
#
#
#
# Elastic Compliance Matrix: (Units=1/GPa)
#
#
# Indices 1 2 3 4 5 6 
#
# 1 0.024459 -0.000604 -0.002174 0.000000 0.000000 0.000000
# 2 -0.000604 0.005214 -0.001886 0.000000 0.000000 0.000000
# 3 -0.002174 -0.001886 0.011060 0.000000 0.000000 0.000000
# 4 0.000000 0.000000 0.000000 0.021580 0.000000 0.000000
# 5 0.000000 0.000000 0.000000 0.000000 0.041115 0.000000
# 6 0.000000 0.000000 0.000000 0.000000 0.000000 0.065332
#
#
# Mechanical properties :
#
#
# Convention : Reuss Voigt Hill
#
# Bulk Modulus (GPa) = 31.84495 50.69794 41.27144
# Shear Modulus (GPa) = 26.51741 36.64745 31.58243
#
# Velocity S-wave (km/s) = 3.22613 3.79261 3.52078
# Velocity P-wave (km/s) = 5.13577 6.25117 5.72072
#
# Compressibility (1/GPa) = 0.03140215
#
# Stress axis : x y z
#
# Youngs Moduli (GPa) = 40.88537 191.80575 90.41958
#
# Poissons Ratio (x) = 0.11591 0.19661
# Poissons Ratio (y) = 0.02471 0.17053
# Poissons Ratio (z) = 0.08890 0.36175
#
# Static dielectric constant tensor:
#      x y z
#    x 3.871330 0.000000 0.000000 
#    y 0.000000 4.920980 0.000000 
#    z 0.000000 0.000000 4.401060 
# 
# 
# High freq. dielectric constant tensor:
#      x y z
#    x 1.992920 0.000000 0.000000 
#    y 0.000000 2.050260 0.000000 
#    z 0.000000 0.000000 1.998490 
# 
# From -- ./inp_files/21325.got.cif
#   From: 2010.03.12/outbox.cif.g09.slc.cpg/sg62_11_cif.got.tgz:21325.got - 2010.04.10 19:12:36.
