data_PCOD8254756
_publ_section_title
;
Structure prediction by ZEFSAII (Michael W. Deem and Ramdas Pophale) SiO2 
 PCOD8254756
Probable space group: P N M A
;
_chemical_formula_sum "Si O2"
_cell_formula_units_Z 48
_cell_length_a 17.190032
_cell_length_b 23.951510
_cell_length_c 5.142065
_cell_angle_alpha 90.000000
_cell_angle_beta 90.000000
_cell_angle_gamma 90.000000
_cell_volume 2117.128145
_symmetry_space_group_name_H-M "P N M A"
_symmetry_group_IT_number 62
_symmetry_cell_setting 'orthorhombic'
loop_
_space_group_symop_operation_xyz
x,y,z
1/2-x,-y,1/2+z
1/2+x,1/2-y,1/2-z
-x,1/2+y,-z
-x,-y,-z
1/2+x,y,1/2-z
1/2-x,1/2+y,1/2+z
x,1/2-y,z
loop_
_atom_site_type_symbol
_atom_site_label
_atom_site_fract_x
_atom_site_fract_y
_atom_site_fract_z
Si Si1 0.386989 0.898114 0.707279
Si Si2 0.700200 0.503239 0.494837
Si Si3 0.776497 0.813589 0.523596
Si Si4 0.374892 0.380960 0.508289
Si Si5 0.080264 0.190490 0.822011
Si Si6 0.474142 0.130605 0.009515
O O1 0.313017 0.859378 0.779875
O O2 0.437873 0.861765 0.505483
O O3 0.451124 0.910925 0.932772
O O4 0.360364 0.955920 0.586209
O O5 0.745078 0.481785 0.750367
O O6 0.657218 0.559242 0.581283
O O7 0.771513 0.750000 0.640188
O O8 0.691825 0.835140 0.438827
O O9 0.830672 0.812632 0.271130
O O10 0.424772 0.357494 0.267905
O O11 0.420750 0.392036 0.776322
O O12 0.067483 0.250000 0.964165
O O13 0.017996 0.187315 0.584333
#
# Coordination Sequence:
#
# PCOD8254756 Si02
#       6
#     8   8   8   8   8   8
#     4  11  23  46  72 100 139 185 238 281 351 426
#     4  12  26  44  74 104 140 183 233 297 347 414
#     4  10  23  42  70 101 136 182 237 292 343 418
#     4  12  25  46  67 107 139 181 232 289 356 412
#     4  10  22  45  72 100 137 186 236 283 346 425
#     4  11  26  45  67 100 143 179 228 284 351 423
#
# _framework density 22.672221
#
# number of rings (size 3 to 8) (size 9 to 14) (size 15 to 20)
#    0.000    1.000    3.333    2.500    4.667    3.333 
#    0.000    0.000    0.000    0.000    0.000    0.000 
#    0.000    0.000    0.000    0.000    0.000    0.000 
#
# Total GULP energy -594807.526933 kJ/mol
# GULP energy per Si atom -12391.823478 kJ/mol
# Density = 2.262062 g / cm^3
# Si number density = 22.672221 Si / 1000 Ang^3
#
#
#
# Elastic Constant Matrix: (Units=GPa)
#
#
# Indices 1 2 3 4 5 6 
#
# 1 126.6249 45.7750 40.7796 0.0000 0.0000 0.0000
# 2 45.7750 104.6404 9.3772 0.0000 0.0000 0.0000
# 3 40.7796 9.3772 93.5530 0.0000 0.0000 0.0000
# 4 0.0000 0.0000 0.0000 29.8520 0.0000 0.0000
# 5 0.0000 0.0000 0.0000 0.0000 22.6303 0.0000
# 6 0.0000 0.0000 0.0000 0.0000 0.0000 7.9308
#
#
#
# Elastic Compliance Matrix: (Units=1/GPa)
#
#
# Indices 1 2 3 4 5 6 
#
# 1 0.010859 -0.004365 -0.004296 0.000000 0.000000 0.000000
# 2 -0.004365 0.011398 0.000760 0.000000 0.000000 0.000000
# 3 -0.004296 0.000760 0.012485 0.000000 0.000000 0.000000
# 4 0.000000 0.000000 0.000000 0.033499 0.000000 0.000000
# 5 0.000000 0.000000 0.000000 0.000000 0.044189 0.000000
# 6 0.000000 0.000000 0.000000 0.000000 0.000000 0.126090
#
#
# Mechanical properties :
#
#
# Convention : Reuss Voigt Hill
#
# Bulk Modulus (GPa) = 52.79595 57.40910 55.10252
# Shear Modulus (GPa) = 19.18392 27.34172 23.26282
#
# Velocity S-wave (km/s) = 2.91201 3.47646 3.20668
# Velocity P-wave (km/s) = 5.88588 6.44132 6.16985
#
# Compressibility (1/GPa) = 0.01894085
#
# Stress axis : x y z
#
# Youngs Moduli (GPa) = 92.09079 87.73483 80.09316
#
# Poissons Ratio (x) = 0.38298 0.34407
# Poissons Ratio (y) = 0.40200 -0.06090
# Poissons Ratio (z) = 0.39560 -0.06671
#
# Static dielectric constant tensor:
#      x y z
#    x 4.266550 0.000000 0.000000 
#    y 0.000000 3.913840 0.000000 
#    z 0.000000 0.000000 4.089620 
# 
# 
# High freq. dielectric constant tensor:
#      x y z
#    x 1.908490 0.000000 0.000000 
#    y 0.000000 1.878580 0.000000 
#    z 0.000000 0.000000 1.895570 
# 
# From -- ./inp_files/1725.got.cif
#   From: 2010.03.12/outbox.cif.g09.slc.cpg/sg62_1_cif.got.tgz:1725.got - 2010.04.10 19:12:36.
