data_PCOD8254069
_publ_section_title
;
Structure prediction by ZEFSAII (Michael W. Deem and Ramdas Pophale) SiO2 
 PCOD8254069
Probable space group: P N M A
;
_chemical_formula_sum "Si O2"
_cell_formula_units_Z 40
_cell_length_a 13.142978
_cell_length_b 23.706475
_cell_length_c 5.731901
_cell_angle_alpha 90.000000
_cell_angle_beta 90.000000
_cell_angle_gamma 90.000000
_cell_volume 1785.909484
_symmetry_space_group_name_H-M "P N M A"
_symmetry_group_IT_number 62
_symmetry_cell_setting 'orthorhombic'
loop_
_space_group_symop_operation_xyz
x,y,z
1/2-x,-y,1/2+z
1/2+x,1/2-y,1/2-z
-x,1/2+y,-z
-x,-y,-z
1/2+x,y,1/2-z
1/2-x,1/2+y,1/2+z
x,1/2-y,z
loop_
_atom_site_type_symbol
_atom_site_label
_atom_site_fract_x
_atom_site_fract_y
_atom_site_fract_z
Si Si1 0.991408 0.187613 0.844326
Si Si2 0.128010 0.376305 0.164755
Si Si3 0.688732 0.685971 0.673055
Si Si4 0.551362 0.893347 0.963509
Si Si5 0.234989 0.968345 0.479376
O O1 0.010968 0.250000 0.736885
O O2 0.008382 0.135013 0.675898
O O3 0.874917 0.184244 0.934577
O O4 0.075807 0.177672 0.043129
O O5 0.207191 0.349906 0.353120
O O6 0.038196 0.412591 0.287596
O O7 0.185312 0.416950 0.982272
O O8 0.711995 0.750000 0.748828
O O9 0.622367 0.656948 0.872862
O O10 0.618251 0.947364 0.032656
O O11 0.246223 0.998653 0.735916
#
# Coordination Sequence:
#
# PCOD8254069 Si02
#       5
#     8   8   8   8   8
#     4  10  21  38  65  98 134 173 218 271 339 408
#     4  10  23  40  65  95 131 172 222 281 336 405
#     4   9  19  37  59  91 133 173 212 264 333 408
#     4  10  23  40  65  93 134 167 226 281 336 399
#     4  11  28  47  71  97 132 178 232 284 344 394
#
# _framework density 22.397551
#
# number of rings (size 3 to 8) (size 9 to 14) (size 15 to 20)
#    0.000    2.000    0.000    1.200   11.200    5.600 
#    0.000    4.000    0.000    0.000    0.000    0.000 
#    0.000    0.000    0.000    0.000    0.000    0.000 
#
# Total GULP energy -495581.092071 kJ/mol
# GULP energy per Si atom -12389.527302 kJ/mol
# Density = 2.234657 g / cm^3
# Si number density = 22.397551 Si / 1000 Ang^3
#
#
#
# Elastic Constant Matrix: (Units=GPa)
#
#
# Indices 1 2 3 4 5 6 
#
# 1 116.9274 26.7969 12.9805 0.0000 0.0000 0.0000
# 2 26.7969 71.3119 18.7088 0.0000 0.0000 0.0000
# 3 12.9805 18.7088 77.7733 0.0000 0.0000 0.0000
# 4 0.0000 0.0000 0.0000 37.2136 0.0000 0.0000
# 5 0.0000 0.0000 0.0000 0.0000 15.2704 0.0000
# 6 0.0000 0.0000 0.0000 0.0000 0.0000 27.9928
#
#
#
# Elastic Compliance Matrix: (Units=1/GPa)
#
#
# Indices 1 2 3 4 5 6 
#
# 1 0.009401 -0.003331 -0.000768 0.000000 0.000000 0.000000
# 2 -0.003331 0.016148 -0.003328 0.000000 0.000000 0.000000
# 3 -0.000768 -0.003328 0.013787 0.000000 0.000000 0.000000
# 4 0.000000 0.000000 0.000000 0.026872 0.000000 0.000000
# 5 0.000000 0.000000 0.000000 0.000000 0.065486 0.000000
# 6 0.000000 0.000000 0.000000 0.000000 0.000000 0.035723
#
#
# Mechanical properties :
#
#
# Convention : Reuss Voigt Hill
#
# Bulk Modulus (GPa) = 40.84833 42.55389 41.70111
# Shear Modulus (GPa) = 26.25608 29.93045 28.09327
#
# Velocity S-wave (km/s) = 3.42756 3.65955 3.54545
# Velocity P-wave (km/s) = 5.82595 6.07429 5.95141
#
# Compressibility (1/GPa) = 0.02448081
#
# Stress axis : x y z
#
# Youngs Moduli (GPa) = 106.37195 61.92754 72.53370
#
# Poissons Ratio (x) = 0.20629 0.05568
# Poissons Ratio (y) = 0.35435 0.24143
# Poissons Ratio (z) = 0.08166 0.20612
#
# Static dielectric constant tensor:
#      x y z
#    x 4.265180 0.000000 0.000000 
#    y 0.000000 3.965000 0.000000 
#    z 0.000000 0.000000 3.780860 
# 
# 
# High freq. dielectric constant tensor:
#      x y z
#    x 1.898450 0.000000 0.000000 
#    y 0.000000 1.876400 0.000000 
#    z 0.000000 0.000000 1.862240 
# 
# From -- ./inp_files/594.got.cif
#   From: 2010.03.12/outbox.cif.g09.slc.cpg/sg62_1_cif.got.tgz:594.got - 2010.04.10 19:12:36.
