data_PCOD8254296
_publ_section_title
;
Structure prediction by ZEFSAII (Michael W. Deem and Ramdas Pophale) SiO2 
 PCOD8254296
Probable space group: P N M A
;
_chemical_formula_sum "Si O2"
_cell_formula_units_Z 56
_cell_length_a 21.612120
_cell_length_b 8.477553
_cell_length_c 14.476575
_cell_angle_alpha 90.000000
_cell_angle_beta 90.000000
_cell_angle_gamma 90.000000
_cell_volume 2652.367566
_symmetry_space_group_name_H-M "P N M A"
_symmetry_group_IT_number 62
_symmetry_cell_setting 'orthorhombic'
loop_
_space_group_symop_operation_xyz
x,y,z
1/2-x,-y,1/2+z
1/2+x,1/2-y,1/2-z
-x,1/2+y,-z
-x,-y,-z
1/2+x,y,1/2-z
1/2-x,1/2+y,1/2+z
x,1/2-y,z
loop_
_atom_site_type_symbol
_atom_site_label
_atom_site_fract_x
_atom_site_fract_y
_atom_site_fract_z
Si Si1 0.727422 0.568969 0.189347
Si Si2 0.045030 0.065980 0.922759
Si Si3 0.104879 0.067593 0.388257
Si Si4 0.179370 0.568113 0.946533
Si Si5 0.887215 0.434764 0.419404
Si Si6 0.486216 0.433893 0.231556
Si Si7 0.747415 0.067176 0.381887
O O1 0.745406 0.750000 0.175139
O O2 0.663309 0.538214 0.137679
O O3 0.782245 0.464172 0.146634
O O4 0.719543 0.530012 0.296909
O O5 0.056908 0.250000 0.938906
O O6 0.108694 0.971693 0.927518
O O7 0.014012 0.037935 0.823451
O O8 0.000000 0.000000 0.000000
O O9 0.122606 0.250000 0.377235
O O10 0.048051 0.021984 0.323184
O O11 0.086078 0.030462 0.493514
O O12 0.185796 0.750000 0.974034
O O13 0.205302 0.462368 0.029282
O O14 0.892243 0.250000 0.441251
O O15 0.927147 0.480236 0.330149
O O16 0.817080 0.488935 0.401454
O O17 0.484451 0.250000 0.258081
O O18 0.745203 0.250000 0.355938
#
# Coordination Sequence:
#
# PCOD8254296 Si02
#       7
#     8   8   8   8   8   8   8
#     4  12  25  42  65  96 134 176 225 276 332 395
#     4  12  27  47  71  98 132 174 224 275 331 398
#     4  11  23  39  64  96 134 174 220 274 329 393
#     4  12  25  45  70  98 133 172 219 275 334 395
#     4  10  21  40  66  96 133 172 215 270 330 394
#     4  10  23  43  66  96 133 176 221 271 332 391
#     4  11  23  40  66  98 132 172 217 271 334 397
#
# _framework density 21.113212999999998
#
# number of rings (size 3 to 8) (size 9 to 14) (size 15 to 20)
#    0.000    0.857    1.429    6.000    2.000    3.429 
#    0.000    0.000    0.000    0.000    0.000    0.000 
#    0.000    0.000    0.000    0.000    0.000    0.000 
#
# Total GULP energy -694934.733399 kJ/mol
# GULP energy per Si atom -12409.548811 kJ/mol
# Density = 2.106516 g / cm^3
# Si number density = 21.113213 Si / 1000 Ang^3
#
#
#
# Elastic Constant Matrix: (Units=GPa)
#
#
# Indices 1 2 3 4 5 6 
#
# 1 89.6465 24.1682 32.3307 0.0000 0.0000 0.0000
# 2 24.1682 77.8431 25.4644 0.0000 0.0000 0.0000
# 3 32.3307 25.4644 125.8626 0.0000 0.0000 0.0000
# 4 0.0000 0.0000 0.0000 39.7952 0.0000 0.0000
# 5 0.0000 0.0000 0.0000 0.0000 30.8141 0.0000
# 6 0.0000 0.0000 0.0000 0.0000 0.0000 30.5002
#
#
#
# Elastic Compliance Matrix: (Units=1/GPa)
#
#
# Indices 1 2 3 4 5 6 
#
# 1 0.012976 -0.003147 -0.002697 0.000000 0.000000 0.000000
# 2 -0.003147 0.014520 -0.002129 0.000000 0.000000 0.000000
# 3 -0.002697 -0.002129 0.009069 0.000000 0.000000 0.000000
# 4 0.000000 0.000000 0.000000 0.025129 0.000000 0.000000
# 5 0.000000 0.000000 0.000000 0.000000 0.032453 0.000000
# 6 0.000000 0.000000 0.000000 0.000000 0.000000 0.032787
#
#
# Mechanical properties :
#
#
# Convention : Reuss Voigt Hill
#
# Bulk Modulus (GPa) = 48.49807 50.80874 49.65341
# Shear Modulus (GPa) = 33.38896 34.31449 33.85172
#
# Velocity S-wave (km/s) = 3.98103 4.03583 4.00852
# Velocity P-wave (km/s) = 6.64468 6.77011 6.70769
#
# Compressibility (1/GPa) = 0.02061938
#
# Stress axis : x y z
#
# Youngs Moduli (GPa) = 77.06720 68.87133 110.27004
#
# Poissons Ratio (x) = 0.21670 0.29734
# Poissons Ratio (y) = 0.24249 0.23481
# Poissons Ratio (z) = 0.20781 0.14665
#
# Static dielectric constant tensor:
#      x y z
#    x 3.777210 0.000000 0.000000 
#    y 0.000000 3.746960 0.000000 
#    z 0.000000 0.000000 3.759050 
# 
# 
# High freq. dielectric constant tensor:
#      x y z
#    x 1.835210 0.000000 0.000000 
#    y 0.000000 1.829260 0.000000 
#    z 0.000000 0.000000 1.841120 
# 
# From -- ./inp_files/20389.got.cif
#   From: 2010.03.12/outbox.cif.g09.slc.cpg/sg62_11_cif.got.tgz:20389.got - 2010.04.10 19:12:36.
