data_PCOD8254045
_publ_section_title
;
Structure prediction by ZEFSAII (Michael W. Deem and Ramdas Pophale) SiO2 
 PCOD8254045
Probable space group: P N M A
;
_chemical_formula_sum "Si O2"
_cell_formula_units_Z 64
_cell_length_a 18.254560
_cell_length_b 14.948588
_cell_length_c 10.986612
_cell_angle_alpha 90.000000
_cell_angle_beta 90.000000
_cell_angle_gamma 90.000000
_cell_volume 2998.025546
_symmetry_space_group_name_H-M "P N M A"
_symmetry_group_IT_number 62
_symmetry_cell_setting 'orthorhombic'
loop_
_space_group_symop_operation_xyz
x,y,z
1/2-x,-y,1/2+z
1/2+x,1/2-y,1/2-z
-x,1/2+y,-z
-x,-y,-z
1/2+x,y,1/2-z
1/2-x,1/2+y,1/2+z
x,1/2-y,z
loop_
_atom_site_type_symbol
_atom_site_label
_atom_site_fract_x
_atom_site_fract_y
_atom_site_fract_z
Si Si1 0.108813 0.486561 0.076605
Si Si2 0.807464 0.852028 0.761549
Si Si3 0.701515 0.643298 0.337057
Si Si4 0.643241 0.649393 0.819974
Si Si5 0.550955 0.514681 0.678165
Si Si6 0.140748 0.852277 0.414012
Si Si7 0.836133 0.851106 0.498877
Si Si8 0.983018 0.582195 0.410545
O O1 0.165010 0.412795 0.127059
O O2 0.137555 0.587945 0.095422
O O3 0.032560 0.467193 0.142893
O O4 0.098235 0.474474 0.932408
O O5 0.836693 0.750000 0.779529
O O6 0.720514 0.852911 0.755303
O O7 0.829582 0.897290 0.631976
O O8 0.686367 0.750000 0.350484
O O9 0.694683 0.612964 0.194123
O O10 0.780077 0.612460 0.394115
O O11 0.614455 0.750000 0.840571
O O12 0.584263 0.605923 0.730812
O O13 0.650880 0.600203 0.953490
O O14 0.554626 0.443739 0.784949
O O15 0.161587 0.750000 0.432595
O O16 0.055964 0.863577 0.377354
O O17 0.811319 0.750000 0.519792
O O18 0.921499 0.854555 0.467632
O O19 0.000000 0.500000 0.500000
#
# Coordination Sequence:
#
# PCOD8254045 Si02
#       8
#     8   8   8   8   8   8   8   8
#     4  11  24  42  63  90 131 167 214 269 318 383
#     4  10  23  43  65  95 128 167 215 267 325 382
#     4  10  22  42  65  93 128 170 214 266 326 382
#     4  10  22  41  65  92 125 166 216 269 323 388
#     4  11  24  40  60  95 123 167 216 255 323 393
#     4  10  21  38  63  91 124 166 210 264 324 384
#     4  10  23  41  65  93 124 167 217 266 317 384
#     4  12  22  38  62  93 127 161 210 261 322 388
#
# _framework density 21.347383000000001
#
# number of rings (size 3 to 8) (size 9 to 14) (size 15 to 20)
#    0.000    1.500    2.500    1.875    1.750    3.000 
#    0.000    4.375    0.000    0.000    0.000    0.000 
#    0.000    0.000    0.000    0.000    0.000    0.000 
#
# Total GULP energy -793186.989186 kJ/mol
# GULP energy per Si atom -12393.546706 kJ/mol
# Density = 2.129880 g / cm^3
# Si number density = 21.347383 Si / 1000 Ang^3
#
#
#
# Elastic Constant Matrix: (Units=GPa)
#
#
# Indices 1 2 3 4 5 6 
#
# 1 84.4289 20.6108 43.9659 0.0000 0.0000 0.0000
# 2 20.6108 45.2581 34.6615 0.0000 0.0000 0.0000
# 3 43.9659 34.6615 131.5289 0.0000 0.0000 0.0000
# 4 0.0000 0.0000 0.0000 26.8311 0.0000 0.0000
# 5 0.0000 0.0000 0.0000 0.0000 43.2825 0.0000
# 6 0.0000 0.0000 0.0000 0.0000 0.0000 31.5471
#
#
#
# Elastic Compliance Matrix: (Units=1/GPa)
#
#
# Indices 1 2 3 4 5 6 
#
# 1 0.014820 -0.003702 -0.003978 0.000000 0.000000 0.000000
# 2 -0.003702 0.028608 -0.006301 0.000000 0.000000 0.000000
# 3 -0.003978 -0.006301 0.010593 0.000000 0.000000 0.000000
# 4 0.000000 0.000000 0.000000 0.037270 0.000000 0.000000
# 5 0.000000 0.000000 0.000000 0.000000 0.023104 0.000000
# 6 0.000000 0.000000 0.000000 0.000000 0.000000 0.031699
#
#
# Mechanical properties :
#
#
# Convention : Reuss Voigt Hill
#
# Bulk Modulus (GPa) = 38.37741 51.07693 44.72717
# Shear Modulus (GPa) = 27.36093 31.13064 29.24579
#
# Velocity S-wave (km/s) = 3.58397 3.82290 3.70536
# Velocity P-wave (km/s) = 5.92816 6.59277 6.26927
#
# Compressibility (1/GPa) = 0.02605699
#
# Stress axis : x y z
#
# Youngs Moduli (GPa) = 67.47789 34.95586 94.40006
#
# Poissons Ratio (x) = 0.12942 0.37553
# Poissons Ratio (y) = 0.24982 0.59484
# Poissons Ratio (z) = 0.26843 0.22027
#
# Static dielectric constant tensor:
#      x y z
#    x 3.834130 0.000000 0.000000 
#    y 0.000000 3.716200 0.000000 
#    z 0.000000 0.000000 4.278710 
# 
# 
# High freq. dielectric constant tensor:
#      x y z
#    x 1.836270 0.000000 0.000000 
#    y 0.000000 1.821330 0.000000 
#    z 0.000000 0.000000 1.855740 
# 
# From -- ./inp_files/14359.got.cif
#   From: 2010.03.12/outbox.cif.g09.slc.cpg/sg62_8_cif.got.tgz:14359.got - 2010.04.10 19:12:36.
