data_PCOD8254132
_publ_section_title
;
Structure prediction by ZEFSAII (Michael W. Deem and Ramdas Pophale) SiO2 
 PCOD8254132
Probable space group: P N M A
;
_chemical_formula_sum "Si O2"
_cell_formula_units_Z 48
_cell_length_a 9.234611
_cell_length_b 16.954972
_cell_length_c 15.156426
_cell_angle_alpha 90.000000
_cell_angle_beta 90.000000
_cell_angle_gamma 90.000000
_cell_volume 2373.080585
_symmetry_space_group_name_H-M "P N M A"
_symmetry_group_IT_number 62
_symmetry_cell_setting 'orthorhombic'
loop_
_space_group_symop_operation_xyz
x,y,z
1/2-x,-y,1/2+z
1/2+x,1/2-y,1/2-z
-x,1/2+y,-z
-x,-y,-z
1/2+x,y,1/2-z
1/2-x,1/2+y,1/2+z
x,1/2-y,z
loop_
_atom_site_type_symbol
_atom_site_label
_atom_site_fract_x
_atom_site_fract_y
_atom_site_fract_z
Si Si1 0.774593 0.910188 0.323094
Si Si2 0.214910 0.410580 0.179886
Si Si3 0.611352 0.659710 0.479546
Si Si4 0.588811 0.839796 0.677295
Si Si5 0.411877 0.158517 0.828582
Si Si6 0.279790 0.657645 0.493652
O O1 0.711597 0.896178 0.420654
O O2 0.690536 0.854388 0.255154
O O3 0.944163 0.892442 0.319974
O O4 0.753781 0.000391 0.296060
O O5 0.291892 0.353146 0.248945
O O6 0.044206 0.398715 0.191787
O O7 0.266201 0.389508 0.081131
O O8 0.638616 0.750000 0.451478
O O9 0.657605 0.644975 0.580800
O O10 0.443406 0.636618 0.465087
O O11 0.530940 0.750000 0.681210
O O12 0.454207 0.250000 0.833853
O O13 0.327209 0.131346 0.916141
O O14 0.268832 0.750000 0.514880
#
# Coordination Sequence:
#
# PCOD8254132 Si02
#       6
#     8   8   8   8   8   8
#     4  12  24  37  58  88 120 151 189 242 296 341
#     4  11  23  38  59  89 122 151 186 239 297 343
#     4   9  19  37  59  82 110 150 197 238 281 339
#     4  10  21  39  62  85 114 155 198 235 279 344
#     4  11  23  39  59  82 113 156 201 238 279 341
#     4   9  20  39  61  83 111 151 195 237 284 341
#
# _framework density 20.226872
#
# number of rings (size 3 to 8) (size 9 to 14) (size 15 to 20)
#    0.000    1.667    0.000    6.000    0.000    7.333 
#    0.000    1.667    0.000    0.000    0.000    0.000 
#    0.000    0.000    0.000    0.000    0.000    0.000 
#
# Total GULP energy -595489.761888 kJ/mol
# GULP energy per Si atom -12406.036706 kJ/mol
# Density = 2.018083 g / cm^3
# Si number density = 20.226872 Si / 1000 Ang^3
#
#
#
# Elastic Constant Matrix: (Units=GPa)
#
#
# Indices 1 2 3 4 5 6 
#
# 1 82.0547 9.7789 49.0332 0.0000 0.0000 0.0000
# 2 9.7789 50.0093 18.6476 0.0000 0.0000 0.0000
# 3 49.0332 18.6476 114.1621 0.0000 0.0000 0.0000
# 4 0.0000 0.0000 0.0000 22.8056 0.0000 0.0000
# 5 0.0000 0.0000 0.0000 0.0000 39.5299 0.0000
# 6 0.0000 0.0000 0.0000 0.0000 0.0000 30.7532
#
#
#
# Elastic Compliance Matrix: (Units=1/GPa)
#
#
# Indices 1 2 3 4 5 6 
#
# 1 0.016413 -0.000618 -0.006948 0.000000 0.000000 0.000000
# 2 -0.000618 0.021317 -0.003216 0.000000 0.000000 0.000000
# 3 -0.006948 -0.003216 0.012269 0.000000 0.000000 0.000000
# 4 0.000000 0.000000 0.000000 0.043849 0.000000 0.000000
# 5 0.000000 0.000000 0.000000 0.000000 0.025297 0.000000
# 6 0.000000 0.000000 0.000000 0.000000 0.000000 0.032517
#
#
# Mechanical properties :
#
#
# Convention : Reuss Voigt Hill
#
# Bulk Modulus (GPa) = 35.17126 44.57172 39.87149
# Shear Modulus (GPa) = 27.36646 29.86881 28.61764
#
# Velocity S-wave (km/s) = 3.68227 3.84694 3.76551
# Velocity P-wave (km/s) = 5.95860 6.46650 6.21774
#
# Compressibility (1/GPa) = 0.02843230
#
# Stress axis : x y z
#
# Youngs Moduli (GPa) = 60.92797 46.91199 81.50494
#
# Poissons Ratio (x) = 0.02901 0.56633
# Poissons Ratio (y) = 0.03768 0.26214
# Poissons Ratio (z) = 0.42335 0.15088
#
# Static dielectric constant tensor:
#      x y z
#    x 3.552740 0.000000 0.000000 
#    y 0.000000 3.487750 0.000000 
#    z 0.000000 0.000000 3.761640 
# 
# 
# High freq. dielectric constant tensor:
#      x y z
#    x 1.784300 0.000000 0.000000 
#    y 0.000000 1.785990 0.000000 
#    z 0.000000 0.000000 1.802760 
# 
# From -- ./inp_files/16953.got.cif
#   From: 2010.03.12/outbox.cif.g09.slc.cpg/sg62_9_cif.got.tgz:16953.got - 2010.04.10 19:12:36.
