data_PCOD8254504
_publ_section_title
;
Structure prediction by ZEFSAII (Michael W. Deem and Ramdas Pophale) SiO2 
 PCOD8254504
Probable space group: P N M A
;
_chemical_formula_sum "Si O2"
_cell_formula_units_Z 44
_cell_length_a 5.148110
_cell_length_b 26.028739
_cell_length_c 15.320399
_cell_angle_alpha 90.000000
_cell_angle_beta 90.000000
_cell_angle_gamma 90.000000
_cell_volume 2052.915258
_symmetry_space_group_name_H-M "P N M A"
_symmetry_group_IT_number 62
_symmetry_cell_setting 'orthorhombic'
loop_
_space_group_symop_operation_xyz
x,y,z
1/2-x,-y,1/2+z
1/2+x,1/2-y,1/2-z
-x,1/2+y,-z
-x,-y,-z
1/2+x,y,1/2-z
1/2-x,1/2+y,1/2+z
x,1/2-y,z
loop_
_atom_site_type_symbol
_atom_site_label
_atom_site_fract_x
_atom_site_fract_y
_atom_site_fract_z
Si Si1 0.670682 0.917026 0.889442
Si Si2 0.062036 0.387399 0.558987
Si Si3 0.681940 0.857875 0.606791
Si Si4 0.843416 0.972381 0.307030
Si Si5 0.871157 0.309303 0.694271
Si Si6 0.138229 0.750000 0.806802
O O1 0.423592 0.887497 0.846580
O O2 0.923898 0.885914 0.860813
O O3 0.694359 0.974489 0.856500
O O4 0.638733 0.917673 0.995111
O O5 0.285022 0.361283 0.498600
O O6 0.199622 0.426653 0.624675
O O7 0.903743 0.343040 0.608114
O O8 0.680495 0.798807 0.632210
O O9 0.632257 0.967187 0.231058
O O10 0.594402 0.322970 0.736028
O O11 0.888137 0.250000 0.666192
O O12 0.845720 0.750000 0.771079
#
# Coordination Sequence:
#
# PCOD8254504 Si02
#       6
#     8   8   8   8   8   4
#     4  10  24  43  65  94 129 169 213 267 317 385
#     4  10  25  41  67  91 133 164 220 259 320 382
#     4  10  25  42  69  94 127 170 212 263 323 374
#     4  12  26  41  67  95 129 172 215 265 323 382
#     4  10  22  39  61  91 126 167 208 261 320 379
#     4  12  26  46  70  98 132 166 216 268 318 380
#
# _framework density 21.432936000000002
#
# number of rings (size 3 to 8) (size 9 to 14) (size 15 to 20)
#    1.091    0.364    0.000    3.818    6.364    5.091 
#    1.636    0.000    0.000    0.000    0.000    0.000 
#    0.000    0.000    0.000    0.000    0.000    0.000 
#
# Total GULP energy -545649.616291 kJ/mol
# GULP energy per Si atom -12401.127643 kJ/mol
# Density = 2.138415 g / cm^3
# Si number density = 21.432936 Si / 1000 Ang^3
#
#
#
# Elastic Constant Matrix: (Units=GPa)
#
#
# Indices 1 2 3 4 5 6 
#
# 1 98.3791 19.7270 16.9633 0.0000 0.0000 0.0000
# 2 19.7270 133.9358 60.0641 0.0000 0.0000 0.0000
# 3 16.9633 60.0641 85.1521 0.0000 0.0000 0.0000
# 4 0.0000 0.0000 0.0000 54.9376 0.0000 0.0000
# 5 0.0000 0.0000 0.0000 0.0000 -1.3529 0.0000
# 6 0.0000 0.0000 0.0000 0.0000 0.0000 27.1062
#
#
#
# Elastic Compliance Matrix: (Units=1/GPa)
#
#
# Indices 1 2 3 4 5 6 
#
# 1 0.010600 -0.000898 -0.001478 0.000000 0.000000 0.000000
# 2 -0.000898 0.010997 -0.007578 0.000000 0.000000 0.000000
# 3 -0.001478 -0.007578 0.017383 0.000000 0.000000 0.000000
# 4 0.000000 0.000000 0.000000 0.018202 0.000000 0.000000
# 5 0.000000 0.000000 0.000000 0.000000 -0.739179 0.000000
# 6 0.000000 0.000000 0.000000 0.000000 0.000000 0.036892
#
#
# Mechanical properties :
#
#
# Convention : Reuss Voigt Hill
#
# Bulk Modulus (GPa) = 52.43415 56.77507 54.60461
# Shear Modulus (GPa) = -8.07965 30.85236 11.38635
#
# Velocity S-wave (km/s) = -1.94369 3.79817 2.30740
# Velocity P-wave (km/s) = 4.41363 6.76623 5.71236
#
# Compressibility (1/GPa) = 0.01907154
#
# Stress axis : x y z
#
# Youngs Moduli (GPa) = 94.34194 90.93400 57.52607
#
# Poissons Ratio (x) = 0.08170 0.08501
# Poissons Ratio (y) = 0.08476 0.43593
# Poissons Ratio (z) = 0.13942 0.68910
#
# Static dielectric constant tensor:
#      x y z
#    x 3.917820 0.000000 0.000000 
#    y 0.000000 3.905430 0.000000 
#    z 0.000000 0.000000 3.708510 
# 
# 
# High freq. dielectric constant tensor:
#      x y z
#    x 1.846000 0.000000 0.000000 
#    y 0.000000 1.851640 0.000000 
#    z 0.000000 0.000000 1.836920 
# 
# From -- ./inp_files/16204.got.cif
#   From: 2010.03.12/outbox.cif.g09.slc.cpg/sg62_9_cif.got.tgz:16204.got - 2010.04.10 19:12:36.
