data_PCOD8254148
_publ_section_title
;
Structure prediction by ZEFSAII (Michael W. Deem and Ramdas Pophale) SiO2 
 PCOD8254148
Probable space group: P N M A
;
_chemical_formula_sum "Si O2"
_cell_formula_units_Z 40
_cell_length_a 8.828671
_cell_length_b 14.103682
_cell_length_c 11.852634
_cell_angle_alpha 90.000000
_cell_angle_beta 90.000000
_cell_angle_gamma 90.000000
_cell_volume 1475.851681
_symmetry_space_group_name_H-M "P N M A"
_symmetry_group_IT_number 62
_symmetry_cell_setting 'orthorhombic'
loop_
_space_group_symop_operation_xyz
x,y,z
1/2-x,-y,1/2+z
1/2+x,1/2-y,1/2-z
-x,1/2+y,-z
-x,-y,-z
1/2+x,y,1/2-z
1/2-x,1/2+y,1/2+z
x,1/2-y,z
loop_
_atom_site_type_symbol
_atom_site_label
_atom_site_fract_x
_atom_site_fract_y
_atom_site_fract_z
Si Si1 0.135432 0.856540 0.272320
Si Si2 0.326814 0.855419 0.592659
Si Si3 0.995915 0.111400 0.500454
Si Si4 0.579112 0.460382 0.618666
Si Si5 0.743062 0.645446 0.664623
O O1 0.166300 0.750000 0.228669
O O2 0.007190 0.853417 0.370182
O O3 0.078587 0.922697 0.169798
O O4 0.286168 0.900085 0.325750
O O5 0.393329 0.750000 0.566437
O O6 0.413124 0.936531 0.517084
O O7 0.340584 0.882869 0.724550
O O8 0.149062 0.851284 0.566154
O O9 0.146626 0.149547 0.442246
O O10 0.000000 0.000000 0.500000
O O11 0.605730 0.572123 0.643790
O O12 0.670163 0.750000 0.681199
#
# Coordination Sequence:
#
# PCOD8254148 Si02
#       5
#     8   8   8   8   8
#     4  11  22  40  68  96 129 170 219 278 339 399
#     4  10  21  39  62  88 126 169 213 269 333 392
#     4  11  19  39  63  91 124 169 222 276 325 393
#     4  11  23  41  66  96 133 172 224 276 335 400
#     4  11  23  38  62  93 128 173 220 269 326 397
#
# _framework density 27.102995
#
# number of rings (size 3 to 8) (size 9 to 14) (size 15 to 20)
#    0.000    1.200    4.000    6.000    0.000    0.000 
#    0.000    3.000    0.000    4.800    0.000    0.000 
#    0.000    0.000    0.000    0.000    0.000    0.000 
#
# Total GULP energy -496228.067866 kJ/mol
# GULP energy per Si atom -12405.701697 kJ/mol
# Density = 2.704131 g / cm^3
# Si number density = 27.102995 Si / 1000 Ang^3
#
#
#
# Elastic Constant Matrix: (Units=GPa)
#
#
# Indices 1 2 3 4 5 6 
#
# 1 58.6163 18.2862 21.9669 0.0000 0.0000 0.0000
# 2 18.2862 225.7971 39.9600 0.0000 0.0000 0.0000
# 3 21.9669 39.9600 124.1677 0.0000 0.0000 0.0000
# 4 0.0000 0.0000 0.0000 36.9794 0.0000 0.0000
# 5 0.0000 0.0000 0.0000 0.0000 51.6757 0.0000
# 6 0.0000 0.0000 0.0000 0.0000 0.0000 1.7462
#
#
#
# Elastic Compliance Matrix: (Units=1/GPa)
#
#
# Indices 1 2 3 4 5 6 
#
# 1 0.018471 -0.000973 -0.002955 0.000000 0.000000 0.000000
# 2 -0.000973 0.004747 -0.001356 0.000000 0.000000 0.000000
# 3 -0.002955 -0.001356 0.009013 0.000000 0.000000 0.000000
# 4 0.000000 0.000000 0.000000 0.027042 0.000000 0.000000
# 5 0.000000 0.000000 0.000000 0.000000 0.019351 0.000000
# 6 0.000000 0.000000 0.000000 0.000000 0.000000 0.572676
#
#
# Mechanical properties :
#
#
# Convention : Reuss Voigt Hill
#
# Bulk Modulus (GPa) = 46.15872 63.22305 54.69089
# Shear Modulus (GPa) = 7.47285 39.97145 23.72215
#
# Velocity S-wave (km/s) = 1.66229 3.84448 2.96169
# Velocity P-wave (km/s) = 4.55545 6.56386 5.64962
#
# Compressibility (1/GPa) = 0.02166438
#
# Stress axis : x y z
#
# Youngs Moduli (GPa) = 54.13922 210.63817 110.95534
#
# Poissons Ratio (x) = 0.20495 0.32783
# Poissons Ratio (y) = 0.05268 0.15042
# Poissons Ratio (z) = 0.15996 0.28557
#
# Static dielectric constant tensor:
#      x y z
#    x 5.891030 0.000000 0.000000 
#    y 0.000000 5.046700 0.000000 
#    z 0.000000 0.000000 5.631240 
# 
# 
# High freq. dielectric constant tensor:
#      x y z
#    x 2.093620 0.000000 0.000000 
#    y 0.000000 2.113830 0.000000 
#    z 0.000000 0.000000 2.101050 
# 
# From -- ./inp_files/12043.got.cif
#   From: 2010.03.12/outbox.cif.g09.slc.cpg/sg62_7_cif.got.tgz:12043.got - 2010.04.10 19:12:36.
