data_PCOD8254433
_publ_section_title
;
Structure prediction by ZEFSAII (Michael W. Deem and Ramdas Pophale) SiO2 
 PCOD8254433
Probable space group: P N M A
;
_chemical_formula_sum "Si O2"
_cell_formula_units_Z 64
_cell_length_a 12.772094
_cell_length_b 8.918029
_cell_length_c 28.609582
_cell_angle_alpha 90.000000
_cell_angle_beta 90.000000
_cell_angle_gamma 90.000000
_cell_volume 3258.685882
_symmetry_space_group_name_H-M "P N M A"
_symmetry_group_IT_number 62
_symmetry_cell_setting 'orthorhombic'
loop_
_space_group_symop_operation_xyz
x,y,z
1/2-x,-y,1/2+z
1/2+x,1/2-y,1/2-z
-x,1/2+y,-z
-x,-y,-z
1/2+x,y,1/2-z
1/2-x,1/2+y,1/2+z
x,1/2-y,z
loop_
_atom_site_type_symbol
_atom_site_label
_atom_site_fract_x
_atom_site_fract_y
_atom_site_fract_z
Si Si1 0.108893 0.577169 0.554996
Si Si2 0.496013 0.572061 0.643155
Si Si3 0.741009 0.082940 0.783106
Si Si4 0.395464 0.422542 0.944749
Si Si5 0.729632 0.573132 0.618837
Si Si6 0.213887 0.925418 0.113608
Si Si7 0.640882 0.076670 0.208079
Si Si8 0.018509 0.418210 0.758174
O O1 0.108193 0.750000 0.570269
O O2 0.115247 0.556815 0.499754
O O3 0.212268 0.497982 0.574678
O O4 0.000815 0.503948 0.573905
O O5 0.483119 0.750000 0.643695
O O6 0.607368 0.526303 0.619553
O O7 0.401947 0.499179 0.613134
O O8 0.492088 0.514119 0.696016
O O9 0.790136 0.250000 0.779415
O O10 0.727632 0.042394 0.837341
O O11 0.639006 0.076609 0.752251
O O12 0.814719 0.959582 0.759707
O O13 0.404056 0.250000 0.930018
O O14 0.290313 0.492382 0.923003
O O15 0.741448 0.750000 0.612327
O O16 0.783174 0.519444 0.667251
O O17 0.201472 0.750000 0.102783
O O18 0.616841 0.250000 0.202567
O O19 0.532258 0.985562 0.210270
O O20 0.978998 0.250000 0.767222
#
# Coordination Sequence:
#
# PCOD8254433 Si02
#       8
#     8   8   8   8   8   8   8   8
#     4  10  22  42  66  93 122 153 190 239 299 356
#     4  11  22  39  59  83 118 160 202 246 294 349
#     4  10  22  37  54  80 115 154 198 243 288 342
#     4  10  22  41  67  94 120 152 193 240 296 357
#     4  10  23  40  59  88 121 155 200 247 297 355
#     4  11  23  39  60  90 120 155 202 246 296 353
#     4  11  22  36  55  82 115 154 199 242 290 346
#     4  11  22  36  53  78 115 157 198 246 294 343
#
# _framework density 19.639818000000002
#
# number of rings (size 3 to 8) (size 9 to 14) (size 15 to 20)
#    0.000    1.500    2.500    2.250    1.750    4.500 
#    0.000    0.625    0.000    0.000    0.000    0.000 
#    0.000    0.000    0.000    0.000    0.000    0.000 
#
# Total GULP energy -793386.472729 kJ/mol
# GULP energy per Si atom -12396.663636 kJ/mol
# Density = 1.959512 g / cm^3
# Si number density = 19.639818 Si / 1000 Ang^3
#
#
#
# Elastic Constant Matrix: (Units=GPa)
#
#
# Indices 1 2 3 4 5 6 
#
# 1 130.7047 49.1280 36.6502 0.0000 0.0000 0.0000
# 2 49.1280 90.5442 31.3888 0.0000 0.0000 0.0000
# 3 36.6502 31.3888 43.8839 0.0000 0.0000 0.0000
# 4 0.0000 0.0000 0.0000 30.4021 0.0000 0.0000
# 5 0.0000 0.0000 0.0000 0.0000 -18.1124 0.0000
# 6 0.0000 0.0000 0.0000 0.0000 0.0000 39.5064
#
#
#
# Elastic Compliance Matrix: (Units=1/GPa)
#
#
# Indices 1 2 3 4 5 6 
#
# 1 0.010824 -0.003642 -0.006435 0.000000 0.000000 0.000000
# 2 -0.003642 0.015912 -0.008339 0.000000 0.000000 0.000000
# 3 -0.006435 -0.008339 0.034126 0.000000 0.000000 0.000000
# 4 0.000000 0.000000 0.000000 0.032892 0.000000 0.000000
# 5 0.000000 0.000000 0.000000 0.000000 -0.055211 0.000000
# 6 0.000000 0.000000 0.000000 0.000000 0.000000 0.025312
#
#
# Mechanical properties :
#
#
# Convention : Reuss Voigt Hill
#
# Bulk Modulus (GPa) = 41.61537 55.49630 48.55583
# Shear Modulus (GPa) = 45.99912 20.22364 33.11138
#
# Velocity S-wave (km/s) = 4.84481 3.21242 4.11046
# Velocity P-wave (km/s) = 7.24787 6.48675 6.87784
#
# Compressibility (1/GPa) = 0.02402959
#
# Stress axis : x y z
#
# Youngs Moduli (GPa) = 92.38555 62.84761 29.30307
#
# Poissons Ratio (x) = 0.22891 0.18856
# Poissons Ratio (y) = 0.33650 0.24436
# Poissons Ratio (z) = 0.59447 0.52409
#
# Static dielectric constant tensor:
#      x y z
#    x 3.881530 0.000000 0.000000 
#    y 0.000000 3.701790 0.000000 
#    z 0.000000 0.000000 3.366360 
# 
# 
# High freq. dielectric constant tensor:
#      x y z
#    x 1.782680 0.000000 0.000000 
#    y 0.000000 1.773420 0.000000 
#    z 0.000000 0.000000 1.744810 
# 
# From -- ./inp_files/32524.got.cif
#   From: 2010.03.12/outbox.cif.g09.slc.cpg/sg62_17_cif.got.tgz:32524.got - 2010.04.10 19:12:36.
