data_PCOD8254868
_publ_section_title
;
Structure prediction by ZEFSAII (Michael W. Deem and Ramdas Pophale) SiO2 
 PCOD8254868
Probable space group: P N M A
;
_chemical_formula_sum "Si O2"
_cell_formula_units_Z 48
_cell_length_a 14.592972
_cell_length_b 8.754420
_cell_length_c 18.513455
_cell_angle_alpha 90.000000
_cell_angle_beta 90.000000
_cell_angle_gamma 90.000000
_cell_volume 2365.149527
_symmetry_space_group_name_H-M "P N M A"
_symmetry_group_IT_number 62
_symmetry_cell_setting 'orthorhombic'
loop_
_space_group_symop_operation_xyz
x,y,z
1/2-x,-y,1/2+z
1/2+x,1/2-y,1/2-z
-x,1/2+y,-z
-x,-y,-z
1/2+x,y,1/2-z
1/2-x,1/2+y,1/2+z
x,1/2-y,z
loop_
_atom_site_type_symbol
_atom_site_label
_atom_site_fract_x
_atom_site_fract_y
_atom_site_fract_z
Si Si1 0.595417 0.071205 0.476920
Si Si2 0.049951 0.428161 0.432322
Si Si3 0.761436 0.425716 0.081703
Si Si4 0.688935 0.928788 0.742649
Si Si5 0.496763 0.572511 0.217208
Si Si6 0.844258 0.426766 0.828732
O O1 0.581899 0.250000 0.476376
O O2 0.500000 0.000000 0.500000
O O3 0.674217 0.029937 0.533324
O O4 0.622779 0.018419 0.397724
O O5 0.026164 0.250000 0.424561
O O6 0.157752 0.454154 0.442704
O O7 0.012709 0.515723 0.363173
O O8 0.000000 0.500000 0.500000
O O9 0.790651 0.250000 0.071158
O O10 0.771631 0.475125 0.164750
O O11 0.699226 0.750000 0.756957
O O12 0.583735 0.977536 0.745526
O O13 0.744172 0.017086 0.804864
O O14 0.470297 0.750000 0.216458
O O15 0.587372 0.540550 0.263085
O O16 0.839232 0.250000 0.849868
#
# Coordination Sequence:
#
# PCOD8254868 Si02
#       6
#     8   8   8   8   8   8
#     4  12  26  43  67  96 131 172 217 267 323 385
#     4  11  24  43  66  94 130 172 218 268 323 386
#     4  10  23  44  68  95 131 173 216 267 323 383
#     4  11  23  41  67  96 127 168 213 264 323 383
#     4  11  24  42  66  96 129 169 213 266 322 383
#     4  11  24  43  67  96 131 168 214 267 320 382
#
# _framework density 20.294699999999999
#
# number of rings (size 3 to 8) (size 9 to 14) (size 15 to 20)
#    0.000    1.000    1.667    4.500    2.333    7.333 
#    0.000    0.000    0.000    0.000    0.000    0.000 
#    0.000    0.000    0.000    0.000    0.000    0.000 
#
# Total GULP energy -595584.953506 kJ/mol
# GULP energy per Si atom -12408.019865 kJ/mol
# Density = 2.024851 g / cm^3
# Si number density = 20.294700 Si / 1000 Ang^3
#
#
#
# Elastic Constant Matrix: (Units=GPa)
#
#
# Indices 1 2 3 4 5 6 
#
# 1 87.5342 41.6706 33.3787 0.0000 0.0000 0.0000
# 2 41.6706 99.9840 69.2340 0.0000 0.0000 0.0000
# 3 33.3787 69.2340 101.6892 0.0000 0.0000 0.0000
# 4 0.0000 0.0000 0.0000 37.0672 0.0000 0.0000
# 5 0.0000 0.0000 0.0000 0.0000 35.7987 0.0000
# 6 0.0000 0.0000 0.0000 0.0000 0.0000 39.0898
#
#
#
# Elastic Compliance Matrix: (Units=1/GPa)
#
#
# Indices 1 2 3 4 5 6 
#
# 1 0.014329 -0.005137 -0.001206 0.000000 0.000000 0.000000
# 2 -0.005137 0.020764 -0.012451 0.000000 0.000000 0.000000
# 3 -0.001206 -0.012451 0.018707 0.000000 0.000000 0.000000
# 4 0.000000 0.000000 0.000000 0.026978 0.000000 0.000000
# 5 0.000000 0.000000 0.000000 0.000000 0.027934 0.000000
# 6 0.000000 0.000000 0.000000 0.000000 0.000000 0.025582
#
#
# Mechanical properties :
#
#
# Convention : Reuss Voigt Hill
#
# Bulk Modulus (GPa) = 61.68053 64.19710 62.93881
# Shear Modulus (GPa) = 28.20290 32.05274 30.12782
#
# Velocity S-wave (km/s) = 3.73187 3.97843 3.85712
# Velocity P-wave (km/s) = 7.00197 7.26671 7.13557
#
# Compressibility (1/GPa) = 0.01621257
#
# Stress axis : x y z
#
# Youngs Moduli (GPa) = 69.78626 48.15987 53.45642
#
# Poissons Ratio (x) = 0.24740 0.06447
# Poissons Ratio (y) = 0.35849 0.66558
# Poissons Ratio (z) = 0.08417 0.59963
#
# Static dielectric constant tensor:
#      x y z
#    x 3.843530 0.000000 0.000000 
#    y 0.000000 3.799050 0.000000 
#    z 0.000000 0.000000 3.770840 
# 
# 
# High freq. dielectric constant tensor:
#      x y z
#    x 1.807370 0.000000 0.000000 
#    y 0.000000 1.804960 0.000000 
#    z 0.000000 0.000000 1.805680 
# 
# From -- ./inp_files/23659.got.cif
#   From: 2010.03.12/outbox.cif.g09.slc.cpg/sg62_12_cif.got.tgz:23659.got - 2010.04.10 19:12:36.
