data_PCOD8254479
_publ_section_title
;
Structure prediction by ZEFSAII (Michael W. Deem and Ramdas Pophale) SiO2 
 PCOD8254479
Probable space group: P N M A
;
_chemical_formula_sum "Si O2"
_cell_formula_units_Z 64
_cell_length_a 15.050884
_cell_length_b 22.316520
_cell_length_c 9.406831
_cell_angle_alpha 90.000000
_cell_angle_beta 90.000000
_cell_angle_gamma 90.000000
_cell_volume 3159.597945
_symmetry_space_group_name_H-M "P N M A"
_symmetry_group_IT_number 62
_symmetry_cell_setting 'orthorhombic'
loop_
_space_group_symop_operation_xyz
x,y,z
1/2-x,-y,1/2+z
1/2+x,1/2-y,1/2-z
-x,1/2+y,-z
-x,-y,-z
1/2+x,y,1/2-z
1/2-x,1/2+y,1/2+z
x,1/2-y,z
loop_
_atom_site_type_symbol
_atom_site_label
_atom_site_fract_x
_atom_site_fract_y
_atom_site_fract_z
Si Si1 0.855487 0.600751 0.427590
Si Si2 0.929583 0.593747 0.129482
Si Si3 0.191953 0.818735 0.076845
Si Si4 0.646425 0.960588 0.937254
Si Si5 0.485121 0.182783 0.416222
Si Si6 0.522569 0.402869 0.173503
Si Si7 0.116914 0.581420 0.250532
Si Si8 0.837754 0.535411 0.875852
O O1 0.865847 0.613222 0.258933
O O2 0.776566 0.644186 0.479641
O O3 0.840438 0.530979 0.461450
O O4 0.943421 0.618418 0.518303
O O5 0.016883 0.566460 0.201835
O O6 0.881929 0.543635 0.031769
O O7 0.952788 0.650259 0.031549
O O8 0.216794 0.750000 0.115733
O O9 0.149141 0.851323 0.214816
O O10 0.118734 0.820620 0.953116
O O11 0.562955 0.946893 0.835075
O O12 0.739282 0.935046 0.874297
O O13 0.626953 0.927158 0.083396
O O14 0.520585 0.250000 0.411757
O O15 0.495190 0.155563 0.260204
O O16 0.602609 0.436961 0.251728
O O17 0.176139 0.535089 0.158168
#
# Coordination Sequence:
#
# PCOD8254479 Si02
#       8
#     8   8   8   8   8   8   8   8
#     4  12  22  39  63  97 132 167 210 274 328 393
#     4  10  22  38  63  94 128 166 217 265 328 389
#     4  10  23  41  64  90 122 170 225 265 316 393
#     4  12  24  39  63  98 145 165 211 277 343 391
#     4   9  22  45  65  86 126 174 221 269 318 387
#     4  11  24  40  64  98 133 169 215 270 335 399
#     4  11  20  41  61  93 130 172 209 273 326 390
#     4  11  23  38  63  95 128 178 213 257 334 403
#
# _framework density 20.255742999999999
#
# number of rings (size 3 to 8) (size 9 to 14) (size 15 to 20)
#    0.000    1.250    3.750    2.250    1.750    3.000 
#    0.000    0.625    0.000    0.000    0.000    0.000 
#    0.000    0.000    0.000    0.000    0.000    0.000 
#
# Total GULP energy -793565.867229 kJ/mol
# GULP energy per Si atom -12399.466675 kJ/mol
# Density = 2.020964 g / cm^3
# Si number density = 20.255743 Si / 1000 Ang^3
#
#
#
# Elastic Constant Matrix: (Units=GPa)
#
#
# Indices 1 2 3 4 5 6 
#
# 1 116.3339 26.8343 34.5446 0.0000 0.0000 0.0000
# 2 26.8343 107.9706 37.5514 0.0000 0.0000 0.0000
# 3 34.5446 37.5514 100.1917 0.0000 0.0000 0.0000
# 4 0.0000 0.0000 0.0000 21.1173 0.0000 0.0000
# 5 0.0000 0.0000 0.0000 0.0000 30.9800 0.0000
# 6 0.0000 0.0000 0.0000 0.0000 0.0000 26.2910
#
#
#
# Elastic Compliance Matrix: (Units=1/GPa)
#
#
# Indices 1 2 3 4 5 6 
#
# 1 0.009769 -0.001445 -0.002827 0.000000 0.000000 0.000000
# 2 -0.001445 0.010864 -0.003574 0.000000 0.000000 0.000000
# 3 -0.002827 -0.003574 0.012295 0.000000 0.000000 0.000000
# 4 0.000000 0.000000 0.000000 0.047355 0.000000 0.000000
# 5 0.000000 0.000000 0.000000 0.000000 0.032279 0.000000
# 6 0.000000 0.000000 0.000000 0.000000 0.000000 0.038036
#
#
# Mechanical properties :
#
#
# Convention : Reuss Voigt Hill
#
# Bulk Modulus (GPa) = 58.01369 58.03964 58.02666
# Shear Modulus (GPa) = 29.06439 30.71538 29.88988
#
# Velocity S-wave (km/s) = 3.79208 3.89830 3.84555
# Velocity P-wave (km/s) = 6.91924 6.99842 6.95895
#
# Compressibility (1/GPa) = 0.01723731
#
# Stress axis : x y z
#
# Youngs Moduli (GPa) = 102.36953 92.04964 81.33546
#
# Poissons Ratio (x) = 0.13299 0.22990
# Poissons Ratio (y) = 0.14790 0.29065
# Poissons Ratio (z) = 0.28935 0.32894
#
# Static dielectric constant tensor:
#      x y z
#    x 3.887090 0.000000 0.000000 
#    y 0.000000 3.531780 0.000000 
#    z 0.000000 0.000000 3.703880 
# 
# 
# High freq. dielectric constant tensor:
#      x y z
#    x 1.806460 0.000000 0.000000 
#    y 0.000000 1.766280 0.000000 
#    z 0.000000 0.000000 1.791450 
# 
# From -- ./inp_files/6957.got.cif
#   From: 2010.03.12/outbox.cif.g09.slc.cpg/sg62_4_cif.got.tgz:6957.got - 2010.04.10 19:12:36.
