data_PCOD8254079
_publ_section_title
;
Structure prediction by ZEFSAII (Michael W. Deem and Ramdas Pophale) SiO2 
 PCOD8254079
Probable space group: P N M A
;
_chemical_formula_sum "Si O2"
_cell_formula_units_Z 40
_cell_length_a 13.957364
_cell_length_b 22.697863
_cell_length_c 6.409587
_cell_angle_alpha 90.000000
_cell_angle_beta 90.000000
_cell_angle_gamma 90.000000
_cell_volume 2030.572134
_symmetry_space_group_name_H-M "P N M A"
_symmetry_group_IT_number 62
_symmetry_cell_setting 'orthorhombic'
loop_
_space_group_symop_operation_xyz
x,y,z
1/2-x,-y,1/2+z
1/2+x,1/2-y,1/2-z
-x,1/2+y,-z
-x,-y,-z
1/2+x,y,1/2-z
1/2-x,1/2+y,1/2+z
x,1/2-y,z
loop_
_atom_site_type_symbol
_atom_site_label
_atom_site_fract_x
_atom_site_fract_y
_atom_site_fract_z
Si Si1 0.878747 0.605513 0.264790
Si Si2 0.671483 0.621654 0.173221
Si Si3 0.011293 0.817998 0.560276
Si Si4 0.600023 0.982364 0.903842
Si Si5 0.956054 0.393557 0.056129
O O1 0.783864 0.638082 0.179827
O O2 0.843268 0.543214 0.362749
O O3 0.930769 0.645297 0.437348
O O4 0.950642 0.590042 0.077730
O O5 0.631720 0.623745 0.407633
O O6 0.615993 0.670834 0.038885
O O7 0.658250 0.557561 0.066751
O O8 0.983772 0.750000 0.548145
O O9 0.014943 0.838139 0.800009
O O10 0.579214 0.948634 0.689665
O O11 0.500000 0.000000 0.000000
#
# Coordination Sequence:
#
# PCOD8254079 Si02
#       5
#     8   8   8   8   8
#     4  11  23  38  62  93 122 156 204 242 305 360
#     4  10  24  38  60  94 123 156 198 249 300 363
#     4  10  23  44  62  83 119 161 210 253 296 349
#     4  11  20  37  58  90 126 161 190 241 297 368
#     4  10  21  39  59  84 124 162 197 243 303 354
#
# _framework density 19.698879999999999
#
# number of rings (size 3 to 8) (size 9 to 14) (size 15 to 20)
#    0.000    1.600    6.000    0.600    2.800    7.200 
#    0.000    2.000    0.000    0.000    0.000    0.000 
#    0.000    0.000    0.000    0.000    0.000    0.000 
#
# Total GULP energy -496009.627262 kJ/mol
# GULP energy per Si atom -12400.240682 kJ/mol
# Density = 1.965404 g / cm^3
# Si number density = 19.698880 Si / 1000 Ang^3
#
#
#
# Elastic Constant Matrix: (Units=GPa)
#
#
# Indices 1 2 3 4 5 6 
#
# 1 103.7051 12.1263 24.1708 0.0000 0.0000 0.0000
# 2 12.1263 132.3030 43.0014 0.0000 0.0000 0.0000
# 3 24.1708 43.0014 110.1551 0.0000 0.0000 0.0000
# 4 0.0000 0.0000 0.0000 16.9302 0.0000 0.0000
# 5 0.0000 0.0000 0.0000 0.0000 11.0260 0.0000
# 6 0.0000 0.0000 0.0000 0.0000 0.0000 15.8634
#
#
#
# Elastic Compliance Matrix: (Units=1/GPa)
#
#
# Indices 1 2 3 4 5 6 
#
# 1 0.010169 -0.000237 -0.002139 0.000000 0.000000 0.000000
# 2 -0.000237 0.008662 -0.003330 0.000000 0.000000 0.000000
# 3 -0.002139 -0.003330 0.010847 0.000000 0.000000 0.000000
# 4 0.000000 0.000000 0.000000 0.059066 0.000000 0.000000
# 5 0.000000 0.000000 0.000000 0.000000 0.090695 0.000000
# 6 0.000000 0.000000 0.000000 0.000000 0.000000 0.063038
#
#
# Mechanical properties :
#
#
# Convention : Reuss Voigt Hill
#
# Bulk Modulus (GPa) = 54.74085 56.08447 55.41266
# Shear Modulus (GPa) = 19.23247 26.55491 22.89369
#
# Velocity S-wave (km/s) = 3.12801 3.67555 3.41278
# Velocity P-wave (km/s) = 6.39492 6.82243 6.61213
#
# Compressibility (1/GPa) = 0.01826789
#
# Stress axis : x y z
#
# Youngs Moduli (GPa) = 98.33876 115.44294 92.18986
#
# Poissons Ratio (x) = 0.02734 0.19718
# Poissons Ratio (y) = 0.02329 0.30695
# Poissons Ratio (z) = 0.21033 0.38437
#
# Static dielectric constant tensor:
#      x y z
#    x 3.408010 0.000000 0.000000 
#    y 0.000000 3.761200 0.000000 
#    z 0.000000 0.000000 -9.142380 
# 
# 
# High freq. dielectric constant tensor:
#      x y z
#    x 1.758710 0.000000 0.000000 
#    y 0.000000 1.752690 0.000000 
#    z 0.000000 0.000000 1.782030 
# 
# From -- ./inp_files/1034.got.cif
#   From: 2010.03.12/outbox.cif.g09.slc.cpg/sg62_1_cif.got.tgz:1034.got - 2010.04.10 19:12:36.
