data_PCOD8254439
_publ_section_title
;
Structure prediction by ZEFSAII (Michael W. Deem and Ramdas Pophale) SiO2 
 PCOD8254439
Probable space group: P N M A
;
_chemical_formula_sum "Si O2"
_cell_formula_units_Z 48
_cell_length_a 9.447054
_cell_length_b 8.673620
_cell_length_c 30.661761
_cell_angle_alpha 90.000000
_cell_angle_beta 90.000000
_cell_angle_gamma 90.000000
_cell_volume 2512.429495
_symmetry_space_group_name_H-M "P N M A"
_symmetry_group_IT_number 62
_symmetry_cell_setting 'orthorhombic'
loop_
_space_group_symop_operation_xyz
x,y,z
1/2-x,-y,1/2+z
1/2+x,1/2-y,1/2-z
-x,1/2+y,-z
-x,-y,-z
1/2+x,y,1/2-z
1/2-x,1/2+y,1/2+z
x,1/2-y,z
loop_
_atom_site_type_symbol
_atom_site_label
_atom_site_fract_x
_atom_site_fract_y
_atom_site_fract_z
Si Si1 0.096065 0.925202 0.786783
Si Si2 0.412704 0.432877 0.039905
Si Si3 0.906587 0.431283 0.615286
Si Si4 0.921024 0.572433 0.707798
Si Si5 0.604883 0.566934 0.617212
Si Si6 0.909234 0.931489 0.961292
O O1 0.042658 0.750000 0.787742
O O2 0.260645 0.938669 0.776396
O O3 0.012296 0.004746 0.746916
O O4 0.063407 0.997250 0.834589
O O5 0.417877 0.250000 0.037849
O O6 0.476994 0.489567 0.085105
O O7 0.251019 0.493769 0.037168
O O8 0.500000 0.500000 0.000000
O O9 0.911504 0.250000 0.608113
O O10 0.946571 0.473058 0.664681
O O11 0.751458 0.491171 0.601666
O O12 0.963508 0.750000 0.697833
O O13 0.631549 0.750000 0.619419
O O14 0.480207 0.519273 0.584522
O O15 0.911959 0.750000 0.966395
O O16 0.000000 0.000000 0.000000
#
# Coordination Sequence:
#
# PCOD8254439 Si02
#       6
#     8   8   8   8   8   8
#     4   8  15  28  51  77 100 130 173 218 265 314
#     4  11  23  39  58  83 111 142 178 220 267 320
#     4  11  22  36  54  79 110 147 184 220 264 320
#     4   9  17  32  53  77 104 138 178 225 272 318
#     4   9  18  36  58  80 105 138 179 227 274 318
#     4  10  22  37  57  82 108 137 174 218 267 318
#
# _framework density 19.105014000000001
#
# number of rings (size 3 to 8) (size 9 to 14) (size 15 to 20)
#    0.000    2.333    0.000    4.000    0.000    6.000 
#    0.000    8.333    0.000    0.000    0.000    0.000 
#    0.000    0.000    0.000    0.000    0.000    0.000 
#
# Total GULP energy -595152.781895 kJ/mol
# GULP energy per Si atom -12399.016289 kJ/mol
# Density = 1.906153 g / cm^3
# Si number density = 19.105014 Si / 1000 Ang^3
#
#
#
# Elastic Constant Matrix: (Units=GPa)
#
#
# Indices 1 2 3 4 5 6 
#
# 1 148.7184 35.9089 95.4544 0.0000 0.0000 0.0000
# 2 35.9089 49.3217 28.1791 0.0000 0.0000 0.0000
# 3 95.4544 28.1791 130.7924 0.0000 0.0000 0.0000
# 4 0.0000 0.0000 0.0000 26.6347 0.0000 0.0000
# 5 0.0000 0.0000 0.0000 0.0000 46.3253 0.0000
# 6 0.0000 0.0000 0.0000 0.0000 0.0000 20.8628
#
#
#
# Elastic Compliance Matrix: (Units=1/GPa)
#
#
# Indices 1 2 3 4 5 6 
#
# 1 0.013585 -0.004819 -0.008876 0.000000 0.000000 0.000000
# 2 -0.004819 0.024831 -0.001833 0.000000 0.000000 0.000000
# 3 -0.008876 -0.001833 0.014518 0.000000 0.000000 0.000000
# 4 0.000000 0.000000 0.000000 0.037545 0.000000 0.000000
# 5 0.000000 0.000000 0.000000 0.000000 0.021586 0.000000
# 6 0.000000 0.000000 0.000000 0.000000 0.000000 0.047932
#
#
# Mechanical properties :
#
#
# Convention : Reuss Voigt Hill
#
# Bulk Modulus (GPa) = 45.70778 71.99079 58.84928
# Shear Modulus (GPa) = 25.20838 30.05056 27.62947
#
# Velocity S-wave (km/s) = 3.63638 3.97030 3.80701
# Velocity P-wave (km/s) = 6.45039 7.66689 7.08479
#
# Compressibility (1/GPa) = 0.02187811
#
# Stress axis : x y z
#
# Youngs Moduli (GPa) = 73.61118 40.27262 68.87765
#
# Poissons Ratio (x) = 0.19409 0.61137
# Poissons Ratio (y) = 0.35475 0.12622
# Poissons Ratio (z) = 0.65338 0.07380
#
# Static dielectric constant tensor:
#      x y z
#    x 2.471140 0.000000 0.000000 
#    y 0.000000 3.268920 0.000000 
#    z 0.000000 0.000000 3.728140 
# 
# 
# High freq. dielectric constant tensor:
#      x y z
#    x 1.744290 0.000000 0.000000 
#    y 0.000000 1.715660 0.000000 
#    z 0.000000 0.000000 1.759850 
# 
# From -- ./inp_files/32045.got.cif
#   From: 2010.03.12/outbox.cif.g09.slc.cpg/sg62_17_cif.got.tgz:32045.got - 2010.04.10 19:12:36.
