data_PCOD8254762
_publ_section_title
;
Structure prediction by ZEFSAII (Michael W. Deem and Ramdas Pophale) SiO2 
 PCOD8254762
Probable space group: P N M A
;
_chemical_formula_sum "Si O2"
_cell_formula_units_Z 40
_cell_length_a 9.328707
_cell_length_b 7.442840
_cell_length_c 26.874832
_cell_angle_alpha 90.000000
_cell_angle_beta 90.000000
_cell_angle_gamma 90.000000
_cell_volume 1865.975314
_symmetry_space_group_name_H-M "P N M A"
_symmetry_group_IT_number 62
_symmetry_cell_setting 'orthorhombic'
loop_
_space_group_symop_operation_xyz
x,y,z
1/2-x,-y,1/2+z
1/2+x,1/2-y,1/2-z
-x,1/2+y,-z
-x,-y,-z
1/2+x,y,1/2-z
1/2-x,1/2+y,1/2+z
x,1/2-y,z
loop_
_atom_site_type_symbol
_atom_site_label
_atom_site_fract_x
_atom_site_fract_y
_atom_site_fract_z
Si Si1 0.021311 0.750000 0.690333
Si Si2 0.314909 0.963463 0.130540
Si Si3 0.098752 0.958974 0.954119
Si Si4 0.345761 0.542167 0.018890
Si Si5 0.678055 0.750000 0.705920
Si Si6 0.505512 0.051811 0.650958
O O1 0.060413 0.569994 0.659628
O O2 0.122330 0.750000 0.738275
O O3 0.851662 0.750000 0.703212
O O4 0.346737 0.750000 0.133807
O O5 0.315942 0.037863 0.073715
O O6 0.160123 0.012776 0.154354
O O7 0.101871 0.750000 0.938978
O O8 0.048873 0.069589 0.906608
O O9 0.249856 0.035444 0.974043
O O10 0.000000 0.000000 0.000000
O O11 0.310517 0.750000 0.023578
O O12 0.500000 0.500000 0.000000
O O13 0.615386 0.574499 0.679507
O O14 0.518528 0.250000 0.674790
#
# Coordination Sequence:
#
# PCOD8254762 Si02
#       6
#     4   8   8   8   4   8
#     4  12  28  48  78  96 136 174 226 288 359 404
#     4  10  23  44  68 100 138 180 226 280 340 405
#     4  11  21  36  60  95 136 183 231 269 322 398
#     4  10  23  37  56  91 137 178 223 268 324 393
#     4  12  28  50  72 106 128 174 230 288 349 422
#     4  11  23  43  70 100 139 179 229 284 338 407
#
# _framework density 21.436509000000001
#
# number of rings (size 3 to 8) (size 9 to 14) (size 15 to 20)
#    0.000    1.200    3.000    2.400    4.200    3.200 
#    0.000    0.000    0.000    0.000    0.000    0.000 
#    0.000    0.000    0.000    0.000    0.000    0.000 
#
# Total GULP energy -495819.034909 kJ/mol
# GULP energy per Si atom -12395.475873 kJ/mol
# Density = 2.138772 g / cm^3
# Si number density = 21.436509 Si / 1000 Ang^3
#
#
#
# Elastic Constant Matrix: (Units=GPa)
#
#
# Indices 1 2 3 4 5 6 
#
# 1 155.2374 39.3469 21.4527 0.0000 0.0000 0.0000
# 2 39.3469 88.8409 28.4101 0.0000 0.0000 0.0000
# 3 21.4527 28.4101 79.7585 0.0000 0.0000 0.0000
# 4 0.0000 0.0000 0.0000 24.8617 0.0000 0.0000
# 5 0.0000 0.0000 0.0000 0.0000 42.6833 0.0000
# 6 0.0000 0.0000 0.0000 0.0000 0.0000 35.5504
#
#
#
# Elastic Compliance Matrix: (Units=1/GPa)
#
#
# Indices 1 2 3 4 5 6 
#
# 1 0.007315 -0.002946 -0.000918 0.000000 0.000000 0.000000
# 2 -0.002946 0.013890 -0.004155 0.000000 0.000000 0.000000
# 3 -0.000918 -0.004155 0.014265 0.000000 0.000000 0.000000
# 4 0.000000 0.000000 0.000000 0.040223 0.000000 0.000000
# 5 0.000000 0.000000 0.000000 0.000000 0.023428 0.000000
# 6 0.000000 0.000000 0.000000 0.000000 0.000000 0.028129
#
#
# Mechanical properties :
#
#
# Convention : Reuss Voigt Hill
#
# Bulk Modulus (GPa) = 51.46445 55.80627 53.63536
# Shear Modulus (GPa) = 33.38542 36.26088 34.82315
#
# Velocity S-wave (km/s) = 3.95068 4.11730 4.03485
# Velocity P-wave (km/s) = 6.69854 6.97802 6.83971
#
# Compressibility (1/GPa) = 0.01943089
#
# Stress axis : x y z
#
# Youngs Moduli (GPa) = 136.69764 71.99575 70.10242
#
# Poissons Ratio (x) = 0.21212 0.06436
# Poissons Ratio (y) = 0.40276 0.29128
# Poissons Ratio (z) = 0.12551 0.29915
#
# Static dielectric constant tensor:
#      x y z
#    x 3.875480 0.000000 0.000000 
#    y 0.000000 3.925380 0.000000 
#    z 0.000000 0.000000 3.753170 
# 
# 
# High freq. dielectric constant tensor:
#      x y z
#    x 1.849760 0.000000 0.000000 
#    y 0.000000 1.845490 0.000000 
#    z 0.000000 0.000000 1.837230 
# 
# From -- ./inp_files/28627.got.cif
#   From: 2010.03.12/outbox.cif.g09.slc.cpg/sg62_15_cif.got.tgz:28627.got - 2010.04.10 19:12:36.
