data_PCOD8254621
_publ_section_title
;
Structure prediction by ZEFSAII (Michael W. Deem and Ramdas Pophale) SiO2 
 PCOD8254621
Probable space group: P N M A
;
_chemical_formula_sum "Si O2"
_cell_formula_units_Z 56
_cell_length_a 14.507149
_cell_length_b 8.543435
_cell_length_c 21.943121
_cell_angle_alpha 90.000000
_cell_angle_beta 90.000000
_cell_angle_gamma 90.000000
_cell_volume 2719.649826
_symmetry_space_group_name_H-M "P N M A"
_symmetry_group_IT_number 62
_symmetry_cell_setting 'orthorhombic'
loop_
_space_group_symop_operation_xyz
x,y,z
1/2-x,-y,1/2+z
1/2+x,1/2-y,1/2-z
-x,1/2+y,-z
-x,-y,-z
1/2+x,y,1/2-z
1/2-x,1/2+y,1/2+z
x,1/2-y,z
loop_
_atom_site_type_symbol
_atom_site_label
_atom_site_fract_x
_atom_site_fract_y
_atom_site_fract_z
Si Si1 0.971212 0.568840 0.175432
Si Si2 0.620380 0.432421 0.242803
Si Si3 0.688108 0.068751 0.769285
Si Si4 0.722933 0.436802 0.013459
Si Si5 0.924907 0.933084 0.609682
Si Si6 0.573266 0.567423 0.546560
Si Si7 0.867228 0.432842 0.395946
O O1 0.969507 0.750000 0.157820
O O2 0.894860 0.523338 0.224805
O O3 0.954871 0.470809 0.114963
O O4 0.070056 0.525420 0.203257
O O5 0.595951 0.250000 0.248435
O O6 0.728580 0.457962 0.249981
O O7 0.588887 0.502701 0.177468
O O8 0.715955 0.250000 0.763016
O O9 0.658080 0.034524 0.837692
O O10 0.716533 0.250000 0.006864
O O11 0.650220 0.503375 0.063135
O O12 0.824080 0.496361 0.032793
O O13 0.700428 0.517041 0.949555
O O14 0.906500 0.750000 0.614229
O O15 0.027238 0.971780 0.585524
O O16 0.500000 0.500000 0.500000
O O17 0.573717 0.750000 0.536949
O O18 0.855106 0.250000 0.380872
#
# Coordination Sequence:
#
# PCOD8254621 Si02
#       7
#     8   8   8   8   8   8   8
#     4  11  24  43  66  94 129 166 209 262 319 380
#     4  11  22  39  66  94 125 165 210 260 313 377
#     4  11  24  41  62  92 130 168 209 261 317 378
#     4  10  22  41  63  89 123 165 208 259 317 371
#     4   9  19  38  63  93 125 159 205 255 310 375
#     4  11  25  44  67  91 125 169 216 268 318 375
#     4  11  22  38  62  93 126 162 208 258 310 376
#
# _framework density 20.590886000000001
#
# number of rings (size 3 to 8) (size 9 to 14) (size 15 to 20)
#    0.000    1.429    1.429    3.429    2.000    4.000 
#    0.000    2.143    0.000    0.000    0.000    0.000 
#    0.000    0.000    0.000    0.000    0.000    0.000 
#
# Total GULP energy -694709.348050 kJ/mol
# GULP energy per Si atom -12405.524072 kJ/mol
# Density = 2.054402 g / cm^3
# Si number density = 20.590886 Si / 1000 Ang^3
#
#
#
# Elastic Constant Matrix: (Units=GPa)
#
#
# Indices 1 2 3 4 5 6 
#
# 1 68.7452 24.8403 21.8177 0.0000 0.0000 0.0000
# 2 24.8403 34.6409 18.3035 0.0000 0.0000 0.0000
# 3 21.8177 18.3035 125.1901 0.0000 0.0000 0.0000
# 4 0.0000 0.0000 0.0000 26.7025 0.0000 0.0000
# 5 0.0000 0.0000 0.0000 0.0000 31.7671 0.0000
# 6 0.0000 0.0000 0.0000 0.0000 0.0000 28.7658
#
#
#
# Elastic Compliance Matrix: (Units=1/GPa)
#
#
# Indices 1 2 3 4 5 6 
#
# 1 0.019889 -0.013471 -0.001497 0.000000 0.000000 0.000000
# 2 -0.013471 0.040409 -0.003560 0.000000 0.000000 0.000000
# 3 -0.001497 -0.003560 0.008769 0.000000 0.000000 0.000000
# 4 0.000000 0.000000 0.000000 0.037450 0.000000 0.000000
# 5 0.000000 0.000000 0.000000 0.000000 0.031479 0.000000
# 6 0.000000 0.000000 0.000000 0.000000 0.000000 0.034763
#
#
# Mechanical properties :
#
#
# Convention : Reuss Voigt Hill
#
# Bulk Modulus (GPa) = 31.23956 39.83325 35.53640
# Shear Modulus (GPa) = 22.67715 28.35472 25.51593
#
# Velocity S-wave (km/s) = 3.32221 3.71489 3.52403
# Velocity P-wave (km/s) = 5.46997 6.14716 5.81843
#
# Compressibility (1/GPa) = 0.03201069
#
# Stress axis : x y z
#
# Youngs Moduli (GPa) = 50.27856 24.74708 114.03533
#
# Poissons Ratio (x) = 0.33338 0.17067
# Poissons Ratio (y) = 0.67732 0.40600
# Poissons Ratio (z) = 0.07525 0.08811
#
# Static dielectric constant tensor:
#      x y z
#    x 3.609490 0.000000 0.000000 
#    y 0.000000 3.524540 0.000000 
#    z 0.000000 0.000000 3.595050 
# 
# 
# High freq. dielectric constant tensor:
#      x y z
#    x 1.818840 0.000000 0.000000 
#    y 0.000000 1.793720 0.000000 
#    z 0.000000 0.000000 1.816990 
# 
# From -- ./inp_files/27209.got.cif
#   From: 2010.03.12/outbox.cif.g09.slc.cpg/sg62_14_cif.got.tgz:27209.got - 2010.04.10 19:12:36.
