data_PCOD8254197
_publ_section_title
;
Structure prediction by ZEFSAII (Michael W. Deem and Ramdas Pophale) SiO2 
 PCOD8254197
Probable space group: P N M A
;
_chemical_formula_sum "Si O2"
_cell_formula_units_Z 48
_cell_length_a 19.218702
_cell_length_b 13.561856
_cell_length_c 9.183196
_cell_angle_alpha 90.000000
_cell_angle_beta 90.000000
_cell_angle_gamma 90.000000
_cell_volume 2393.519859
_symmetry_space_group_name_H-M "P N M A"
_symmetry_group_IT_number 62
_symmetry_cell_setting 'orthorhombic'
loop_
_space_group_symop_operation_xyz
x,y,z
1/2-x,-y,1/2+z
1/2+x,1/2-y,1/2-z
-x,1/2+y,-z
-x,-y,-z
1/2+x,y,1/2-z
1/2-x,1/2+y,1/2+z
x,1/2-y,z
loop_
_atom_site_type_symbol
_atom_site_label
_atom_site_fract_x
_atom_site_fract_y
_atom_site_fract_z
Si Si1 0.598821 0.482126 0.303344
Si Si2 0.031699 0.635144 0.723473
Si Si3 0.347972 0.463427 0.385688
Si Si4 0.531611 0.864423 0.109384
Si Si5 0.375292 0.638189 0.186708
Si Si6 0.799333 0.635395 0.614743
O O1 0.528259 0.419407 0.313136
O O2 0.613988 0.522415 0.462260
O O3 0.590222 0.575085 0.195279
O O4 0.662629 0.414409 0.251404
O O5 0.016136 0.750000 0.734177
O O6 0.107004 0.610917 0.787885
O O7 0.028849 0.598548 0.556838
O O8 0.338528 0.567585 0.303354
O O9 0.273831 0.415609 0.413665
O O10 0.552713 0.750000 0.115229
O O11 0.457518 0.883471 0.185918
O O12 0.359728 0.750000 0.235482
O O13 0.346842 0.619001 0.025901
O O14 0.788394 0.750000 0.649984
#
# Coordination Sequence:
#
# PCOD8254197 Si02
#       6
#     8   8   8   8   8   8
#     4  12  23  40  64  98 125 160 209 261 316 364
#     4  11  22  39  63  92 125 165 214 259 305 365
#     4  12  25  40  60  97 131 164 197 263 322 370
#     4  10  21  39  66  93 121 164 213 257 303 368
#     4  10  21  41  65  89 121 166 212 254 306 374
#     4  11  24  44  65  85 123 174 213 249 306 378
#
# _framework density 20.054147
#
# number of rings (size 3 to 8) (size 9 to 14) (size 15 to 20)
#    0.000    1.000    3.333    4.000    0.000    2.667 
#    0.000    0.833    0.000    0.000    0.000    0.000 
#    0.000    0.000    0.000    0.000    0.000    0.000 
#
# Total GULP energy -595584.113951 kJ/mol
# GULP energy per Si atom -12408.002374 kJ/mol
# Density = 2.000850 g / cm^3
# Si number density = 20.054147 Si / 1000 Ang^3
#
#
#
# Elastic Constant Matrix: (Units=GPa)
#
#
# Indices 1 2 3 4 5 6 
#
# 1 42.8522 35.1972 20.8907 0.0000 0.0000 0.0000
# 2 35.1972 96.4131 45.0386 0.0000 0.0000 0.0000
# 3 20.8907 45.0386 74.4637 0.0000 0.0000 0.0000
# 4 0.0000 0.0000 0.0000 25.3408 0.0000 0.0000
# 5 0.0000 0.0000 0.0000 0.0000 13.0433 0.0000
# 6 0.0000 0.0000 0.0000 0.0000 0.0000 36.5681
#
#
#
# Elastic Compliance Matrix: (Units=1/GPa)
#
#
# Indices 1 2 3 4 5 6 
#
# 1 0.033747 -0.011007 -0.002810 0.000000 0.000000 0.000000
# 2 -0.011007 0.018047 -0.007827 0.000000 0.000000 0.000000
# 3 -0.002810 -0.007827 0.018952 0.000000 0.000000 0.000000
# 4 0.000000 0.000000 0.000000 0.039462 0.000000 0.000000
# 5 0.000000 0.000000 0.000000 0.000000 0.076668 0.000000
# 6 0.000000 0.000000 0.000000 0.000000 0.000000 0.027346
#
#
# Mechanical properties :
#
#
# Convention : Reuss Voigt Hill
#
# Bulk Modulus (GPa) = 36.42124 46.22021 41.32073
# Shear Modulus (GPa) = 18.75022 22.49726 20.62374
#
# Velocity S-wave (km/s) = 3.06106 3.35300 3.21035
# Velocity P-wave (km/s) = 5.54025 6.17154 5.86439
#
# Compressibility (1/GPa) = 0.02745650
#
# Stress axis : x y z
#
# Youngs Moduli (GPa) = 29.63241 55.41118 52.76461
#
# Poissons Ratio (x) = 0.60992 0.14827
# Poissons Ratio (y) = 0.32617 0.41301
# Poissons Ratio (z) = 0.08327 0.43373
#
# Static dielectric constant tensor:
#      x y z
#    x 3.558000 0.000000 0.000000 
#    y 0.000000 3.832970 0.000000 
#    z 0.000000 0.000000 3.547290 
# 
# 
# High freq. dielectric constant tensor:
#      x y z
#    x 1.778080 0.000000 0.000000 
#    y 0.000000 1.803000 0.000000 
#    z 0.000000 0.000000 1.779650 
# 
# From -- ./inp_files/7610.got.cif
#   From: 2010.03.12/outbox.cif.g09.slc.cpg/sg62_4_cif.got.tgz:7610.got - 2010.04.10 19:12:36.
