data_PCOD8254992
_publ_section_title
;
Structure prediction by ZEFSAII (Michael W. Deem and Ramdas Pophale) SiO2 
 PCOD8254992
Probable space group: P N M A
;
_chemical_formula_sum "Si O2"
_cell_formula_units_Z 48
_cell_length_a 17.129423
_cell_length_b 14.587808
_cell_length_c 9.545208
_cell_angle_alpha 90.000000
_cell_angle_beta 90.000000
_cell_angle_gamma 90.000000
_cell_volume 2385.163580
_symmetry_space_group_name_H-M "P N M A"
_symmetry_group_IT_number 62
_symmetry_cell_setting 'orthorhombic'
loop_
_space_group_symop_operation_xyz
x,y,z
1/2-x,-y,1/2+z
1/2+x,1/2-y,1/2-z
-x,1/2+y,-z
-x,-y,-z
1/2+x,y,1/2-z
1/2-x,1/2+y,1/2+z
x,1/2-y,z
loop_
_atom_site_type_symbol
_atom_site_label
_atom_site_fract_x
_atom_site_fract_y
_atom_site_fract_z
Si Si1 0.727151 0.909341 0.434790
Si Si2 0.799650 0.104619 0.491569
Si Si3 0.460246 0.519758 0.353212
Si Si4 0.591966 0.638569 0.226822
Si Si5 0.637716 0.649987 0.701216
Si Si6 0.828132 0.653237 0.191728
O O1 0.651770 0.909199 0.334571
O O2 0.699768 0.859668 0.575575
O O3 0.798507 0.862447 0.351093
O O4 0.759452 0.006770 0.480538
O O5 0.883751 0.108627 0.569921
O O6 0.809234 0.146118 0.338783
O O7 0.745375 0.166949 0.589350
O O8 0.500000 0.500000 0.500000
O O9 0.510611 0.585233 0.252603
O O10 0.434168 0.421808 0.289805
O O11 0.379098 0.572530 0.373682
O O12 0.584804 0.750000 0.246322
O O13 0.598283 0.750000 0.688485
O O14 0.874392 0.750000 0.192371
#
# Coordination Sequence:
#
# PCOD8254992 Si02
#       6
#     8   8   8   8   8   8
#     4  11  20  40  65  93 121 161 211 261 310 367
#     4  11  21  41  64  94 125 164 207 260 317 371
#     4  12  24  40  63  94 124 167 213 260 310 374
#     4  11  23  41  65  92 129 173 210 248 314 388
#     4  12  23  39  64  94 127 162 207 264 321 369
#     4  11  22  40  65  92 123 162 213 258 306 378
#
# _framework density 20.124407000000001
#
# number of rings (size 3 to 8) (size 9 to 14) (size 15 to 20)
#    0.000    0.667    5.000    5.500    0.000    1.333 
#    0.000    0.000    0.000    2.000    0.000    0.000 
#    0.000    0.000    0.000    0.000    0.000    0.000 
#
# Total GULP energy -594748.728463 kJ/mol
# GULP energy per Si atom -12390.598510 kJ/mol
# Density = 2.007860 g / cm^3
# Si number density = 20.124407 Si / 1000 Ang^3
#
#
#
# Elastic Constant Matrix: (Units=GPa)
#
#
# Indices 1 2 3 4 5 6 
#
# 1 84.1447 52.0530 39.6705 0.0000 0.0000 0.0000
# 2 52.0530 137.9291 0.5876 0.0000 0.0000 0.0000
# 3 39.6705 0.5876 107.2061 0.0000 0.0000 0.0000
# 4 0.0000 0.0000 0.0000 18.2091 0.0000 0.0000
# 5 0.0000 0.0000 0.0000 0.0000 33.6342 0.0000
# 6 0.0000 0.0000 0.0000 0.0000 0.0000 25.1230
#
#
#
# Elastic Compliance Matrix: (Units=1/GPa)
#
#
# Indices 1 2 3 4 5 6 
#
# 1 0.020006 -0.007519 -0.007362 0.000000 0.000000 0.000000
# 2 -0.007519 0.010076 0.002727 0.000000 0.000000 0.000000
# 3 -0.007362 0.002727 0.012037 0.000000 0.000000 0.000000
# 4 0.000000 0.000000 0.000000 0.054918 0.000000 0.000000
# 5 0.000000 0.000000 0.000000 0.000000 0.029732 0.000000
# 6 0.000000 0.000000 0.000000 0.000000 0.000000 0.039804
#
#
# Mechanical properties :
#
#
# Convention : Reuss Voigt Hill
#
# Bulk Modulus (GPa) = 56.14190 57.10023 56.62106
# Shear Modulus (GPa) = 25.40423 31.19117 28.29770
#
# Velocity S-wave (km/s) = 3.55682 3.94117 3.75392
# Velocity P-wave (km/s) = 6.69522 7.01040 6.85462
#
# Compressibility (1/GPa) = 0.01781201
#
# Stress axis : x y z
#
# Youngs Moduli (GPa) = 49.98411 99.24558 83.07665
#
# Poissons Ratio (x) = 0.74621 0.61160
# Poissons Ratio (y) = 0.37582 -0.22655
# Poissons Ratio (z) = 0.36798 -0.27065
#
# Static dielectric constant tensor:
#      x y z
#    x 3.863780 0.000000 0.000000 
#    y 0.000000 3.905660 0.000000 
#    z 0.000000 0.000000 3.932050 
# 
# 
# High freq. dielectric constant tensor:
#      x y z
#    x 1.769800 0.000000 0.000000 
#    y 0.000000 1.803300 0.000000 
#    z 0.000000 0.000000 1.791260 
# 
# From -- ./inp_files/7644.got.cif
#   From: 2010.03.12/outbox.cif.g09.slc.cpg/sg62_4_cif.got.tgz:7644.got - 2010.04.10 19:12:36.
