data_PCOD8254352
_publ_section_title
;
Structure prediction by ZEFSAII (Michael W. Deem and Ramdas Pophale) SiO2 
 PCOD8254352
Probable space group: P N M A
;
_chemical_formula_sum "Si O2"
_cell_formula_units_Z 64
_cell_length_a 12.520213
_cell_length_b 8.748903
_cell_length_c 28.417519
_cell_angle_alpha 90.000000
_cell_angle_beta 90.000000
_cell_angle_gamma 90.000000
_cell_volume 3112.801864
_symmetry_space_group_name_H-M "P N M A"
_symmetry_group_IT_number 62
_symmetry_cell_setting 'orthorhombic'
loop_
_space_group_symop_operation_xyz
x,y,z
1/2-x,-y,1/2+z
1/2+x,1/2-y,1/2-z
-x,1/2+y,-z
-x,-y,-z
1/2+x,y,1/2-z
1/2-x,1/2+y,1/2+z
x,1/2-y,z
loop_
_atom_site_type_symbol
_atom_site_label
_atom_site_fract_x
_atom_site_fract_y
_atom_site_fract_z
Si Si1 0.239845 0.570040 0.068286
Si Si2 0.005611 0.070046 0.696152
Si Si3 0.609957 0.070856 0.015745
Si Si4 0.649053 0.430961 0.122289
Si Si5 0.437743 0.930227 0.709576
Si Si6 0.386852 0.430864 0.363268
Si Si7 0.481369 0.570300 0.550259
Si Si8 0.212534 0.570431 0.662597
O O1 0.217800 0.750000 0.068761
O O2 0.130967 0.477120 0.071827
O O3 0.307516 0.519658 0.113791
O O4 0.299096 0.518530 0.020716
O O5 0.023134 0.250000 0.696137
O O6 0.120252 0.985953 0.697903
O O7 0.941979 0.021307 0.649593
O O8 0.938168 0.018522 0.741293
O O9 0.595208 0.250000 0.013614
O O10 0.643546 0.018405 0.067844
O O11 0.500000 0.000000 0.000000
O O12 0.631253 0.250000 0.128125
O O13 0.764241 0.481702 0.143227
O O14 0.445715 0.750000 0.719139
O O15 0.537479 0.992427 0.678571
O O16 0.327304 0.971832 0.684040
O O17 0.396642 0.250000 0.363501
O O18 0.428453 0.490705 0.413798
O O19 0.500000 0.500000 0.500000
O O20 0.487175 0.750000 0.544939
O O21 0.201559 0.750000 0.653630
#
# Coordination Sequence:
#
# PCOD8254352 Si02
#       8
#     8   8   8   8   8   8   8   8
#     4  11  22  38  61  93 129 163 203 261 324 376
#     4  12  27  43  62  94 132 163 202 262 325 380
#     4  10  22  38  59  88 124 167 213 259 309 365
#     4  10  21  41  66  91 122 167 217 260 305 368
#     4  10  22  43  68  93 118 160 212 259 311 377
#     4   9  19  39  65  90 120 157 207 261 309 368
#     4  11  21  37  59  90 125 165 210 256 311 375
#     4  11  23  43  69  95 124 164 216 260 308 382
#
# _framework density 20.560255999999999
#
# number of rings (size 3 to 8) (size 9 to 14) (size 15 to 20)
#    0.000    1.500    1.250    3.750    1.750    6.500 
#    0.000    2.500    0.000    0.000    0.000    0.000 
#    0.000    0.000    0.000    0.000    0.000    0.000 
#
# Total GULP energy -793835.796726 kJ/mol
# GULP energy per Si atom -12403.684324 kJ/mol
# Density = 2.051346 g / cm^3
# Si number density = 20.560256 Si / 1000 Ang^3
#
#
#
# Elastic Constant Matrix: (Units=GPa)
#
#
# Indices 1 2 3 4 5 6 
#
# 1 119.1491 30.3857 35.8151 0.0000 0.0000 0.0000
# 2 30.3857 48.2219 31.5552 0.0000 0.0000 0.0000
# 3 35.8151 31.5552 119.6891 0.0000 0.0000 0.0000
# 4 0.0000 0.0000 0.0000 33.7832 0.0000 0.0000
# 5 0.0000 0.0000 0.0000 0.0000 34.0130 0.0000
# 6 0.0000 0.0000 0.0000 0.0000 0.0000 28.4718
#
#
#
# Elastic Compliance Matrix: (Units=1/GPa)
#
#
# Indices 1 2 3 4 5 6 
#
# 1 0.010263 -0.005387 -0.001651 0.000000 0.000000 0.000000
# 2 -0.005387 0.027888 -0.005741 0.000000 0.000000 0.000000
# 3 -0.001651 -0.005741 0.010362 0.000000 0.000000 0.000000
# 4 0.000000 0.000000 0.000000 0.029600 0.000000 0.000000
# 5 0.000000 0.000000 0.000000 0.000000 0.029401 0.000000
# 6 0.000000 0.000000 0.000000 0.000000 0.000000 0.035122
#
#
# Mechanical properties :
#
#
# Convention : Reuss Voigt Hill
#
# Bulk Modulus (GPa) = 43.55913 53.61910 48.58911
# Shear Modulus (GPa) = 28.43406 31.87388 30.15397
#
# Velocity S-wave (km/s) = 3.72285 3.94161 3.83380
# Velocity P-wave (km/s) = 6.30171 6.84476 6.57884
#
# Compressibility (1/GPa) = 0.02295730
#
# Stress axis : x y z
#
# Youngs Moduli (GPa) = 97.43969 35.85745 96.50206
#
# Poissons Ratio (x) = 0.19315 0.15931
# Poissons Ratio (y) = 0.52486 0.55399
# Poissons Ratio (z) = 0.16086 0.20585
#
# Static dielectric constant tensor:
#      x y z
#    x 3.928240 0.000000 0.000000 
#    y 0.000000 3.545050 0.000000 
#    z 0.000000 0.000000 3.942220 
# 
# 
# High freq. dielectric constant tensor:
#      x y z
#    x 1.816480 0.000000 0.000000 
#    y 0.000000 1.784760 0.000000 
#    z 0.000000 0.000000 1.817340 
# 
# From -- ./inp_files/32500.got.cif
#   From: 2010.03.12/outbox.cif.g09.slc.cpg/sg62_17_cif.got.tgz:32500.got - 2010.04.10 19:12:36.
