data_PCOD8254062
_publ_section_title
;
Structure prediction by ZEFSAII (Michael W. Deem and Ramdas Pophale) SiO2 
 PCOD8254062
Probable space group: P N M A
;
_chemical_formula_sum "Si O2"
_cell_formula_units_Z 48
_cell_length_a 16.523884
_cell_length_b 15.809352
_cell_length_c 8.651407
_cell_angle_alpha 90.000000
_cell_angle_beta 90.000000
_cell_angle_gamma 90.000000
_cell_volume 2260.023476
_symmetry_space_group_name_H-M "P N M A"
_symmetry_group_IT_number 62
_symmetry_cell_setting 'orthorhombic'
loop_
_space_group_symop_operation_xyz
x,y,z
1/2-x,-y,1/2+z
1/2+x,1/2-y,1/2-z
-x,1/2+y,-z
-x,-y,-z
1/2+x,y,1/2-z
1/2-x,1/2+y,1/2+z
x,1/2-y,z
loop_
_atom_site_type_symbol
_atom_site_label
_atom_site_fract_x
_atom_site_fract_y
_atom_site_fract_z
Si Si1 0.222008 0.654888 0.438257
Si Si2 0.635942 0.655779 0.754220
Si Si3 0.518227 0.998129 0.818566
Si Si4 0.657959 0.989043 0.253588
Si Si5 0.632061 0.345038 0.758383
Si Si6 0.751232 0.404167 0.010112
O O1 0.201848 0.750000 0.388701
O O2 0.206449 0.640273 0.619412
O O3 0.160724 0.599744 0.336893
O O4 0.316277 0.635192 0.397354
O O5 0.597706 0.750000 0.772576
O O6 0.568242 0.584880 0.774696
O O7 0.677127 0.650833 0.585723
O O8 0.436324 0.991036 0.718483
O O9 0.563525 0.084364 0.772214
O O10 0.500000 0.000000 0.000000
O O11 0.707671 0.981384 0.413948
O O12 0.697195 0.059795 0.147035
O O13 0.594346 0.250000 0.753449
O O14 0.694523 0.347788 0.901789
#
# Coordination Sequence:
#
# PCOD8254062 Si02
#       6
#     8   8   8   8   8   8
#     4   9  18  35  60  87 117 160 207 255 303 360
#     4  11  23  41  64  92 127 166 214 265 313 374
#     4  12  23  39  61  96 131 168 208 255 328 375
#     4  11  22  39  63  90 123 164 211 259 312 382
#     4  10  21  38  64  95 128 165 211 258 308 375
#     4  11  22  40  65  87 122 165 218 262 311 372
#
# _framework density 21.238717000000001
#
# number of rings (size 3 to 8) (size 9 to 14) (size 15 to 20)
#    0.000    1.333    3.333    3.500    0.000    2.667 
#    0.000    0.000    0.000    5.000    0.000    0.000 
#    0.000    0.000    0.000    0.000    0.000    0.000 
#
# Total GULP energy -595093.869775 kJ/mol
# GULP energy per Si atom -12397.788954 kJ/mol
# Density = 2.119038 g / cm^3
# Si number density = 21.238717 Si / 1000 Ang^3
#
#
#
# Elastic Constant Matrix: (Units=GPa)
#
#
# Indices 1 2 3 4 5 6 
#
# 1 116.3321 50.3847 25.3731 0.0000 0.0000 0.0000
# 2 50.3847 122.4329 8.0574 0.0000 0.0000 0.0000
# 3 25.3731 8.0574 50.9594 0.0000 0.0000 0.0000
# 4 0.0000 0.0000 0.0000 25.9963 0.0000 0.0000
# 5 0.0000 0.0000 0.0000 0.0000 28.9396 0.0000
# 6 0.0000 0.0000 0.0000 0.0000 0.0000 25.6343
#
#
#
# Elastic Compliance Matrix: (Units=1/GPa)
#
#
# Indices 1 2 3 4 5 6 
#
# 1 0.011635 -0.004453 -0.005089 0.000000 0.000000 0.000000
# 2 -0.004453 0.009958 0.000643 0.000000 0.000000 0.000000
# 3 -0.005089 0.000643 0.022056 0.000000 0.000000 0.000000
# 4 0.000000 0.000000 0.000000 0.038467 0.000000 0.000000
# 5 0.000000 0.000000 0.000000 0.000000 0.034555 0.000000
# 6 0.000000 0.000000 0.000000 0.000000 0.000000 0.039010
#
#
# Mechanical properties :
#
#
# Convention : Reuss Voigt Hill
#
# Bulk Modulus (GPa) = 38.68500 50.81719 44.75109
# Shear Modulus (GPa) = 27.45811 29.84132 28.64972
#
# Velocity S-wave (km/s) = 3.59950 3.75246 3.67677
# Velocity P-wave (km/s) = 5.96063 6.53859 6.25629
#
# Compressibility (1/GPa) = 0.02584981
#
# Stress axis : x y z
#
# Youngs Moduli (GPa) = 85.94975 100.42157 45.33983
#
# Poissons Ratio (x) = 0.44719 0.23073
# Poissons Ratio (y) = 0.38274 -0.02914
# Poissons Ratio (z) = 0.43739 -0.06455
#
# Static dielectric constant tensor:
#      x y z
#    x 3.764910 0.000000 0.000000 
#    y 0.000000 3.870470 0.000000 
#    z 0.000000 0.000000 4.026210 
# 
# 
# High freq. dielectric constant tensor:
#      x y z
#    x 1.813560 0.000000 0.000000 
#    y 0.000000 1.843580 0.000000 
#    z 0.000000 0.000000 1.833870 
# 
# From -- ./inp_files/7635.got.cif
#   From: 2010.03.12/outbox.cif.g09.slc.cpg/sg62_4_cif.got.tgz:7635.got - 2010.04.10 19:12:36.
