data_PCOD8254156
_publ_section_title
;
Structure prediction by ZEFSAII (Michael W. Deem and Ramdas Pophale) SiO2 
 PCOD8254156
Probable space group: P N M A
;
_chemical_formula_sum "Si O2"
_cell_formula_units_Z 48
_cell_length_a 14.554242
_cell_length_b 13.623313
_cell_length_c 11.616081
_cell_angle_alpha 90.000000
_cell_angle_beta 90.000000
_cell_angle_gamma 90.000000
_cell_volume 2303.201626
_symmetry_space_group_name_H-M "P N M A"
_symmetry_group_IT_number 62
_symmetry_cell_setting 'orthorhombic'
loop_
_space_group_symop_operation_xyz
x,y,z
1/2-x,-y,1/2+z
1/2+x,1/2-y,1/2-z
-x,1/2+y,-z
-x,-y,-z
1/2+x,y,1/2-z
1/2-x,1/2+y,1/2+z
x,1/2-y,z
loop_
_atom_site_type_symbol
_atom_site_label
_atom_site_fract_x
_atom_site_fract_y
_atom_site_fract_z
Si Si1 0.244355 0.138983 0.426612
Si Si2 0.518983 0.011349 0.632725
Si Si3 0.899427 0.979957 0.455133
Si Si4 0.149967 0.638264 0.155738
Si Si5 0.381184 0.362342 0.226210
Si Si6 0.655740 0.362330 0.746491
O O1 0.205057 0.250000 0.443855
O O2 0.165111 0.056510 0.440007
O O3 0.322735 0.120271 0.522610
O O4 0.288375 0.128969 0.300801
O O5 0.433802 0.068162 0.691434
O O6 0.614033 0.073337 0.642935
O O7 0.500000 0.000000 0.500000
O O8 0.533300 0.909401 0.702039
O O9 0.899183 0.891882 0.362342
O O10 0.862857 0.079373 0.392808
O O11 0.000000 0.000000 0.500000
O O12 0.117313 0.750000 0.172990
O O13 0.236343 0.614933 0.238357
O O14 0.406377 0.250000 0.198505
O O15 0.637466 0.250000 0.718595
#
# Coordination Sequence:
#
# PCOD8254156 Si02
#       6
#     8   8   8   8   8   8
#     4   9  18  38  66  89 119 166 209 256 318 375
#     4  11  20  34  60  95 126 167 211 258 312 374
#     4  10  21  39  62  92 123 163 212 257 308 374
#     4   9  17  34  61  86 120 162 205 259 315 367
#     4  10  22  40  61  92 129 165 210 260 312 375
#     4   9  20  38  59  90 124 162 213 260 309 369
#
# _framework density 20.840555999999999
#
# number of rings (size 3 to 8) (size 9 to 14) (size 15 to 20)
#    0.000    2.333    1.667    2.000    0.000    2.000 
#   18.000    0.000    0.000    6.000    0.000    0.000 
#    0.000    0.000    0.000    0.000    0.000    0.000 
#
# Total GULP energy -595007.912925 kJ/mol
# GULP energy per Si atom -12395.998186 kJ/mol
# Density = 2.079312 g / cm^3
# Si number density = 20.840556 Si / 1000 Ang^3
#
#
#
# Elastic Constant Matrix: (Units=GPa)
#
#
# Indices 1 2 3 4 5 6 
#
# 1 118.3706 65.8404 37.0979 0.0000 0.0000 0.0000
# 2 65.8404 150.9308 41.2518 0.0000 0.0000 0.0000
# 3 37.0979 41.2518 61.0062 0.0000 0.0000 0.0000
# 4 0.0000 0.0000 0.0000 29.4529 0.0000 0.0000
# 5 0.0000 0.0000 0.0000 0.0000 33.4862 0.0000
# 6 0.0000 0.0000 0.0000 0.0000 0.0000 42.8543
#
#
#
# Elastic Compliance Matrix: (Units=1/GPa)
#
#
# Indices 1 2 3 4 5 6 
#
# 1 0.012149 -0.004024 -0.004667 0.000000 0.000000 0.000000
# 2 -0.004024 0.009461 -0.003950 0.000000 0.000000 0.000000
# 3 -0.004667 -0.003950 0.021901 0.000000 0.000000 0.000000
# 4 0.000000 0.000000 0.000000 0.033952 0.000000 0.000000
# 5 0.000000 0.000000 0.000000 0.000000 0.029863 0.000000
# 6 0.000000 0.000000 0.000000 0.000000 0.000000 0.023335
#
#
# Mechanical properties :
#
#
# Convention : Reuss Voigt Hill
#
# Bulk Modulus (GPa) = 54.85978 68.74310 61.80144
# Shear Modulus (GPa) = 30.86063 33.56650 32.21357
#
# Velocity S-wave (km/s) = 3.85229 4.01762 3.93582
# Velocity P-wave (km/s) = 6.79467 7.38773 7.09740
#
# Compressibility (1/GPa) = 0.01822829
#
# Stress axis : x y z
#
# Youngs Moduli (GPa) = 82.31144 105.70069 45.66091
#
# Poissons Ratio (x) = 0.42537 0.21308
# Poissons Ratio (y) = 0.33124 0.18036
# Poissons Ratio (z) = 0.38412 0.41752
#
# Static dielectric constant tensor:
#      x y z
#    x 3.841450 0.000000 0.000000 
#    y 0.000000 4.048390 0.000000 
#    z 0.000000 0.000000 3.591900 
# 
# 
# High freq. dielectric constant tensor:
#      x y z
#    x 1.804420 0.000000 0.000000 
#    y 0.000000 1.824280 0.000000 
#    z 0.000000 0.000000 1.795670 
# 
# From -- ./inp_files/13262.got.cif
#   From: 2010.03.12/outbox.cif.g09.slc.cpg/sg62_7_cif.got.tgz:13262.got - 2010.04.10 19:12:36.
