data_PCOD8254116
_publ_section_title
;
Structure prediction by ZEFSAII (Michael W. Deem and Ramdas Pophale) SiO2 
 PCOD8254116
Probable space group: P N M A
;
_chemical_formula_sum "Si O2"
_cell_formula_units_Z 48
_cell_length_a 13.050385
_cell_length_b 15.637116
_cell_length_c 11.641073
_cell_angle_alpha 90.000000
_cell_angle_beta 90.000000
_cell_angle_gamma 90.000000
_cell_volume 2375.598238
_symmetry_space_group_name_H-M "P N M A"
_symmetry_group_IT_number 62
_symmetry_cell_setting 'orthorhombic'
loop_
_space_group_symop_operation_xyz
x,y,z
1/2-x,-y,1/2+z
1/2+x,1/2-y,1/2-z
-x,1/2+y,-z
-x,-y,-z
1/2+x,y,1/2-z
1/2-x,1/2+y,1/2+z
x,1/2-y,z
loop_
_atom_site_type_symbol
_atom_site_label
_atom_site_fract_x
_atom_site_fract_y
_atom_site_fract_z
Si Si1 0.836919 0.157294 0.263980
Si Si2 0.489119 0.489642 0.191686
Si Si3 0.849878 0.512999 0.519229
Si Si4 0.228421 0.348320 0.010185
Si Si5 0.803858 0.343228 0.002584
Si Si6 0.011815 0.084486 0.926788
O O1 0.883592 0.250000 0.294817
O O2 0.932044 0.093719 0.264071
O O3 0.743479 0.137211 0.352329
O O4 0.791163 0.156459 0.138666
O O5 0.602442 0.463592 0.144503
O O6 0.489898 0.561118 0.291639
O O7 0.433209 0.525907 0.079815
O O8 0.808014 0.416762 0.542449
O O9 0.763080 0.575501 0.467577
O O10 0.255528 0.250000 0.975283
O O11 0.114970 0.368034 0.965654
O O12 0.764428 0.250000 0.957463
O O13 0.918707 0.352586 0.955416
O O14 0.000000 0.000000 0.000000
#
# Coordination Sequence:
#
# PCOD8254116 Si02
#       6
#     8   8   8   8   8   8
#     4   9  19  35  59  89 119 151 197 251 298 346
#     4  10  22  39  62  85 119 161 196 242 298 351
#     4  10  22  41  61  87 117 158 202 242 291 353
#     4  10  21  39  61  87 119 158 200 243 296 354
#     4  11  23  38  59  90 121 153 197 246 297 352
#     4  12  22  38  59  88 119 155 190 240 297 352
#
# _framework density 20.205438000000001
#
# number of rings (size 3 to 8) (size 9 to 14) (size 15 to 20)
#    0.000    1.667    3.333    0.500    2.333    2.000 
#    0.000    7.500    0.000    0.000    0.000    0.000 
#    0.000    0.000    0.000    0.000    0.000    0.000 
#
# Total GULP energy -594635.878135 kJ/mol
# GULP energy per Si atom -12388.247461 kJ/mol
# Density = 2.015945 g / cm^3
# Si number density = 20.205438 Si / 1000 Ang^3
#
#
#
# Elastic Constant Matrix: (Units=GPa)
#
#
# Indices 1 2 3 4 5 6 
#
# 1 83.5507 26.8397 37.8056 0.0000 0.0000 0.0000
# 2 26.8397 112.9397 29.4380 0.0000 0.0000 0.0000
# 3 37.8056 29.4380 81.3140 0.0000 0.0000 0.0000
# 4 0.0000 0.0000 0.0000 25.1128 0.0000 0.0000
# 5 0.0000 0.0000 0.0000 0.0000 22.8268 0.0000
# 6 0.0000 0.0000 0.0000 0.0000 0.0000 9.2780
#
#
#
# Elastic Compliance Matrix: (Units=1/GPa)
#
#
# Indices 1 2 3 4 5 6 
#
# 1 0.015556 -0.002000 -0.006508 0.000000 0.000000 0.000000
# 2 -0.002000 0.010034 -0.002703 0.000000 0.000000 0.000000
# 3 -0.006508 -0.002703 0.016302 0.000000 0.000000 0.000000
# 4 0.000000 0.000000 0.000000 0.039820 0.000000 0.000000
# 5 0.000000 0.000000 0.000000 0.000000 0.043808 0.000000
# 6 0.000000 0.000000 0.000000 0.000000 0.000000 0.107782
#
#
# Mechanical properties :
#
#
# Convention : Reuss Voigt Hill
#
# Bulk Modulus (GPa) = 51.36118 51.77454 51.56786
# Shear Modulus (GPa) = 19.06821 23.69159 21.37990
#
# Velocity S-wave (km/s) = 3.07533 3.42795 3.25641
# Velocity P-wave (km/s) = 6.17129 6.43020 6.30208
#
# Compressibility (1/GPa) = 0.01946996
#
# Stress axis : x y z
#
# Youngs Moduli (GPa) = 64.28230 99.66004 61.34072
#
# Poissons Ratio (x) = 0.19937 0.39923
# Poissons Ratio (y) = 0.12860 0.16578
# Poissons Ratio (z) = 0.41838 0.26934
#
# Static dielectric constant tensor:
#      x y z
#    x 3.858250 0.000000 0.000000 
#    y 0.000000 3.901060 0.000000 
#    z 0.000000 0.000000 3.789070 
# 
# 
# High freq. dielectric constant tensor:
#      x y z
#    x 1.783930 0.000000 0.000000 
#    y 0.000000 1.794650 0.000000 
#    z 0.000000 0.000000 1.784050 
# 
# From -- ./inp_files/12257.got.cif
#   From: 2010.03.12/outbox.cif.g09.slc.cpg/sg62_7_cif.got.tgz:12257.got - 2010.04.10 19:12:36.
