data_PCOD8254327
_publ_section_title
;
Structure prediction by ZEFSAII (Michael W. Deem and Ramdas Pophale) SiO2 
 PCOD8254327
Probable space group: P N M A
;
_chemical_formula_sum "Si O2"
_cell_formula_units_Z 56
_cell_length_a 14.487123
_cell_length_b 8.954560
_cell_length_c 21.306664
_cell_angle_alpha 90.000000
_cell_angle_beta 90.000000
_cell_angle_gamma 90.000000
_cell_volume 2764.024291
_symmetry_space_group_name_H-M "P N M A"
_symmetry_group_IT_number 62
_symmetry_cell_setting 'orthorhombic'
loop_
_space_group_symop_operation_xyz
x,y,z
1/2-x,-y,1/2+z
1/2+x,1/2-y,1/2-z
-x,1/2+y,-z
-x,-y,-z
1/2+x,y,1/2-z
1/2-x,1/2+y,1/2+z
x,1/2-y,z
loop_
_atom_site_type_symbol
_atom_site_label
_atom_site_fract_x
_atom_site_fract_y
_atom_site_fract_z
Si Si1 0.272428 0.923838 0.490332
Si Si2 0.109774 0.574250 0.746231
Si Si3 0.922178 0.574533 0.680589
Si Si4 0.793535 0.423374 0.776146
Si Si5 0.594569 0.078205 0.622563
Si Si6 0.916060 0.573985 0.535875
Si Si7 0.388680 0.420820 0.594105
O O1 0.248808 0.750000 0.495667
O O2 0.324839 0.961178 0.425944
O O3 0.178795 0.016908 0.494043
O O4 0.336415 0.967762 0.548415
O O5 0.122083 0.750000 0.740984
O O6 0.194681 0.497272 0.710567
O O7 0.107222 0.528920 0.818675
O O8 0.017551 0.519832 0.711404
O O9 0.907945 0.750000 0.689450
O O10 0.837339 0.492513 0.713640
O O11 0.921988 0.526629 0.608336
O O12 0.778557 0.250000 0.763788
O O13 0.859468 0.455697 0.834741
O O14 0.599359 0.250000 0.645122
O O15 0.497385 0.046982 0.588491
O O16 0.922144 0.750000 0.527142
O O17 0.000000 0.500000 0.500000
O O18 0.365156 0.250000 0.576012
#
# Coordination Sequence:
#
# PCOD8254327 Si02
#       7
#     8   8   8   8   8   8   8
#     4  11  24  40  63  92 124 166 210 257 311 369
#     4  11  23  38  62  93 126 163 203 253 310 368
#     4  10  23  43  65  92 124 161 204 256 310 364
#     4  11  23  39  63  93 126 165 207 255 309 370
#     4  10  21  41  64  93 128 163 209 255 305 371
#     4  11  25  45  66  91 125 164 212 262 312 373
#     4  10  22  40  62  92 127 163 206 257 310 367
#
# _framework density 20.260314000000001
#
# number of rings (size 3 to 8) (size 9 to 14) (size 15 to 20)
#    0.000    1.429    1.429    3.000    2.000    6.857 
#    0.000    0.000    0.000    0.000    0.000    0.000 
#    0.000    0.000    0.000    0.000    0.000    0.000 
#
# Total GULP energy -694827.261823 kJ/mol
# GULP energy per Si atom -12407.629675 kJ/mol
# Density = 2.021420 g / cm^3
# Si number density = 20.260314 Si / 1000 Ang^3
#
#
#
# Elastic Constant Matrix: (Units=GPa)
#
#
# Indices 1 2 3 4 5 6 
#
# 1 100.5535 24.2638 7.2084 0.0000 0.0000 0.0000
# 2 24.2638 59.0210 25.6615 0.0000 0.0000 0.0000
# 3 7.2084 25.6615 56.3447 0.0000 0.0000 0.0000
# 4 0.0000 0.0000 0.0000 34.2636 0.0000 0.0000
# 5 0.0000 0.0000 0.0000 0.0000 30.2919 0.0000
# 6 0.0000 0.0000 0.0000 0.0000 0.0000 36.6490
#
#
#
# Elastic Compliance Matrix: (Units=1/GPa)
#
#
# Indices 1 2 3 4 5 6 
#
# 1 0.011070 -0.004907 0.000819 0.000000 0.000000 0.000000
# 2 -0.004907 0.023302 -0.009985 0.000000 0.000000 0.000000
# 3 0.000819 -0.009985 0.022191 0.000000 0.000000 0.000000
# 4 0.000000 0.000000 0.000000 0.029185 0.000000 0.000000
# 5 0.000000 0.000000 0.000000 0.000000 0.033012 0.000000
# 6 0.000000 0.000000 0.000000 0.000000 0.000000 0.027286
#
#
# Mechanical properties :
#
#
# Convention : Reuss Voigt Hill
#
# Bulk Modulus (GPa) = 35.19102 36.68740 35.93921
# Shear Modulus (GPa) = 27.22358 30.82660 29.02509
#
# Velocity S-wave (km/s) = 3.66961 3.90491 3.78909
# Velocity P-wave (km/s) = 5.94659 6.20309 6.07619
#
# Compressibility (1/GPa) = 0.02841634
#
# Stress axis : x y z
#
# Youngs Moduli (GPa) = 90.33152 42.91550 45.06418
#
# Poissons Ratio (x) = 0.21058 -0.03689
# Poissons Ratio (y) = 0.44325 0.44995
# Poissons Ratio (z) = -0.07394 0.42850
#
# Static dielectric constant tensor:
#      x y z
#    x 3.891940 0.000000 0.000000 
#    y 0.000000 3.650300 0.000000 
#    z 0.000000 0.000000 3.628300 
# 
# 
# High freq. dielectric constant tensor:
#      x y z
#    x 1.809580 0.000000 0.000000 
#    y 0.000000 1.793730 0.000000 
#    z 0.000000 0.000000 1.794150 
# 
# From -- ./inp_files/27104.got.cif
#   From: 2010.03.12/outbox.cif.g09.slc.cpg/sg62_14_cif.got.tgz:27104.got - 2010.04.10 19:12:36.
