data_PCOD8254413
_publ_section_title
;
Structure prediction by ZEFSAII (Michael W. Deem and Ramdas Pophale) SiO2 
 PCOD8254413
Probable space group: P N M A
;
_chemical_formula_sum "Si O2"
_cell_formula_units_Z 36
_cell_length_a 11.423051
_cell_length_b 14.318424
_cell_length_c 10.892206
_cell_angle_alpha 90.000000
_cell_angle_beta 90.000000
_cell_angle_gamma 90.000000
_cell_volume 1781.530167
_symmetry_space_group_name_H-M "P N M A"
_symmetry_group_IT_number 62
_symmetry_cell_setting 'orthorhombic'
loop_
_space_group_symop_operation_xyz
x,y,z
1/2-x,-y,1/2+z
1/2+x,1/2-y,1/2-z
-x,1/2+y,-z
-x,-y,-z
1/2+x,y,1/2-z
1/2-x,1/2+y,1/2+z
x,1/2-y,z
loop_
_atom_site_type_symbol
_atom_site_label
_atom_site_fract_x
_atom_site_fract_y
_atom_site_fract_z
Si Si1 0.676641 0.554471 0.939417
Si Si2 0.408682 0.435933 0.568876
Si Si3 0.357209 0.250000 0.152139
Si Si4 0.426459 0.750000 0.020039
Si Si5 0.160929 0.750000 0.939832
Si Si6 0.514789 0.928351 0.156569
O O1 0.785422 0.487301 0.923790
O O2 0.711857 0.658240 0.894853
O O3 0.568256 0.518861 0.855908
O O4 0.635313 0.555734 0.081405
O O5 0.500000 0.500000 0.500000
O O6 0.399384 0.340077 0.496723
O O7 0.453392 0.411137 0.703704
O O8 0.366129 0.250000 0.296958
O O9 0.487121 0.250000 0.095605
O O10 0.444283 0.840147 0.104439
O O11 0.298279 0.750000 0.964276
#
# Coordination Sequence:
#
# PCOD8254413 Si02
#       6
#     8   8   4   4   4   8
#     4  10  23  42  67  96 128 185 216 276 338 392
#     4  12  27  41  67 103 136 175 223 281 338 395
#     4  10  24  40  68 100 131 172 226 277 329 405
#     4  10  21  45  71  94 125 186 221 272 340 390
#     4  12  25  43  67 100 136 176 223 283 337 401
#     4  10  22  43  68  92 133 170 231 269 332 407
#
# _framework density 20.207349000000001
#
# number of rings (size 3 to 8) (size 9 to 14) (size 15 to 20)
#    0.000    1.333    2.222    2.000    6.222    2.667 
#    0.000    0.000    0.000    0.000    0.000    0.000 
#    0.000    0.000    0.000    0.000    0.000    0.000 
#
# Total GULP energy -446585.805470 kJ/mol
# GULP energy per Si atom -12405.161263 kJ/mol
# Density = 2.016136 g / cm^3
# Si number density = 20.207349 Si / 1000 Ang^3
#
#
#
# Elastic Constant Matrix: (Units=GPa)
#
#
# Indices 1 2 3 4 5 6 
#
# 1 75.3995 46.9582 62.2228 0.0000 0.0000 0.0000
# 2 46.9582 158.6808 61.1153 0.0000 0.0000 0.0000
# 3 62.2228 61.1153 173.0971 0.0000 0.0000 0.0000
# 4 0.0000 0.0000 0.0000 17.7444 0.0000 0.0000
# 5 0.0000 0.0000 0.0000 0.0000 17.9002 0.0000
# 6 0.0000 0.0000 0.0000 0.0000 0.0000 38.5989
#
#
#
# Elastic Compliance Matrix: (Units=1/GPa)
#
#
# Indices 1 2 3 4 5 6 
#
# 1 0.020628 -0.003760 -0.006088 0.000000 0.000000 0.000000
# 2 -0.003760 0.007979 -0.001466 0.000000 0.000000 0.000000
# 3 -0.006088 -0.001466 0.008483 0.000000 0.000000 0.000000
# 4 0.000000 0.000000 0.000000 0.056356 0.000000 0.000000
# 5 0.000000 0.000000 0.000000 0.000000 0.055865 0.000000
# 6 0.000000 0.000000 0.000000 0.000000 0.000000 0.025907
#
#
# Mechanical properties :
#
#
# Convention : Reuss Voigt Hill
#
# Bulk Modulus (GPa) = 69.13795 83.08556 76.11176
# Shear Modulus (GPa) = 24.67113 30.64078 27.65596
#
# Velocity S-wave (km/s) = 3.49793 3.89822 3.70348
# Velocity P-wave (km/s) = 7.11355 7.84010 7.48565
#
# Compressibility (1/GPa) = 0.01446384
#
# Stress axis : x y z
#
# Youngs Moduli (GPa) = 48.47777 125.32781 117.88445
#
# Poissons Ratio (x) = 0.47121 0.71764
# Poissons Ratio (y) = 0.18227 0.17278
# Poissons Ratio (z) = 0.29511 0.18369
#
# Static dielectric constant tensor:
#      x y z
#    x 3.696120 0.000000 0.000000 
#    y 0.000000 4.018650 0.000000 
#    z 0.000000 0.000000 3.670090 
# 
# 
# High freq. dielectric constant tensor:
#      x y z
#    x 1.783760 0.000000 0.000000 
#    y 0.000000 1.813700 0.000000 
#    z 0.000000 0.000000 1.794230 
# 
# From -- ./inp_files/12017.got.cif
#   From: 2010.03.12/outbox.cif.g09.slc.cpg/sg62_7_cif.got.tgz:12017.got - 2010.04.10 19:12:36.
