data_PCOD8254480
_publ_section_title
;
Structure prediction by ZEFSAII (Michael W. Deem and Ramdas Pophale) SiO2 
 PCOD8254480
Probable space group: P N M A
;
_chemical_formula_sum "Si O2"
_cell_formula_units_Z 48
_cell_length_a 16.743860
_cell_length_b 20.606811
_cell_length_c 6.377133
_cell_angle_alpha 90.000000
_cell_angle_beta 90.000000
_cell_angle_gamma 90.000000
_cell_volume 2200.350400
_symmetry_space_group_name_H-M "P N M A"
_symmetry_group_IT_number 62
_symmetry_cell_setting 'orthorhombic'
loop_
_space_group_symop_operation_xyz
x,y,z
1/2-x,-y,1/2+z
1/2+x,1/2-y,1/2-z
-x,1/2+y,-z
-x,-y,-z
1/2+x,y,1/2-z
1/2-x,1/2+y,1/2+z
x,1/2-y,z
loop_
_atom_site_type_symbol
_atom_site_label
_atom_site_fract_x
_atom_site_fract_y
_atom_site_fract_z
Si Si1 0.534322 0.089729 0.880858
Si Si2 0.893455 0.323672 0.521494
Si Si3 0.358220 0.616304 0.464254
Si Si4 0.749373 0.823050 0.708749
Si Si5 0.712675 0.598081 0.308132
Si Si6 0.410976 0.990045 0.746560
O O1 0.471918 0.132328 0.016967
O O2 0.585115 0.139276 0.730474
O O3 0.486953 0.037047 0.740523
O O4 0.593288 0.048327 0.030718
O O5 0.920991 0.250000 0.550512
O O6 0.834811 0.332106 0.325220
O O7 0.848414 0.345803 0.732814
O O8 0.325850 0.668562 0.633793
O O9 0.280370 0.584790 0.362306
O O10 0.416095 0.563925 0.569087
O O11 0.756416 0.750000 0.617712
O O12 0.750760 0.877285 0.527285
O O13 0.669040 0.529256 0.311046
#
# Coordination Sequence:
#
# PCOD8254480 Si02
#       6
#     8   8   8   8   8   8
#     4  10  22  40  59  92 127 163 200 258 313 373
#     4   9  20  40  64  87 116 161 210 251 308 372
#     4  11  23  36  61  91 122 161 204 249 316 367
#     4  10  22  41  62  90 123 161 213 263 309 370
#     4  10  22  38  64  88 120 162 207 256 302 367
#     4  10  23  39  60  87 128 162 202 252 309 372
#
# _framework density 21.814706999999999
#
# number of rings (size 3 to 8) (size 9 to 14) (size 15 to 20)
#    0.000    2.000    0.000    2.000    4.667    8.000 
#    0.000    2.500    0.000    0.000    0.000    0.000 
#    0.000    0.000    0.000    0.000    0.000    0.000 
#
# Total GULP energy -594685.137569 kJ/mol
# GULP energy per Si atom -12389.273699 kJ/mol
# Density = 2.176506 g / cm^3
# Si number density = 21.814707 Si / 1000 Ang^3
#
#
#
# Elastic Constant Matrix: (Units=GPa)
#
#
# Indices 1 2 3 4 5 6 
#
# 1 71.0570 39.0702 33.3353 0.0000 0.0000 0.0000
# 2 39.0702 90.6603 34.3781 0.0000 0.0000 0.0000
# 3 33.3353 34.3781 84.0516 0.0000 0.0000 0.0000
# 4 0.0000 0.0000 0.0000 29.0366 0.0000 0.0000
# 5 0.0000 0.0000 0.0000 0.0000 33.3773 0.0000
# 6 0.0000 0.0000 0.0000 0.0000 0.0000 18.3364
#
#
#
# Elastic Compliance Matrix: (Units=1/GPa)
#
#
# Indices 1 2 3 4 5 6 
#
# 1 0.020247 -0.006723 -0.005280 0.000000 0.000000 0.000000
# 2 -0.006723 0.015287 -0.003586 0.000000 0.000000 0.000000
# 3 -0.005280 -0.003586 0.015458 0.000000 0.000000 0.000000
# 4 0.000000 0.000000 0.000000 0.034439 0.000000 0.000000
# 5 0.000000 0.000000 0.000000 0.000000 0.029961 0.000000
# 6 0.000000 0.000000 0.000000 0.000000 0.000000 0.054536
#
#
# Mechanical properties :
#
#
# Convention : Reuss Voigt Hill
#
# Bulk Modulus (GPa) = 50.47065 51.03737 50.75401
# Shear Modulus (GPa) = 24.07167 25.41575 24.74371
#
# Velocity S-wave (km/s) = 3.32544 3.41702 3.37154
# Velocity P-wave (km/s) = 6.15882 6.24617 6.20265
#
# Compressibility (1/GPa) = 0.01981350
#
# Stress axis : x y z
#
# Youngs Moduli (GPa) = 49.38985 65.41296 64.68958
#
# Poissons Ratio (x) = 0.43979 0.34157
# Poissons Ratio (y) = 0.33206 0.23199
# Poissons Ratio (z) = 0.26079 0.23459
#
# Static dielectric constant tensor:
#      x y z
#    x 3.917930 0.000000 0.000000 
#    y 0.000000 3.775970 0.000000 
#    z 0.000000 0.000000 3.864390 
# 
# 
# High freq. dielectric constant tensor:
#      x y z
#    x 1.859950 0.000000 0.000000 
#    y 0.000000 1.838340 0.000000 
#    z 0.000000 0.000000 1.855270 
# 
# From -- ./inp_files/1693.got.cif
#   From: 2010.03.12/outbox.cif.g09.slc.cpg/sg62_1_cif.got.tgz:1693.got - 2010.04.10 19:12:36.
