data_PCOD8254093
_publ_section_title
;
Structure prediction by ZEFSAII (Michael W. Deem and Ramdas Pophale) SiO2 
 PCOD8254093
Probable space group: P N M A
;
_chemical_formula_sum "Si O2"
_cell_formula_units_Z 64
_cell_length_a 12.282697
_cell_length_b 17.601565
_cell_length_c 15.378511
_cell_angle_alpha 90.000000
_cell_angle_beta 90.000000
_cell_angle_gamma 90.000000
_cell_volume 3324.752412
_symmetry_space_group_name_H-M "P N M A"
_symmetry_group_IT_number 62
_symmetry_cell_setting 'orthorhombic'
loop_
_space_group_symop_operation_xyz
x,y,z
1/2-x,-y,1/2+z
1/2+x,1/2-y,1/2-z
-x,1/2+y,-z
-x,-y,-z
1/2+x,y,1/2-z
1/2-x,1/2+y,1/2+z
x,1/2-y,z
loop_
_atom_site_type_symbol
_atom_site_label
_atom_site_fract_x
_atom_site_fract_y
_atom_site_fract_z
Si Si1 0.748312 0.839596 0.179227
Si Si2 0.137168 0.922012 0.012025
Si Si3 0.686812 0.415196 0.849870
Si Si4 0.108239 0.942146 0.736762
Si Si5 0.776965 0.336037 0.139195
Si Si6 0.974198 0.662196 0.610481
Si Si7 0.474542 0.161232 0.915372
Si Si8 0.073484 0.448755 0.891064
O O1 0.766924 0.750000 0.177212
O O2 0.743481 0.869123 0.278116
O O3 0.639325 0.862888 0.127765
O O4 0.849453 0.879363 0.132956
O O5 0.251022 0.911926 0.059936
O O6 0.038381 0.909853 0.078587
O O7 0.137866 0.858189 0.936912
O O8 0.129034 0.005646 0.970087
O O9 0.675483 0.503545 0.826651
O O10 0.567239 0.380433 0.860636
O O11 0.199127 0.886971 0.776969
O O12 0.019976 0.892562 0.685199
O O13 0.050127 0.994352 0.810347
O O14 0.798050 0.250000 0.166308
O O15 0.654840 0.350032 0.106618
O O16 0.002636 0.750000 0.632307
O O17 0.024564 0.638374 0.517205
O O18 0.497260 0.250000 0.905845
#
# Coordination Sequence:
#
# PCOD8254093 Si02
#       8
#     8   8   8   8   8   8   8   8
#     4  10  23  40  60  86 121 157 196 246 296 354
#     4  10  21  39  60  85 117 155 195 245 292 350
#     4  11  23  36  61  88 118 158 196 242 296 357
#     4  10  23  36  59  88 116 158 192 243 295 354
#     4  10  21  40  61  86 117 153 200 247 296 356
#     4  10  21  39  61  86 120 155 198 248 297 354
#     4  10  22  41  61  89 122 153 202 251 297 357
#     4   9  22  41  59  86 121 154 198 245 294 354
#
# _framework density 19.249552999999999
#
# number of rings (size 3 to 8) (size 9 to 14) (size 15 to 20)
#    0.000    2.000    1.250    0.750    7.000    3.500 
#    0.000    0.000    0.000    0.000    0.000    0.000 
#    0.000    0.000    0.000    0.000    0.000    0.000 
#
# Total GULP energy -793680.518356 kJ/mol
# GULP energy per Si atom -12401.258099 kJ/mol
# Density = 1.920574 g / cm^3
# Si number density = 19.249553 Si / 1000 Ang^3
#
#
#
# Elastic Constant Matrix: (Units=GPa)
#
#
# Indices 1 2 3 4 5 6 
#
# 1 87.1150 56.5332 49.2667 0.0000 0.0000 0.0000
# 2 56.5332 99.8524 43.8871 0.0000 0.0000 0.0000
# 3 49.2667 43.8871 90.7626 0.0000 0.0000 0.0000
# 4 0.0000 0.0000 0.0000 21.7387 0.0000 0.0000
# 5 0.0000 0.0000 0.0000 0.0000 42.8446 0.0000
# 6 0.0000 0.0000 0.0000 0.0000 0.0000 26.5821
#
#
#
# Elastic Compliance Matrix: (Units=1/GPa)
#
#
# Indices 1 2 3 4 5 6 
#
# 1 0.021384 -0.008896 -0.007306 0.000000 0.000000 0.000000
# 2 -0.008896 0.016418 -0.003110 0.000000 0.000000 0.000000
# 3 -0.007306 -0.003110 0.016487 0.000000 0.000000 0.000000
# 4 0.000000 0.000000 0.000000 0.046001 0.000000 0.000000
# 5 0.000000 0.000000 0.000000 0.000000 0.023340 0.000000
# 6 0.000000 0.000000 0.000000 0.000000 0.000000 0.037619
#
#
# Mechanical properties :
#
#
# Convention : Reuss Voigt Hill
#
# Bulk Modulus (GPa) = 63.83331 64.12268 63.97799
# Shear Modulus (GPa) = 24.37898 26.76929 25.57413
#
# Velocity S-wave (km/s) = 3.56261 3.73318 3.64889
# Velocity P-wave (km/s) = 7.08208 7.20873 7.14568
#
# Compressibility (1/GPa) = 0.01566580
#
# Stress axis : x y z
#
# Youngs Moduli (GPa) = 46.76477 60.90799 60.65274
#
# Poissons Ratio (x) = 0.54182 0.44312
# Poissons Ratio (y) = 0.41600 0.18864
# Poissons Ratio (z) = 0.34166 0.18943
#
# Static dielectric constant tensor:
#      x y z
#    x 3.393670 0.000000 0.000000 
#    y 0.000000 3.533890 0.000000 
#    z 0.000000 0.000000 3.654840 
# 
# 
# High freq. dielectric constant tensor:
#      x y z
#    x 1.742430 0.000000 0.000000 
#    y 0.000000 1.752150 0.000000 
#    z 0.000000 0.000000 1.759690 
# 
# From -- ./inp_files/18269.got.cif
#   From: 2010.03.12/outbox.cif.g09.slc.cpg/sg62_10_cif.got.tgz:18269.got - 2010.04.10 19:12:36.
