data_PCOD8254687
_publ_section_title
;
Structure prediction by ZEFSAII (Michael W. Deem and Ramdas Pophale) SiO2 
 PCOD8254687
Probable space group: P N M A
;
_chemical_formula_sum "Si O2"
_cell_formula_units_Z 64
_cell_length_a 11.874428
_cell_length_b 8.533960
_cell_length_c 30.683149
_cell_angle_alpha 90.000000
_cell_angle_beta 90.000000
_cell_angle_gamma 90.000000
_cell_volume 3109.304322
_symmetry_space_group_name_H-M "P N M A"
_symmetry_group_IT_number 62
_symmetry_cell_setting 'orthorhombic'
loop_
_space_group_symop_operation_xyz
x,y,z
1/2-x,-y,1/2+z
1/2+x,1/2-y,1/2-z
-x,1/2+y,-z
-x,-y,-z
1/2+x,y,1/2-z
1/2-x,1/2+y,1/2+z
x,1/2-y,z
loop_
_atom_site_type_symbol
_atom_site_label
_atom_site_fract_x
_atom_site_fract_y
_atom_site_fract_z
Si Si1 0.759989 0.929863 0.700077
Si Si2 0.856265 0.063401 0.875715
Si Si3 0.767953 0.435571 0.551194
Si Si4 0.013944 0.570924 0.332186
Si Si5 0.226349 0.436256 0.538881
Si Si6 0.492843 0.065140 0.075391
Si Si7 0.221279 0.069825 0.707992
Si Si8 0.108195 0.066173 0.871602
O O1 0.731524 0.750000 0.692814
O O2 0.758054 0.969837 0.750768
O O3 0.665923 0.026935 0.674285
O O4 0.883805 0.962236 0.681875
O O5 0.854476 0.250000 0.875537
O O6 0.797822 0.002333 0.919868
O O7 0.787191 0.001741 0.833879
O O8 0.982719 0.993959 0.873526
O O9 0.786537 0.250000 0.554415
O O10 0.718969 0.486227 0.504259
O O11 0.681975 0.497408 0.588084
O O12 0.884322 0.525247 0.557994
O O13 0.056443 0.750000 0.334569
O O14 0.968476 0.519531 0.378965
O O15 0.912546 0.553084 0.298123
O O16 0.228171 0.250000 0.534921
O O17 0.098434 0.497404 0.541835
O O18 0.478963 0.250000 0.080404
O O19 0.254932 0.250000 0.716203
O O20 0.096811 0.250000 0.875746
#
# Coordination Sequence:
#
# PCOD8254687 Si02
#       8
#     8   8   8   8   8   8   8   8
#     4  12  26  41  61  94 132 163 202 255 312 363
#     4   9  20  41  66  91 117 159 211 256 302 364
#     4  11  23  39  61  91 125 164 208 253 308 370
#     4  11  22  41  68  94 122 164 209 253 307 368
#     4  11  22  40  64  91 124 161 206 257 311 370
#     4  12  23  38  62  93 128 161 201 257 316 367
#     4  10  22  42  67  92 121 162 211 253 300 366
#     4  10  22  42  66  88 120 165 213 255 299 366
#
# _framework density 20.583382
#
# number of rings (size 3 to 8) (size 9 to 14) (size 15 to 20)
#    0.000    1.250    2.500    3.750    1.750    2.000 
#    0.000    1.250    0.000    0.000    0.000    0.000 
#    0.000    0.000    0.000    0.000    0.000    0.000 
#
# Total GULP energy -793937.966474 kJ/mol
# GULP energy per Si atom -12405.280726 kJ/mol
# Density = 2.053653 g / cm^3
# Si number density = 20.583382 Si / 1000 Ang^3
#
#
#
# Elastic Constant Matrix: (Units=GPa)
#
#
# Indices 1 2 3 4 5 6 
#
# 1 110.1614 13.1655 33.4975 0.0000 0.0000 0.0000
# 2 13.1655 32.0139 15.2315 0.0000 0.0000 0.0000
# 3 33.4975 15.2315 126.4877 0.0000 0.0000 0.0000
# 4 0.0000 0.0000 0.0000 31.0319 0.0000 0.0000
# 5 0.0000 0.0000 0.0000 0.0000 23.7240 0.0000
# 6 0.0000 0.0000 0.0000 0.0000 0.0000 9.6139
#
#
#
# Elastic Compliance Matrix: (Units=1/GPa)
#
#
# Indices 1 2 3 4 5 6 
#
# 1 0.010149 -0.003071 -0.002318 0.000000 0.000000 0.000000
# 2 -0.003071 0.034064 -0.003289 0.000000 0.000000 0.000000
# 3 -0.002318 -0.003289 0.008916 0.000000 0.000000 0.000000
# 4 0.000000 0.000000 0.000000 0.032225 0.000000 0.000000
# 5 0.000000 0.000000 0.000000 0.000000 0.042151 0.000000
# 6 0.000000 0.000000 0.000000 0.000000 0.000000 0.104016
#
#
# Mechanical properties :
#
#
# Convention : Reuss Voigt Hill
#
# Bulk Modulus (GPa) = 27.95337 43.60576 35.77956
# Shear Modulus (GPa) = 19.17168 26.65854 22.91511
#
# Velocity S-wave (km/s) = 3.05522 3.60272 3.34021
# Velocity P-wave (km/s) = 5.10449 6.20782 5.68300
#
# Compressibility (1/GPa) = 0.03577387
#
# Stress axis : x y z
#
# Youngs Moduli (GPa) = 98.52724 29.35649 112.16029
#
# Poissons Ratio (x) = 0.09015 0.25999
# Poissons Ratio (y) = 0.30258 0.36886
# Poissons Ratio (z) = 0.22839 0.09654
#
# Static dielectric constant tensor:
#      x y z
#    x 3.829040 0.000000 0.000000 
#    y 0.000000 3.506940 0.000000 
#    z 0.000000 0.000000 3.952270 
# 
# 
# High freq. dielectric constant tensor:
#      x y z
#    x 1.806990 0.000000 0.000000 
#    y 0.000000 1.789440 0.000000 
#    z 0.000000 0.000000 1.819220 
# 
# From -- ./inp_files/32540.got.cif
#   From: 2010.03.12/outbox.cif.g09.slc.cpg/sg62_17_cif.got.tgz:32540.got - 2010.04.10 19:12:36.
