data_PCOD8254411
_publ_section_title
;
Structure prediction by ZEFSAII (Michael W. Deem and Ramdas Pophale) SiO2 
 PCOD8254411
Probable space group: P N M A
;
_chemical_formula_sum "Si O2"
_cell_formula_units_Z 48
_cell_length_a 9.401268
_cell_length_b 14.891458
_cell_length_c 18.607142
_cell_angle_alpha 90.000000
_cell_angle_beta 90.000000
_cell_angle_gamma 90.000000
_cell_volume 2604.973599
_symmetry_space_group_name_H-M "P N M A"
_symmetry_group_IT_number 62
_symmetry_cell_setting 'orthorhombic'
loop_
_space_group_symop_operation_xyz
x,y,z
1/2-x,-y,1/2+z
1/2+x,1/2-y,1/2-z
-x,1/2+y,-z
-x,-y,-z
1/2+x,y,1/2-z
1/2-x,1/2+y,1/2+z
x,1/2-y,z
loop_
_atom_site_type_symbol
_atom_site_label
_atom_site_fract_x
_atom_site_fract_y
_atom_site_fract_z
Si Si1 0.513298 0.848426 0.879002
Si Si2 0.306206 0.151156 0.365410
Si Si3 0.162580 0.602818 0.237433
Si Si4 0.787612 0.250000 0.652328
Si Si5 0.954598 0.250000 0.862039
Si Si6 0.912805 0.478504 0.257420
Si Si7 0.982881 0.250000 0.028952
Si Si8 0.317059 0.250000 0.014185
O O1 0.512832 0.750000 0.840986
O O2 0.350139 0.877823 0.894295
O O3 0.593636 0.917367 0.827779
O O4 0.604080 0.838910 0.953314
O O5 0.297508 0.250000 0.327389
O O6 0.361144 0.076130 0.311611
O O7 0.415569 0.160903 0.432942
O O8 0.148702 0.661982 0.309554
O O9 0.120835 0.661036 0.168163
O O10 0.323083 0.568479 0.228587
O O11 0.071871 0.511862 0.243001
O O12 0.618351 0.250000 0.660938
O O13 0.838042 0.250000 0.570669
O O14 0.935170 0.250000 0.946891
O O15 0.152508 0.250000 0.037331
#
# Coordination Sequence:
#
# PCOD8254411 Si02
#       8
#     8   8   8   4   4   8   4   4
#     4   9  20  37  57  87 122 154 184 231 295 348
#     4   9  20  37  57  87 123 155 181 235 290 345
#     4  11  24  38  63  86 113 154 192 249 288 335
#     4  10  21  45  60  82 116 153 199 243 289 333
#     4  10  21  45  60  82 114 153 205 233 293 345
#     4  12  21  37  60  92 119 145 194 243 292 338
#     4   9  20  37  63  82 109 165 192 231 282 352
#     4   9  20  37  63  82 111 163 194 227 286 356
#
# _framework density 18.426290000000002
#
# number of rings (size 3 to 8) (size 9 to 14) (size 15 to 20)
#    1.000    1.000    3.333    0.500    2.333    0.000 
#    6.000    3.333    0.000    0.000    0.000    0.000 
#    0.000    0.000    0.000    0.000    0.000    0.000 
#
# Total GULP energy -594892.844406 kJ/mol
# GULP energy per Si atom -12393.600925 kJ/mol
# Density = 1.838435 g / cm^3
# Si number density = 18.426290 Si / 1000 Ang^3
#
#
#
# Elastic Constant Matrix: (Units=GPa)
#
#
# Indices 1 2 3 4 5 6 
#
# 1 95.0417 28.4694 65.2796 0.0000 0.0000 0.0000
# 2 28.4694 77.2439 47.2422 0.0000 0.0000 0.0000
# 3 65.2796 47.2422 120.4680 0.0000 0.0000 0.0000
# 4 0.0000 0.0000 0.0000 -0.1507 0.0000 0.0000
# 5 0.0000 0.0000 0.0000 0.0000 29.9210 0.0000
# 6 0.0000 0.0000 0.0000 0.0000 0.0000 35.5310
#
#
#
# Elastic Compliance Matrix: (Units=1/GPa)
#
#
# Indices 1 2 3 4 5 6 
#
# 1 0.016799 -0.000821 -0.008781 0.000000 0.000000 0.000000
# 2 -0.000821 0.017071 -0.006250 0.000000 0.000000 0.000000
# 3 -0.008781 -0.006250 0.015510 0.000000 0.000000 0.000000
# 4 0.000000 0.000000 0.000000 -6.636827 0.000000 0.000000
# 5 0.000000 0.000000 0.000000 0.000000 0.033421 0.000000
# 6 0.000000 0.000000 0.000000 0.000000 0.000000 0.028144
#
#
# Mechanical properties :
#
#
# Convention : Reuss Voigt Hill
#
# Bulk Modulus (GPa) = 56.57207 63.85956 60.21582
# Shear Modulus (GPa) = -0.77062 23.17776 11.20357
#
# Velocity S-wave (km/s) = -0.64740 3.55049 2.46848
# Velocity P-wave (km/s) = 5.49633 7.17913 6.39334
#
# Compressibility (1/GPa) = 0.01767657
#
# Stress axis : x y z
#
# Youngs Moduli (GPa) = 59.52759 58.57957 64.47417
#
# Poissons Ratio (x) = 0.04809 0.56615
# Poissons Ratio (y) = 0.04887 0.40293
# Poissons Ratio (z) = 0.52272 0.36610
#
# Static dielectric constant tensor:
#      x y z
#    x 3.486570 0.000000 0.000000 
#    y 0.000000 3.232970 0.000000 
#    z 0.000000 0.000000 3.133130 
# 
# 
# High freq. dielectric constant tensor:
#      x y z
#    x 1.730650 0.000000 0.000000 
#    y 0.000000 1.703610 0.000000 
#    z 0.000000 0.000000 1.695080 
# 
# From -- ./inp_files/25902.got.cif
#   From: 2010.03.12/outbox.cif.g09.slc.cpg/sg62_13_cif.got.tgz:25902.got - 2010.04.10 19:12:36.
