data_PCOD8254779
_publ_section_title
;
Structure prediction by ZEFSAII (Michael W. Deem and Ramdas Pophale) SiO2 
 PCOD8254779
Probable space group: P N M A
;
_chemical_formula_sum "Si O2"
_cell_formula_units_Z 64
_cell_length_a 8.722400
_cell_length_b 23.186164
_cell_length_c 15.216101
_cell_angle_alpha 90.000000
_cell_angle_beta 90.000000
_cell_angle_gamma 90.000000
_cell_volume 3077.289003
_symmetry_space_group_name_H-M "P N M A"
_symmetry_group_IT_number 62
_symmetry_cell_setting 'orthorhombic'
loop_
_space_group_symop_operation_xyz
x,y,z
1/2-x,-y,1/2+z
1/2+x,1/2-y,1/2-z
-x,1/2+y,-z
-x,-y,-z
1/2+x,y,1/2-z
1/2-x,1/2+y,1/2+z
x,1/2-y,z
loop_
_atom_site_type_symbol
_atom_site_label
_atom_site_fract_x
_atom_site_fract_y
_atom_site_fract_z
Si Si1 0.222057 0.113832 0.663973
Si Si2 0.313078 0.651745 0.844317
Si Si3 0.222006 0.001196 0.571109
Si Si4 0.657934 0.814370 0.831102
Si Si5 0.361102 0.098562 0.846112
Si Si6 0.130252 0.816972 0.015117
Si Si7 0.320976 0.884137 0.518842
Si Si8 0.896544 0.971113 0.613567
O O1 0.272663 0.125846 0.763726
O O2 0.288931 0.165583 0.606057
O O3 0.039098 0.114411 0.657001
O O4 0.291461 0.051524 0.632829
O O5 0.200592 0.672434 0.768850
O O6 0.476590 0.681244 0.836887
O O7 0.246727 0.671788 0.936769
O O8 0.326898 0.582654 0.834397
O O9 0.345185 0.952342 0.542879
O O10 0.081228 0.968403 0.619030
O O11 0.154203 0.035035 0.487462
O O12 0.709040 0.750000 0.855546
O O13 0.745507 0.855629 0.896989
O O14 0.334605 0.029779 0.843280
O O15 0.291010 0.124097 0.935657
O O16 0.082735 0.750000 0.019963
O O17 0.983011 0.856857 0.002023
#
# Coordination Sequence:
#
# PCOD8254779 Si02
#       8
#     8   8   8   8   8   8   8   8
#     4  11  22  43  67  98 133 172 214 264 330 387
#     4  12  24  43  64  94 128 176 218 270 324 384
#     4   9  18  38  66  97 130 164 205 263 323 396
#     4  12  25  41  63  90 129 175 224 265 316 379
#     4  10  23  40  69  98 139 163 210 274 329 395
#     4  12  26  45  66  92 130 172 224 275 322 384
#     4  11  23  43  66  97 129 169 218 266 332 376
#     4   9  18  37  64 100 131 166 204 258 326 395
#
# _framework density 20.797526999999999
#
# number of rings (size 3 to 8) (size 9 to 14) (size 15 to 20)
#    0.000    1.250    2.500    4.500    1.750    0.500 
#    2.250    3.750    0.000    0.000    0.000    0.000 
#    0.000    0.000    0.000    0.000    0.000    0.000 
#
# Total GULP energy -793815.908993 kJ/mol
# GULP energy per Si atom -12403.373578 kJ/mol
# Density = 2.075019 g / cm^3
# Si number density = 20.797527 Si / 1000 Ang^3
#
#
#
# Elastic Constant Matrix: (Units=GPa)
#
#
# Indices 1 2 3 4 5 6 
#
# 1 72.8775 13.5660 6.3630 0.0000 0.0000 0.0000
# 2 13.5660 82.6991 -0.2576 0.0000 0.0000 0.0000
# 3 6.3630 -0.2576 84.5094 0.0000 0.0000 0.0000
# 4 0.0000 0.0000 0.0000 -0.9159 0.0000 0.0000
# 5 0.0000 0.0000 0.0000 0.0000 38.8618 0.0000
# 6 0.0000 0.0000 0.0000 0.0000 0.0000 -24.5855
#
#
#
# Elastic Compliance Matrix: (Units=1/GPa)
#
#
# Indices 1 2 3 4 5 6 
#
# 1 0.014252 -0.002341 -0.001080 0.000000 0.000000 0.000000
# 2 -0.002341 0.012477 0.000214 0.000000 0.000000 0.000000
# 3 -0.001080 0.000214 0.011915 0.000000 0.000000 0.000000
# 4 0.000000 0.000000 0.000000 -1.091836 0.000000 0.000000
# 5 0.000000 0.000000 0.000000 0.000000 0.025732 0.000000
# 6 0.000000 0.000000 0.000000 0.000000 0.000000 -0.040674
#
#
# Mechanical properties :
#
#
# Convention : Reuss Voigt Hill
#
# Bulk Modulus (GPa) = 31.02768 31.04764 31.03766
# Shear Modulus (GPa) = -4.75748 17.36639 6.30446
#
# Velocity S-wave (km/s) = -1.51410 2.89281 1.74297
# Velocity P-wave (km/s) = 3.44886 5.11065 4.35967
#
# Compressibility (1/GPa) = 0.03222929
#
# Stress axis : x y z
#
# Youngs Moduli (GPa) = 70.16669 80.14904 83.92787
#
# Poissons Ratio (x) = 0.18765 0.09066
# Poissons Ratio (y) = 0.16428 -0.01799
# Poissons Ratio (z) = 0.07579 -0.01718
#
# Static dielectric constant tensor:
#      x y z
#    x 3.712710 0.000000 0.000000 
#    y 0.000000 3.877430 0.000000 
#    z 0.000000 0.000000 3.285420 
# 
# 
# High freq. dielectric constant tensor:
#      x y z
#    x 1.809740 0.000000 0.000000 
#    y 0.000000 1.812960 0.000000 
#    z 0.000000 0.000000 1.818620 
# 
# From -- ./inp_files/17362.got.cif
#   From: 2010.03.12/outbox.cif.g09.slc.cpg/sg62_9_cif.got.tgz:17362.got - 2010.04.10 19:12:36.
