data_PCOD8254230
_publ_section_title
;
Structure prediction by ZEFSAII (Michael W. Deem and Ramdas Pophale) SiO2 
 PCOD8254230
Probable space group: P N M A
;
_chemical_formula_sum "Si O2"
_cell_formula_units_Z 48
_cell_length_a 9.912961
_cell_length_b 13.474899
_cell_length_c 17.731218
_cell_angle_alpha 90.000000
_cell_angle_beta 90.000000
_cell_angle_gamma 90.000000
_cell_volume 2368.467805
_symmetry_space_group_name_H-M "P N M A"
_symmetry_group_IT_number 62
_symmetry_cell_setting 'orthorhombic'
loop_
_space_group_symop_operation_xyz
x,y,z
1/2-x,-y,1/2+z
1/2+x,1/2-y,1/2-z
-x,1/2+y,-z
-x,-y,-z
1/2+x,y,1/2-z
1/2-x,1/2+y,1/2+z
x,1/2-y,z
loop_
_atom_site_type_symbol
_atom_site_label
_atom_site_fract_x
_atom_site_fract_y
_atom_site_fract_z
Si Si1 0.237662 0.967078 0.603681
Si Si2 0.599456 0.981313 0.256768
Si Si3 0.841882 0.863327 0.203546
Si Si4 0.968361 0.864121 0.634489
Si Si5 0.067353 0.136333 0.537880
Si Si6 0.238160 0.863832 0.457429
O O1 0.126651 0.889873 0.634247
O O2 0.301258 0.926433 0.525886
O O3 0.359267 0.974174 0.662504
O O4 0.169809 0.074120 0.588844
O O5 0.697060 0.890195 0.237404
O O6 0.449123 0.938167 0.260508
O O7 0.610543 0.067409 0.194200
O O8 0.876953 0.750000 0.224297
O O9 0.835937 0.877625 0.113506
O O10 0.950912 0.750000 0.659300
O O11 0.906555 0.881273 0.551093
O O12 0.090266 0.250000 0.560693
O O13 0.915737 0.100162 0.558984
O O14 0.228633 0.750000 0.483022
#
# Coordination Sequence:
#
# PCOD8254230 Si02
#       6
#     8   8   8   8   8   8
#     4  11  20  36  63  87 124 156 208 254 307 365
#     4  12  24  40  61  92 127 164 201 252 311 366
#     4  11  24  42  61  88 124 163 205 251 309 371
#     4  10  21  40  62  90 126 164 211 252 301 368
#     4   9  18  34  62  91 117 157 207 260 300 358
#     4   9  19  36  61  86 116 157 203 251 306 362
#
# _framework density 20.266265000000001
#
# number of rings (size 3 to 8) (size 9 to 14) (size 15 to 20)
#    0.000    1.667    1.667    6.000    0.000    3.333 
#    0.000    0.000    0.000    2.000    0.000    0.000 
#    0.000    0.000    0.000    0.000    0.000    0.000 
#
# Total GULP energy -595363.909445 kJ/mol
# GULP energy per Si atom -12403.414780 kJ/mol
# Density = 2.022014 g / cm^3
# Si number density = 20.266265 Si / 1000 Ang^3
#
#
#
# Elastic Constant Matrix: (Units=GPa)
#
#
# Indices 1 2 3 4 5 6 
#
# 1 53.7253 24.8150 21.9774 0.0000 0.0000 0.0000
# 2 24.8150 95.4084 32.8676 0.0000 0.0000 0.0000
# 3 21.9774 32.8676 62.4724 0.0000 0.0000 0.0000
# 4 0.0000 0.0000 0.0000 28.4226 0.0000 0.0000
# 5 0.0000 0.0000 0.0000 0.0000 35.9147 0.0000
# 6 0.0000 0.0000 0.0000 0.0000 0.0000 20.8783
#
#
#
# Elastic Compliance Matrix: (Units=1/GPa)
#
#
# Indices 1 2 3 4 5 6 
#
# 1 0.022859 -0.003878 -0.006001 0.000000 0.000000 0.000000
# 2 -0.003878 0.013459 -0.005717 0.000000 0.000000 0.000000
# 3 -0.006001 -0.005717 0.021126 0.000000 0.000000 0.000000
# 4 0.000000 0.000000 0.000000 0.035183 0.000000 0.000000
# 5 0.000000 0.000000 0.000000 0.000000 0.027844 0.000000
# 6 0.000000 0.000000 0.000000 0.000000 0.000000 0.047897
#
#
# Mechanical properties :
#
#
# Convention : Reuss Voigt Hill
#
# Bulk Modulus (GPa) = 38.09234 41.21400 39.65317
# Shear Modulus (GPa) = 24.00246 25.83954 24.92100
#
# Velocity S-wave (km/s) = 3.44518 3.57459 3.51048
# Velocity P-wave (km/s) = 5.88748 6.11697 6.00332
#
# Compressibility (1/GPa) = 0.02625200
#
# Stress axis : x y z
#
# Youngs Moduli (GPa) = 43.74555 74.29783 47.33486
#
# Poissons Ratio (x) = 0.28813 0.28408
# Poissons Ratio (y) = 0.16965 0.27061
# Poissons Ratio (z) = 0.26254 0.42475
#
# Static dielectric constant tensor:
#      x y z
#    x 3.231110 0.000000 0.000000 
#    y 0.000000 3.765300 0.000000 
#    z 0.000000 0.000000 3.827130 
# 
# 
# High freq. dielectric constant tensor:
#      x y z
#    x 1.748980 0.000000 0.000000 
#    y 0.000000 1.803610 0.000000 
#    z 0.000000 0.000000 1.803220 
# 
# From -- ./inp_files/22231.got.cif
#   From: 2010.03.12/outbox.cif.g09.slc.cpg/sg62_12_cif.got.tgz:22231.got - 2010.04.10 19:12:36.
