data_PCOD8254101
_publ_section_title
;
Structure prediction by ZEFSAII (Michael W. Deem and Ramdas Pophale) SiO2 
 PCOD8254101
Probable space group: P N M A
;
_chemical_formula_sum "Si O2"
_cell_formula_units_Z 40
_cell_length_a 24.687860
_cell_length_b 9.221466
_cell_length_c 8.728483
_cell_angle_alpha 90.000000
_cell_angle_beta 90.000000
_cell_angle_gamma 90.000000
_cell_volume 1987.111266
_symmetry_space_group_name_H-M "P N M A"
_symmetry_group_IT_number 62
_symmetry_cell_setting 'orthorhombic'
loop_
_space_group_symop_operation_xyz
x,y,z
1/2-x,-y,1/2+z
1/2+x,1/2-y,1/2-z
-x,1/2+y,-z
-x,-y,-z
1/2+x,y,1/2-z
1/2-x,1/2+y,1/2+z
x,1/2-y,z
loop_
_atom_site_type_symbol
_atom_site_label
_atom_site_fract_x
_atom_site_fract_y
_atom_site_fract_z
Si Si1 0.418476 0.419509 0.335745
Si Si2 0.492727 0.417326 0.842362
Si Si3 0.883021 0.084208 0.829707
Si Si4 0.706984 0.417439 0.155819
Si Si5 0.311284 0.415580 0.153624
O O1 0.433812 0.250000 0.334006
O O2 0.470300 0.512350 0.288255
O O3 0.402486 0.471255 0.505116
O O4 0.370115 0.453891 0.218759
O O5 0.509084 0.250000 0.863749
O O6 0.430521 0.432175 0.793839
O O7 0.500000 0.500000 0.000000
O O8 0.863465 0.250000 0.842305
O O9 0.832493 0.989474 0.778677
O O10 0.691602 0.250000 0.145187
O O11 0.768307 0.441809 0.211200
O O12 0.701369 0.483365 0.988539
O O13 0.309223 0.250000 0.095916
#
# Coordination Sequence:
#
# PCOD8254101 Si02
#       5
#     8   8   8   8   8
#     4  10  21  39  61  83 112 151 191 233 285 341
#     4  11  23  38  58  85 116 151 191 236 286 339
#     4  10  22  40  60  83 116 154 188 232 290 341
#     4  11  23  38  60  88 115 149 193 235 277 335
#     4  10  22  39  58  83 115 149 185 230 285 336
#
# _framework density 20.129722999999998
#
# number of rings (size 3 to 8) (size 9 to 14) (size 15 to 20)
#    0.000    1.600    0.000    4.200    0.000   11.200 
#    0.000    0.000    0.000    0.000    0.000    0.000 
#    0.000    0.000    0.000    0.000    0.000    0.000 
#
# Total GULP energy -496275.296699 kJ/mol
# GULP energy per Si atom -12406.882417 kJ/mol
# Density = 2.008391 g / cm^3
# Si number density = 20.129723 Si / 1000 Ang^3
#
#
#
# Elastic Constant Matrix: (Units=GPa)
#
#
# Indices 1 2 3 4 5 6 
#
# 1 47.2898 22.5783 -14.1049 0.0000 0.0000 0.0000
# 2 22.5783 86.9281 29.2496 0.0000 0.0000 0.0000
# 3 -14.1049 29.2496 87.0593 0.0000 0.0000 0.0000
# 4 0.0000 0.0000 0.0000 38.7887 0.0000 0.0000
# 5 0.0000 0.0000 0.0000 0.0000 29.4684 0.0000
# 6 0.0000 0.0000 0.0000 0.0000 0.0000 33.9079
#
#
#
# Elastic Compliance Matrix: (Units=1/GPa)
#
#
# Indices 1 2 3 4 5 6 
#
# 1 0.028308 -0.010030 0.007956 0.000000 0.000000 0.000000
# 2 -0.010030 0.016524 -0.007176 0.000000 0.000000 0.000000
# 3 0.007956 -0.007176 0.015186 0.000000 0.000000 0.000000
# 4 0.000000 0.000000 0.000000 0.025781 0.000000 0.000000
# 5 0.000000 0.000000 0.000000 0.000000 0.033935 0.000000
# 6 0.000000 0.000000 0.000000 0.000000 0.000000 0.029492
#
#
# Mechanical properties :
#
#
# Convention : Reuss Voigt Hill
#
# Bulk Modulus (GPa) = 24.08606 32.96923 28.52764
# Shear Modulus (GPa) = 27.53848 32.66995 30.10421
#
# Velocity S-wave (km/s) = 3.70273 4.03298 3.87138
# Velocity P-wave (km/s) = 5.50197 6.17256 5.84689
#
# Compressibility (1/GPa) = 0.04151779
#
# Stress axis : x y z
#
# Youngs Moduli (GPa) = 35.32595 60.51982 65.84804
#
# Poissons Ratio (x) = 0.60699 -0.52388
# Poissons Ratio (y) = 0.35430 0.47255
# Poissons Ratio (z) = -0.28105 0.43431
#
# Static dielectric constant tensor:
#      x y z
#    x 3.775300 0.000000 0.000000 
#    y 0.000000 3.685260 0.000000 
#    z 0.000000 0.000000 3.666120 
# 
# 
# High freq. dielectric constant tensor:
#      x y z
#    x 1.795620 0.000000 0.000000 
#    y 0.000000 1.785580 0.000000 
#    z 0.000000 0.000000 1.801440 
# 
# From -- ./inp_files/9059.got.cif
#   From: 2010.03.12/outbox.cif.g09.slc.cpg/sg62_5_cif.got.tgz:9059.got - 2010.04.10 19:12:36.
