data_PCOD8254665
_publ_section_title
;
Structure prediction by ZEFSAII (Michael W. Deem and Ramdas Pophale) SiO2 
 PCOD8254665
Probable space group: P N M A
;
_chemical_formula_sum "Si O2"
_cell_formula_units_Z 40
_cell_length_a 18.551561
_cell_length_b 8.756338
_cell_length_c 12.447013
_cell_angle_alpha 90.000000
_cell_angle_beta 90.000000
_cell_angle_gamma 90.000000
_cell_volume 2021.939325
_symmetry_space_group_name_H-M "P N M A"
_symmetry_group_IT_number 62
_symmetry_cell_setting 'orthorhombic'
loop_
_space_group_symop_operation_xyz
x,y,z
1/2-x,-y,1/2+z
1/2+x,1/2-y,1/2-z
-x,1/2+y,-z
-x,-y,-z
1/2+x,y,1/2-z
1/2-x,1/2+y,1/2+z
x,1/2-y,z
loop_
_atom_site_type_symbol
_atom_site_label
_atom_site_fract_x
_atom_site_fract_y
_atom_site_fract_z
Si Si1 0.304779 0.427767 0.393566
Si Si2 0.388967 0.430643 0.186005
Si Si3 0.155688 0.929671 0.451510
Si Si4 0.550125 0.069048 0.218377
Si Si5 0.568065 0.927225 0.442256
O O1 0.283011 0.250000 0.385521
O O2 0.338553 0.489445 0.282329
O O3 0.235540 0.529632 0.415191
O O4 0.361009 0.456396 0.488364
O O5 0.393570 0.250000 0.191933
O O6 0.469550 0.496130 0.200774
O O7 0.355496 0.485780 0.073731
O O8 0.142696 0.750000 0.439470
O O9 0.097872 0.018123 0.381081
O O10 0.550819 0.250000 0.227348
O O11 0.583029 0.001718 0.327270
O O12 0.551826 0.750000 0.428078
O O13 0.500000 0.000000 0.500000
#
# Coordination Sequence:
#
# PCOD8254665 Si02
#       5
#     8   8   8   8   8
#     4  10  22  42  62  87 123 164 203 248 309 372
#     4   9  20  41  64  86 120 162 204 250 302 365
#     4  11  24  40  61  93 125 159 206 257 308 365
#     4  11  22  41  66  90 122 166 207 252 313 368
#     4  11  22  39  64  93 125 160 207 259 308 369
#
# _framework density 19.782986999999999
#
# number of rings (size 3 to 8) (size 9 to 14) (size 15 to 20)
#    0.000    1.600    2.000    2.400    2.800    1.600 
#    0.000    4.000    0.000    0.000    0.000    0.000 
#    0.000    0.000    0.000    0.000    0.000    0.000 
#
# Total GULP energy -496188.972485 kJ/mol
# GULP energy per Si atom -12404.724312 kJ/mol
# Density = 1.973796 g / cm^3
# Si number density = 19.782987 Si / 1000 Ang^3
#
#
#
# Elastic Constant Matrix: (Units=GPa)
#
#
# Indices 1 2 3 4 5 6 
#
# 1 116.4082 34.8800 70.4085 0.0000 0.0000 0.0000
# 2 34.8800 62.7805 42.8851 0.0000 0.0000 0.0000
# 3 70.4085 42.8851 176.9604 0.0000 0.0000 0.0000
# 4 0.0000 0.0000 0.0000 33.1684 0.0000 0.0000
# 5 0.0000 0.0000 0.0000 0.0000 30.9177 0.0000
# 6 0.0000 0.0000 0.0000 0.0000 0.0000 32.4012
#
#
#
# Elastic Compliance Matrix: (Units=1/GPa)
#
#
# Indices 1 2 3 4 5 6 
#
# 1 0.012146 -0.004131 -0.003831 0.000000 0.000000 0.000000
# 2 -0.004131 0.020493 -0.003323 0.000000 0.000000 0.000000
# 3 -0.003831 -0.003323 0.007981 0.000000 0.000000 0.000000
# 4 0.000000 0.000000 0.000000 0.030149 0.000000 0.000000
# 5 0.000000 0.000000 0.000000 0.000000 0.032344 0.000000
# 6 0.000000 0.000000 0.000000 0.000000 0.000000 0.030863
#
#
# Mechanical properties :
#
#
# Convention : Reuss Voigt Hill
#
# Bulk Modulus (GPa) = 55.40294 72.49960 63.95127
# Shear Modulus (GPa) = 30.75746 33.16250 31.95998
#
# Velocity S-wave (km/s) = 3.94730 4.09872 4.02372
# Velocity P-wave (km/s) = 6.98864 7.68937 7.34736
#
# Compressibility (1/GPa) = 0.01804958
#
# Stress axis : x y z
#
# Youngs Moduli (GPa) = 82.33472 48.79638 125.30242
#
# Poissons Ratio (x) = 0.20156 0.48008
# Poissons Ratio (y) = 0.34010 0.41637
# Poissons Ratio (z) = 0.31546 0.16215
#
# Static dielectric constant tensor:
#      x y z
#    x 3.702290 0.000000 0.000000 
#    y 0.000000 3.480150 0.000000 
#    z 0.000000 0.000000 3.916840 
# 
# 
# High freq. dielectric constant tensor:
#      x y z
#    x 1.780100 0.000000 0.000000 
#    y 0.000000 1.759130 0.000000 
#    z 0.000000 0.000000 1.791270 
# 
# From -- ./inp_files/13865.got.cif
#   From: 2010.03.12/outbox.cif.g09.slc.cpg/sg62_7_cif.got.tgz:13865.got - 2010.04.10 19:12:36.
