data_PCOD8254223
_publ_section_title
;
Structure prediction by ZEFSAII (Michael W. Deem and Ramdas Pophale) SiO2 
 PCOD8254223
Probable space group: P N M A
;
_chemical_formula_sum "Si O2"
_cell_formula_units_Z 64
_cell_length_a 17.527600
_cell_length_b 20.811770
_cell_length_c 8.748492
_cell_angle_alpha 90.000000
_cell_angle_beta 90.000000
_cell_angle_gamma 90.000000
_cell_volume 3191.278235
_symmetry_space_group_name_H-M "P N M A"
_symmetry_group_IT_number 62
_symmetry_cell_setting 'orthorhombic'
loop_
_space_group_symop_operation_xyz
x,y,z
1/2-x,-y,1/2+z
1/2+x,1/2-y,1/2-z
-x,1/2+y,-z
-x,-y,-z
1/2+x,y,1/2-z
1/2-x,1/2+y,1/2+z
x,1/2-y,z
loop_
_atom_site_type_symbol
_atom_site_label
_atom_site_fract_x
_atom_site_fract_y
_atom_site_fract_z
Si Si1 0.161331 0.676899 0.060341
Si Si2 0.171935 0.177606 0.595142
Si Si3 0.096098 0.629283 0.753983
Si Si4 0.596424 0.585383 0.183897
Si Si5 0.976432 0.503640 0.169965
Si Si6 0.320257 0.562547 0.306422
Si Si7 0.492525 0.822349 0.999069
Si Si8 0.292287 0.052677 0.075701
O O1 0.144022 0.750000 0.116894
O O2 0.248940 0.672207 0.999626
O O3 0.147728 0.624574 0.194337
O O4 0.106820 0.660917 0.918525
O O5 0.161006 0.250000 0.656511
O O6 0.188523 0.134000 0.742638
O O7 0.097932 0.157293 0.492719
O O8 0.052760 0.562209 0.760651
O O9 0.179259 0.615289 0.674280
O O10 0.037806 0.674356 0.661135
O O11 0.552918 0.524524 0.247824
O O12 0.534267 0.634228 0.121360
O O13 0.645288 0.548358 0.057752
O O14 0.910300 0.555630 0.182777
O O15 0.000000 0.500000 0.000000
O O16 0.286344 0.559356 0.479645
O O17 0.285628 0.509324 0.187344
O O18 0.497436 0.750000 0.058631
#
# Coordination Sequence:
#
# PCOD8254223 Si02
#       8
#     8   8   8   8   8   8   8   8
#     4  11  22  40  63  87 122 162 206 255 302 366
#     4  10  22  39  62  87 119 161 206 248 299 364
#     4  10  23  41  59  92 120 157 206 251 312 362
#     4  11  21  39  60  91 117 158 203 248 307 363
#     4  11  23  38  61  90 124 153 194 258 303 363
#     4  11  23  42  60  94 121 162 198 254 307 359
#     4  10  21  40  62  86 118 158 205 251 299 365
#     4  10  25  36  64  88 122 156 204 248 304 371
#
# _framework density 20.054659000000001
#
# number of rings (size 3 to 8) (size 9 to 14) (size 15 to 20)
#    0.000    1.500    3.750    0.750    7.000    1.500 
#    2.250    0.625    0.000    0.000    0.000    0.000 
#    0.000    0.000    0.000    0.000    0.000    0.000 
#
# Total GULP energy -792842.764585 kJ/mol
# GULP energy per Si atom -12388.168197 kJ/mol
# Density = 2.000901 g / cm^3
# Si number density = 20.054659 Si / 1000 Ang^3
#
#
#
# Elastic Constant Matrix: (Units=GPa)
#
#
# Indices 1 2 3 4 5 6 
#
# 1 78.5255 23.3403 7.6761 0.0000 0.0000 0.0000
# 2 23.3403 66.0584 10.1481 0.0000 0.0000 0.0000
# 3 7.6761 10.1481 74.4130 0.0000 0.0000 0.0000
# 4 0.0000 0.0000 0.0000 17.1845 0.0000 0.0000
# 5 0.0000 0.0000 0.0000 0.0000 37.8045 0.0000
# 6 0.0000 0.0000 0.0000 0.0000 0.0000 23.4952
#
#
#
# Elastic Compliance Matrix: (Units=1/GPa)
#
#
# Indices 1 2 3 4 5 6 
#
# 1 0.014276 -0.004921 -0.000802 0.000000 0.000000 0.000000
# 2 -0.004921 0.017158 -0.001832 0.000000 0.000000 0.000000
# 3 -0.000802 -0.001832 0.013771 0.000000 0.000000 0.000000
# 4 0.000000 0.000000 0.000000 0.058192 0.000000 0.000000
# 5 0.000000 0.000000 0.000000 0.000000 0.026452 0.000000
# 6 0.000000 0.000000 0.000000 0.000000 0.000000 0.042562
#
#
# Mechanical properties :
#
#
# Convention : Reuss Voigt Hill
#
# Bulk Modulus (GPa) = 33.22749 33.48066 33.35407
# Shear Modulus (GPa) = 25.30978 27.55234 26.43106
#
# Velocity S-wave (km/s) = 3.55637 3.71059 3.63430
# Velocity P-wave (km/s) = 5.78517 5.92359 5.85479
#
# Compressibility (1/GPa) = 0.03009557
#
# Stress axis : x y z
#
# Youngs Moduli (GPa) = 70.04897 58.28076 72.61594
#
# Poissons Ratio (x) = 0.28679 0.05820
# Poissons Ratio (y) = 0.34470 0.13306
# Poissons Ratio (z) = 0.05615 0.10679
#
# Static dielectric constant tensor:
#      x y z
#    x 3.950780 0.000000 0.000000 
#    y 0.000000 3.608770 0.000000 
#    z 0.000000 0.000000 3.577770 
# 
# 
# High freq. dielectric constant tensor:
#      x y z
#    x 1.796790 0.000000 0.000000 
#    y 0.000000 1.781190 0.000000 
#    z 0.000000 0.000000 1.770300 
# 
# From -- ./inp_files/6977.got.cif
#   From: 2010.03.12/outbox.cif.g09.slc.cpg/sg62_4_cif.got.tgz:6977.got - 2010.04.10 19:12:36.
