data_PCOD8254105
_publ_section_title
;
Structure prediction by ZEFSAII (Michael W. Deem and Ramdas Pophale) SiO2 
 PCOD8254105
Probable space group: P N M A
;
_chemical_formula_sum "Si O2"
_cell_formula_units_Z 40
_cell_length_a 13.361619
_cell_length_b 8.852031
_cell_length_c 17.863781
_cell_angle_alpha 90.000000
_cell_angle_beta 90.000000
_cell_angle_gamma 90.000000
_cell_volume 2112.882743
_symmetry_space_group_name_H-M "P N M A"
_symmetry_group_IT_number 62
_symmetry_cell_setting 'orthorhombic'
loop_
_space_group_symop_operation_xyz
x,y,z
1/2-x,-y,1/2+z
1/2+x,1/2-y,1/2-z
-x,1/2+y,-z
-x,-y,-z
1/2+x,y,1/2-z
1/2-x,1/2+y,1/2+z
x,1/2-y,z
loop_
_atom_site_type_symbol
_atom_site_label
_atom_site_fract_x
_atom_site_fract_y
_atom_site_fract_z
Si Si1 0.905853 0.075483 0.038087
Si Si2 0.399101 0.074255 0.171023
Si Si3 0.805622 0.922489 0.467857
Si Si4 0.376204 0.925147 0.870624
Si Si5 0.318349 0.927448 0.318241
O O1 0.928804 0.250000 0.051646
O O2 0.886771 0.003123 0.118734
O O3 0.811235 0.052036 0.984138
O O4 0.000000 0.000000 0.000000
O O5 0.384739 0.250000 0.189664
O O6 0.514697 0.032867 0.158595
O O7 0.336764 0.036376 0.096937
O O8 0.359572 0.972929 0.237879
O O9 0.826473 0.750000 0.443215
O O10 0.869594 0.964254 0.541479
O O11 0.348962 0.750000 0.858585
O O12 0.296929 0.021927 0.823742
O O13 0.325085 0.750000 0.328346
#
# Coordination Sequence:
#
# PCOD8254105 Si02
#       5
#     8   8   8   8   8
#     4  10  21  39  61  84 113 149 189 231 276 330
#     4  11  22  36  58  85 113 147 185 228 279 333
#     4   9  19  36  57  83 113 142 180 229 275 328
#     4   9  20  39  59  80 110 146 183 227 277 330
#     4  11  23  38  57  82 113 148 186 231 280 327
#
# _framework density 18.931481000000002
#
# number of rings (size 3 to 8) (size 9 to 14) (size 15 to 20)
#    0.000    2.000    0.000    4.800    0.000    7.200 
#    0.000    0.000    0.000    0.000    0.000    0.000 
#    0.000    0.000    0.000    0.000    0.000    0.000 
#
# Total GULP energy -496196.124181 kJ/mol
# GULP energy per Si atom -12404.903105 kJ/mol
# Density = 1.888839 g / cm^3
# Si number density = 18.931481 Si / 1000 Ang^3
#
#
#
# Elastic Constant Matrix: (Units=GPa)
#
#
# Indices 1 2 3 4 5 6 
#
# 1 99.1504 59.5744 64.2031 0.0000 0.0000 0.0000
# 2 59.5744 118.1490 56.6397 0.0000 0.0000 0.0000
# 3 64.2031 56.6397 110.9520 0.0000 0.0000 0.0000
# 4 0.0000 0.0000 0.0000 36.6596 0.0000 0.0000
# 5 0.0000 0.0000 0.0000 0.0000 26.0001 0.0000
# 6 0.0000 0.0000 0.0000 0.0000 0.0000 32.9555
#
#
#
# Elastic Compliance Matrix: (Units=1/GPa)
#
#
# Indices 1 2 3 4 5 6 
#
# 1 0.018536 -0.005567 -0.007884 0.000000 0.000000 0.000000
# 2 -0.005567 0.012878 -0.003353 0.000000 0.000000 0.000000
# 3 -0.007884 -0.003353 0.015287 0.000000 0.000000 0.000000
# 4 0.000000 0.000000 0.000000 0.027278 0.000000 0.000000
# 5 0.000000 0.000000 0.000000 0.000000 0.038461 0.000000
# 6 0.000000 0.000000 0.000000 0.000000 0.000000 0.030344
#
#
# Mechanical properties :
#
#
# Convention : Reuss Voigt Hill
#
# Bulk Modulus (GPa) = 76.37590 76.56508 76.47049
# Shear Modulus (GPa) = 27.66170 28.97866 28.32018
#
# Velocity S-wave (km/s) = 3.82664 3.91668 3.87192
# Velocity P-wave (km/s) = 7.74307 7.80928 7.77625
#
# Compressibility (1/GPa) = 0.01309313
#
# Stress axis : x y z
#
# Youngs Moduli (GPa) = 53.95029 77.65087 65.41638
#
# Poissons Ratio (x) = 0.43226 0.51574
# Poissons Ratio (y) = 0.30032 0.21934
# Poissons Ratio (z) = 0.42535 0.26036
#
# Static dielectric constant tensor:
#      x y z
#    x 3.544990 0.000000 0.000000 
#    y 0.000000 3.484840 0.000000 
#    z 0.000000 0.000000 3.394950 
# 
# 
# High freq. dielectric constant tensor:
#      x y z
#    x 1.742050 0.000000 0.000000 
#    y 0.000000 1.743020 0.000000 
#    z 0.000000 0.000000 1.736020 
# 
# From -- ./inp_files/18621.got.cif
#   From: 2010.03.12/outbox.cif.g09.slc.cpg/sg62_10_cif.got.tgz:18621.got - 2010.04.10 19:12:36.
