data_PCOD8254059
_publ_section_title
;
Structure prediction by ZEFSAII (Michael W. Deem and Ramdas Pophale) SiO2 
 PCOD8254059
Probable space group: P N M A
;
_chemical_formula_sum "Si O2"
_cell_formula_units_Z 48
_cell_length_a 14.827868
_cell_length_b 8.867326
_cell_length_c 18.356464
_cell_angle_alpha 90.000000
_cell_angle_beta 90.000000
_cell_angle_gamma 90.000000
_cell_volume 2413.572858
_symmetry_space_group_name_H-M "P N M A"
_symmetry_group_IT_number 62
_symmetry_cell_setting 'orthorhombic'
loop_
_space_group_symop_operation_xyz
x,y,z
1/2-x,-y,1/2+z
1/2+x,1/2-y,1/2-z
-x,1/2+y,-z
-x,-y,-z
1/2+x,y,1/2-z
1/2-x,1/2+y,1/2+z
x,1/2-y,z
loop_
_atom_site_type_symbol
_atom_site_label
_atom_site_fract_x
_atom_site_fract_y
_atom_site_fract_z
Si Si1 0.095718 0.572744 0.016158
Si Si2 0.359828 0.922325 0.664467
Si Si3 0.001925 0.574056 0.713449
Si Si4 0.758700 0.926194 0.086561
Si Si5 0.054316 0.573310 0.434900
Si Si6 0.801427 0.422462 0.233491
O O1 0.084811 0.750000 0.009809
O O2 0.129839 0.530352 0.096027
O O3 0.167730 0.519669 0.957152
O O4 0.000000 0.500000 0.000000
O O5 0.378999 0.750000 0.640467
O O6 0.428748 0.973397 0.726882
O O7 0.258876 0.941067 0.694413
O O8 0.995369 0.750000 0.694122
O O9 0.985750 0.481309 0.640984
O O10 0.098251 0.529398 0.745804
O O11 0.778192 0.750000 0.076359
O O12 0.659556 0.969796 0.057722
O O13 0.764521 0.968084 0.171306
O O14 0.040651 0.750000 0.439414
O O15 0.000000 0.500000 0.500000
O O16 0.797322 0.250000 0.205178
#
# Coordination Sequence:
#
# PCOD8254059 Si02
#       6
#     8   8   8   8   8   8
#     4  12  26  43  66  94 128 168 212 263 318 379
#     4  10  21  39  62  92 130 165 205 256 312 378
#     4  10  21  39  64  92 123 162 205 254 312 373
#     4  11  24  43  66  94 129 168 212 265 318 378
#     4  11  25  42  63  91 126 167 214 264 316 374
#     4  10  21  38  64  94 124 163 207 255 314 378
#
# _framework density 19.887529000000001
#
# number of rings (size 3 to 8) (size 9 to 14) (size 15 to 20)
#    0.000    1.333    1.667    3.500    2.333    5.333 
#    0.000    0.000    0.000    0.000    0.000    0.000 
#    0.000    0.000    0.000    0.000    0.000    0.000 
#
# Total GULP energy -595508.332671 kJ/mol
# GULP energy per Si atom -12406.423597 kJ/mol
# Density = 1.984226 g / cm^3
# Si number density = 19.887529 Si / 1000 Ang^3
#
#
#
# Elastic Constant Matrix: (Units=GPa)
#
#
# Indices 1 2 3 4 5 6 
#
# 1 107.5596 51.4630 30.0337 0.0000 0.0000 0.0000
# 2 51.4630 97.6276 48.6793 0.0000 0.0000 0.0000
# 3 30.0337 48.6793 95.6869 0.0000 0.0000 0.0000
# 4 0.0000 0.0000 0.0000 42.4048 0.0000 0.0000
# 5 0.0000 0.0000 0.0000 0.0000 31.8902 0.0000
# 6 0.0000 0.0000 0.0000 0.0000 0.0000 28.4901
#
#
#
# Elastic Compliance Matrix: (Units=1/GPa)
#
#
# Indices 1 2 3 4 5 6 
#
# 1 0.012474 -0.006195 -0.000764 0.000000 0.000000 0.000000
# 2 -0.006195 0.016801 -0.006603 0.000000 0.000000 0.000000
# 3 -0.000764 -0.006603 0.014050 0.000000 0.000000 0.000000
# 4 0.000000 0.000000 0.000000 0.023582 0.000000 0.000000
# 5 0.000000 0.000000 0.000000 0.000000 0.031358 0.000000
# 6 0.000000 0.000000 0.000000 0.000000 0.000000 0.035100
#
#
# Mechanical properties :
#
#
# Convention : Reuss Voigt Hill
#
# Bulk Modulus (GPa) = 61.72128 62.35846 62.03987
# Shear Modulus (GPa) = 30.14078 31.93688 31.03883
#
# Velocity S-wave (km/s) = 3.89724 4.01168 3.95488
# Velocity P-wave (km/s) = 7.16616 7.27199 7.21927
#
# Compressibility (1/GPa) = 0.01620187
#
# Stress axis : x y z
#
# Youngs Moduli (GPa) = 80.16378 59.52094 71.17660
#
# Poissons Ratio (x) = 0.36872 0.05437
# Poissons Ratio (y) = 0.49660 0.46996
# Poissons Ratio (z) = 0.06124 0.39300
#
# Static dielectric constant tensor:
#      x y z
#    x 3.887200 0.000000 0.000000 
#    y 0.000000 3.777800 0.000000 
#    z 0.000000 0.000000 3.724820 
# 
# 
# High freq. dielectric constant tensor:
#      x y z
#    x 1.796350 0.000000 0.000000 
#    y 0.000000 1.774200 0.000000 
#    z 0.000000 0.000000 1.782930 
# 
# From -- ./inp_files/23740.got.cif
#   From: 2010.03.12/outbox.cif.g09.slc.cpg/sg62_12_cif.got.tgz:23740.got - 2010.04.10 19:12:36.
