data_PCOD8254470
_publ_section_title
;
Structure prediction by ZEFSAII (Michael W. Deem and Ramdas Pophale) SiO2 
 PCOD8254470
Probable space group: P N M A
;
_chemical_formula_sum "Si O2"
_cell_formula_units_Z 48
_cell_length_a 16.948764
_cell_length_b 8.774833
_cell_length_c 16.693379
_cell_angle_alpha 90.000000
_cell_angle_beta 90.000000
_cell_angle_gamma 90.000000
_cell_volume 2482.682288
_symmetry_space_group_name_H-M "P N M A"
_symmetry_group_IT_number 62
_symmetry_cell_setting 'orthorhombic'
loop_
_space_group_symop_operation_xyz
x,y,z
1/2-x,-y,1/2+z
1/2+x,1/2-y,1/2-z
-x,1/2+y,-z
-x,-y,-z
1/2+x,y,1/2-z
1/2-x,1/2+y,1/2+z
x,1/2-y,z
loop_
_atom_site_type_symbol
_atom_site_label
_atom_site_fract_x
_atom_site_fract_y
_atom_site_fract_z
Si Si1 0.413915 0.570983 0.002759
Si Si2 0.001258 0.070336 0.913409
Si Si3 0.183123 0.929195 0.646692
Si Si4 0.154160 0.571967 0.177740
Si Si5 0.676024 0.575561 0.139887
Si Si6 0.150115 0.072442 0.813113
O O1 0.422584 0.750000 0.011950
O O2 0.367048 0.507653 0.078045
O O3 0.500000 0.500000 0.000000
O O4 0.366941 0.534921 0.921572
O O5 0.002644 0.250000 0.921562
O O6 0.078747 0.012696 0.867378
O O7 0.924866 0.015018 0.864977
O O8 0.000000 0.000000 0.000000
O O9 0.177131 0.750000 0.635385
O O10 0.273951 0.979430 0.639250
O O11 0.147804 0.976553 0.732000
O O12 0.171527 0.750000 0.164149
O O13 0.143982 0.537744 0.271681
O O14 0.657477 0.750000 0.116356
O O15 0.769724 0.544352 0.137443
O O16 0.141965 0.250000 0.789931
#
# Coordination Sequence:
#
# PCOD8254470 Si02
#       6
#     8   8   8   8   8   8
#     4  12  26  42  62  90 123 157 200 251 305 361
#     4  10  22  38  60  92 124 160 201 246 298 351
#     4  11  23  40  63  91 120 157 204 251 302 357
#     4   9  20  40  63  89 122 162 201 243 301 360
#     4   9  19  38  62  89 121 158 201 247 301 360
#     4   9  20  40  64  89 122 163 200 243 302 359
#
# _framework density 19.333929000000001
#
# number of rings (size 3 to 8) (size 9 to 14) (size 15 to 20)
#    0.000    2.000    0.000    4.000    4.667    4.000 
#    0.000    0.000    0.000    0.000    0.000    0.000 
#    0.000    0.000    0.000    0.000    0.000    0.000 
#
# Total GULP energy -595392.106733 kJ/mol
# GULP energy per Si atom -12404.002224 kJ/mol
# Density = 1.928992 g / cm^3
# Si number density = 19.333929 Si / 1000 Ang^3
#
#
#
# Elastic Constant Matrix: (Units=GPa)
#
#
# Indices 1 2 3 4 5 6 
#
# 1 169.6919 63.1336 105.1807 0.0000 0.0000 0.0000
# 2 63.1336 113.3256 57.8778 0.0000 0.0000 0.0000
# 3 105.1807 57.8778 123.9974 0.0000 0.0000 0.0000
# 4 0.0000 0.0000 0.0000 38.0244 0.0000 0.0000
# 5 0.0000 0.0000 0.0000 0.0000 33.1394 0.0000
# 6 0.0000 0.0000 0.0000 0.0000 0.0000 30.4533
#
#
#
# Elastic Compliance Matrix: (Units=1/GPa)
#
#
# Indices 1 2 3 4 5 6 
#
# 1 0.012790 -0.002080 -0.009878 0.000000 0.000000 0.000000
# 2 -0.002080 0.011924 -0.003801 0.000000 0.000000 0.000000
# 3 -0.009878 -0.003801 0.018218 0.000000 0.000000 0.000000
# 4 0.000000 0.000000 0.000000 0.026299 0.000000 0.000000
# 5 0.000000 0.000000 0.000000 0.000000 0.030176 0.000000
# 6 0.000000 0.000000 0.000000 0.000000 0.000000 0.032837
#
#
# Mechanical properties :
#
#
# Convention : Reuss Voigt Hill
#
# Bulk Modulus (GPa) = 87.61841 95.48879 91.55360
# Shear Modulus (GPa) = 29.83890 32.37827 31.10859
#
# Velocity S-wave (km/s) = 3.93280 4.09673 4.01560
# Velocity P-wave (km/s) = 8.12647 8.47786 8.30402
#
# Compressibility (1/GPa) = 0.01141313
#
# Stress axis : x y z
#
# Youngs Moduli (GPa) = 78.18888 83.86105 54.89137
#
# Poissons Ratio (x) = 0.17445 0.54220
# Poissons Ratio (y) = 0.16265 0.20866
# Poissons Ratio (z) = 0.77233 0.31879
#
# Static dielectric constant tensor:
#      x y z
#    x 4.358220 0.000000 0.000000 
#    y 0.000000 3.456440 0.000000 
#    z 0.000000 0.000000 3.549710 
# 
# 
# High freq. dielectric constant tensor:
#      x y z
#    x 1.766420 0.000000 0.000000 
#    y 0.000000 1.746120 0.000000 
#    z 0.000000 0.000000 1.759780 
# 
# From -- ./inp_files/19622.got.cif
#   From: 2010.03.12/outbox.cif.g09.slc.cpg/sg62_10_cif.got.tgz:19622.got - 2010.04.10 19:12:36.
