data_PCOD8254975
_publ_section_title
;
Structure prediction by ZEFSAII (Michael W. Deem and Ramdas Pophale) SiO2 
 PCOD8254975
Probable space group: P N M A
;
_chemical_formula_sum "Si O2"
_cell_formula_units_Z 40
_cell_length_a 17.290274
_cell_length_b 20.525232
_cell_length_c 5.329285
_cell_angle_alpha 90.000000
_cell_angle_beta 90.000000
_cell_angle_gamma 90.000000
_cell_volume 1891.293354
_symmetry_space_group_name_H-M "P N M A"
_symmetry_group_IT_number 62
_symmetry_cell_setting 'orthorhombic'
loop_
_space_group_symop_operation_xyz
x,y,z
1/2-x,-y,1/2+z
1/2+x,1/2-y,1/2-z
-x,1/2+y,-z
-x,-y,-z
1/2+x,y,1/2-z
1/2-x,1/2+y,1/2+z
x,1/2-y,z
loop_
_atom_site_type_symbol
_atom_site_label
_atom_site_fract_x
_atom_site_fract_y
_atom_site_fract_z
Si Si1 0.562850 0.013568 0.208619
Si Si2 0.675489 0.069836 0.842425
Si Si3 0.161031 0.562899 0.965087
Si Si4 0.523021 0.630669 0.676436
Si Si5 0.052162 0.323330 0.698892
O O1 0.521489 0.063094 0.400479
O O2 0.593781 0.946877 0.326166
O O3 0.638942 0.048434 0.103066
O O4 0.500000 0.000000 0.000000
O O5 0.762556 0.092810 0.909348
O O6 0.626544 0.131096 0.738427
O O7 0.677723 0.008209 0.654043
O O8 0.116186 0.615652 0.789000
O O9 0.504935 0.677741 0.441587
O O10 0.492545 0.656023 0.944721
O O11 0.082604 0.250000 0.660284
#
# Coordination Sequence:
#
# PCOD8254975 Si02
#       5
#     8   8   8   8   8
#     4  11  20  35  59  93 134 168 201 255 331 401
#     4  11  23  36  63  96 135 168 200 271 339 400
#     4  12  21  37  60 101 135 156 209 269 355 392
#     4  11  23  39  68  92 126 169 214 273 316 379
#     4  11  25  46  65  89 124 179 233 263 308 384
#
# _framework density 21.149547999999999
#
# number of rings (size 3 to 8) (size 9 to 14) (size 15 to 20)
#    0.000    0.800    6.000    3.600    0.000    0.000 
#    0.000    2.000    0.000    0.000    0.000    0.000 
#    0.000    0.000    0.000    0.000    0.000    0.000 
#
# Total GULP energy -495564.543315 kJ/mol
# GULP energy per Si atom -12389.113583 kJ/mol
# Density = 2.110141 g / cm^3
# Si number density = 21.149548 Si / 1000 Ang^3
#
#
#
# Elastic Constant Matrix: (Units=GPa)
#
#
# Indices 1 2 3 4 5 6 
#
# 1 141.5677 38.2336 56.4615 0.0000 0.0000 0.0000
# 2 38.2336 93.2388 18.6402 0.0000 0.0000 0.0000
# 3 56.4615 18.6402 93.7639 0.0000 0.0000 0.0000
# 4 0.0000 0.0000 0.0000 22.5687 0.0000 0.0000
# 5 0.0000 0.0000 0.0000 0.0000 29.5845 0.0000
# 6 0.0000 0.0000 0.0000 0.0000 0.0000 17.6675
#
#
#
# Elastic Compliance Matrix: (Units=1/GPa)
#
#
# Indices 1 2 3 4 5 6 
#
# 1 0.010058 -0.003034 -0.005454 0.000000 0.000000 0.000000
# 2 -0.003034 0.012084 -0.000575 0.000000 0.000000 0.000000
# 3 -0.005454 -0.000575 0.014063 0.000000 0.000000 0.000000
# 4 0.000000 0.000000 0.000000 0.044309 0.000000 0.000000
# 5 0.000000 0.000000 0.000000 0.000000 0.033801 0.000000
# 6 0.000000 0.000000 0.000000 0.000000 0.000000 0.056601
#
#
# Mechanical properties :
#
#
# Convention : Reuss Voigt Hill
#
# Bulk Modulus (GPa) = 55.30987 61.69345 58.50166
# Shear Modulus (GPa) = 25.63177 28.31316 26.97246
#
# Velocity S-wave (km/s) = 3.48506 3.66281 3.57504
# Velocity P-wave (km/s) = 6.51174 6.86452 6.69046
#
# Compressibility (1/GPa) = 0.01807996
#
# Stress axis : x y z
#
# Youngs Moduli (GPa) = 99.42079 82.75153 71.10666
#
# Poissons Ratio (x) = 0.25109 0.38778
# Poissons Ratio (y) = 0.30167 0.04090
# Poissons Ratio (z) = 0.54220 0.04760
#
# Static dielectric constant tensor:
#      x y z
#    x 5.720860 0.000000 0.000000 
#    y 0.000000 4.503730 0.000000 
#    z 0.000000 0.000000 3.870620 
# 
# 
# High freq. dielectric constant tensor:
#      x y z
#    x 1.832960 0.000000 0.000000 
#    y 0.000000 1.790280 0.000000 
#    z 0.000000 0.000000 1.839060 
# 
# From -- ./inp_files/1035.got.cif
#   From: 2010.03.12/outbox.cif.g09.slc.cpg/sg62_1_cif.got.tgz:1035.got - 2010.04.10 19:12:36.
