data_PCOD8254075
_publ_section_title
;
Structure prediction by ZEFSAII (Michael W. Deem and Ramdas Pophale) SiO2 
 PCOD8254075
Probable space group: P N M A
;
_chemical_formula_sum "Si O2"
_cell_formula_units_Z 64
_cell_length_a 9.288989
_cell_length_b 21.671612
_cell_length_c 16.087194
_cell_angle_alpha 90.000000
_cell_angle_beta 90.000000
_cell_angle_gamma 90.000000
_cell_volume 3238.470642
_symmetry_space_group_name_H-M "P N M A"
_symmetry_group_IT_number 62
_symmetry_cell_setting 'orthorhombic'
loop_
_space_group_symop_operation_xyz
x,y,z
1/2-x,-y,1/2+z
1/2+x,1/2-y,1/2-z
-x,1/2+y,-z
-x,-y,-z
1/2+x,y,1/2-z
1/2-x,1/2+y,1/2+z
x,1/2-y,z
loop_
_atom_site_type_symbol
_atom_site_label
_atom_site_fract_x
_atom_site_fract_y
_atom_site_fract_z
Si Si1 0.394466 0.613585 0.027280
Si Si2 0.250124 0.482073 0.416420
Si Si3 0.374094 0.580070 0.213900
Si Si4 0.041458 0.076372 0.093102
Si Si5 0.125595 0.007704 0.250378
Si Si6 0.087749 0.178988 0.859957
Si Si7 0.712336 0.609718 0.030079
Si Si8 0.117460 0.819897 0.992484
O O1 0.400446 0.612933 0.126458
O O2 0.555874 0.627481 0.993616
O O3 0.337498 0.548660 0.991741
O O4 0.287876 0.667054 0.995480
O O5 0.422414 0.475788 0.431868
O O6 0.202778 0.455729 0.326455
O O7 0.200202 0.553165 0.405012
O O8 0.472280 0.520193 0.225196
O O9 0.214656 0.551306 0.216142
O O10 0.403704 0.633031 0.282514
O O11 0.957567 0.141170 0.081275
O O12 0.098755 0.062520 0.184719
O O13 0.184350 0.078202 0.037911
O O14 0.090077 0.250000 0.828828
O O15 0.222416 0.168713 0.922672
O O16 0.946174 0.164608 0.915638
O O17 0.088138 0.750000 0.968079
#
# Coordination Sequence:
#
# PCOD8254075 Si02
#       8
#     8   8   8   8   8   8   8   8
#     4  11  23  34  57  88 120 157 194 252 304 352
#     4  11  21  37  55  84 123 158 195 237 305 368
#     4  12  22  37  54  86 125 158 200 246 301 363
#     4  10  22  37  61  86 115 163 199 246 303 369
#     4  12  22  36  58  87 122 155 195 249 306 360
#     4  10  21  39  59  81 115 166 209 243 289 361
#     4  11  20  36  56  85 119 155 200 248 297 353
#     4   9  21  42  63  83 116 161 211 250 299 366
#
# _framework density 19.762415000000001
#
# number of rings (size 3 to 8) (size 9 to 14) (size 15 to 20)
#    0.000    1.250    3.750    2.250    1.750    3.000 
#    0.000    3.125    0.000    3.000    0.000    0.000 
#    0.000    0.000    0.000    0.000    0.000    0.000 
#
# Total GULP energy -793298.509485 kJ/mol
# GULP energy per Si atom -12395.289211 kJ/mol
# Density = 1.971744 g / cm^3
# Si number density = 19.762415 Si / 1000 Ang^3
#
#
#
# Elastic Constant Matrix: (Units=GPa)
#
#
# Indices 1 2 3 4 5 6 
#
# 1 137.6327 28.6549 35.9774 0.0000 0.0000 0.0000
# 2 28.6549 88.3297 39.0801 0.0000 0.0000 0.0000
# 3 35.9774 39.0801 89.9861 0.0000 0.0000 0.0000
# 4 0.0000 0.0000 0.0000 29.0060 0.0000 0.0000
# 5 0.0000 0.0000 0.0000 0.0000 27.6130 0.0000
# 6 0.0000 0.0000 0.0000 0.0000 0.0000 19.2857
#
#
#
# Elastic Compliance Matrix: (Units=1/GPa)
#
#
# Indices 1 2 3 4 5 6 
#
# 1 0.008273 -0.001511 -0.002652 0.000000 0.000000 0.000000
# 2 -0.001511 0.014290 -0.005602 0.000000 0.000000 0.000000
# 3 -0.002652 -0.005602 0.014606 0.000000 0.000000 0.000000
# 4 0.000000 0.000000 0.000000 0.034476 0.000000 0.000000
# 5 0.000000 0.000000 0.000000 0.000000 0.036215 0.000000
# 6 0.000000 0.000000 0.000000 0.000000 0.000000 0.051852
#
#
# Mechanical properties :
#
#
# Convention : Reuss Voigt Hill
#
# Bulk Modulus (GPa) = 56.68822 58.15260 57.42041
# Shear Modulus (GPa) = 27.00947 29.33001 28.16974
#
# Velocity S-wave (km/s) = 3.70091 3.85662 3.77957
# Velocity P-wave (km/s) = 6.85635 7.02290 6.94012
#
# Compressibility (1/GPa) = 0.01764035
#
# Stress axis : x y z
#
# Youngs Moduli (GPa) = 120.86919 69.97992 68.46567
#
# Poissons Ratio (x) = 0.10572 0.18155
# Poissons Ratio (y) = 0.18260 0.38354
# Poissons Ratio (z) = 0.32051 0.39202
#
# Static dielectric constant tensor:
#      x y z
#    x 3.871990 0.000000 0.000000 
#    y 0.000000 3.316390 0.000000 
#    z 0.000000 0.000000 3.525560 
# 
# 
# High freq. dielectric constant tensor:
#      x y z
#    x 1.790560 0.000000 0.000000 
#    y 0.000000 1.741360 0.000000 
#    z 0.000000 0.000000 1.758270 
# 
# From -- ./inp_files/17352.got.cif
#   From: 2010.03.12/outbox.cif.g09.slc.cpg/sg62_9_cif.got.tgz:17352.got - 2010.04.10 19:12:36.
