data_PCOD8254170
_publ_section_title
;
Structure prediction by ZEFSAII (Michael W. Deem and Ramdas Pophale) SiO2 
 PCOD8254170
Probable space group: P N M A
;
_chemical_formula_sum "Si O2"
_cell_formula_units_Z 64
_cell_length_a 12.351585
_cell_length_b 13.975508
_cell_length_c 17.418326
_cell_angle_alpha 90.000000
_cell_angle_beta 90.000000
_cell_angle_gamma 90.000000
_cell_volume 3006.745773
_symmetry_space_group_name_H-M "P N M A"
_symmetry_group_IT_number 62
_symmetry_cell_setting 'orthorhombic'
loop_
_space_group_symop_operation_xyz
x,y,z
1/2-x,-y,1/2+z
1/2+x,1/2-y,1/2-z
-x,1/2+y,-z
-x,-y,-z
1/2+x,y,1/2-z
1/2-x,1/2+y,1/2+z
x,1/2-y,z
loop_
_atom_site_type_symbol
_atom_site_label
_atom_site_fract_x
_atom_site_fract_y
_atom_site_fract_z
Si Si1 0.812864 0.862170 0.588516
Si Si2 0.061827 0.472988 0.076640
Si Si3 0.296005 0.033894 0.022265
Si Si4 0.902788 0.363004 0.184080
Si Si5 0.012372 0.146134 0.850684
Si Si6 0.244128 0.141704 0.879158
Si Si7 0.466983 0.443702 0.150479
Si Si8 0.040502 0.852803 0.319758
O O1 0.808901 0.750000 0.566373
O O2 0.713319 0.889161 0.645701
O O3 0.923332 0.884750 0.634630
O O4 0.805172 0.924024 0.509147
O O5 0.181069 0.437460 0.058432
O O6 0.998791 0.393771 0.126322
O O7 0.078732 0.572220 0.123140
O O8 0.000000 0.500000 0.000000
O O9 0.382048 0.072787 0.082947
O O10 0.313593 0.100062 0.948758
O O11 0.911764 0.250000 0.198233
O O12 0.918234 0.415884 0.266264
O O13 0.996321 0.250000 0.891413
O O14 0.127645 0.091632 0.867871
O O15 0.012954 0.161405 0.761413
O O16 0.210205 0.250000 0.894054
O O17 0.329024 0.130946 0.808915
O O18 0.485909 0.557052 0.140575
O O19 0.022978 0.750000 0.364463
#
# Coordination Sequence:
#
# PCOD8254170 Si02
#       8
#     8   8   8   8   8   8   8   8
#     4  11  25  47  71 100 142 184 232 291 353 413
#     4  12  23  42  69  97 135 177 224 276 340 406
#     4  12  26  43  67 102 132 180 228 281 343 409
#     4  11  26  47  71 102 141 186 234 288 346 415
#     4  10  21  39  64  94 129 169 214 270 333 399
#     4  10  21  39  63  92 131 170 216 275 333 398
#     4  12  26  44  71  99 138 183 235 283 347 422
#     4  10  22  39  66  95 126 171 219 273 338 406
#
# _framework density 21.285471999999999
#
# number of rings (size 3 to 8) (size 9 to 14) (size 15 to 20)
#    0.000    1.000    5.000    0.750    1.750    4.000 
#    0.000    1.250    0.000    0.000    0.000    0.000 
#    0.000    0.000    0.000    0.000    0.000    0.000 
#
# Total GULP energy -792954.796219 kJ/mol
# GULP energy per Si atom -12389.918691 kJ/mol
# Density = 2.123703 g / cm^3
# Si number density = 21.285472 Si / 1000 Ang^3
#
#
#
# Elastic Constant Matrix: (Units=GPa)
#
#
# Indices 1 2 3 4 5 6 
#
# 1 117.4673 35.9676 50.2320 0.0000 0.0000 0.0000
# 2 35.9676 52.3249 12.2752 0.0000 0.0000 0.0000
# 3 50.2320 12.2752 88.3715 0.0000 0.0000 0.0000
# 4 0.0000 0.0000 0.0000 17.1725 0.0000 0.0000
# 5 0.0000 0.0000 0.0000 0.0000 38.2537 0.0000
# 6 0.0000 0.0000 0.0000 0.0000 0.0000 25.7895
#
#
#
# Elastic Compliance Matrix: (Units=1/GPa)
#
#
# Indices 1 2 3 4 5 6 
#
# 1 0.013829 -0.007920 -0.006761 0.000000 0.000000 0.000000
# 2 -0.007920 0.024291 0.001128 0.000000 0.000000 0.000000
# 3 -0.006761 0.001128 0.015002 0.000000 0.000000 0.000000
# 4 0.000000 0.000000 0.000000 0.058233 0.000000 0.000000
# 5 0.000000 0.000000 0.000000 0.000000 0.026141 0.000000
# 6 0.000000 0.000000 0.000000 0.000000 0.000000 0.038775
#
#
# Mechanical properties :
#
#
# Convention : Reuss Voigt Hill
#
# Bulk Modulus (GPa) = 38.43724 50.56813 44.50269
# Shear Modulus (GPa) = 23.57944 26.88905 25.23425
#
# Velocity S-wave (km/s) = 3.33193 3.55809 3.44687
# Velocity P-wave (km/s) = 5.73581 6.37877 6.06581
#
# Compressibility (1/GPa) = 0.02601643
#
# Stress axis : x y z
#
# Youngs Moduli (GPa) = 72.31175 41.16772 66.65752
#
# Poissons Ratio (x) = 0.32604 0.45064
# Poissons Ratio (y) = 0.57270 -0.07517
# Poissons Ratio (z) = 0.48887 -0.04643
#
# Static dielectric constant tensor:
#      x y z
#    x 4.456900 0.000000 0.000000 
#    y 0.000000 3.498350 0.000000 
#    z 0.000000 0.000000 4.338540 
# 
# 
# High freq. dielectric constant tensor:
#      x y z
#    x 1.841230 0.000000 0.000000 
#    y 0.000000 1.850910 0.000000 
#    z 0.000000 0.000000 1.821410 
# 
# From -- ./inp_files/23226.got.cif
#   From: 2010.03.12/outbox.cif.g09.slc.cpg/sg62_12_cif.got.tgz:23226.got - 2010.04.10 19:12:36.
