data_PCOD8254414
_publ_section_title
;
Structure prediction by ZEFSAII (Michael W. Deem and Ramdas Pophale) SiO2 
 PCOD8254414
Probable space group: P N M A
;
_chemical_formula_sum "Si O2"
_cell_formula_units_Z 40
_cell_length_a 14.579325
_cell_length_b 14.486701
_cell_length_c 8.710790
_cell_angle_alpha 90.000000
_cell_angle_beta 90.000000
_cell_angle_gamma 90.000000
_cell_volume 1839.773918
_symmetry_space_group_name_H-M "P N M A"
_symmetry_group_IT_number 62
_symmetry_cell_setting 'orthorhombic'
loop_
_space_group_symop_operation_xyz
x,y,z
1/2-x,-y,1/2+z
1/2+x,1/2-y,1/2-z
-x,1/2+y,-z
-x,-y,-z
1/2+x,y,1/2-z
1/2-x,1/2+y,1/2+z
x,1/2-y,z
loop_
_atom_site_type_symbol
_atom_site_label
_atom_site_fract_x
_atom_site_fract_y
_atom_site_fract_z
Si Si1 0.432375 0.927342 0.569719
Si Si2 0.353153 0.750000 0.981425
Si Si3 0.206379 0.750000 0.726958
Si Si4 0.770222 0.402081 0.520726
Si Si5 0.414571 0.552161 0.928546
Si Si6 0.197330 0.750000 0.231198
Si Si7 0.549458 0.750000 0.524931
O O1 0.336624 0.927760 0.478273
O O2 0.417312 0.949810 0.746435
O O3 0.479795 0.831880 0.539968
O O4 0.500000 0.000000 0.500000
O O5 0.301304 0.750000 0.818883
O O6 0.414982 0.657695 0.990319
O O7 0.283594 0.750000 0.120666
O O8 0.203219 0.843094 0.628607
O O9 0.119492 0.750000 0.835473
O O10 0.823040 0.499250 0.517483
O O11 0.798270 0.343034 0.669472
O O12 0.500000 0.500000 0.000000
O O13 0.102293 0.750000 0.137242
#
# Coordination Sequence:
#
# PCOD8254414 Si02
#       7
#     8   4   4   8   8   4   4
#     4  12  27  44  72 103 144 191 239 297 364 444
#     4  11  25  44  72 101 142 183 241 289 363 415
#     4  10  21  45  75  97 139 191 234 302 349 435
#     4  11  25  47  70 105 146 188 241 297 367 429
#     4  12  28  46  74 108 145 192 247 300 364 435
#     4  10  25  43  73 105 137 189 233 305 354 432
#     4  11  23  46  72 101 140 185 244 288 370 422
#
# _framework density 21.741803000000001
#
# number of rings (size 3 to 8) (size 9 to 14) (size 15 to 20)
#    0.000    0.800    2.000    4.200   11.200    1.600 
#    3.600    0.000    0.000    0.000    0.000    0.000 
#    0.000    0.000    0.000    0.000    0.000    0.000 
#
# Total GULP energy -496192.946735 kJ/mol
# GULP energy per Si atom -12404.823668 kJ/mol
# Density = 2.169232 g / cm^3
# Si number density = 21.741803 Si / 1000 Ang^3
#
#
#
# Elastic Constant Matrix: (Units=GPa)
#
#
# Indices 1 2 3 4 5 6 
#
# 1 177.5658 87.8728 51.0188 0.0000 0.0000 0.0000
# 2 87.8728 194.1611 45.4934 0.0000 0.0000 0.0000
# 3 51.0188 45.4934 102.4895 0.0000 0.0000 0.0000
# 4 0.0000 0.0000 0.0000 26.2674 0.0000 0.0000
# 5 0.0000 0.0000 0.0000 0.0000 25.0808 0.0000
# 6 0.0000 0.0000 0.0000 0.0000 0.0000 45.8835
#
#
#
# Elastic Compliance Matrix: (Units=1/GPa)
#
#
# Indices 1 2 3 4 5 6 
#
# 1 0.007830 -0.002936 -0.002595 0.000000 0.000000 0.000000
# 2 -0.002936 0.006849 -0.001579 0.000000 0.000000 0.000000
# 3 -0.002595 -0.001579 0.011749 0.000000 0.000000 0.000000
# 4 0.000000 0.000000 0.000000 0.038070 0.000000 0.000000
# 5 0.000000 0.000000 0.000000 0.000000 0.039871 0.000000
# 6 0.000000 0.000000 0.000000 0.000000 0.000000 0.021794
#
#
# Mechanical properties :
#
#
# Convention : Reuss Voigt Hill
#
# Bulk Modulus (GPa) = 81.89857 93.66514 87.78186
# Shear Modulus (GPa) = 34.61354 38.76843 36.69099
#
# Velocity S-wave (km/s) = 3.99435 4.22729 4.11247
# Velocity P-wave (km/s) = 7.68268 8.18541 7.93802
#
# Compressibility (1/GPa) = 0.01221022
#
# Stress axis : x y z
#
# Youngs Moduli (GPa) = 127.71323 146.00832 85.11032
#
# Poissons Ratio (x) = 0.42864 0.22083
# Poissons Ratio (y) = 0.37493 0.13437
# Poissons Ratio (z) = 0.33137 0.23051
#
# Static dielectric constant tensor:
#      x y z
#    x 3.333730 0.000000 0.000000 
#    y 0.000000 4.208770 0.000000 
#    z 0.000000 0.000000 4.208380 
# 
# 
# High freq. dielectric constant tensor:
#      x y z
#    x 1.865670 0.000000 0.000000 
#    y 0.000000 1.874170 0.000000 
#    z 0.000000 0.000000 1.866040 
# 
# From -- ./inp_files/6155.got.cif
#   From: 2010.03.12/outbox.cif.g09.slc.cpg/sg62_4_cif.got.tgz:6155.got - 2010.04.10 19:12:36.
