data_PCOD8254137
_publ_section_title
;
Structure prediction by ZEFSAII (Michael W. Deem and Ramdas Pophale) SiO2 
 PCOD8254137
Probable space group: P N M A
;
_chemical_formula_sum "Si O2"
_cell_formula_units_Z 64
_cell_length_a 15.216488
_cell_length_b 9.131410
_cell_length_c 23.552591
_cell_angle_alpha 90.000000
_cell_angle_beta 90.000000
_cell_angle_gamma 90.000000
_cell_volume 3272.585195
_symmetry_space_group_name_H-M "P N M A"
_symmetry_group_IT_number 62
_symmetry_cell_setting 'orthorhombic'
loop_
_space_group_symop_operation_xyz
x,y,z
1/2-x,-y,1/2+z
1/2+x,1/2-y,1/2-z
-x,1/2+y,-z
-x,-y,-z
1/2+x,y,1/2-z
1/2-x,1/2+y,1/2+z
x,1/2-y,z
loop_
_atom_site_type_symbol
_atom_site_label
_atom_site_fract_x
_atom_site_fract_y
_atom_site_fract_z
Si Si1 0.357228 0.423940 0.766973
Si Si2 0.094692 0.583018 0.603249
Si Si3 0.977330 0.079976 0.214525
Si Si4 0.367817 0.077658 0.513710
Si Si5 0.329199 0.576699 0.999692
Si Si6 0.002022 0.580602 0.915552
Si Si7 0.305641 0.080127 0.215916
Si Si8 0.894856 0.580234 0.622107
O O1 0.357022 0.250000 0.768500
O O2 0.448387 0.479589 0.741424
O O3 0.277752 0.479453 0.727999
O O4 0.344611 0.486724 0.830345
O O5 0.103523 0.750000 0.583115
O O6 0.107751 0.483003 0.548555
O O7 0.165120 0.545085 0.651705
O O8 0.998696 0.555447 0.629329
O O9 0.000809 0.250000 0.226417
O O10 0.969664 0.044620 0.148101
O O11 0.883833 0.039128 0.241214
O O12 0.368238 0.250000 0.522472
O O13 0.269187 0.016957 0.509039
O O14 0.418351 0.031176 0.456296
O O15 0.413696 0.006558 0.568543
O O16 0.333089 0.750000 0.002241
O O17 0.363842 0.521416 0.939006
O O18 0.980127 0.750000 0.923897
O O19 0.279357 0.250000 0.222653
O O20 0.869097 0.750000 0.630243
#
# Coordination Sequence:
#
# PCOD8254137 Si02
#       8
#     8   8   8   8   8   8   8   8
#     4  12  26  40  60  92 127 159 195 252 310 360
#     4  10  21  39  62  87 116 152 199 246 293 353
#     4  10  21  41  67  90 115 156 207 250 294 360
#     4   9  19  36  54  83 118 150 187 234 291 345
#     4  10  22  36  60  89 117 152 193 244 299 352
#     4   9  19  35  59  84 110 149 194 236 284 341
#     4  10  22  41  65  89 118 161 205 248 295 360
#     4  10  21  42  65  85 114 157 203 244 293 358
#
# _framework density 19.556405999999999
#
# number of rings (size 3 to 8) (size 9 to 14) (size 15 to 20)
#    0.000    2.000    1.250    1.500    3.500    3.000 
#    0.000    0.000    0.000    0.000    0.000    0.000 
#    0.000    0.000    0.000    0.000    0.000    0.000 
#
# Total GULP energy -793894.903050 kJ/mol
# GULP energy per Si atom -12404.607860 kJ/mol
# Density = 1.951189 g / cm^3
# Si number density = 19.556406 Si / 1000 Ang^3
#
#
#
# Elastic Constant Matrix: (Units=GPa)
#
#
# Indices 1 2 3 4 5 6 
#
# 1 55.3108 26.0774 6.6487 0.0000 0.0000 0.0000
# 2 26.0774 59.2286 25.7708 0.0000 0.0000 0.0000
# 3 6.6487 25.7708 78.2001 0.0000 0.0000 0.0000
# 4 0.0000 0.0000 0.0000 31.6333 0.0000 0.0000
# 5 0.0000 0.0000 0.0000 0.0000 27.9034 0.0000
# 6 0.0000 0.0000 0.0000 0.0000 0.0000 22.5287
#
#
#
# Elastic Compliance Matrix: (Units=1/GPa)
#
#
# Indices 1 2 3 4 5 6 
#
# 1 0.022989 -0.010823 0.001612 0.000000 0.000000 0.000000
# 2 -0.010823 0.024805 -0.007254 0.000000 0.000000 0.000000
# 3 0.001612 -0.007254 0.015041 0.000000 0.000000 0.000000
# 4 0.000000 0.000000 0.000000 0.031612 0.000000 0.000000
# 5 0.000000 0.000000 0.000000 0.000000 0.035838 0.000000
# 6 0.000000 0.000000 0.000000 0.000000 0.000000 0.044388
#
#
# Mechanical properties :
#
#
# Convention : Reuss Voigt Hill
#
# Bulk Modulus (GPa) = 33.43938 34.41481 33.92710
# Shear Modulus (GPa) = 22.98089 25.36257 24.17173
#
# Velocity S-wave (km/s) = 3.43170 3.60515 3.51949
# Velocity P-wave (km/s) = 5.73046 5.91315 5.82252
#
# Compressibility (1/GPa) = 0.02990486
#
# Stress axis : x y z
#
# Youngs Moduli (GPa) = 43.49985 40.31384 66.48354
#
# Poissons Ratio (x) = 0.43632 -0.10718
# Poissons Ratio (y) = 0.47080 0.48230
# Poissons Ratio (z) = -0.07013 0.29245
#
# Static dielectric constant tensor:
#      x y z
#    x 3.625320 0.000000 0.000000 
#    y 0.000000 3.378530 0.000000 
#    z 0.000000 0.000000 3.682370 
# 
# 
# High freq. dielectric constant tensor:
#      x y z
#    x 1.766560 0.000000 0.000000 
#    y 0.000000 1.743330 0.000000 
#    z 0.000000 0.000000 1.774950 
# 
# From -- ./inp_files/29907.got.cif
#   From: 2010.03.12/outbox.cif.g09.slc.cpg/sg62_15_cif.got.tgz:29907.got - 2010.04.10 19:12:36.
