data_PCOD8254538
_publ_section_title
;
Structure prediction by ZEFSAII (Michael W. Deem and Ramdas Pophale) SiO2 
 PCOD8254538
Probable space group: P N M A
;
_chemical_formula_sum "Si O2"
_cell_formula_units_Z 32
_cell_length_a 9.947847
_cell_length_b 17.515994
_cell_length_c 8.961701
_cell_angle_alpha 90.000000
_cell_angle_beta 90.000000
_cell_angle_gamma 90.000000
_cell_volume 1561.544391
_symmetry_space_group_name_H-M "P N M A"
_symmetry_group_IT_number 62
_symmetry_cell_setting 'orthorhombic'
loop_
_space_group_symop_operation_xyz
x,y,z
1/2-x,-y,1/2+z
1/2+x,1/2-y,1/2-z
-x,1/2+y,-z
-x,-y,-z
1/2+x,y,1/2-z
1/2-x,1/2+y,1/2+z
x,1/2-y,z
loop_
_atom_site_type_symbol
_atom_site_label
_atom_site_fract_x
_atom_site_fract_y
_atom_site_fract_z
Si Si1 0.970068 0.163096 0.856083
Si Si2 0.982060 0.837424 0.803340
Si Si3 0.737208 0.078294 0.688473
Si Si4 0.288157 0.077074 0.154027
O O1 0.944478 0.250000 0.806137
O O2 0.119974 0.140973 0.805758
O O3 0.863497 0.107932 0.780622
O O4 0.954448 0.152869 0.032999
O O5 0.943692 0.750000 0.770910
O O6 0.849069 0.887371 0.784070
O O7 0.090236 0.864647 0.682575
O O8 0.782334 0.060974 0.520922
O O9 0.681301 0.000982 0.760069
#
# Coordination Sequence:
#
# PCOD8254538 Si02
#       4
#     8   8   8   8
#     4  10  22  40  60  84 116 152 191 238 290 343
#     4  10  22  40  60  84 116 152 191 238 290 343
#     4  11  23  39  60  87 118 153 194 238 286 342
#     4  11  23  39  60  87 118 153 194 238 286 342
#
# _framework density 20.492533000000002
#
# number of rings (size 3 to 8) (size 9 to 14) (size 15 to 20)
#    0.000    1.500    0.000    4.500    0.000   13.000 
#    0.000    0.000    0.000    0.000    0.000    0.000 
#    0.000    0.000    0.000    0.000    0.000    0.000 
#
# Total GULP energy -397060.371018 kJ/mol
# GULP energy per Si atom -12408.136594 kJ/mol
# Density = 2.044589 g / cm^3
# Si number density = 20.492533 Si / 1000 Ang^3
#
#
#
# Elastic Constant Matrix: (Units=GPa)
#
#
# Indices 1 2 3 4 5 6 
#
# 1 42.0993 5.1277 -6.8421 0.0000 0.0000 0.0000
# 2 5.1277 96.0259 27.8855 0.0000 0.0000 0.0000
# 3 -6.8421 27.8855 13.9654 0.0000 0.0000 0.0000
# 4 0.0000 0.0000 0.0000 31.9520 0.0000 0.0000
# 5 0.0000 0.0000 0.0000 0.0000 33.2985 0.0000
# 6 0.0000 0.0000 0.0000 0.0000 0.0000 32.7142
#
#
#
# Elastic Compliance Matrix: (Units=1/GPa)
#
#
# Indices 1 2 3 4 5 6 
#
# 1 0.033337 -0.015526 0.047335 0.000000 0.000000 0.000000
# 2 -0.015526 0.032017 -0.071536 0.000000 0.000000 0.000000
# 3 0.047335 -0.071536 0.237637 0.000000 0.000000 0.000000
# 4 0.000000 0.000000 0.000000 0.031297 0.000000 0.000000
# 5 0.000000 0.000000 0.000000 0.000000 0.030031 0.000000
# 6 0.000000 0.000000 0.000000 0.000000 0.000000 0.030568
#
#
# Mechanical properties :
#
#
# Convention : Reuss Voigt Hill
#
# Bulk Modulus (GPa) = 4.47355 22.71475 13.59415
# Shear Modulus (GPa) = 9.10987 27.98756 18.54871
#
# Velocity S-wave (km/s) = 2.11071 3.69961 3.01183
# Velocity P-wave (km/s) = 2.85095 5.41830 4.32931
#
# Compressibility (1/GPa) = 0.22353620
#
# Stress axis : x y z
#
# Youngs Moduli (GPa) = 29.99629 31.23364 4.20809
#
# Poissons Ratio (x) = 0.48493 -0.19919
# Poissons Ratio (y) = 0.46572 0.30103
# Poissons Ratio (z) = -1.41987 2.23434
#
# Static dielectric constant tensor:
#      x y z
#    x 3.628380 0.000000 0.000000 
#    y 0.000000 3.795100 0.000000 
#    z 0.000000 0.000000 3.688600 
# 
# 
# High freq. dielectric constant tensor:
#      x y z
#    x 1.808390 0.000000 0.000000 
#    y 0.000000 1.815940 0.000000 
#    z 0.000000 0.000000 1.801040 
# 
# From -- ./inp_files/4124.got.cif
#   From: 2010.03.12/outbox.cif.g09.slc.cpg/sg62_3_cif.got.tgz:4124.got - 2010.04.10 19:12:36.
