data_PCOD8254100
_publ_section_title
;
Structure prediction by ZEFSAII (Michael W. Deem and Ramdas Pophale) SiO2 
 PCOD8254100
Probable space group: P N M A
;
_chemical_formula_sum "Si O2"
_cell_formula_units_Z 64
_cell_length_a 21.362928
_cell_length_b 13.729176
_cell_length_c 11.081954
_cell_angle_alpha 90.000000
_cell_angle_beta 90.000000
_cell_angle_gamma 90.000000
_cell_volume 3250.286113
_symmetry_space_group_name_H-M "P N M A"
_symmetry_group_IT_number 62
_symmetry_cell_setting 'orthorhombic'
loop_
_space_group_symop_operation_xyz
x,y,z
1/2-x,-y,1/2+z
1/2+x,1/2-y,1/2-z
-x,1/2+y,-z
-x,-y,-z
1/2+x,y,1/2-z
1/2-x,1/2+y,1/2+z
x,1/2-y,z
loop_
_atom_site_type_symbol
_atom_site_label
_atom_site_fract_x
_atom_site_fract_y
_atom_site_fract_z
Si Si1 0.266504 0.641251 0.845221
Si Si2 0.875991 0.139121 0.560431
Si Si3 0.451973 0.437402 0.579385
Si Si4 0.719614 0.138003 0.886691
Si Si5 0.386022 0.500053 0.159834
Si Si6 0.330979 0.027836 0.712934
Si Si7 0.878671 0.358946 0.135277
Si Si8 0.507199 0.357858 0.818373
O O1 0.273198 0.750000 0.793313
O O2 0.297155 0.573062 0.744740
O O3 0.194501 0.616022 0.871996
O O4 0.301908 0.632335 0.973481
O O5 0.853246 0.250000 0.537135
O O6 0.864428 0.075358 0.441981
O O7 0.836119 0.092685 0.667321
O O8 0.948293 0.137282 0.594521
O O9 0.500000 0.500000 0.500000
O O10 0.397844 0.498443 0.650791
O O11 0.413917 0.364677 0.492581
O O12 0.490795 0.377752 0.678468
O O13 0.720105 0.250000 0.841562
O O14 0.788695 0.092155 0.876219
O O15 0.671099 0.073376 0.808900
O O16 0.408318 0.438408 0.275402
O O17 0.445004 0.565602 0.123587
O O18 0.888905 0.250000 0.185706
O O19 0.537046 0.250000 0.823099
#
# Coordination Sequence:
#
# PCOD8254100 Si02
#       8
#     8   8   8   8   8   8   8   8
#     4  10  21  39  60  88 122 157 198 248 305 364
#     4  10  22  38  58  86 116 154 203 246 293 355
#     4  11  22  40  63  87 121 163 209 254 302 366
#     4  11  22  36  60  90 119 157 201 245 303 371
#     4  12  21  37  60  85 124 152 191 249 310 358
#     4  11  21  39  65  88 122 161 200 255 306 358
#     4  11  22  37  62  88 116 158 202 245 303 369
#     4  10  22  39  60  83 114 156 201 251 300 354
#
# _framework density 19.690573000000001
#
# number of rings (size 3 to 8) (size 9 to 14) (size 15 to 20)
#    0.000    1.250    5.000    1.875    0.000    1.000 
#    0.000    1.250    0.000    0.000    0.000    0.000 
#    0.000    0.000    0.000    0.000    0.000    0.000 
#
# Total GULP energy -793513.412072 kJ/mol
# GULP energy per Si atom -12398.647064 kJ/mol
# Density = 1.964576 g / cm^3
# Si number density = 19.690573 Si / 1000 Ang^3
#
#
#
# Elastic Constant Matrix: (Units=GPa)
#
#
# Indices 1 2 3 4 5 6 
#
# 1 69.3655 44.5923 12.3061 0.0000 0.0000 0.0000
# 2 44.5923 135.7441 36.9548 0.0000 0.0000 0.0000
# 3 12.3061 36.9548 65.1336 0.0000 0.0000 0.0000
# 4 0.0000 0.0000 0.0000 27.4062 0.0000 0.0000
# 5 0.0000 0.0000 0.0000 0.0000 30.6905 0.0000
# 6 0.0000 0.0000 0.0000 0.0000 0.0000 29.7257
#
#
#
# Elastic Compliance Matrix: (Units=1/GPa)
#
#
# Indices 1 2 3 4 5 6 
#
# 1 0.018276 -0.005989 -0.000055 0.000000 0.000000 0.000000
# 2 -0.005989 0.010675 -0.004925 0.000000 0.000000 0.000000
# 3 -0.000055 -0.004925 0.018158 0.000000 0.000000 0.000000
# 4 0.000000 0.000000 0.000000 0.036488 0.000000 0.000000
# 5 0.000000 0.000000 0.000000 0.000000 0.032583 0.000000
# 6 0.000000 0.000000 0.000000 0.000000 0.000000 0.033641
#
#
# Mechanical properties :
#
#
# Convention : Reuss Voigt Hill
#
# Bulk Modulus (GPa) = 39.72863 50.88330 45.30596
# Shear Modulus (GPa) = 27.75471 29.32382 28.53927
#
# Velocity S-wave (km/s) = 3.75846 3.86324 3.81121
# Velocity P-wave (km/s) = 6.24940 6.76735 6.51353
#
# Compressibility (1/GPa) = 0.02517076
#
# Stress axis : x y z
#
# Youngs Moduli (GPa) = 54.71634 93.67742 55.07254
#
# Poissons Ratio (x) = 0.56101 0.00304
# Poissons Ratio (y) = 0.32768 0.27124
# Poissons Ratio (z) = 0.00302 0.46138
#
# Static dielectric constant tensor:
#      x y z
#    x 3.490750 0.000000 0.000000 
#    y 0.000000 3.649700 0.000000 
#    z 0.000000 0.000000 3.519350 
# 
# 
# High freq. dielectric constant tensor:
#      x y z
#    x 1.762760 0.000000 0.000000 
#    y 0.000000 1.772380 0.000000 
#    z 0.000000 0.000000 1.760960 
# 
# From -- ./inp_files/14337.got.cif
#   From: 2010.03.12/outbox.cif.g09.slc.cpg/sg62_8_cif.got.tgz:14337.got - 2010.04.10 19:12:36.
