data_PCOD8254635
_publ_section_title
;
Structure prediction by ZEFSAII (Michael W. Deem and Ramdas Pophale) SiO2 
 PCOD8254635
Probable space group: P N M A
;
_chemical_formula_sum "Si O2"
_cell_formula_units_Z 56
_cell_length_a 31.295090
_cell_length_b 14.906581
_cell_length_c 5.585659
_cell_angle_alpha 90.000000
_cell_angle_beta 90.000000
_cell_angle_gamma 90.000000
_cell_volume 2605.725530
_symmetry_space_group_name_H-M "P N M A"
_symmetry_group_IT_number 62
_symmetry_cell_setting 'orthorhombic'
loop_
_space_group_symop_operation_xyz
x,y,z
1/2-x,-y,1/2+z
1/2+x,1/2-y,1/2-z
-x,1/2+y,-z
-x,-y,-z
1/2+x,y,1/2-z
1/2-x,1/2+y,1/2+z
x,1/2-y,z
loop_
_atom_site_type_symbol
_atom_site_label
_atom_site_fract_x
_atom_site_fract_y
_atom_site_fract_z
Si Si1 0.043258 0.650322 0.514541
Si Si2 0.339510 0.594264 0.382105
Si Si3 0.796666 0.009599 0.741654
Si Si4 0.386690 0.002980 0.005532
Si Si5 0.734432 0.352839 0.920728
Si Si6 0.911850 0.652657 0.816476
Si Si7 0.002732 0.395022 0.986971
O O1 0.061170 0.750000 0.502470
O O2 0.085165 0.590434 0.527171
O O3 0.017114 0.641128 0.762711
O O4 0.017361 0.634628 0.266745
O O5 0.307067 0.521132 0.490160
O O6 0.311934 0.655890 0.204680
O O7 0.363789 0.655486 0.574608
O O8 0.377767 0.537878 0.263896
O O9 0.770144 0.924905 0.634700
O O10 0.841037 0.028106 0.607602
O O11 0.770214 0.103160 0.745074
O O12 0.414716 0.928902 0.867550
O O13 0.747198 0.250000 0.998031
O O14 0.918028 0.750000 0.690859
O O15 0.948413 0.639110 0.017089
O O16 0.000000 0.500000 0.000000
#
# Coordination Sequence:
#
# PCOD8254635 Si02
#       7
#     8   8   8   8   8   8   8
#     4  12  26  46  70 103 142 187 237 287 342 412
#     4  10  22  41  64  92 131 168 212 276 339 398
#     4  10  22  42  62  95 130 162 223 274 327 411
#     4  10  24  41  65  93 131 177 219 275 341 393
#     4  11  22  40  68  94 125 170 213 271 343 408
#     4  11  23  39  63  98 132 168 222 276 334 405
#     4  12  25  46  71 100 137 187 233 287 348 407
#
# _framework density 21.491133999999999
#
# number of rings (size 3 to 8) (size 9 to 14) (size 15 to 20)
#    0.000    1.143    2.857    3.000    4.000    6.857 
#    0.000    0.714    0.000    0.000    0.000    0.000 
#    0.000    0.000    0.000    0.000    0.000    0.000 
#
# Total GULP energy -693823.943313 kJ/mol
# GULP energy per Si atom -12389.713273 kJ/mol
# Density = 2.144222 g / cm^3
# Si number density = 21.491134 Si / 1000 Ang^3
#
#
#
# Elastic Constant Matrix: (Units=GPa)
#
#
# Indices 1 2 3 4 5 6 
#
# 1 95.8363 46.2541 19.8956 0.0000 0.0000 0.0000
# 2 46.2541 162.2582 18.4482 0.0000 0.0000 0.0000
# 3 19.8956 18.4482 94.2940 0.0000 0.0000 0.0000
# 4 0.0000 0.0000 0.0000 17.0585 0.0000 0.0000
# 5 0.0000 0.0000 0.0000 0.0000 32.0931 0.0000
# 6 0.0000 0.0000 0.0000 0.0000 0.0000 20.4513
#
#
#
# Elastic Compliance Matrix: (Units=1/GPa)
#
#
# Indices 1 2 3 4 5 6 
#
# 1 0.012449 -0.003324 -0.001976 0.000000 0.000000 0.000000
# 2 -0.003324 0.007191 -0.000705 0.000000 0.000000 0.000000
# 3 -0.001976 -0.000705 0.011160 0.000000 0.000000 0.000000
# 4 0.000000 0.000000 0.000000 0.058622 0.000000 0.000000
# 5 0.000000 0.000000 0.000000 0.000000 0.031159 0.000000
# 6 0.000000 0.000000 0.000000 0.000000 0.000000 0.048897
#
#
# Mechanical properties :
#
#
# Convention : Reuss Voigt Hill
#
# Bulk Modulus (GPa) = 53.22491 57.95379 55.58935
# Shear Modulus (GPa) = 26.63084 31.77329 29.20207
#
# Velocity S-wave (km/s) = 3.52398 3.84922 3.69018
# Velocity P-wave (km/s) = 6.43255 6.83961 6.63920
#
# Compressibility (1/GPa) = 0.01878820
#
# Stress axis : x y z
#
# Youngs Moduli (GPa) = 80.32729 139.06639 89.60447
#
# Poissons Ratio (x) = 0.46227 0.17709
# Poissons Ratio (y) = 0.26701 0.06321
# Poissons Ratio (z) = 0.15875 0.09811
#
# Static dielectric constant tensor:
#      x y z
#    x 3.994370 0.000000 0.000000 
#    y 0.000000 3.886930 0.000000 
#    z 0.000000 0.000000 0.229630 
# 
# 
# High freq. dielectric constant tensor:
#      x y z
#    x 1.851820 0.000000 0.000000 
#    y 0.000000 1.841450 0.000000 
#    z 0.000000 0.000000 1.842320 
# 
# From -- ./inp_files/3583.got.cif
#   From: 2010.03.12/outbox.cif.g09.slc.cpg/sg62_2_cif.got.tgz:3583.got - 2010.04.10 19:12:36.
