data_PCOD8254710
_publ_section_title
;
Structure prediction by ZEFSAII (Michael W. Deem and Ramdas Pophale) SiO2 
 PCOD8254710
Probable space group: P N M A
;
_chemical_formula_sum "Si O2"
_cell_formula_units_Z 56
_cell_length_a 9.426184
_cell_length_b 14.120927
_cell_length_c 20.071235
_cell_angle_alpha 90.000000
_cell_angle_beta 90.000000
_cell_angle_gamma 90.000000
_cell_volume 2671.610961
_symmetry_space_group_name_H-M "P N M A"
_symmetry_group_IT_number 62
_symmetry_cell_setting 'orthorhombic'
loop_
_space_group_symop_operation_xyz
x,y,z
1/2-x,-y,1/2+z
1/2+x,1/2-y,1/2-z
-x,1/2+y,-z
-x,-y,-z
1/2+x,y,1/2-z
1/2-x,1/2+y,1/2+z
x,1/2-y,z
loop_
_atom_site_type_symbol
_atom_site_label
_atom_site_fract_x
_atom_site_fract_y
_atom_site_fract_z
Si Si1 0.266732 0.641372 0.120256
Si Si2 0.225576 0.352178 0.040185
Si Si3 0.320965 0.638040 0.908927
Si Si4 0.995195 0.360948 0.527481
Si Si5 0.972195 0.636798 0.723920
Si Si6 0.431754 0.398214 0.495050
Si Si7 0.762977 0.549161 0.822322
O O1 0.264854 0.750000 0.147682
O O2 0.424112 0.607526 0.094888
O O3 0.230547 0.566507 0.179268
O O4 0.156815 0.635293 0.058800
O O5 0.284333 0.250000 0.066128
O O6 0.235593 0.426698 0.099441
O O7 0.327688 0.386535 0.978509
O O8 0.068279 0.331781 0.013447
O O9 0.324511 0.750000 0.911771
O O10 0.367657 0.604821 0.835729
O O11 0.431281 0.592924 0.961982
O O12 0.163168 0.604064 0.928013
O O13 0.023819 0.250000 0.524937
O O14 0.987537 0.750000 0.730686
O O15 0.904565 0.592977 0.790432
O O16 0.127060 0.591964 0.714811
O O17 0.500000 0.500000 0.500000
#
# Coordination Sequence:
#
# PCOD8254710 Si02
#       7
#     8   8   8   8   8   8   8
#     4  10  22  43  63  86 124 166 206 252 304 366
#     4  11  20  34  56  89 125 154 194 246 304 368
#     4   9  18  35  57  80 117 163 195 234 301 366
#     4   8  16  33  59  86 115 156 196 237 300 365
#     4  11  24  42  61  88 123 157 201 258 313 369
#     4  11  21  34  56  93 126 158 197 244 307 371
#     4  12  25  40  62  89 120 163 210 248 306 368
#
# _framework density 20.961134999999999
#
# number of rings (size 3 to 8) (size 9 to 14) (size 15 to 20)
#    0.000    1.714    2.857    3.429    2.000    1.714 
#    0.000    0.714    0.000    0.000    0.000    0.000 
#    0.000    0.000    0.000    0.000    0.000    0.000 
#
# Total GULP energy -693903.433240 kJ/mol
# GULP energy per Si atom -12391.132736 kJ/mol
# Density = 2.091343 g / cm^3
# Si number density = 20.961135 Si / 1000 Ang^3
#
#
#
# Elastic Constant Matrix: (Units=GPa)
#
#
# Indices 1 2 3 4 5 6 
#
# 1 134.0855 17.8234 22.5665 0.0000 0.0000 0.0000
# 2 17.8234 106.9597 25.8736 0.0000 0.0000 0.0000
# 3 22.5665 25.8736 39.5333 0.0000 0.0000 0.0000
# 4 0.0000 0.0000 0.0000 29.1112 0.0000 0.0000
# 5 0.0000 0.0000 0.0000 0.0000 31.3711 0.0000
# 6 0.0000 0.0000 0.0000 0.0000 0.0000 26.6260
#
#
#
# Elastic Compliance Matrix: (Units=1/GPa)
#
#
# Indices 1 2 3 4 5 6 
#
# 1 0.008258 -0.000280 -0.004530 0.000000 0.000000 0.000000
# 2 -0.000280 0.011117 -0.007116 0.000000 0.000000 0.000000
# 3 -0.004530 -0.007116 0.032538 0.000000 0.000000 0.000000
# 4 0.000000 0.000000 0.000000 0.034351 0.000000 0.000000
# 5 0.000000 0.000000 0.000000 0.000000 0.031876 0.000000
# 6 0.000000 0.000000 0.000000 0.000000 0.000000 0.037557
#
#
# Mechanical properties :
#
#
# Convention : Reuss Voigt Hill
#
# Bulk Modulus (GPa) = 35.63754 45.90061 40.76908
# Shear Modulus (GPa) = 26.46835 31.70932 29.08884
#
# Velocity S-wave (km/s) = 3.55735 3.89365 3.72929
# Velocity P-wave (km/s) = 5.82337 6.49304 6.16730
#
# Compressibility (1/GPa) = 0.02806030
#
# Stress axis : x y z
#
# Youngs Moduli (GPa) = 121.10033 89.94915 30.73288
#
# Poissons Ratio (x) = 0.02520 0.13923
# Poissons Ratio (y) = 0.03393 0.21870
# Poissons Ratio (z) = 0.54862 0.64009
#
# Static dielectric constant tensor:
#      x y z
#    x 3.671120 0.000000 0.000000 
#    y 0.000000 3.687000 0.000000 
#    z 0.000000 0.000000 3.456970 
# 
# 
# High freq. dielectric constant tensor:
#      x y z
#    x 1.835690 0.000000 0.000000 
#    y 0.000000 1.828000 0.000000 
#    z 0.000000 0.000000 1.772210 
# 
# From -- ./inp_files/26026.got.cif
#   From: 2010.03.12/outbox.cif.g09.slc.cpg/sg62_14_cif.got.tgz:26026.got - 2010.04.10 19:12:36.
