data_PCOD8254225
_publ_section_title
;
Structure prediction by ZEFSAII (Michael W. Deem and Ramdas Pophale) SiO2 
 PCOD8254225
Probable space group: P N M A
;
_chemical_formula_sum "Si O2"
_cell_formula_units_Z 48
_cell_length_a 20.686100
_cell_length_b 10.786747
_cell_length_c 10.761636
_cell_angle_alpha 90.000000
_cell_angle_beta 90.000000
_cell_angle_gamma 90.000000
_cell_volume 2401.305474
_symmetry_space_group_name_H-M "P N M A"
_symmetry_group_IT_number 62
_symmetry_cell_setting 'orthorhombic'
loop_
_space_group_symop_operation_xyz
x,y,z
1/2-x,-y,1/2+z
1/2+x,1/2-y,1/2-z
-x,1/2+y,-z
-x,-y,-z
1/2+x,y,1/2-z
1/2-x,1/2+y,1/2+z
x,1/2-y,z
loop_
_atom_site_type_symbol
_atom_site_label
_atom_site_fract_x
_atom_site_fract_y
_atom_site_fract_z
Si Si1 0.007363 0.615837 0.591023
Si Si2 0.149319 0.611508 0.584587
Si Si3 0.557598 0.038001 0.326694
Si Si4 0.691883 0.104592 0.753257
Si Si5 0.932219 0.612725 0.100515
Si Si6 0.836537 0.110763 0.697788
O O1 0.998245 0.750000 0.521494
O O2 0.956840 0.619202 0.704854
O O3 0.000000 0.500000 0.500000
O O4 0.079189 0.609726 0.649459
O O5 0.181626 0.750000 0.605409
O O6 0.190056 0.494294 0.633574
O O7 0.135556 0.588957 0.439198
O O8 0.571314 0.114554 0.451006
O O9 0.493697 0.957307 0.346633
O O10 0.623472 0.964454 0.299999
O O11 0.685554 0.250000 0.796320
O O12 0.636240 0.065399 0.655402
O O13 0.760716 0.078290 0.690706
O O14 0.942572 0.750000 0.149394
O O15 0.845795 0.250000 0.742713
#
# Coordination Sequence:
#
# PCOD8254225 Si02
#       6
#     8   8   8   8   8   8
#     4  11  22  37  60  89 120 153 195 249 300 357
#     4  10  21  40  62  87 118 156 197 244 302 353
#     4  11  21  38  59  88 119 154 201 244 299 356
#     4  10  22  41  61  87 120 158 202 244 294 358
#     4  10  22  38  59  84 117 159 199 244 295 352
#     4  10  22  39  61  86 119 158 199 246 300 359
#
# _framework density 19.989125999999999
#
# number of rings (size 3 to 8) (size 9 to 14) (size 15 to 20)
#    0.000    1.667    3.333    1.000    2.333    1.333 
#    0.000    2.500    0.000    0.000    0.000    0.000 
#    0.000    0.000    0.000    0.000    0.000    0.000 
#
# Total GULP energy -594715.793422 kJ/mol
# GULP energy per Si atom -12389.912363 kJ/mol
# Density = 1.994363 g / cm^3
# Si number density = 19.989126 Si / 1000 Ang^3
#
#
#
# Elastic Constant Matrix: (Units=GPa)
#
#
# Indices 1 2 3 4 5 6 
#
# 1 110.5483 36.7823 20.5819 0.0000 0.0000 0.0000
# 2 36.7823 114.5961 38.2417 0.0000 0.0000 0.0000
# 3 20.5819 38.2417 63.3426 0.0000 0.0000 0.0000
# 4 0.0000 0.0000 0.0000 25.9037 0.0000 0.0000
# 5 0.0000 0.0000 0.0000 0.0000 25.3299 0.0000
# 6 0.0000 0.0000 0.0000 0.0000 0.0000 28.0493
#
#
#
# Elastic Compliance Matrix: (Units=1/GPa)
#
#
# Indices 1 2 3 4 5 6 
#
# 1 0.010269 -0.002733 -0.001687 0.000000 0.000000 0.000000
# 2 -0.002733 0.011655 -0.006149 0.000000 0.000000 0.000000
# 3 -0.001687 -0.006149 0.020047 0.000000 0.000000 0.000000
# 4 0.000000 0.000000 0.000000 0.038604 0.000000 0.000000
# 5 0.000000 0.000000 0.000000 0.000000 0.039479 0.000000
# 6 0.000000 0.000000 0.000000 0.000000 0.000000 0.035651
#
#
# Mechanical properties :
#
#
# Convention : Reuss Voigt Hill
#
# Bulk Modulus (GPa) = 47.99627 53.29987 50.64807
# Shear Modulus (GPa) = 27.20510 28.71533 27.96022
#
# Velocity S-wave (km/s) = 3.69317 3.79429 3.74407
# Velocity P-wave (km/s) = 6.49995 6.77627 6.63955
#
# Compressibility (1/GPa) = 0.02083495
#
# Stress axis : x y z
#
# Youngs Moduli (GPa) = 97.37782 85.79674 49.88216
#
# Poissons Ratio (x) = 0.23451 0.08413
# Poissons Ratio (y) = 0.26617 0.30670
# Poissons Ratio (z) = 0.16424 0.52753
#
# Static dielectric constant tensor:
#      x y z
#    x 3.663910 0.000000 0.000000 
#    y 0.000000 3.699860 0.000000 
#    z 0.000000 0.000000 3.441100 
# 
# 
# High freq. dielectric constant tensor:
#      x y z
#    x 1.783150 0.000000 0.000000 
#    y 0.000000 1.783480 0.000000 
#    z 0.000000 0.000000 1.763890 
# 
# From -- ./inp_files/14136.got.cif
#   From: 2010.03.12/outbox.cif.g09.slc.cpg/sg62_8_cif.got.tgz:14136.got - 2010.04.10 19:12:36.
