data_PCOD8254153
_publ_section_title
;
Structure prediction by ZEFSAII (Michael W. Deem and Ramdas Pophale) SiO2 
 PCOD8254153
Probable space group: P N M A
;
_chemical_formula_sum "Si O2"
_cell_formula_units_Z 48
_cell_length_a 28.502340
_cell_length_b 8.951726
_cell_length_c 9.177001
_cell_angle_alpha 90.000000
_cell_angle_beta 90.000000
_cell_angle_gamma 90.000000
_cell_volume 2341.467187
_symmetry_space_group_name_H-M "P N M A"
_symmetry_group_IT_number 62
_symmetry_cell_setting 'orthorhombic'
loop_
_space_group_symop_operation_xyz
x,y,z
1/2-x,-y,1/2+z
1/2+x,1/2-y,1/2-z
-x,1/2+y,-z
-x,-y,-z
1/2+x,y,1/2-z
1/2-x,1/2+y,1/2+z
x,1/2-y,z
loop_
_atom_site_type_symbol
_atom_site_label
_atom_site_fract_x
_atom_site_fract_y
_atom_site_fract_z
Si Si1 0.021083 0.918096 0.135772
Si Si2 0.961519 0.915854 0.410413
Si Si3 0.116527 0.077347 0.187875
Si Si4 0.860183 0.577150 0.484152
Si Si5 0.720508 0.926129 0.806758
Si Si6 0.303465 0.073165 0.523805
O O1 0.037036 0.750000 0.096740
O O2 0.977234 0.914971 0.244414
O O3 0.065156 0.005656 0.202164
O O4 0.000000 0.000000 0.000000
O O5 0.958065 0.750000 0.477298
O O6 0.909915 0.986559 0.425685
O O7 0.000000 0.000000 0.500000
O O8 0.111005 0.250000 0.144782
O O9 0.142938 0.059046 0.341840
O O10 0.145697 0.994995 0.061297
O O11 0.851884 0.750000 0.439163
O O12 0.821641 0.473627 0.411166
O O13 0.728520 0.750000 0.819103
O O14 0.710222 0.973752 0.640315
O O15 0.767053 0.008508 0.859708
O O16 0.305448 0.250000 0.540287
#
# Coordination Sequence:
#
# PCOD8254153 Si02
#       6
#     8   8   8   8   8   8
#     4  11  24  40  61  91 127 168 211 257 310 366
#     4  10  21  39  62  90 123 164 210 254 305 360
#     4  11  23  41  65  92 124 164 207 256 310 365
#     4  10  22  40  63  92 125 162 205 255 306 364
#     4  11  25  43  65  95 124 160 203 250 307 367
#     4  11  25  44  65  93 127 160 202 254 306 368
#
# _framework density 20.499967999999999
#
# number of rings (size 3 to 8) (size 9 to 14) (size 15 to 20)
#    0.000    1.333    1.667    3.000    2.333    9.333 
#    0.000    0.000    0.000    0.000    0.000    0.000 
#    0.000    0.000    0.000    0.000    0.000    0.000 
#
# Total GULP energy -595381.816071 kJ/mol
# GULP energy per Si atom -12403.787835 kJ/mol
# Density = 2.045331 g / cm^3
# Si number density = 20.499968 Si / 1000 Ang^3
#
#
#
# Elastic Constant Matrix: (Units=GPa)
#
#
# Indices 1 2 3 4 5 6 
#
# 1 80.6382 24.2964 13.6418 0.0000 0.0000 0.0000
# 2 24.2964 97.6195 41.7871 0.0000 0.0000 0.0000
# 3 13.6418 41.7871 89.5976 0.0000 0.0000 0.0000
# 4 0.0000 0.0000 0.0000 32.1423 0.0000 0.0000
# 5 0.0000 0.0000 0.0000 0.0000 41.0694 0.0000
# 6 0.0000 0.0000 0.0000 0.0000 0.0000 39.1764
#
#
#
# Elastic Compliance Matrix: (Units=1/GPa)
#
#
# Indices 1 2 3 4 5 6 
#
# 1 0.013433 -0.003083 -0.000607 0.000000 0.000000 0.000000
# 2 -0.003083 0.013507 -0.005830 0.000000 0.000000 0.000000
# 3 -0.000607 -0.005830 0.013972 0.000000 0.000000 0.000000
# 4 0.000000 0.000000 0.000000 0.031112 0.000000 0.000000
# 5 0.000000 0.000000 0.000000 0.000000 0.024349 0.000000
# 6 0.000000 0.000000 0.000000 0.000000 0.000000 0.025526
#
#
# Mechanical properties :
#
#
# Convention : Reuss Voigt Hill
#
# Bulk Modulus (GPa) = 45.72238 47.47843 46.60041
# Shear Modulus (GPa) = 33.73143 35.01963 34.37553
#
# Velocity S-wave (km/s) = 4.06080 4.13762 4.09939
# Velocity P-wave (km/s) = 6.65874 6.78506 6.72220
#
# Compressibility (1/GPa) = 0.02187113
#
# Stress axis : x y z
#
# Youngs Moduli (GPa) = 74.44463 74.03659 71.56937
#
# Poissons Ratio (x) = 0.22828 0.04346
# Poissons Ratio (y) = 0.22954 0.41725
# Poissons Ratio (z) = 0.04520 0.43163
#
# Static dielectric constant tensor:
#      x y z
#    x -3.510950 0.000000 0.000000 
#    y 0.000000 3.813830 0.000000 
#    z 0.000000 0.000000 3.860540 
# 
# 
# High freq. dielectric constant tensor:
#      x y z
#    x 1.814150 0.000000 0.000000 
#    y 0.000000 1.806060 0.000000 
#    z 0.000000 0.000000 1.807400 
# 
# From -- ./inp_files/10179.got.cif
#   From: 2010.03.12/outbox.cif.g09.slc.cpg/sg62_6_cif.got.tgz:10179.got - 2010.04.10 19:12:36.
