data_PCOD8254627
_publ_section_title
;
Structure prediction by ZEFSAII (Michael W. Deem and Ramdas Pophale) SiO2 
 PCOD8254627
Probable space group: P N M A
;
_chemical_formula_sum "Si O2"
_cell_formula_units_Z 64
_cell_length_a 14.715731
_cell_length_b 8.748775
_cell_length_c 24.447476
_cell_angle_alpha 90.000000
_cell_angle_beta 90.000000
_cell_angle_gamma 90.000000
_cell_volume 3147.480995
_symmetry_space_group_name_H-M "P N M A"
_symmetry_group_IT_number 62
_symmetry_cell_setting 'orthorhombic'
loop_
_space_group_symop_operation_xyz
x,y,z
1/2-x,-y,1/2+z
1/2+x,1/2-y,1/2-z
-x,1/2+y,-z
-x,-y,-z
1/2+x,y,1/2-z
1/2-x,1/2+y,1/2+z
x,1/2-y,z
loop_
_atom_site_type_symbol
_atom_site_label
_atom_site_fract_x
_atom_site_fract_y
_atom_site_fract_z
Si Si1 0.050081 0.429257 0.124928
Si Si2 0.128809 0.070551 0.242405
Si Si3 0.405699 0.429836 0.520188
Si Si4 0.007063 0.069157 0.670869
Si Si5 0.165368 0.571105 0.736287
Si Si6 0.374868 0.923850 0.346555
Si Si7 0.051126 0.930554 0.448624
Si Si8 0.742246 0.074872 0.553888
O O1 0.036331 0.250000 0.116206
O O2 0.084278 0.470571 0.184926
O O3 0.118463 0.495843 0.079311
O O4 0.955907 0.518822 0.114463
O O5 0.127907 0.250000 0.254437
O O6 0.231796 0.008330 0.237888
O O7 0.074302 0.990227 0.290865
O O8 0.500000 0.500000 0.500000
O O9 0.417103 0.250000 0.525199
O O10 0.321504 0.466011 0.481278
O O11 0.005677 0.250000 0.674067
O O12 0.991363 0.011312 0.608764
O O13 0.105829 0.009732 0.689551
O O14 0.161851 0.750000 0.724209
O O15 0.122848 0.536617 0.795142
O O16 0.390417 0.750000 0.326667
O O17 0.282897 0.937511 0.381743
O O18 0.043859 0.750000 0.451782
O O19 0.155385 0.983989 0.452071
O O20 0.000000 0.000000 0.500000
O O21 0.730424 0.250000 0.534187
#
# Coordination Sequence:
#
# PCOD8254627 Si02
#       8
#     8   8   8   8   8   8   8   8
#     4  11  22  38  60  88 125 163 202 253 308 367
#     4  10  23  41  62  90 125 166 208 251 307 371
#     4  12  24  38  59  89 124 163 206 252 308 372
#     4  11  23  41  66  94 125 161 206 260 315 370
#     4  11  23  39  61  91 127 167 208 252 308 372
#     4  11  21  36  61  91 122 162 206 253 310 367
#     4  10  24  45  67  93 123 162 207 261 314 367
#     4  10  22  41  64  89 123 163 209 259 314 371
#
# _framework density 20.333722000000002
#
# number of rings (size 3 to 8) (size 9 to 14) (size 15 to 20)
#    0.000    1.250    2.500    3.375    0.000    5.500 
#    0.000    3.750    0.000    0.000    0.000    0.000 
#    0.000    0.000    0.000    0.000    0.000    0.000 
#
# Total GULP energy -793757.102552 kJ/mol
# GULP energy per Si atom -12402.454727 kJ/mol
# Density = 2.028744 g / cm^3
# Si number density = 20.333722 Si / 1000 Ang^3
#
#
#
# Elastic Constant Matrix: (Units=GPa)
#
#
# Indices 1 2 3 4 5 6 
#
# 1 127.8493 40.2308 63.3487 0.0000 0.0000 0.0000
# 2 40.2308 79.4486 51.4363 0.0000 0.0000 0.0000
# 3 63.3487 51.4363 145.4389 0.0000 0.0000 0.0000
# 4 0.0000 0.0000 0.0000 33.7588 0.0000 0.0000
# 5 0.0000 0.0000 0.0000 0.0000 29.9514 0.0000
# 6 0.0000 0.0000 0.0000 0.0000 0.0000 30.7617
#
#
#
# Elastic Compliance Matrix: (Units=1/GPa)
#
#
# Indices 1 2 3 4 5 6 
#
# 1 0.010519 -0.003061 -0.003499 0.000000 0.000000 0.000000
# 2 -0.003061 0.017215 -0.004755 0.000000 0.000000 0.000000
# 3 -0.003499 -0.004755 0.010082 0.000000 0.000000 0.000000
# 4 0.000000 0.000000 0.000000 0.029622 0.000000 0.000000
# 5 0.000000 0.000000 0.000000 0.000000 0.033387 0.000000
# 6 0.000000 0.000000 0.000000 0.000000 0.000000 0.032508
#
#
# Mechanical properties :
#
#
# Convention : Reuss Voigt Hill
#
# Bulk Modulus (GPa) = 65.85397 73.64095 69.74746
# Shear Modulus (GPa) = 31.05108 32.07579 31.56344
#
# Velocity S-wave (km/s) = 3.91202 3.97604 3.94416
# Velocity P-wave (km/s) = 7.27063 7.57452 7.42413
#
# Compressibility (1/GPa) = 0.01518511
#
# Stress axis : x y z
#
# Youngs Moduli (GPa) = 95.06878 58.08769 99.19142
#
# Poissons Ratio (x) = 0.17781 0.34707
# Poissons Ratio (y) = 0.29101 0.47167
# Poissons Ratio (z) = 0.33265 0.27621
#
# Static dielectric constant tensor:
#      x y z
#    x 3.890680 0.000000 0.000000 
#    y 0.000000 3.587120 0.000000 
#    z 0.000000 0.000000 3.885190 
# 
# 
# High freq. dielectric constant tensor:
#      x y z
#    x 1.796240 0.000000 0.000000 
#    y 0.000000 1.794480 0.000000 
#    z 0.000000 0.000000 1.803940 
# 
# From -- ./inp_files/29886.got.cif
#   From: 2010.03.12/outbox.cif.g09.slc.cpg/sg62_15_cif.got.tgz:29886.got - 2010.04.10 19:12:36.
