data_PCOD8254144
_publ_section_title
;
Structure prediction by ZEFSAII (Michael W. Deem and Ramdas Pophale) SiO2 
 PCOD8254144
Probable space group: P N M A
;
_chemical_formula_sum "Si O2"
_cell_formula_units_Z 40
_cell_length_a 32.617387
_cell_length_b 10.880341
_cell_length_c 5.176353
_cell_angle_alpha 90.000000
_cell_angle_beta 90.000000
_cell_angle_gamma 90.000000
_cell_volume 1837.027081
_symmetry_space_group_name_H-M "P N M A"
_symmetry_group_IT_number 62
_symmetry_cell_setting 'orthorhombic'
loop_
_space_group_symop_operation_xyz
x,y,z
1/2-x,-y,1/2+z
1/2+x,1/2-y,1/2-z
-x,1/2+y,-z
-x,-y,-z
1/2+x,y,1/2-z
1/2-x,1/2+y,1/2+z
x,1/2-y,z
loop_
_atom_site_type_symbol
_atom_site_label
_atom_site_fract_x
_atom_site_fract_y
_atom_site_fract_z
Si Si1 0.713628 0.613656 0.447436
Si Si2 0.953174 0.031602 0.461525
Si Si3 0.696850 0.470322 0.947624
Si Si4 0.114815 0.113003 0.763801
Si Si5 0.914704 0.384419 0.976871
O O1 0.697843 0.750000 0.393761
O O2 0.693206 0.526982 0.232807
O O3 0.699592 0.576745 0.733321
O O4 0.762978 0.613716 0.424548
O O5 0.948858 0.114771 0.204523
O O6 0.924559 0.909967 0.422928
O O7 0.937295 0.106878 0.705511
O O8 0.000000 0.000000 0.500000
O O9 0.656483 0.389283 0.902117
O O10 0.110775 0.250000 0.887674
O O11 0.116098 0.001166 0.977145
O O12 0.892250 0.250000 0.985452
#
# Coordination Sequence:
#
# PCOD8254144 Si02
#       5
#     8   8   8   8   8
#     4  10  21  39  62  87 123 165 209 259 313 376
#     4  10  23  44  65  95 127 169 214 262 321 385
#     4  10  22  39  59  92 122 162 211 257 314 374
#     4  10  25  43  65  96 131 170 213 263 325 385
#     4  10  23  42  65  94 126 164 209 264 315 372
#
# _framework density 21.774311000000001
#
# number of rings (size 3 to 8) (size 9 to 14) (size 15 to 20)
#    1.200    0.800    0.000    2.400    2.800    4.000 
#    0.000    2.000    0.000    0.000    0.000    0.000 
#    0.000    0.000    0.000    0.000    0.000    0.000 
#
# Total GULP energy -495577.882996 kJ/mol
# GULP energy per Si atom -12389.447075 kJ/mol
# Density = 2.172475 g / cm^3
# Si number density = 21.774311 Si / 1000 Ang^3
#
#
#
# Elastic Constant Matrix: (Units=GPa)
#
#
# Indices 1 2 3 4 5 6 
#
# 1 102.6807 18.5000 -3.7197 0.0000 0.0000 0.0000
# 2 18.5000 157.6869 16.8100 0.0000 0.0000 0.0000
# 3 -3.7197 16.8100 99.3634 0.0000 0.0000 0.0000
# 4 0.0000 0.0000 0.0000 -13.2522 0.0000 0.0000
# 5 0.0000 0.0000 0.0000 0.0000 21.1795 0.0000
# 6 0.0000 0.0000 0.0000 0.0000 0.0000 6.9784
#
#
#
# Elastic Compliance Matrix: (Units=1/GPa)
#
#
# Indices 1 2 3 4 5 6 
#
# 1 0.009982 -0.001233 0.000582 0.000000 0.000000 0.000000
# 2 -0.001233 0.006611 -0.001165 0.000000 0.000000 0.000000
# 3 0.000582 -0.001165 0.010283 0.000000 0.000000 0.000000
# 4 0.000000 0.000000 0.000000 -0.075459 0.000000 0.000000
# 5 0.000000 0.000000 0.000000 0.000000 0.047215 0.000000
# 6 0.000000 0.000000 0.000000 0.000000 0.000000 0.143298
#
#
# Mechanical properties :
#
#
# Convention : Reuss Voigt Hill
#
# Bulk Modulus (GPa) = 43.02038 46.99018 45.00528
# Shear Modulus (GPa) = 32.61374 24.85719 28.73547
#
# Velocity S-wave (km/s) = 3.87435 3.38240 3.63670
# Velocity P-wave (km/s) = 6.30987 6.07302 6.19258
#
# Compressibility (1/GPa) = 0.02324480
#
# Stress axis : x y z
#
# Youngs Moduli (GPa) = 100.17822 151.27445 97.24904
#
# Poissons Ratio (x) = 0.18655 -0.05663
# Poissons Ratio (y) = 0.12354 0.11325
# Poissons Ratio (z) = -0.05834 0.17616
#
# Static dielectric constant tensor:
#      x y z
#    x 3.939170 0.000000 0.000000 
#    y 0.000000 3.562250 0.000000 
#    z 0.000000 0.000000 3.882520 
# 
# 
# High freq. dielectric constant tensor:
#      x y z
#    x 1.849400 0.000000 0.000000 
#    y 0.000000 1.843760 0.000000 
#    z 0.000000 0.000000 1.855090 
# 
# From -- ./inp_files/3499.got.cif
#   From: 2010.03.12/outbox.cif.g09.slc.cpg/sg62_2_cif.got.tgz:3499.got - 2010.04.10 19:12:36.
