data_PCOD8254306
_publ_section_title
;
Structure prediction by ZEFSAII (Michael W. Deem and Ramdas Pophale) SiO2 
 PCOD8254306
Probable space group: P N M A
;
_chemical_formula_sum "Si O2"
_cell_formula_units_Z 48
_cell_length_a 17.519259
_cell_length_b 13.518472
_cell_length_c 10.048420
_cell_angle_alpha 90.000000
_cell_angle_beta 90.000000
_cell_angle_gamma 90.000000
_cell_volume 2379.803606
_symmetry_space_group_name_H-M "P N M A"
_symmetry_group_IT_number 62
_symmetry_cell_setting 'orthorhombic'
loop_
_space_group_symop_operation_xyz
x,y,z
1/2-x,-y,1/2+z
1/2+x,1/2-y,1/2-z
-x,1/2+y,-z
-x,-y,-z
1/2+x,y,1/2-z
1/2-x,1/2+y,1/2+z
x,1/2-y,z
loop_
_atom_site_type_symbol
_atom_site_label
_atom_site_fract_x
_atom_site_fract_y
_atom_site_fract_z
Si Si1 0.680957 0.985727 0.879696
Si Si2 0.940633 0.638368 0.766955
Si Si3 0.561059 0.364575 0.960513
Si Si4 0.891527 0.365062 0.604537
Si Si5 0.387000 0.135585 0.345842
Si Si6 0.645968 0.958894 0.377322
O O1 0.620513 0.075296 0.870766
O O2 0.763846 0.032551 0.888685
O O3 0.674322 0.919488 0.747216
O O4 0.668696 0.920446 0.011251
O O5 0.919732 0.750000 0.809850
O O6 0.917809 0.618552 0.614568
O O7 0.892179 0.566271 0.860166
O O8 0.030588 0.620841 0.780177
O O9 0.567295 0.250000 0.920063
O O10 0.476079 0.404193 0.930728
O O11 0.884402 0.250000 0.572832
O O12 0.874587 0.385795 0.757678
O O13 0.363374 0.250000 0.354129
O O14 0.388467 0.089474 0.491447
#
# Coordination Sequence:
#
# PCOD8254306 Si02
#       6
#     8   8   8   8   8   8
#     4  12  23  41  63  94 126 167 207 253 313 375
#     4  10  21  41  67  94 122 166 215 256 305 368
#     4  10  21  40  69  95 119 164 218 263 299 358
#     4  11  22  41  67  91 121 164 219 259 299 369
#     4  11  24  42  64  91 129 168 209 257 314 371
#     4  12  25  40  60  98 131 166 197 259 324 370
#
# _framework density 20.169732
#
# number of rings (size 3 to 8) (size 9 to 14) (size 15 to 20)
#    0.000    1.000    3.333    4.000    0.000    2.667 
#    0.000    2.500    0.000    0.000    0.000    0.000 
#    0.000    0.000    0.000    0.000    0.000    0.000 
#
# Total GULP energy -595603.971221 kJ/mol
# GULP energy per Si atom -12408.416067 kJ/mol
# Density = 2.012382 g / cm^3
# Si number density = 20.169732 Si / 1000 Ang^3
#
#
#
# Elastic Constant Matrix: (Units=GPa)
#
#
# Indices 1 2 3 4 5 6 
#
# 1 72.8799 36.6777 3.2775 0.0000 0.0000 0.0000
# 2 36.6777 89.2746 33.0981 0.0000 0.0000 0.0000
# 3 3.2775 33.0981 91.5352 0.0000 0.0000 0.0000
# 4 0.0000 0.0000 0.0000 38.5540 0.0000 0.0000
# 5 0.0000 0.0000 0.0000 0.0000 18.3926 0.0000
# 6 0.0000 0.0000 0.0000 0.0000 0.0000 17.3187
#
#
#
# Elastic Compliance Matrix: (Units=1/GPa)
#
#
# Indices 1 2 3 4 5 6 
#
# 1 0.017709 -0.008131 0.002306 0.000000 0.000000 0.000000
# 2 -0.008131 0.016668 -0.005736 0.000000 0.000000 0.000000
# 3 0.002306 -0.005736 0.012916 0.000000 0.000000 0.000000
# 4 0.000000 0.000000 0.000000 0.025938 0.000000 0.000000
# 5 0.000000 0.000000 0.000000 0.000000 0.054370 0.000000
# 6 0.000000 0.000000 0.000000 0.000000 0.000000 0.057741
#
#
# Mechanical properties :
#
#
# Convention : Reuss Voigt Hill
#
# Bulk Modulus (GPa) = 41.36937 44.42182 42.89560
# Shear Modulus (GPa) = 23.09240 26.89547 24.99393
#
# Velocity S-wave (km/s) = 3.38731 3.65561 3.52402
# Velocity P-wave (km/s) = 5.98779 6.31584 6.15400
#
# Compressibility (1/GPa) = 0.02417247
#
# Stress axis : x y z
#
# Youngs Moduli (GPa) = 56.46743 59.99394 77.42178
#
# Poissons Ratio (x) = 0.48779 -0.17852
# Poissons Ratio (y) = 0.45911 0.44409
# Poissons Ratio (z) = -0.13020 0.34412
#
# Static dielectric constant tensor:
#      x y z
#    x 3.504950 0.000000 0.000000 
#    y 0.000000 3.846770 0.000000 
#    z 0.000000 0.000000 3.616520 
# 
# 
# High freq. dielectric constant tensor:
#      x y z
#    x 1.780310 0.000000 0.000000 
#    y 0.000000 1.807660 0.000000 
#    z 0.000000 0.000000 1.787570 
# 
# From -- ./inp_files/7633.got.cif
#   From: 2010.03.12/outbox.cif.g09.slc.cpg/sg62_4_cif.got.tgz:7633.got - 2010.04.10 19:12:36.
