data_PCOD8254146
_publ_section_title
;
Structure prediction by ZEFSAII (Michael W. Deem and Ramdas Pophale) SiO2 
 PCOD8254146
Probable space group: P N M A
;
_chemical_formula_sum "Si O2"
_cell_formula_units_Z 48
_cell_length_a 7.445218
_cell_length_b 13.588652
_cell_length_c 23.357056
_cell_angle_alpha 90.000000
_cell_angle_beta 90.000000
_cell_angle_gamma 90.000000
_cell_volume 2363.044484
_symmetry_space_group_name_H-M "P N M A"
_symmetry_group_IT_number 62
_symmetry_cell_setting 'orthorhombic'
loop_
_space_group_symop_operation_xyz
x,y,z
1/2-x,-y,1/2+z
1/2+x,1/2-y,1/2-z
-x,1/2+y,-z
-x,-y,-z
1/2+x,y,1/2-z
1/2-x,1/2+y,1/2+z
x,1/2-y,z
loop_
_atom_site_type_symbol
_atom_site_label
_atom_site_fract_x
_atom_site_fract_y
_atom_site_fract_z
Si Si1 0.870757 0.997743 0.198457
Si Si2 0.599840 0.365710 0.144985
Si Si3 0.773327 0.142091 0.921419
Si Si4 0.678251 0.141974 0.601643
Si Si5 0.712011 0.499948 0.824686
Si Si6 0.182065 0.471365 0.470784
O O1 0.773588 0.913063 0.160817
O O2 0.863635 0.961525 0.263939
O O3 0.074310 0.021231 0.177994
O O4 0.747303 0.094632 0.190550
O O5 0.598473 0.250000 0.149680
O O6 0.397924 0.401969 0.159140
O O7 0.659081 0.397694 0.081810
O O8 0.681819 0.250000 0.930141
O O9 0.661933 0.079913 0.874005
O O10 0.967723 0.158437 0.896050
O O11 0.797285 0.084775 0.981257
O O12 0.772396 0.250000 0.597856
O O13 0.729511 0.074579 0.547596
O O14 0.000000 0.500000 0.500000
#
# Coordination Sequence:
#
# PCOD8254146 Si02
#       6
#     8   8   8   8   8   8
#     4  10  22  40  63  86 126 155 200 253 305 354
#     4  11  24  41  61  89 120 161 206 246 304 362
#     4  10  21  39  62  88 119 159 202 245 302 360
#     4   9  21  39  62  89 118 158 199 243 302 363
#     4  11  21  41  61  89 122 160 197 255 303 355
#     4  11  21  39  60  87 124 155 197 252 297 350
#
# _framework density 20.312778999999999
#
# number of rings (size 3 to 8) (size 9 to 14) (size 15 to 20)
#    0.000    1.667    3.333    1.000    0.000    3.333 
#    0.000    0.000    0.000    0.000    0.000    0.000 
#    0.000    0.000    0.000    0.000    0.000    0.000 
#
# Total GULP energy -595030.672914 kJ/mol
# GULP energy per Si atom -12396.472352 kJ/mol
# Density = 2.026655 g / cm^3
# Si number density = 20.312779 Si / 1000 Ang^3
#
#
#
# Elastic Constant Matrix: (Units=GPa)
#
#
# Indices 1 2 3 4 5 6 
#
# 1 66.7474 36.0515 11.4988 0.0000 0.0000 0.0000
# 2 36.0515 188.7502 68.8277 0.0000 0.0000 0.0000
# 3 11.4988 68.8277 144.3956 0.0000 0.0000 0.0000
# 4 0.0000 0.0000 0.0000 17.2688 0.0000 0.0000
# 5 0.0000 0.0000 0.0000 0.0000 29.8984 0.0000
# 6 0.0000 0.0000 0.0000 0.0000 0.0000 24.7234
#
#
#
# Elastic Compliance Matrix: (Units=1/GPa)
#
#
# Indices 1 2 3 4 5 6 
#
# 1 0.016712 -0.003276 0.000231 0.000000 0.000000 0.000000
# 2 -0.003276 0.007055 -0.003102 0.000000 0.000000 0.000000
# 3 0.000231 -0.003102 0.008386 0.000000 0.000000 0.000000
# 4 0.000000 0.000000 0.000000 0.057908 0.000000 0.000000
# 5 0.000000 0.000000 0.000000 0.000000 0.033447 0.000000
# 6 0.000000 0.000000 0.000000 0.000000 0.000000 0.040448
#
#
# Mechanical properties :
#
#
# Convention : Reuss Voigt Hill
#
# Bulk Modulus (GPa) = 50.35851 70.29436 60.32643
# Shear Modulus (GPa) = 27.34217 33.27912 30.31065
#
# Velocity S-wave (km/s) = 3.67285 4.05203 3.86709
# Velocity P-wave (km/s) = 6.54460 7.52150 7.04999
#
# Compressibility (1/GPa) = 0.01985762
#
# Stress axis : x y z
#
# Youngs Moduli (GPa) = 59.83880 141.74672 119.25225
#
# Poissons Ratio (x) = 0.46437 -0.02752
# Poissons Ratio (y) = 0.19604 0.36991
# Poissons Ratio (z) = -0.01381 0.43968
#
# Static dielectric constant tensor:
#      x y z
#    x 3.605710 0.000000 0.000000 
#    y 0.000000 3.887330 0.000000 
#    z 0.000000 0.000000 4.712530 
# 
# 
# High freq. dielectric constant tensor:
#      x y z
#    x 1.795640 0.000000 0.000000 
#    y 0.000000 1.784490 0.000000 
#    z 0.000000 0.000000 1.803490 
# 
# From -- ./inp_files/28805.got.cif
#   From: 2010.03.12/outbox.cif.g09.slc.cpg/sg62_15_cif.got.tgz:28805.got - 2010.04.10 19:12:36.
