data_PCOD8254281
_publ_section_title
;
Structure prediction by ZEFSAII (Michael W. Deem and Ramdas Pophale) SiO2 
 PCOD8254281
Probable space group: P N M A
;
_chemical_formula_sum "Si O2"
_cell_formula_units_Z 48
_cell_length_a 18.058122
_cell_length_b 14.034434
_cell_length_c 8.928861
_cell_angle_alpha 90.000000
_cell_angle_beta 90.000000
_cell_angle_gamma 90.000000
_cell_volume 2262.890543
_symmetry_space_group_name_H-M "P N M A"
_symmetry_group_IT_number 62
_symmetry_cell_setting 'orthorhombic'
loop_
_space_group_symop_operation_xyz
x,y,z
1/2-x,-y,1/2+z
1/2+x,1/2-y,1/2-z
-x,1/2+y,-z
-x,-y,-z
1/2+x,y,1/2-z
1/2-x,1/2+y,1/2+z
x,1/2-y,z
loop_
_atom_site_type_symbol
_atom_site_label
_atom_site_fract_x
_atom_site_fract_y
_atom_site_fract_z
Si Si1 0.371454 0.642628 0.483525
Si Si2 0.221940 0.640099 0.998116
Si Si3 0.287671 0.357513 0.851394
Si Si4 0.904335 0.467828 0.181180
Si Si5 0.453415 0.641287 0.778618
Si Si6 0.635428 0.023301 0.010876
O O1 0.388946 0.750000 0.425143
O O2 0.287282 0.614077 0.441031
O O3 0.425620 0.566418 0.403505
O O4 0.384843 0.636603 0.661703
O O5 0.223477 0.750000 0.949733
O O6 0.153367 0.590490 0.918397
O O7 0.297194 0.591854 0.944107
O O8 0.219505 0.627831 0.175664
O O9 0.309332 0.250000 0.891589
O O10 0.354913 0.422302 0.907303
O O11 0.869596 0.501894 0.336710
O O12 0.974340 0.400194 0.198928
O O13 0.468480 0.750000 0.828272
O O14 0.437013 0.577002 0.924747
#
# Coordination Sequence:
#
# PCOD8254281 Si02
#       6
#     8   8   8   8   8   8
#     4  10  21  40  65  93 127 171 220 272 326 393
#     4  11  22  39  66  94 128 167 219 276 329 388
#     4  10  22  40  63  97 128 163 220 278 330 386
#     4  12  24  42  66  98 135 176 222 271 330 393
#     4  11  26  44  64  94 136 181 226 268 329 397
#     4  12  23  41  65  95 129 174 220 275 327 390
#
# _framework density 21.211808999999999
#
# number of rings (size 3 to 8) (size 9 to 14) (size 15 to 20)
#    0.000    1.000    3.333    3.000    2.333    2.000 
#    0.000    2.500    0.000    0.000    0.000    0.000 
#    0.000    0.000    0.000    0.000    0.000    0.000 
#
# Total GULP energy -595275.507240 kJ/mol
# GULP energy per Si atom -12401.573068 kJ/mol
# Density = 2.116353 g / cm^3
# Si number density = 21.211809 Si / 1000 Ang^3
#
#
#
# Elastic Constant Matrix: (Units=GPa)
#
#
# Indices 1 2 3 4 5 6 
#
# 1 66.9249 33.5447 29.3257 0.0000 0.0000 0.0000
# 2 33.5447 146.8872 48.1880 0.0000 0.0000 0.0000
# 3 29.3257 48.1880 66.8302 0.0000 0.0000 0.0000
# 4 0.0000 0.0000 0.0000 35.1073 0.0000 0.0000
# 5 0.0000 0.0000 0.0000 0.0000 24.6767 0.0000
# 6 0.0000 0.0000 0.0000 0.0000 0.0000 33.7535
#
#
#
# Elastic Compliance Matrix: (Units=1/GPa)
#
#
# Indices 1 2 3 4 5 6 
#
# 1 0.018981 -0.002099 -0.006816 0.000000 0.000000 0.000000
# 2 -0.002099 0.009149 -0.005676 0.000000 0.000000 0.000000
# 3 -0.006816 -0.005676 0.022047 0.000000 0.000000 0.000000
# 4 0.000000 0.000000 0.000000 0.028484 0.000000 0.000000
# 5 0.000000 0.000000 0.000000 0.000000 0.040524 0.000000
# 6 0.000000 0.000000 0.000000 0.000000 0.000000 0.029627
#
#
# Mechanical properties :
#
#
# Convention : Reuss Voigt Hill
#
# Bulk Modulus (GPa) = 47.62855 55.86211 51.74533
# Shear Modulus (GPa) = 27.02830 30.01308 28.52069
#
# Velocity S-wave (km/s) = 3.57348 3.76563 3.67081
# Velocity P-wave (km/s) = 6.28720 6.73046 6.51260
#
# Compressibility (1/GPa) = 0.02099581
#
# Stress axis : x y z
#
# Youngs Moduli (GPa) = 52.68556 109.29705 45.35783
#
# Poissons Ratio (x) = 0.22938 0.30914
# Poissons Ratio (y) = 0.11057 0.25746
# Poissons Ratio (z) = 0.35908 0.62040
#
# Static dielectric constant tensor:
#      x y z
#    x 3.598420 0.000000 0.000000 
#    y 0.000000 4.209940 0.000000 
#    z 0.000000 0.000000 3.774040 
# 
# 
# High freq. dielectric constant tensor:
#      x y z
#    x 1.810060 0.000000 0.000000 
#    y 0.000000 1.859000 0.000000 
#    z 0.000000 0.000000 1.835250 
# 
# From -- ./inp_files/7653.got.cif
#   From: 2010.03.12/outbox.cif.g09.slc.cpg/sg62_4_cif.got.tgz:7653.got - 2010.04.10 19:12:36.
