data_PCOD8254472
_publ_section_title
;
Structure prediction by ZEFSAII (Michael W. Deem and Ramdas Pophale) SiO2 
 PCOD8254472
Probable space group: P N M A
;
_chemical_formula_sum "Si O2"
_cell_formula_units_Z 64
_cell_length_a 28.297534
_cell_length_b 17.259017
_cell_length_c 6.708744
_cell_angle_alpha 90.000000
_cell_angle_beta 90.000000
_cell_angle_gamma 90.000000
_cell_volume 3276.467518
_symmetry_space_group_name_H-M "P N M A"
_symmetry_group_IT_number 62
_symmetry_cell_setting 'orthorhombic'
loop_
_space_group_symop_operation_xyz
x,y,z
1/2-x,-y,1/2+z
1/2+x,1/2-y,1/2-z
-x,1/2+y,-z
-x,-y,-z
1/2+x,y,1/2-z
1/2-x,1/2+y,1/2+z
x,1/2-y,z
loop_
_atom_site_type_symbol
_atom_site_label
_atom_site_fract_x
_atom_site_fract_y
_atom_site_fract_z
Si Si1 0.841646 0.662367 0.219723
Si Si2 0.909452 0.072236 0.794617
Si Si3 0.961885 0.054664 0.400642
Si Si4 0.300833 0.441527 0.743461
Si Si5 0.983114 0.157923 0.052355
Si Si6 0.071774 0.061085 0.921854
Si Si7 0.732594 0.099421 0.422041
Si Si8 0.234664 0.336666 0.490439
O O1 0.859939 0.750000 0.202131
O O2 0.884172 0.608738 0.156136
O O3 0.820017 0.644678 0.440899
O O4 0.797634 0.647912 0.076654
O O5 0.927794 0.085561 0.571660
O O6 0.853989 0.088604 0.779140
O O7 0.934672 0.134629 0.939679
O O8 0.919272 0.983798 0.869381
O O9 0.983249 0.128759 0.282255
O O10 0.933782 0.004894 0.240985
O O11 0.000000 0.000000 0.500000
O O12 0.297280 0.530484 0.677848
O O13 0.271002 0.394564 0.586397
O O14 0.280470 0.430837 0.968680
O O15 0.990206 0.250000 0.048969
O O16 0.026341 0.116233 0.937844
O O17 0.743316 0.158704 0.244998
O O18 0.246376 0.250000 0.562759
#
# Coordination Sequence:
#
# PCOD8254472 Si02
#       8
#     8   8   8   8   8   8   8   8
#     4  10  22  38  60  94 127 156 195 251 320 375
#     4  11  23  41  63  92 125 162 207 263 308 370
#     4  11  21  41  64  89 118 165 208 248 308 375
#     4  11  23  37  65  91 118 161 210 251 303 368
#     4  11  24  42  63  92 128 166 211 262 314 370
#     4  11  21  38  68  91 123 162 206 257 315 374
#     4  11  21  38  62  90 121 159 206 251 303 370
#     4  10  23  42  60  87 128 163 200 256 312 366
#
# _framework density 19.533232000000002
#
# number of rings (size 3 to 8) (size 9 to 14) (size 15 to 20)
#    0.000    1.250    5.000    1.500    1.750    3.500 
#    0.000    0.000    0.000    0.000    0.000    0.000 
#    0.000    0.000    0.000    0.000    0.000    0.000 
#
# Total GULP energy -793416.475208 kJ/mol
# GULP energy per Si atom -12397.132425 kJ/mol
# Density = 1.948877 g / cm^3
# Si number density = 19.533232 Si / 1000 Ang^3
#
#
#
# Elastic Constant Matrix: (Units=GPa)
#
#
# Indices 1 2 3 4 5 6 
#
# 1 84.6339 16.1977 17.1717 0.0000 0.0000 0.0000
# 2 16.1977 86.4975 22.6925 0.0000 0.0000 0.0000
# 3 17.1717 22.6925 100.7268 0.0000 0.0000 0.0000
# 4 0.0000 0.0000 0.0000 25.2759 0.0000 0.0000
# 5 0.0000 0.0000 0.0000 0.0000 21.1629 0.0000
# 6 0.0000 0.0000 0.0000 0.0000 0.0000 12.7813
#
#
#
# Elastic Compliance Matrix: (Units=1/GPa)
#
#
# Indices 1 2 3 4 5 6 
#
# 1 0.012525 -0.001897 -0.001708 0.000000 0.000000 0.000000
# 2 -0.001897 0.012575 -0.002509 0.000000 0.000000 0.000000
# 3 -0.001708 -0.002509 0.010784 0.000000 0.000000 0.000000
# 4 0.000000 0.000000 0.000000 0.039563 0.000000 0.000000
# 5 0.000000 0.000000 0.000000 0.000000 0.047253 0.000000
# 6 0.000000 0.000000 0.000000 0.000000 0.000000 0.078239
#
#
# Mechanical properties :
#
#
# Convention : Reuss Voigt Hill
#
# Bulk Modulus (GPa) = 42.27462 42.66466 42.46964
# Shear Modulus (GPa) = 22.61892 26.23043 24.42467
#
# Velocity S-wave (km/s) = 3.40659 3.66848 3.53996
# Velocity P-wave (km/s) = 6.09611 6.31135 6.20466
#
# Compressibility (1/GPa) = 0.02365485
#
# Stress axis : x y z
#
# Youngs Moduli (GPa) = 79.83879 79.52473 92.72710
#
# Poissons Ratio (x) = 0.15090 0.15836
# Poissons Ratio (y) = 0.15149 0.23269
# Poissons Ratio (z) = 0.13635 0.19956
#
# Static dielectric constant tensor:
#      x y z
#    x 3.556660 0.000000 0.000000 
#    y 0.000000 3.552690 0.000000 
#    z 0.000000 0.000000 4.355780 
# 
# 
# High freq. dielectric constant tensor:
#      x y z
#    x 1.754210 0.000000 0.000000 
#    y 0.000000 1.758780 0.000000 
#    z 0.000000 0.000000 1.772160 
# 
# From -- ./inp_files/3709.got.cif
#   From: 2010.03.12/outbox.cif.g09.slc.cpg/sg62_2_cif.got.tgz:3709.got - 2010.04.10 19:12:36.
