data_PCOD8254841
_publ_section_title
;
Structure prediction by ZEFSAII (Michael W. Deem and Ramdas Pophale) SiO2 
 PCOD8254841
Probable space group: P N M A
;
_chemical_formula_sum "Si O2"
_cell_formula_units_Z 32
_cell_length_a 9.879070
_cell_length_b 22.900424
_cell_length_c 5.333873
_cell_angle_alpha 90.000000
_cell_angle_beta 90.000000
_cell_angle_gamma 90.000000
_cell_volume 1206.708181
_symmetry_space_group_name_H-M "P N M A"
_symmetry_group_IT_number 62
_symmetry_cell_setting 'orthorhombic'
loop_
_space_group_symop_operation_xyz
x,y,z
1/2-x,-y,1/2+z
1/2+x,1/2-y,1/2-z
-x,1/2+y,-z
-x,-y,-z
1/2+x,y,1/2-z
1/2-x,1/2+y,1/2+z
x,1/2-y,z
loop_
_atom_site_type_symbol
_atom_site_label
_atom_site_fract_x
_atom_site_fract_y
_atom_site_fract_z
Si Si1 0.488406 0.904472 0.919940
Si Si2 0.566276 0.185085 0.457510
Si Si3 0.664667 0.007161 0.786102
Si Si4 0.334911 0.184782 0.810874
O O1 0.393655 0.864292 0.743959
O O2 0.399953 0.929268 0.152820
O O3 0.612239 0.864035 0.000793
O O4 0.545624 0.959363 0.760835
O O5 0.581841 0.250000 0.339737
O O6 0.410660 0.174912 0.545828
O O7 0.670936 0.179262 0.694929
O O8 0.757641 0.988693 0.024031
O O9 0.374671 0.250000 0.906789
#
# Coordination Sequence:
#
# PCOD8254841 Si02
#       4
#     8   8   8   8
#     4  11  25  42  75 100 147 197 247 306 376 446
#     4  10  23  44  71 110 149 192 244 302 374 448
#     4  11  28  47  71 108 147 194 255 311 372 437
#     4  10  23  42  71 108 147 191 242 304 372 449
#
# _framework density 26.518426000000002
#
# number of rings (size 3 to 8) (size 9 to 14) (size 15 to 20)
#    0.000    1.500    0.000    2.250   10.500    4.000 
#    0.000    5.000    0.000    0.000    0.000    0.000 
#    0.000    0.000    0.000    0.000    0.000    0.000 
#
# Total GULP energy -396588.151626 kJ/mol
# GULP energy per Si atom -12393.379738 kJ/mol
# Density = 2.645807 g / cm^3
# Si number density = 26.518426 Si / 1000 Ang^3
#
#
#
# Elastic Constant Matrix: (Units=GPa)
#
#
# Indices 1 2 3 4 5 6 
#
# 1 81.0351 28.2629 17.5023 0.0000 0.0000 0.0000
# 2 28.2629 162.8172 28.0702 0.0000 0.0000 0.0000
# 3 17.5023 28.0702 54.9224 0.0000 0.0000 0.0000
# 4 0.0000 0.0000 0.0000 26.1672 0.0000 0.0000
# 5 0.0000 0.0000 0.0000 0.0000 39.1804 0.0000
# 6 0.0000 0.0000 0.0000 0.0000 0.0000 12.5830
#
#
#
# Elastic Compliance Matrix: (Units=1/GPa)
#
#
# Indices 1 2 3 4 5 6 
#
# 1 0.013709 -0.001784 -0.003457 0.000000 0.000000 0.000000
# 2 -0.001784 0.006967 -0.002993 0.000000 0.000000 0.000000
# 3 -0.003457 -0.002993 0.020839 0.000000 0.000000 0.000000
# 4 0.000000 0.000000 0.000000 0.038216 0.000000 0.000000
# 5 0.000000 0.000000 0.000000 0.000000 0.025523 0.000000
# 6 0.000000 0.000000 0.000000 0.000000 0.000000 0.079473
#
#
# Mechanical properties :
#
#
# Convention : Reuss Voigt Hill
#
# Bulk Modulus (GPa) = 39.92259 49.60508 44.76383
# Shear Modulus (GPa) = 23.86150 30.58208 27.22179
#
# Velocity S-wave (km/s) = 3.00293 3.39962 3.20742
# Velocity P-wave (km/s) = 5.20681 5.84435 5.53476
#
# Compressibility (1/GPa) = 0.02504847
#
# Stress axis : x y z
#
# Youngs Moduli (GPa) = 72.94419 143.52539 47.98775
#
# Poissons Ratio (x) = 0.25601 0.16590
# Poissons Ratio (y) = 0.13011 0.14361
# Poissons Ratio (z) = 0.25217 0.42951
#
# Static dielectric constant tensor:
#      x y z
#    x 4.798560 0.000000 0.000000 
#    y 0.000000 5.373780 0.000000 
#    z 0.000000 0.000000 4.236870 
# 
# 
# High freq. dielectric constant tensor:
#      x y z
#    x 2.061350 0.000000 0.000000 
#    y 0.000000 2.097390 0.000000 
#    z 0.000000 0.000000 2.025230 
# 
# From -- ./inp_files/440.got.cif
#   From: 2010.03.12/outbox.cif.g09.slc.cpg/sg62_1_cif.got.tgz:440.got - 2010.04.10 19:12:36.
