data_PCOD8254571
_publ_section_title
;
Structure prediction by ZEFSAII (Michael W. Deem and Ramdas Pophale) SiO2 
 PCOD8254571
Probable space group: P N M A
;
_chemical_formula_sum "Si O2"
_cell_formula_units_Z 56
_cell_length_a 21.726623
_cell_length_b 8.644899
_cell_length_c 14.508476
_cell_angle_alpha 90.000000
_cell_angle_beta 90.000000
_cell_angle_gamma 90.000000
_cell_volume 2725.046691
_symmetry_space_group_name_H-M "P N M A"
_symmetry_group_IT_number 62
_symmetry_cell_setting 'orthorhombic'
loop_
_space_group_symop_operation_xyz
x,y,z
1/2-x,-y,1/2+z
1/2+x,1/2-y,1/2-z
-x,1/2+y,-z
-x,-y,-z
1/2+x,y,1/2-z
1/2-x,1/2+y,1/2+z
x,1/2-y,z
loop_
_atom_site_type_symbol
_atom_site_label
_atom_site_fract_x
_atom_site_fract_y
_atom_site_fract_z
Si Si1 0.729645 0.429140 0.198553
Si Si2 0.044084 0.067995 0.923389
Si Si3 0.110346 0.926754 0.378075
Si Si4 0.183998 0.431609 0.942440
Si Si5 0.883891 0.427369 0.412223
Si Si6 0.484184 0.568851 0.217718
Si Si7 0.753752 0.929740 0.386822
O O1 0.745943 0.250000 0.188914
O O2 0.666231 0.461168 0.145994
O O3 0.785557 0.528321 0.155760
O O4 0.721954 0.475312 0.304812
O O5 0.040156 0.250000 0.929672
O O6 0.113613 0.011862 0.941234
O O7 0.022111 0.012497 0.822866
O O8 0.000000 0.000000 0.000000
O O9 0.131300 0.750000 0.361136
O O10 0.091620 0.952820 0.484176
O O11 0.052973 0.970192 0.314143
O O12 0.189797 0.250000 0.961549
O O13 0.220483 0.525092 0.019286
O O14 0.864179 0.250000 0.396053
O O15 0.937941 0.470705 0.343458
O O16 0.825749 0.534848 0.392808
O O17 0.468922 0.750000 0.206280
O O18 0.744063 0.750000 0.367764
#
# Coordination Sequence:
#
# PCOD8254571 Si02
#       7
#     8   8   8   8   8   8   8
#     4  12  25  41  65  97 130 170 216 267 327 391
#     4  10  24  43  65  92 126 167 213 267 317 377
#     4  10  22  40  63  93 132 170 211 265 319 384
#     4  11  23  43  66  95 132 169 213 267 320 382
#     4  11  22  39  64  96 131 168 210 264 322 384
#     4  10  22  41  64  92 127 173 218 259 321 386
#     4  12  25  41  65  93 126 171 215 268 324 382
#
# _framework density 20.550108000000002
#
# number of rings (size 3 to 8) (size 9 to 14) (size 15 to 20)
#    0.000    1.143    1.429    4.714    2.000    4.000 
#    0.000    0.000    0.000    0.000    0.000    0.000 
#    0.000    0.000    0.000    0.000    0.000    0.000 
#
# Total GULP energy -694815.092009 kJ/mol
# GULP energy per Si atom -12407.412357 kJ/mol
# Density = 2.050333 g / cm^3
# Si number density = 20.550108 Si / 1000 Ang^3
#
#
#
# Elastic Constant Matrix: (Units=GPa)
#
#
# Indices 1 2 3 4 5 6 
#
# 1 103.5739 43.9893 26.2657 0.0000 0.0000 0.0000
# 2 43.9893 65.3341 33.6989 0.0000 0.0000 0.0000
# 3 26.2657 33.6989 92.1116 0.0000 0.0000 0.0000
# 4 0.0000 0.0000 0.0000 26.2920 0.0000 0.0000
# 5 0.0000 0.0000 0.0000 0.0000 30.2420 0.0000
# 6 0.0000 0.0000 0.0000 0.0000 0.0000 31.9320
#
#
#
# Elastic Compliance Matrix: (Units=1/GPa)
#
#
# Indices 1 2 3 4 5 6 
#
# 1 0.013553 -0.008791 -0.000649 0.000000 0.000000 0.000000
# 2 -0.008791 0.024568 -0.006481 0.000000 0.000000 0.000000
# 3 -0.000649 -0.006481 0.013413 0.000000 0.000000 0.000000
# 4 0.000000 0.000000 0.000000 0.038034 0.000000 0.000000
# 5 0.000000 0.000000 0.000000 0.000000 0.033067 0.000000
# 6 0.000000 0.000000 0.000000 0.000000 0.000000 0.031317
#
#
# Mechanical properties :
#
#
# Convention : Reuss Voigt Hill
#
# Bulk Modulus (GPa) = 50.78217 52.10306 51.44261
# Shear Modulus (GPa) = 25.99347 28.16424 27.07885
#
# Velocity S-wave (km/s) = 3.56038 3.70606 3.63395
# Velocity P-wave (km/s) = 6.45498 6.61229 6.53411
#
# Compressibility (1/GPa) = 0.01969195
#
# Stress axis : x y z
#
# Youngs Moduli (GPa) = 73.78485 40.70380 74.55694
#
# Poissons Ratio (x) = 0.35781 0.04836
# Poissons Ratio (y) = 0.64861 0.48324
# Poissons Ratio (z) = 0.04786 0.26382
#
# Static dielectric constant tensor:
#      x y z
#    x 3.610310 0.000000 0.000000 
#    y 0.000000 3.660720 0.000000 
#    z 0.000000 0.000000 3.682990 
# 
# 
# High freq. dielectric constant tensor:
#      x y z
#    x 1.809160 0.000000 0.000000 
#    y 0.000000 1.802250 0.000000 
#    z 0.000000 0.000000 1.819930 
# 
# From -- ./inp_files/20391.got.cif
#   From: 2010.03.12/outbox.cif.g09.slc.cpg/sg62_11_cif.got.tgz:20391.got - 2010.04.10 19:12:36.
