data_PCOD8254650
_publ_section_title
;
Structure prediction by ZEFSAII (Michael W. Deem and Ramdas Pophale) SiO2 
 PCOD8254650
Probable space group: P N M A
;
_chemical_formula_sum "Si O2"
_cell_formula_units_Z 48
_cell_length_a 28.202698
_cell_length_b 8.689678
_cell_length_c 9.381344
_cell_angle_alpha 90.000000
_cell_angle_beta 90.000000
_cell_angle_gamma 90.000000
_cell_volume 2299.108155
_symmetry_space_group_name_H-M "P N M A"
_symmetry_group_IT_number 62
_symmetry_cell_setting 'orthorhombic'
loop_
_space_group_symop_operation_xyz
x,y,z
1/2-x,-y,1/2+z
1/2+x,1/2-y,1/2-z
-x,1/2+y,-z
-x,-y,-z
1/2+x,y,1/2-z
1/2-x,1/2+y,1/2+z
x,1/2-y,z
loop_
_atom_site_type_symbol
_atom_site_label
_atom_site_fract_x
_atom_site_fract_y
_atom_site_fract_z
Si Si1 0.277903 0.931127 0.196982
Si Si2 0.116712 0.569133 0.194007
Si Si3 0.861385 0.928653 0.517224
Si Si4 0.037173 0.069182 0.607066
Si Si5 0.804426 0.568568 0.984154
Si Si6 0.514935 0.068688 0.352747
O O1 0.267188 0.750000 0.194631
O O2 0.321490 0.975189 0.095618
O O3 0.288609 0.987931 0.358303
O O4 0.232725 0.020389 0.137057
O O5 0.111434 0.750000 0.179945
O O6 0.145075 0.526226 0.338471
O O7 0.064834 0.495376 0.203064
O O8 0.145134 0.506725 0.056475
O O9 0.858690 0.750000 0.559094
O O10 0.910501 0.971002 0.443182
O O11 0.029068 0.250000 0.624594
O O12 0.000000 0.000000 0.500000
O O13 0.028537 0.982831 0.754411
O O14 0.811197 0.750000 0.984455
O O15 0.519156 0.250000 0.359496
O O16 0.500000 0.000000 0.500000
#
# Coordination Sequence:
#
# PCOD8254650 Si02
#       6
#     8   8   8   8   8   8
#     4  10  23  43  66  95 127 165 210 260 317 383
#     4  12  25  42  65  95 128 168 215 266 321 384
#     4  10  22  41  66  94 129 171 213 262 318 377
#     4  11  22  39  65  96 130 174 219 266 317 375
#     4  11  24  42  66  94 127 167 208 262 323 381
#     4  12  26  44  65  93 131 173 218 269 324 384
#
# _framework density 20.877661
#
# number of rings (size 3 to 8) (size 9 to 14) (size 15 to 20)
#    0.000    1.000    1.667    5.000    2.333    5.333 
#    0.000    0.000    0.000    0.000    0.000    0.000 
#    0.000    0.000    0.000    0.000    0.000    0.000 
#
# Total GULP energy -595430.254892 kJ/mol
# GULP energy per Si atom -12404.796977 kJ/mol
# Density = 2.083014 g / cm^3
# Si number density = 20.877661 Si / 1000 Ang^3
#
#
#
# Elastic Constant Matrix: (Units=GPa)
#
#
# Indices 1 2 3 4 5 6 
#
# 1 72.9669 27.2760 12.7997 0.0000 0.0000 0.0000
# 2 27.2760 108.6433 36.9504 0.0000 0.0000 0.0000
# 3 12.7997 36.9504 125.2608 0.0000 0.0000 0.0000
# 4 0.0000 0.0000 0.0000 40.1618 0.0000 0.0000
# 5 0.0000 0.0000 0.0000 0.0000 40.7878 0.0000
# 6 0.0000 0.0000 0.0000 0.0000 0.0000 35.1333
#
#
#
# Elastic Compliance Matrix: (Units=1/GPa)
#
#
# Indices 1 2 3 4 5 6 
#
# 1 0.015149 -0.003642 -0.000474 0.000000 0.000000 0.000000
# 2 -0.003642 0.011107 -0.002904 0.000000 0.000000 0.000000
# 3 -0.000474 -0.002904 0.008888 0.000000 0.000000 0.000000
# 4 0.000000 0.000000 0.000000 0.024899 0.000000 0.000000
# 5 0.000000 0.000000 0.000000 0.000000 0.024517 0.000000
# 6 0.000000 0.000000 0.000000 0.000000 0.000000 0.028463
#
#
# Mechanical properties :
#
#
# Convention : Reuss Voigt Hill
#
# Bulk Modulus (GPa) = 47.38357 51.21370 49.29864
# Shear Modulus (GPa) = 37.28591 38.53956 37.91273
#
# Velocity S-wave (km/s) = 4.23060 4.30114 4.26602
# Velocity P-wave (km/s) = 6.82709 7.01784 6.92312
#
# Compressibility (1/GPa) = 0.02110436
#
# Stress axis : x y z
#
# Youngs Moduli (GPa) = 66.00882 90.03660 112.50598
#
# Poissons Ratio (x) = 0.32795 0.05328
# Poissons Ratio (y) = 0.24043 0.32673
# Poissons Ratio (z) = 0.03126 0.26148
#
# Static dielectric constant tensor:
#      x y z
#    x 3.781890 0.000000 0.000000 
#    y 0.000000 3.739020 0.000000 
#    z 0.000000 0.000000 4.031200 
# 
# 
# High freq. dielectric constant tensor:
#      x y z
#    x 1.827830 0.000000 0.000000 
#    y 0.000000 1.819400 0.000000 
#    z 0.000000 0.000000 1.833940 
# 
# From -- ./inp_files/10273.got.cif
#   From: 2010.03.12/outbox.cif.g09.slc.cpg/sg62_6_cif.got.tgz:10273.got - 2010.04.10 19:12:36.
