data_PCOD8254416
_publ_section_title
;
Structure prediction by ZEFSAII (Michael W. Deem and Ramdas Pophale) SiO2 
 PCOD8254416
Probable space group: P N M A
;
_chemical_formula_sum "Si O2"
_cell_formula_units_Z 32
_cell_length_a 8.056288
_cell_length_b 10.590873
_cell_length_c 15.902552
_cell_angle_alpha 90.000000
_cell_angle_beta 90.000000
_cell_angle_gamma 90.000000
_cell_volume 1356.855401
_symmetry_space_group_name_H-M "P N M A"
_symmetry_group_IT_number 62
_symmetry_cell_setting 'orthorhombic'
loop_
_space_group_symop_operation_xyz
x,y,z
1/2-x,-y,1/2+z
1/2+x,1/2-y,1/2-z
-x,1/2+y,-z
-x,-y,-z
1/2+x,y,1/2-z
1/2-x,1/2+y,1/2+z
x,1/2-y,z
loop_
_atom_site_type_symbol
_atom_site_label
_atom_site_fract_x
_atom_site_fract_y
_atom_site_fract_z
Si Si1 0.832603 0.016642 0.615867
Si Si2 0.482439 0.391613 0.430226
Si Si3 0.736454 0.250000 0.880019
Si Si4 0.596746 0.750000 0.218491
Si Si5 0.682115 0.526260 0.925944
O O1 0.676814 0.921514 0.628381
O O2 0.837765 0.076580 0.521566
O O3 0.809230 0.126223 0.683578
O O4 0.013745 0.948439 0.627148
O O5 0.500000 0.500000 0.500000
O O6 0.462897 0.250000 0.467882
O O7 0.660985 0.402492 0.381377
O O8 0.899984 0.250000 0.820513
O O9 0.592086 0.250000 0.810125
O O10 0.723630 0.375494 0.936466
#
# Coordination Sequence:
#
# PCOD8254416 Si02
#       5
#     8   8   4   4   8
#     4   9  20  36  58  87 123 159 210 257 310 362
#     4  10  22  34  56  92 124 158 202 255 321 367
#     4  10  22  38  62  98 127 166 210 264 321 375
#     4  10  22  38  62  98 127 166 210 264 321 375
#     4   9  20  36  58  87 123 159 210 257 310 362
#
# _framework density 23.583942
#
# number of rings (size 3 to 8) (size 9 to 14) (size 15 to 20)
#    0.000    2.500    0.000    0.000   17.500    1.000 
#    0.000    0.000    0.000    1.500    0.000    0.000 
#    0.000    0.000    0.000    0.000    0.000    0.000 
#
# Total GULP energy -396446.057427 kJ/mol
# GULP energy per Si atom -12388.939295 kJ/mol
# Density = 2.353026 g / cm^3
# Si number density = 23.583942 Si / 1000 Ang^3
#
#
#
# Elastic Constant Matrix: (Units=GPa)
#
#
# Indices 1 2 3 4 5 6 
#
# 1 183.3408 46.6813 -13.7231 0.0000 0.0000 0.0000
# 2 46.6813 106.5761 -1.5542 0.0000 0.0000 0.0000
# 3 -13.7231 -1.5542 29.9648 0.0000 0.0000 0.0000
# 4 0.0000 0.0000 0.0000 22.7194 0.0000 0.0000
# 5 0.0000 0.0000 0.0000 0.0000 21.1651 0.0000
# 6 0.0000 0.0000 0.0000 0.0000 0.0000 29.9488
#
#
#
# Elastic Compliance Matrix: (Units=1/GPa)
#
#
# Indices 1 2 3 4 5 6 
#
# 1 0.006361 -0.002746 0.002771 0.000000 0.000000 0.000000
# 2 -0.002746 0.010575 -0.000709 0.000000 0.000000 0.000000
# 3 0.002771 -0.000709 0.034605 0.000000 0.000000 0.000000
# 4 0.000000 0.000000 0.000000 0.044015 0.000000 0.000000
# 5 0.000000 0.000000 0.000000 0.000000 0.047248 0.000000
# 6 0.000000 0.000000 0.000000 0.000000 0.000000 0.033390
#
#
# Mechanical properties :
#
#
# Convention : Reuss Voigt Hill
#
# Bulk Modulus (GPa) = 19.93116 42.52108 31.22612
# Shear Modulus (GPa) = 25.73524 33.99849 29.86687
#
# Velocity S-wave (km/s) = 3.30694 3.80095 3.56252
# Velocity P-wave (km/s) = 4.80111 6.10998 5.49466
#
# Compressibility (1/GPa) = 0.05017270
#
# Stress axis : x y z
#
# Youngs Moduli (GPa) = 157.21293 94.56027 28.89793
#
# Poissons Ratio (x) = 0.25963 -0.08007
# Poissons Ratio (y) = 0.43166 0.02049
# Poissons Ratio (z) = -0.43558 0.06704
#
# Static dielectric constant tensor:
#      x y z
#    x 5.807600 0.000000 0.000000 
#    y 0.000000 4.026370 0.000000 
#    z 0.000000 0.000000 3.465580 
# 
# 
# High freq. dielectric constant tensor:
#      x y z
#    x 1.980450 0.000000 0.000000 
#    y 0.000000 1.907110 0.000000 
#    z 0.000000 0.000000 1.861480 
# 
# From -- ./inp_files/25558.got.cif
#   From: 2010.03.12/outbox.cif.g09.slc.cpg/sg62_13_cif.got.tgz:25558.got - 2010.04.10 19:12:36.
