data_PCOD8254950
_publ_section_title
;
Structure prediction by ZEFSAII (Michael W. Deem and Ramdas Pophale) SiO2 
 PCOD8254950
Probable space group: P N M A
;
_chemical_formula_sum "Si O2"
_cell_formula_units_Z 40
_cell_length_a 26.283100
_cell_length_b 13.274761
_cell_length_c 5.044930
_cell_angle_alpha 90.000000
_cell_angle_beta 90.000000
_cell_angle_gamma 90.000000
_cell_volume 1760.185515
_symmetry_space_group_name_H-M "P N M A"
_symmetry_group_IT_number 62
_symmetry_cell_setting 'orthorhombic'
loop_
_space_group_symop_operation_xyz
x,y,z
1/2-x,-y,1/2+z
1/2+x,1/2-y,1/2-z
-x,1/2+y,-z
-x,-y,-z
1/2+x,y,1/2-z
1/2-x,1/2+y,1/2+z
x,1/2-y,z
loop_
_atom_site_type_symbol
_atom_site_label
_atom_site_fract_x
_atom_site_fract_y
_atom_site_fract_z
Si Si1 0.923609 0.750000 0.952255
Si Si2 0.290910 0.250000 0.592694
Si Si3 0.427621 0.078425 0.978529
Si Si4 0.391915 0.969564 0.470083
Si Si5 0.724630 0.537076 0.565964
Si Si6 0.990723 0.750000 0.451378
Si Si7 0.351447 0.250000 0.088085
O O1 0.888995 0.651145 0.997550
O O2 0.943805 0.750000 0.652454
O O3 0.971612 0.750000 0.149946
O O4 0.260243 0.149841 0.522008
O O5 0.341338 0.250000 0.402903
O O6 0.301342 0.250000 0.906285
O O7 0.379328 0.149016 0.009057
O O8 0.424749 0.994792 0.208592
O O9 0.477647 0.147357 0.998930
O O10 0.424459 0.020419 0.702637
O O11 0.334879 0.012689 0.461182
O O12 0.741719 0.531341 0.871160
#
# Coordination Sequence:
#
# PCOD8254950 Si02
#       7
#     4   4   8   8   8   4   4
#     4  12  28  45  65  95 150 183 224 255 353 438
#     4  12  22  41  71  94 131 168 229 277 333 382
#     4  11  22  41  73  98 134 165 235 284 341 378
#     4  12  25  45  68  98 136 191 218 282 345 407
#     4  12  26  44  69 103 136 176 230 282 337 400
#     4  11  26  44  69 109 130 177 226 291 330 412
#     4  11  18  38  67 102 117 162 213 287 328 384
#
# _framework density 22.724876999999999
#
# number of rings (size 3 to 8) (size 9 to 14) (size 15 to 20)
#    0.000    0.400    4.000    4.800    0.000    9.600 
#    0.000    0.000    0.000    0.000    0.000    0.000 
#    0.000    0.000    0.000    0.000    0.000    0.000 
#
# Total GULP energy -496048.122256 kJ/mol
# GULP energy per Si atom -12401.203056 kJ/mol
# Density = 2.267315 g / cm^3
# Si number density = 22.724877 Si / 1000 Ang^3
#
#
#
# Elastic Constant Matrix: (Units=GPa)
#
#
# Indices 1 2 3 4 5 6 
#
# 1 55.6790 23.0507 19.4643 0.0000 0.0000 0.0000
# 2 23.0507 115.0579 -1.8747 0.0000 0.0000 0.0000
# 3 19.4643 -1.8747 102.5784 0.0000 0.0000 0.0000
# 4 0.0000 0.0000 0.0000 51.6158 0.0000 0.0000
# 5 0.0000 0.0000 0.0000 0.0000 34.5938 0.0000
# 6 0.0000 0.0000 0.0000 0.0000 0.0000 0.3889
#
#
#
# Elastic Compliance Matrix: (Units=1/GPa)
#
#
# Indices 1 2 3 4 5 6 
#
# 1 0.021176 -0.004309 -0.004097 0.000000 0.000000 0.000000
# 2 -0.004309 0.009571 0.000993 0.000000 0.000000 0.000000
# 3 -0.004097 0.000993 0.010544 0.000000 0.000000 0.000000
# 4 0.000000 0.000000 0.000000 0.019374 0.000000 0.000000
# 5 0.000000 0.000000 0.000000 0.000000 0.028907 0.000000
# 6 0.000000 0.000000 0.000000 0.000000 0.000000 2.571035
#
#
# Mechanical properties :
#
#
# Convention : Reuss Voigt Hill
#
# Bulk Modulus (GPa) = 37.78709 39.39953 38.59331
# Shear Modulus (GPa) = 1.86271 32.83136 17.34704
#
# Velocity S-wave (km/s) = 0.90634 3.80509 2.76588
# Velocity P-wave (km/s) = 4.21420 6.05642 5.21726
#
# Compressibility (1/GPa) = 0.02646407
#
# Stress axis : x y z
#
# Youngs Moduli (GPa) = 47.22262 104.48500 94.83902
#
# Poissons Ratio (x) = 0.45025 0.38855
# Poissons Ratio (y) = 0.20349 -0.09414
# Poissons Ratio (z) = 0.19347 -0.10371
#
# Static dielectric constant tensor:
#      x y z
#    x 3.744930 0.000000 0.000000 
#    y 0.000000 4.447990 0.000000 
#    z 0.000000 0.000000 4.302460 
# 
# 
# High freq. dielectric constant tensor:
#      x y z
#    x 1.867450 0.000000 0.000000 
#    y 0.000000 1.921030 0.000000 
#    z 0.000000 0.000000 1.915470 
# 
# From -- ./inp_files/3088.got.cif
#   From: 2010.03.12/outbox.cif.g09.slc.cpg/sg62_2_cif.got.tgz:3088.got - 2010.04.10 19:12:36.
