data_PCOD8254820
_publ_section_title
;
Structure prediction by ZEFSAII (Michael W. Deem and Ramdas Pophale) SiO2 
 PCOD8254820
Probable space group: P N M A
;
_chemical_formula_sum "Si O2"
_cell_formula_units_Z 64
_cell_length_a 23.805435
_cell_length_b 8.662815
_cell_length_c 15.217972
_cell_angle_alpha 90.000000
_cell_angle_beta 90.000000
_cell_angle_gamma 90.000000
_cell_volume 3138.281830
_symmetry_space_group_name_H-M "P N M A"
_symmetry_group_IT_number 62
_symmetry_cell_setting 'orthorhombic'
loop_
_space_group_symop_operation_xyz
x,y,z
1/2-x,-y,1/2+z
1/2+x,1/2-y,1/2-z
-x,1/2+y,-z
-x,-y,-z
1/2+x,y,1/2-z
1/2-x,1/2+y,1/2+z
x,1/2-y,z
loop_
_atom_site_type_symbol
_atom_site_label
_atom_site_fract_x
_atom_site_fract_y
_atom_site_fract_z
Si Si1 0.928464 0.068103 0.248822
Si Si2 0.381849 0.927242 0.650487
Si Si3 0.701629 0.929033 0.745707
Si Si4 0.878854 0.427002 0.671095
Si Si5 0.499633 0.930389 0.096625
Si Si6 0.220321 0.073190 0.415195
Si Si7 0.772219 0.428063 0.899625
Si Si8 0.004121 0.930588 0.096490
O O1 0.937228 0.250000 0.247747
O O2 0.863354 0.020910 0.242608
O O3 0.952702 0.004189 0.340515
O O4 0.958959 0.001017 0.163116
O O5 0.398892 0.750000 0.635258
O O6 0.362902 0.958063 0.750145
O O7 0.328679 0.970935 0.591332
O O8 0.433865 0.038027 0.631702
O O9 0.707589 0.750000 0.771346
O O10 0.728651 0.964481 0.650954
O O11 0.733708 0.029226 0.817494
O O12 0.874887 0.250000 0.701651
O O13 0.832883 0.461536 0.597117
O O14 0.940294 0.467548 0.637515
O O15 0.487378 0.750000 0.090048
O O16 0.500000 0.000000 0.000000
O O17 0.201174 0.250000 0.404518
O O18 0.238539 0.036055 0.513062
O O19 0.789761 0.250000 0.891704
O O20 0.992930 0.750000 0.091658
O O21 0.000000 0.000000 0.000000
#
# Coordination Sequence:
#
# PCOD8254820 Si02
#       8
#     8   8   8   8   8   8   8   8
#     4  11  24  43  67  95 131 174 215 267 326 385
#     4  12  24  42  68  96 128 169 214 265 323 382
#     4  10  23  43  64  90 129 172 213 259 317 381
#     4  11  23  41  66  95 126 165 213 270 321 376
#     4  11  25  43  65  94 130 170 217 271 323 385
#     4  10  23  42  64  93 128 169 210 260 319 380
#     4  11  24  41  65  97 130 168 214 266 320 376
#     4  12  26  45  68  98 132 169 216 268 323 386
#
# _framework density 20.393325999999998
#
# number of rings (size 3 to 8) (size 9 to 14) (size 15 to 20)
#    0.000    1.000    2.500    3.750    3.500    3.500 
#    0.000    0.000    0.000    0.000    0.000    0.000 
#    0.000    0.000    0.000    0.000    0.000    0.000 
#
# Total GULP energy -793923.966122 kJ/mol
# GULP energy per Si atom -12405.061971 kJ/mol
# Density = 2.034691 g / cm^3
# Si number density = 20.393326 Si / 1000 Ang^3
#
#
#
# Elastic Constant Matrix: (Units=GPa)
#
#
# Indices 1 2 3 4 5 6 
#
# 1 86.9634 27.5760 -4.2692 0.0000 0.0000 0.0000
# 2 27.5760 85.9948 22.6775 0.0000 0.0000 0.0000
# 3 -4.2692 22.6775 81.0737 0.0000 0.0000 0.0000
# 4 0.0000 0.0000 0.0000 37.3979 0.0000 0.0000
# 5 0.0000 0.0000 0.0000 0.0000 22.2481 0.0000
# 6 0.0000 0.0000 0.0000 0.0000 0.0000 34.6519
#
#
#
# Elastic Compliance Matrix: (Units=1/GPa)
#
#
# Indices 1 2 3 4 5 6 
#
# 1 0.013098 -0.004731 0.002013 0.000000 0.000000 0.000000
# 2 -0.004731 0.014264 -0.004239 0.000000 0.000000 0.000000
# 3 0.002013 -0.004239 0.013626 0.000000 0.000000 0.000000
# 4 0.000000 0.000000 0.000000 0.026739 0.000000 0.000000
# 5 0.000000 0.000000 0.000000 0.000000 0.044948 0.000000
# 6 0.000000 0.000000 0.000000 0.000000 0.000000 0.028858
#
#
# Mechanical properties :
#
#
# Convention : Reuss Voigt Hill
#
# Bulk Modulus (GPa) = 36.93562 38.44451 37.69006
# Shear Modulus (GPa) = 30.40037 32.72942 31.56490
#
# Velocity S-wave (km/s) = 3.86515 4.01048 3.93848
# Velocity P-wave (km/s) = 6.17010 6.35119 6.26130
#
# Compressibility (1/GPa) = 0.02707414
#
# Stress axis : x y z
#
# Youngs Moduli (GPa) = 76.34676 70.10885 73.38845
#
# Poissons Ratio (x) = 0.33169 -0.14774
# Poissons Ratio (y) = 0.36120 0.31108
# Poissons Ratio (z) = -0.15369 0.29718
#
# Static dielectric constant tensor:
#      x y z
#    x 4.034260 0.000000 0.000000 
#    y 0.000000 3.769700 0.000000 
#    z 0.000000 0.000000 3.677160 
# 
# 
# High freq. dielectric constant tensor:
#      x y z
#    x 1.810810 0.000000 0.000000 
#    y 0.000000 1.804260 0.000000 
#    z 0.000000 0.000000 1.806200 
# 
# From -- ./inp_files/20900.got.cif
#   From: 2010.03.12/outbox.cif.g09.slc.cpg/sg62_11_cif.got.tgz:20900.got - 2010.04.10 19:12:36.
