data_PCOD8254521
_publ_section_title
;
Structure prediction by ZEFSAII (Michael W. Deem and Ramdas Pophale) SiO2 
 PCOD8254521
Probable space group: P N M A
;
_chemical_formula_sum "Si O2"
_cell_formula_units_Z 48
_cell_length_a 17.178312
_cell_length_b 21.083365
_cell_length_c 6.454363
_cell_angle_alpha 90.000000
_cell_angle_beta 90.000000
_cell_angle_gamma 90.000000
_cell_volume 2337.619388
_symmetry_space_group_name_H-M "P N M A"
_symmetry_group_IT_number 62
_symmetry_cell_setting 'orthorhombic'
loop_
_space_group_symop_operation_xyz
x,y,z
1/2-x,-y,1/2+z
1/2+x,1/2-y,1/2-z
-x,1/2+y,-z
-x,-y,-z
1/2+x,y,1/2-z
1/2-x,1/2+y,1/2+z
x,1/2-y,z
loop_
_atom_site_type_symbol
_atom_site_label
_atom_site_fract_x
_atom_site_fract_y
_atom_site_fract_z
Si Si1 0.997867 0.177696 0.258652
Si Si2 0.351494 0.990551 0.693596
Si Si3 0.862833 0.322225 0.572606
Si Si4 0.596989 0.400916 0.953834
Si Si5 0.965181 0.098746 0.865935
Si Si6 0.727375 0.086891 0.648372
O O1 0.011359 0.250000 0.184469
O O2 0.913445 0.170256 0.364580
O O3 0.066591 0.160271 0.419633
O O4 0.003023 0.128098 0.071428
O O5 0.413908 0.036765 0.583487
O O6 0.274336 0.027958 0.758982
O O7 0.389278 0.960801 0.898226
O O8 0.329974 0.936074 0.532074
O O9 0.840922 0.250000 0.616311
O O10 0.910236 0.347323 0.769364
O O11 0.783211 0.360836 0.546325
O O12 0.532369 0.422808 0.789755
O O13 0.676197 0.382297 0.833152
#
# Coordination Sequence:
#
# PCOD8254521 Si02
#       6
#     8   8   8   8   8   8
#     4  10  22  41  65  91 122 160 213 261 306 366
#     4  11  23  39  60  90 126 164 204 252 313 377
#     4   9  21  40  62  89 119 161 210 255 308 372
#     4  11  23  40  59  92 124 163 205 256 313 364
#     4  10  22  39  66  89 119 161 209 258 312 366
#     4  11  23  37  62  89 129 166 202 257 311 376
#
# _framework density 20.533711
#
# number of rings (size 3 to 8) (size 9 to 14) (size 15 to 20)
#    0.000    1.667    1.667    2.000    2.333    5.333 
#    0.000    2.500    0.000    0.000    0.000    0.000 
#    0.000    0.000    0.000    0.000    0.000    0.000 
#
# Total GULP energy -595396.497166 kJ/mol
# GULP energy per Si atom -12404.093691 kJ/mol
# Density = 2.048698 g / cm^3
# Si number density = 20.533711 Si / 1000 Ang^3
#
#
#
# Elastic Constant Matrix: (Units=GPa)
#
#
# Indices 1 2 3 4 5 6 
#
# 1 111.2120 64.3096 60.6029 0.0000 0.0000 0.0000
# 2 64.3096 97.6409 48.6243 0.0000 0.0000 0.0000
# 3 60.6029 48.6243 109.6614 0.0000 0.0000 0.0000
# 4 0.0000 0.0000 0.0000 30.3774 0.0000 0.0000
# 5 0.0000 0.0000 0.0000 0.0000 31.2918 0.0000
# 6 0.0000 0.0000 0.0000 0.0000 0.0000 26.0594
#
#
#
# Elastic Compliance Matrix: (Units=1/GPa)
#
#
# Indices 1 2 3 4 5 6 
#
# 1 0.016864 -0.008298 -0.005640 0.000000 0.000000 0.000000
# 2 -0.008298 0.017227 -0.003053 0.000000 0.000000 0.000000
# 3 -0.005640 -0.003053 0.013589 0.000000 0.000000 0.000000
# 4 0.000000 0.000000 0.000000 0.032919 0.000000 0.000000
# 5 0.000000 0.000000 0.000000 0.000000 0.031957 0.000000
# 6 0.000000 0.000000 0.000000 0.000000 0.000000 0.038374
#
#
# Mechanical properties :
#
#
# Convention : Reuss Voigt Hill
#
# Bulk Modulus (GPa) = 73.00102 73.95423 73.47762
# Shear Modulus (GPa) = 26.38803 27.21089 26.79946
#
# Velocity S-wave (km/s) = 3.58873 3.64425 3.61660
# Velocity P-wave (km/s) = 7.26643 7.33496 7.30077
#
# Compressibility (1/GPa) = 0.01369844
#
# Stress axis : x y z
#
# Youngs Moduli (GPa) = 59.29797 58.04675 73.58641
#
# Poissons Ratio (x) = 0.48170 0.41503
# Poissons Ratio (y) = 0.49208 0.22464
# Poissons Ratio (z) = 0.33445 0.17720
#
# Static dielectric constant tensor:
#      x y z
#    x 3.831400 0.000000 0.000000 
#    y 0.000000 3.591790 0.000000 
#    z 0.000000 0.000000 3.696680 
# 
# 
# High freq. dielectric constant tensor:
#      x y z
#    x 1.811270 0.000000 0.000000 
#    y 0.000000 1.794980 0.000000 
#    z 0.000000 0.000000 1.804630 
# 
# From -- ./inp_files/1699.got.cif
#   From: 2010.03.12/outbox.cif.g09.slc.cpg/sg62_1_cif.got.tgz:1699.got - 2010.04.10 19:12:36.
