data_PCOD8254141
_publ_section_title
;
Structure prediction by ZEFSAII (Michael W. Deem and Ramdas Pophale) SiO2 
 PCOD8254141
Probable space group: P N M A
;
_chemical_formula_sum "Si O2"
_cell_formula_units_Z 64
_cell_length_a 17.382926
_cell_length_b 9.060956
_cell_length_c 20.205072
_cell_angle_alpha 90.000000
_cell_angle_beta 90.000000
_cell_angle_gamma 90.000000
_cell_volume 3182.418608
_symmetry_space_group_name_H-M "P N M A"
_symmetry_group_IT_number 62
_symmetry_cell_setting 'orthorhombic'
loop_
_space_group_symop_operation_xyz
x,y,z
1/2-x,-y,1/2+z
1/2+x,1/2-y,1/2-z
-x,1/2+y,-z
-x,-y,-z
1/2+x,y,1/2-z
1/2-x,1/2+y,1/2+z
x,1/2-y,z
loop_
_atom_site_type_symbol
_atom_site_label
_atom_site_fract_x
_atom_site_fract_y
_atom_site_fract_z
Si Si1 0.662462 0.918282 0.262899
Si Si2 0.065376 0.922721 0.632239
Si Si3 0.665198 0.923736 0.485252
Si Si4 0.607442 0.578705 0.629308
Si Si5 0.904899 0.079717 0.621603
Si Si6 0.823631 0.421632 0.487161
Si Si7 0.338466 0.578599 0.243925
Si Si8 0.928436 0.921896 0.873269
O O1 0.640963 0.750000 0.281249
O O2 0.646949 0.948581 0.185861
O O3 0.751338 0.949548 0.279194
O O4 0.611424 0.028592 0.305503
O O5 0.063291 0.750000 0.646200
O O6 0.111363 0.962048 0.565959
O O7 0.103591 0.997312 0.695413
O O8 0.979556 0.979303 0.623636
O O9 0.666144 0.750000 0.474974
O O10 0.640287 0.969578 0.558566
O O11 0.749022 0.985242 0.468533
O O12 0.603431 0.990123 0.435467
O O13 0.623203 0.750000 0.643529
O O14 0.652477 0.482200 0.682378
O O15 0.517790 0.541660 0.632891
O O16 0.930412 0.250000 0.615153
O O17 0.853961 0.031173 0.559079
O O18 0.801677 0.250000 0.484675
O O19 0.359327 0.750000 0.243970
O O20 0.912824 0.750000 0.884524
#
# Coordination Sequence:
#
# PCOD8254141 Si02
#       8
#     8   8   8   8   8   8   8   8
#     4  10  22  39  59  86 117 150 192 240 288 340
#     4  11  23  38  58  86 120 155 193 240 290 341
#     4  11  23  39  61  88 118 152 192 239 289 345
#     4  10  23  41  60  87 119 150 190 239 290 345
#     4  10  21  39  62  87 117 153 195 241 289 345
#     4  10  22  40  61  87 119 154 194 240 289 343
#     4  11  23  39  61  86 115 154 195 237 287 343
#     4  11  23  39  60  85 116 154 193 236 287 342
#
# _framework density 20.110492000000001
#
# number of rings (size 3 to 8) (size 9 to 14) (size 15 to 20)
#    0.000    1.500    0.000    4.500    0.000   10.000 
#    0.000    0.000    0.000    0.000    0.000    0.000 
#    0.000    0.000    0.000    0.000    0.000    0.000 
#
# Total GULP energy -794085.415571 kJ/mol
# GULP energy per Si atom -12407.584618 kJ/mol
# Density = 2.006472 g / cm^3
# Si number density = 20.110492 Si / 1000 Ang^3
#
#
#
# Elastic Constant Matrix: (Units=GPa)
#
#
# Indices 1 2 3 4 5 6 
#
# 1 63.3746 29.6334 5.3836 0.0000 0.0000 0.0000
# 2 29.6334 70.1469 29.5352 0.0000 0.0000 0.0000
# 3 5.3836 29.5352 83.7976 0.0000 0.0000 0.0000
# 4 0.0000 0.0000 0.0000 34.1401 0.0000 0.0000
# 5 0.0000 0.0000 0.0000 0.0000 43.3220 0.0000
# 6 0.0000 0.0000 0.0000 0.0000 0.0000 34.3944
#
#
#
# Elastic Compliance Matrix: (Units=1/GPa)
#
#
# Indices 1 2 3 4 5 6 
#
# 1 0.019940 -0.009258 0.001982 0.000000 0.000000 0.000000
# 2 -0.009258 0.021039 -0.006820 0.000000 0.000000 0.000000
# 3 0.001982 -0.006820 0.014210 0.000000 0.000000 0.000000
# 4 0.000000 0.000000 0.000000 0.029291 0.000000 0.000000
# 5 0.000000 0.000000 0.000000 0.000000 0.023083 0.000000
# 6 0.000000 0.000000 0.000000 0.000000 0.000000 0.029075
#
#
# Mechanical properties :
#
#
# Convention : Reuss Voigt Hill
#
# Bulk Modulus (GPa) = 37.04310 38.49148 37.76729
# Shear Modulus (GPa) = 28.76398 32.55575 30.65986
#
# Velocity S-wave (km/s) = 3.78603 4.02785 3.90881
# Velocity P-wave (km/s) = 6.12958 6.38850 6.26038
#
# Compressibility (1/GPa) = 0.02699558
#
# Stress axis : x y z
#
# Youngs Moduli (GPa) = 50.15095 47.53171 70.37247
#
# Poissons Ratio (x) = 0.44005 -0.13948
# Poissons Ratio (y) = 0.46430 0.47997
# Poissons Ratio (z) = -0.09940 0.32419
#
# Static dielectric constant tensor:
#      x y z
#    x 3.661910 0.000000 0.000000 
#    y 0.000000 3.673200 0.000000 
#    z 0.000000 0.000000 3.809520 
# 
# 
# High freq. dielectric constant tensor:
#      x y z
#    x 1.796120 0.000000 0.000000 
#    y 0.000000 1.787690 0.000000 
#    z 0.000000 0.000000 1.802410 
# 
# From -- ./inp_files/27695.got.cif
#   From: 2010.03.12/outbox.cif.g09.slc.cpg/sg62_14_cif.got.tgz:27695.got - 2010.04.10 19:12:36.
