data_PCOD8254466
_publ_section_title
;
Structure prediction by ZEFSAII (Michael W. Deem and Ramdas Pophale) SiO2 
 PCOD8254466
Probable space group: P N M A
;
_chemical_formula_sum "Si O2"
_cell_formula_units_Z 36
_cell_length_a 21.791929
_cell_length_b 9.939567
_cell_length_c 8.970192
_cell_angle_alpha 90.000000
_cell_angle_beta 90.000000
_cell_angle_gamma 90.000000
_cell_volume 1942.964563
_symmetry_space_group_name_H-M "P N M A"
_symmetry_group_IT_number 62
_symmetry_cell_setting 'orthorhombic'
loop_
_space_group_symop_operation_xyz
x,y,z
1/2-x,-y,1/2+z
1/2+x,1/2-y,1/2-z
-x,1/2+y,-z
-x,-y,-z
1/2+x,y,1/2-z
1/2-x,1/2+y,1/2+z
x,1/2-y,z
loop_
_atom_site_type_symbol
_atom_site_label
_atom_site_fract_x
_atom_site_fract_y
_atom_site_fract_z
Si Si1 0.039756 0.750000 0.333370
Si Si2 0.832491 0.477177 0.910983
Si Si3 0.757924 0.750000 0.912760
Si Si4 0.683079 0.750000 0.203426
Si Si5 0.964486 0.250000 0.315475
Si Si6 0.163772 0.750000 0.843756
Si Si7 0.471477 0.994293 0.661853
O O1 0.110317 0.750000 0.288935
O O2 0.029840 0.750000 0.508051
O O3 0.007782 0.876691 0.256243
O O4 0.797056 0.615604 0.939501
O O5 0.795557 0.385766 0.790049
O O6 0.898497 0.520474 0.849287
O O7 0.838983 0.386543 0.059630
O O8 0.726759 0.750000 0.750481
O O9 0.705144 0.750000 0.035711
O O10 0.893809 0.250000 0.266956
O O11 0.000847 0.374794 0.254154
O O12 0.500000 0.000000 0.500000
#
# Coordination Sequence:
#
# PCOD8254466 Si02
#       7
#     4   8   4   4   4   4   8
#     4  10  22  38  58  86 119 154 194 242 298 350
#     4  10  22  39  59  87 115 152 199 241 288 349
#     4  12  21  37  61  85 115 149 199 246 288 342
#     4   9  20  38  57  79 115 156 185 234 301 345
#     4  12  21  38  59  89 121 155 193 245 301 347
#     4  11  22  39  61  85 116 160 195 235 296 358
#     4  11  21  38  64  87 117 158 198 241 295 358
#
# _framework density 18.528386999999999
#
# number of rings (size 3 to 8) (size 9 to 14) (size 15 to 20)
#    0.000    1.333    3.333    4.000    0.000    0.000 
#    0.000    0.000    0.000    0.000    0.000    0.000 
#    0.000    0.000    0.000    0.000    0.000    0.000 
#
# Total GULP energy -446360.729475 kJ/mol
# GULP energy per Si atom -12398.909152 kJ/mol
# Density = 1.848622 g / cm^3
# Si number density = 18.528387 Si / 1000 Ang^3
#
#
#
# Elastic Constant Matrix: (Units=GPa)
#
#
# Indices 1 2 3 4 5 6 
#
# 1 61.3487 45.1075 25.8353 0.0000 0.0000 0.0000
# 2 45.1075 171.8952 65.2155 0.0000 0.0000 0.0000
# 3 25.8353 65.2155 142.2527 0.0000 0.0000 0.0000
# 4 0.0000 0.0000 0.0000 31.7493 0.0000 0.0000
# 5 0.0000 0.0000 0.0000 0.0000 33.8356 0.0000
# 6 0.0000 0.0000 0.0000 0.0000 0.0000 28.1958
#
#
#
# Elastic Compliance Matrix: (Units=1/GPa)
#
#
# Indices 1 2 3 4 5 6 
#
# 1 0.020465 -0.004794 -0.001519 0.000000 0.000000 0.000000
# 2 -0.004794 0.008165 -0.002873 0.000000 0.000000 0.000000
# 3 -0.001519 -0.002873 0.008623 0.000000 0.000000 0.000000
# 4 0.000000 0.000000 0.000000 0.031497 0.000000 0.000000
# 5 0.000000 0.000000 0.000000 0.000000 0.029555 0.000000
# 6 0.000000 0.000000 0.000000 0.000000 0.000000 0.035466
#
#
# Mechanical properties :
#
#
# Convention : Reuss Voigt Hill
#
# Bulk Modulus (GPa) = 52.96197 71.97926 62.47062
# Shear Modulus (GPa) = 31.55858 34.71202 33.13530
#
# Velocity S-wave (km/s) = 4.13153 4.33303 4.23348
# Velocity P-wave (km/s) = 7.16977 7.99788 7.59512
#
# Compressibility (1/GPa) = 0.01888147
#
# Stress axis : x y z
#
# Youngs Moduli (GPa) = 48.86454 122.46818 115.97406
#
# Poissons Ratio (x) = 0.58710 0.17616
# Poissons Ratio (y) = 0.23425 0.33317
# Poissons Ratio (z) = 0.07422 0.35182
#
# Static dielectric constant tensor:
#      x y z
#    x 3.259800 0.000000 0.000000 
#    y 0.000000 3.599400 0.000000 
#    z 0.000000 0.000000 3.317970 
# 
# 
# High freq. dielectric constant tensor:
#      x y z
#    x 1.707390 0.000000 0.000000 
#    y 0.000000 1.737200 0.000000 
#    z 0.000000 0.000000 1.731760 
# 
# From -- ./inp_files/8351.got.cif
#   From: 2010.03.12/outbox.cif.g09.slc.cpg/sg62_5_cif.got.tgz:8351.got - 2010.04.10 19:12:36.
