data_PCOD8254113
_publ_section_title
;
Structure prediction by ZEFSAII (Michael W. Deem and Ramdas Pophale) SiO2 
 PCOD8254113
Probable space group: P N M A
;
_chemical_formula_sum "Si O2"
_cell_formula_units_Z 64
_cell_length_a 24.121964
_cell_length_b 8.994796
_cell_length_c 15.125240
_cell_angle_alpha 90.000000
_cell_angle_beta 90.000000
_cell_angle_gamma 90.000000
_cell_volume 3281.755771
_symmetry_space_group_name_H-M "P N M A"
_symmetry_group_IT_number 62
_symmetry_cell_setting 'orthorhombic'
loop_
_space_group_symop_operation_xyz
x,y,z
1/2-x,-y,1/2+z
1/2+x,1/2-y,1/2-z
-x,1/2+y,-z
-x,-y,-z
1/2+x,y,1/2-z
1/2-x,1/2+y,1/2+z
x,1/2-y,z
loop_
_atom_site_type_symbol
_atom_site_label
_atom_site_fract_x
_atom_site_fract_y
_atom_site_fract_z
Si Si1 0.743837 0.577955 0.890378
Si Si2 0.511041 0.071718 0.592978
Si Si3 0.947792 0.925304 0.750760
Si Si4 0.179209 0.076220 0.272406
Si Si5 0.130410 0.083815 0.637808
Si Si6 0.373866 0.915621 0.341996
Si Si7 0.240766 0.423873 0.905664
Si Si8 0.476353 0.424607 0.085614
O O1 0.727500 0.750000 0.878525
O O2 0.791979 0.532561 0.821009
O O3 0.691779 0.476179 0.871337
O O4 0.762291 0.544065 0.990145
O O5 0.508874 0.250000 0.590652
O O6 0.572141 0.008102 0.616366
O O7 0.500000 0.000000 0.500000
O O8 0.466126 0.013789 0.662597
O O9 0.951911 0.750000 0.769589
O O10 0.884791 0.973566 0.729960
O O11 0.987184 0.973832 0.669818
O O12 0.184080 0.250000 0.289120
O O13 0.207350 0.999238 0.357131
O O14 0.126881 0.250000 0.597057
O O15 0.114520 0.087981 0.739214
O O16 0.087157 0.975924 0.590813
O O17 0.368835 0.750000 0.381623
O O18 0.315957 0.996151 0.366136
O O19 0.245564 0.250000 0.884417
O O20 0.477922 0.250000 0.073250
O O21 0.500000 0.500000 0.000000
#
# Coordination Sequence:
#
# PCOD8254113 Si02
#       8
#     8   8   8   8   8   8   8   8
#     4  10  22  38  60  89 119 156 199 246 299 357
#     4  11  23  40  63  91 122 159 202 246 299 358
#     4  10  23  42  62  86 121 161 200 248 300 356
#     4  10  22  40  60  85 120 158 195 243 302 353
#     4  11  21  39  64  87 117 156 202 252 303 354
#     4   9  19  37  62  86 114 154 198 245 296 353
#     4  10  21  39  61  87 116 154 198 239 294 359
#     4  11  24  41  62  91 124 159 205 251 304 363
#
# _framework density 19.501757000000001
#
# number of rings (size 3 to 8) (size 9 to 14) (size 15 to 20)
#    0.000    1.750    2.500    1.125    3.500    1.500 
#    0.000    1.250    0.000    0.000    0.000    0.000 
#    0.000    0.000    0.000    0.000    0.000    0.000 
#
# Total GULP energy -793589.002991 kJ/mol
# GULP energy per Si atom -12399.828172 kJ/mol
# Density = 1.945737 g / cm^3
# Si number density = 19.501757 Si / 1000 Ang^3
#
#
#
# Elastic Constant Matrix: (Units=GPa)
#
#
# Indices 1 2 3 4 5 6 
#
# 1 112.5778 35.5635 15.1336 0.0000 0.0000 0.0000
# 2 35.5635 57.5783 35.7636 0.0000 0.0000 0.0000
# 3 15.1336 35.7636 83.7379 0.0000 0.0000 0.0000
# 4 0.0000 0.0000 0.0000 21.0549 0.0000 0.0000
# 5 0.0000 0.0000 0.0000 0.0000 35.3071 0.0000
# 6 0.0000 0.0000 0.0000 0.0000 0.0000 27.5975
#
#
#
# Elastic Compliance Matrix: (Units=1/GPa)
#
#
# Indices 1 2 3 4 5 6 
#
# 1 0.011133 -0.007658 0.001259 0.000000 0.000000 0.000000
# 2 -0.007658 0.028906 -0.010962 0.000000 0.000000 0.000000
# 3 0.001259 -0.010962 0.016396 0.000000 0.000000 0.000000
# 4 0.000000 0.000000 0.000000 0.047495 0.000000 0.000000
# 5 0.000000 0.000000 0.000000 0.000000 0.028323 0.000000
# 6 0.000000 0.000000 0.000000 0.000000 0.000000 0.036235
#
#
# Mechanical properties :
#
#
# Convention : Reuss Voigt Hill
#
# Bulk Modulus (GPa) = 46.05466 47.42392 46.73929
# Shear Modulus (GPa) = 23.75890 27.95411 25.85651
#
# Velocity S-wave (km/s) = 3.49420 3.79015 3.64518
# Velocity P-wave (km/s) = 6.32029 6.59729 6.46028
#
# Compressibility (1/GPa) = 0.02171333
#
# Stress axis : x y z
#
# Youngs Moduli (GPa) = 89.82540 34.59467 60.99004
#
# Poissons Ratio (x) = 0.26492 -0.07677
# Poissons Ratio (y) = 0.68788 0.66855
# Poissons Ratio (z) = -0.11306 0.37921
#
# Static dielectric constant tensor:
#      x y z
#    x 3.720150 0.000000 0.000000 
#    y 0.000000 3.585280 0.000000 
#    z 0.000000 0.000000 3.653640 
# 
# 
# High freq. dielectric constant tensor:
#      x y z
#    x 1.774900 0.000000 0.000000 
#    y 0.000000 1.745430 0.000000 
#    z 0.000000 0.000000 1.767140 
# 
# From -- ./inp_files/20877.got.cif
#   From: 2010.03.12/outbox.cif.g09.slc.cpg/sg62_11_cif.got.tgz:20877.got - 2010.04.10 19:12:36.
