data_PCOD8254415
_publ_section_title
;
Structure prediction by ZEFSAII (Michael W. Deem and Ramdas Pophale) SiO2 
 PCOD8254415
Probable space group: P N M A
;
_chemical_formula_sum "Si O2"
_cell_formula_units_Z 56
_cell_length_a 9.881394
_cell_length_b 13.538424
_cell_length_c 21.103378
_cell_angle_alpha 90.000000
_cell_angle_beta 90.000000
_cell_angle_gamma 90.000000
_cell_volume 2823.178289
_symmetry_space_group_name_H-M "P N M A"
_symmetry_group_IT_number 62
_symmetry_cell_setting 'orthorhombic'
loop_
_space_group_symop_operation_xyz
x,y,z
1/2-x,-y,1/2+z
1/2+x,1/2-y,1/2-z
-x,1/2+y,-z
-x,-y,-z
1/2+x,y,1/2-z
1/2-x,1/2+y,1/2+z
x,1/2-y,z
loop_
_atom_site_type_symbol
_atom_site_label
_atom_site_fract_x
_atom_site_fract_y
_atom_site_fract_z
Si Si1 0.114549 0.365802 0.494492
Si Si2 0.589590 0.250000 0.709946
Si Si3 0.494459 0.031389 0.396541
Si Si4 0.223127 0.054134 0.816483
Si Si5 0.249929 0.034576 0.667210
Si Si6 0.476416 0.479528 0.898083
Si Si7 0.288823 0.250000 0.678474
Si Si8 0.421713 0.363166 0.514982
O O1 0.104062 0.250000 0.482132
O O2 0.076723 0.419688 0.429140
O O3 0.265227 0.398026 0.514997
O O4 0.009355 0.397962 0.548735
O O5 0.637169 0.346473 0.672447
O O6 0.427375 0.250000 0.718956
O O7 0.654792 0.250000 0.779095
O O8 0.368114 0.031863 0.347733
O O9 0.634063 0.038916 0.357465
O O10 0.491060 0.931191 0.438402
O O11 0.479681 0.124794 0.443325
O O12 0.252706 0.034342 0.743010
O O13 0.365587 0.065889 0.851371
O O14 0.279740 0.147013 0.639138
O O15 0.107760 0.994043 0.643185
O O16 0.437426 0.250000 0.537187
#
# Coordination Sequence:
#
# PCOD8254415 Si02
#       8
#     8   4   8   8   8   8   4   8
#     4  10  22  41  62  87 118 158 202 252 301 347
#     4  10  22  34  50  84 124 160 198 232 283 352
#     4  11  21  39  61  90 115 159 200 243 296 362
#     4  11  23  37  57  87 124 158 197 242 293 361
#     4  11  23  37  60  84 129 157 194 243 303 360
#     4  11  23  39  61  91 116 161 199 243 301 360
#     4  10  22  34  52  84 122 164 194 228 287 358
#     4  10  22  39  64  87 117 160 202 252 300 344
#
# _framework density 19.835799999999999
#
# number of rings (size 3 to 8) (size 9 to 14) (size 15 to 20)
#    0.000    1.429    4.286    0.857   10.000    0.000 
#    0.000    2.143    0.000    5.143    0.000    0.000 
#    0.000    0.000    0.000    0.000    0.000    0.000 
#
# Total GULP energy -694487.385967 kJ/mol
# GULP energy per Si atom -12401.560464 kJ/mol
# Density = 1.979065 g / cm^3
# Si number density = 19.835800 Si / 1000 Ang^3
#
#
#
# Elastic Constant Matrix: (Units=GPa)
#
#
# Indices 1 2 3 4 5 6 
#
# 1 100.8372 7.9805 19.8439 0.0000 0.0000 0.0000
# 2 7.9805 46.2755 9.8588 0.0000 0.0000 0.0000
# 3 19.8439 9.8588 80.2235 0.0000 0.0000 0.0000
# 4 0.0000 0.0000 0.0000 27.0844 0.0000 0.0000
# 5 0.0000 0.0000 0.0000 0.0000 44.9915 0.0000
# 6 0.0000 0.0000 0.0000 0.0000 0.0000 23.9949
#
#
#
# Elastic Compliance Matrix: (Units=1/GPa)
#
#
# Indices 1 2 3 4 5 6 
#
# 1 0.010499 -0.001291 -0.002438 0.000000 0.000000 0.000000
# 2 -0.001291 0.022349 -0.002427 0.000000 0.000000 0.000000
# 3 -0.002438 -0.002427 0.013367 0.000000 0.000000 0.000000
# 4 0.000000 0.000000 0.000000 0.036922 0.000000 0.000000
# 5 0.000000 0.000000 0.000000 0.000000 0.022226 0.000000
# 6 0.000000 0.000000 0.000000 0.000000 0.000000 0.041676
#
#
# Mechanical properties :
#
#
# Convention : Reuss Voigt Hill
#
# Bulk Modulus (GPa) = 29.49702 33.63362 31.56532
# Shear Modulus (GPa) = 29.29928 31.85768 30.57848
#
# Velocity S-wave (km/s) = 3.84746 4.01193 3.93056
# Velocity P-wave (km/s) = 5.88559 6.20110 6.04540
#
# Compressibility (1/GPa) = 0.03390173
#
# Stress axis : x y z
#
# Youngs Moduli (GPa) = 95.24717 44.74378 74.81336
#
# Poissons Ratio (x) = 0.05777 0.18242
# Poissons Ratio (y) = 0.12298 0.18159
# Poissons Ratio (z) = 0.23224 0.10860
#
# Static dielectric constant tensor:
#      x y z
#    x 3.704840 0.000000 0.000000 
#    y 0.000000 3.432570 0.000000 
#    z 0.000000 0.000000 3.667940 
# 
# 
# High freq. dielectric constant tensor:
#      x y z
#    x 1.788470 0.000000 0.000000 
#    y 0.000000 1.732540 0.000000 
#    z 0.000000 0.000000 1.784770 
# 
# From -- ./inp_files/26033.got.cif
#   From: 2010.03.12/outbox.cif.g09.slc.cpg/sg62_14_cif.got.tgz:26033.got - 2010.04.10 19:12:36.
