data_PCOD8254234
_publ_section_title
;
Structure prediction by ZEFSAII (Michael W. Deem and Ramdas Pophale) SiO2 
 PCOD8254234
Probable space group: P N M A
;
_chemical_formula_sum "Si O2"
_cell_formula_units_Z 56
_cell_length_a 21.820626
_cell_length_b 8.887125
_cell_length_c 14.657407
_cell_angle_alpha 90.000000
_cell_angle_beta 90.000000
_cell_angle_gamma 90.000000
_cell_volume 2842.402927
_symmetry_space_group_name_H-M "P N M A"
_symmetry_group_IT_number 62
_symmetry_cell_setting 'orthorhombic'
loop_
_space_group_symop_operation_xyz
x,y,z
1/2-x,-y,1/2+z
1/2+x,1/2-y,1/2-z
-x,1/2+y,-z
-x,-y,-z
1/2+x,y,1/2-z
1/2-x,1/2+y,1/2+z
x,1/2-y,z
loop_
_atom_site_type_symbol
_atom_site_label
_atom_site_fract_x
_atom_site_fract_y
_atom_site_fract_z
Si Si1 0.738898 0.077887 0.610314
Si Si2 0.486963 0.428443 0.277170
Si Si3 0.181602 0.575141 0.564213
Si Si4 0.276066 0.076258 0.687454
Si Si5 0.103495 0.072002 0.112197
Si Si6 0.888197 0.072468 0.078279
Si Si7 0.041533 0.927594 0.576462
O O1 0.716019 0.250000 0.602597
O O2 0.787397 0.038499 0.532218
O O3 0.773434 0.048474 0.704840
O O4 0.681259 0.969458 0.601224
O O5 0.484616 0.250000 0.274577
O O6 0.551842 0.484753 0.317128
O O7 0.431571 0.487262 0.340490
O O8 0.478706 0.492373 0.175169
O O9 0.187557 0.750000 0.590709
O O10 0.212514 0.477518 0.643548
O O11 0.111328 0.525351 0.557601
O O12 0.287575 0.250000 0.663576
O O13 0.330372 0.978648 0.646007
O O14 0.103430 0.250000 0.102629
O O15 0.088381 0.003487 0.014116
O O16 0.893102 0.250000 0.066129
O O17 0.032930 0.750000 0.572218
O O18 0.000000 0.000000 0.500000
#
# Coordination Sequence:
#
# PCOD8254234 Si02
#       7
#     8   8   8   8   8   8   8
#     4  10  22  38  58  86 122 157 192 240 299 356
#     4   9  21  39  59  85 119 158 200 242 293 356
#     4  10  21  40  63  85 119 162 195 240 304 356
#     4  11  23  38  59  90 122 154 201 251 291 353
#     4  11  22  38  59  85 121 160 195 244 304 355
#     4  11  21  38  63  91 118 153 200 247 295 355
#     4  10  22  41  63  88 119 158 202 246 292 353
#
# _framework density 19.701639
#
# number of rings (size 3 to 8) (size 9 to 14) (size 15 to 20)
#    0.000    1.714    1.429    2.571    2.000    2.857 
#    0.000    4.286    0.000    0.000    0.000    0.000 
#    0.000    0.000    0.000    0.000    0.000    0.000 
#
# Total GULP energy -694667.676118 kJ/mol
# GULP energy per Si atom -12404.779931 kJ/mol
# Density = 1.965680 g / cm^3
# Si number density = 19.701639 Si / 1000 Ang^3
#
#
#
# Elastic Constant Matrix: (Units=GPa)
#
#
# Indices 1 2 3 4 5 6 
#
# 1 137.9043 35.4395 66.3478 0.0000 0.0000 0.0000
# 2 35.4395 60.6907 39.0708 0.0000 0.0000 0.0000
# 3 66.3478 39.0708 144.6152 0.0000 0.0000 0.0000
# 4 0.0000 0.0000 0.0000 24.5208 0.0000 0.0000
# 5 0.0000 0.0000 0.0000 0.0000 34.8204 0.0000
# 6 0.0000 0.0000 0.0000 0.0000 0.0000 26.8982
#
#
#
# Elastic Compliance Matrix: (Units=1/GPa)
#
#
# Indices 1 2 3 4 5 6 
#
# 1 0.009867 -0.003447 -0.003596 0.000000 0.000000 0.000000
# 2 -0.003447 0.021150 -0.004133 0.000000 0.000000 0.000000
# 3 -0.003596 -0.004133 0.009681 0.000000 0.000000 0.000000
# 4 0.000000 0.000000 0.000000 0.040782 0.000000 0.000000
# 5 0.000000 0.000000 0.000000 0.000000 0.028719 0.000000
# 6 0.000000 0.000000 0.000000 0.000000 0.000000 0.037177
#
#
# Mechanical properties :
#
#
# Convention : Reuss Voigt Hill
#
# Bulk Modulus (GPa) = 54.50255 69.43624 61.96939
# Shear Modulus (GPa) = 28.43443 30.73801 29.58622
#
# Velocity S-wave (km/s) = 3.80314 3.95419 3.87940
# Velocity P-wave (km/s) = 6.85632 7.49452 7.18252
#
# Compressibility (1/GPa) = 0.01834776
#
# Stress axis : x y z
#
# Youngs Moduli (GPa) = 101.34620 47.28053 103.29403
#
# Poissons Ratio (x) = 0.16298 0.37141
# Poissons Ratio (y) = 0.34934 0.42689
# Poissons Ratio (z) = 0.36441 0.19540
#
# Static dielectric constant tensor:
#      x y z
#    x 3.668000 0.000000 0.000000 
#    y 0.000000 3.440310 0.000000 
#    z 0.000000 0.000000 3.919470 
# 
# 
# High freq. dielectric constant tensor:
#      x y z
#    x 1.777130 0.000000 0.000000 
#    y 0.000000 1.753470 0.000000 
#    z 0.000000 0.000000 1.785140 
# 
# From -- ./inp_files/20388.got.cif
#   From: 2010.03.12/outbox.cif.g09.slc.cpg/sg62_11_cif.got.tgz:20388.got - 2010.04.10 19:12:36.
