data_PCOD8254096
_publ_section_title
;
Structure prediction by ZEFSAII (Michael W. Deem and Ramdas Pophale) SiO2 
 PCOD8254096
Probable space group: P N M A
;
_chemical_formula_sum "Si O2"
_cell_formula_units_Z 64
_cell_length_a 15.275973
_cell_length_b 9.091622
_cell_length_c 23.841503
_cell_angle_alpha 90.000000
_cell_angle_beta 90.000000
_cell_angle_gamma 90.000000
_cell_volume 3311.188335
_symmetry_space_group_name_H-M "P N M A"
_symmetry_group_IT_number 62
_symmetry_cell_setting 'orthorhombic'
loop_
_space_group_symop_operation_xyz
x,y,z
1/2-x,-y,1/2+z
1/2+x,1/2-y,1/2-z
-x,1/2+y,-z
-x,-y,-z
1/2+x,y,1/2-z
1/2-x,1/2+y,1/2+z
x,1/2-y,z
loop_
_atom_site_type_symbol
_atom_site_label
_atom_site_fract_x
_atom_site_fract_y
_atom_site_fract_z
Si Si1 0.751557 0.924455 0.432214
Si Si2 0.078535 0.582519 0.760111
Si Si3 0.908546 0.575883 0.511071
Si Si4 0.269119 0.924102 0.195444
Si Si5 0.591457 0.921096 0.506069
Si Si6 0.342726 0.083681 0.882220
Si Si7 0.827583 0.084449 0.125331
Si Si8 0.596016 0.916897 0.239851
O O1 0.749821 0.750000 0.435263
O O2 0.837358 0.980251 0.465715
O O3 0.755317 0.980284 0.368274
O O4 0.663390 0.984778 0.462135
O O5 0.078072 0.750000 0.739199
O O6 0.142858 0.494468 0.719352
O O7 0.104488 0.569531 0.824631
O O8 0.981331 0.520090 0.759568
O O9 0.920496 0.750000 0.508283
O O10 0.877756 0.530696 0.572620
O O11 0.000000 0.500000 0.500000
O O12 0.281699 0.750000 0.197559
O O13 0.186240 0.975066 0.232501
O O14 0.576389 0.750000 0.495100
O O15 0.624258 0.954291 0.568168
O O16 0.500000 0.000000 0.500000
O O17 0.341628 0.250000 0.906165
O O18 0.402441 0.075810 0.827291
O O19 0.246302 0.035954 0.863774
O O20 0.787894 0.250000 0.122605
O O21 0.579069 0.750000 0.260203
#
# Coordination Sequence:
#
# PCOD8254096 Si02
#       8
#     8   8   8   8   8   8   8   8
#     4   9  20  39  62  83 116 159 194 234 294 352
#     4  11  24  39  60  90 120 156 197 243 302 358
#     4  11  23  41  62  89 123 160 199 247 302 358
#     4  10  21  41  63  86 117 157 201 245 291 349
#     4  10  21  39  60  87 117 154 195 236 290 347
#     4  11  22  39  63  90 115 153 207 253 297 353
#     4  10  21  40  62  84 119 158 195 245 303 355
#     4  10  23  40  61  87 118 157 200 245 295 354
#
# _framework density 19.328406999999999
#
# number of rings (size 3 to 8) (size 9 to 14) (size 15 to 20)
#    0.000    1.750    2.500    1.125    3.500    2.500 
#    0.000    1.250    0.000    0.000    0.000    0.000 
#    0.000    0.000    0.000    0.000    0.000    0.000 
#
# Total GULP energy -793753.983444 kJ/mol
# GULP energy per Si atom -12402.405991 kJ/mol
# Density = 1.928441 g / cm^3
# Si number density = 19.328407 Si / 1000 Ang^3
#
#
#
# Elastic Constant Matrix: (Units=GPa)
#
#
# Indices 1 2 3 4 5 6 
#
# 1 116.8315 41.0185 28.4294 0.0000 0.0000 0.0000
# 2 41.0185 64.1586 26.5544 0.0000 0.0000 0.0000
# 3 28.4294 26.5544 107.6131 0.0000 0.0000 0.0000
# 4 0.0000 0.0000 0.0000 27.6769 0.0000 0.0000
# 5 0.0000 0.0000 0.0000 0.0000 26.4367 0.0000
# 6 0.0000 0.0000 0.0000 0.0000 0.0000 38.3663
#
#
#
# Elastic Compliance Matrix: (Units=1/GPa)
#
#
# Indices 1 2 3 4 5 6 
#
# 1 0.011205 -0.006614 -0.001328 0.000000 0.000000 0.000000
# 2 -0.006614 0.021263 -0.003500 0.000000 0.000000 0.000000
# 3 -0.001328 -0.003500 0.010507 0.000000 0.000000 0.000000
# 4 0.000000 0.000000 0.000000 0.036131 0.000000 0.000000
# 5 0.000000 0.000000 0.000000 0.000000 0.037826 0.000000
# 6 0.000000 0.000000 0.000000 0.000000 0.000000 0.026065
#
#
# Mechanical properties :
#
#
# Convention : Reuss Voigt Hill
#
# Bulk Modulus (GPa) = 49.77142 53.40087 51.58615
# Shear Modulus (GPa) = 28.97262 31.33603 30.15432
#
# Velocity S-wave (km/s) = 3.87585 4.03083 3.95410
# Velocity P-wave (km/s) = 6.77022 7.02507 6.89882
#
# Compressibility (1/GPa) = 0.02009185
#
# Stress axis : x y z
#
# Youngs Moduli (GPa) = 89.24969 47.02969 95.17504
#
# Poissons Ratio (x) = 0.31104 0.12640
# Poissons Ratio (y) = 0.59027 0.33308
# Poissons Ratio (z) = 0.11853 0.16459
#
# Static dielectric constant tensor:
#      x y z
#    x 3.284380 0.000000 0.000000 
#    y 0.000000 3.453670 0.000000 
#    z 0.000000 0.000000 4.094420 
# 
# 
# High freq. dielectric constant tensor:
#      x y z
#    x 1.758840 0.000000 0.000000 
#    y 0.000000 1.739560 0.000000 
#    z 0.000000 0.000000 1.765260 
# 
# From -- ./inp_files/29759.got.cif
#   From: 2010.03.12/outbox.cif.g09.slc.cpg/sg62_15_cif.got.tgz:29759.got - 2010.04.10 19:12:36.
