data_PCOD8254371
_publ_section_title
;
Structure prediction by ZEFSAII (Michael W. Deem and Ramdas Pophale) SiO2 
 PCOD8254371
Probable space group: P N M A
;
_chemical_formula_sum "Si O2"
_cell_formula_units_Z 48
_cell_length_a 8.743369
_cell_length_b 16.892694
_cell_length_c 16.347046
_cell_angle_alpha 90.000000
_cell_angle_beta 90.000000
_cell_angle_gamma 90.000000
_cell_volume 2414.443280
_symmetry_space_group_name_H-M "P N M A"
_symmetry_group_IT_number 62
_symmetry_cell_setting 'orthorhombic'
loop_
_space_group_symop_operation_xyz
x,y,z
1/2-x,-y,1/2+z
1/2+x,1/2-y,1/2-z
-x,1/2+y,-z
-x,-y,-z
1/2+x,y,1/2-z
1/2-x,1/2+y,1/2+z
x,1/2-y,z
loop_
_atom_site_type_symbol
_atom_site_label
_atom_site_fract_x
_atom_site_fract_y
_atom_site_fract_z
Si Si1 0.544016 0.915894 0.781972
Si Si2 0.331122 0.658246 0.647548
Si Si3 0.579640 0.983089 0.085175
Si Si4 0.943890 0.159801 0.842134
Si Si5 0.393584 0.926795 0.480280
Si Si6 0.130869 0.414245 0.707306
O O1 0.664550 0.850928 0.812775
O O2 0.458744 0.879725 0.705074
O O3 0.428366 0.938428 0.856838
O O4 0.632882 0.996619 0.754780
O O5 0.367719 0.750000 0.633977
O O6 0.330089 0.612957 0.561822
O O7 0.483926 0.912246 0.129272
O O8 0.753303 0.956626 0.074858
O O9 0.500000 0.000000 0.000000
O O10 0.889216 0.250000 0.844166
O O11 0.802045 0.103913 0.820461
O O12 0.075607 0.148581 0.774399
O O13 0.008906 0.137492 0.930637
O O14 0.500000 0.000000 0.500000
#
# Coordination Sequence:
#
# PCOD8254371 Si02
#       6
#     8   8   8   8   8   8
#     4  10  23  42  69  91 125 171 230 265 321 409
#     4  12  25  43  65  98 137 174 218 285 347 386
#     4  10  21  41  69  95 118 164 235 274 319 388
#     4  12  24  41  62 100 137 172 218 284 349 397
#     4  12  24  42  70  97 133 178 228 282 326 419
#     4  10  22  40  68  91 129 177 226 274 327 416
#
# _framework density 19.880358999999999
#
# number of rings (size 3 to 8) (size 9 to 14) (size 15 to 20)
#    1.000    0.000    1.667    6.500    4.667    0.000 
#    0.000    2.500    0.000    0.000    0.000    0.000 
#    0.000    0.000    0.000    0.000    0.000    0.000 
#
# Total GULP energy -595246.005498 kJ/mol
# GULP energy per Si atom -12400.958448 kJ/mol
# Density = 1.983511 g / cm^3
# Si number density = 19.880359 Si / 1000 Ang^3
#
#
#
# Elastic Constant Matrix: (Units=GPa)
#
#
# Indices 1 2 3 4 5 6 
#
# 1 107.6813 25.0112 28.9544 0.0000 0.0000 0.0000
# 2 25.0112 101.1140 20.9425 0.0000 0.0000 0.0000
# 3 28.9544 20.9425 91.1921 0.0000 0.0000 0.0000
# 4 0.0000 0.0000 0.0000 31.6230 0.0000 0.0000
# 5 0.0000 0.0000 0.0000 0.0000 43.3811 0.0000
# 6 0.0000 0.0000 0.0000 0.0000 0.0000 30.5425
#
#
#
# Elastic Compliance Matrix: (Units=1/GPa)
#
#
# Indices 1 2 3 4 5 6 
#
# 1 0.010528 -0.002007 -0.002882 0.000000 0.000000 0.000000
# 2 -0.002007 0.010766 -0.001835 0.000000 0.000000 0.000000
# 3 -0.002882 -0.001835 0.012302 0.000000 0.000000 0.000000
# 4 0.000000 0.000000 0.000000 0.031623 0.000000 0.000000
# 5 0.000000 0.000000 0.000000 0.000000 0.023052 0.000000
# 6 0.000000 0.000000 0.000000 0.000000 0.000000 0.032741
#
#
# Mechanical properties :
#
#
# Convention : Reuss Voigt Hill
#
# Bulk Modulus (GPa) = 49.63236 49.97818 49.80527
# Shear Modulus (GPa) = 35.41673 36.11460 35.76566
#
# Velocity S-wave (km/s) = 4.22535 4.26678 4.24612
# Velocity P-wave (km/s) = 6.98746 7.03334 7.01044
#
# Compressibility (1/GPa) = 0.02014814
#
# Stress axis : x y z
#
# Youngs Moduli (GPa) = 94.98709 92.88116 81.28572
#
# Poissons Ratio (x) = 0.18644 0.23424
# Poissons Ratio (y) = 0.19066 0.14918
# Poissons Ratio (z) = 0.27372 0.17046
#
# Static dielectric constant tensor:
#      x y z
#    x 3.234020 0.000000 0.000000 
#    y 0.000000 3.069190 0.000000 
#    z 0.000000 0.000000 3.733890 
# 
# 
# High freq. dielectric constant tensor:
#      x y z
#    x 1.783850 0.000000 0.000000 
#    y 0.000000 1.758370 0.000000 
#    z 0.000000 0.000000 1.788640 
# 
# From -- ./inp_files/16988.got.cif
#   From: 2010.03.12/outbox.cif.g09.slc.cpg/sg62_9_cif.got.tgz:16988.got - 2010.04.10 19:12:36.
