data_PCOD8254152
_publ_section_title
;
Structure prediction by ZEFSAII (Michael W. Deem and Ramdas Pophale) SiO2 
 PCOD8254152
Probable space group: P N M A
;
_chemical_formula_sum "Si O2"
_cell_formula_units_Z 64
_cell_length_a 16.883002
_cell_length_b 15.854461
_cell_length_c 11.755502
_cell_angle_alpha 90.000000
_cell_angle_beta 90.000000
_cell_angle_gamma 90.000000
_cell_volume 3146.605762
_symmetry_space_group_name_H-M "P N M A"
_symmetry_group_IT_number 62
_symmetry_cell_setting 'orthorhombic'
loop_
_space_group_symop_operation_xyz
x,y,z
1/2-x,-y,1/2+z
1/2+x,1/2-y,1/2-z
-x,1/2+y,-z
-x,-y,-z
1/2+x,y,1/2-z
1/2-x,1/2+y,1/2+z
x,1/2-y,z
loop_
_atom_site_type_symbol
_atom_site_label
_atom_site_fract_x
_atom_site_fract_y
_atom_site_fract_z
Si Si1 0.364053 0.346458 0.903084
Si Si2 0.717849 0.565861 0.705477
Si Si3 0.692342 0.344772 0.007879
Si Si4 0.539338 0.150012 0.873524
Si Si5 0.906460 0.540520 0.924005
Si Si6 0.301054 0.410075 0.675140
Si Si7 0.242599 0.346170 0.084012
Si Si8 0.555261 0.482220 0.671730
O O1 0.362502 0.250000 0.939602
O O2 0.453815 0.379216 0.922547
O O3 0.344791 0.355493 0.770462
O O4 0.297979 0.390294 0.985566
O O5 0.773448 0.589676 0.599004
O O6 0.753739 0.484028 0.763670
O O7 0.713865 0.642615 0.795233
O O8 0.628107 0.546544 0.673427
O O9 0.697410 0.250000 0.056801
O O10 0.601917 0.367710 0.974544
O O11 0.742157 0.348727 0.891400
O O12 0.540123 0.250000 0.838534
O O13 0.559996 0.091744 0.764834
O O14 0.862980 0.449449 0.914909
O O15 0.843515 0.613435 0.902274
O O16 0.974431 0.538381 0.825035
O O17 0.944475 0.559951 0.046622
O O18 0.227836 0.250000 0.053752
#
# Coordination Sequence:
#
# PCOD8254152 Si02
#       8
#     8   8   8   8   8   8   8   8
#     4  10  21  39  62  90 122 158 205 260 314 375
#     4  11  23  39  64  87 124 167 210 256 313 377
#     4  11  23  40  62  93 128 170 213 263 323 379
#     4  10  22  39  63  97 130 163 208 269 329 377
#     4  10  22  37  61  89 122 166 201 254 310 372
#     4  11  20  36  61  91 122 162 211 257 308 378
#     4  10  23  43  62  85 120 165 212 254 309 380
#     4  11  20  39  61  91 130 157 206 256 313 378
#
# _framework density 20.339376999999999
#
# number of rings (size 3 to 8) (size 9 to 14) (size 15 to 20)
#    0.000    1.500    3.750    1.500    1.750    0.500 
#    4.500    2.500    0.000    0.000    0.000    0.000 
#    0.000    0.000    0.000    0.000    0.000    0.000 
#
# Total GULP energy -793239.026272 kJ/mol
# GULP energy per Si atom -12394.359786 kJ/mol
# Density = 2.029308 g / cm^3
# Si number density = 20.339377 Si / 1000 Ang^3
#
#
#
# Elastic Constant Matrix: (Units=GPa)
#
#
# Indices 1 2 3 4 5 6 
#
# 1 130.1670 32.8950 35.8872 0.0000 0.0000 0.0000
# 2 32.8950 51.6354 28.8777 0.0000 0.0000 0.0000
# 3 35.8872 28.8777 87.8044 0.0000 0.0000 0.0000
# 4 0.0000 0.0000 0.0000 27.4963 0.0000 0.0000
# 5 0.0000 0.0000 0.0000 0.0000 30.4510 0.0000
# 6 0.0000 0.0000 0.0000 0.0000 0.0000 28.2823
#
#
#
# Elastic Compliance Matrix: (Units=1/GPa)
#
#
# Indices 1 2 3 4 5 6 
#
# 1 0.009529 -0.004770 -0.002326 0.000000 0.000000 0.000000
# 2 -0.004770 0.026119 -0.006641 0.000000 0.000000 0.000000
# 3 -0.002326 -0.006641 0.014524 0.000000 0.000000 0.000000
# 4 0.000000 0.000000 0.000000 0.036369 0.000000 0.000000
# 5 0.000000 0.000000 0.000000 0.000000 0.032840 0.000000
# 6 0.000000 0.000000 0.000000 0.000000 0.000000 0.035358
#
#
# Mechanical properties :
#
#
# Convention : Reuss Voigt Hill
#
# Bulk Modulus (GPa) = 44.05508 51.65851 47.85680
# Shear Modulus (GPa) = 26.34665 28.70902 27.52784
#
# Velocity S-wave (km/s) = 3.60300 3.76107 3.68288
# Velocity P-wave (km/s) = 6.24627 6.65690 6.45485
#
# Compressibility (1/GPa) = 0.02269886
#
# Stress axis : x y z
#
# Youngs Moduli (GPa) = 104.94154 38.28607 68.85301
#
# Poissons Ratio (x) = 0.18262 0.16015
# Poissons Ratio (y) = 0.50055 0.45724
# Poissons Ratio (z) = 0.24409 0.25425
#
# Static dielectric constant tensor:
#      x y z
#    x 4.095620 0.000000 0.000000 
#    y 0.000000 3.469380 0.000000 
#    z 0.000000 0.000000 3.799950 
# 
# 
# High freq. dielectric constant tensor:
#      x y z
#    x 1.813190 0.000000 0.000000 
#    y 0.000000 1.773880 0.000000 
#    z 0.000000 0.000000 1.792310 
# 
# From -- ./inp_files/14327.got.cif
#   From: 2010.03.12/outbox.cif.g09.slc.cpg/sg62_8_cif.got.tgz:14327.got - 2010.04.10 19:12:36.
