data_PCOD8254933
_publ_section_title
;
Structure prediction by ZEFSAII (Michael W. Deem and Ramdas Pophale) SiO2 
 PCOD8254933
Probable space group: P N M A
;
_chemical_formula_sum "Si O2"
_cell_formula_units_Z 32
_cell_length_a 8.921191
_cell_length_b 26.874540
_cell_length_c 5.219660
_cell_angle_alpha 90.000000
_cell_angle_beta 90.000000
_cell_angle_gamma 90.000000
_cell_volume 1251.428645
_symmetry_space_group_name_H-M "P N M A"
_symmetry_group_IT_number 62
_symmetry_cell_setting 'orthorhombic'
loop_
_space_group_symop_operation_xyz
x,y,z
1/2-x,-y,1/2+z
1/2+x,1/2-y,1/2-z
-x,1/2+y,-z
-x,-y,-z
1/2+x,y,1/2-z
1/2-x,1/2+y,1/2+z
x,1/2-y,z
loop_
_atom_site_type_symbol
_atom_site_label
_atom_site_fract_x
_atom_site_fract_y
_atom_site_fract_z
Si Si1 0.587571 0.136210 0.752909
Si Si2 0.338959 0.391342 0.408378
Si Si3 0.664939 0.516919 0.924666
Si Si4 0.160573 0.691581 0.551416
O O1 0.484236 0.098529 0.585854
O O2 0.692571 0.170731 0.583580
O O3 0.684265 0.099400 0.936792
O O4 0.489286 0.175666 0.907415
O O5 0.344463 0.333034 0.333688
O O6 0.341822 0.424495 0.150572
O O7 0.774419 0.510693 0.167956
O O8 0.500000 0.500000 0.000000
O O9 0.169777 0.750000 0.586567
#
# Coordination Sequence:
#
# PCOD8254933 Si02
#       4
#     8   8   8   8
#     4  10  25  46  72 106 160 203 262 324 414 474
#     4  11  27  47  77 108 156 207 265 336 402 490
#     4  12  32  56  87 123 165 215 279 340 416 489
#     4  11  24  43  74 111 153 203 264 328 407 491
#
# _framework density 25.570772999999999
#
# number of rings (size 3 to 8) (size 9 to 14) (size 15 to 20)
#    0.000    1.000    0.000    3.000   14.000    8.000 
#    0.000    0.000    0.000    0.000    0.000    0.000 
#    0.000    0.000    0.000    0.000    0.000    0.000 
#
# Total GULP energy -396900.182278 kJ/mol
# GULP energy per Si atom -12403.130696 kJ/mol
# Density = 2.551257 g / cm^3
# Si number density = 25.570773 Si / 1000 Ang^3
#
#
#
# Elastic Constant Matrix: (Units=GPa)
#
#
# Indices 1 2 3 4 5 6 
#
# 1 196.0384 55.1755 85.1293 0.0000 0.0000 0.0000
# 2 55.1755 122.8239 53.7804 0.0000 0.0000 0.0000
# 3 85.1293 53.7804 152.4193 0.0000 0.0000 0.0000
# 4 0.0000 0.0000 0.0000 43.5773 0.0000 0.0000
# 5 0.0000 0.0000 0.0000 0.0000 6.2546 0.0000
# 6 0.0000 0.0000 0.0000 0.0000 0.0000 15.8061
#
#
#
# Elastic Compliance Matrix: (Units=1/GPa)
#
#
# Indices 1 2 3 4 5 6 
#
# 1 0.007022 -0.001700 -0.003322 0.000000 0.000000 0.000000
# 2 -0.001700 0.010041 -0.002594 0.000000 0.000000 0.000000
# 3 -0.003322 -0.002594 0.009331 0.000000 0.000000 0.000000
# 4 0.000000 0.000000 0.000000 0.022948 0.000000 0.000000
# 5 0.000000 0.000000 0.000000 0.000000 0.159881 0.000000
# 6 0.000000 0.000000 0.000000 0.000000 0.000000 0.063267
#
#
# Mechanical properties :
#
#
# Convention : Reuss Voigt Hill
#
# Bulk Modulus (GPa) = 89.57813 95.49468 92.53641
# Shear Modulus (GPa) = 17.15602 31.60737 24.38169
#
# Velocity S-wave (km/s) = 2.59303 3.51960 3.09123
# Velocity P-wave (km/s) = 6.63872 7.34460 7.00056
#
# Compressibility (1/GPa) = 0.01116344
#
# Stress axis : x y z
#
# Youngs Moduli (GPa) = 142.40682 99.59222 107.16404
#
# Poissons Ratio (x) = 0.16929 0.35602
# Poissons Ratio (y) = 0.24207 0.27793
# Poissons Ratio (z) = 0.47311 0.25829
#
# Static dielectric constant tensor:
#      x y z
#    x 4.942590 0.000000 0.000000 
#    y 0.000000 4.478320 0.000000 
#    z 0.000000 0.000000 4.957550 
# 
# 
# High freq. dielectric constant tensor:
#      x y z
#    x 2.047810 0.000000 0.000000 
#    y 0.000000 2.013300 0.000000 
#    z 0.000000 0.000000 2.038730 
# 
# From -- ./inp_files/198.got.cif
#   From: 2010.03.12/outbox.cif.g09.slc.cpg/sg62_1_cif.got.tgz:198.got - 2010.04.10 19:12:36.
