data_PCOD8254589
_publ_section_title
;
Structure prediction by ZEFSAII (Michael W. Deem and Ramdas Pophale) SiO2 
 PCOD8254589
Probable space group: P N M A
;
_chemical_formula_sum "Si O2"
_cell_formula_units_Z 48
_cell_length_a 9.043264
_cell_length_b 26.055717
_cell_length_c 10.113445
_cell_angle_alpha 90.000000
_cell_angle_beta 90.000000
_cell_angle_gamma 90.000000
_cell_volume 2383.018176
_symmetry_space_group_name_H-M "P N M A"
_symmetry_group_IT_number 62
_symmetry_cell_setting 'orthorhombic'
loop_
_space_group_symop_operation_xyz
x,y,z
1/2-x,-y,1/2+z
1/2+x,1/2-y,1/2-z
-x,1/2+y,-z
-x,-y,-z
1/2+x,y,1/2-z
1/2-x,1/2+y,1/2+z
x,1/2-y,z
loop_
_atom_site_type_symbol
_atom_site_label
_atom_site_fract_x
_atom_site_fract_y
_atom_site_fract_z
Si Si1 0.298230 0.102025 0.522766
Si Si2 0.867026 0.037148 0.217452
Si Si3 0.887093 0.035449 0.736468
Si Si4 0.545250 0.901633 0.976860
Si Si5 0.031267 0.808141 0.131992
Si Si6 0.190811 0.691404 0.406302
O O1 0.389221 0.069969 0.414683
O O2 0.309176 0.074586 0.664217
O O3 0.128916 0.109193 0.481858
O O4 0.376695 0.157248 0.530328
O O5 0.910500 0.071266 0.342010
O O6 0.698126 0.018662 0.224608
O O7 0.954943 0.983205 0.208985
O O8 0.902163 0.061645 0.594576
O O9 0.631351 0.847222 0.981744
O O10 0.057994 0.750000 0.086122
O O11 0.858721 0.822751 0.131221
O O12 0.086957 0.817153 0.280098
O O13 0.179622 0.750000 0.458011
#
# Coordination Sequence:
#
# PCOD8254589 Si02
#       6
#     8   8   8   8   8   8
#     4  12  25  42  66  95 126 171 212 260 319 372
#     4  12  26  43  62  90 134 171 210 260 312 375
#     4  12  24  43  64  92 126 173 212 262 308 370
#     4  12  25  43  64  96 129 166 215 262 315 374
#     4  10  22  40  65  96 125 161 209 260 316 376
#     4  10  22  40  65  95 126 161 207 263 315 372
#
# _framework density 20.142524000000002
#
# number of rings (size 3 to 8) (size 9 to 14) (size 15 to 20)
#    0.000    0.667    5.000    3.000    4.667    2.000 
#    0.000    0.833    0.000    0.000    0.000    0.000 
#    0.000    0.000    0.000    0.000    0.000    0.000 
#
# Total GULP energy -595409.842282 kJ/mol
# GULP energy per Si atom -12404.371714 kJ/mol
# Density = 2.009668 g / cm^3
# Si number density = 20.142524 Si / 1000 Ang^3
#
#
#
# Elastic Constant Matrix: (Units=GPa)
#
#
# Indices 1 2 3 4 5 6 
#
# 1 90.5233 44.1032 15.0152 0.0000 0.0000 0.0000
# 2 44.1032 114.1720 25.0814 0.0000 0.0000 0.0000
# 3 15.0152 25.0814 52.0652 0.0000 0.0000 0.0000
# 4 0.0000 0.0000 0.0000 7.2785 0.0000 0.0000
# 5 0.0000 0.0000 0.0000 0.0000 18.8632 0.0000
# 6 0.0000 0.0000 0.0000 0.0000 0.0000 40.6553
#
#
#
# Elastic Compliance Matrix: (Units=1/GPa)
#
#
# Indices 1 2 3 4 5 6 
#
# 1 0.013722 -0.004956 -0.001570 0.000000 0.000000 0.000000
# 2 -0.004956 0.011585 -0.004152 0.000000 0.000000 0.000000
# 3 -0.001570 -0.004152 0.021659 0.000000 0.000000 0.000000
# 4 0.000000 0.000000 0.000000 0.137391 0.000000 0.000000
# 5 0.000000 0.000000 0.000000 0.000000 0.053013 0.000000
# 6 0.000000 0.000000 0.000000 0.000000 0.000000 0.024597
#
#
# Mechanical properties :
#
#
# Convention : Reuss Voigt Hill
#
# Bulk Modulus (GPa) = 39.04478 47.24002 43.14240
# Shear Modulus (GPa) = 17.13156 24.86346 20.99751
#
# Velocity S-wave (km/s) = 2.91953 3.51718 3.23220
# Velocity P-wave (km/s) = 5.54898 6.32439 5.94933
#
# Compressibility (1/GPa) = 0.02561162
#
# Stress axis : x y z
#
# Youngs Moduli (GPa) = 72.87735 86.31804 46.16926
#
# Poissons Ratio (x) = 0.42776 0.07248
# Poissons Ratio (y) = 0.36115 0.19168
# Poissons Ratio (z) = 0.11441 0.35837
#
# Static dielectric constant tensor:
#      x y z
#    x 3.870690 0.000000 0.000000 
#    y 0.000000 3.861220 0.000000 
#    z 0.000000 0.000000 3.421860 
# 
# 
# High freq. dielectric constant tensor:
#      x y z
#    x 1.806390 0.000000 0.000000 
#    y 0.000000 1.797910 0.000000 
#    z 0.000000 0.000000 1.763010 
# 
# From -- ./inp_files/4513.got.cif
#   From: 2010.03.12/outbox.cif.g09.slc.cpg/sg62_3_cif.got.tgz:4513.got - 2010.04.10 19:12:36.
