data_PCOD8254531
_publ_section_title
;
Structure prediction by ZEFSAII (Michael W. Deem and Ramdas Pophale) SiO2 
 PCOD8254531
Probable space group: P N M A
;
_chemical_formula_sum "Si O2"
_cell_formula_units_Z 40
_cell_length_a 19.571673
_cell_length_b 9.326242
_cell_length_c 10.538696
_cell_angle_alpha 90.000000
_cell_angle_beta 90.000000
_cell_angle_gamma 90.000000
_cell_volume 1923.629854
_symmetry_space_group_name_H-M "P N M A"
_symmetry_group_IT_number 62
_symmetry_cell_setting 'orthorhombic'
loop_
_space_group_symop_operation_xyz
x,y,z
1/2-x,-y,1/2+z
1/2+x,1/2-y,1/2-z
-x,1/2+y,-z
-x,-y,-z
1/2+x,y,1/2-z
1/2-x,1/2+y,1/2+z
x,1/2-y,z
loop_
_atom_site_type_symbol
_atom_site_label
_atom_site_fract_x
_atom_site_fract_y
_atom_site_fract_z
Si Si1 0.421904 0.084524 0.744934
Si Si2 0.713653 0.586137 0.126582
Si Si3 0.790391 0.920525 0.379783
Si Si4 0.573193 0.086265 0.767558
Si Si5 0.430403 0.585030 0.513377
O O1 0.429938 0.250000 0.701221
O O2 0.368734 0.070652 0.860124
O O3 0.496842 0.018161 0.782497
O O4 0.389831 0.995252 0.626181
O O5 0.735038 0.750000 0.100541
O O6 0.747124 0.531055 0.257274
O O7 0.738927 0.493846 0.006710
O O8 0.786364 0.750000 0.396762
O O9 0.868666 0.977660 0.359806
O O10 0.563679 0.250000 0.805567
O O11 0.604952 0.073456 0.624705
O O12 0.500000 0.500000 0.500000
O O13 0.442692 0.750000 0.551328
#
# Coordination Sequence:
#
# PCOD8254531 Si02
#       5
#     8   8   8   8   8
#     4   9  18  34  54  79 112 145 182 234 285 330
#     4  10  23  40  58  83 115 148 186 237 289 334
#     4  10  22  40  59  81 111 150 189 228 280 344
#     4   8  16  32  54  78 108 144 181 224 274 328
#     4   9  16  28  50  81 113 147 182 224 275 331
#
# _framework density 20.794021999999998
#
# number of rings (size 3 to 8) (size 9 to 14) (size 15 to 20)
#    0.000    2.800    0.000    1.800    2.800    2.400 
#    0.000    5.000    0.000    0.000    0.000    0.000 
#    0.000    0.000    0.000    0.000    0.000    0.000 
#
# Total GULP energy -495545.775869 kJ/mol
# GULP energy per Si atom -12388.644397 kJ/mol
# Density = 2.074669 g / cm^3
# Si number density = 20.794022 Si / 1000 Ang^3
#
#
#
# Elastic Constant Matrix: (Units=GPa)
#
#
# Indices 1 2 3 4 5 6 
#
# 1 73.2505 17.4282 45.4867 0.0000 0.0000 0.0000
# 2 17.4282 69.3313 52.2592 0.0000 0.0000 0.0000
# 3 45.4867 52.2592 133.1298 0.0000 0.0000 0.0000
# 4 0.0000 0.0000 0.0000 37.0880 0.0000 0.0000
# 5 0.0000 0.0000 0.0000 0.0000 29.8963 0.0000
# 6 0.0000 0.0000 0.0000 0.0000 0.0000 16.7076
#
#
#
# Elastic Compliance Matrix: (Units=1/GPa)
#
#
# Indices 1 2 3 4 5 6 
#
# 1 0.017329 0.000152 -0.005981 0.000000 0.000000 0.000000
# 2 0.000152 0.020486 -0.008093 0.000000 0.000000 0.000000
# 3 -0.005981 -0.008093 0.012732 0.000000 0.000000 0.000000
# 4 0.000000 0.000000 0.000000 0.026963 0.000000 0.000000
# 5 0.000000 0.000000 0.000000 0.000000 0.033449 0.000000
# 6 0.000000 0.000000 0.000000 0.000000 0.000000 0.059853
#
#
# Mechanical properties :
#
#
# Convention : Reuss Voigt Hill
#
# Bulk Modulus (GPa) = 44.04773 56.22888 50.13830
# Shear Modulus (GPa) = 24.24549 27.44088 25.84318
#
# Velocity S-wave (km/s) = 3.41835 3.63664 3.52919
# Velocity P-wave (km/s) = 6.06705 6.68828 6.38523
#
# Compressibility (1/GPa) = 0.02270265
#
# Stress axis : x y z
#
# Youngs Moduli (GPa) = 57.70523 48.81419 78.54309
#
# Poissons Ratio (x) = -0.00740 0.46973
# Poissons Ratio (y) = -0.00875 0.63568
# Poissons Ratio (z) = 0.34511 0.39507
#
# Static dielectric constant tensor:
#      x y z
#    x 3.994040 0.000000 0.000000 
#    y 0.000000 3.651680 0.000000 
#    z 0.000000 0.000000 4.101540 
# 
# 
# High freq. dielectric constant tensor:
#      x y z
#    x 1.817630 0.000000 0.000000 
#    y 0.000000 1.780480 0.000000 
#    z 0.000000 0.000000 1.804370 
# 
# From -- ./inp_files/14618.got.cif
#   From: 2010.03.12/outbox.cif.g09.slc.cpg/sg62_8_cif.got.tgz:14618.got - 2010.04.10 19:12:36.
