data_PCOD8254328
_publ_section_title
;
Structure prediction by ZEFSAII (Michael W. Deem and Ramdas Pophale) SiO2 
 PCOD8254328
Probable space group: P N M A
;
_chemical_formula_sum "Si O2"
_cell_formula_units_Z 64
_cell_length_a 15.384468
_cell_length_b 8.857469
_cell_length_c 23.610017
_cell_angle_alpha 90.000000
_cell_angle_beta 90.000000
_cell_angle_gamma 90.000000
_cell_volume 3217.276773
_symmetry_space_group_name_H-M "P N M A"
_symmetry_group_IT_number 62
_symmetry_cell_setting 'orthorhombic'
loop_
_space_group_symop_operation_xyz
x,y,z
1/2-x,-y,1/2+z
1/2+x,1/2-y,1/2-z
-x,1/2+y,-z
-x,-y,-z
1/2+x,y,1/2-z
1/2-x,1/2+y,1/2+z
x,1/2-y,z
loop_
_atom_site_type_symbol
_atom_site_label
_atom_site_fract_x
_atom_site_fract_y
_atom_site_fract_z
Si Si1 0.332377 0.575560 0.764610
Si Si2 0.087244 0.075231 0.611483
Si Si3 0.005884 0.572377 0.209135
Si Si4 0.369549 0.924365 0.499373
Si Si5 0.309531 0.575334 0.000648
Si Si6 0.014856 0.575494 0.910367
Si Si7 0.353523 0.072299 0.219349
Si Si8 0.903983 0.576073 0.613637
O O1 0.346481 0.750000 0.748196
O O2 0.398479 0.478716 0.727500
O O3 0.235247 0.521966 0.749733
O O4 0.345031 0.548615 0.831311
O O5 0.095385 0.250000 0.627150
O O6 0.117890 0.042019 0.547775
O O7 0.148342 0.982396 0.654409
O O8 0.987891 0.027459 0.617843
O O9 0.999080 0.750000 0.213841
O O10 0.987651 0.523566 0.145434
O O11 0.935510 0.501179 0.250473
O O12 0.373930 0.750000 0.481511
O O13 0.426983 0.954633 0.554913
O O14 0.272573 0.972176 0.514864
O O15 0.402461 0.025034 0.447188
O O16 0.281109 0.750000 0.000803
O O17 0.347823 0.526440 0.940272
O O18 0.026378 0.750000 0.893880
O O19 0.366354 0.250000 0.221602
O O20 0.933746 0.750000 0.608576
#
# Coordination Sequence:
#
# PCOD8254328 Si02
#       8
#     8   8   8   8   8   8   8   8
#     4  10  23  42  65  92 123 165 213 254 308 376
#     4  11  23  40  61  91 125 160 203 256 315 367
#     4  12  25  41  65  97 130 162 205 260 317 371
#     4  10  22  40  62  93 123 158 207 257 305 359
#     4  10  23  39  61  91 124 160 203 255 312 371
#     4  10  22  41  64  87 124 167 205 247 304 368
#     4  11  24  42  65  92 125 167 213 258 311 379
#     4  10  21  41  65  88 118 161 206 251 309 374
#
# _framework density 19.892600000000002
#
# number of rings (size 3 to 8) (size 9 to 14) (size 15 to 20)
#    0.000    1.500    1.250    3.000    3.500    4.000 
#    0.000    0.000    0.000    0.000    0.000    0.000 
#    0.000    0.000    0.000    0.000    0.000    0.000 
#
# Total GULP energy -794048.000193 kJ/mol
# GULP energy per Si atom -12407.000003 kJ/mol
# Density = 1.984732 g / cm^3
# Si number density = 19.892600 Si / 1000 Ang^3
#
#
#
# Elastic Constant Matrix: (Units=GPa)
#
#
# Indices 1 2 3 4 5 6 
#
# 1 87.0519 33.3632 12.9321 0.0000 0.0000 0.0000
# 2 33.3632 76.2977 21.7053 0.0000 0.0000 0.0000
# 3 12.9321 21.7053 81.9499 0.0000 0.0000 0.0000
# 4 0.0000 0.0000 0.0000 32.7084 0.0000 0.0000
# 5 0.0000 0.0000 0.0000 0.0000 26.1426 0.0000
# 6 0.0000 0.0000 0.0000 0.0000 0.0000 20.0345
#
#
#
# Elastic Compliance Matrix: (Units=1/GPa)
#
#
# Indices 1 2 3 4 5 6 
#
# 1 0.013830 -0.005869 -0.000628 0.000000 0.000000 0.000000
# 2 -0.005869 0.016665 -0.003488 0.000000 0.000000 0.000000
# 3 -0.000628 -0.003488 0.013225 0.000000 0.000000 0.000000
# 4 0.000000 0.000000 0.000000 0.030573 0.000000 0.000000
# 5 0.000000 0.000000 0.000000 0.000000 0.038252 0.000000
# 6 0.000000 0.000000 0.000000 0.000000 0.000000 0.049914
#
#
# Mechanical properties :
#
#
# Convention : Reuss Voigt Hill
#
# Bulk Modulus (GPa) = 42.10316 42.36676 42.23496
# Shear Modulus (GPa) = 26.26797 27.59701 26.93249
#
# Velocity S-wave (km/s) = 3.63780 3.72869 3.68352
# Velocity P-wave (km/s) = 6.23345 6.31518 6.27445
#
# Compressibility (1/GPa) = 0.02375118
#
# Stress axis : x y z
#
# Youngs Moduli (GPa) = 72.30666 60.00566 75.61176
#
# Poissons Ratio (x) = 0.35217 0.04748
# Poissons Ratio (y) = 0.42436 0.26372
# Poissons Ratio (z) = 0.04541 0.20929
#
# Static dielectric constant tensor:
#      x y z
#    x 3.593560 0.000000 0.000000 
#    y 0.000000 3.645490 0.000000 
#    z 0.000000 0.000000 3.804360 
# 
# 
# High freq. dielectric constant tensor:
#      x y z
#    x 1.779130 0.000000 0.000000 
#    y 0.000000 1.779200 0.000000 
#    z 0.000000 0.000000 1.789440 
# 
# From -- ./inp_files/29904.got.cif
#   From: 2010.03.12/outbox.cif.g09.slc.cpg/sg62_15_cif.got.tgz:29904.got - 2010.04.10 19:12:36.
