data_PCOD8254988
_publ_section_title
;
Structure prediction by ZEFSAII (Michael W. Deem and Ramdas Pophale) SiO2 
 PCOD8254988
Probable space group: P N M A
;
_chemical_formula_sum "Si O2"
_cell_formula_units_Z 40
_cell_length_a 8.750939
_cell_length_b 18.596244
_cell_length_c 12.235371
_cell_angle_alpha 90.000000
_cell_angle_beta 90.000000
_cell_angle_gamma 90.000000
_cell_volume 1991.118167
_symmetry_space_group_name_H-M "P N M A"
_symmetry_group_IT_number 62
_symmetry_cell_setting 'orthorhombic'
loop_
_space_group_symop_operation_xyz
x,y,z
1/2-x,-y,1/2+z
1/2+x,1/2-y,1/2-z
-x,1/2+y,-z
-x,-y,-z
1/2+x,y,1/2-z
1/2-x,1/2+y,1/2+z
x,1/2-y,z
loop_
_atom_site_type_symbol
_atom_site_label
_atom_site_fract_x
_atom_site_fract_y
_atom_site_fract_z
Si Si1 0.500889 0.831692 0.814440
Si Si2 0.814589 0.110840 0.131355
Si Si3 0.816263 0.554103 0.178466
Si Si4 0.338199 0.064618 0.606005
Si Si5 0.138729 0.944242 0.520840
O O1 0.553758 0.750000 0.831590
O O2 0.535435 0.858417 0.691037
O O3 0.321369 0.837311 0.832193
O O4 0.590497 0.880698 0.900600
O O5 0.778620 0.030730 0.173554
O O6 0.830724 0.116231 0.999707
O O7 0.778652 0.587786 0.297493
O O8 0.992633 0.566113 0.153472
O O9 0.700255 0.590948 0.091900
O O10 0.287841 0.984750 0.569575
O O11 0.000000 0.000000 0.500000
#
# Coordination Sequence:
#
# PCOD8254988 Si02
#       5
#     8   8   8   8   8
#     4  12  25  40  61  89 129 172 208 260 322 384
#     4  11  23  39  58  91 131 165 211 255 319 384
#     4  11  21  36  64  96 128 161 213 271 330 365
#     4  11  22  36  63  97 127 165 206 278 319 374
#     4  11  20  38  62  93 127 165 215 267 316 375
#
# _framework density 20.089213000000001
#
# number of rings (size 3 to 8) (size 9 to 14) (size 15 to 20)
#    0.000    0.800    6.000    5.400    2.800    0.000 
#    0.000    0.000    0.000    2.400    0.000    0.000 
#    0.000    0.000    0.000    0.000    0.000    0.000 
#
# Total GULP energy -495890.543714 kJ/mol
# GULP energy per Si atom -12397.263593 kJ/mol
# Density = 2.004349 g / cm^3
# Si number density = 20.089213 Si / 1000 Ang^3
#
#
#
# Elastic Constant Matrix: (Units=GPa)
#
#
# Indices 1 2 3 4 5 6 
#
# 1 116.4265 27.8397 76.8227 0.0000 0.0000 0.0000
# 2 27.8397 64.5672 43.5307 0.0000 0.0000 0.0000
# 3 76.8227 43.5307 191.8394 0.0000 0.0000 0.0000
# 4 0.0000 0.0000 0.0000 14.9881 0.0000 0.0000
# 5 0.0000 0.0000 0.0000 0.0000 44.8941 0.0000
# 6 0.0000 0.0000 0.0000 0.0000 0.0000 20.1188
#
#
#
# Elastic Compliance Matrix: (Units=1/GPa)
#
#
# Indices 1 2 3 4 5 6 
#
# 1 0.011950 -0.002274 -0.004269 0.000000 0.000000 0.000000
# 2 -0.002274 0.018718 -0.003337 0.000000 0.000000 0.000000
# 3 -0.004269 -0.003337 0.007680 0.000000 0.000000 0.000000
# 4 0.000000 0.000000 0.000000 0.066720 0.000000 0.000000
# 5 0.000000 0.000000 0.000000 0.000000 0.022275 0.000000
# 6 0.000000 0.000000 0.000000 0.000000 0.000000 0.049705
#
#
# Mechanical properties :
#
#
# Convention : Reuss Voigt Hill
#
# Bulk Modulus (GPa) = 53.80097 74.35772 64.07935
# Shear Modulus (GPa) = 24.63025 30.97620 27.80322
#
# Velocity S-wave (km/s) = 3.50529 3.93100 3.72423
# Velocity P-wave (km/s) = 6.57434 7.59591 7.10351
#
# Compressibility (1/GPa) = 0.01858702
#
# Stress axis : x y z
#
# Youngs Moduli (GPa) = 83.68192 53.42507 130.21669
#
# Poissons Ratio (x) = 0.12150 0.55595
# Poissons Ratio (y) = 0.19030 0.43448
# Poissons Ratio (z) = 0.35727 0.17826
#
# Static dielectric constant tensor:
#      x y z
#    x 3.814520 0.000000 0.000000 
#    y 0.000000 3.176970 0.000000 
#    z 0.000000 0.000000 4.256180 
# 
# 
# High freq. dielectric constant tensor:
#      x y z
#    x 1.802980 0.000000 0.000000 
#    y 0.000000 1.715040 0.000000 
#    z 0.000000 0.000000 1.808560 
# 
# From -- ./inp_files/11050.got.cif
#   From: 2010.03.12/outbox.cif.g09.slc.cpg/sg62_6_cif.got.tgz:11050.got - 2010.04.10 19:12:36.
