data_PCOD8254737
_publ_section_title
;
Structure prediction by ZEFSAII (Michael W. Deem and Ramdas Pophale) SiO2 
 PCOD8254737
Probable space group: P N M A
;
_chemical_formula_sum "Si O2"
_cell_formula_units_Z 48
_cell_length_a 13.798950
_cell_length_b 27.024577
_cell_length_c 5.315376
_cell_angle_alpha 90.000000
_cell_angle_beta 90.000000
_cell_angle_gamma 90.000000
_cell_volume 1982.161046
_symmetry_space_group_name_H-M "P N M A"
_symmetry_group_IT_number 62
_symmetry_cell_setting 'orthorhombic'
loop_
_space_group_symop_operation_xyz
x,y,z
1/2-x,-y,1/2+z
1/2+x,1/2-y,1/2-z
-x,1/2+y,-z
-x,-y,-z
1/2+x,y,1/2-z
1/2-x,1/2+y,1/2+z
x,1/2-y,z
loop_
_atom_site_type_symbol
_atom_site_label
_atom_site_fract_x
_atom_site_fract_y
_atom_site_fract_z
Si Si1 0.667133 0.565723 0.796369
Si Si2 0.975681 0.611487 0.784807
Si Si3 0.083566 0.694753 0.565888
Si Si4 0.687569 0.116107 0.641102
Si Si5 0.652305 0.034896 0.002638
Si Si6 0.705554 0.805326 0.433402
O O1 0.582005 0.591328 0.631008
O O2 0.739593 0.537717 0.612738
O O3 0.622127 0.522575 0.975699
O O4 0.719232 0.609065 0.958909
O O5 0.922739 0.563576 0.676290
O O6 0.995674 0.655345 0.583599
O O7 0.908489 0.636175 0.998785
O O8 0.041752 0.750000 0.603792
O O9 0.127483 0.689828 0.288964
O O10 0.160642 0.684443 0.792711
O O11 0.656393 0.061970 0.734532
O O12 0.712073 0.153318 0.872567
O O13 0.751243 0.750000 0.426286
#
# Coordination Sequence:
#
# PCOD8254737 Si02
#       6
#     8   8   8   8   8   8
#     4  11  22  44  62  89 136 172 227 280 338 416
#     4  11  25  39  65 100 129 174 229 285 343 408
#     4  10  22  43  70  98 134 178 220 275 345 403
#     4  11  24  40  65  94 131 177 224 280 344 405
#     4  11  24  41  64  94 126 183 225 277 351 406
#     4  10  22  43  71  98 131 180 224 273 339 407
#
# _framework density 24.215993000000001
#
# number of rings (size 3 to 8) (size 9 to 14) (size 15 to 20)
#    0.000    1.333    3.333    1.500    4.667    2.667 
#    0.000    0.833    0.000    0.000    0.000    0.000 
#    0.000    0.000    0.000    0.000    0.000    0.000 
#
# Total GULP energy -594918.795382 kJ/mol
# GULP energy per Si atom -12394.141570 kJ/mol
# Density = 2.416088 g / cm^3
# Si number density = 24.215993 Si / 1000 Ang^3
#
#
#
# Elastic Constant Matrix: (Units=GPa)
#
#
# Indices 1 2 3 4 5 6 
#
# 1 70.8915 3.7207 -9.8963 0.0000 0.0000 0.0000
# 2 3.7207 99.8879 -21.2149 0.0000 0.0000 0.0000
# 3 -9.8963 -21.2149 51.4797 0.0000 0.0000 0.0000
# 4 0.0000 0.0000 0.0000 39.7606 0.0000 0.0000
# 5 0.0000 0.0000 0.0000 0.0000 16.5673 0.0000
# 6 0.0000 0.0000 0.0000 0.0000 0.0000 26.8356
#
#
#
# Elastic Compliance Matrix: (Units=1/GPa)
#
#
# Indices 1 2 3 4 5 6 
#
# 1 0.014495 0.000057 0.002810 0.000000 0.000000 0.000000
# 2 0.000057 0.010972 0.004532 0.000000 0.000000 0.000000
# 3 0.002810 0.004532 0.021833 0.000000 0.000000 0.000000
# 4 0.000000 0.000000 0.000000 0.025151 0.000000 0.000000
# 5 0.000000 0.000000 0.000000 0.000000 0.060360 0.000000
# 6 0.000000 0.000000 0.000000 0.000000 0.000000 0.037264
#
#
# Mechanical properties :
#
#
# Convention : Reuss Voigt Hill
#
# Bulk Modulus (GPa) = 16.10339 18.60868 17.35604
# Shear Modulus (GPa) = 28.41304 33.27601 30.84453
#
# Velocity S-wave (km/s) = 3.42909 3.71095 3.57280
# Velocity P-wave (km/s) = 4.72679 5.10516 4.91962
#
# Compressibility (1/GPa) = 0.06209871
#
# Stress axis : x y z
#
# Youngs Moduli (GPa) = 68.98762 91.14341 45.80196
#
# Poissons Ratio (x) = -0.00518 -0.12870
# Poissons Ratio (y) = -0.00392 -0.20759
# Poissons Ratio (z) = -0.19385 -0.41310
#
# Static dielectric constant tensor:
#      x y z
#    x 4.157830 0.000000 0.000000 
#    y 0.000000 4.832200 0.000000 
#    z 0.000000 0.000000 4.179470 
# 
# 
# High freq. dielectric constant tensor:
#      x y z
#    x 1.941270 0.000000 0.000000 
#    y 0.000000 1.983100 0.000000 
#    z 0.000000 0.000000 1.950880 
# 
# From -- ./inp_files/1126.got.cif
#   From: 2010.03.12/outbox.cif.g09.slc.cpg/sg62_1_cif.got.tgz:1126.got - 2010.04.10 19:12:36.
