data_PCOD8254398
_publ_section_title
;
Structure prediction by ZEFSAII (Michael W. Deem and Ramdas Pophale) SiO2 
 PCOD8254398
Probable space group: P N M A
;
_chemical_formula_sum "Si O2"
_cell_formula_units_Z 32
_cell_length_a 10.285454
_cell_length_b 21.410471
_cell_length_c 7.420685
_cell_angle_alpha 90.000000
_cell_angle_beta 90.000000
_cell_angle_gamma 90.000000
_cell_volume 1634.156644
_symmetry_space_group_name_H-M "P N M A"
_symmetry_group_IT_number 62
_symmetry_cell_setting 'orthorhombic'
loop_
_space_group_symop_operation_xyz
x,y,z
1/2-x,-y,1/2+z
1/2+x,1/2-y,1/2-z
-x,1/2+y,-z
-x,-y,-z
1/2+x,y,1/2-z
1/2-x,1/2+y,1/2+z
x,1/2-y,z
loop_
_atom_site_type_symbol
_atom_site_label
_atom_site_fract_x
_atom_site_fract_y
_atom_site_fract_z
Si Si1 0.816515 0.681628 0.086265
Si Si2 0.412234 0.364178 0.712991
Si Si3 0.876722 0.463349 0.071857
Si Si4 0.320321 0.066559 0.031385
O O1 0.820026 0.750000 0.990238
O O2 0.703066 0.684012 0.237968
O O3 0.952928 0.670939 0.185545
O O4 0.784534 0.624431 0.948253
O O5 0.365263 0.398504 0.532581
O O6 0.426635 0.414071 0.879356
O O7 0.749059 0.504613 0.041761
O O8 0.892148 0.446995 0.282227
O O9 0.000000 0.500000 0.000000
#
# Coordination Sequence:
#
# PCOD8254398 Si02
#       4
#     8   8   8   8
#     4  10  21  43  63  87 126 170 212 257 312 374
#     4  10  22  39  65  92 122 168 207 263 314 379
#     4  12  21  40  62  97 127 160 209 266 330 382
#     4  10  23  37  63  94 126 161 209 265 321 378
#
# _framework density 19.581966999999999
#
# number of rings (size 3 to 8) (size 9 to 14) (size 15 to 20)
#    1.500    0.000    5.000    0.750    0.000    3.000 
#    0.000    2.500    0.000    0.000    0.000    0.000 
#    0.000    0.000    0.000    0.000    0.000    0.000 
#
# Total GULP energy -396483.897165 kJ/mol
# GULP energy per Si atom -12390.121786 kJ/mol
# Density = 1.953740 g / cm^3
# Si number density = 19.581967 Si / 1000 Ang^3
#
#
#
# Elastic Constant Matrix: (Units=GPa)
#
#
# Indices 1 2 3 4 5 6 
#
# 1 85.4453 30.4241 3.3234 0.0000 0.0000 0.0000
# 2 30.4241 75.0003 13.7539 0.0000 0.0000 0.0000
# 3 3.3234 13.7539 81.9354 0.0000 0.0000 0.0000
# 4 0.0000 0.0000 0.0000 20.4020 0.0000 0.0000
# 5 0.0000 0.0000 0.0000 0.0000 28.8881 0.0000
# 6 0.0000 0.0000 0.0000 0.0000 0.0000 -14.8331
#
#
#
# Elastic Compliance Matrix: (Units=1/GPa)
#
#
# Indices 1 2 3 4 5 6 
#
# 1 0.013691 -0.005625 0.000389 0.000000 0.000000 0.000000
# 2 -0.005625 0.016068 -0.002469 0.000000 0.000000 0.000000
# 3 0.000389 -0.002469 0.012603 0.000000 0.000000 0.000000
# 4 0.000000 0.000000 0.000000 0.049015 0.000000 0.000000
# 5 0.000000 0.000000 0.000000 0.000000 0.034616 0.000000
# 6 0.000000 0.000000 0.000000 0.000000 0.000000 -0.067417
#
#
# Mechanical properties :
#
#
# Convention : Reuss Voigt Hill
#
# Bulk Modulus (GPa) = 37.10309 37.48710 37.29510
# Shear Modulus (GPa) = 60.26180 19.88338 40.07259
#
# Velocity S-wave (km/s) = 5.55346 3.18998 4.52863
# Velocity P-wave (km/s) = 7.75306 5.72304 6.81407
#
# Compressibility (1/GPa) = 0.02695193
#
# Stress axis : x y z
#
# Youngs Moduli (GPa) = 73.03959 62.23575 79.34351
#
# Poissons Ratio (x) = 0.35009 -0.03086
# Poissons Ratio (y) = 0.41086 0.19590
# Poissons Ratio (z) = -0.02841 0.15366
#
# Static dielectric constant tensor:
#      x y z
#    x 3.398190 0.000000 0.000000 
#    y 0.000000 3.852320 0.000000 
#    z 0.000000 0.000000 3.389700 
# 
# 
# High freq. dielectric constant tensor:
#      x y z
#    x 1.760000 0.000000 0.000000 
#    y 0.000000 1.765400 0.000000 
#    z 0.000000 0.000000 1.737480 
# 
# From -- ./inp_files/428.got.cif
#   From: 2010.03.12/outbox.cif.g09.slc.cpg/sg62_1_cif.got.tgz:428.got - 2010.04.10 19:12:36.
