data_PCOD8254913
_publ_section_title
;
Structure prediction by ZEFSAII (Michael W. Deem and Ramdas Pophale) SiO2 
 PCOD8254913
Probable space group: P N M A
;
_chemical_formula_sum "Si O2"
_cell_formula_units_Z 24
_cell_length_a 8.793725
_cell_length_b 13.336012
_cell_length_c 7.491394
_cell_angle_alpha 90.000000
_cell_angle_beta 90.000000
_cell_angle_gamma 90.000000
_cell_volume 878.539913
_symmetry_space_group_name_H-M "P N M A"
_symmetry_group_IT_number 62
_symmetry_cell_setting 'orthorhombic'
loop_
_space_group_symop_operation_xyz
x,y,z
1/2-x,-y,1/2+z
1/2+x,1/2-y,1/2-z
-x,1/2+y,-z
-x,-y,-z
1/2+x,y,1/2-z
1/2-x,1/2+y,1/2+z
x,1/2-y,z
loop_
_atom_site_type_symbol
_atom_site_label
_atom_site_fract_x
_atom_site_fract_y
_atom_site_fract_z
Si Si1 0.202978 0.945139 0.363600
Si Si2 0.022345 0.863982 0.053852
Si Si3 0.981860 0.638140 0.649560
O O1 0.166382 0.903907 0.165591
O O2 0.382895 0.936417 0.390665
O O3 0.119354 0.879138 0.512869
O O4 0.155291 0.061139 0.381938
O O5 0.982931 0.750000 0.108462
O O6 0.055988 0.872736 0.844693
O O7 0.914594 0.750000 0.621039
#
# Coordination Sequence:
#
# PCOD8254913 Si02
#       3
#     8   8   8
#     4  11  25  44  71 102 138 178 230 281 340 402
#     4  11  24  44  70 103 138 178 226 281 343 404
#     4  10  24  44  67  96 138 184 226 275 338 408
#
# _framework density 27.318051000000001
#
# number of rings (size 3 to 8) (size 9 to 14) (size 15 to 20)
#    0.000    1.333    0.000    4.000    9.333    2.667 
#    0.000    3.333    0.000    0.000    0.000    0.000 
#    0.000    0.000    0.000    0.000    0.000    0.000 
#
# Total GULP energy -297825.026219 kJ/mol
# GULP energy per Si atom -12409.376092 kJ/mol
# Density = 2.725587 g / cm^3
# Si number density = 27.318051 Si / 1000 Ang^3
#
#
#
# Elastic Constant Matrix: (Units=GPa)
#
#
# Indices 1 2 3 4 5 6 
#
# 1 30.8418 -2.7053 8.4356 0.0000 0.0000 0.0000
# 2 -2.7053 179.9988 39.3631 0.0000 0.0000 0.0000
# 3 8.4356 39.3631 155.1305 0.0000 0.0000 0.0000
# 4 0.0000 0.0000 0.0000 36.2244 0.0000 0.0000
# 5 0.0000 0.0000 0.0000 0.0000 22.1425 0.0000
# 6 0.0000 0.0000 0.0000 0.0000 0.0000 16.3635
#
#
#
# Elastic Compliance Matrix: (Units=1/GPa)
#
#
# Indices 1 2 3 4 5 6 
#
# 1 0.033063 0.000942 -0.002037 0.000000 0.000000 0.000000
# 2 0.000942 0.005909 -0.001551 0.000000 0.000000 0.000000
# 3 -0.002037 -0.001551 0.006950 0.000000 0.000000 0.000000
# 4 0.000000 0.000000 0.000000 0.027606 0.000000 0.000000
# 5 0.000000 0.000000 0.000000 0.000000 0.045162 0.000000
# 6 0.000000 0.000000 0.000000 0.000000 0.000000 0.061112
#
#
# Mechanical properties :
#
#
# Convention : Reuss Voigt Hill
#
# Bulk Modulus (GPa) = 24.61104 50.68423 37.64764
# Shear Modulus (GPa) = 25.17159 36.33790 30.75474
#
# Velocity S-wave (km/s) = 3.03879 3.65112 3.35894
# Velocity P-wave (km/s) = 4.61963 6.03058 5.37163
#
# Compressibility (1/GPa) = 0.04063216
#
# Stress axis : x y z
#
# Youngs Moduli (GPa) = 30.24498 169.23792 143.87662
#
# Poissons Ratio (x) = -0.15949 0.29308
# Poissons Ratio (y) = -0.02850 0.22309
# Poissons Ratio (z) = 0.06161 0.26241
#
# Static dielectric constant tensor:
#      x y z
#    x 4.445320 0.000000 0.000000 
#    y 0.000000 5.475660 0.000000 
#    z 0.000000 0.000000 5.467020 
# 
# 
# High freq. dielectric constant tensor:
#      x y z
#    x 2.080160 0.000000 0.000000 
#    y 0.000000 2.127900 0.000000 
#    z 0.000000 0.000000 2.123180 
# 
# From -- ./inp_files/3978.got.cif
#   From: 2010.03.12/outbox.cif.g09.slc.cpg/sg62_2_cif.got.tgz:3978.got - 2010.04.10 19:12:36.
