data_PCOD8254596
_publ_section_title
;
Structure prediction by ZEFSAII (Michael W. Deem and Ramdas Pophale) SiO2 
 PCOD8254596
Probable space group: P N M A
;
_chemical_formula_sum "Si O2"
_cell_formula_units_Z 48
_cell_length_a 29.292766
_cell_length_b 9.517415
_cell_length_c 8.670901
_cell_angle_alpha 90.000000
_cell_angle_beta 90.000000
_cell_angle_gamma 90.000000
_cell_volume 2417.372720
_symmetry_space_group_name_H-M "P N M A"
_symmetry_group_IT_number 62
_symmetry_cell_setting 'orthorhombic'
loop_
_space_group_symop_operation_xyz
x,y,z
1/2-x,-y,1/2+z
1/2+x,1/2-y,1/2-z
-x,1/2+y,-z
-x,-y,-z
1/2+x,y,1/2-z
1/2-x,1/2+y,1/2+z
x,1/2-y,z
loop_
_atom_site_type_symbol
_atom_site_label
_atom_site_fract_x
_atom_site_fract_y
_atom_site_fract_z
Si Si1 0.583930 0.095650 0.212400
Si Si2 0.821025 0.487558 0.819186
Si Si3 0.395974 0.250000 0.153308
Si Si4 0.677909 0.750000 0.572999
Si Si5 0.245019 0.250000 0.188023
Si Si6 0.509544 0.905056 0.355691
Si Si7 0.547314 0.480416 0.909670
Si Si8 0.317230 0.250000 0.922048
O O1 0.567328 0.250000 0.268711
O O2 0.633138 0.070613 0.282339
O O3 0.551974 0.970274 0.266145
O O4 0.583280 0.095865 0.024131
O O5 0.783141 0.607302 0.834707
O O6 0.808415 0.388439 0.677196
O O7 0.826301 0.392418 0.972392
O O8 0.362567 0.250000 0.301094
O O9 0.430149 0.120302 0.156270
O O10 0.368193 0.250000 0.992284
O O11 0.728295 0.750000 0.649037
O O12 0.281919 0.250000 0.057018
O O13 0.523337 0.750000 0.411800
O O14 0.500000 0.000000 0.500000
O O15 0.465376 0.892612 0.243759
O O16 0.500000 0.500000 0.000000
#
# Coordination Sequence:
#
# PCOD8254596 Si02
#       8
#     8   8   4   4   4   8   8   4
#     4  11  23  40  64  93 125 168 215 262 318 372
#     4  11  22  40  66  97 127 162 211 266 317 389
#     4  11  22  42  63  95 123 172 215 272 309 387
#     4  10  26  40  68  96 127 170 212 264 327 392
#     4  11  22  44  65  95 132 165 207 260 330 384
#     4  11  26  41  63  91 129 173 213 267 317 376
#     4  10  24  37  65  89 126 165 224 258 316 374
#     4  10  22  40  68  92 124 169 214 250 322 395
#
# _framework density 19.856266999999999
#
# number of rings (size 3 to 8) (size 9 to 14) (size 15 to 20)
#    0.000    1.333    2.500    2.000   15.167    0.000 
#    0.000    0.000    1.833    0.000    0.000    0.000 
#    0.000    0.000    0.000    0.000    0.000    0.000 
#
# Total GULP energy -594967.030531 kJ/mol
# GULP energy per Si atom -12395.146469 kJ/mol
# Density = 1.981107 g / cm^3
# Si number density = 19.856267 Si / 1000 Ang^3
#
#
#
# Elastic Constant Matrix: (Units=GPa)
#
#
# Indices 1 2 3 4 5 6 
#
# 1 88.7282 40.1465 30.1244 0.0000 0.0000 0.0000
# 2 40.1465 154.5816 39.5757 0.0000 0.0000 0.0000
# 3 30.1244 39.5757 104.2697 0.0000 0.0000 0.0000
# 4 0.0000 0.0000 0.0000 19.8161 0.0000 0.0000
# 5 0.0000 0.0000 0.0000 0.0000 27.2298 0.0000
# 6 0.0000 0.0000 0.0000 0.0000 0.0000 34.5903
#
#
#
# Elastic Compliance Matrix: (Units=1/GPa)
#
#
# Indices 1 2 3 4 5 6 
#
# 1 0.013492 -0.002776 -0.002844 0.000000 0.000000 0.000000
# 2 -0.002776 0.007736 -0.002134 0.000000 0.000000 0.000000
# 3 -0.002844 -0.002134 0.011222 0.000000 0.000000 0.000000
# 4 0.000000 0.000000 0.000000 0.050464 0.000000 0.000000
# 5 0.000000 0.000000 0.000000 0.000000 0.036724 0.000000
# 6 0.000000 0.000000 0.000000 0.000000 0.000000 0.028910
#
#
# Mechanical properties :
#
#
# Convention : Reuss Voigt Hill
#
# Bulk Modulus (GPa) = 59.02620 63.03028 61.02824
# Shear Modulus (GPa) = 29.46279 32.17612 30.81945
#
# Velocity S-wave (km/s) = 3.85620 4.02985 3.94398
# Velocity P-wave (km/s) = 7.04402 7.31198 7.17925
#
# Compressibility (1/GPa) = 0.01694163
#
# Stress axis : x y z
#
# Youngs Moduli (GPa) = 74.11772 129.25859 89.10749
#
# Poissons Ratio (x) = 0.35880 0.25346
# Poissons Ratio (y) = 0.20574 0.19019
# Poissons Ratio (z) = 0.21082 0.27589
#
# Static dielectric constant tensor:
#      x y z
#    x 3.817250 0.000000 0.000000 
#    y 0.000000 3.567110 0.000000 
#    z 0.000000 0.000000 4.163460 
# 
# 
# High freq. dielectric constant tensor:
#      x y z
#    x 1.769020 0.000000 0.000000 
#    y 0.000000 1.786470 0.000000 
#    z 0.000000 0.000000 1.784460 
# 
# From -- ./inp_files/10348.got.cif
#   From: 2010.03.12/outbox.cif.g09.slc.cpg/sg62_6_cif.got.tgz:10348.got - 2010.04.10 19:12:36.
