data_PCOD8254566
_publ_section_title
;
Structure prediction by ZEFSAII (Michael W. Deem and Ramdas Pophale) SiO2 
 PCOD8254566
Probable space group: P N M A
;
_chemical_formula_sum "Si O2"
_cell_formula_units_Z 48
_cell_length_a 22.525447
_cell_length_b 17.700018
_cell_length_c 4.898094
_cell_angle_alpha 90.000000
_cell_angle_beta 90.000000
_cell_angle_gamma 90.000000
_cell_volume 1952.874081
_symmetry_space_group_name_H-M "P N M A"
_symmetry_group_IT_number 62
_symmetry_cell_setting 'orthorhombic'
loop_
_space_group_symop_operation_xyz
x,y,z
1/2-x,-y,1/2+z
1/2+x,1/2-y,1/2-z
-x,1/2+y,-z
-x,-y,-z
1/2+x,y,1/2-z
1/2-x,1/2+y,1/2+z
x,1/2-y,z
loop_
_atom_site_type_symbol
_atom_site_label
_atom_site_fract_x
_atom_site_fract_y
_atom_site_fract_z
Si Si1 0.104311 0.331992 0.224486
Si Si2 0.299200 0.164755 0.534737
Si Si3 0.284500 0.022671 0.198909
Si Si4 0.825028 0.872241 0.280921
Si Si5 0.567692 0.838043 0.420645
Si Si6 0.491366 0.413300 0.085772
O O1 0.076129 0.250000 0.278512
O O2 0.160902 0.347072 0.413178
O O3 0.054225 0.392752 0.280835
O O4 0.130626 0.330411 0.920446
O O5 0.294176 0.250000 0.420716
O O6 0.298180 0.108796 0.272623
O O7 0.245526 0.147934 0.748605
O O8 0.363684 0.153244 0.677176
O O9 0.228974 0.991206 0.380234
O O10 0.336741 0.962241 0.267656
O O11 0.553500 0.750000 0.491765
O O12 0.557557 0.892655 0.683796
O O13 0.523815 0.864530 0.181334
O O14 0.500000 0.500000 0.000000
#
# Coordination Sequence:
#
# PCOD8254566 Si02
#       6
#     8   8   8   8   8   8
#     4  12  25  43  70 100 140 185 233 295 352 422
#     4  10  23  43  71 104 142 182 230 287 355 433
#     4  10  22  40  62  92 133 180 219 273 337 413
#     4  11  24  42  70 104 142 180 230 284 360 430
#     4  11  25  47  74 104 145 191 244 307 365 433
#     4  12  28  47  74 105 142 195 252 307 362 434
#
# _framework density 24.579158
#
# number of rings (size 3 to 8) (size 9 to 14) (size 15 to 20)
#    0.000    1.000    0.000    6.500    4.667    4.000 
#    0.000    9.167    0.000    0.000    0.000    0.000 
#    0.000    0.000    0.000    0.000    0.000    0.000 
#
# Total GULP energy -594765.220661 kJ/mol
# GULP energy per Si atom -12390.942097 kJ/mol
# Density = 2.452322 g / cm^3
# Si number density = 24.579158 Si / 1000 Ang^3
#
#
#
# Elastic Constant Matrix: (Units=GPa)
#
#
# Indices 1 2 3 4 5 6 
#
# 1 132.1451 45.8952 26.1754 0.0000 0.0000 0.0000
# 2 45.8952 166.2052 12.5590 0.0000 0.0000 0.0000
# 3 26.1754 12.5590 70.4468 0.0000 0.0000 0.0000
# 4 0.0000 0.0000 0.0000 34.9972 0.0000 0.0000
# 5 0.0000 0.0000 0.0000 0.0000 27.3574 0.0000
# 6 0.0000 0.0000 0.0000 0.0000 0.0000 36.2840
#
#
#
# Elastic Compliance Matrix: (Units=1/GPa)
#
#
# Indices 1 2 3 4 5 6 
#
# 1 0.008924 -0.002244 -0.002916 0.000000 0.000000 0.000000
# 2 -0.002244 0.006663 -0.000354 0.000000 0.000000 0.000000
# 3 -0.002916 -0.000354 0.015342 0.000000 0.000000 0.000000
# 4 0.000000 0.000000 0.000000 0.028574 0.000000 0.000000
# 5 0.000000 0.000000 0.000000 0.000000 0.036553 0.000000
# 6 0.000000 0.000000 0.000000 0.000000 0.000000 0.027560
#
#
# Mechanical properties :
#
#
# Convention : Reuss Voigt Hill
#
# Bulk Modulus (GPa) = 50.24841 59.78403 55.01622
# Shear Modulus (GPa) = 35.39121 38.67223 37.03172
#
# Velocity S-wave (km/s) = 3.79870 3.97088 3.88575
# Velocity P-wave (km/s) = 6.30302 6.73793 6.52410
#
# Compressibility (1/GPa) = 0.01990113
#
# Stress axis : x y z
#
# Youngs Moduli (GPa) = 112.05241 150.08110 65.18191
#
# Poissons Ratio (x) = 0.33678 0.19007
# Poissons Ratio (y) = 0.25145 0.02308
# Poissons Ratio (z) = 0.32674 0.05314
#
# Static dielectric constant tensor:
#      x y z
#    x 4.360080 0.000000 0.000000 
#    y 0.000000 4.887160 0.000000 
#    z 0.000000 0.000000 4.206560 
# 
# 
# High freq. dielectric constant tensor:
#      x y z
#    x 1.971160 0.000000 0.000000 
#    y 0.000000 2.000240 0.000000 
#    z 0.000000 0.000000 1.967310 
# 
# From -- ./inp_files/2755.got.cif
#   From: 2010.03.12/outbox.cif.g09.slc.cpg/sg62_2_cif.got.tgz:2755.got - 2010.04.10 19:12:36.
