data_PCOD8254427
_publ_section_title
;
Structure prediction by ZEFSAII (Michael W. Deem and Ramdas Pophale) SiO2 
 PCOD8254427
Probable space group: P N M A
;
_chemical_formula_sum "Si O2"
_cell_formula_units_Z 40
_cell_length_a 7.687524
_cell_length_b 22.342431
_cell_length_c 12.178674
_cell_angle_alpha 90.000000
_cell_angle_beta 90.000000
_cell_angle_gamma 90.000000
_cell_volume 2091.784379
_symmetry_space_group_name_H-M "P N M A"
_symmetry_group_IT_number 62
_symmetry_cell_setting 'orthorhombic'
loop_
_space_group_symop_operation_xyz
x,y,z
1/2-x,-y,1/2+z
1/2+x,1/2-y,1/2-z
-x,1/2+y,-z
-x,-y,-z
1/2+x,y,1/2-z
1/2-x,1/2+y,1/2+z
x,1/2-y,z
loop_
_atom_site_type_symbol
_atom_site_label
_atom_site_fract_x
_atom_site_fract_y
_atom_site_fract_z
Si Si1 0.018078 0.899486 0.967250
Si Si2 0.051126 0.479452 0.846709
Si Si3 0.148634 0.362526 0.354246
Si Si4 0.229452 0.818572 0.619005
Si Si5 0.072675 0.497361 0.378588
O O1 0.189577 0.860206 0.939160
O O2 0.846118 0.858324 0.963275
O O3 0.987593 0.954269 0.881856
O O4 0.053410 0.927602 0.088193
O O5 0.247143 0.468050 0.884408
O O6 0.044127 0.470818 0.714816
O O7 0.214577 0.332361 0.243132
O O8 0.097531 0.430777 0.333890
O O9 0.976539 0.329695 0.399875
O O10 0.269447 0.750000 0.592215
O O11 0.000000 0.500000 0.500000
#
# Coordination Sequence:
#
# PCOD8254427 Si02
#       5
#     8   8   8   8   8
#     4  10  22  38  55  84 127 160 196 247 307 375
#     4  10  22  36  59  88 125 163 197 241 319 374
#     4  11  21  35  54  81 125 160 200 250 305 365
#     4  12  22  35  57  87 120 160 208 261 313 363
#     4  11  22  36  60  87 129 162 201 248 305 381
#
# _framework density 19.122429
#
# number of rings (size 3 to 8) (size 9 to 14) (size 15 to 20)
#    0.000    1.200    4.000    3.000    8.400    0.800 
#    0.000    0.000    0.000    0.000    0.000    7.000 
#    0.000    0.000    0.000    0.000    0.000    0.000 
#
# Total GULP energy -495793.533747 kJ/mol
# GULP energy per Si atom -12394.838344 kJ/mol
# Density = 1.907891 g / cm^3
# Si number density = 19.122429 Si / 1000 Ang^3
#
#
#
# Elastic Constant Matrix: (Units=GPa)
#
#
# Indices 1 2 3 4 5 6 
#
# 1 106.8239 45.3100 38.3333 0.0000 0.0000 0.0000
# 2 45.3100 77.6266 28.9574 0.0000 0.0000 0.0000
# 3 38.3333 28.9574 130.7848 0.0000 0.0000 0.0000
# 4 0.0000 0.0000 0.0000 21.9424 0.0000 0.0000
# 5 0.0000 0.0000 0.0000 0.0000 22.5028 0.0000
# 6 0.0000 0.0000 0.0000 0.0000 0.0000 24.4563
#
#
#
# Elastic Compliance Matrix: (Units=1/GPa)
#
#
# Indices 1 2 3 4 5 6 
#
# 1 0.013064 -0.006755 -0.002333 0.000000 0.000000 0.000000
# 2 -0.006755 0.017535 -0.001903 0.000000 0.000000 0.000000
# 3 -0.002333 -0.001903 0.008751 0.000000 0.000000 0.000000
# 4 0.000000 0.000000 0.000000 0.045574 0.000000 0.000000
# 5 0.000000 0.000000 0.000000 0.000000 0.044439 0.000000
# 6 0.000000 0.000000 0.000000 0.000000 0.000000 0.040889
#
#
# Mechanical properties :
#
#
# Convention : Reuss Voigt Hill
#
# Bulk Modulus (GPa) = 57.57650 60.04853 58.81252
# Shear Modulus (GPa) = 25.24972 27.28928 26.26950
#
# Velocity S-wave (km/s) = 3.63771 3.78177 3.71044
# Velocity P-wave (km/s) = 6.91510 7.10911 7.01278
#
# Compressibility (1/GPa) = 0.01736820
#
# Stress axis : x y z
#
# Youngs Moduli (GPa) = 76.54885 57.03033 114.26848
#
# Poissons Ratio (x) = 0.38522 0.26663
# Poissons Ratio (y) = 0.51706 0.21740
# Poissons Ratio (z) = 0.17862 0.10850
#
# Static dielectric constant tensor:
#      x y z
#    x 4.008840 0.000000 0.000000 
#    y 0.000000 3.339180 0.000000 
#    z 0.000000 0.000000 3.374560 
# 
# 
# High freq. dielectric constant tensor:
#      x y z
#    x 1.763690 0.000000 0.000000 
#    y 0.000000 1.710360 0.000000 
#    z 0.000000 0.000000 1.719090 
# 
# From -- ./inp_files/11080.got.cif
#   From: 2010.03.12/outbox.cif.g09.slc.cpg/sg62_6_cif.got.tgz:11080.got - 2010.04.10 19:12:36.
