data_PCOD8254622
_publ_section_title
;
Structure prediction by ZEFSAII (Michael W. Deem and Ramdas Pophale) SiO2 
 PCOD8254622
Probable space group: P N M A
;
_chemical_formula_sum "Si O2"
_cell_formula_units_Z 40
_cell_length_a 15.131106
_cell_length_b 8.845509
_cell_length_c 15.159937
_cell_angle_alpha 90.000000
_cell_angle_beta 90.000000
_cell_angle_gamma 90.000000
_cell_volume 2029.041356
_symmetry_space_group_name_H-M "P N M A"
_symmetry_group_IT_number 62
_symmetry_cell_setting 'orthorhombic'
loop_
_space_group_symop_operation_xyz
x,y,z
1/2-x,-y,1/2+z
1/2+x,1/2-y,1/2-z
-x,1/2+y,-z
-x,-y,-z
1/2+x,y,1/2-z
1/2-x,1/2+y,1/2+z
x,1/2-y,z
loop_
_atom_site_type_symbol
_atom_site_label
_atom_site_fract_x
_atom_site_fract_y
_atom_site_fract_z
Si Si1 0.962516 0.573304 0.257696
Si Si2 0.733848 0.076649 0.520268
Si Si3 0.214121 0.572345 0.676753
Si Si4 0.941365 0.427247 0.074086
Si Si5 0.844702 0.077776 0.686433
O O1 0.947986 0.750000 0.241072
O O2 0.878454 0.510290 0.309068
O O3 0.975483 0.490636 0.165716
O O4 0.051629 0.537919 0.311878
O O5 0.700368 0.250000 0.521952
O O6 0.755860 0.026602 0.421258
O O7 0.817489 0.054362 0.584558
O O8 0.660140 0.967260 0.559270
O O9 0.198167 0.750000 0.685930
O O10 0.288079 0.524959 0.747238
O O11 0.954732 0.250000 0.073152
O O12 0.000000 0.500000 0.000000
O O13 0.828207 0.250000 0.716815
#
# Coordination Sequence:
#
# PCOD8254622 Si02
#       5
#     8   8   8   8   8
#     4  11  23  40  63  91 125 167 211 258 315 375
#     4  10  22  41  63  89 125 165 207 260 314 371
#     4  11  23  39  62  93 126 163 208 261 317 373
#     4  12  24  39  62  93 124 162 211 262 320 373
#     4  10  22  41  64  88 122 168 212 257 312 374
#
# _framework density 19.713743999999998
#
# number of rings (size 3 to 8) (size 9 to 14) (size 15 to 20)
#    0.000    1.200    2.000    4.200    0.000    7.200 
#    0.000    0.000    0.000    0.000    0.000    0.000 
#    0.000    0.000    0.000    0.000    0.000    0.000 
#
# Total GULP energy -496166.536141 kJ/mol
# GULP energy per Si atom -12404.163404 kJ/mol
# Density = 1.966887 g / cm^3
# Si number density = 19.713744 Si / 1000 Ang^3
#
#
#
# Elastic Constant Matrix: (Units=GPa)
#
#
# Indices 1 2 3 4 5 6 
#
# 1 84.2223 25.1436 -5.6631 0.0000 0.0000 0.0000
# 2 25.1436 99.8370 14.3139 0.0000 0.0000 0.0000
# 3 -5.6631 14.3139 73.0236 0.0000 0.0000 0.0000
# 4 0.0000 0.0000 0.0000 27.6889 0.0000 0.0000
# 5 0.0000 0.0000 0.0000 0.0000 39.0655 0.0000
# 6 0.0000 0.0000 0.0000 0.0000 0.0000 32.0044
#
#
#
# Elastic Compliance Matrix: (Units=1/GPa)
#
#
# Indices 1 2 3 4 5 6 
#
# 1 0.013041 -0.003529 0.001703 0.000000 0.000000 0.000000
# 2 -0.003529 0.011261 -0.002481 0.000000 0.000000 0.000000
# 3 0.001703 -0.002481 0.014313 0.000000 0.000000 0.000000
# 4 0.000000 0.000000 0.000000 0.036116 0.000000 0.000000
# 5 0.000000 0.000000 0.000000 0.000000 0.025598 0.000000
# 6 0.000000 0.000000 0.000000 0.000000 0.000000 0.031246
#
#
# Mechanical properties :
#
#
# Convention : Reuss Voigt Hill
#
# Bulk Modulus (GPa) = 33.33155 36.07462 34.70309
# Shear Modulus (GPa) = 33.29176 34.63766 33.96471
#
# Velocity S-wave (km/s) = 4.11391 4.19624 4.15528
# Velocity P-wave (km/s) = 6.28571 6.46660 6.37680
#
# Compressibility (1/GPa) = 0.03000160
#
# Stress axis : x y z
#
# Youngs Moduli (GPa) = 76.67971 88.80455 69.86853
#
# Poissons Ratio (x) = 0.31335 -0.11899
# Poissons Ratio (y) = 0.27057 0.17334
# Poissons Ratio (z) = -0.13059 0.22032
#
# Static dielectric constant tensor:
#      x y z
#    x 3.647150 0.000000 0.000000 
#    y 0.000000 3.747510 0.000000 
#    z 0.000000 0.000000 3.742670 
# 
# 
# High freq. dielectric constant tensor:
#      x y z
#    x 1.777770 0.000000 0.000000 
#    y 0.000000 1.775240 0.000000 
#    z 0.000000 0.000000 1.777670 
# 
# From -- ./inp_files/18587.got.cif
#   From: 2010.03.12/outbox.cif.g09.slc.cpg/sg62_10_cif.got.tgz:18587.got - 2010.04.10 19:12:36.
