data_PCOD8254203
_publ_section_title
;
Structure prediction by ZEFSAII (Michael W. Deem and Ramdas Pophale) SiO2 
 PCOD8254203
Probable space group: P N M A
;
_chemical_formula_sum "Si O2"
_cell_formula_units_Z 48
_cell_length_a 9.554973
_cell_length_b 17.339618
_cell_length_c 11.728860
_cell_angle_alpha 90.000000
_cell_angle_beta 90.000000
_cell_angle_gamma 90.000000
_cell_volume 1943.232620
_symmetry_space_group_name_H-M "P N M A"
_symmetry_group_IT_number 62
_symmetry_cell_setting 'orthorhombic'
loop_
_space_group_symop_operation_xyz
x,y,z
1/2-x,-y,1/2+z
1/2+x,1/2-y,1/2-z
-x,1/2+y,-z
-x,-y,-z
1/2+x,y,1/2-z
1/2-x,1/2+y,1/2+z
x,1/2-y,z
loop_
_atom_site_type_symbol
_atom_site_label
_atom_site_fract_x
_atom_site_fract_y
_atom_site_fract_z
Si Si1 0.604908 0.954347 0.580193
Si Si2 0.088272 0.430767 0.408964
Si Si3 0.453011 0.562602 0.222245
Si Si4 0.899919 0.841324 0.825802
Si Si5 0.204789 0.838210 0.243082
Si Si6 0.342011 0.336957 0.004516
O O1 0.761308 0.944047 0.528768
O O2 0.540057 0.870946 0.611248
O O3 0.500000 0.000000 0.500000
O O4 0.624866 0.003291 0.695267
O O5 0.017476 0.514103 0.383379
O O6 0.118234 0.382963 0.294384
O O7 0.986406 0.383857 0.492206
O O8 0.571272 0.610398 0.291611
O O9 0.339825 0.625827 0.180224
O O10 0.912101 0.750000 0.810560
O O11 0.767546 0.867367 0.901931
O O12 0.184201 0.750000 0.202403
O O13 0.225795 0.843219 0.379735
O O14 0.381493 0.250000 0.034709
#
# Coordination Sequence:
#
# PCOD8254203 Si02
#       6
#     8   8   8   8   8   8
#     4  11  24  42  64 100 136 176 222 273 334 406
#     4  11  23  40  66  99 133 177 216 270 335 410
#     4  11  23  43  64  97 130 172 220 273 333 397
#     4  10  21  39  67  99 137 177 219 273 336 400
#     4  11  24  44  67  93 127 175 229 281 337 395
#     4  10  23  42  67 101 135 171 220 277 334 397
#
# _framework density 24.701111000000001
#
# number of rings (size 3 to 8) (size 9 to 14) (size 15 to 20)
#    0.000    1.333    1.667    4.000    2.333    4.667 
#    0.000    0.833    0.000    0.000    0.000    0.000 
#    0.000    0.000    0.000    0.000    0.000    0.000 
#
# Total GULP energy -595333.343570 kJ/mol
# GULP energy per Si atom -12402.777991 kJ/mol
# Density = 2.464489 g / cm^3
# Si number density = 24.701111 Si / 1000 Ang^3
#
#
#
# Elastic Constant Matrix: (Units=GPa)
#
#
# Indices 1 2 3 4 5 6 
#
# 1 173.6083 70.4107 4.0803 0.0000 0.0000 0.0000
# 2 70.4107 139.8850 14.2860 0.0000 0.0000 0.0000
# 3 4.0803 14.2860 47.2895 0.0000 0.0000 0.0000
# 4 0.0000 0.0000 0.0000 28.9847 0.0000 0.0000
# 5 0.0000 0.0000 0.0000 0.0000 27.8533 0.0000
# 6 0.0000 0.0000 0.0000 0.0000 0.0000 53.2339
#
#
#
# Elastic Compliance Matrix: (Units=1/GPa)
#
#
# Indices 1 2 3 4 5 6 
#
# 1 0.007249 -0.003699 0.000492 0.000000 0.000000 0.000000
# 2 -0.003699 0.009264 -0.002479 0.000000 0.000000 0.000000
# 3 0.000492 -0.002479 0.021853 0.000000 0.000000 0.000000
# 4 0.000000 0.000000 0.000000 0.034501 0.000000 0.000000
# 5 0.000000 0.000000 0.000000 0.000000 0.035902 0.000000
# 6 0.000000 0.000000 0.000000 0.000000 0.000000 0.018785
#
#
# Mechanical properties :
#
#
# Convention : Reuss Voigt Hill
#
# Bulk Modulus (GPa) = 37.04695 59.81519 48.43107
# Shear Modulus (GPa) = 33.80117 40.14809 36.97463
#
# Velocity S-wave (km/s) = 3.70321 4.03594 3.87315
# Velocity P-wave (km/s) = 5.77197 6.78134 6.29692
#
# Compressibility (1/GPa) = 0.02699278
#
# Stress axis : x y z
#
# Youngs Moduli (GPa) = 137.95617 107.94775 45.76053
#
# Poissons Ratio (x) = 0.39928 -0.02251
# Poissons Ratio (y) = 0.51028 0.11346
# Poissons Ratio (z) = -0.06787 0.26764
#
# Static dielectric constant tensor:
#      x y z
#    x 4.480530 0.000000 0.000000 
#    y 0.000000 4.687000 0.000000 
#    z 0.000000 0.000000 4.245400 
# 
# 
# High freq. dielectric constant tensor:
#      x y z
#    x 1.988320 0.000000 0.000000 
#    y 0.000000 2.000840 0.000000 
#    z 0.000000 0.000000 1.975200 
# 
# From -- ./inp_files/16917.got.cif
#   From: 2010.03.12/outbox.cif.g09.slc.cpg/sg62_9_cif.got.tgz:16917.got - 2010.04.10 19:12:36.
