data_PCOD8254278
_publ_section_title
;
Structure prediction by ZEFSAII (Michael W. Deem and Ramdas Pophale) SiO2 
 PCOD8254278
Probable space group: P N M A
;
_chemical_formula_sum "Si O2"
_cell_formula_units_Z 48
_cell_length_a 11.681644
_cell_length_b 9.045759
_cell_length_c 22.405915
_cell_angle_alpha 90.000000
_cell_angle_beta 90.000000
_cell_angle_gamma 90.000000
_cell_volume 2367.618168
_symmetry_space_group_name_H-M "P N M A"
_symmetry_group_IT_number 62
_symmetry_cell_setting 'orthorhombic'
loop_
_space_group_symop_operation_xyz
x,y,z
1/2-x,-y,1/2+z
1/2+x,1/2-y,1/2-z
-x,1/2+y,-z
-x,-y,-z
1/2+x,y,1/2-z
1/2-x,1/2+y,1/2+z
x,1/2-y,z
loop_
_atom_site_type_symbol
_atom_site_label
_atom_site_fract_x
_atom_site_fract_y
_atom_site_fract_z
Si Si1 0.425733 0.408838 0.044751
Si Si2 0.220802 0.427692 0.119117
Si Si3 0.068374 0.411727 0.337063
Si Si4 0.995870 0.424472 0.935578
Si Si5 0.870773 0.579070 0.282948
Si Si6 0.204401 0.082470 0.850512
O O1 0.406327 0.250000 0.014036
O O2 0.302110 0.475539 0.062987
O O3 0.492833 0.389798 0.105301
O O4 0.500000 0.500000 0.000000
O O5 0.211315 0.250000 0.123782
O O6 0.273650 0.489391 0.180840
O O7 0.099300 0.501414 0.106601
O O8 0.086647 0.250000 0.306976
O O9 0.188526 0.476221 0.357871
O O10 0.999796 0.519800 0.292864
O O11 0.971504 0.250000 0.942202
O O12 0.115861 0.454682 0.903033
O O13 0.000000 0.500000 0.000000
O O14 0.864411 0.750000 0.302296
O O15 0.852375 0.555849 0.213301
O O16 0.247794 0.250000 0.856366
#
# Coordination Sequence:
#
# PCOD8254278 Si02
#       6
#     8   8   8   8   8   8
#     4   9  20  36  57  85 117 151 194 243 296 354
#     4  10  22  41  62  91 125 160 204 256 309 369
#     4  10  22  39  59  90 123 153 199 253 306 363
#     4  11  25  44  64  91 126 170 216 259 312 376
#     4  10  21  40  65  92 122 161 204 251 310 373
#     4  10  24  42  63  89 122 163 206 251 305 372
#
# _framework density 20.273540000000001
#
# number of rings (size 3 to 8) (size 9 to 14) (size 15 to 20)
#    0.000    2.000    0.000    3.000    4.667    6.667 
#    0.000    0.000    0.000    0.000    0.000    0.000 
#    0.000    0.000    0.000    0.000    0.000    0.000 
#
# Total GULP energy -595074.682745 kJ/mol
# GULP energy per Si atom -12397.389224 kJ/mol
# Density = 2.022740 g / cm^3
# Si number density = 20.273540 Si / 1000 Ang^3
#
#
#
# Elastic Constant Matrix: (Units=GPa)
#
#
# Indices 1 2 3 4 5 6 
#
# 1 105.8305 54.5389 17.4310 0.0000 0.0000 0.0000
# 2 54.5389 120.5822 34.1784 0.0000 0.0000 0.0000
# 3 17.4310 34.1784 66.6183 0.0000 0.0000 0.0000
# 4 0.0000 0.0000 0.0000 23.0561 0.0000 0.0000
# 5 0.0000 0.0000 0.0000 0.0000 5.0328 0.0000
# 6 0.0000 0.0000 0.0000 0.0000 0.0000 15.5264
#
#
#
# Elastic Compliance Matrix: (Units=1/GPa)
#
#
# Indices 1 2 3 4 5 6 
#
# 1 0.012331 -0.005456 -0.000427 0.000000 0.000000 0.000000
# 2 -0.005456 0.012119 -0.004790 0.000000 0.000000 0.000000
# 3 -0.000427 -0.004790 0.017580 0.000000 0.000000 0.000000
# 4 0.000000 0.000000 0.000000 0.043373 0.000000 0.000000
# 5 0.000000 0.000000 0.000000 0.000000 0.198696 0.000000
# 6 0.000000 0.000000 0.000000 0.000000 0.000000 0.064406
#
#
# Mechanical properties :
#
#
# Convention : Reuss Voigt Hill
#
# Bulk Modulus (GPa) = 48.34793 56.14753 52.24773
# Shear Modulus (GPa) = 13.27154 21.18190 17.22672
#
# Velocity S-wave (km/s) = 2.56134 3.23585 2.91815
# Velocity P-wave (km/s) = 5.71374 6.45880 6.09766
#
# Compressibility (1/GPa) = 0.02068341
#
# Stress axis : x y z
#
# Youngs Moduli (GPa) = 81.09448 82.51775 56.88267
#
# Poissons Ratio (x) = 0.45024 0.02430
# Poissons Ratio (y) = 0.44248 0.27245
# Poissons Ratio (z) = 0.03464 0.39524
#
# Static dielectric constant tensor:
#      x y z
#    x 3.653710 0.000000 0.000000 
#    y 0.000000 3.991140 0.000000 
#    z 0.000000 0.000000 3.428960 
# 
# 
# High freq. dielectric constant tensor:
#      x y z
#    x 1.800600 0.000000 0.000000 
#    y 0.000000 1.802990 0.000000 
#    z 0.000000 0.000000 1.788030 
# 
# From -- ./inp_files/29233.got.cif
#   From: 2010.03.12/outbox.cif.g09.slc.cpg/sg62_15_cif.got.tgz:29233.got - 2010.04.10 19:12:36.
