data_PCOD8254591
_publ_section_title
;
Structure prediction by ZEFSAII (Michael W. Deem and Ramdas Pophale) SiO2 
 PCOD8254591
Probable space group: P N M A
;
_chemical_formula_sum "Si O2"
_cell_formula_units_Z 48
_cell_length_a 9.416493
_cell_length_b 13.367332
_cell_length_c 18.112808
_cell_angle_alpha 90.000000
_cell_angle_beta 90.000000
_cell_angle_gamma 90.000000
_cell_volume 2279.920513
_symmetry_space_group_name_H-M "P N M A"
_symmetry_group_IT_number 62
_symmetry_cell_setting 'orthorhombic'
loop_
_space_group_symop_operation_xyz
x,y,z
1/2-x,-y,1/2+z
1/2+x,1/2-y,1/2-z
-x,1/2+y,-z
-x,-y,-z
1/2+x,y,1/2-z
1/2-x,1/2+y,1/2+z
x,1/2-y,z
loop_
_atom_site_type_symbol
_atom_site_label
_atom_site_fract_x
_atom_site_fract_y
_atom_site_fract_z
Si Si1 0.076853 0.867862 0.004819
Si Si2 0.137171 0.867754 0.170350
Si Si3 0.740987 0.135541 0.485439
Si Si4 0.568839 0.635464 0.848831
Si Si5 0.797553 0.524776 0.594312
Si Si6 0.366249 0.529866 0.261602
O O1 0.066635 0.750000 0.999313
O O2 0.130602 0.902027 0.085238
O O3 0.918353 0.910666 0.989834
O O4 0.182456 0.902960 0.941808
O O5 0.117671 0.750000 0.178503
O O6 0.290239 0.900571 0.200808
O O7 0.013319 0.919954 0.216486
O O8 0.747432 0.250000 0.513687
O O9 0.794311 0.128037 0.401712
O O10 0.835634 0.068784 0.540991
O O11 0.533940 0.750000 0.828623
O O12 0.438108 0.587929 0.892412
O O13 0.601874 0.578929 0.772814
O O14 0.738372 0.480747 0.670008
#
# Coordination Sequence:
#
# PCOD8254591 Si02
#       6
#     8   8   8   8   8   8
#     4  10  22  40  67  97 125 170 220 269 325 386
#     4  11  24  45  68  97 133 167 217 269 328 396
#     4  10  22  40  66  95 128 169 217 274 325 383
#     4  11  26  45  63  95 137 176 221 268 325 393
#     4  12  23  41  68  94 134 169 220 270 327 392
#     4  12  25  43  66  99 129 176 215 266 332 384
#
# _framework density 21.053363000000001
#
# number of rings (size 3 to 8) (size 9 to 14) (size 15 to 20)
#    0.000    1.000    3.333    3.000    2.333    2.000 
#    0.000    1.667    0.000    0.000    0.000    0.000 
#    0.000    0.000    0.000    0.000    0.000    0.000 
#
# Total GULP energy -595526.047753 kJ/mol
# GULP energy per Si atom -12406.792662 kJ/mol
# Density = 2.100545 g / cm^3
# Si number density = 21.053363 Si / 1000 Ang^3
#
#
#
# Elastic Constant Matrix: (Units=GPa)
#
#
# Indices 1 2 3 4 5 6 
#
# 1 49.8528 4.9677 4.6827 0.0000 0.0000 0.0000
# 2 4.9677 67.1589 23.2271 0.0000 0.0000 0.0000
# 3 4.6827 23.2271 72.2732 0.0000 0.0000 0.0000
# 4 0.0000 0.0000 0.0000 40.9496 0.0000 0.0000
# 5 0.0000 0.0000 0.0000 0.0000 35.8436 0.0000
# 6 0.0000 0.0000 0.0000 0.0000 0.0000 37.5858
#
#
#
# Elastic Compliance Matrix: (Units=1/GPa)
#
#
# Indices 1 2 3 4 5 6 
#
# 1 0.020264 -0.001175 -0.000935 0.000000 0.000000 0.000000
# 2 -0.001175 0.016820 -0.005330 0.000000 0.000000 0.000000
# 3 -0.000935 -0.005330 0.015610 0.000000 0.000000 0.000000
# 4 0.000000 0.000000 0.000000 0.024420 0.000000 0.000000
# 5 0.000000 0.000000 0.000000 0.000000 0.027899 0.000000
# 6 0.000000 0.000000 0.000000 0.000000 0.000000 0.026606
#
#
# Mechanical properties :
#
#
# Convention : Reuss Voigt Hill
#
# Bulk Modulus (GPa) = 26.44544 28.33777 27.39161
# Shear Modulus (GPa) = 31.42599 33.30296 32.36448
#
# Velocity S-wave (km/s) = 3.86772 3.98154 3.92504
# Velocity P-wave (km/s) = 5.70386 5.88440 5.79483
#
# Compressibility (1/GPa) = 0.03781371
#
# Stress axis : x y z
#
# Youngs Moduli (GPa) = 49.34856 59.45221 64.06245
#
# Poissons Ratio (x) = 0.06988 0.05991
# Poissons Ratio (y) = 0.05801 0.34142
# Poissons Ratio (z) = 0.04615 0.31685
#
# Static dielectric constant tensor:
#      x y z
#    x 3.862270 0.000000 0.000000 
#    y 0.000000 3.946510 0.000000 
#    z 0.000000 0.000000 4.309630 
# 
# 
# High freq. dielectric constant tensor:
#      x y z
#    x 1.826900 0.000000 0.000000 
#    y 0.000000 1.844490 0.000000 
#    z 0.000000 0.000000 1.829250 
# 
# From -- ./inp_files/22203.got.cif
#   From: 2010.03.12/outbox.cif.g09.slc.cpg/sg62_12_cif.got.tgz:22203.got - 2010.04.10 19:12:36.
