data_PCOD8254925
_publ_section_title
;
Structure prediction by ZEFSAII (Michael W. Deem and Ramdas Pophale) SiO2 
 PCOD8254925
Probable space group: P N M A
;
_chemical_formula_sum "Si O2"
_cell_formula_units_Z 40
_cell_length_a 17.050664
_cell_length_b 16.102557
_cell_length_c 6.501913
_cell_angle_alpha 90.000000
_cell_angle_beta 90.000000
_cell_angle_gamma 90.000000
_cell_volume 1785.160610
_symmetry_space_group_name_H-M "P N M A"
_symmetry_group_IT_number 62
_symmetry_cell_setting 'orthorhombic'
loop_
_space_group_symop_operation_xyz
x,y,z
1/2-x,-y,1/2+z
1/2+x,1/2-y,1/2-z
-x,1/2+y,-z
-x,-y,-z
1/2+x,y,1/2-z
1/2-x,1/2+y,1/2+z
x,1/2-y,z
loop_
_atom_site_type_symbol
_atom_site_label
_atom_site_fract_x
_atom_site_fract_y
_atom_site_fract_z
Si Si1 0.231103 0.250000 0.136406
Si Si2 0.633065 0.492497 0.950828
Si Si3 0.248178 0.607410 0.312404
Si Si4 0.441680 0.750000 0.621040
Si Si5 0.322273 0.250000 0.546046
Si Si6 0.504657 0.885109 0.888313
Si Si7 0.982449 0.250000 0.730902
O O1 0.143536 0.250000 0.231677
O O2 0.300815 0.250000 0.303718
O O3 0.235269 0.334150 0.006419
O O4 0.692845 0.532453 0.114233
O O5 0.572177 0.440253 0.084538
O O6 0.674154 0.435561 0.778986
O O7 0.582799 0.563302 0.835207
O O8 0.212572 0.664915 0.135356
O O9 0.490171 0.829998 0.689911
O O10 0.438055 0.750000 0.370773
O O11 0.413926 0.250000 0.598102
O O12 0.521290 0.831580 0.092858
#
# Coordination Sequence:
#
# PCOD8254925 Si02
#       7
#     4   8   8   4   4   8   4
#     4  11  26  46  67 101 135 185 235 279 339 421
#     4  11  24  45  67  98 141 179 220 298 343 401
#     4  11  26  43  71  99 141 180 234 280 351 408
#     4  11  24  40  73  93 129 183 223 276 336 422
#     4  11  24  45  70  97 134 187 226 288 333 416
#     4  10  24  46  65  99 141 172 225 286 347 399
#     4  11  22  43  72  97 130 181 232 269 340 429
#
# _framework density 22.406946000000001
#
# number of rings (size 3 to 8) (size 9 to 14) (size 15 to 20)
#    0.000    1.200    2.000    2.400    8.400    3.200 
#    0.000    3.000    0.000    0.000    0.000    0.000 
#    0.000    0.000    0.000    0.000    0.000    0.000 
#
# Total GULP energy -495991.188174 kJ/mol
# GULP energy per Si atom -12399.779704 kJ/mol
# Density = 2.235595 g / cm^3
# Si number density = 22.406946 Si / 1000 Ang^3
#
#
#
# Elastic Constant Matrix: (Units=GPa)
#
#
# Indices 1 2 3 4 5 6 
#
# 1 86.3811 25.6815 18.0331 0.0000 0.0000 0.0000
# 2 25.6815 105.1609 29.8461 0.0000 0.0000 0.0000
# 3 18.0331 29.8461 96.1212 0.0000 0.0000 0.0000
# 4 0.0000 0.0000 0.0000 12.1947 0.0000 0.0000
# 5 0.0000 0.0000 0.0000 0.0000 30.9324 0.0000
# 6 0.0000 0.0000 0.0000 0.0000 0.0000 -502.4331
#
#
#
# Elastic Compliance Matrix: (Units=1/GPa)
#
#
# Indices 1 2 3 4 5 6 
#
# 1 0.012692 -0.002658 -0.001556 0.000000 0.000000 0.000000
# 2 -0.002658 0.010985 -0.002912 0.000000 0.000000 0.000000
# 3 -0.001556 -0.002912 0.011600 0.000000 0.000000 0.000000
# 4 0.000000 0.000000 0.000000 0.082003 0.000000 0.000000
# 5 0.000000 0.000000 0.000000 0.000000 0.032329 0.000000
# 6 0.000000 0.000000 0.000000 0.000000 0.000000 -0.001990
#
#
# Mechanical properties :
#
#
# Convention : Reuss Voigt Hill
#
# Bulk Modulus (GPa) = 47.56378 48.30939 47.93658
# Shear Modulus (GPa) = 29.60735 -77.58768 -23.99016
#
# Velocity S-wave (km/s) = 3.63898 -5.89082 -3.27564
# Velocity P-wave (km/s) = 6.23935 4.96611 2.67089
#
# Compressibility (1/GPa) = 0.02102440
#
# Stress axis : x y z
#
# Youngs Moduli (GPa) = 78.79233 91.03454 86.20945
#
# Poissons Ratio (x) = 0.24196 0.13412
# Poissons Ratio (y) = 0.20942 0.25106
# Poissons Ratio (z) = 0.12258 0.26511
#
# Static dielectric constant tensor:
#      x y z
#    x 4.160000 0.000000 0.000000 
#    y 0.000000 4.351770 0.000000 
#    z 0.000000 0.000000 3.744090 
# 
# 
# High freq. dielectric constant tensor:
#      x y z
#    x 1.896820 0.000000 0.000000 
#    y 0.000000 1.904210 0.000000 
#    z 0.000000 0.000000 1.869780 
# 
# From -- ./inp_files/1604.got.cif
#   From: 2010.03.12/outbox.cif.g09.slc.cpg/sg62_1_cif.got.tgz:1604.got - 2010.04.10 19:12:36.
