data_PCOD8254628
_publ_section_title
;
Structure prediction by ZEFSAII (Michael W. Deem and Ramdas Pophale) SiO2 
 PCOD8254628
Probable space group: P N M A
;
_chemical_formula_sum "Si O2"
_cell_formula_units_Z 64
_cell_length_a 8.721474
_cell_length_b 28.642972
_cell_length_c 12.092317
_cell_angle_alpha 90.000000
_cell_angle_beta 90.000000
_cell_angle_gamma 90.000000
_cell_volume 3020.768838
_symmetry_space_group_name_H-M "P N M A"
_symmetry_group_IT_number 62
_symmetry_cell_setting 'orthorhombic'
loop_
_space_group_symop_operation_xyz
x,y,z
1/2-x,-y,1/2+z
1/2+x,1/2-y,1/2-z
-x,1/2+y,-z
-x,-y,-z
1/2+x,y,1/2-z
1/2-x,1/2+y,1/2+z
x,1/2-y,z
loop_
_atom_site_type_symbol
_atom_site_label
_atom_site_fract_x
_atom_site_fract_y
_atom_site_fract_z
Si Si1 0.790100 0.695833 0.617730
Si Si2 0.792131 0.304833 0.880720
Si Si3 0.386532 0.433347 0.160351
Si Si4 0.441452 0.533703 0.402834
Si Si5 0.807748 0.879145 0.991896
Si Si6 0.138645 0.194970 0.843841
Si Si7 0.652014 0.004129 0.221841
Si Si8 0.504100 0.650559 0.711627
O O1 0.833534 0.750000 0.618588
O O2 0.776507 0.674366 0.493904
O O3 0.626993 0.689357 0.677205
O O4 0.923420 0.667380 0.676597
O O5 0.798396 0.250000 0.894793
O O6 0.683993 0.319335 0.779909
O O7 0.964804 0.321738 0.860315
O O8 0.346472 0.406636 0.045769
O O9 0.234910 0.461728 0.192261
O O10 0.532963 0.466876 0.145222
O O11 0.414646 0.398440 0.262731
O O12 0.500000 0.500000 0.500000
O O13 0.429018 0.586278 0.448437
O O14 0.271410 0.519703 0.361011
O O15 0.558069 0.532638 0.298481
O O16 0.880718 0.855678 0.884130
O O17 0.760292 0.836310 0.072257
O O18 0.167996 0.250000 0.866509
#
# Coordination Sequence:
#
# PCOD8254628 Si02
#       8
#     8   8   8   8   8   8   8   8
#     4  11  23  40  63  93 130 172 219 275 330 389
#     4   9  20  40  62  84 119 169 215 262 326 377
#     4  11  20  41  64  98 126 175 215 265 341 405
#     4  11  23  44  67  99 132 176 219 280 335 399
#     4  12  23  38  68  95 134 172 225 268 334 399
#     4  10  22  41  64  89 128 175 218 269 322 387
#     4  10  22  42  70  91 135 170 217 272 336 401
#     4  12  22  39  63  96 129 169 217 269 336 401
#
# _framework density 21.186658000000001
#
# number of rings (size 3 to 8) (size 9 to 14) (size 15 to 20)
#    0.000    1.250    5.000    1.125    0.000    3.000 
#    0.000    1.250    0.000    0.000    0.000    0.000 
#    0.000    0.000    0.000    0.000    0.000    0.000 
#
# Total GULP energy -793629.147812 kJ/mol
# GULP energy per Si atom -12400.455435 kJ/mol
# Density = 2.113844 g / cm^3
# Si number density = 21.186658 Si / 1000 Ang^3
#
#
#
# Elastic Constant Matrix: (Units=GPa)
#
#
# Indices 1 2 3 4 5 6 
#
# 1 87.7265 22.1996 48.7269 0.0000 0.0000 0.0000
# 2 22.1996 63.2513 40.2845 0.0000 0.0000 0.0000
# 3 48.7269 40.2845 138.0642 0.0000 0.0000 0.0000
# 4 0.0000 0.0000 0.0000 39.7046 0.0000 0.0000
# 5 0.0000 0.0000 0.0000 0.0000 40.6576 0.0000
# 6 0.0000 0.0000 0.0000 0.0000 0.0000 20.2202
#
#
#
# Elastic Compliance Matrix: (Units=1/GPa)
#
#
# Indices 1 2 3 4 5 6 
#
# 1 0.014432 -0.002237 -0.004441 0.000000 0.000000 0.000000
# 2 -0.002237 0.019765 -0.004978 0.000000 0.000000 0.000000
# 3 -0.004441 -0.004978 0.010263 0.000000 0.000000 0.000000
# 4 0.000000 0.000000 0.000000 0.025186 0.000000 0.000000
# 5 0.000000 0.000000 0.000000 0.000000 0.024596 0.000000
# 6 0.000000 0.000000 0.000000 0.000000 0.000000 0.049456
#
#
# Mechanical properties :
#
#
# Convention : Reuss Voigt Hill
#
# Bulk Modulus (GPa) = 47.28329 56.82932 52.05630
# Shear Modulus (GPa) = 28.72624 31.97189 30.34907
#
# Velocity S-wave (km/s) = 3.68620 3.88887 3.78889
# Velocity P-wave (km/s) = 6.36265 6.85900 6.61548
#
# Compressibility (1/GPa) = 0.02114912
#
# Stress axis : x y z
#
# Youngs Moduli (GPa) = 69.29217 50.59374 97.44087
#
# Poissons Ratio (x) = 0.11317 0.43270
# Poissons Ratio (y) = 0.15500 0.48503
# Poissons Ratio (z) = 0.30770 0.25184
#
# Static dielectric constant tensor:
#      x y z
#    x 3.813210 0.000000 0.000000 
#    y 0.000000 3.716720 0.000000 
#    z 0.000000 0.000000 3.985760 
# 
# 
# High freq. dielectric constant tensor:
#      x y z
#    x 1.828200 0.000000 0.000000 
#    y 0.000000 1.820010 0.000000 
#    z 0.000000 0.000000 1.835260 
# 
# From -- ./inp_files/11540.got.cif
#   From: 2010.03.12/outbox.cif.g09.slc.cpg/sg62_6_cif.got.tgz:11540.got - 2010.04.10 19:12:36.
