data_PCOD8254874
_publ_section_title
;
Structure prediction by ZEFSAII (Michael W. Deem and Ramdas Pophale) SiO2 
 PCOD8254874
Probable space group: P N M A
;
_chemical_formula_sum "Si O2"
_cell_formula_units_Z 40
_cell_length_a 12.348457
_cell_length_b 8.432416
_cell_length_c 18.317367
_cell_angle_alpha 90.000000
_cell_angle_beta 90.000000
_cell_angle_gamma 90.000000
_cell_volume 1907.338452
_symmetry_space_group_name_H-M "P N M A"
_symmetry_group_IT_number 62
_symmetry_cell_setting 'orthorhombic'
loop_
_space_group_symop_operation_xyz
x,y,z
1/2-x,-y,1/2+z
1/2+x,1/2-y,1/2-z
-x,1/2+y,-z
-x,-y,-z
1/2+x,y,1/2-z
1/2-x,1/2+y,1/2+z
x,1/2-y,z
loop_
_atom_site_type_symbol
_atom_site_label
_atom_site_fract_x
_atom_site_fract_y
_atom_site_fract_z
Si Si1 0.286229 0.934653 0.447621
Si Si2 0.600175 0.068475 0.814092
Si Si3 0.057723 0.065673 0.428672
Si Si4 0.546380 0.566474 0.661605
Si Si5 0.806233 0.935532 0.884719
O O1 0.312396 0.750000 0.437862
O O2 0.287799 0.986258 0.531855
O O3 0.169092 0.973472 0.414168
O O4 0.377112 0.036122 0.407281
O O5 0.574185 0.250000 0.832733
O O6 0.518867 0.957236 0.859034
O O7 0.585832 0.039463 0.728549
O O8 0.723781 0.031175 0.834175
O O9 0.082568 0.250000 0.439375
O O10 0.000000 0.000000 0.500000
O O11 0.552073 0.750000 0.683714
O O12 0.425762 0.515658 0.639834
O O13 0.784323 0.750000 0.874398
#
# Coordination Sequence:
#
# PCOD8254874 Si02
#       5
#     8   8   8   8   8
#     4  11  23  42  69 100 132 170 221 272 327 392
#     4  12  26  43  66  96 132 174 221 275 331 387
#     4  12  24  42  67  97 131 172 220 270 328 391
#     4  11  25  44  67  96 134 177 219 269 332 393
#     4  10  23  44  69  95 130 173 219 270 326 393
#
# _framework density 20.971634000000002
#
# number of rings (size 3 to 8) (size 9 to 14) (size 15 to 20)
#    0.000    0.800    2.000    5.400    2.800    2.400 
#    0.000    0.000    0.000    0.000    0.000    0.000 
#    0.000    0.000    0.000    0.000    0.000    0.000 
#
# Total GULP energy -496395.979307 kJ/mol
# GULP energy per Si atom -12409.899483 kJ/mol
# Density = 2.092390 g / cm^3
# Si number density = 20.971634 Si / 1000 Ang^3
#
#
#
# Elastic Constant Matrix: (Units=GPa)
#
#
# Indices 1 2 3 4 5 6 
#
# 1 154.0198 28.1534 47.9395 0.0000 0.0000 0.0000
# 2 28.1534 64.4683 24.8995 0.0000 0.0000 0.0000
# 3 47.9395 24.8995 80.6361 0.0000 0.0000 0.0000
# 4 0.0000 0.0000 0.0000 32.4506 0.0000 0.0000
# 5 0.0000 0.0000 0.0000 0.0000 35.2609 0.0000
# 6 0.0000 0.0000 0.0000 0.0000 0.0000 34.1184
#
#
#
# Elastic Compliance Matrix: (Units=1/GPa)
#
#
# Indices 1 2 3 4 5 6 
#
# 1 0.008171 -0.001921 -0.004265 0.000000 0.000000 0.000000
# 2 -0.001921 0.018064 -0.004436 0.000000 0.000000 0.000000
# 3 -0.004265 -0.004436 0.016306 0.000000 0.000000 0.000000
# 4 0.000000 0.000000 0.000000 0.030816 0.000000 0.000000
# 5 0.000000 0.000000 0.000000 0.000000 0.028360 0.000000
# 6 0.000000 0.000000 0.000000 0.000000 0.000000 0.029310
#
#
# Mechanical properties :
#
#
# Convention : Reuss Voigt Hill
#
# Bulk Modulus (GPa) = 46.95219 55.67878 51.31549
# Shear Modulus (GPa) = 31.37356 33.57476 32.47416
#
# Velocity S-wave (km/s) = 3.87201 4.00554 3.93934
# Velocity P-wave (km/s) = 6.51360 6.92818 6.72409
#
# Compressibility (1/GPa) = 0.02129826
#
# Stress axis : x y z
#
# Youngs Moduli (GPa) = 122.38006 55.35968 61.32527
#
# Poissons Ratio (x) = 0.10636 0.26153
# Poissons Ratio (y) = 0.23512 0.27202
# Poissons Ratio (z) = 0.52191 0.24556
#
# Static dielectric constant tensor:
#      x y z
#    x 3.905300 0.000000 0.000000 
#    y 0.000000 3.776330 0.000000 
#    z 0.000000 0.000000 3.799770 
# 
# 
# High freq. dielectric constant tensor:
#      x y z
#    x 1.836680 0.000000 0.000000 
#    y 0.000000 1.826490 0.000000 
#    z 0.000000 0.000000 1.826050 
# 
# From -- ./inp_files/22774.got.cif
#   From: 2010.03.12/outbox.cif.g09.slc.cpg/sg62_12_cif.got.tgz:22774.got - 2010.04.10 19:12:36.
