data_PCOD8254525
_publ_section_title
;
Structure prediction by ZEFSAII (Michael W. Deem and Ramdas Pophale) SiO2 
 PCOD8254525
Probable space group: P N M A
;
_chemical_formula_sum "Si O2"
_cell_formula_units_Z 40
_cell_length_a 17.640158
_cell_length_b 10.042523
_cell_length_c 10.677801
_cell_angle_alpha 90.000000
_cell_angle_beta 90.000000
_cell_angle_gamma 90.000000
_cell_volume 1891.590519
_symmetry_space_group_name_H-M "P N M A"
_symmetry_group_IT_number 62
_symmetry_cell_setting 'orthorhombic'
loop_
_space_group_symop_operation_xyz
x,y,z
1/2-x,-y,1/2+z
1/2+x,1/2-y,1/2-z
-x,1/2+y,-z
-x,-y,-z
1/2+x,y,1/2-z
1/2-x,1/2+y,1/2+z
x,1/2-y,z
loop_
_atom_site_type_symbol
_atom_site_label
_atom_site_fract_x
_atom_site_fract_y
_atom_site_fract_z
Si Si1 0.047439 0.399898 0.917130
Si Si2 0.779784 0.250000 0.357487
Si Si3 0.931650 0.466800 0.732117
Si Si4 0.920234 0.250000 0.531461
Si Si5 0.815988 0.997223 0.951609
Si Si6 0.257284 0.750000 0.929550
Si Si7 0.068648 0.250000 0.380248
O O1 0.037696 0.250000 0.967867
O O2 0.013954 0.410590 0.776554
O O3 0.135257 0.442240 0.929840
O O4 0.000000 0.500000 0.000000
O O5 0.865276 0.250000 0.411121
O O6 0.737835 0.381254 0.403769
O O7 0.780535 0.250000 0.207368
O O8 0.904318 0.382911 0.612315
O O9 0.869306 0.450071 0.840132
O O10 0.942847 0.621491 0.705325
O O11 0.007576 0.250000 0.490687
O O12 0.766389 0.119299 0.996649
O O13 0.347439 0.750000 0.934002
#
# Coordination Sequence:
#
# PCOD8254525 Si02
#       7
#     8   4   8   4   8   4   4
#     4  10  22  39  70 106 135 176 228 282 349 410
#     4  12  26  47  70 104 142 187 239 296 362 420
#     4  11  23  46  71 102 142 183 233 296 347 422
#     4  12  27  45  70 102 139 188 235 282 364 430
#     4  11  24  46  74 101 143 183 241 303 348 418
#     4  12  27  48  71 102 142 189 239 294 361 416
#     4  12  26  48  67 100 147 186 227 288 355 424
#
# _framework density 21.146225999999999
#
# number of rings (size 3 to 8) (size 9 to 14) (size 15 to 20)
#    0.000    0.800    4.000    2.400   11.200    0.000 
#    0.000    0.000    0.000    0.000    0.000    0.000 
#    0.000    0.000    0.000    0.000    0.000    0.000 
#
# Total GULP energy -496022.699691 kJ/mol
# GULP energy per Si atom -12400.567492 kJ/mol
# Density = 2.109810 g / cm^3
# Si number density = 21.146226 Si / 1000 Ang^3
#
#
#
# Elastic Constant Matrix: (Units=GPa)
#
#
# Indices 1 2 3 4 5 6 
#
# 1 105.6592 41.6832 59.5599 0.0000 0.0000 0.0000
# 2 41.6832 156.2746 41.4186 0.0000 0.0000 0.0000
# 3 59.5599 41.4186 103.7634 0.0000 0.0000 0.0000
# 4 0.0000 0.0000 0.0000 44.5223 0.0000 0.0000
# 5 0.0000 0.0000 0.0000 0.0000 35.4475 0.0000
# 6 0.0000 0.0000 0.0000 0.0000 0.0000 30.0262
#
#
#
# Elastic Compliance Matrix: (Units=1/GPa)
#
#
# Indices 1 2 3 4 5 6 
#
# 1 0.014456 -0.001853 -0.007558 0.000000 0.000000 0.000000
# 2 -0.001853 0.007393 -0.001888 0.000000 0.000000 0.000000
# 3 -0.007558 -0.001888 0.014729 0.000000 0.000000 0.000000
# 4 0.000000 0.000000 0.000000 0.022461 0.000000 0.000000
# 5 0.000000 0.000000 0.000000 0.000000 0.028211 0.000000
# 6 0.000000 0.000000 0.000000 0.000000 0.000000 0.033304
#
#
# Mechanical properties :
#
#
# Convention : Reuss Voigt Hill
#
# Bulk Modulus (GPa) = 71.52359 72.33563 71.92961
# Shear Modulus (GPa) = 33.82687 36.86822 35.34755
#
# Velocity S-wave (km/s) = 4.00392 4.18004 4.09293
# Velocity P-wave (km/s) = 7.43451 7.58806 7.51168
#
# Compressibility (1/GPa) = 0.01398140
#
# Stress axis : x y z
#
# Youngs Moduli (GPa) = 69.17680 135.25424 67.89248
#
# Poissons Ratio (x) = 0.25057 0.51313
# Poissons Ratio (y) = 0.12816 0.12817
# Poissons Ratio (z) = 0.52284 0.25534
#
# Static dielectric constant tensor:
#      x y z
#    x 4.174280 0.000000 0.000000 
#    y 0.000000 3.968800 0.000000 
#    z 0.000000 0.000000 3.979730 
# 
# 
# High freq. dielectric constant tensor:
#      x y z
#    x 1.831130 0.000000 0.000000 
#    y 0.000000 1.854400 0.000000 
#    z 0.000000 0.000000 1.820350 
# 
# From -- ./inp_files/13918.got.cif
#   From: 2010.03.12/outbox.cif.g09.slc.cpg/sg62_7_cif.got.tgz:13918.got - 2010.04.10 19:12:36.
