data_PCOD8254640
_publ_section_title
;
Structure prediction by ZEFSAII (Michael W. Deem and Ramdas Pophale) SiO2 
 PCOD8254640
Probable space group: P N M A
;
_chemical_formula_sum "Si O2"
_cell_formula_units_Z 56
_cell_length_a 15.307945
_cell_length_b 8.533024
_cell_length_c 19.908774
_cell_angle_alpha 90.000000
_cell_angle_beta 90.000000
_cell_angle_gamma 90.000000
_cell_volume 2600.545022
_symmetry_space_group_name_H-M "P N M A"
_symmetry_group_IT_number 62
_symmetry_cell_setting 'orthorhombic'
loop_
_space_group_symop_operation_xyz
x,y,z
1/2-x,-y,1/2+z
1/2+x,1/2-y,1/2-z
-x,1/2+y,-z
-x,-y,-z
1/2+x,y,1/2-z
1/2-x,1/2+y,1/2+z
x,1/2-y,z
loop_
_atom_site_type_symbol
_atom_site_label
_atom_site_fract_x
_atom_site_fract_y
_atom_site_fract_z
Si Si1 0.314113 0.566990 0.422453
Si Si2 0.406291 0.068669 0.007770
Si Si3 0.496131 0.065746 0.220917
Si Si4 0.508682 0.564395 0.627386
Si Si5 0.837294 0.570070 0.361621
Si Si6 0.847983 0.933368 0.625533
Si Si7 0.321624 0.566659 0.577098
O O1 0.300939 0.750000 0.409848
O O2 0.414083 0.523455 0.410185
O O3 0.255840 0.469768 0.366296
O O4 0.292537 0.522846 0.500749
O O5 0.405614 0.250000 0.030964
O O6 0.360018 0.049335 0.937124
O O7 0.500000 0.000000 0.000000
O O8 0.362726 0.958227 0.061962
O O9 0.499829 0.250000 0.220954
O O10 0.498094 0.001101 0.296263
O O11 0.584780 0.007017 0.182804
O O12 0.405178 0.017364 0.186649
O O13 0.524222 0.750000 0.625201
O O14 0.420928 0.513837 0.588835
O O15 0.840411 0.750000 0.341142
O O16 0.737112 0.509363 0.362739
O O17 0.863938 0.750000 0.610415
O O18 0.311361 0.750000 0.587959
#
# Coordination Sequence:
#
# PCOD8254640 Si02
#       7
#     8   8   8   8   8   8   8
#     4  11  23  39  63  94 127 162 202 262 321 366
#     4  12  22  35  57  89 126 163 202 252 310 369
#     4  10  23  42  63  88 124 166 209 255 306 372
#     4  10  23  44  66  87 117 166 216 259 309 369
#     4  12  24  37  61  94 127 164 203 251 311 375
#     4  11  22  37  61  92 124 162 207 254 307 374
#     4  10  22  41  65  92 125 161 205 261 314 366
#
# _framework density 21.533947000000001
#
# number of rings (size 3 to 8) (size 9 to 14) (size 15 to 20)
#    0.000    1.143    2.857    3.857    0.000    3.429 
#    0.000    2.857    0.000    0.000    0.000    0.000 
#    0.000    0.000    0.000    0.000    0.000    0.000 
#
# Total GULP energy -693978.930898 kJ/mol
# GULP energy per Si atom -12392.480909 kJ/mol
# Density = 2.148494 g / cm^3
# Si number density = 21.533947 Si / 1000 Ang^3
#
#
#
# Elastic Constant Matrix: (Units=GPa)
#
#
# Indices 1 2 3 4 5 6 
#
# 1 118.5870 18.2445 16.4643 0.0000 0.0000 0.0000
# 2 18.2445 28.1249 15.5010 0.0000 0.0000 0.0000
# 3 16.4643 15.5010 66.7306 0.0000 0.0000 0.0000
# 4 0.0000 0.0000 0.0000 21.8541 0.0000 0.0000
# 5 0.0000 0.0000 0.0000 0.0000 21.8499 0.0000
# 6 0.0000 0.0000 0.0000 0.0000 0.0000 37.7585
#
#
#
# Elastic Compliance Matrix: (Units=1/GPa)
#
#
# Indices 1 2 3 4 5 6 
#
# 1 0.009430 -0.005545 -0.001039 0.000000 0.000000 0.000000
# 2 -0.005545 0.044036 -0.008861 0.000000 0.000000 0.000000
# 3 -0.001039 -0.008861 0.017300 0.000000 0.000000 0.000000
# 4 0.000000 0.000000 0.000000 0.045758 0.000000 0.000000
# 5 0.000000 0.000000 0.000000 0.000000 0.045767 0.000000
# 6 0.000000 0.000000 0.000000 0.000000 0.000000 0.026484
#
#
# Mechanical properties :
#
#
# Convention : Reuss Voigt Hill
#
# Bulk Modulus (GPa) = 25.07685 34.87353 29.97519
# Shear Modulus (GPa) = 21.46318 27.17467 24.31893
#
# Velocity S-wave (km/s) = 3.16050 3.55624 3.36420
# Velocity P-wave (km/s) = 4.99889 5.75259 5.38893
#
# Compressibility (1/GPa) = 0.03987742
#
# Stress axis : x y z
#
# Youngs Moduli (GPa) = 106.04605 22.70850 57.80256
#
# Poissons Ratio (x) = 0.12591 0.06004
# Poissons Ratio (y) = 0.58799 0.51220
# Poissons Ratio (z) = 0.11014 0.20123
#
# Static dielectric constant tensor:
#      x y z
#    x 4.331610 0.000000 0.000000 
#    y 0.000000 3.638990 0.000000 
#    z 0.000000 0.000000 3.953630 
# 
# 
# High freq. dielectric constant tensor:
#      x y z
#    x 1.875920 0.000000 0.000000 
#    y 0.000000 1.832670 0.000000 
#    z 0.000000 0.000000 1.828350 
# 
# From -- ./inp_files/27203.got.cif
#   From: 2010.03.12/outbox.cif.g09.slc.cpg/sg62_14_cif.got.tgz:27203.got - 2010.04.10 19:12:36.
