data_PCOD8254607
_publ_section_title
;
Structure prediction by ZEFSAII (Michael W. Deem and Ramdas Pophale) SiO2 
 PCOD8254607
Probable space group: P N M A
;
_chemical_formula_sum "Si O2"
_cell_formula_units_Z 56
_cell_length_a 23.621625
_cell_length_b 8.801105
_cell_length_c 13.795950
_cell_angle_alpha 90.000000
_cell_angle_beta 90.000000
_cell_angle_gamma 90.000000
_cell_volume 2868.128366
_symmetry_space_group_name_H-M "P N M A"
_symmetry_group_IT_number 62
_symmetry_cell_setting 'orthorhombic'
loop_
_space_group_symop_operation_xyz
x,y,z
1/2-x,-y,1/2+z
1/2+x,1/2-y,1/2-z
-x,1/2+y,-z
-x,-y,-z
1/2+x,y,1/2-z
1/2-x,1/2+y,1/2+z
x,1/2-y,z
loop_
_atom_site_type_symbol
_atom_site_label
_atom_site_fract_x
_atom_site_fract_y
_atom_site_fract_z
Si Si1 0.827868 0.428223 0.214352
Si Si2 0.937861 0.570382 0.894392
Si Si3 0.171439 0.069158 0.579374
Si Si4 0.941148 0.577323 0.518656
Si Si5 0.065016 0.927001 0.906787
Si Si6 0.126550 0.073939 0.292685
Si Si7 0.771260 0.070049 0.600696
O O1 0.817828 0.250000 0.230773
O O2 0.814729 0.517601 0.312653
O O3 0.892059 0.462681 0.180587
O O4 0.786844 0.491120 0.131785
O O5 0.936190 0.750000 0.893623
O O6 0.897528 0.509902 0.808613
O O7 0.002526 0.513614 0.877247
O O8 0.913906 0.510384 0.995976
O O9 0.176929 0.250000 0.568069
O O10 0.108517 0.011737 0.550284
O O11 0.215603 0.991016 0.506637
O O12 0.950500 0.750000 0.491230
O O13 0.923841 0.555395 0.630118
O O14 0.000000 0.500000 0.500000
O O15 0.063793 0.750000 0.931284
O O16 0.145693 0.250000 0.286811
O O17 0.180235 0.974054 0.322415
O O18 0.763898 0.250000 0.598345
#
# Coordination Sequence:
#
# PCOD8254607 Si02
#       7
#     8   8   8   8   8   8   8
#     4  11  23  39  62  87 116 155 196 242 297 350
#     4   9  18  35  58  82 113 151 188 232 284 341
#     4  10  22  41  60  84 117 150 193 244 290 342
#     4   9  19  33  53  81 114 148 183 231 287 347
#     4   9  20  36  55  83 115 147 187 235 285 341
#     4   9  19  36  57  80 112 151 191 238 289 342
#     4  11  23  40  60  84 116 152 195 241 291 349
#
# _framework density 19.524929
#
# number of rings (size 3 to 8) (size 9 to 14) (size 15 to 20)
#    0.000    2.286    0.000    3.000    2.000    5.714 
#    0.000    2.857    0.000    0.000    0.000    0.000 
#    0.000    0.000    0.000    0.000    0.000    0.000 
#
# Total GULP energy -694471.792044 kJ/mol
# GULP energy per Si atom -12401.282001 kJ/mol
# Density = 1.948049 g / cm^3
# Si number density = 19.524929 Si / 1000 Ang^3
#
#
#
# Elastic Constant Matrix: (Units=GPa)
#
#
# Indices 1 2 3 4 5 6 
#
# 1 59.4449 14.6579 23.7376 0.0000 0.0000 0.0000
# 2 14.6579 42.6281 14.7295 0.0000 0.0000 0.0000
# 3 23.7376 14.7295 97.1189 0.0000 0.0000 0.0000
# 4 0.0000 0.0000 0.0000 34.2083 0.0000 0.0000
# 5 0.0000 0.0000 0.0000 0.0000 26.8319 0.0000
# 6 0.0000 0.0000 0.0000 0.0000 0.0000 31.4293
#
#
#
# Elastic Compliance Matrix: (Units=1/GPa)
#
#
# Indices 1 2 3 4 5 6 
#
# 1 0.019757 -0.005408 -0.004009 0.000000 0.000000 0.000000
# 2 -0.005408 0.026237 -0.002657 0.000000 0.000000 0.000000
# 3 -0.004009 -0.002657 0.011679 0.000000 0.000000 0.000000
# 4 0.000000 0.000000 0.000000 0.029233 0.000000 0.000000
# 5 0.000000 0.000000 0.000000 0.000000 0.037269 0.000000
# 6 0.000000 0.000000 0.000000 0.000000 0.000000 0.031817
#
#
# Mechanical properties :
#
#
# Convention : Reuss Voigt Hill
#
# Bulk Modulus (GPa) = 29.82917 33.93800 31.88358
# Shear Modulus (GPa) = 26.13491 28.23168 27.18330
#
# Velocity S-wave (km/s) = 3.66258 3.80666 3.73532
# Velocity P-wave (km/s) = 5.76165 6.06140 5.91342
#
# Compressibility (1/GPa) = 0.03352424
#
# Stress axis : x y z
#
# Youngs Moduli (GPa) = 50.61597 38.11475 85.62044
#
# Poissons Ratio (x) = 0.20614 0.34322
# Poissons Ratio (y) = 0.27375 0.22752
# Poissons Ratio (z) = 0.20290 0.10128
#
# Static dielectric constant tensor:
#      x y z
#    x 3.800400 0.000000 0.000000 
#    y 0.000000 3.484280 0.000000 
#    z 0.000000 0.000000 3.668540 
# 
# 
# High freq. dielectric constant tensor:
#      x y z
#    x 1.761130 0.000000 0.000000 
#    y 0.000000 1.755260 0.000000 
#    z 0.000000 0.000000 1.762870 
# 
# From -- ./inp_files/20279.got.cif
#   From: 2010.03.12/outbox.cif.g09.slc.cpg/sg62_11_cif.got.tgz:20279.got - 2010.04.10 19:12:36.
