data_PCOD8254605
_publ_section_title
;
Structure prediction by ZEFSAII (Michael W. Deem and Ramdas Pophale) SiO2 
 PCOD8254605
Probable space group: P N M A
;
_chemical_formula_sum "Si O2"
_cell_formula_units_Z 36
_cell_length_a 16.874412
_cell_length_b 15.415750
_cell_length_c 7.485176
_cell_angle_alpha 90.000000
_cell_angle_beta 90.000000
_cell_angle_gamma 90.000000
_cell_volume 1947.131683
_symmetry_space_group_name_H-M "P N M A"
_symmetry_group_IT_number 62
_symmetry_cell_setting 'orthorhombic'
loop_
_space_group_symop_operation_xyz
x,y,z
1/2-x,-y,1/2+z
1/2+x,1/2-y,1/2-z
-x,1/2+y,-z
-x,-y,-z
1/2+x,y,1/2-z
1/2-x,1/2+y,1/2+z
x,1/2-y,z
loop_
_atom_site_type_symbol
_atom_site_label
_atom_site_fract_x
_atom_site_fract_y
_atom_site_fract_z
Si Si1 0.678381 0.750000 0.206619
Si Si2 0.895885 0.846328 1.000000
Si Si3 0.789497 0.590472 0.704149
Si Si4 0.952118 0.250000 1.000000
Si Si5 0.821619 0.250000 0.293381
Si Si6 0.710503 0.090472 0.795851
O O1 0.598233 0.750000 0.320426
O O2 0.726338 0.835464 0.255904
O O3 0.654008 0.750000 1.000000
O O4 0.855137 0.750000 0.000000
O O5 0.867840 0.897322 0.823877
O O6 0.867840 0.897322 0.176123
O O7 0.991275 0.835929 0.000000
O O8 0.726338 0.664536 0.744096
O O9 0.817299 0.593824 0.500000
O O10 0.750000 0.500000 0.750000
O O11 0.901767 0.250000 0.179574
#
# Coordination Sequence:
#
# PCOD8254605 Si02
#       6
#     4   8   8   4   4   8
#     4  12  21  39  61  91 120 159 208 242 299 370
#     4  10  22  41  58  94 121 155 204 246 303 357
#     4  12  21  37  66  91 117 159 206 254 294 352
#     4  10  24  38  64  88 130 166 182 258 312 360
#     4  12  21  39  61  91 120 159 208 242 299 370
#     4  12  21  37  66  91 117 159 206 254 294 352
#
# _framework density 18.488733
#
# number of rings (size 3 to 8) (size 9 to 14) (size 15 to 20)
#    0.667    0.000    8.889    0.000    0.000    1.778 
#    0.000    4.444    0.000    5.333    0.000    0.000 
#    0.000    0.000    0.000    0.000    0.000    0.000 
#
# Total GULP energy -446407.055076 kJ/mol
# GULP energy per Si atom -12400.195974 kJ/mol
# Density = 1.844665 g / cm^3
# Si number density = 18.488733 Si / 1000 Ang^3
#
#
#
# Elastic Constant Matrix: (Units=GPa)
#
#
# Indices 1 2 3 4 5 6 
#
# 1 106.9162 33.2862 54.4232 0.0000 0.0000 0.0000
# 2 33.2862 118.3960 28.8907 0.0000 0.0000 0.0000
# 3 54.4232 28.8907 199.4314 0.0000 0.0000 0.0000
# 4 0.0000 0.0000 0.0000 30.8432 0.0000 0.0000
# 5 0.0000 0.0000 0.0000 0.0000 36.6115 0.0000
# 6 0.0000 0.0000 0.0000 0.0000 0.0000 -17.9882
#
#
#
# Elastic Compliance Matrix: (Units=1/GPa)
#
#
# Indices 1 2 3 4 5 6 
#
# 1 0.011572 -0.002574 -0.002785 0.000000 0.000000 0.000000
# 2 -0.002574 0.009328 -0.000649 0.000000 0.000000 0.000000
# 3 -0.002785 -0.000649 0.005868 0.000000 0.000000 0.000000
# 4 0.000000 0.000000 0.000000 0.032422 0.000000 0.000000
# 5 0.000000 0.000000 0.000000 0.000000 0.027314 0.000000
# 6 0.000000 0.000000 0.000000 0.000000 0.000000 -0.055592
#
#
# Mechanical properties :
#
#
# Convention : Reuss Voigt Hill
#
# Bulk Modulus (GPa) = 67.78327 73.10485 70.44406
# Shear Modulus (GPa) = 104.50261 30.43620 67.46941
#
# Velocity S-wave (km/s) = 7.52629 4.06174 6.04743
# Velocity P-wave (km/s) = 10.59567 7.85004 9.32447
#
# Compressibility (1/GPa) = 0.01475290
#
# Stress axis : x y z
#
# Youngs Moduli (GPa) = 86.41474 107.20181 170.40737
#
# Poissons Ratio (x) = 0.27592 0.47460
# Poissons Ratio (y) = 0.22242 0.11059
# Poissons Ratio (z) = 0.24067 0.06957
#
# Static dielectric constant tensor:
#      x y z
#    x 3.214630 0.000000 0.000000 
#    y 0.000000 3.524930 0.000000 
#    z 0.000000 0.000000 3.854260 
# 
# 
# High freq. dielectric constant tensor:
#      x y z
#    x 1.694920 0.000000 0.000000 
#    y 0.000000 1.723280 0.000000 
#    z 0.000000 0.000000 1.739690 
# 
# From -- ./inp_files/7418.got.cif
#   From: 2010.03.12/outbox.cif.g09.slc.cpg/sg62_4_cif.got.tgz:7418.got - 2010.04.10 19:12:36.
