data_PCOD8254206
_publ_section_title
;
Structure prediction by ZEFSAII (Michael W. Deem and Ramdas Pophale) SiO2 
 PCOD8254206
Probable space group: P N M A
;
_chemical_formula_sum "Si O2"
_cell_formula_units_Z 48
_cell_length_a 14.005936
_cell_length_b 16.969307
_cell_length_c 9.845760
_cell_angle_alpha 90.000000
_cell_angle_beta 90.000000
_cell_angle_gamma 90.000000
_cell_volume 2340.051899
_symmetry_space_group_name_H-M "P N M A"
_symmetry_group_IT_number 62
_symmetry_cell_setting 'orthorhombic'
loop_
_space_group_symop_operation_xyz
x,y,z
1/2-x,-y,1/2+z
1/2+x,1/2-y,1/2-z
-x,1/2+y,-z
-x,-y,-z
1/2+x,y,1/2-z
1/2-x,1/2+y,1/2+z
x,1/2-y,z
loop_
_atom_site_type_symbol
_atom_site_label
_atom_site_fract_x
_atom_site_fract_y
_atom_site_fract_z
Si Si1 0.954567 0.841806 0.222030
Si Si2 0.732482 0.088903 0.631437
Si Si3 0.453139 0.657265 0.965002
Si Si4 0.163758 0.841085 0.615579
Si Si5 0.242669 0.408646 0.374196
Si Si6 0.836413 0.340370 0.873225
O O1 0.928702 0.750000 0.215162
O O2 0.879191 0.890564 0.133376
O O3 0.956597 0.870375 0.378281
O O4 0.053821 0.860841 0.149719
O O5 0.788939 0.146361 0.530780
O O6 0.771554 0.103038 0.782487
O O7 0.746474 0.999447 0.585884
O O8 0.435005 0.750000 0.957182
O O9 0.552470 0.634356 0.892399
O O10 0.368666 0.613689 0.885131
O O11 0.174037 0.750000 0.656369
O O12 0.219500 0.894972 0.722543
O O13 0.308167 0.355451 0.471537
O O14 0.814709 0.250000 0.835010
#
# Coordination Sequence:
#
# PCOD8254206 Si02
#       6
#     8   8   8   8   8   8
#     4  10  21  39  69  96 117 166 227 263 296 368
#     4  12  24  40  64  96 131 166 209 261 316 376
#     4  10  21  41  68  92 121 171 220 255 309 377
#     4  11  24  42  64  95 129 166 213 267 314 372
#     4  12  26  40  63  98 136 167 199 262 334 379
#     4  11  22  42  68  92 121 169 224 263 301 375
#
# _framework density 20.512364999999999
#
# number of rings (size 3 to 8) (size 9 to 14) (size 15 to 20)
#    0.000    1.000    3.333    4.000    0.000    4.000 
#    0.000    1.667    0.000    0.000    0.000    0.000 
#    0.000    0.000    0.000    0.000    0.000    0.000 
#
# Total GULP energy -595551.753195 kJ/mol
# GULP energy per Si atom -12407.328192 kJ/mol
# Density = 2.046568 g / cm^3
# Si number density = 20.512365 Si / 1000 Ang^3
#
#
#
# Elastic Constant Matrix: (Units=GPa)
#
#
# Indices 1 2 3 4 5 6 
#
# 1 143.7943 51.1252 33.7197 0.0000 0.0000 0.0000
# 2 51.1252 63.1469 18.7373 0.0000 0.0000 0.0000
# 3 33.7197 18.7373 66.4649 0.0000 0.0000 0.0000
# 4 0.0000 0.0000 0.0000 26.7359 0.0000 0.0000
# 5 0.0000 0.0000 0.0000 0.0000 40.1580 0.0000
# 6 0.0000 0.0000 0.0000 0.0000 0.0000 11.5210
#
#
#
# Elastic Compliance Matrix: (Units=1/GPa)
#
#
# Indices 1 2 3 4 5 6 
#
# 1 0.010336 -0.007434 -0.003148 0.000000 0.000000 0.000000
# 2 -0.007434 0.022629 -0.002608 0.000000 0.000000 0.000000
# 3 -0.003148 -0.002608 0.017378 0.000000 0.000000 0.000000
# 4 0.000000 0.000000 0.000000 0.037403 0.000000 0.000000
# 5 0.000000 0.000000 0.000000 0.000000 0.024902 0.000000
# 6 0.000000 0.000000 0.000000 0.000000 0.000000 0.086798
#
#
# Mechanical properties :
#
#
# Convention : Reuss Voigt Hill
#
# Bulk Modulus (GPa) = 41.73151 53.39673 47.56412
# Shear Modulus (GPa) = 21.38475 27.00456 24.19466
#
# Velocity S-wave (km/s) = 3.23233 3.63230 3.43813
# Velocity P-wave (km/s) = 5.85827 6.60904 6.24495
#
# Compressibility (1/GPa) = 0.02396271
#
# Stress axis : x y z
#
# Youngs Moduli (GPa) = 96.75255 44.19188 57.54488
#
# Poissons Ratio (x) = 0.32852 0.18114
# Poissons Ratio (y) = 0.71925 0.15007
# Poissons Ratio (z) = 0.30457 0.11524
#
# Static dielectric constant tensor:
#      x y z
#    x 3.839460 0.000000 0.000000 
#    y 0.000000 3.506020 0.000000 
#    z 0.000000 0.000000 3.518860 
# 
# 
# High freq. dielectric constant tensor:
#      x y z
#    x 1.818180 0.000000 0.000000 
#    y 0.000000 1.795520 0.000000 
#    z 0.000000 0.000000 1.797680 
# 
# From -- ./inp_files/6421.got.cif
#   From: 2010.03.12/outbox.cif.g09.slc.cpg/sg62_4_cif.got.tgz:6421.got - 2010.04.10 19:12:36.
