data_PCOD8254543
_publ_section_title
;
Structure prediction by ZEFSAII (Michael W. Deem and Ramdas Pophale) SiO2 
 PCOD8254543
Probable space group: P N M A
;
_chemical_formula_sum "Si O2"
_cell_formula_units_Z 56
_cell_length_a 21.987555
_cell_length_b 8.854869
_cell_length_c 14.450445
_cell_angle_alpha 90.000000
_cell_angle_beta 90.000000
_cell_angle_gamma 90.000000
_cell_volume 2813.457122
_symmetry_space_group_name_H-M "P N M A"
_symmetry_group_IT_number 62
_symmetry_cell_setting 'orthorhombic'
loop_
_space_group_symop_operation_xyz
x,y,z
1/2-x,-y,1/2+z
1/2+x,1/2-y,1/2-z
-x,1/2+y,-z
-x,-y,-z
1/2+x,y,1/2-z
1/2-x,1/2+y,1/2+z
x,1/2-y,z
loop_
_atom_site_type_symbol
_atom_site_label
_atom_site_fract_x
_atom_site_fract_y
_atom_site_fract_z
Si Si1 0.843811 0.574002 0.383995
Si Si2 0.452121 0.422941 0.610890
Si Si3 0.808267 0.071436 0.201187
Si Si4 0.025933 0.571436 0.592612
Si Si5 0.920898 0.076796 0.691779
Si Si6 0.076372 0.928059 0.910545
Si Si7 0.311330 0.575823 0.910296
O O1 0.856783 0.750000 0.368908
O O2 0.802643 0.510157 0.300443
O O3 0.907288 0.486758 0.384578
O O4 0.807435 0.546030 0.479680
O O5 0.471922 0.250000 0.596954
O O6 0.407032 0.441462 0.698477
O O7 0.513388 0.514744 0.631540
O O8 0.418220 0.480849 0.518180
O O9 0.811638 0.250000 0.217420
O O10 0.867483 0.006444 0.148158
O O11 0.751326 0.027127 0.137270
O O12 0.027924 0.750000 0.582812
O O13 0.000000 0.500000 0.500000
O O14 0.980418 0.523413 0.673654
O O15 0.934860 0.250000 0.665840
O O16 0.864275 0.024652 0.632032
O O17 0.078742 0.750000 0.902435
O O18 0.326886 0.750000 0.890167
#
# Coordination Sequence:
#
# PCOD8254543 Si02
#       7
#     8   8   8   8   8   8   8
#     4  11  23  40  62  89 120 157 199 248 304 360
#     4   9  19  34  55  84 115 144 184 235 287 347
#     4  10  22  40  61  84 113 156 203 246 296 356
#     4  12  23  37  60  89 122 157 195 245 301 360
#     4  11  22  36  58  88 120 154 195 244 299 358
#     4   9  18  35  57  81 111 148 189 234 289 346
#     4  10  23  41  59  81 115 155 197 243 293 352
#
# _framework density 19.904337000000002
#
# number of rings (size 3 to 8) (size 9 to 14) (size 15 to 20)
#    0.000    1.714    1.429    3.000    0.000    6.286 
#    0.000    2.857    0.000    0.000    0.000    0.000 
#    0.000    0.000    0.000    0.000    0.000    0.000 
#
# Total GULP energy -694443.417796 kJ/mol
# GULP energy per Si atom -12400.775318 kJ/mol
# Density = 1.985903 g / cm^3
# Si number density = 19.904337 Si / 1000 Ang^3
#
#
#
# Elastic Constant Matrix: (Units=GPa)
#
#
# Indices 1 2 3 4 5 6 
#
# 1 89.1816 39.8468 59.3760 0.0000 0.0000 0.0000
# 2 39.8468 85.6987 50.6866 0.0000 0.0000 0.0000
# 3 59.3760 50.6866 150.9040 0.0000 0.0000 0.0000
# 4 0.0000 0.0000 0.0000 29.9645 0.0000 0.0000
# 5 0.0000 0.0000 0.0000 0.0000 28.6188 0.0000
# 6 0.0000 0.0000 0.0000 0.0000 0.0000 25.6243
#
#
#
# Elastic Compliance Matrix: (Units=1/GPa)
#
#
# Indices 1 2 3 4 5 6 
#
# 1 0.016653 -0.004826 -0.004931 0.000000 0.000000 0.000000
# 2 -0.004826 0.015960 -0.003462 0.000000 0.000000 0.000000
# 3 -0.004931 -0.003462 0.009730 0.000000 0.000000 0.000000
# 4 0.000000 0.000000 0.000000 0.033373 0.000000 0.000000
# 5 0.000000 0.000000 0.000000 0.000000 0.034942 0.000000
# 6 0.000000 0.000000 0.000000 0.000000 0.000000 0.039025
#
#
# Mechanical properties :
#
#
# Convention : Reuss Voigt Hill
#
# Bulk Modulus (GPa) = 62.87707 69.51145 66.19426
# Shear Modulus (GPa) = 27.55989 28.56653 28.06321
#
# Velocity S-wave (km/s) = 3.72508 3.79250 3.75894
# Velocity P-wave (km/s) = 7.08236 7.36044 7.22274
#
# Compressibility (1/GPa) = 0.01590405
#
# Stress axis : x y z
#
# Youngs Moduli (GPa) = 60.05065 62.65520 102.77708
#
# Poissons Ratio (x) = 0.30239 0.50681
# Poissons Ratio (y) = 0.28982 0.35580
# Poissons Ratio (z) = 0.29612 0.21690
#
# Static dielectric constant tensor:
#      x y z
#    x 3.556300 0.000000 0.000000 
#    y 0.000000 3.661080 0.000000 
#    z 0.000000 0.000000 3.943800 
# 
# 
# High freq. dielectric constant tensor:
#      x y z
#    x 1.758500 0.000000 0.000000 
#    y 0.000000 1.773960 0.000000 
#    z 0.000000 0.000000 1.798070 
# 
# From -- ./inp_files/20352.got.cif
#   From: 2010.03.12/outbox.cif.g09.slc.cpg/sg62_11_cif.got.tgz:20352.got - 2010.04.10 19:12:36.
