data_PCOD8254218
_publ_section_title
;
Structure prediction by ZEFSAII (Michael W. Deem and Ramdas Pophale) SiO2 
 PCOD8254218
Probable space group: P N M A
;
_chemical_formula_sum "Si O2"
_cell_formula_units_Z 48
_cell_length_a 16.626674
_cell_length_b 17.903090
_cell_length_c 8.502432
_cell_angle_alpha 90.000000
_cell_angle_beta 90.000000
_cell_angle_gamma 90.000000
_cell_volume 2530.909079
_symmetry_space_group_name_H-M "P N M A"
_symmetry_group_IT_number 62
_symmetry_cell_setting 'orthorhombic'
loop_
_space_group_symop_operation_xyz
x,y,z
1/2-x,-y,1/2+z
1/2+x,1/2-y,1/2-z
-x,1/2+y,-z
-x,-y,-z
1/2+x,y,1/2-z
1/2-x,1/2+y,1/2+z
x,1/2-y,z
loop_
_atom_site_type_symbol
_atom_site_label
_atom_site_fract_x
_atom_site_fract_y
_atom_site_fract_z
Si Si1 0.384209 0.335824 0.028644
Si Si2 0.817273 0.453684 0.692395
Si Si3 0.533759 0.932444 0.399813
Si Si4 0.709323 0.408210 0.967158
Si Si5 0.860684 0.162923 0.120023
Si Si6 0.548078 0.336537 0.854535
O O1 0.358061 0.250000 0.016518
O O2 0.369456 0.368235 0.202905
O O3 0.325678 0.379168 0.910943
O O4 0.477003 0.347414 0.981108
O O5 0.897064 0.467905 0.792791
O O6 0.740085 0.442094 0.802682
O O7 0.806756 0.524645 0.584161
O O8 0.569116 0.871315 0.516310
O O9 0.466418 0.890498 0.295308
O O10 0.500000 0.000000 0.500000
O O11 0.629744 0.360139 0.939694
O O12 0.774025 0.354025 0.046982
O O13 0.876076 0.250000 0.120160
O O14 0.552980 0.250000 0.800121
#
# Coordination Sequence:
#
# PCOD8254218 Si02
#       6
#     8   8   8   8   8   8
#     4   9  20  39  62  85 115 157 201 239 291 355
#     4  10  23  37  57  85 119 155 195 243 290 361
#     4  10  23  37  62  88 115 155 196 241 297 351
#     4  11  23  37  61  86 123 154 198 246 299 343
#     4  10  21  40  62  84 119 161 195 235 293 362
#     4  10  22  39  60  88 117 152 199 248 293 347
#
# _framework density 18.965516000000001
#
# number of rings (size 3 to 8) (size 9 to 14) (size 15 to 20)
#    0.000    2.000    0.000    2.000    9.333    6.000 
#    0.000    0.000    0.000    0.000    0.000    0.000 
#    0.000    0.000    0.000    0.000    0.000    0.000 
#
# Total GULP energy -595332.570234 kJ/mol
# GULP energy per Si atom -12402.761880 kJ/mol
# Density = 1.892235 g / cm^3
# Si number density = 18.965516 Si / 1000 Ang^3
#
#
#
# Elastic Constant Matrix: (Units=GPa)
#
#
# Indices 1 2 3 4 5 6 
#
# 1 44.8986 34.2567 41.9122 0.0000 0.0000 0.0000
# 2 34.2567 82.5666 51.7887 0.0000 0.0000 0.0000
# 3 41.9122 51.7887 135.1533 0.0000 0.0000 0.0000
# 4 0.0000 0.0000 0.0000 43.0789 0.0000 0.0000
# 5 0.0000 0.0000 0.0000 0.0000 21.8700 0.0000
# 6 0.0000 0.0000 0.0000 0.0000 0.0000 18.7482
#
#
#
# Elastic Compliance Matrix: (Units=1/GPa)
#
#
# Indices 1 2 3 4 5 6 
#
# 1 0.037563 -0.010897 -0.007473 0.000000 0.000000 0.000000
# 2 -0.010897 0.019105 -0.003941 0.000000 0.000000 0.000000
# 3 -0.007473 -0.003941 0.011227 0.000000 0.000000 0.000000
# 4 0.000000 0.000000 0.000000 0.023213 0.000000 0.000000
# 5 0.000000 0.000000 0.000000 0.000000 0.045725 0.000000
# 6 0.000000 0.000000 0.000000 0.000000 0.000000 0.053338
#
#
# Mechanical properties :
#
#
# Convention : Reuss Voigt Hill
#
# Bulk Modulus (GPa) = 42.97177 57.61486 50.29331
# Shear Modulus (GPa) = 20.61424 25.71681 23.16553
#
# Velocity S-wave (km/s) = 3.30044 3.68635 3.49872
# Velocity P-wave (km/s) = 6.10172 6.96876 6.54960
#
# Compressibility (1/GPa) = 0.02327109
#
# Stress axis : x y z
#
# Youngs Moduli (GPa) = 26.62220 52.34253 89.07399
#
# Poissons Ratio (x) = 0.57040 0.66563
# Poissons Ratio (y) = 0.29011 0.35107
# Poissons Ratio (z) = 0.19894 0.20630
#
# Static dielectric constant tensor:
#      x y z
#    x 4.368290 0.000000 0.000000 
#    y 0.000000 3.473010 0.000000 
#    z 0.000000 0.000000 3.831390 
# 
# 
# High freq. dielectric constant tensor:
#      x y z
#    x 1.733490 0.000000 0.000000 
#    y 0.000000 1.746020 0.000000 
#    z 0.000000 0.000000 1.752200 
# 
# From -- ./inp_files/6436.got.cif
#   From: 2010.03.12/outbox.cif.g09.slc.cpg/sg62_4_cif.got.tgz:6436.got - 2010.04.10 19:12:36.
