data_PCOD8254037
_publ_section_title
;
Structure prediction by ZEFSAII (Michael W. Deem and Ramdas Pophale) SiO2 
 PCOD8254037
Probable space group: P N M A
;
_chemical_formula_sum "Si O2"
_cell_formula_units_Z 48
_cell_length_a 14.943430
_cell_length_b 8.927390
_cell_length_c 18.847901
_cell_angle_alpha 90.000000
_cell_angle_beta 90.000000
_cell_angle_gamma 90.000000
_cell_volume 2514.419830
_symmetry_space_group_name_H-M "P N M A"
_symmetry_group_IT_number 62
_symmetry_cell_setting 'orthorhombic'
loop_
_space_group_symop_operation_xyz
x,y,z
1/2-x,-y,1/2+z
1/2+x,1/2-y,1/2-z
-x,1/2+y,-z
-x,-y,-z
1/2+x,y,1/2-z
1/2-x,1/2+y,1/2+z
x,1/2-y,z
loop_
_atom_site_type_symbol
_atom_site_label
_atom_site_fract_x
_atom_site_fract_y
_atom_site_fract_z
Si Si1 0.531396 0.575473 0.427859
Si Si2 0.285350 0.923612 0.574638
Si Si3 0.976047 0.577371 0.572662
Si Si4 0.771959 0.576097 0.569761
Si Si5 0.134517 0.076075 0.829636
Si Si6 0.875808 0.423799 0.319301
O O1 0.500000 0.500000 0.500000
O O2 0.543865 0.750000 0.442689
O O3 0.624678 0.506900 0.401637
O O4 0.459849 0.542934 0.366791
O O5 0.307182 0.750000 0.563137
O O6 0.213701 0.950206 0.635904
O O7 0.248310 0.985339 0.500980
O O8 0.997554 0.750000 0.560336
O O9 0.873713 0.547826 0.593805
O O10 0.000000 0.500000 0.500000
O O11 0.039093 0.518212 0.635743
O O12 0.753111 0.750000 0.554750
O O13 0.711420 0.520717 0.633935
O O14 0.160126 0.250000 0.834973
O O15 0.127906 0.027988 0.748705
O O16 0.885925 0.250000 0.297352
#
# Coordination Sequence:
#
# PCOD8254037 Si02
#       6
#     8   8   8   8   8   8
#     4  11  23  39  62  91 122 160 206 255 305 362
#     4  11  22  38  63  92 122 160 205 252 301 361
#     4  10  21  38  62  92 122 158 202 247 298 361
#     4  11  22  37  63  93 122 160 203 249 303 363
#     4  11  25  42  61  88 124 161 203 254 309 361
#     4  10  23  42  62  88 126 163 200 249 307 363
#
# _framework density 19.089891000000001
#
# number of rings (size 3 to 8) (size 9 to 14) (size 15 to 20)
#    0.000    1.333    3.333    2.000    0.000    6.000 
#    0.000    5.000    0.000    0.000    0.000    0.000 
#    0.000    0.000    0.000    0.000    0.000    0.000 
#
# Total GULP energy -595464.221757 kJ/mol
# GULP energy per Si atom -12405.504620 kJ/mol
# Density = 1.904644 g / cm^3
# Si number density = 19.089891 Si / 1000 Ang^3
#
#
#
# Elastic Constant Matrix: (Units=GPa)
#
#
# Indices 1 2 3 4 5 6 
#
# 1 133.8335 70.0783 50.8433 0.0000 0.0000 0.0000
# 2 70.0783 92.8702 54.1354 0.0000 0.0000 0.0000
# 3 50.8433 54.1354 118.8709 0.0000 0.0000 0.0000
# 4 0.0000 0.0000 0.0000 36.5482 0.0000 0.0000
# 5 0.0000 0.0000 0.0000 0.0000 30.4801 0.0000
# 6 0.0000 0.0000 0.0000 0.0000 0.0000 31.7378
#
#
#
# Elastic Compliance Matrix: (Units=1/GPa)
#
#
# Indices 1 2 3 4 5 6 
#
# 1 0.012530 -0.008619 -0.001434 0.000000 0.000000 0.000000
# 2 -0.008619 0.020588 -0.005690 0.000000 0.000000 0.000000
# 3 -0.001434 -0.005690 0.011617 0.000000 0.000000 0.000000
# 4 0.000000 0.000000 0.000000 0.027361 0.000000 0.000000
# 5 0.000000 0.000000 0.000000 0.000000 0.032808 0.000000
# 6 0.000000 0.000000 0.000000 0.000000 0.000000 0.031508
#
#
# Mechanical properties :
#
#
# Convention : Reuss Voigt Hill
#
# Bulk Modulus (GPa) = 75.47351 77.29874 76.38612
# Shear Modulus (GPa) = 29.01682 31.12105 30.06893
#
# Velocity S-wave (km/s) = 3.90296 4.04200 3.97309
# Velocity P-wave (km/s) = 7.74161 7.89706 7.81972
#
# Compressibility (1/GPa) = 0.01324968
#
# Stress axis : x y z
#
# Youngs Moduli (GPa) = 79.80967 48.57224 86.08080
#
# Poissons Ratio (x) = 0.41864 0.12345
# Poissons Ratio (y) = 0.68787 0.48976
# Poissons Ratio (z) = 0.11446 0.27636
#
# Static dielectric constant tensor:
#      x y z
#    x 4.017460 0.000000 0.000000 
#    y 0.000000 3.617210 0.000000 
#    z 0.000000 0.000000 3.422980 
# 
# 
# High freq. dielectric constant tensor:
#      x y z
#    x 1.761590 0.000000 0.000000 
#    y 0.000000 1.752430 0.000000 
#    z 0.000000 0.000000 1.738800 
# 
# From -- ./inp_files/23743.got.cif
#   From: 2010.03.12/outbox.cif.g09.slc.cpg/sg62_12_cif.got.tgz:23743.got - 2010.04.10 19:12:36.
