data_PCOD8254261
_publ_section_title
;
Structure prediction by ZEFSAII (Michael W. Deem and Ramdas Pophale) SiO2 
 PCOD8254261
Probable space group: P N M A
;
_chemical_formula_sum "Si O2"
_cell_formula_units_Z 56
_cell_length_a 19.268887
_cell_length_b 8.992565
_cell_length_c 16.881647
_cell_angle_alpha 90.000000
_cell_angle_beta 90.000000
_cell_angle_gamma 90.000000
_cell_volume 2925.196401
_symmetry_space_group_name_H-M "P N M A"
_symmetry_group_IT_number 62
_symmetry_cell_setting 'orthorhombic'
loop_
_space_group_symop_operation_xyz
x,y,z
1/2-x,-y,1/2+z
1/2+x,1/2-y,1/2-z
-x,1/2+y,-z
-x,-y,-z
1/2+x,y,1/2-z
1/2-x,1/2+y,1/2+z
x,1/2-y,z
loop_
_atom_site_type_symbol
_atom_site_label
_atom_site_fract_x
_atom_site_fract_y
_atom_site_fract_z
Si Si1 0.442096 0.410587 0.402824
Si Si2 0.932531 0.411440 0.912968
Si Si3 0.656146 0.414921 0.834471
Si Si4 0.806929 0.424736 0.179414
Si Si5 0.075252 0.427643 0.508648
Si Si6 0.715941 0.918657 0.440805
Si Si7 0.798778 0.426762 0.575192
O O1 0.446349 0.250000 0.361340
O O2 0.506884 0.501838 0.366396
O O3 0.453362 0.397406 0.495746
O O4 0.365901 0.475429 0.384010
O O5 0.929015 0.250000 0.872506
O O6 0.856469 0.486524 0.907946
O O7 0.634498 0.250000 0.804355
O O8 0.659224 0.531357 0.763359
O O9 0.603506 0.467905 0.903587
O O10 0.733530 0.407420 0.867364
O O11 0.790383 0.250000 0.178461
O O12 0.735814 0.512435 0.157059
O O13 0.072754 0.250000 0.496569
O O14 0.126686 0.496754 0.442132
O O15 0.000000 0.500000 0.500000
O O16 0.704108 0.750000 0.476689
O O17 0.745565 0.028926 0.506289
O O18 0.808523 0.250000 0.579883
#
# Coordination Sequence:
#
# PCOD8254261 Si02
#       7
#     8   8   8   8   8   8   8
#     4   9  18  30  46  71 103 137 173 212 257 311
#     4   9  16  29  49  72 100 133 170 212 260 311
#     4   9  20  36  56  81 110 143 181 229 281 333
#     4  11  21  36  54  76 111 150 185 228 281 337
#     4  10  21  40  64  88 116 148 190 241 289 342
#     4   9  17  34  54  75 106 140 175 220 273 325
#     4  11  21  33  56  85 110 141 186 232 279 336
#
# _framework density 19.144013000000001
#
# number of rings (size 3 to 8) (size 9 to 14) (size 15 to 20)
#    0.000    2.286    1.429    3.000    0.000    4.571 
#    0.000    1.429    0.000    5.143    0.000    0.000 
#    0.000    0.000    0.000    0.000    0.000    0.000 
#
# Total GULP energy -693900.594463 kJ/mol
# GULP energy per Si atom -12391.082044 kJ/mol
# Density = 1.910044 g / cm^3
# Si number density = 19.144013 Si / 1000 Ang^3
#
#
#
# Elastic Constant Matrix: (Units=GPa)
#
#
# Indices 1 2 3 4 5 6 
#
# 1 159.0519 60.7067 24.9090 0.0000 0.0000 0.0000
# 2 60.7067 103.1282 34.4978 0.0000 0.0000 0.0000
# 3 24.9090 34.4978 53.9642 0.0000 0.0000 0.0000
# 4 0.0000 0.0000 0.0000 19.9832 0.0000 0.0000
# 5 0.0000 0.0000 0.0000 0.0000 16.3350 0.0000
# 6 0.0000 0.0000 0.0000 0.0000 0.0000 34.7929
#
#
#
# Elastic Compliance Matrix: (Units=1/GPa)
#
#
# Indices 1 2 3 4 5 6 
#
# 1 0.008142 -0.004497 -0.000883 0.000000 0.000000 0.000000
# 2 -0.004497 0.014819 -0.007397 0.000000 0.000000 0.000000
# 3 -0.000883 -0.007397 0.023667 0.000000 0.000000 0.000000
# 4 0.000000 0.000000 0.000000 0.050042 0.000000 0.000000
# 5 0.000000 0.000000 0.000000 0.000000 0.061218 0.000000
# 6 0.000000 0.000000 0.000000 0.000000 0.000000 0.028742
#
#
# Mechanical properties :
#
#
# Convention : Reuss Voigt Hill
#
# Bulk Modulus (GPa) = 47.45547 61.81904 54.63725
# Shear Modulus (GPa) = 22.80924 27.29093 25.05009
#
# Velocity S-wave (km/s) = 3.45549 3.77975 3.62125
# Velocity P-wave (km/s) = 6.38459 7.17011 6.78872
#
# Compressibility (1/GPa) = 0.02107239
#
# Stress axis : x y z
#
# Youngs Moduli (GPa) = 122.81750 67.48292 42.25253
#
# Poissons Ratio (x) = 0.30350 0.03732
# Poissons Ratio (y) = 0.55237 0.31255
# Poissons Ratio (z) = 0.10847 0.49918
#
# Static dielectric constant tensor:
#      x y z
#    x 3.706510 0.000000 0.000000 
#    y 0.000000 3.688840 0.000000 
#    z 0.000000 0.000000 3.161330 
# 
# 
# High freq. dielectric constant tensor:
#      x y z
#    x 1.755270 0.000000 0.000000 
#    y 0.000000 1.741650 0.000000 
#    z 0.000000 0.000000 1.703050 
# 
# From -- ./inp_files/24639.got.cif
#   From: 2010.03.12/outbox.cif.g09.slc.cpg/sg62_13_cif.got.tgz:24639.got - 2010.04.10 19:12:36.
