data_PCOD8254994
_publ_section_title
;
Structure prediction by ZEFSAII (Michael W. Deem and Ramdas Pophale) SiO2 
 PCOD8254994
Probable space group: P N M A
;
_chemical_formula_sum "Si O2"
_cell_formula_units_Z 40
_cell_length_a 9.731329
_cell_length_b 10.410162
_cell_length_c 19.844268
_cell_angle_alpha 90.000000
_cell_angle_beta 90.000000
_cell_angle_gamma 90.000000
_cell_volume 2010.317842
_symmetry_space_group_name_H-M "P N M A"
_symmetry_group_IT_number 62
_symmetry_cell_setting 'orthorhombic'
loop_
_space_group_symop_operation_xyz
x,y,z
1/2-x,-y,1/2+z
1/2+x,1/2-y,1/2-z
-x,1/2+y,-z
-x,-y,-z
1/2+x,y,1/2-z
1/2-x,1/2+y,1/2+z
x,1/2-y,z
loop_
_atom_site_type_symbol
_atom_site_label
_atom_site_fract_x
_atom_site_fract_y
_atom_site_fract_z
Si Si1 0.535902 0.033988 0.732425
Si Si2 0.062481 0.250000 0.662152
Si Si3 0.004520 0.750000 0.135685
Si Si4 0.813356 0.900392 0.685406
Si Si5 0.144064 0.485758 0.462790
Si Si6 0.734981 0.750000 0.461095
Si Si7 0.714761 0.750000 0.078263
O O1 0.584714 0.123080 0.793861
O O2 0.457580 0.121725 0.677198
O O3 0.667409 0.965272 0.700320
O O4 0.424874 0.929648 0.756824
O O5 0.177193 0.250000 0.605919
O O6 0.914973 0.250000 0.627515
O O7 0.077004 0.750000 0.062747
O O8 0.841624 0.750000 0.128069
O O9 0.788565 0.750000 0.681107
O O10 0.876564 0.952529 0.615542
O O11 0.238229 0.377094 0.495751
O O12 0.217386 0.624356 0.469403
O O13 0.000000 0.500000 0.500000
#
# Coordination Sequence:
#
# PCOD8254994 Si02
#       7
#     8   4   4   8   8   4   4
#     4  11  22  42  67  98 129 160 222 269 333 395
#     4  11  20  40  74  96 118 170 218 276 310 392
#     4  11  24  40  70  96 128 169 208 283 332 384
#     4  12  24  41  65  95 133 173 209 273 337 392
#     4  12  23  42  67  94 129 177 223 269 315 402
#     4  12  24  41  66  96 134 168 220 267 333 384
#     4  12  22  43  66  98 124 169 224 260 327 384
#
# _framework density 19.897351
#
# number of rings (size 3 to 8) (size 9 to 14) (size 15 to 20)
#    0.000    0.400    7.000    1.800    0.000    4.000 
#    0.000    0.000    2.200    0.000    0.000    0.000 
#    0.000    0.000    0.000    0.000    0.000    0.000 
#
# Total GULP energy -496113.434216 kJ/mol
# GULP energy per Si atom -12402.835855 kJ/mol
# Density = 1.985206 g / cm^3
# Si number density = 19.897351 Si / 1000 Ang^3
#
#
#
# Elastic Constant Matrix: (Units=GPa)
#
#
# Indices 1 2 3 4 5 6 
#
# 1 75.5974 36.6909 32.0223 0.0000 0.0000 0.0000
# 2 36.6909 170.2520 57.1046 0.0000 0.0000 0.0000
# 3 32.0223 57.1046 80.6288 0.0000 0.0000 0.0000
# 4 0.0000 0.0000 0.0000 27.1657 0.0000 0.0000
# 5 0.0000 0.0000 0.0000 0.0000 19.4851 0.0000
# 6 0.0000 0.0000 0.0000 0.0000 0.0000 21.9492
#
#
#
# Elastic Compliance Matrix: (Units=1/GPa)
#
#
# Indices 1 2 3 4 5 6 
#
# 1 0.016295 -0.001759 -0.005226 0.000000 0.000000 0.000000
# 2 -0.001759 0.007894 -0.004892 0.000000 0.000000 0.000000
# 3 -0.005226 -0.004892 0.017943 0.000000 0.000000 0.000000
# 4 0.000000 0.000000 0.000000 0.036811 0.000000 0.000000
# 5 0.000000 0.000000 0.000000 0.000000 0.051321 0.000000
# 6 0.000000 0.000000 0.000000 0.000000 0.000000 0.045560
#
#
# Mechanical properties :
#
#
# Convention : Reuss Voigt Hill
#
# Bulk Modulus (GPa) = 54.41358 64.23487 59.32423
# Shear Modulus (GPa) = 24.30680 27.09735 25.70207
#
# Velocity S-wave (km/s) = 3.49895 3.69434 3.59797
# Velocity P-wave (km/s) = 6.61287 7.10990 6.86588
#
# Compressibility (1/GPa) = 0.01837777
#
# Stress axis : x y z
#
# Youngs Moduli (GPa) = 61.36709 126.68600 55.73267
#
# Poissons Ratio (x) = 0.22283 0.29126
# Poissons Ratio (y) = 0.10794 0.27264
# Poissons Ratio (z) = 0.32071 0.61974
#
# Static dielectric constant tensor:
#      x y z
#    x 3.552100 0.000000 0.000000 
#    y 0.000000 4.160000 0.000000 
#    z 0.000000 0.000000 3.750290 
# 
# 
# High freq. dielectric constant tensor:
#      x y z
#    x 1.770680 0.000000 0.000000 
#    y 0.000000 1.794740 0.000000 
#    z 0.000000 0.000000 1.776720 
# 
# From -- ./inp_files/21984.got.cif
#   From: 2010.03.12/outbox.cif.g09.slc.cpg/sg62_11_cif.got.tgz:21984.got - 2010.04.10 19:12:36.
