data_PCOD8254943
_publ_section_title
;
Structure prediction by ZEFSAII (Michael W. Deem and Ramdas Pophale) SiO2 
 PCOD8254943
Probable space group: P N M A
;
_chemical_formula_sum "Si O2"
_cell_formula_units_Z 24
_cell_length_a 10.306684
_cell_length_b 11.772620
_cell_length_c 8.375448
_cell_angle_alpha 90.000000
_cell_angle_beta 90.000000
_cell_angle_gamma 90.000000
_cell_volume 1016.249005
_symmetry_space_group_name_H-M "P N M A"
_symmetry_group_IT_number 62
_symmetry_cell_setting 'orthorhombic'
loop_
_space_group_symop_operation_xyz
x,y,z
1/2-x,-y,1/2+z
1/2+x,1/2-y,1/2-z
-x,1/2+y,-z
-x,-y,-z
1/2+x,y,1/2-z
1/2-x,1/2+y,1/2+z
x,1/2-y,z
loop_
_atom_site_type_symbol
_atom_site_label
_atom_site_fract_x
_atom_site_fract_y
_atom_site_fract_z
Si Si1 0.510677 0.250000 0.126152
Si Si2 0.361409 0.025607 0.573344
Si Si3 0.200559 0.750000 0.898359
Si Si4 0.655081 0.622864 0.088781
O O1 0.417863 0.250000 0.278027
O O2 0.658075 0.250000 0.186890
O O3 0.476364 0.138053 0.018057
O O4 0.303711 0.141654 0.509872
O O5 0.370903 0.036817 0.765315
O O6 0.500000 0.000000 0.500000
O O7 0.266927 0.922969 0.528146
O O8 0.698261 0.750000 0.147291
#
# Coordination Sequence:
#
# PCOD8254943 Si02
#       4
#     4   8   4   8
#     4  10  27  48  78 106 166 193 270 322 398 463
#     4  12  28  46  83 110 161 203 268 324 402 465
#     4  12  27  48  78 118 154 213 262 334 392 479
#     4  10  26  51  74 114 152 208 261 323 393 471
#
# _framework density 23.616261000000002
#
# number of rings (size 3 to 8) (size 9 to 14) (size 15 to 20)
#    1.000    0.000    1.667    2.000   16.333    1.333 
#    0.000    0.000    0.000    0.000    0.000    0.000 
#    0.000    0.000    0.000    0.000    0.000    0.000 
#
# Total GULP energy -297520.494863 kJ/mol
# GULP energy per Si atom -12396.687286 kJ/mol
# Density = 2.356251 g / cm^3
# Si number density = 23.616261 Si / 1000 Ang^3
#
#
#
# Elastic Constant Matrix: (Units=GPa)
#
#
# Indices 1 2 3 4 5 6 
#
# 1 123.6438 20.5743 2.7943 0.0000 0.0000 0.0000
# 2 20.5743 73.8935 6.5255 0.0000 0.0000 0.0000
# 3 2.7943 6.5255 92.8816 0.0000 0.0000 0.0000
# 4 0.0000 0.0000 0.0000 -4.0864 0.0000 0.0000
# 5 0.0000 0.0000 0.0000 0.0000 38.3081 0.0000
# 6 0.0000 0.0000 0.0000 0.0000 0.0000 14.6303
#
#
#
# Elastic Compliance Matrix: (Units=1/GPa)
#
#
# Indices 1 2 3 4 5 6 
#
# 1 0.008481 -0.002354 -0.000090 0.000000 0.000000 0.000000
# 2 -0.002354 0.014271 -0.000932 0.000000 0.000000 0.000000
# 3 -0.000090 -0.000932 0.010835 0.000000 0.000000 0.000000
# 4 0.000000 0.000000 0.000000 -0.244716 0.000000 0.000000
# 5 0.000000 0.000000 0.000000 0.000000 0.026104 0.000000
# 6 0.000000 0.000000 0.000000 0.000000 0.000000 0.068351
#
#
# Mechanical properties :
#
#
# Convention : Reuss Voigt Hill
#
# Bulk Modulus (GPa) = 37.26308 38.91193 38.08750
# Shear Modulus (GPa) = -49.51571 27.13872 -11.18849
#
# Velocity S-wave (km/s) = -4.58392 3.39360 -2.17897
# Velocity P-wave (km/s) = 3.49336 5.64516 3.13562
#
# Compressibility (1/GPa) = 0.02683622
#
# Stress axis : x y z
#
# Youngs Moduli (GPa) = 117.90494 70.07421 92.29725
#
# Poissons Ratio (x) = 0.16492 0.00829
# Poissons Ratio (y) = 0.27750 0.08600
# Poissons Ratio (z) = 0.01059 0.06529
#
# Static dielectric constant tensor:
#      x y z
#    x 3.991150 0.000000 0.000000 
#    y 0.000000 4.534030 0.000000 
#    z 0.000000 0.000000 4.234870 
# 
# 
# High freq. dielectric constant tensor:
#      x y z
#    x 1.927630 0.000000 0.000000 
#    y 0.000000 1.950450 0.000000 
#    z 0.000000 0.000000 1.941970 
# 
# From -- ./inp_files/4002.got.cif
#   From: 2010.03.12/outbox.cif.g09.slc.cpg/sg62_3_cif.got.tgz:4002.got - 2010.04.10 19:12:36.
