data_PCOD8254569
_publ_section_title
;
Structure prediction by ZEFSAII (Michael W. Deem and Ramdas Pophale) SiO2 
 PCOD8254569
Probable space group: P N M A
;
_chemical_formula_sum "Si O2"
_cell_formula_units_Z 64
_cell_length_a 14.694117
_cell_length_b 8.776903
_cell_length_c 24.405809
_cell_angle_alpha 90.000000
_cell_angle_beta 90.000000
_cell_angle_gamma 90.000000
_cell_volume 3147.588866
_symmetry_space_group_name_H-M "P N M A"
_symmetry_group_IT_number 62
_symmetry_cell_setting 'orthorhombic'
loop_
_space_group_symop_operation_xyz
x,y,z
1/2-x,-y,1/2+z
1/2+x,1/2-y,1/2-z
-x,1/2+y,-z
-x,-y,-z
1/2+x,y,1/2-z
1/2-x,1/2+y,1/2+z
x,1/2-y,z
loop_
_atom_site_type_symbol
_atom_site_label
_atom_site_fract_x
_atom_site_fract_y
_atom_site_fract_z
Si Si1 0.371016 0.430430 0.758698
Si Si2 0.592480 0.571015 0.022362
Si Si3 0.880561 0.576874 0.356988
Si Si4 0.754820 0.427374 0.434518
Si Si5 0.834858 0.576092 0.233585
Si Si6 0.061155 0.428216 0.369158
Si Si7 0.005293 0.929700 0.828507
Si Si8 0.050402 0.070930 0.051216
O O1 0.374864 0.250000 0.752327
O O2 0.267033 0.490149 0.760911
O O3 0.417111 0.479554 0.814797
O O4 0.424239 0.499762 0.707391
O O5 0.578469 0.750000 0.030406
O O6 0.619447 0.492618 0.080158
O O7 0.500000 0.500000 0.000000
O O8 0.676663 0.533173 0.983408
O O9 0.900211 0.750000 0.375365
O O10 0.783710 0.522181 0.380614
O O11 0.883459 0.563711 0.291860
O O12 0.955487 0.463273 0.382745
O O13 0.754930 0.250000 0.419115
O O14 0.654988 0.482571 0.451503
O O15 0.831696 0.750000 0.213007
O O16 0.894348 0.480749 0.190603
O O17 0.078430 0.250000 0.361050
O O18 0.997172 0.750000 0.822629
O O19 0.993329 0.983504 0.891279
O O20 0.042302 0.250000 0.045653
O O21 0.000000 0.000000 0.000000
#
# Coordination Sequence:
#
# PCOD8254569 Si02
#       8
#     8   8   8   8   8   8   8   8
#     4  11  23  41  63  91 126 165 210 256 308 371
#     4  11  22  37  59  88 123 163 205 254 309 373
#     4  11  21  36  61  91 122 159 207 256 304 370
#     4  10  22  40  63  89 122 163 208 257 316 373
#     4  10  23  40  62  91 125 166 208 254 309 371
#     4  12  24  38  58  87 124 166 203 252 314 367
#     4  11  23  40  65  95 127 162 204 259 318 375
#     4  10  24  45  66  92 123 161 209 261 311 369
#
# _framework density 20.333024000000002
#
# number of rings (size 3 to 8) (size 9 to 14) (size 15 to 20)
#    0.000    1.250    2.500    3.375    0.000    4.500 
#    0.000    3.750    0.000    0.000    0.000    0.000 
#    0.000    0.000    0.000    0.000    0.000    0.000 
#
# Total GULP energy -793817.955681 kJ/mol
# GULP energy per Si atom -12403.405558 kJ/mol
# Density = 2.028675 g / cm^3
# Si number density = 20.333024 Si / 1000 Ang^3
#
#
#
# Elastic Constant Matrix: (Units=GPa)
#
#
# Indices 1 2 3 4 5 6 
#
# 1 127.0764 42.3574 57.5994 0.0000 0.0000 0.0000
# 2 42.3574 69.5611 44.7856 0.0000 0.0000 0.0000
# 3 57.5994 44.7856 137.9894 0.0000 0.0000 0.0000
# 4 0.0000 0.0000 0.0000 33.4862 0.0000 0.0000
# 5 0.0000 0.0000 0.0000 0.0000 31.8875 0.0000
# 6 0.0000 0.0000 0.0000 0.0000 0.0000 31.4526
#
#
#
# Elastic Compliance Matrix: (Units=1/GPa)
#
#
# Indices 1 2 3 4 5 6 
#
# 1 0.010769 -0.004631 -0.002992 0.000000 0.000000 0.000000
# 2 -0.004631 0.020165 -0.004612 0.000000 0.000000 0.000000
# 3 -0.002992 -0.004612 0.009993 0.000000 0.000000 0.000000
# 4 0.000000 0.000000 0.000000 0.029863 0.000000 0.000000
# 5 0.000000 0.000000 0.000000 0.000000 0.031360 0.000000
# 6 0.000000 0.000000 0.000000 0.000000 0.000000 0.031794
#
#
# Mechanical properties :
#
#
# Convention : Reuss Voigt Hill
#
# Bulk Modulus (GPa) = 60.76452 69.34575 65.05514
# Shear Modulus (GPa) = 30.50651 32.02423 31.26537
#
# Velocity S-wave (km/s) = 3.87763 3.97291 3.92556
# Velocity P-wave (km/s) = 7.07089 7.43131 7.25334
#
# Compressibility (1/GPa) = 0.01645697
#
# Stress axis : x y z
#
# Youngs Moduli (GPa) = 92.85729 49.59105 100.07360
#
# Poissons Ratio (x) = 0.22966 0.29944
# Poissons Ratio (y) = 0.43004 0.46149
# Poissons Ratio (z) = 0.27785 0.22869
#
# Static dielectric constant tensor:
#      x y z
#    x 3.873490 0.000000 0.000000 
#    y 0.000000 3.648510 0.000000 
#    z 0.000000 0.000000 3.776470 
# 
# 
# High freq. dielectric constant tensor:
#      x y z
#    x 1.797790 0.000000 0.000000 
#    y 0.000000 1.794180 0.000000 
#    z 0.000000 0.000000 1.803330 
# 
# From -- ./inp_files/29932.got.cif
#   From: 2010.03.12/outbox.cif.g09.slc.cpg/sg62_15_cif.got.tgz:29932.got - 2010.04.10 19:12:36.
