data_PCOD8254702
_publ_section_title
;
Structure prediction by ZEFSAII (Michael W. Deem and Ramdas Pophale) SiO2 
 PCOD8254702
Probable space group: P N M A
;
_chemical_formula_sum "Si O2"
_cell_formula_units_Z 48
_cell_length_a 9.223140
_cell_length_b 28.022097
_cell_length_c 8.751468
_cell_angle_alpha 90.000000
_cell_angle_beta 90.000000
_cell_angle_gamma 90.000000
_cell_volume 2261.831990
_symmetry_space_group_name_H-M "P N M A"
_symmetry_group_IT_number 62
_symmetry_cell_setting 'orthorhombic'
loop_
_space_group_symop_operation_xyz
x,y,z
1/2-x,-y,1/2+z
1/2+x,1/2-y,1/2-z
-x,1/2+y,-z
-x,-y,-z
1/2+x,y,1/2-z
1/2-x,1/2+y,1/2+z
x,1/2-y,z
loop_
_atom_site_type_symbol
_atom_site_label
_atom_site_fract_x
_atom_site_fract_y
_atom_site_fract_z
Si Si1 0.302170 0.882788 0.598815
Si Si2 0.701098 0.194686 0.906758
Si Si3 0.357286 0.519829 0.428068
Si Si4 0.035787 0.124075 0.402598
Si Si5 0.035287 0.193869 0.903923
Si Si6 0.613873 0.034711 0.929396
O O1 0.307997 0.928839 0.490701
O O2 0.384977 0.896817 0.753681
O O3 0.384061 0.836682 0.532327
O O4 0.134836 0.868571 0.628303
O O5 0.701645 0.250000 0.939985
O O6 0.614201 0.181926 0.754087
O O7 0.867648 0.176872 0.892778
O O8 0.615493 0.172865 0.050513
O O9 0.500000 0.500000 0.500000
O O10 0.255498 0.476138 0.473502
O O11 0.364684 0.524256 0.247436
O O12 0.062645 0.088748 0.545406
O O13 0.047938 0.250000 0.944309
O O14 0.500000 0.000000 0.000000
#
# Coordination Sequence:
#
# PCOD8254702 Si02
#       6
#     8   8   8   8   8   8
#     4  12  26  44  66  99 132 179 227 281 346 404
#     4  10  22  42  69 100 133 175 223 278 340 406
#     4  12  27  43  72  98 135 180 223 284 337 412
#     4  12  26  43  68  95 137 176 227 284 339 413
#     4  10  22  42  69  99 134 174 223 278 340 407
#     4  12  25  47  66 100 135 176 229 275 342 404
#
# _framework density 21.221737000000001
#
# number of rings (size 3 to 8) (size 9 to 14) (size 15 to 20)
#    0.000    0.667    1.667    6.000    4.667    2.667 
#    0.000    0.000    0.000    0.000    0.000    0.000 
#    0.000    0.000    0.000    0.000    0.000    0.000 
#
# Total GULP energy -595241.194942 kJ/mol
# GULP energy per Si atom -12400.858228 kJ/mol
# Density = 2.117344 g / cm^3
# Si number density = 21.221737 Si / 1000 Ang^3
#
#
#
# Elastic Constant Matrix: (Units=GPa)
#
#
# Indices 1 2 3 4 5 6 
#
# 1 199.5621 41.9417 53.9139 0.0000 0.0000 0.0000
# 2 41.9417 67.6294 30.4245 0.0000 0.0000 0.0000
# 3 53.9139 30.4245 136.8483 0.0000 0.0000 0.0000
# 4 0.0000 0.0000 0.0000 40.6745 0.0000 0.0000
# 5 0.0000 0.0000 0.0000 0.0000 40.0434 0.0000
# 6 0.0000 0.0000 0.0000 0.0000 0.0000 39.2387
#
#
#
# Elastic Compliance Matrix: (Units=1/GPa)
#
#
# Indices 1 2 3 4 5 6 
#
# 1 0.006113 -0.003009 -0.001740 0.000000 0.000000 0.000000
# 2 -0.003009 0.017910 -0.002797 0.000000 0.000000 0.000000
# 3 -0.001740 -0.002797 0.008614 0.000000 0.000000 0.000000
# 4 0.000000 0.000000 0.000000 0.024585 0.000000 0.000000
# 5 0.000000 0.000000 0.000000 0.000000 0.024973 0.000000
# 6 0.000000 0.000000 0.000000 0.000000 0.000000 0.025485
#
#
# Mechanical properties :
#
#
# Convention : Reuss Voigt Hill
#
# Bulk Modulus (GPa) = 56.98474 72.95554 64.97014
# Shear Modulus (GPa) = 38.87400 42.50863 40.69132
#
# Velocity S-wave (km/s) = 4.28460 4.48042 4.38360
# Velocity P-wave (km/s) = 7.16850 7.82419 7.50351
#
# Compressibility (1/GPa) = 0.01754856
#
# Stress axis : x y z
#
# Youngs Moduli (GPa) = 163.57899 55.83324 116.08437
#
# Poissons Ratio (x) = 0.16798 0.20193
# Poissons Ratio (y) = 0.49216 0.32464
# Poissons Ratio (z) = 0.28455 0.15614
#
# Static dielectric constant tensor:
#      x y z
#    x 4.177600 0.000000 0.000000 
#    y 0.000000 3.657100 0.000000 
#    z 0.000000 0.000000 3.965260 
# 
# 
# High freq. dielectric constant tensor:
#      x y z
#    x 1.857590 0.000000 0.000000 
#    y 0.000000 1.838470 0.000000 
#    z 0.000000 0.000000 1.835970 
# 
# From -- ./inp_files/4547.got.cif
#   From: 2010.03.12/outbox.cif.g09.slc.cpg/sg62_3_cif.got.tgz:4547.got - 2010.04.10 19:12:36.
