data_PCOD8254871
_publ_section_title
;
Structure prediction by ZEFSAII (Michael W. Deem and Ramdas Pophale) SiO2 
 PCOD8254871
Probable space group: P N M A
;
_chemical_formula_sum "Si O2"
_cell_formula_units_Z 40
_cell_length_a 10.179276
_cell_length_b 20.795765
_cell_length_c 8.457952
_cell_angle_alpha 90.000000
_cell_angle_beta 90.000000
_cell_angle_gamma 90.000000
_cell_volume 1790.428602
_symmetry_space_group_name_H-M "P N M A"
_symmetry_group_IT_number 62
_symmetry_cell_setting 'orthorhombic'
loop_
_space_group_symop_operation_xyz
x,y,z
1/2-x,-y,1/2+z
1/2+x,1/2-y,1/2-z
-x,1/2+y,-z
-x,-y,-z
1/2+x,y,1/2-z
1/2-x,1/2+y,1/2+z
x,1/2-y,z
loop_
_atom_site_type_symbol
_atom_site_label
_atom_site_fract_x
_atom_site_fract_y
_atom_site_fract_z
Si Si1 0.788341 0.418420 0.844858
Si Si2 0.346611 0.542122 0.840673
Si Si3 0.240212 0.177784 0.905611
Si Si4 0.540109 0.820416 0.526579
Si Si5 0.116475 0.884805 0.671923
O O1 0.846729 0.468856 0.719152
O O2 0.705873 0.364886 0.748767
O O3 0.907612 0.380021 0.924938
O O4 0.700383 0.453824 0.977038
O O5 0.496323 0.565293 0.831193
O O6 0.250508 0.581320 0.726836
O O7 0.276895 0.250000 0.851827
O O8 0.362927 0.147023 0.000382
O O9 0.116566 0.177636 0.021559
O O10 0.589954 0.750000 0.466820
O O11 0.583143 0.827480 0.707798
#
# Coordination Sequence:
#
# PCOD8254871 Si02
#       5
#     8   8   8   8   8
#     4  11  26  44  68 102 136 182 229 284 341 411
#     4  11  26  42  74  99 141 177 231 278 347 400
#     4  11  24  43  68  98 136 179 229 285 341 407
#     4  10  23  44  68  98 137 179 227 281 338 404
#     4  11  23  46  69 104 132 183 223 286 336 413
#
# _framework density 22.341021000000001
#
# number of rings (size 3 to 8) (size 9 to 14) (size 15 to 20)
#    0.000    1.200    2.000    2.400    5.600    3.200 
#    0.000    2.000    0.000    0.000    0.000    0.000 
#    0.000    0.000    0.000    0.000    0.000    0.000 
#
# Total GULP energy -495982.829109 kJ/mol
# GULP energy per Si atom -12399.570728 kJ/mol
# Density = 2.229017 g / cm^3
# Si number density = 22.341021 Si / 1000 Ang^3
#
#
#
# Elastic Constant Matrix: (Units=GPa)
#
#
# Indices 1 2 3 4 5 6 
#
# 1 65.5855 26.2269 24.7279 0.0000 0.0000 0.0000
# 2 26.2269 149.0109 70.8888 0.0000 0.0000 0.0000
# 3 24.7279 70.8888 124.1466 0.0000 0.0000 0.0000
# 4 0.0000 0.0000 0.0000 28.0446 0.0000 0.0000
# 5 0.0000 0.0000 0.0000 0.0000 22.6638 0.0000
# 6 0.0000 0.0000 0.0000 0.0000 0.0000 31.7479
#
#
#
# Elastic Compliance Matrix: (Units=1/GPa)
#
#
# Indices 1 2 3 4 5 6 
#
# 1 0.016861 -0.001881 -0.002284 0.000000 0.000000 0.000000
# 2 -0.001881 0.009424 -0.005006 0.000000 0.000000 0.000000
# 3 -0.002284 -0.005006 0.011369 0.000000 0.000000 0.000000
# 4 0.000000 0.000000 0.000000 0.035657 0.000000 0.000000
# 5 0.000000 0.000000 0.000000 0.000000 0.044123 0.000000
# 6 0.000000 0.000000 0.000000 0.000000 0.000000 0.031498
#
#
# Mechanical properties :
#
#
# Convention : Reuss Voigt Hill
#
# Bulk Modulus (GPa) = 51.78708 64.71449 58.25079
# Shear Modulus (GPa) = 28.78336 30.95124 29.86730
#
# Velocity S-wave (km/s) = 3.59327 3.72613 3.66031
# Velocity P-wave (km/s) = 6.35972 6.89504 6.63279
#
# Compressibility (1/GPa) = 0.01930984
#
# Stress axis : x y z
#
# Youngs Moduli (GPa) = 59.30955 106.11629 87.96104
#
# Poissons Ratio (x) = 0.19959 0.20094
# Poissons Ratio (y) = 0.11155 0.44036
# Poissons Ratio (z) = 0.13549 0.53125
#
# Static dielectric constant tensor:
#      x y z
#    x 3.759350 0.000000 0.000000 
#    y 0.000000 4.175950 0.000000 
#    z 0.000000 0.000000 4.131690 
# 
# 
# High freq. dielectric constant tensor:
#      x y z
#    x 1.867930 0.000000 0.000000 
#    y 0.000000 1.894920 0.000000 
#    z 0.000000 0.000000 1.886100 
# 
# From -- ./inp_files/4304.got.cif
#   From: 2010.03.12/outbox.cif.g09.slc.cpg/sg62_3_cif.got.tgz:4304.got - 2010.04.10 19:12:36.
