data_PCOD8254895
_publ_section_title
;
Structure prediction by ZEFSAII (Michael W. Deem and Ramdas Pophale) SiO2 
 PCOD8254895
Probable space group: P N M A
;
_chemical_formula_sum "Si O2"
_cell_formula_units_Z 40
_cell_length_a 18.164999
_cell_length_b 18.174432
_cell_length_c 4.789443
_cell_angle_alpha 90.000000
_cell_angle_beta 90.000000
_cell_angle_gamma 90.000000
_cell_volume 1581.179715
_symmetry_space_group_name_H-M "P N M A"
_symmetry_group_IT_number 62
_symmetry_cell_setting 'orthorhombic'
loop_
_space_group_symop_operation_xyz
x,y,z
1/2-x,-y,1/2+z
1/2+x,1/2-y,1/2-z
-x,1/2+y,-z
-x,-y,-z
1/2+x,y,1/2-z
1/2-x,1/2+y,1/2+z
x,1/2-y,z
loop_
_atom_site_type_symbol
_atom_site_label
_atom_site_fract_x
_atom_site_fract_y
_atom_site_fract_z
Si Si1 0.265650 0.750000 0.562974
Si Si2 0.409052 0.389253 0.342366
Si Si3 0.498851 0.421602 0.849426
Si Si4 0.336984 0.250000 0.568092
Si Si5 0.649994 0.166352 0.844628
Si Si6 0.242274 0.548047 0.930237
O O1 0.189217 0.750000 0.387602
O O2 0.313737 0.677996 0.466036
O O3 0.239453 0.750000 0.884542
O O4 0.447979 0.370707 0.048655
O O5 0.389436 0.317361 0.512896
O O6 0.334799 0.433772 0.279975
O O7 0.464961 0.433521 0.543113
O O8 0.500000 0.500000 0.000000
O O9 0.577525 0.382434 0.815756
O O10 0.634974 0.250000 0.974491
O O11 0.708330 0.121187 0.033366
O O12 0.279071 0.488214 0.727003
#
# Coordination Sequence:
#
# PCOD8254895 Si02
#       6
#     4   8   8   4   8   8
#     4  10  24  42  72 104 142 181 243 314 356 428
#     4  12  26  45  74 102 147 188 243 300 368 444
#     4  12  27  48  70 108 149 199 241 307 374 453
#     4  12  24  44  72 110 140 179 245 310 364 426
#     4  10  25  48  73 107 147 193 251 302 370 447
#     4  12  26  46  74 106 141 189 243 305 373 444
#
# _framework density 25.297567000000001
#
# number of rings (size 3 to 8) (size 9 to 14) (size 15 to 20)
#    0.600    0.000    2.000    5.400    5.600    3.200 
#    0.000    0.000    0.000    0.000    0.000    0.000 
#    0.000    0.000    0.000    0.000    0.000    0.000 
#
# Total GULP energy -495797.638738 kJ/mol
# GULP energy per Si atom -12394.940968 kJ/mol
# Density = 2.523999 g / cm^3
# Si number density = 25.297567 Si / 1000 Ang^3
#
#
#
# Elastic Constant Matrix: (Units=GPa)
#
#
# Indices 1 2 3 4 5 6 
#
# 1 110.6984 2.6570 -4.7213 0.0000 0.0000 0.0000
# 2 2.6570 101.4180 -22.1781 0.0000 0.0000 0.0000
# 3 -4.7213 -22.1781 61.8870 0.0000 0.0000 0.0000
# 4 0.0000 0.0000 0.0000 227.0709 0.0000 0.0000
# 5 0.0000 0.0000 0.0000 0.0000 34.7561 0.0000
# 6 0.0000 0.0000 0.0000 0.0000 0.0000 49.8442
#
#
#
# Elastic Compliance Matrix: (Units=1/GPa)
#
#
# Indices 1 2 3 4 5 6 
#
# 1 0.009064 -0.000094 0.000658 0.000000 0.000000 0.000000
# 2 -0.000094 0.010700 0.003827 0.000000 0.000000 0.000000
# 3 0.000658 0.003827 0.017580 0.000000 0.000000 0.000000
# 4 0.000000 0.000000 0.000000 0.004404 0.000000 0.000000
# 5 0.000000 0.000000 0.000000 0.000000 0.028772 0.000000
# 6 0.000000 0.000000 0.000000 0.000000 0.000000 0.020063
#
#
# Mechanical properties :
#
#
# Convention : Reuss Voigt Hill
#
# Bulk Modulus (GPa) = 21.67937 25.05760 23.36849
# Shear Modulus (GPa) = 51.45387 82.21730 66.83559
#
# Velocity S-wave (km/s) = 4.51482 5.70707 5.14559
# Velocity P-wave (km/s) = 5.98051 7.30439 6.67535
#
# Compressibility (1/GPa) = 0.04612681
#
# Stress axis : x y z
#
# Youngs Moduli (GPa) = 110.32828 93.46171 56.88210
#
# Poissons Ratio (x) = 0.00875 -0.03743
# Poissons Ratio (y) = 0.01032 -0.21770
# Poissons Ratio (z) = -0.07259 -0.35770
#
# Static dielectric constant tensor:
#      x y z
#    x 4.628030 0.000000 0.000000 
#    y 0.000000 5.041920 0.000000 
#    z 0.000000 0.000000 4.699010 
# 
# 
# High freq. dielectric constant tensor:
#      x y z
#    x 2.011450 0.000000 0.000000 
#    y 0.000000 2.018580 0.000000 
#    z 0.000000 0.000000 2.015830 
# 
# From -- ./inp_files/1581.got.cif
#   From: 2010.03.12/outbox.cif.g09.slc.cpg/sg62_1_cif.got.tgz:1581.got - 2010.04.10 19:12:36.
