data_PCOD8254539
_publ_section_title
;
Structure prediction by ZEFSAII (Michael W. Deem and Ramdas Pophale) SiO2 
 PCOD8254539
Probable space group: P N M A
;
_chemical_formula_sum "Si O2"
_cell_formula_units_Z 48
_cell_length_a 9.793299
_cell_length_b 26.307154
_cell_length_c 8.729115
_cell_angle_alpha 90.000000
_cell_angle_beta 90.000000
_cell_angle_gamma 90.000000
_cell_volume 2248.915286
_symmetry_space_group_name_H-M "P N M A"
_symmetry_group_IT_number 62
_symmetry_cell_setting 'orthorhombic'
loop_
_space_group_symop_operation_xyz
x,y,z
1/2-x,-y,1/2+z
1/2+x,1/2-y,1/2-z
-x,1/2+y,-z
-x,-y,-z
1/2+x,y,1/2-z
1/2-x,1/2+y,1/2+z
x,1/2-y,z
loop_
_atom_site_type_symbol
_atom_site_label
_atom_site_fract_x
_atom_site_fract_y
_atom_site_fract_z
Si Si1 0.558103 0.633177 0.140242
Si Si2 0.639545 0.865238 0.795490
Si Si3 0.904207 0.692290 0.871631
Si Si4 0.674130 0.308178 0.716268
Si Si5 0.835918 0.469132 0.141067
Si Si6 0.103231 0.970828 0.205132
O O1 0.681386 0.664153 0.215253
O O2 0.420103 0.665691 0.156119
O O3 0.538589 0.580363 0.228170
O O4 0.579760 0.622929 0.961993
O O5 0.522694 0.844188 0.685849
O O6 0.759508 0.824101 0.801851
O O7 0.699642 0.917067 0.727011
O O8 0.932037 0.750000 0.819307
O O9 0.901770 0.687223 0.054176
O O10 0.699935 0.250000 0.762766
O O11 0.721032 0.510381 0.180893
O O12 0.984992 0.487339 0.193845
O O13 0.830836 0.460269 0.959843
#
# Coordination Sequence:
#
# PCOD8254539 Si02
#       6
#     8   8   8   8   8   8
#     4  11  23  39  61  89 119 153 196 243 291 347
#     4  11  23  39  61  89 119 153 196 243 291 347
#     4  10  22  40  60  85 119 155 192 238 290 344
#     4  10  22  40  60  85 119 155 192 238 290 344
#     4  11  24  41  61  87 119 155 196 242 293 349
#     4  11  24  41  61  87 119 155 196 242 293 349
#
# _framework density 21.343623999999998
#
# number of rings (size 3 to 8) (size 9 to 14) (size 15 to 20)
#    0.000    1.333    0.000    5.000    0.000   15.333 
#    0.000    0.000    0.000    0.000    0.000    0.000 
#    0.000    0.000    0.000    0.000    0.000    0.000 
#
# Total GULP energy -595638.182161 kJ/mol
# GULP energy per Si atom -12409.128795 kJ/mol
# Density = 2.129504 g / cm^3
# Si number density = 21.343624 Si / 1000 Ang^3
#
#
#
# Elastic Constant Matrix: (Units=GPa)
#
#
# Indices 1 2 3 4 5 6 
#
# 1 27.6628 -3.5199 -8.3044 0.0000 0.0000 0.0000
# 2 -3.5199 103.7037 26.5250 0.0000 0.0000 0.0000
# 3 -8.3044 26.5250 25.0473 0.0000 0.0000 0.0000
# 4 0.0000 0.0000 0.0000 30.7691 0.0000 0.0000
# 5 0.0000 0.0000 0.0000 0.0000 32.8620 0.0000
# 6 0.0000 0.0000 0.0000 0.0000 0.0000 28.8163
#
#
#
# Elastic Compliance Matrix: (Units=1/GPa)
#
#
# Indices 1 2 3 4 5 6 
#
# 1 0.040747 -0.002842 0.016520 0.000000 0.000000 0.000000
# 2 -0.002842 0.013423 -0.015158 0.000000 0.000000 0.000000
# 3 0.016520 -0.015158 0.061453 0.000000 0.000000 0.000000
# 4 0.000000 0.000000 0.000000 0.032500 0.000000 0.000000
# 5 0.000000 0.000000 0.000000 0.000000 0.030430 0.000000
# 6 0.000000 0.000000 0.000000 0.000000 0.000000 0.034703
#
#
# Mechanical properties :
#
#
# Convention : Reuss Voigt Hill
#
# Bulk Modulus (GPa) = 8.87602 20.64615 14.76108
# Shear Modulus (GPa) = 19.70272 27.93703 23.81988
#
# Velocity S-wave (km/s) = 3.04159 3.62182 3.34431
# Velocity P-wave (km/s) = 4.06234 5.21386 4.67370
#
# Compressibility (1/GPa) = 0.11266309
#
# Stress axis : x y z
#
# Youngs Moduli (GPa) = 24.54164 74.49697 16.27248
#
# Poissons Ratio (x) = 0.21174 -0.26881
# Poissons Ratio (y) = 0.06975 0.24665
# Poissons Ratio (z) = -0.40542 1.12920
#
# Static dielectric constant tensor:
#      x y z
#    x 3.775470 0.000000 0.000000 
#    y 0.000000 3.911160 0.000000 
#    z 0.000000 0.000000 3.830550 
# 
# 
# High freq. dielectric constant tensor:
#      x y z
#    x 1.844060 0.000000 0.000000 
#    y 0.000000 1.850620 0.000000 
#    z 0.000000 0.000000 1.839510 
# 
# From -- ./inp_files/4519.got.cif
#   From: 2010.03.12/outbox.cif.g09.slc.cpg/sg62_3_cif.got.tgz:4519.got - 2010.04.10 19:12:36.
