data_PCOD8254760
_publ_section_title
;
Structure prediction by ZEFSAII (Michael W. Deem and Ramdas Pophale) SiO2 
 PCOD8254760
Probable space group: P N M A
;
_chemical_formula_sum "Si O2"
_cell_formula_units_Z 40
_cell_length_a 13.571696
_cell_length_b 24.955995
_cell_length_c 5.369234
_cell_angle_alpha 90.000000
_cell_angle_beta 90.000000
_cell_angle_gamma 90.000000
_cell_volume 1818.533663
_symmetry_space_group_name_H-M "P N M A"
_symmetry_group_IT_number 62
_symmetry_cell_setting 'orthorhombic'
loop_
_space_group_symop_operation_xyz
x,y,z
1/2-x,-y,1/2+z
1/2+x,1/2-y,1/2-z
-x,1/2+y,-z
-x,-y,-z
1/2+x,y,1/2-z
1/2-x,1/2+y,1/2+z
x,1/2-y,z
loop_
_atom_site_type_symbol
_atom_site_label
_atom_site_fract_x
_atom_site_fract_y
_atom_site_fract_z
Si Si1 0.249730 0.080592 0.788341
Si Si2 0.614082 0.009467 0.037947
Si Si3 0.590865 0.646599 0.424486
Si Si4 0.483088 0.189688 0.091796
Si Si5 0.403719 0.606456 0.633238
O O1 0.168074 0.039514 0.687885
O O2 0.304592 0.115676 0.577129
O O3 0.335479 0.048124 0.929667
O O4 0.192786 0.122166 0.971440
O O5 0.622524 0.046790 0.279013
O O6 0.500000 0.000000 0.000000
O O7 0.575033 0.676971 0.162074
O O8 0.500771 0.604429 0.457333
O O9 0.590095 0.685537 0.667009
O O10 0.524487 0.250000 0.074897
O O11 0.575796 0.148907 0.140376
#
# Coordination Sequence:
#
# PCOD8254760 Si02
#       5
#     8   8   8   8   8
#     4  12  24  41  66 102 146 192 235 286 349 431
#     4  12  26  41  67 105 147 196 235 288 350 430
#     4  10  25  43  73  99 141 181 233 291 354 421
#     4  10  22  47  74  99 134 181 237 304 364 414
#     4  10  24  42  69 100 141 185 235 291 351 419
#
# _framework density 21.995743000000001
#
# number of rings (size 3 to 8) (size 9 to 14) (size 15 to 20)
#    1.200    0.000    2.000    4.200    5.600    1.600 
#    0.000    2.000    0.000    0.000    0.000    0.000 
#    0.000    0.000    0.000    0.000    0.000    0.000 
#
# Total GULP energy -495601.015597 kJ/mol
# GULP energy per Si atom -12390.025390 kJ/mol
# Density = 2.194568 g / cm^3
# Si number density = 21.995743 Si / 1000 Ang^3
#
#
#
# Elastic Constant Matrix: (Units=GPa)
#
#
# Indices 1 2 3 4 5 6 
#
# 1 99.8805 2.7211 9.8584 0.0000 0.0000 0.0000
# 2 2.7211 50.4491 2.1764 0.0000 0.0000 0.0000
# 3 9.8584 2.1764 109.0702 0.0000 0.0000 0.0000
# 4 0.0000 0.0000 0.0000 29.3142 0.0000 0.0000
# 5 0.0000 0.0000 0.0000 0.0000 27.4279 0.0000
# 6 0.0000 0.0000 0.0000 0.0000 0.0000 15.2768
#
#
#
# Elastic Compliance Matrix: (Units=1/GPa)
#
#
# Indices 1 2 3 4 5 6 
#
# 1 0.010115 -0.000507 -0.000904 0.000000 0.000000 0.000000
# 2 -0.000507 0.019864 -0.000351 0.000000 0.000000 0.000000
# 3 -0.000904 -0.000351 0.009257 0.000000 0.000000 0.000000
# 4 0.000000 0.000000 0.000000 0.034113 0.000000 0.000000
# 5 0.000000 0.000000 0.000000 0.000000 0.036459 0.000000
# 6 0.000000 0.000000 0.000000 0.000000 0.000000 0.065459
#
#
# Mechanical properties :
#
#
# Convention : Reuss Voigt Hill
#
# Bulk Modulus (GPa) = 28.00027 32.10127 30.05077
# Shear Modulus (GPa) = 26.21992 30.71338 28.46665
#
# Velocity S-wave (km/s) = 3.45635 3.74081 3.60139
# Velocity P-wave (km/s) = 5.35592 5.76924 5.56642
#
# Compressibility (1/GPa) = 0.03571395
#
# Stress axis : x y z
#
# Youngs Moduli (GPa) = 98.86304 50.34126 108.02493
#
# Poissons Ratio (x) = 0.02550 0.09767
# Poissons Ratio (y) = 0.05008 0.03787
# Poissons Ratio (z) = 0.08939 0.01765
#
# Static dielectric constant tensor:
#      x y z
#    x 4.016540 0.000000 0.000000 
#    y 0.000000 3.841050 0.000000 
#    z 0.000000 0.000000 3.995580 
# 
# 
# High freq. dielectric constant tensor:
#      x y z
#    x 1.861430 0.000000 0.000000 
#    y 0.000000 1.836420 0.000000 
#    z 0.000000 0.000000 1.874700 
# 
# From -- ./inp_files/586.got.cif
#   From: 2010.03.12/outbox.cif.g09.slc.cpg/sg62_1_cif.got.tgz:586.got - 2010.04.10 19:12:36.
