data_PCOD8254025
_publ_section_title
;
Structure prediction by ZEFSAII (Michael W. Deem and Ramdas Pophale) SiO2 
 PCOD8254025
Probable space group: P N M A
;
_chemical_formula_sum "Si O2"
_cell_formula_units_Z 64
_cell_length_a 24.035198
_cell_length_b 8.736778
_cell_length_c 15.421678
_cell_angle_alpha 90.000000
_cell_angle_beta 90.000000
_cell_angle_gamma 90.000000
_cell_volume 3238.401080
_symmetry_space_group_name_H-M "P N M A"
_symmetry_group_IT_number 62
_symmetry_cell_setting 'orthorhombic'
loop_
_space_group_symop_operation_xyz
x,y,z
1/2-x,-y,1/2+z
1/2+x,1/2-y,1/2-z
-x,1/2+y,-z
-x,-y,-z
1/2+x,y,1/2-z
1/2-x,1/2+y,1/2+z
x,1/2-y,z
loop_
_atom_site_type_symbol
_atom_site_label
_atom_site_fract_x
_atom_site_fract_y
_atom_site_fract_z
Si Si1 0.743111 0.570115 0.906970
Si Si2 0.483991 0.070633 0.409705
Si Si3 0.946827 0.068820 0.752646
Si Si4 0.181233 0.931464 0.240038
Si Si5 0.125389 0.923045 0.671774
Si Si6 0.377102 0.927176 0.347034
Si Si7 0.245314 0.431119 0.898767
Si Si8 0.491130 0.424552 0.091597
O O1 0.754742 0.750000 0.907190
O O2 0.789758 0.494759 0.846490
O O3 0.681909 0.528177 0.874666
O O4 0.745198 0.502721 0.004764
O O5 0.494069 0.250000 0.409832
O O6 0.500000 0.000000 0.500000
O O7 0.520235 0.999825 0.333170
O O8 0.419194 0.032839 0.399675
O O9 0.951451 0.250000 0.757034
O O10 0.882727 0.014763 0.757773
O O11 0.973664 0.012919 0.663607
O O12 0.186356 0.750000 0.237087
O O13 0.211206 0.996260 0.327353
O O14 0.129821 0.750000 0.709634
O O15 0.074890 0.933797 0.605252
O O16 0.112890 0.045769 0.745782
O O17 0.387409 0.750000 0.369728
O O18 0.315701 0.983073 0.370164
O O19 0.251230 0.250000 0.900920
O O20 0.511806 0.250000 0.091400
O O21 0.500000 0.500000 0.000000
#
# Coordination Sequence:
#
# PCOD8254025 Si02
#       8
#     8   8   8   8   8   8   8   8
#     4  10  21  38  62  89 120 160 205 248 302 365
#     4  12  26  44  65  91 126 163 208 257 313 374
#     4  11  24  42  65  92 125 166 209 256 313 373
#     4  10  22  41  62  87 123 161 201 251 306 365
#     4  10  21  38  62  89 120 160 206 257 310 363
#     4  11  21  38  65  91 121 159 206 255 309 367
#     4   9  20  38  61  89 120 160 200 244 302 362
#     4  11  24  41  63  92 126 166 209 258 312 367
#
# _framework density 19.762841000000002
#
# number of rings (size 3 to 8) (size 9 to 14) (size 15 to 20)
#    0.000    1.500    2.500    2.250    3.500    1.500 
#    0.000    1.250    0.000    0.000    0.000    0.000 
#    0.000    0.000    0.000    0.000    0.000    0.000 
#
# Total GULP energy -793705.161698 kJ/mol
# GULP energy per Si atom -12401.643152 kJ/mol
# Density = 1.971786 g / cm^3
# Si number density = 19.762841 Si / 1000 Ang^3
#
#
#
# Elastic Constant Matrix: (Units=GPa)
#
#
# Indices 1 2 3 4 5 6 
#
# 1 105.1945 39.0033 20.9056 0.0000 0.0000 0.0000
# 2 39.0033 70.4399 33.1520 0.0000 0.0000 0.0000
# 3 20.9056 33.1520 115.3583 0.0000 0.0000 0.0000
# 4 0.0000 0.0000 0.0000 34.8491 0.0000 0.0000
# 5 0.0000 0.0000 0.0000 0.0000 30.7213 0.0000
# 6 0.0000 0.0000 0.0000 0.0000 0.0000 23.5531
#
#
#
# Elastic Compliance Matrix: (Units=1/GPa)
#
#
# Indices 1 2 3 4 5 6 
#
# 1 0.011971 -0.006485 -0.000306 0.000000 0.000000 0.000000
# 2 -0.006485 0.019930 -0.004552 0.000000 0.000000 0.000000
# 3 -0.000306 -0.004552 0.010032 0.000000 0.000000 0.000000
# 4 0.000000 0.000000 0.000000 0.028695 0.000000 0.000000
# 5 0.000000 0.000000 0.000000 0.000000 0.032551 0.000000
# 6 0.000000 0.000000 0.000000 0.000000 0.000000 0.042457
#
#
# Mechanical properties :
#
#
# Convention : Reuss Voigt Hill
#
# Bulk Modulus (GPa) = 51.95452 53.01271 52.48361
# Shear Modulus (GPa) = 28.61427 31.02015 29.81721
#
# Velocity S-wave (km/s) = 3.80923 3.96614 3.88848
# Velocity P-wave (km/s) = 6.75967 6.91783 6.83920
#
# Compressibility (1/GPa) = 0.01924760
#
# Stress axis : x y z
#
# Youngs Moduli (GPa) = 83.53284 50.17657 99.67782
#
# Poissons Ratio (x) = 0.32538 0.03049
# Poissons Ratio (y) = 0.54168 0.45376
# Poissons Ratio (z) = 0.02555 0.22842
#
# Static dielectric constant tensor:
#      x y z
#    x 3.880370 0.000000 0.000000 
#    y 0.000000 0.377260 0.000000 
#    z 0.000000 0.000000 3.695130 
# 
# 
# High freq. dielectric constant tensor:
#      x y z
#    x 1.786660 0.000000 0.000000 
#    y 0.000000 1.759760 0.000000 
#    z 0.000000 0.000000 1.780910 
# 
# From -- ./inp_files/20876.got.cif
#   From: 2010.03.12/outbox.cif.g09.slc.cpg/sg62_11_cif.got.tgz:20876.got - 2010.04.10 19:12:36.
