data_PCOD8254279
_publ_section_title
;
Structure prediction by ZEFSAII (Michael W. Deem and Ramdas Pophale) SiO2 
 PCOD8254279
Probable space group: P N M A
;
_chemical_formula_sum "Si O2"
_cell_formula_units_Z 40
_cell_length_a 12.709314
_cell_length_b 8.867423
_cell_length_c 15.742914
_cell_angle_alpha 90.000000
_cell_angle_beta 90.000000
_cell_angle_gamma 90.000000
_cell_volume 1774.208512
_symmetry_space_group_name_H-M "P N M A"
_symmetry_group_IT_number 62
_symmetry_cell_setting 'orthorhombic'
loop_
_space_group_symop_operation_xyz
x,y,z
1/2-x,-y,1/2+z
1/2+x,1/2-y,1/2-z
-x,1/2+y,-z
-x,-y,-z
1/2+x,y,1/2-z
1/2-x,1/2+y,1/2+z
x,1/2-y,z
loop_
_atom_site_type_symbol
_atom_site_label
_atom_site_fract_x
_atom_site_fract_y
_atom_site_fract_z
Si Si1 0.880935 0.574859 0.733116
Si Si2 0.990330 0.426023 0.591275
Si Si3 0.139264 0.078604 0.012717
Si Si4 0.510460 0.420621 0.635492
Si Si5 0.192685 0.922312 0.642048
O O1 0.881221 0.750000 0.713385
O O2 0.777381 0.527013 0.786268
O O3 0.888710 0.487391 0.643333
O O4 0.986201 0.533840 0.787586
O O5 0.978863 0.250000 0.579044
O O6 0.093522 0.467429 0.646886
O O7 0.000000 0.500000 0.500000
O O8 0.101063 0.250000 0.036530
O O9 0.258548 0.062110 0.046555
O O10 0.125549 0.055417 0.910025
O O11 0.071730 0.951053 0.059695
O O12 0.497095 0.250000 0.669345
O O13 0.156713 0.750000 0.657739
#
# Coordination Sequence:
#
# PCOD8254279 Si02
#       5
#     8   8   8   8   8
#     4  10  21  40  65  92 126 167 211 264 322 380
#     4  12  26  45  68  94 128 171 217 267 323 385
#     4   8  15  28  49  80 120 162 200 248 307 367
#     4   9  15  26  49  83 120 157 200 251 309 367
#     4   9  19  39  65  92 125 166 212 263 318 381
#
# _framework density 22.545262999999998
#
# number of rings (size 3 to 8) (size 9 to 14) (size 15 to 20)
#    0.000    2.400    0.000    4.200    0.000    4.800 
#    3.600    0.000    0.000    0.000    0.000    0.000 
#    0.000    0.000    0.000    0.000    0.000    0.000 
#
# Total GULP energy -495608.082292 kJ/mol
# GULP energy per Si atom -12390.202057 kJ/mol
# Density = 2.249395 g / cm^3
# Si number density = 22.545263 Si / 1000 Ang^3
#
#
#
# Elastic Constant Matrix: (Units=GPa)
#
#
# Indices 1 2 3 4 5 6 
#
# 1 55.6803 28.8676 20.2768 0.0000 0.0000 0.0000
# 2 28.8676 113.1512 36.4766 0.0000 0.0000 0.0000
# 3 20.2768 36.4766 100.3461 0.0000 0.0000 0.0000
# 4 0.0000 0.0000 0.0000 38.4784 0.0000 0.0000
# 5 0.0000 0.0000 0.0000 0.0000 23.4629 0.0000
# 6 0.0000 0.0000 0.0000 0.0000 0.0000 30.3464
#
#
#
# Elastic Compliance Matrix: (Units=1/GPa)
#
#
# Indices 1 2 3 4 5 6 
#
# 1 0.021296 -0.004583 -0.002637 0.000000 0.000000 0.000000
# 2 -0.004583 0.010997 -0.003071 0.000000 0.000000 0.000000
# 3 -0.002637 -0.003071 0.011615 0.000000 0.000000 0.000000
# 4 0.000000 0.000000 0.000000 0.025989 0.000000 0.000000
# 5 0.000000 0.000000 0.000000 0.000000 0.042621 0.000000
# 6 0.000000 0.000000 0.000000 0.000000 0.000000 0.032953
#
#
# Mechanical properties :
#
#
# Convention : Reuss Voigt Hill
#
# Bulk Modulus (GPa) = 42.87307 48.93551 45.90429
# Shear Modulus (GPa) = 28.76397 30.69465 29.72931
#
# Velocity S-wave (km/s) = 3.57575 3.69381 3.63526
# Velocity P-wave (km/s) = 6.00881 6.32020 6.16647
#
# Compressibility (1/GPa) = 0.02332466
#
# Stress axis : x y z
#
# Youngs Moduli (GPa) = 46.95683 90.93299 86.09600
#
# Poissons Ratio (x) = 0.41674 0.22706
# Poissons Ratio (y) = 0.21520 0.26444
# Poissons Ratio (z) = 0.12384 0.27930
#
# Static dielectric constant tensor:
#      x y z
#    x 3.941610 0.000000 0.000000 
#    y 0.000000 3.882570 0.000000 
#    z 0.000000 0.000000 4.254950 
# 
# 
# High freq. dielectric constant tensor:
#      x y z
#    x 1.861250 0.000000 0.000000 
#    y 0.000000 1.881230 0.000000 
#    z 0.000000 0.000000 1.891670 
# 
# From -- ./inp_files/23464.got.cif
#   From: 2010.03.12/outbox.cif.g09.slc.cpg/sg62_12_cif.got.tgz:23464.got - 2010.04.10 19:12:36.
