data_PCOD8254809
_publ_section_title
;
Structure prediction by ZEFSAII (Michael W. Deem and Ramdas Pophale) SiO2 
 PCOD8254809
Probable space group: P N M A
;
_chemical_formula_sum "Si O2"
_cell_formula_units_Z 48
_cell_length_a 14.490831
_cell_length_b 16.633271
_cell_length_c 9.749248
_cell_angle_alpha 90.000000
_cell_angle_beta 90.000000
_cell_angle_gamma 90.000000
_cell_volume 2349.860456
_symmetry_space_group_name_H-M "P N M A"
_symmetry_group_IT_number 62
_symmetry_cell_setting 'orthorhombic'
loop_
_space_group_symop_operation_xyz
x,y,z
1/2-x,-y,1/2+z
1/2+x,1/2-y,1/2-z
-x,1/2+y,-z
-x,-y,-z
1/2+x,y,1/2-z
1/2-x,1/2+y,1/2+z
x,1/2-y,z
loop_
_atom_site_type_symbol
_atom_site_label
_atom_site_fract_x
_atom_site_fract_y
_atom_site_fract_z
Si Si1 0.059561 0.158123 0.164369
Si Si2 0.985504 0.509579 0.660415
Si Si3 0.678488 0.907968 0.255020
Si Si4 0.749740 0.658374 0.981145
Si Si5 0.819585 0.455266 0.269049
Si Si6 0.361631 0.159905 0.457909
O O1 0.065259 0.250000 0.220399
O O2 0.056451 0.096760 0.293862
O O3 0.146591 0.137699 0.067645
O O4 0.970123 0.146031 0.068821
O O5 0.921462 0.436216 0.705475
O O6 0.000000 0.500000 0.500000
O O7 0.083672 0.497585 0.735971
O O8 0.663192 0.850250 0.383510
O O9 0.735640 0.986028 0.297320
O O10 0.736993 0.860589 0.141147
O O11 0.724886 0.750000 0.953138
O O12 0.675874 0.606570 0.896087
O O13 0.802810 0.404403 0.129912
O O14 0.332779 0.250000 0.413987
#
# Coordination Sequence:
#
# PCOD8254809 Si02
#       6
#     8   8   8   8   8   8
#     4   9  21  41  66  88 120 170 219 253 311 386
#     4  11  23  40  61  94 126 161 208 264 311 370
#     4  12  24  39  64  93 127 158 208 264 314 362
#     4  11  22  40  64  91 122 164 210 258 308 372
#     4  11  23  40  65  87 124 166 211 246 312 379
#     4  10  23  42  62  89 124 165 206 258 315 372
#
# _framework density 20.426746000000001
#
# number of rings (size 3 to 8) (size 9 to 14) (size 15 to 20)
#    0.000    1.333    3.333    2.000    2.333    2.000 
#    0.000    0.000    0.000    0.000    0.000    0.000 
#    0.000    0.000    0.000    0.000    0.000    0.000 
#
# Total GULP energy -595238.322391 kJ/mol
# GULP energy per Si atom -12400.798383 kJ/mol
# Density = 2.038025 g / cm^3
# Si number density = 20.426746 Si / 1000 Ang^3
#
#
#
# Elastic Constant Matrix: (Units=GPa)
#
#
# Indices 1 2 3 4 5 6 
#
# 1 75.6893 38.2781 23.3997 0.0000 0.0000 0.0000
# 2 38.2781 75.4588 33.9302 0.0000 0.0000 0.0000
# 3 23.3997 33.9302 119.6692 0.0000 0.0000 0.0000
# 4 0.0000 0.0000 0.0000 37.2302 0.0000 0.0000
# 5 0.0000 0.0000 0.0000 0.0000 31.5304 0.0000
# 6 0.0000 0.0000 0.0000 0.0000 0.0000 23.0021
#
#
#
# Elastic Compliance Matrix: (Units=1/GPa)
#
#
# Indices 1 2 3 4 5 6 
#
# 1 0.017887 -0.008597 -0.001060 0.000000 0.000000 0.000000
# 2 -0.008597 0.019321 -0.003797 0.000000 0.000000 0.000000
# 3 -0.001060 -0.003797 0.009640 0.000000 0.000000 0.000000
# 4 0.000000 0.000000 0.000000 0.026860 0.000000 0.000000
# 5 0.000000 0.000000 0.000000 0.000000 0.031715 0.000000
# 6 0.000000 0.000000 0.000000 0.000000 0.000000 0.043474
#
#
# Mechanical properties :
#
#
# Convention : Reuss Voigt Hill
#
# Bulk Modulus (GPa) = 50.15061 51.33702 50.74382
# Shear Modulus (GPa) = 27.40432 30.03315 28.71874
#
# Velocity S-wave (km/s) = 3.66675 3.83859 3.75365
# Velocity P-wave (km/s) = 6.52161 6.69576 6.60926
#
# Compressibility (1/GPa) = 0.01993994
#
# Stress axis : x y z
#
# Youngs Moduli (GPa) = 55.90518 51.75801 103.73197
#
# Poissons Ratio (x) = 0.44497 0.10996
# Poissons Ratio (y) = 0.48062 0.39387
# Poissons Ratio (z) = 0.05926 0.19653
#
# Static dielectric constant tensor:
#      x y z
#    x 3.772260 0.000000 0.000000 
#    y 0.000000 3.780830 0.000000 
#    z 0.000000 0.000000 3.616730 
# 
# 
# High freq. dielectric constant tensor:
#      x y z
#    x 1.804020 0.000000 0.000000 
#    y 0.000000 1.800020 0.000000 
#    z 0.000000 0.000000 1.793150 
# 
# From -- ./inp_files/6499.got.cif
#   From: 2010.03.12/outbox.cif.g09.slc.cpg/sg62_4_cif.got.tgz:6499.got - 2010.04.10 19:12:36.
