data_PCOD8254547
_publ_section_title
;
Structure prediction by ZEFSAII (Michael W. Deem and Ramdas Pophale) SiO2 
 PCOD8254547
Probable space group: P N M A
;
_chemical_formula_sum "Si O2"
_cell_formula_units_Z 64
_cell_length_a 12.651546
_cell_length_b 13.578259
_cell_length_c 17.750044
_cell_angle_alpha 90.000000
_cell_angle_beta 90.000000
_cell_angle_gamma 90.000000
_cell_volume 3049.208497
_symmetry_space_group_name_H-M "P N M A"
_symmetry_group_IT_number 62
_symmetry_cell_setting 'orthorhombic'
loop_
_space_group_symop_operation_xyz
x,y,z
1/2-x,-y,1/2+z
1/2+x,1/2-y,1/2-z
-x,1/2+y,-z
-x,-y,-z
1/2+x,y,1/2-z
1/2-x,1/2+y,1/2+z
x,1/2-y,z
loop_
_atom_site_type_symbol
_atom_site_label
_atom_site_fract_x
_atom_site_fract_y
_atom_site_fract_z
Si Si1 0.654646 0.867349 0.017725
Si Si2 0.577759 0.133350 0.955490
Si Si3 0.113896 0.638864 0.648710
Si Si4 0.743550 0.863968 0.342695
Si Si5 0.634061 0.462234 0.574109
Si Si6 0.577287 0.863535 0.469989
Si Si7 0.715799 0.986321 0.721657
Si Si8 0.627324 0.362392 0.120302
O O1 0.664738 0.750000 0.020279
O O2 0.651761 0.905958 0.931403
O O3 0.543640 0.900977 0.056924
O O4 0.752022 0.915397 0.059782
O O5 0.580047 0.250000 0.964590
O O6 0.649762 0.099373 0.885473
O O7 0.625925 0.093537 0.034755
O O8 0.154791 0.750000 0.653395
O O9 0.165738 0.583990 0.717463
O O10 0.988579 0.633915 0.655678
O O11 0.752674 0.750000 0.321675
O O12 0.641833 0.884662 0.394077
O O13 0.730025 0.922355 0.264873
O O14 0.544923 0.388533 0.544181
O O15 0.623694 0.569893 0.536706
O O16 0.624964 0.475034 0.664453
O O17 0.588112 0.750000 0.495191
O O18 0.800905 0.930020 0.671817
O O19 0.669774 0.250000 0.120742
#
# Coordination Sequence:
#
# PCOD8254547 Si02
#       8
#     8   8   8   8   8   8   8   8
#     4   9  18  38  66  94 121 151 198 256 305 355
#     4   8  16  36  66  93 116 151 202 252 303 357
#     4   9  20  38  60  89 124 155 187 243 310 368
#     4  10  22  40  61  86 122 167 205 245 299 358
#     4  11  24  39  63  94 118 158 211 256 300 355
#     4  10  23  45  65  82 119 167 212 254 294 357
#     4  12  24  35  59  89 128 156 198 247 300 367
#     4   9  19  37  62  90 119 153 195 247 307 364
#
# _framework density 20.989052000000001
#
# number of rings (size 3 to 8) (size 9 to 14) (size 15 to 20)
#    0.000    2.250    0.000    3.750    1.750    4.000 
#    0.000    3.125    0.000    0.000    0.000    0.000 
#    0.000    0.000    0.000    0.000    0.000    0.000 
#
# Total GULP energy -793633.329812 kJ/mol
# GULP energy per Si atom -12400.520778 kJ/mol
# Density = 2.094128 g / cm^3
# Si number density = 20.989052 Si / 1000 Ang^3
#
#
#
# Elastic Constant Matrix: (Units=GPa)
#
#
# Indices 1 2 3 4 5 6 
#
# 1 100.0416 34.3126 37.9161 0.0000 0.0000 0.0000
# 2 34.3126 66.2650 38.9006 0.0000 0.0000 0.0000
# 3 37.9161 38.9006 99.4565 0.0000 0.0000 0.0000
# 4 0.0000 0.0000 0.0000 30.6064 0.0000 0.0000
# 5 0.0000 0.0000 0.0000 0.0000 21.5137 0.0000
# 6 0.0000 0.0000 0.0000 0.0000 0.0000 23.1052
#
#
#
# Elastic Compliance Matrix: (Units=1/GPa)
#
#
# Indices 1 2 3 4 5 6 
#
# 1 0.012796 -0.004883 -0.002968 0.000000 0.000000 0.000000
# 2 -0.004883 0.021452 -0.006529 0.000000 0.000000 0.000000
# 3 -0.002968 -0.006529 0.013740 0.000000 0.000000 0.000000
# 4 0.000000 0.000000 0.000000 0.032673 0.000000 0.000000
# 5 0.000000 0.000000 0.000000 0.000000 0.046482 0.000000
# 6 0.000000 0.000000 0.000000 0.000000 0.000000 0.043280
#
#
# Mechanical properties :
#
#
# Convention : Reuss Voigt Hill
#
# Bulk Modulus (GPa) = 52.01005 54.22465 53.11735
# Shear Modulus (GPa) = 24.31988 25.35397 24.83692
#
# Velocity S-wave (km/s) = 3.40765 3.47934 3.44368
# Velocity P-wave (km/s) = 6.34950 6.48320 6.41670
#
# Compressibility (1/GPa) = 0.01922705
#
# Stress axis : x y z
#
# Youngs Moduli (GPa) = 78.15150 46.61492 72.78073
#
# Poissons Ratio (x) = 0.22763 0.21602
# Poissons Ratio (y) = 0.38164 0.47519
# Poissons Ratio (z) = 0.23196 0.30435
#
# Static dielectric constant tensor:
#      x y z
#    x 3.791270 0.000000 0.000000 
#    y 0.000000 3.969430 0.000000 
#    z 0.000000 0.000000 3.846560 
# 
# 
# High freq. dielectric constant tensor:
#      x y z
#    x 1.820690 0.000000 0.000000 
#    y 0.000000 1.843140 0.000000 
#    z 0.000000 0.000000 1.811450 
# 
# From -- ./inp_files/23228.got.cif
#   From: 2010.03.12/outbox.cif.g09.slc.cpg/sg62_12_cif.got.tgz:23228.got - 2010.04.10 19:12:36.
