data_PCOD8254555
_publ_section_title
;
Structure prediction by ZEFSAII (Michael W. Deem and Ramdas Pophale) SiO2 
 PCOD8254555
Probable space group: P N M A
;
_chemical_formula_sum "Si O2"
_cell_formula_units_Z 48
_cell_length_a 8.938434
_cell_length_b 17.037910
_cell_length_c 14.979645
_cell_angle_alpha 90.000000
_cell_angle_beta 90.000000
_cell_angle_gamma 90.000000
_cell_volume 2281.283602
_symmetry_space_group_name_H-M "P N M A"
_symmetry_group_IT_number 62
_symmetry_cell_setting 'orthorhombic'
loop_
_space_group_symop_operation_xyz
x,y,z
1/2-x,-y,1/2+z
1/2+x,1/2-y,1/2-z
-x,1/2+y,-z
-x,-y,-z
1/2+x,y,1/2-z
1/2-x,1/2+y,1/2+z
x,1/2-y,z
loop_
_atom_site_type_symbol
_atom_site_label
_atom_site_fract_x
_atom_site_fract_y
_atom_site_fract_z
Si Si1 0.161133 0.094966 0.020813
Si Si2 0.828700 0.415375 0.965083
Si Si3 0.183739 0.905781 0.342469
Si Si4 0.067998 0.338954 0.194267
Si Si5 0.862894 0.840093 0.313878
Si Si6 0.739241 0.915073 0.661082
O O1 0.176279 0.150533 0.107673
O O2 0.181653 0.007097 0.057811
O O3 0.286453 0.114148 0.946712
O O4 0.001630 0.108329 0.973550
O O5 0.758826 0.364478 0.886951
O O6 0.738922 0.397188 0.056366
O O7 0.287977 0.850248 0.282676
O O8 0.009810 0.893087 0.322757
O O9 0.223795 0.995028 0.317638
O O10 0.008618 0.250000 0.197672
O O11 0.156029 0.356422 0.284703
O O12 0.932622 0.400047 0.186990
O O13 0.908357 0.750000 0.327412
#
# Coordination Sequence:
#
# PCOD8254555 Si02
#       6
#     8   8   8   8   8   8
#     4   9  20  39  63  87 115 156 202 245 294 356
#     4   9  20  40  63  87 116 155 200 244 295 358
#     4  11  23  41  64  87 118 162 208 249 293 359
#     4  11  22  36  58  89 123 155 193 247 306 357
#     4  12  25  39  60  91 125 158 198 253 311 358
#     4  10  22  40  62  86 117 160 203 242 289 355
#
# _framework density 21.040785
#
# number of rings (size 3 to 8) (size 9 to 14) (size 15 to 20)
#    0.000    1.667    0.000    5.000    0.000    8.667 
#    0.000    0.000    0.000    0.000    0.000    0.000 
#    0.000    0.000    0.000    0.000    0.000    0.000 
#
# Total GULP energy -595394.128637 kJ/mol
# GULP energy per Si atom -12404.044347 kJ/mol
# Density = 2.099290 g / cm^3
# Si number density = 21.040785 Si / 1000 Ang^3
#
#
#
# Elastic Constant Matrix: (Units=GPa)
#
#
# Indices 1 2 3 4 5 6 
#
# 1 50.7595 21.5076 8.4115 0.0000 0.0000 0.0000
# 2 21.5076 94.6770 38.6218 0.0000 0.0000 0.0000
# 3 8.4115 38.6218 56.2390 0.0000 0.0000 0.0000
# 4 0.0000 0.0000 0.0000 23.8480 0.0000 0.0000
# 5 0.0000 0.0000 0.0000 0.0000 31.8201 0.0000
# 6 0.0000 0.0000 0.0000 0.0000 0.0000 27.8955
#
#
#
# Elastic Compliance Matrix: (Units=1/GPa)
#
#
# Indices 1 2 3 4 5 6 
#
# 1 0.021801 -0.005032 0.000195 0.000000 0.000000 0.000000
# 2 -0.005032 0.015834 -0.010121 0.000000 0.000000 0.000000
# 3 0.000195 -0.010121 0.024703 0.000000 0.000000 0.000000
# 4 0.000000 0.000000 0.000000 0.041932 0.000000 0.000000
# 5 0.000000 0.000000 0.000000 0.000000 0.031427 0.000000
# 6 0.000000 0.000000 0.000000 0.000000 0.000000 0.035848
#
#
# Mechanical properties :
#
#
# Convention : Reuss Voigt Hill
#
# Bulk Modulus (GPa) = 30.84424 37.63970 34.24197
# Shear Modulus (GPa) = 23.55510 25.58837 24.57174
#
# Velocity S-wave (km/s) = 3.34952 3.49109 3.42104
# Velocity P-wave (km/s) = 5.44519 5.84620 5.64926
#
# Compressibility (1/GPa) = 0.03242096
#
# Stress axis : x y z
#
# Youngs Moduli (GPa) = 45.87039 63.15456 40.48108
#
# Poissons Ratio (x) = 0.31779 -0.00789
# Poissons Ratio (y) = 0.23082 0.40973
# Poissons Ratio (z) = -0.00895 0.63921
#
# Static dielectric constant tensor:
#      x y z
#    x 3.644740 0.000000 0.000000 
#    y 0.000000 3.679050 0.000000 
#    z 0.000000 0.000000 3.975000 
# 
# 
# High freq. dielectric constant tensor:
#      x y z
#    x 1.815500 0.000000 0.000000 
#    y 0.000000 1.817160 0.000000 
#    z 0.000000 0.000000 1.836340 
# 
# From -- ./inp_files/16920.got.cif
#   From: 2010.03.12/outbox.cif.g09.slc.cpg/sg62_9_cif.got.tgz:16920.got - 2010.04.10 19:12:36.
