data_PCOD8254066
_publ_section_title
;
Structure prediction by ZEFSAII (Michael W. Deem and Ramdas Pophale) SiO2 
 PCOD8254066
Probable space group: P N M A
;
_chemical_formula_sum "Si O2"
_cell_formula_units_Z 28
_cell_length_a 5.263434
_cell_length_b 9.655806
_cell_length_c 27.260032
_cell_angle_alpha 90.000000
_cell_angle_beta 90.000000
_cell_angle_gamma 90.000000
_cell_volume 1385.428363
_symmetry_space_group_name_H-M "P N M A"
_symmetry_group_IT_number 62
_symmetry_cell_setting 'orthorhombic'
loop_
_space_group_symop_operation_xyz
x,y,z
1/2-x,-y,1/2+z
1/2+x,1/2-y,1/2-z
-x,1/2+y,-z
-x,-y,-z
1/2+x,y,1/2-z
1/2-x,1/2+y,1/2+z
x,1/2-y,z
loop_
_atom_site_type_symbol
_atom_site_label
_atom_site_fract_x
_atom_site_fract_y
_atom_site_fract_z
Si Si1 0.616506 0.750000 0.218637
Si Si2 0.913569 0.481023 0.638913
Si Si3 0.905455 0.904624 0.893905
Si Si4 0.623132 0.093936 0.958411
O O1 0.400135 0.750000 0.259867
O O2 0.581872 0.614797 0.186064
O O3 0.653212 0.566747 0.638511
O O4 0.931398 0.394260 0.587965
O O5 0.158528 0.582522 0.641625
O O6 0.919910 0.750000 0.915746
O O7 0.878041 0.013617 0.939395
O O8 0.685626 0.250000 0.977422
O O9 0.500000 0.000000 0.000000
#
# Coordination Sequence:
#
# PCOD8254066 Si02
#       4
#     4   8   8   8
#     4  12  24  42  74 100 128 170 230 282 346 388
#     4  10  22  40  63  95 131 162 220 278 322 392
#     4  10  21  38  65  90 134 178 210 260 335 386
#     4  10  22  38  64  96 137 174 226 267 328 396
#
# _framework density 20.210355
#
# number of rings (size 3 to 8) (size 9 to 14) (size 15 to 20)
#    1.714    0.000    1.429    3.429    2.000    1.143 
#    0.000    0.000    0.000   17.143    0.000    0.000 
#    0.000    0.000    0.000    0.000    0.000    0.000 
#
# Total GULP energy -346877.905258 kJ/mol
# GULP energy per Si atom -12388.496616 kJ/mol
# Density = 2.016436 g / cm^3
# Si number density = 20.210355 Si / 1000 Ang^3
#
#
#
# Elastic Constant Matrix: (Units=GPa)
#
#
# Indices 1 2 3 4 5 6 
#
# 1 118.9465 17.7358 6.1232 0.0000 0.0000 0.0000
# 2 17.7358 147.9354 25.9413 0.0000 0.0000 0.0000
# 3 6.1232 25.9413 76.2873 0.0000 0.0000 0.0000
# 4 0.0000 0.0000 0.0000 39.1271 0.0000 0.0000
# 5 0.0000 0.0000 0.0000 0.0000 20.7250 0.0000
# 6 0.0000 0.0000 0.0000 0.0000 0.0000 19.4527
#
#
#
# Elastic Compliance Matrix: (Units=1/GPa)
#
#
# Indices 1 2 3 4 5 6 
#
# 1 0.008569 -0.000964 -0.000360 0.000000 0.000000 0.000000
# 2 -0.000964 0.007297 -0.002404 0.000000 0.000000 0.000000
# 3 -0.000360 -0.002404 0.013955 0.000000 0.000000 0.000000
# 4 0.000000 0.000000 0.000000 0.025558 0.000000 0.000000
# 5 0.000000 0.000000 0.000000 0.000000 0.048251 0.000000
# 6 0.000000 0.000000 0.000000 0.000000 0.000000 0.051407
#
#
# Mechanical properties :
#
#
# Convention : Reuss Voigt Hill
#
# Bulk Modulus (GPa) = 44.71310 49.19665 46.95488
# Shear Modulus (GPa) = 29.42087 35.41888 32.41988
#
# Velocity S-wave (km/s) = 3.81955 4.19084 4.00949
# Velocity P-wave (km/s) = 6.45165 6.91467 6.68717
#
# Compressibility (1/GPa) = 0.02236481
#
# Stress axis : x y z
#
# Youngs Moduli (GPa) = 116.69362 137.04552 71.66063
#
# Poissons Ratio (x) = 0.13215 0.02579
# Poissons Ratio (y) = 0.11252 0.17226
# Poissons Ratio (z) = 0.04200 0.32944
#
# Static dielectric constant tensor:
#      x y z
#    x 3.686890 0.000000 0.000000 
#    y 0.000000 2.976610 0.000000 
#    z 0.000000 0.000000 3.334350 
# 
# 
# High freq. dielectric constant tensor:
#      x y z
#    x 1.794280 0.000000 0.000000 
#    y 0.000000 1.787910 0.000000 
#    z 0.000000 0.000000 1.758890 
# 
# From -- ./inp_files/28093.got.cif
#   From: 2010.03.12/outbox.cif.g09.slc.cpg/sg62_15_cif.got.tgz:28093.got - 2010.04.10 19:12:36.
