data_PCOD8254345
_publ_section_title
;
Structure prediction by ZEFSAII (Michael W. Deem and Ramdas Pophale) SiO2 
 PCOD8254345
Probable space group: P N M A
;
_chemical_formula_sum "Si O2"
_cell_formula_units_Z 40
_cell_length_a 18.353093
_cell_length_b 11.388776
_cell_length_c 8.919487
_cell_angle_alpha 90.000000
_cell_angle_beta 90.000000
_cell_angle_gamma 90.000000
_cell_volume 1864.344618
_symmetry_space_group_name_H-M "P N M A"
_symmetry_group_IT_number 62
_symmetry_cell_setting 'orthorhombic'
loop_
_space_group_symop_operation_xyz
x,y,z
1/2-x,-y,1/2+z
1/2+x,1/2-y,1/2-z
-x,1/2+y,-z
-x,-y,-z
1/2+x,y,1/2-z
1/2-x,1/2+y,1/2+z
x,1/2-y,z
loop_
_atom_site_type_symbol
_atom_site_label
_atom_site_fract_x
_atom_site_fract_y
_atom_site_fract_z
Si Si1 0.939206 0.440367 0.187589
Si Si2 0.701713 0.611061 0.861029
Si Si3 0.941558 0.380457 0.857147
Si Si4 0.033825 0.123155 0.437035
Si Si5 0.327653 0.983459 0.844721
O O1 0.867813 0.454151 0.289661
O O2 0.977382 0.566574 0.162107
O O3 0.998795 0.360335 0.272206
O O4 0.916774 0.383712 0.030115
O O5 0.688119 0.750000 0.867124
O O6 0.771164 0.583580 0.759923
O O7 0.713181 0.562054 0.029623
O O8 0.947880 0.250000 0.798556
O O9 0.879609 0.438166 0.757332
O O10 0.017542 0.250000 0.520669
O O11 0.121075 0.112134 0.426882
O O12 0.000000 0.000000 0.500000
#
# Coordination Sequence:
#
# PCOD8254345 Si02
#       5
#     8   8   8   8   8
#     4  10  22  39  65  96 129 174 221 268 336 400
#     4  12  24  44  65  92 134 176 220 280 341 406
#     4  10  21  41  65  95 131 170 222 279 330 397
#     4  11  22  40  67  98 130 173 224 278 333 399
#     4  11  25  42  66  98 131 175 227 274 340 410
#
# _framework density 21.455259999999999
#
# number of rings (size 3 to 8) (size 9 to 14) (size 15 to 20)
#    0.000    1.200    2.000    4.200    0.000    3.200 
#    0.000   12.000    0.000    0.000    0.000    0.000 
#    0.000    0.000    0.000    0.000    0.000    0.000 
#
# Total GULP energy -495635.718819 kJ/mol
# GULP energy per Si atom -12390.892970 kJ/mol
# Density = 2.140643 g / cm^3
# Si number density = 21.455260 Si / 1000 Ang^3
#
#
#
# Elastic Constant Matrix: (Units=GPa)
#
#
# Indices 1 2 3 4 5 6 
#
# 1 103.5031 27.8790 32.1764 0.0000 0.0000 0.0000
# 2 27.8790 140.3489 33.0417 0.0000 0.0000 0.0000
# 3 32.1764 33.0417 117.7362 0.0000 0.0000 0.0000
# 4 0.0000 0.0000 0.0000 11.1220 0.0000 0.0000
# 5 0.0000 0.0000 0.0000 0.0000 46.9232 0.0000
# 6 0.0000 0.0000 0.0000 0.0000 0.0000 12.0916
#
#
#
# Elastic Compliance Matrix: (Units=1/GPa)
#
#
# Indices 1 2 3 4 5 6 
#
# 1 0.010870 -0.001563 -0.002532 0.000000 0.000000 0.000000
# 2 -0.001563 0.007854 -0.001777 0.000000 0.000000 0.000000
# 3 -0.002532 -0.001777 0.009684 0.000000 0.000000 0.000000
# 4 0.000000 0.000000 0.000000 0.089912 0.000000 0.000000
# 5 0.000000 0.000000 0.000000 0.000000 0.021311 0.000000
# 6 0.000000 0.000000 0.000000 0.000000 0.000000 0.082702
#
#
# Mechanical properties :
#
#
# Convention : Reuss Voigt Hill
#
# Bulk Modulus (GPa) = 60.01007 60.86472 60.43739
# Shear Modulus (GPa) = 20.86533 31.92675 26.39604
#
# Velocity S-wave (km/s) = 3.12188 3.86173 3.51134
# Velocity P-wave (km/s) = 6.40511 6.95080 6.68353
#
# Compressibility (1/GPa) = 0.01666387
#
# Stress axis : x y z
#
# Youngs Moduli (GPa) = 91.99900 127.32471 103.26085
#
# Poissons Ratio (x) = 0.19902 0.26145
# Poissons Ratio (y) = 0.14380 0.18349
# Poissons Ratio (z) = 0.23294 0.22625
#
# Static dielectric constant tensor:
#      x y z
#    x 3.964070 0.000000 0.000000 
#    y 0.000000 3.969960 0.000000 
#    z 0.000000 0.000000 4.241920 
# 
# 
# High freq. dielectric constant tensor:
#      x y z
#    x 1.834540 0.000000 0.000000 
#    y 0.000000 1.842310 0.000000 
#    z 0.000000 0.000000 1.856310 
# 
# From -- ./inp_files/7264.got.cif
#   From: 2010.03.12/outbox.cif.g09.slc.cpg/sg62_4_cif.got.tgz:7264.got - 2010.04.10 19:12:36.
