data_PCOD8254810
_publ_section_title
;
Structure prediction by ZEFSAII (Michael W. Deem and Ramdas Pophale) SiO2 
 PCOD8254810
Probable space group: P N M A
;
_chemical_formula_sum "Si O2"
_cell_formula_units_Z 48
_cell_length_a 18.393036
_cell_length_b 8.980115
_cell_length_c 14.607819
_cell_angle_alpha 90.000000
_cell_angle_beta 90.000000
_cell_angle_gamma 90.000000
_cell_volume 2412.796522
_symmetry_space_group_name_H-M "P N M A"
_symmetry_group_IT_number 62
_symmetry_cell_setting 'orthorhombic'
loop_
_space_group_symop_operation_xyz
x,y,z
1/2-x,-y,1/2+z
1/2+x,1/2-y,1/2-z
-x,1/2+y,-z
-x,-y,-z
1/2+x,y,1/2-z
1/2-x,1/2+y,1/2+z
x,1/2-y,z
loop_
_atom_site_type_symbol
_atom_site_label
_atom_site_fract_x
_atom_site_fract_y
_atom_site_fract_z
Si Si1 0.203375 0.077753 0.542649
Si Si2 0.820842 0.418620 0.105723
Si Si3 0.567443 0.924805 0.048942
Si Si4 0.585784 0.577231 0.259080
Si Si5 0.969727 0.923364 0.089719
Si Si6 0.764880 0.576730 0.787284
O O1 0.180182 0.250000 0.549092
O O2 0.279357 0.058063 0.489711
O O3 0.141655 0.988620 0.490302
O O4 0.213084 0.011681 0.643422
O O5 0.849953 0.250000 0.113843
O O6 0.888020 0.528944 0.111319
O O7 0.764664 0.455460 0.186234
O O8 0.564823 0.750000 0.030395
O O9 0.562875 0.962689 0.156178
O O10 0.500000 0.000000 0.000000
O O11 0.607626 0.750000 0.268454
O O12 0.518112 0.534370 0.322789
O O13 0.653078 0.479946 0.292920
O O14 0.971083 0.750000 0.070375
O O15 0.000000 0.000000 0.000000
O O16 0.763339 0.750000 0.812820
#
# Coordination Sequence:
#
# PCOD8254810 Si02
#       6
#     8   8   8   8   8   8
#     4  11  23  42  65  91 126 165 206 259 315 372
#     4  10  23  42  62  90 126 161 203 255 310 368
#     4  11  24  42  64  92 126 167 213 262 316 377
#     4  10  23  43  64  91 127 166 208 256 313 373
#     4  11  24  41  63  92 125 164 207 255 310 370
#     4  11  23  40  64  95 124 161 209 257 311 371
#
# _framework density 19.893927999999999
#
# number of rings (size 3 to 8) (size 9 to 14) (size 15 to 20)
#    0.000    1.333    1.667    3.000    2.333    8.667 
#    0.000    0.000    0.000    0.000    0.000    0.000 
#    0.000    0.000    0.000    0.000    0.000    0.000 
#
# Total GULP energy -595538.909506 kJ/mol
# GULP energy per Si atom -12407.060615 kJ/mol
# Density = 1.984865 g / cm^3
# Si number density = 19.893928 Si / 1000 Ang^3
#
#
#
# Elastic Constant Matrix: (Units=GPa)
#
#
# Indices 1 2 3 4 5 6 
#
# 1 103.2608 50.1324 26.7698 0.0000 0.0000 0.0000
# 2 50.1324 95.1105 49.3904 0.0000 0.0000 0.0000
# 3 26.7698 49.3904 100.3080 0.0000 0.0000 0.0000
# 4 0.0000 0.0000 0.0000 34.4718 0.0000 0.0000
# 5 0.0000 0.0000 0.0000 0.0000 34.3650 0.0000
# 6 0.0000 0.0000 0.0000 0.0000 0.0000 43.9415
#
#
#
# Elastic Compliance Matrix: (Units=1/GPa)
#
#
# Indices 1 2 3 4 5 6 
#
# 1 0.013016 -0.006794 -0.000128 0.000000 0.000000 0.000000
# 2 -0.006794 0.017672 -0.006888 0.000000 0.000000 0.000000
# 3 -0.000128 -0.006888 0.013395 0.000000 0.000000 0.000000
# 4 0.000000 0.000000 0.000000 0.029009 0.000000 0.000000
# 5 0.000000 0.000000 0.000000 0.000000 0.029099 0.000000
# 6 0.000000 0.000000 0.000000 0.000000 0.000000 0.022758
#
#
# Mechanical properties :
#
#
# Convention : Reuss Voigt Hill
#
# Bulk Modulus (GPa) = 60.74620 61.25163 60.99891
# Shear Modulus (GPa) = 31.63381 34.04810 32.84096
#
# Velocity S-wave (km/s) = 3.99196 4.14149 4.06742
# Velocity P-wave (km/s) = 7.20063 7.32975 7.26548
#
# Compressibility (1/GPa) = 0.01646194
#
# Stress axis : x y z
#
# Youngs Moduli (GPa) = 76.82892 56.58562 74.65270
#
# Poissons Ratio (x) = 0.38444 0.00958
# Poissons Ratio (y) = 0.52198 0.51424
# Poissons Ratio (z) = 0.00986 0.38979
#
# Static dielectric constant tensor:
#      x y z
#    x 4.002040 0.000000 0.000000 
#    y 0.000000 3.739900 0.000000 
#    z 0.000000 0.000000 3.905020 
# 
# 
# High freq. dielectric constant tensor:
#      x y z
#    x 1.782290 0.000000 0.000000 
#    y 0.000000 1.785250 0.000000 
#    z 0.000000 0.000000 1.792150 
# 
# From -- ./inp_files/19629.got.cif
#   From: 2010.03.12/outbox.cif.g09.slc.cpg/sg62_10_cif.got.tgz:19629.got - 2010.04.10 19:12:36.
