data_PCOD8254444
_publ_section_title
;
Structure prediction by ZEFSAII (Michael W. Deem and Ramdas Pophale) SiO2 
 PCOD8254444
Probable space group: P N M A
;
_chemical_formula_sum "Si O2"
_cell_formula_units_Z 48
_cell_length_a 8.396023
_cell_length_b 14.282110
_cell_length_c 18.203905
_cell_angle_alpha 90.000000
_cell_angle_beta 90.000000
_cell_angle_gamma 90.000000
_cell_volume 2182.883478
_symmetry_space_group_name_H-M "P N M A"
_symmetry_group_IT_number 62
_symmetry_cell_setting 'orthorhombic'
loop_
_space_group_symop_operation_xyz
x,y,z
1/2-x,-y,1/2+z
1/2+x,1/2-y,1/2-z
-x,1/2+y,-z
-x,-y,-z
1/2+x,y,1/2-z
1/2-x,1/2+y,1/2+z
x,1/2-y,z
loop_
_atom_site_type_symbol
_atom_site_label
_atom_site_fract_x
_atom_site_fract_y
_atom_site_fract_z
Si Si1 0.728384 0.750000 0.192680
Si Si2 0.265678 0.929574 0.531621
Si Si3 0.402138 0.250000 0.963695
Si Si4 0.253250 0.955659 0.298242
Si Si5 0.237233 0.750000 0.987522
Si Si6 0.749537 0.750000 0.357191
Si Si7 0.891845 0.948351 0.350326
Si Si8 0.100404 0.927882 0.916166
O O1 0.824634 0.651010 0.187948
O O2 0.655331 0.750000 0.278238
O O3 0.603739 0.750000 0.125599
O O4 0.184137 0.840939 0.495370
O O5 0.413760 0.901086 0.583458
O O6 0.136259 0.989513 0.577116
O O7 0.347400 0.987440 0.467533
O O8 0.578662 0.250000 0.993157
O O9 0.266452 0.979198 0.212104
O O10 0.071862 0.961609 0.323958
O O11 0.359014 0.035815 0.335172
O O12 0.140625 0.750000 0.067349
O O13 0.201154 0.838105 0.937516
O O14 0.863626 0.839831 0.367794
#
# Coordination Sequence:
#
# PCOD8254444 Si02
#       8
#     4   8   4   8   4   4   8   8
#     4  10  22  37  59  94 129 166 205 253 307 369
#     4  11  24  41  61  91 126 165 207 255 307 365
#     4  12  23  41  66  94 124 164 210 257 307 365
#     4  11  22  40  63  92 126 166 208 256 309 368
#     4  12  23  41  66  94 124 164 210 257 307 365
#     4  10  22  37  59  94 129 166 205 253 307 369
#     4  11  22  40  63  92 126 166 208 256 309 368
#     4  11  24  41  61  91 126 165 207 255 307 365
#
# _framework density 21.989263999999999
#
# number of rings (size 3 to 8) (size 9 to 14) (size 15 to 20)
#    0.000    1.000    3.333    4.000    0.000    1.333 
#    0.000    6.667    0.000    0.000    0.000    0.000 
#    0.000    0.000    0.000    0.000    0.000    0.000 
#
# Total GULP energy -594716.371325 kJ/mol
# GULP energy per Si atom -12389.924403 kJ/mol
# Density = 2.193922 g / cm^3
# Si number density = 21.989264 Si / 1000 Ang^3
#
#
#
# Elastic Constant Matrix: (Units=GPa)
#
#
# Indices 1 2 3 4 5 6 
#
# 1 61.5316 29.0948 2.8346 0.0000 0.0000 0.0000
# 2 29.0948 127.8357 54.7226 0.0000 0.0000 0.0000
# 3 2.8346 54.7226 90.4674 0.0000 0.0000 0.0000
# 4 0.0000 0.0000 0.0000 41.5955 0.0000 0.0000
# 5 0.0000 0.0000 0.0000 0.0000 29.7659 0.0000
# 6 0.0000 0.0000 0.0000 0.0000 0.0000 29.6370
#
#
#
# Elastic Compliance Matrix: (Units=1/GPa)
#
#
# Indices 1 2 3 4 5 6 
#
# 1 0.018681 -0.005399 0.002681 0.000000 0.000000 0.000000
# 2 -0.005399 0.012116 -0.007160 0.000000 0.000000 0.000000
# 3 0.002681 -0.007160 0.015301 0.000000 0.000000 0.000000
# 4 0.000000 0.000000 0.000000 0.024041 0.000000 0.000000
# 5 0.000000 0.000000 0.000000 0.000000 0.033596 0.000000
# 6 0.000000 0.000000 0.000000 0.000000 0.000000 0.033742
#
#
# Mechanical properties :
#
#
# Convention : Reuss Voigt Hill
#
# Bulk Modulus (GPa) = 37.96328 50.34876 44.15602
# Shear Modulus (GPa) = 30.11799 33.07853 31.59826
#
# Velocity S-wave (km/s) = 3.70492 3.88274 3.79487
# Velocity P-wave (km/s) = 5.96689 6.56107 6.27102
#
# Compressibility (1/GPa) = 0.02634124
#
# Stress axis : x y z
#
# Youngs Moduli (GPa) = 53.52941 82.53358 65.35697
#
# Poissons Ratio (x) = 0.44562 -0.17520
# Poissons Ratio (y) = 0.28902 0.46794
# Poissons Ratio (z) = -0.14349 0.59092
#
# Static dielectric constant tensor:
#      x y z
#    x 3.944780 0.000000 0.000000 
#    y 0.000000 3.997470 0.000000 
#    z 0.000000 0.000000 4.368140 
# 
# 
# High freq. dielectric constant tensor:
#      x y z
#    x 1.855130 0.000000 0.000000 
#    y 0.000000 1.861450 0.000000 
#    z 0.000000 0.000000 1.871220 
# 
# From -- ./inp_files/22268.got.cif
#   From: 2010.03.12/outbox.cif.g09.slc.cpg/sg62_12_cif.got.tgz:22268.got - 2010.04.10 19:12:36.
