data_PCOD8254200
_publ_section_title
;
Structure prediction by ZEFSAII (Michael W. Deem and Ramdas Pophale) SiO2 
 PCOD8254200
Probable space group: P N M A
;
_chemical_formula_sum "Si O2"
_cell_formula_units_Z 32
_cell_length_a 16.080585
_cell_length_b 14.257233
_cell_length_c 6.325465
_cell_angle_alpha 90.000000
_cell_angle_beta 90.000000
_cell_angle_gamma 90.000000
_cell_volume 1450.205501
_symmetry_space_group_name_H-M "P N M A"
_symmetry_group_IT_number 62
_symmetry_cell_setting 'orthorhombic'
loop_
_space_group_symop_operation_xyz
x,y,z
1/2-x,-y,1/2+z
1/2+x,1/2-y,1/2-z
-x,1/2+y,-z
-x,-y,-z
1/2+x,y,1/2-z
1/2-x,1/2+y,1/2+z
x,1/2-y,z
loop_
_atom_site_type_symbol
_atom_site_label
_atom_site_fract_x
_atom_site_fract_y
_atom_site_fract_z
Si Si1 0.838976 0.250000 0.716684
Si Si2 0.046388 0.750000 0.651018
Si Si3 0.906297 0.395715 0.014824
Si Si4 0.813180 0.750000 0.885936
Si Si5 0.093056 0.101888 0.882428
Si Si6 0.874160 0.750000 0.469003
O O1 0.924759 0.250000 0.590456
O O2 0.839124 0.343325 0.863998
O O3 0.764806 0.250000 0.546277
O O4 0.947657 0.750000 0.639478
O O5 0.080319 0.841209 0.768019
O O6 0.993032 0.400669 0.886161
O O7 0.872304 0.496435 0.090937
O O8 0.793380 0.750000 0.630399
O O9 0.868881 0.657974 0.922270
O O10 0.124661 0.155266 0.670626
#
# Coordination Sequence:
#
# PCOD8254200 Si02
#       6
#     4   4   8   4   8   4
#     4  11  23  41  61  91 137 170 210 279 336 383
#     4  11  19  36  60  92 127 172 213 269 327 381
#     4  10  21  39  66  95 127 167 228 269 322 388
#     4  11  23  41  61  91 135 175 216 271 338 396
#     4  10  21  39  66  95 125 172 222 273 314 399
#     4  11  19  36  64  96 133 171 217 267 327 396
#
# _framework density 22.065839
#
# number of rings (size 3 to 8) (size 9 to 14) (size 15 to 20)
#    0.000    1.500    5.000    1.500    0.000    7.000 
#    4.500    0.000    0.000    0.000    0.000    0.000 
#    0.000    0.000    0.000    0.000    0.000    0.000 
#
# Total GULP energy -396482.533447 kJ/mol
# GULP energy per Si atom -12390.079170 kJ/mol
# Density = 2.201562 g / cm^3
# Si number density = 22.065839 Si / 1000 Ang^3
#
#
#
# Elastic Constant Matrix: (Units=GPa)
#
#
# Indices 1 2 3 4 5 6 
#
# 1 57.8850 29.1420 35.6788 0.0000 0.0000 0.0000
# 2 29.1420 216.2377 86.0691 0.0000 0.0000 0.0000
# 3 35.6788 86.0691 154.1335 0.0000 0.0000 0.0000
# 4 0.0000 0.0000 0.0000 3.9149 0.0000 0.0000
# 5 0.0000 0.0000 0.0000 0.0000 46.5309 0.0000
# 6 0.0000 0.0000 0.0000 0.0000 0.0000 -62.8486
#
#
#
# Elastic Compliance Matrix: (Units=1/GPa)
#
#
# Indices 1 2 3 4 5 6 
#
# 1 0.020358 -0.001116 -0.004089 0.000000 0.000000 0.000000
# 2 -0.001116 0.006007 -0.003096 0.000000 0.000000 0.000000
# 3 -0.004089 -0.003096 0.009163 0.000000 0.000000 0.000000
# 4 0.000000 0.000000 0.000000 0.255436 0.000000 0.000000
# 5 0.000000 0.000000 0.000000 0.000000 0.021491 0.000000
# 6 0.000000 0.000000 0.000000 0.000000 0.000000 -0.015911
#
#
# Mechanical properties :
#
#
# Convention : Reuss Voigt Hill
#
# Bulk Modulus (GPa) = 52.83791 81.11510 66.97651
# Shear Modulus (GPa) = 15.65158 16.01052 15.83105
#
# Velocity S-wave (km/s) = 2.66618 2.69658 2.68142
# Velocity P-wave (km/s) = 5.78581 6.82171 6.32500
#
# Compressibility (1/GPa) = 0.01892580
#
# Stress axis : x y z
#
# Youngs Moduli (GPa) = 49.12075 166.46358 109.12959
#
# Poissons Ratio (x) = 0.18576 0.44626
# Poissons Ratio (y) = 0.05482 0.33789
# Poissons Ratio (z) = 0.20087 0.51541
#
# Static dielectric constant tensor:
#      x y z
#    x 3.833670 0.000000 0.000000 
#    y 0.000000 4.176590 0.000000 
#    z 0.000000 0.000000 4.048050 
# 
# 
# High freq. dielectric constant tensor:
#      x y z
#    x 1.852080 0.000000 0.000000 
#    y 0.000000 1.863490 0.000000 
#    z 0.000000 0.000000 1.881600 
# 
# From -- ./inp_files/1484.got.cif
#   From: 2010.03.12/outbox.cif.g09.slc.cpg/sg62_1_cif.got.tgz:1484.got - 2010.04.10 19:12:36.
