data_PCOD8254215
_publ_section_title
;
Structure prediction by ZEFSAII (Michael W. Deem and Ramdas Pophale) SiO2 
 PCOD8254215
Probable space group: P N M A
;
_chemical_formula_sum "Si O2"
_cell_formula_units_Z 64
_cell_length_a 13.985816
_cell_length_b 24.573444
_cell_length_c 8.521997
_cell_angle_alpha 90.000000
_cell_angle_beta 90.000000
_cell_angle_gamma 90.000000
_cell_volume 2928.837085
_symmetry_space_group_name_H-M "P N M A"
_symmetry_group_IT_number 62
_symmetry_cell_setting 'orthorhombic'
loop_
_space_group_symop_operation_xyz
x,y,z
1/2-x,-y,1/2+z
1/2+x,1/2-y,1/2-z
-x,1/2+y,-z
-x,-y,-z
1/2+x,y,1/2-z
1/2-x,1/2+y,1/2+z
x,1/2-y,z
loop_
_atom_site_type_symbol
_atom_site_label
_atom_site_fract_x
_atom_site_fract_y
_atom_site_fract_z
Si Si1 0.128478 0.117089 0.328776
Si Si2 0.460210 0.894311 0.165658
Si Si3 0.382089 0.502909 0.314109
Si Si4 0.226756 0.032752 0.106515
Si Si5 0.308468 0.811370 0.283172
Si Si6 0.788139 0.188815 0.045575
Si Si7 0.932697 0.121574 0.209819
Si Si8 0.158569 0.625954 0.470682
O O1 0.083758 0.096070 0.492615
O O2 0.184816 0.068216 0.248404
O O3 0.199709 0.167289 0.351029
O O4 0.044245 0.137515 0.213026
O O5 0.456499 0.949908 0.267214
O O6 0.402879 0.847746 0.259451
O O7 0.571307 0.877250 0.153479
O O8 0.354906 0.506120 0.498664
O O9 0.291160 0.511799 0.197427
O O10 0.427540 0.443825 0.289724
O O11 0.293849 0.066834 0.988563
O O12 0.342846 0.750000 0.318182
O O13 0.242484 0.832660 0.423834
O O14 0.239915 0.813593 0.134218
O O15 0.812128 0.250000 0.099560
O O16 0.881201 0.150043 0.062905
O O17 0.881251 0.146541 0.362886
#
# Coordination Sequence:
#
# PCOD8254215 Si02
#       8
#     8   8   8   8   8   8   8   8
#     4  10  21  41  61  87 125 158 208 245 305 365
#     4  10  22  39  63  91 123 166 196 254 305 367
#     4  11  22  36  60  92 124 160 204 247 309 367
#     4  11  22  37  61  90 124 169 202 250 302 374
#     4  10  22  41  63  87 118 158 204 252 304 358
#     4  10  21  41  62  84 118 158 201 251 303 356
#     4  10  23  39  60  93 120 160 201 250 302 371
#     4  10  21  40  61  91 124 155 208 246 304 362
#
# _framework density 21.851676000000001
#
# number of rings (size 3 to 8) (size 9 to 14) (size 15 to 20)
#    0.000    1.750    3.750    0.750    1.750    8.500 
#    0.000    2.500    0.000    0.000    0.000    0.000 
#    0.000    0.000    0.000    0.000    0.000    0.000 
#
# Total GULP energy -793601.152846 kJ/mol
# GULP energy per Si atom -12400.018013 kJ/mol
# Density = 2.180194 g / cm^3
# Si number density = 21.851676 Si / 1000 Ang^3
#
#
#
# Elastic Constant Matrix: (Units=GPa)
#
#
# Indices 1 2 3 4 5 6 
#
# 1 63.1256 12.7821 -4.3522 0.0000 0.0000 0.0000
# 2 12.7821 98.5257 15.6602 0.0000 0.0000 0.0000
# 3 -4.3522 15.6602 39.9415 0.0000 0.0000 0.0000
# 4 0.0000 0.0000 0.0000 29.1798 0.0000 0.0000
# 5 0.0000 0.0000 0.0000 0.0000 31.5053 0.0000
# 6 0.0000 0.0000 0.0000 0.0000 0.0000 16.0315
#
#
#
# Elastic Compliance Matrix: (Units=1/GPa)
#
#
# Indices 1 2 3 4 5 6 
#
# 1 0.016562 -0.002597 0.002823 0.000000 0.000000 0.000000
# 2 -0.002597 0.011232 -0.004687 0.000000 0.000000 0.000000
# 3 0.002823 -0.004687 0.027182 0.000000 0.000000 0.000000
# 4 0.000000 0.000000 0.000000 0.034270 0.000000 0.000000
# 5 0.000000 0.000000 0.000000 0.000000 0.031741 0.000000
# 6 0.000000 0.000000 0.000000 0.000000 0.000000 0.062377
#
#
# Mechanical properties :
#
#
# Convention : Reuss Voigt Hill
#
# Bulk Modulus (GPa) = 21.71395 27.75255 24.73325
# Shear Modulus (GPa) = 24.08053 27.17682 25.62868
#
# Velocity S-wave (km/s) = 3.32324 3.53043 3.42840
# Velocity P-wave (km/s) = 4.96828 5.41725 5.19761
#
# Compressibility (1/GPa) = 0.04605335
#
# Stress axis : x y z
#
# Youngs Moduli (GPa) = 60.37914 89.03511 36.78936
#
# Poissons Ratio (x) = 0.23126 -0.10386
# Poissons Ratio (y) = 0.15683 0.17242
# Poissons Ratio (z) = -0.17045 0.41728
#
# Static dielectric constant tensor:
#      x y z
#    x 4.046320 0.000000 0.000000 
#    y 0.000000 3.799350 0.000000 
#    z 0.000000 0.000000 3.990900 
# 
# 
# High freq. dielectric constant tensor:
#      x y z
#    x 1.863220 0.000000 0.000000 
#    y 0.000000 1.838460 0.000000 
#    z 0.000000 0.000000 1.858270 
# 
# From -- ./inp_files/6938.got.cif
#   From: 2010.03.12/outbox.cif.g09.slc.cpg/sg62_4_cif.got.tgz:6938.got - 2010.04.10 19:12:36.
