data_PCOD8254668
_publ_section_title
;
Structure prediction by ZEFSAII (Michael W. Deem and Ramdas Pophale) SiO2 
 PCOD8254668
Probable space group: P N M A
;
_chemical_formula_sum "Si O2"
_cell_formula_units_Z 48
_cell_length_a 18.426107
_cell_length_b 8.876863
_cell_length_c 14.775858
_cell_angle_alpha 90.000000
_cell_angle_beta 90.000000
_cell_angle_gamma 90.000000
_cell_volume 2416.828395
_symmetry_space_group_name_H-M "P N M A"
_symmetry_group_IT_number 62
_symmetry_cell_setting 'orthorhombic'
loop_
_space_group_symop_operation_xyz
x,y,z
1/2-x,-y,1/2+z
1/2+x,1/2-y,1/2-z
-x,1/2+y,-z
-x,-y,-z
1/2+x,y,1/2-z
1/2-x,1/2+y,1/2+z
x,1/2-y,z
loop_
_atom_site_type_symbol
_atom_site_label
_atom_site_fract_x
_atom_site_fract_y
_atom_site_fract_z
Si Si1 0.980802 0.926246 0.405668
Si Si2 0.719695 0.423924 0.513137
Si Si3 0.437861 0.572716 0.559435
Si Si4 0.734332 0.076228 0.194611
Si Si5 0.912060 0.427716 0.751960
Si Si6 0.834458 0.421161 0.358201
O O1 0.986009 0.750000 0.419380
O O2 0.038489 0.981561 0.331536
O O3 0.900496 0.967106 0.373689
O O4 0.000000 0.000000 0.500000
O O5 0.724579 0.250000 0.543572
O O6 0.638803 0.469085 0.485197
O O7 0.744869 0.529860 0.593952
O O8 0.770658 0.457432 0.428214
O O9 0.500000 0.500000 0.500000
O O10 0.449456 0.750000 0.564506
O O11 0.443238 0.507761 0.659790
O O12 0.709343 0.250000 0.196656
O O13 0.804415 0.051522 0.257553
O O14 0.669901 0.974652 0.232359
O O15 0.915965 0.250000 0.766753
O O16 0.861760 0.250000 0.370701
#
# Coordination Sequence:
#
# PCOD8254668 Si02
#       6
#     8   8   8   8   8   8
#     4  11  25  42  63  93 126 164 208 258 313 372
#     4  10  22  42  64  89 125 163 202 257 314 370
#     4  11  24  43  65  92 128 169 213 264 318 378
#     4  11  23  40  64  95 124 161 209 257 311 371
#     4  11  24  43  65  93 129 169 211 258 316 376
#     4  10  22  42  63  89 125 162 203 254 310 368
#
# _framework density 19.860738999999999
#
# number of rings (size 3 to 8) (size 9 to 14) (size 15 to 20)
#    0.000    1.333    1.667    3.000    2.333   10.000 
#    0.000    0.000    0.000    0.000    0.000    0.000 
#    0.000    0.000    0.000    0.000    0.000    0.000 
#
# Total GULP energy -595523.631688 kJ/mol
# GULP energy per Si atom -12406.742327 kJ/mol
# Density = 1.981554 g / cm^3
# Si number density = 19.860739 Si / 1000 Ang^3
#
#
#
# Elastic Constant Matrix: (Units=GPa)
#
#
# Indices 1 2 3 4 5 6 
#
# 1 89.1921 36.8758 22.4958 0.0000 0.0000 0.0000
# 2 36.8758 66.1843 46.8059 0.0000 0.0000 0.0000
# 3 22.4958 46.8059 114.5399 0.0000 0.0000 0.0000
# 4 0.0000 0.0000 0.0000 38.9190 0.0000 0.0000
# 5 0.0000 0.0000 0.0000 0.0000 34.5424 0.0000
# 6 0.0000 0.0000 0.0000 0.0000 0.0000 37.8807
#
#
#
# Elastic Compliance Matrix: (Units=1/GPa)
#
#
# Indices 1 2 3 4 5 6 
#
# 1 0.014601 -0.008590 0.000642 0.000000 0.000000 0.000000
# 2 -0.008590 0.026304 -0.009062 0.000000 0.000000 0.000000
# 3 0.000642 -0.009062 0.012307 0.000000 0.000000 0.000000
# 4 0.000000 0.000000 0.000000 0.025694 0.000000 0.000000
# 5 0.000000 0.000000 0.000000 0.000000 0.028950 0.000000
# 6 0.000000 0.000000 0.000000 0.000000 0.000000 0.026399
#
#
# Mechanical properties :
#
#
# Convention : Reuss Voigt Hill
#
# Bulk Modulus (GPa) = 52.09891 53.58570 52.84230
# Shear Modulus (GPa) = 28.62521 33.18434 30.90478
#
# Velocity S-wave (km/s) = 3.80056 4.09204 3.94899
# Velocity P-wave (km/s) = 6.74893 7.02607 6.88889
#
# Compressibility (1/GPa) = 0.01919426
#
# Stress axis : x y z
#
# Youngs Moduli (GPa) = 68.48838 38.01745 81.25153
#
# Poissons Ratio (x) = 0.32655 -0.05219
# Poissons Ratio (y) = 0.58828 0.73629
# Poissons Ratio (z) = -0.04400 0.34451
#
# Static dielectric constant tensor:
#      x y z
#    x 3.428790 0.000000 0.000000 
#    y 0.000000 3.621920 0.000000 
#    z 0.000000 0.000000 3.714170 
# 
# 
# High freq. dielectric constant tensor:
#      x y z
#    x 1.784050 0.000000 0.000000 
#    y 0.000000 1.780490 0.000000 
#    z 0.000000 0.000000 1.791990 
# 
# From -- ./inp_files/19618.got.cif
#   From: 2010.03.12/outbox.cif.g09.slc.cpg/sg62_10_cif.got.tgz:19618.got - 2010.04.10 19:12:36.
