data_PCOD8254969
_publ_section_title
;
Structure prediction by ZEFSAII (Michael W. Deem and Ramdas Pophale) SiO2 
 PCOD8254969
Probable space group: P N M A
;
_chemical_formula_sum "Si O2"
_cell_formula_units_Z 48
_cell_length_a 16.733869
_cell_length_b 8.947066
_cell_length_c 17.888577
_cell_angle_alpha 90.000000
_cell_angle_beta 90.000000
_cell_angle_gamma 90.000000
_cell_volume 2678.260403
_symmetry_space_group_name_H-M "P N M A"
_symmetry_group_IT_number 62
_symmetry_cell_setting 'orthorhombic'
loop_
_space_group_symop_operation_xyz
x,y,z
1/2-x,-y,1/2+z
1/2+x,1/2-y,1/2-z
-x,1/2+y,-z
-x,-y,-z
1/2+x,y,1/2-z
1/2-x,1/2+y,1/2+z
x,1/2-y,z
loop_
_atom_site_type_symbol
_atom_site_label
_atom_site_fract_x
_atom_site_fract_y
_atom_site_fract_z
Si Si1 0.002563 0.426613 0.419396
Si Si2 0.083321 0.576405 0.984094
Si Si3 0.135415 0.426510 0.675151
Si Si4 0.742476 0.927265 0.444869
Si Si5 0.833512 0.423959 0.171965
Si Si6 0.820584 0.574664 0.592703
O O1 0.989751 0.250000 0.427306
O O2 0.089416 0.465402 0.383789
O O3 0.000000 0.500000 0.500000
O O4 0.938489 0.495711 0.364636
O O5 0.070502 0.750000 0.997660
O O6 0.110513 0.544878 0.899300
O O7 0.151645 0.514234 0.041721
O O8 0.000000 0.500000 0.000000
O O9 0.123265 0.250000 0.669737
O O10 0.218333 0.476559 0.634076
O O11 0.135083 0.477020 0.760324
O O12 0.739925 0.750000 0.450383
O O13 0.799356 0.992556 0.510829
O O14 0.835815 0.250000 0.194748
O O15 0.743272 0.480967 0.154253
O O16 0.807763 0.750000 0.585490
#
# Coordination Sequence:
#
# PCOD8254969 Si02
#       6
#     8   8   8   8   8   8
#     4  11  20  33  56  84 112 143 180 222 268 323
#     4   9  18  35  59  79 102 138 182 225 267 318
#     4  11  21  35  54  79 112 144 177 221 272 323
#     4   8  15  31  54  75  99 137 175 210 262 317
#     4   9  19  37  57  76 103 142 181 220 271 322
#     4   8  15  32  56  75  98 137 177 212 255 314
#
# _framework density 17.922080000000001
#
# number of rings (size 3 to 8) (size 9 to 14) (size 15 to 20)
#    0.000    2.667    1.667    3.000    0.000    0.667 
#    3.000    3.333    0.000    0.000    0.000    0.000 
#    0.000    0.000    0.000    0.000    0.000    0.000 
#
# Total GULP energy -594833.979981 kJ/mol
# GULP energy per Si atom -12392.374583 kJ/mol
# Density = 1.788129 g / cm^3
# Si number density = 17.922080 Si / 1000 Ang^3
#
#
#
# Elastic Constant Matrix: (Units=GPa)
#
#
# Indices 1 2 3 4 5 6 
#
# 1 157.2435 53.1071 66.7342 0.0000 0.0000 0.0000
# 2 53.1071 61.0887 40.0975 0.0000 0.0000 0.0000
# 3 66.7342 40.0975 91.5183 0.0000 0.0000 0.0000
# 4 0.0000 0.0000 0.0000 28.4855 0.0000 0.0000
# 5 0.0000 0.0000 0.0000 0.0000 27.1491 0.0000
# 6 0.0000 0.0000 0.0000 0.0000 0.0000 26.8271
#
#
#
# Elastic Compliance Matrix: (Units=1/GPa)
#
#
# Indices 1 2 3 4 5 6 
#
# 1 0.010472 -0.005743 -0.005120 0.000000 0.000000 0.000000
# 2 -0.005743 0.026128 -0.007259 0.000000 0.000000 0.000000
# 3 -0.005120 -0.007259 0.017841 0.000000 0.000000 0.000000
# 4 0.000000 0.000000 0.000000 0.035106 0.000000 0.000000
# 5 0.000000 0.000000 0.000000 0.000000 0.036834 0.000000
# 6 0.000000 0.000000 0.000000 0.000000 0.000000 0.037276
#
#
# Mechanical properties :
#
#
# Convention : Reuss Voigt Hill
#
# Bulk Modulus (GPa) = 54.95951 69.96978 62.46464
# Shear Modulus (GPa) = 24.27589 26.48646 25.38117
#
# Velocity S-wave (km/s) = 3.68438 3.84847 3.76732
# Velocity P-wave (km/s) = 6.98798 7.67291 7.33844
#
# Compressibility (1/GPa) = 0.01819521
#
# Stress axis : x y z
#
# Youngs Moduli (GPa) = 95.49129 38.27373 56.05158
#
# Poissons Ratio (x) = 0.21982 0.28697
# Poissons Ratio (y) = 0.54844 0.40690
# Poissons Ratio (z) = 0.48890 0.27785
#
# Static dielectric constant tensor:
#      x y z
#    x 3.825600 0.000000 0.000000 
#    y 0.000000 3.058130 0.000000 
#    z 0.000000 0.000000 3.141910 
# 
# 
# High freq. dielectric constant tensor:
#      x y z
#    x 1.706530 0.000000 0.000000 
#    y 0.000000 1.666660 0.000000 
#    z 0.000000 0.000000 1.682350 
# 
# From -- ./inp_files/24228.got.cif
#   From: 2010.03.12/outbox.cif.g09.slc.cpg/sg62_13_cif.got.tgz:24228.got - 2010.04.10 19:12:36.
