data_PCOD8254235
_publ_section_title
;
Structure prediction by ZEFSAII (Michael W. Deem and Ramdas Pophale) SiO2 
 PCOD8254235
Probable space group: P N M A
;
_chemical_formula_sum "Si O2"
_cell_formula_units_Z 48
_cell_length_a 30.882865
_cell_length_b 8.359518
_cell_length_c 8.978354
_cell_angle_alpha 90.000000
_cell_angle_beta 90.000000
_cell_angle_gamma 90.000000
_cell_volume 2317.904534
_symmetry_space_group_name_H-M "P N M A"
_symmetry_group_IT_number 62
_symmetry_cell_setting 'orthorhombic'
loop_
_space_group_symop_operation_xyz
x,y,z
1/2-x,-y,1/2+z
1/2+x,1/2-y,1/2-z
-x,1/2+y,-z
-x,-y,-z
1/2+x,y,1/2-z
1/2-x,1/2+y,1/2+z
x,1/2-y,z
loop_
_atom_site_type_symbol
_atom_site_label
_atom_site_fract_x
_atom_site_fract_y
_atom_site_fract_z
Si Si1 0.791692 0.563524 0.409111
Si Si2 0.627714 0.934929 0.422075
Si Si3 0.956941 0.559790 0.077500
Si Si4 0.373484 0.940629 0.907792
Si Si5 0.541882 0.061700 0.916593
Si Si6 0.289825 0.564189 0.423891
O O1 0.799853 0.750000 0.393047
O O2 0.831229 0.493472 0.505652
O O3 0.746214 0.531177 0.486025
O O4 0.791833 0.490857 0.242629
O O5 0.639271 0.750000 0.445948
O O6 0.582304 0.974825 0.495725
O O7 0.625058 0.972154 0.248722
O O8 0.664202 0.043283 0.497701
O O9 0.952225 0.750000 0.064472
O O10 0.957498 0.499273 0.247598
O O11 0.000000 0.500000 0.000000
O O12 0.372554 0.750000 0.884660
O O13 0.415146 0.998608 0.000307
O O14 0.540460 0.250000 0.916901
O O15 0.500000 0.000000 0.000000
O O16 0.277038 0.750000 0.422984
#
# Coordination Sequence:
#
# PCOD8254235 Si02
#       6
#     8   8   8   8   8   8
#     4  10  22  40  62  89 119 154 199 246 295 354
#     4  12  25  40  60  89 121 156 200 246 293 350
#     4  11  23  41  63  90 122 157 198 243 294 351
#     4  10  21  40  63  86 117 157 197 243 298 350
#     4  10  22  39  61  88 119 155 196 241 290 348
#     4  11  23  40  62  88 120 157 196 243 297 353
#
# _framework density 20.708359999999999
#
# number of rings (size 3 to 8) (size 9 to 14) (size 15 to 20)
#    0.000    1.333    0.000    5.500    0.000   12.000 
#    0.000    1.667    0.000    0.000    0.000    0.000 
#    0.000    0.000    0.000    0.000    0.000    0.000 
#
# Total GULP energy -595461.243921 kJ/mol
# GULP energy per Si atom -12405.442582 kJ/mol
# Density = 2.066123 g / cm^3
# Si number density = 20.708360 Si / 1000 Ang^3
#
#
#
# Elastic Constant Matrix: (Units=GPa)
#
#
# Indices 1 2 3 4 5 6 
#
# 1 158.4017 0.1484 77.5452 0.0000 0.0000 0.0000
# 2 0.1484 35.2387 19.8409 0.0000 0.0000 0.0000
# 3 77.5452 19.8409 195.7929 0.0000 0.0000 0.0000
# 4 0.0000 0.0000 0.0000 27.5846 0.0000 0.0000
# 5 0.0000 0.0000 0.0000 0.0000 49.1507 0.0000
# 6 0.0000 0.0000 0.0000 0.0000 0.0000 33.7357
#
#
#
# Elastic Compliance Matrix: (Units=1/GPa)
#
#
# Indices 1 2 3 4 5 6 
#
# 1 0.007943 0.001843 -0.003333 0.000000 0.000000 0.000000
# 2 0.001843 0.030523 -0.003823 0.000000 0.000000 0.000000
# 3 -0.003333 -0.003823 0.006815 0.000000 0.000000 0.000000
# 4 0.000000 0.000000 0.000000 0.036252 0.000000 0.000000
# 5 0.000000 0.000000 0.000000 0.000000 0.020346 0.000000
# 6 0.000000 0.000000 0.000000 0.000000 0.000000 0.029642
#
#
# Mechanical properties :
#
#
# Convention : Reuss Voigt Hill
#
# Bulk Modulus (GPa) = 28.85591 64.94473 46.90032
# Shear Modulus (GPa) = 32.53158 41.55411 37.04285
#
# Velocity S-wave (km/s) = 3.96781 4.48441 4.23399
# Velocity P-wave (km/s) = 5.91236 7.63170 6.82638
#
# Compressibility (1/GPa) = 0.03465494
#
# Stress axis : x y z
#
# Youngs Moduli (GPa) = 125.90051 32.76259 146.74112
#
# Poissons Ratio (x) = -0.06038 0.48902
# Poissons Ratio (y) = -0.23202 0.56098
# Poissons Ratio (z) = 0.41957 0.12525
#
# Static dielectric constant tensor:
#      x y z
#    x 3.790010 0.000000 0.000000 
#    y 0.000000 3.632310 0.000000 
#    z 0.000000 0.000000 4.113420 
# 
# 
# High freq. dielectric constant tensor:
#      x y z
#    x 1.828480 0.000000 0.000000 
#    y 0.000000 1.799220 0.000000 
#    z 0.000000 0.000000 1.833160 
# 
# From -- ./inp_files/10158.got.cif
#   From: 2010.03.12/outbox.cif.g09.slc.cpg/sg62_6_cif.got.tgz:10158.got - 2010.04.10 19:12:36.
