data_PCOD8254119
_publ_section_title
;
Structure prediction by ZEFSAII (Michael W. Deem and Ramdas Pophale) SiO2 
 PCOD8254119
Probable space group: P N M A
;
_chemical_formula_sum "Si O2"
_cell_formula_units_Z 64
_cell_length_a 12.829451
_cell_length_b 8.992637
_cell_length_c 27.691884
_cell_angle_alpha 90.000000
_cell_angle_beta 90.000000
_cell_angle_gamma 90.000000
_cell_volume 3194.829155
_symmetry_space_group_name_H-M "P N M A"
_symmetry_group_IT_number 62
_symmetry_cell_setting 'orthorhombic'
loop_
_space_group_symop_operation_xyz
x,y,z
1/2-x,-y,1/2+z
1/2+x,1/2-y,1/2-z
-x,1/2+y,-z
-x,-y,-z
1/2+x,y,1/2-z
1/2-x,1/2+y,1/2+z
x,1/2-y,z
loop_
_atom_site_type_symbol
_atom_site_label
_atom_site_fract_x
_atom_site_fract_y
_atom_site_fract_z
Si Si1 0.459259 0.926027 0.951009
Si Si2 0.248098 0.081235 0.958681
Si Si3 0.755368 0.074343 0.304086
Si Si4 0.815487 0.925728 0.700523
Si Si5 0.597921 0.580476 0.477561
Si Si6 0.972040 0.426201 0.346357
Si Si7 0.353011 0.583056 0.359816
Si Si8 0.087165 0.917490 0.135964
O O1 0.455534 0.750000 0.958501
O O2 0.527365 0.969220 0.903487
O O3 0.345521 0.988261 0.939432
O O4 0.500000 0.000000 0.000000
O O5 0.281725 0.250000 0.971433
O O6 0.159472 0.078644 0.917651
O O7 0.203064 0.003136 0.006249
O O8 0.764546 0.250000 0.301249
O O9 0.717905 0.008274 0.252629
O O10 0.867725 0.008554 0.320950
O O11 0.668429 0.032776 0.342688
O O12 0.823760 0.750000 0.703170
O O13 0.926512 0.991499 0.681977
O O14 0.724626 0.966723 0.663733
O O15 0.500000 0.500000 0.500000
O O16 0.599941 0.750000 0.495990
O O17 0.594003 0.571007 0.420813
O O18 0.974433 0.250000 0.341897
O O19 0.328360 0.750000 0.341242
O O20 0.471074 0.537787 0.346868
O O21 0.113358 0.750000 0.153067
#
# Coordination Sequence:
#
# PCOD8254119 Si02
#       8
#     8   8   8   8   8   8   8   8
#     4  11  23  40  61  87 123 165 207 254 309 366
#     4  11  22  39  60  87 121 159 205 255 307 365
#     4  10  23  40  63  91 120 158 201 251 308 363
#     4  10  21  39  65  91 118 154 201 253 304 363
#     4  11  22  38  59  87 123 163 200 246 301 361
#     4   9  20  40  60  88 125 155 195 253 305 357
#     4  10  21  39  61  87 122 157 197 251 305 360
#     4  10  23  42  59  85 125 161 200 250 301 361
#
# _framework density 20.032371999999999
#
# number of rings (size 3 to 8) (size 9 to 14) (size 15 to 20)
#    0.000    1.750    2.500    1.125    3.500    2.500 
#    0.000    1.250    0.000    0.000    0.000    0.000 
#    0.000    0.000    0.000    0.000    0.000    0.000 
#
# Total GULP energy -793569.605649 kJ/mol
# GULP energy per Si atom -12399.525088 kJ/mol
# Density = 1.998678 g / cm^3
# Si number density = 20.032372 Si / 1000 Ang^3
#
#
#
# Elastic Constant Matrix: (Units=GPa)
#
#
# Indices 1 2 3 4 5 6 
#
# 1 134.7718 26.2087 62.6408 0.0000 0.0000 0.0000
# 2 26.2087 53.7722 36.1226 0.0000 0.0000 0.0000
# 3 62.6408 36.1226 106.4608 0.0000 0.0000 0.0000
# 4 0.0000 0.0000 0.0000 27.2277 0.0000 0.0000
# 5 0.0000 0.0000 0.0000 0.0000 37.3996 0.0000
# 6 0.0000 0.0000 0.0000 0.0000 0.0000 30.9834
#
#
#
# Elastic Compliance Matrix: (Units=1/GPa)
#
#
# Indices 1 2 3 4 5 6 
#
# 1 0.010275 -0.001226 -0.005630 0.000000 0.000000 0.000000
# 2 -0.001226 0.024234 -0.007501 0.000000 0.000000 0.000000
# 3 -0.005630 -0.007501 0.015251 0.000000 0.000000 0.000000
# 4 0.000000 0.000000 0.000000 0.036727 0.000000 0.000000
# 5 0.000000 0.000000 0.000000 0.000000 0.026738 0.000000
# 6 0.000000 0.000000 0.000000 0.000000 0.000000 0.032275
#
#
# Mechanical properties :
#
#
# Convention : Reuss Voigt Hill
#
# Bulk Modulus (GPa) = 47.51622 60.54990 54.03306
# Shear Modulus (GPa) = 27.58933 30.45766 29.02350
#
# Velocity S-wave (km/s) = 3.71514 3.90349 3.81048
# Velocity P-wave (km/s) = 6.49417 7.11393 6.81110
#
# Compressibility (1/GPa) = 0.02104545
#
# Stress axis : x y z
#
# Youngs Moduli (GPa) = 97.32309 41.26493 65.57045
#
# Poissons Ratio (x) = 0.05060 0.36914
# Poissons Ratio (y) = 0.11934 0.49185
# Poissons Ratio (z) = 0.54790 0.30953
#
# Static dielectric constant tensor:
#      x y z
#    x 3.699270 0.000000 0.000000 
#    y 0.000000 3.579440 0.000000 
#    z 0.000000 0.000000 3.988440 
# 
# 
# High freq. dielectric constant tensor:
#      x y z
#    x 1.791260 0.000000 0.000000 
#    y 0.000000 1.764610 0.000000 
#    z 0.000000 0.000000 1.785190 
# 
# From -- ./inp_files/32555.got.cif
#   From: 2010.03.12/outbox.cif.g09.slc.cpg/sg62_17_cif.got.tgz:32555.got - 2010.04.10 19:12:36.
