data_PCOD8254588
_publ_section_title
;
Structure prediction by ZEFSAII (Michael W. Deem and Ramdas Pophale) SiO2 
 PCOD8254588
Probable space group: P N M A
;
_chemical_formula_sum "Si O2"
_cell_formula_units_Z 32
_cell_length_a 11.062309
_cell_length_b 10.237934
_cell_length_c 13.396751
_cell_angle_alpha 90.000000
_cell_angle_beta 90.000000
_cell_angle_gamma 90.000000
_cell_volume 1517.251572
_symmetry_space_group_name_H-M "P N M A"
_symmetry_group_IT_number 62
_symmetry_cell_setting 'orthorhombic'
loop_
_space_group_symop_operation_xyz
x,y,z
1/2-x,-y,1/2+z
1/2+x,1/2-y,1/2-z
-x,1/2+y,-z
-x,-y,-z
1/2+x,y,1/2-z
1/2-x,1/2+y,1/2+z
x,1/2-y,z
loop_
_atom_site_type_symbol
_atom_site_label
_atom_site_fract_x
_atom_site_fract_y
_atom_site_fract_z
Si Si1 0.102599 0.603009 0.474515
Si Si2 0.579520 0.894464 0.617881
Si Si3 0.757694 0.896945 0.212819
Si Si4 0.325790 0.499750 0.583339
O O1 0.050172 0.750000 0.483865
O O2 0.146538 0.574847 0.361833
O O3 0.214350 0.590028 0.550332
O O4 0.000000 0.500000 0.500000
O O5 0.612083 0.750000 0.658010
O O6 0.435045 0.906680 0.615754
O O7 0.633784 0.002339 0.692404
O O8 0.633289 0.907069 0.506939
O O9 0.807308 0.750000 0.195099
O O10 0.712328 0.908259 0.325350
#
# Coordination Sequence:
#
# PCOD8254588 Si02
#       4
#     8   8   8   8
#     4  10  23  42  62  91 128 164 204 255 307 365
#     4  10  22  40  65  94 123 160 209 263 314 365
#     4  10  23  41  63  91 124 166 210 252 310 376
#     4  10  22  41  64  92 125 165 206 257 310 373
#
# _framework density 21.090768000000001
#
# number of rings (size 3 to 8) (size 9 to 14) (size 15 to 20)
#    0.000    2.000    0.000    1.500    3.500   14.000 
#    0.000    0.000    0.000    0.000    0.000    0.000 
#    0.000    0.000    0.000    0.000    0.000    0.000 
#
# Total GULP energy -396882.013045 kJ/mol
# GULP energy per Si atom -12402.562908 kJ/mol
# Density = 2.104276 g / cm^3
# Si number density = 21.090768 Si / 1000 Ang^3
#
#
#
# Elastic Constant Matrix: (Units=GPa)
#
#
# Indices 1 2 3 4 5 6 
#
# 1 122.2878 62.0813 33.8893 0.0000 0.0000 0.0000
# 2 62.0813 150.8748 28.5584 0.0000 0.0000 0.0000
# 3 33.8893 28.5584 99.0616 0.0000 0.0000 0.0000
# 4 0.0000 0.0000 0.0000 22.2816 0.0000 0.0000
# 5 0.0000 0.0000 0.0000 0.0000 20.6060 0.0000
# 6 0.0000 0.0000 0.0000 0.0000 0.0000 29.9213
#
#
#
# Elastic Compliance Matrix: (Units=1/GPa)
#
#
# Indices 1 2 3 4 5 6 
#
# 1 0.010928 -0.004008 -0.002583 0.000000 0.000000 0.000000
# 2 -0.004008 0.008480 -0.001074 0.000000 0.000000 0.000000
# 3 -0.002583 -0.001074 0.011288 0.000000 0.000000 0.000000
# 4 0.000000 0.000000 0.000000 0.044880 0.000000 0.000000
# 5 0.000000 0.000000 0.000000 0.000000 0.048530 0.000000
# 6 0.000000 0.000000 0.000000 0.000000 0.000000 0.033421
#
#
# Mechanical properties :
#
#
# Convention : Reuss Voigt Hill
#
# Bulk Modulus (GPa) = 65.07381 69.03134 67.05258
# Shear Modulus (GPa) = 28.09337 31.07479 29.58408
#
# Velocity S-wave (km/s) = 3.65365 3.84263 3.74933
# Velocity P-wave (km/s) = 6.97997 7.24496 7.11370
#
# Compressibility (1/GPa) = 0.01536717
#
# Stress axis : x y z
#
# Youngs Moduli (GPa) = 91.50988 117.92061 88.58988
#
# Poissons Ratio (x) = 0.47258 0.22884
# Poissons Ratio (y) = 0.36673 0.09513
# Poissons Ratio (z) = 0.23638 0.12662
#
# Static dielectric constant tensor:
#      x y z
#    x 3.757290 0.000000 0.000000 
#    y 0.000000 3.661490 0.000000 
#    z 0.000000 0.000000 3.883670 
# 
# 
# High freq. dielectric constant tensor:
#      x y z
#    x 1.821650 0.000000 0.000000 
#    y 0.000000 1.827800 0.000000 
#    z 0.000000 0.000000 1.827130 
# 
# From -- ./inp_files/17629.got.cif
#   From: 2010.03.12/outbox.cif.g09.slc.cpg/sg62_9_cif.got.tgz:17629.got - 2010.04.10 19:12:36.
