data_PCOD8254629
_publ_section_title
;
Structure prediction by ZEFSAII (Michael W. Deem and Ramdas Pophale) SiO2 
 PCOD8254629
Probable space group: P N M A
;
_chemical_formula_sum "Si O2"
_cell_formula_units_Z 48
_cell_length_a 16.495863
_cell_length_b 15.427258
_cell_length_c 8.825396
_cell_angle_alpha 90.000000
_cell_angle_beta 90.000000
_cell_angle_gamma 90.000000
_cell_volume 2245.939148
_symmetry_space_group_name_H-M "P N M A"
_symmetry_group_IT_number 62
_symmetry_cell_setting 'orthorhombic'
loop_
_space_group_symop_operation_xyz
x,y,z
1/2-x,-y,1/2+z
1/2+x,1/2-y,1/2-z
-x,1/2+y,-z
-x,-y,-z
1/2+x,y,1/2-z
1/2-x,1/2+y,1/2+z
x,1/2-y,z
loop_
_atom_site_type_symbol
_atom_site_label
_atom_site_fract_x
_atom_site_fract_y
_atom_site_fract_z
Si Si1 0.285877 0.750000 0.775975
Si Si2 0.462552 0.598701 0.180206
Si Si3 0.208922 0.750000 0.097946
Si Si4 0.967238 0.093414 0.361899
Si Si5 0.969653 0.750000 0.812722
Si Si6 0.220090 0.586035 0.600790
Si Si7 0.027982 0.750000 0.129216
Si Si8 0.779755 0.908242 0.235545
O O1 0.266552 0.750000 0.953157
O O2 0.382021 0.750000 0.761148
O O3 0.248571 0.665580 0.701093
O O4 0.487131 0.499190 0.216316
O O5 0.520459 0.664248 0.268829
O O6 0.371376 0.619204 0.228862
O O7 0.471821 0.613193 0.999991
O O8 0.115299 0.750000 0.048705
O O9 0.222143 0.665486 0.199452
O O10 0.876013 0.092407 0.426690
O O11 0.979465 0.165651 0.235254
O O12 0.961788 0.750000 0.994689
O O13 0.267696 0.585390 0.443670
O O14 0.243696 0.499268 0.689747
#
# Coordination Sequence:
#
# PCOD8254629 Si02
#       8
#     4   8   4   8   4   8   4   8
#     4  12  25  42  63  92 126 162 206 256 307 368
#     4  10  22  41  64  90 122 161 207 250 299 362
#     4  12  24  38  62  92 126 162 204 254 308 366
#     4  10  22  42  65  89 121 167 208 243 300 376
#     4  12  25  40  63  90 124 162 202 254 309 364
#     4  11  23  41  65  91 125 164 207 255 307 364
#     4  12  24  38  60  94 126 156 200 258 308 352
#     4  11  23  41  65  93 125 164 206 255 307 363
#
# _framework density 21.371907
#
# number of rings (size 3 to 8) (size 9 to 14) (size 15 to 20)
#    0.000    1.000    0.000    7.000    0.000    6.000 
#    0.000    0.000    0.000    0.000    0.000    0.000 
#    0.000    0.000    0.000    0.000    0.000    0.000 
#
# Total GULP energy -595529.281174 kJ/mol
# GULP energy per Si atom -12406.860024 kJ/mol
# Density = 2.132326 g / cm^3
# Si number density = 21.371907 Si / 1000 Ang^3
#
#
#
# Elastic Constant Matrix: (Units=GPa)
#
#
# Indices 1 2 3 4 5 6 
#
# 1 81.4204 31.4333 7.0213 0.0000 0.0000 0.0000
# 2 31.4333 164.4811 52.3120 0.0000 0.0000 0.0000
# 3 7.0213 52.3120 92.4318 0.0000 0.0000 0.0000
# 4 0.0000 0.0000 0.0000 1.5163 0.0000 0.0000
# 5 0.0000 0.0000 0.0000 0.0000 37.2875 0.0000
# 6 0.0000 0.0000 0.0000 0.0000 0.0000 33.9122
#
#
#
# Elastic Compliance Matrix: (Units=1/GPa)
#
#
# Indices 1 2 3 4 5 6 
#
# 1 0.013281 -0.002704 0.000521 0.000000 0.000000 0.000000
# 2 -0.002704 0.007965 -0.004302 0.000000 0.000000 0.000000
# 3 0.000521 -0.004302 0.013214 0.000000 0.000000 0.000000
# 4 0.000000 0.000000 0.000000 0.659517 0.000000 0.000000
# 5 0.000000 0.000000 0.000000 0.000000 0.026819 0.000000
# 6 0.000000 0.000000 0.000000 0.000000 0.000000 0.029488
#
#
# Mechanical properties :
#
#
# Convention : Reuss Voigt Hill
#
# Bulk Modulus (GPa) = 46.53286 57.76294 52.14790
# Shear Modulus (GPa) = 6.49000 31.04763 18.76882
#
# Velocity S-wave (km/s) = 1.74450 3.81561 2.96666
# Velocity P-wave (km/s) = 5.08703 6.81894 6.01564
#
# Compressibility (1/GPa) = 0.02149019
#
# Stress axis : x y z
#
# Youngs Moduli (GPa) = 75.29645 125.55303 75.67694
#
# Poissons Ratio (x) = 0.33948 -0.03946
# Poissons Ratio (y) = 0.20359 0.32558
# Poissons Ratio (z) = -0.03926 0.54016
#
# Static dielectric constant tensor:
#      x y z
#    x 3.835080 0.000000 0.000000 
#    y 0.000000 4.130430 0.000000 
#    z 0.000000 0.000000 3.728240 
# 
# 
# High freq. dielectric constant tensor:
#      x y z
#    x 1.842630 0.000000 0.000000 
#    y 0.000000 1.860390 0.000000 
#    z 0.000000 0.000000 1.840050 
# 
# From -- ./inp_files/7694.got.cif
#   From: 2010.03.12/outbox.cif.g09.slc.cpg/sg62_4_cif.got.tgz:7694.got - 2010.04.10 19:12:36.
