data_PCOD8254455
_publ_section_title
;
Structure prediction by ZEFSAII (Michael W. Deem and Ramdas Pophale) SiO2 
 PCOD8254455
Probable space group: P N M A
;
_chemical_formula_sum "Si O2"
_cell_formula_units_Z 64
_cell_length_a 30.139262
_cell_length_b 8.794596
_cell_length_c 14.274410
_cell_angle_alpha 90.000000
_cell_angle_beta 90.000000
_cell_angle_gamma 90.000000
_cell_volume 3783.612700
_symmetry_space_group_name_H-M "P N M A"
_symmetry_group_IT_number 62
_symmetry_cell_setting 'orthorhombic'
loop_
_space_group_symop_operation_xyz
x,y,z
1/2-x,-y,1/2+z
1/2+x,1/2-y,1/2-z
-x,1/2+y,-z
-x,-y,-z
1/2+x,y,1/2-z
1/2-x,1/2+y,1/2+z
x,1/2-y,z
loop_
_atom_site_type_symbol
_atom_site_label
_atom_site_fract_x
_atom_site_fract_y
_atom_site_fract_z
Si Si1 0.364488 0.570691 0.194927
Si Si2 0.044550 0.071016 0.608680
Si Si3 0.677191 0.926719 0.978561
Si Si4 0.217354 0.573158 0.235633
Si Si5 0.044511 0.072900 0.396525
Si Si6 0.233506 0.922937 0.024123
Si Si7 0.139757 0.426418 0.346043
Si Si8 0.196821 0.924618 0.829193
O O1 0.359374 0.750000 0.181392
O O2 0.414865 0.516566 0.175080
O O3 0.346557 0.519809 0.296566
O O4 0.331113 0.483602 0.126052
O O5 0.041630 0.250000 0.610804
O O6 0.052212 0.010267 0.502638
O O7 0.998482 0.005782 0.649638
O O8 0.666128 0.750000 0.991611
O O9 0.728365 0.957407 0.001739
O O10 0.647380 0.028431 0.046452
O O11 0.225433 0.750000 0.255802
O O12 0.169891 0.525850 0.277736
O O13 0.257396 0.482245 0.282970
O O14 0.213030 0.538186 0.125153
O O15 0.034756 0.250000 0.402598
O O16 0.087275 0.040480 0.330677
O O17 0.252426 0.750000 0.023705
O O18 0.197298 0.941778 0.941945
O O19 0.151200 0.250000 0.331114
O O20 0.191121 0.750000 0.799298
#
# Coordination Sequence:
#
# PCOD8254455 Si02
#       8
#     8   8   8   8   8   8   8   8
#     4  11  21  35  51  72 105 139 169 209 258 301
#     4   9  18  32  49  71 100 134 166 202 250 301
#     4  12  22  30  49  75 100 135 178 212 244 299
#     4  11  22  35  52  75 100 135 175 211 252 300
#     4   9  18  32  49  71 100 134 166 202 250 301
#     4  10  22  38  52  67 102 139 168 214 260 291
#     4  11  21  35  51  72 105 139 169 209 258 301
#     4  11  22  35  52  75 100 135 175 211 252 300
#
# _framework density 16.915050000000001
#
# number of rings (size 3 to 8) (size 9 to 14) (size 15 to 20)
#    0.000    1.500    3.750    2.625    0.000    3.000 
#    0.000    0.000    0.000    0.000    0.000    0.875 
#    0.000    0.000    0.000    0.000    0.000    0.000 
#
# Total GULP energy -793525.184651 kJ/mol
# GULP energy per Si atom -12398.831010 kJ/mol
# Density = 1.687655 g / cm^3
# Si number density = 16.915050 Si / 1000 Ang^3
#
#
#
# Elastic Constant Matrix: (Units=GPa)
#
#
# Indices 1 2 3 4 5 6 
#
# 1 88.4340 29.6131 19.0726 0.0000 0.0000 0.0000
# 2 29.6131 47.1978 15.7520 0.0000 0.0000 0.0000
# 3 19.0726 15.7520 62.5270 0.0000 0.0000 0.0000
# 4 0.0000 0.0000 0.0000 21.6381 0.0000 0.0000
# 5 0.0000 0.0000 0.0000 0.0000 22.9098 0.0000
# 6 0.0000 0.0000 0.0000 0.0000 0.0000 28.9635
#
#
#
# Elastic Compliance Matrix: (Units=1/GPa)
#
#
# Indices 1 2 3 4 5 6 
#
# 1 0.014624 -0.008392 -0.002347 0.000000 0.000000 0.000000
# 2 -0.008392 0.027949 -0.004481 0.000000 0.000000 0.000000
# 3 -0.002347 -0.004481 0.017838 0.000000 0.000000 0.000000
# 4 0.000000 0.000000 0.000000 0.046215 0.000000 0.000000
# 5 0.000000 0.000000 0.000000 0.000000 0.043649 0.000000
# 6 0.000000 0.000000 0.000000 0.000000 0.000000 0.034526
#
#
# Mechanical properties :
#
#
# Convention : Reuss Voigt Hill
#
# Bulk Modulus (GPa) = 33.36605 36.33714 34.85160
# Shear Modulus (GPa) = 22.19942 23.61702 22.90822
#
# Velocity S-wave (km/s) = 3.62665 3.74065 3.68409
# Velocity P-wave (km/s) = 6.10780 6.33919 6.22457
#
# Compressibility (1/GPa) = 0.02997058
#
# Stress axis : x y z
#
# Youngs Moduli (GPa) = 68.37951 35.77999 56.06093
#
# Poissons Ratio (x) = 0.30028 0.13155
# Poissons Ratio (y) = 0.57387 0.25121
# Poissons Ratio (z) = 0.16046 0.16033
#
# Static dielectric constant tensor:
#      x y z
#    x 3.191990 0.000000 0.000000 
#    y 0.000000 3.190210 0.000000 
#    z 0.000000 0.000000 3.062510 
# 
# 
# High freq. dielectric constant tensor:
#      x y z
#    x 1.641880 0.000000 0.000000 
#    y 0.000000 1.661400 0.000000 
#    z 0.000000 0.000000 1.622840 
# 
# From -- ./inp_files/21235.got.cif
#   From: 2010.03.12/outbox.cif.g09.slc.cpg/sg62_11_cif.got.tgz:21235.got - 2010.04.10 19:12:36.
