data_PCOD8254840
_publ_section_title
;
Structure prediction by ZEFSAII (Michael W. Deem and Ramdas Pophale) SiO2 
 PCOD8254840
Probable space group: P N M A
;
_chemical_formula_sum "Si O2"
_cell_formula_units_Z 24
_cell_length_a 7.245175
_cell_length_b 17.324166
_cell_length_c 6.974441
_cell_angle_alpha 90.000000
_cell_angle_beta 90.000000
_cell_angle_gamma 90.000000
_cell_volume 875.408222
_symmetry_space_group_name_H-M "P N M A"
_symmetry_group_IT_number 62
_symmetry_cell_setting 'orthorhombic'
loop_
_space_group_symop_operation_xyz
x,y,z
1/2-x,-y,1/2+z
1/2+x,1/2-y,1/2-z
-x,1/2+y,-z
-x,-y,-z
1/2+x,y,1/2-z
1/2-x,1/2+y,1/2+z
x,1/2-y,z
loop_
_atom_site_type_symbol
_atom_site_label
_atom_site_fract_x
_atom_site_fract_y
_atom_site_fract_z
Si Si1 0.843221 0.437734 0.543596
Si Si2 0.880637 0.081286 0.979126
Si Si3 0.567657 0.159615 0.213299
O O1 0.653009 0.490477 0.539250
O O2 0.870037 0.370348 0.381708
O O3 0.000000 0.500000 0.500000
O O4 0.876346 0.403339 0.753383
O O5 0.722017 0.136489 0.062772
O O6 0.070329 0.116206 0.076481
O O7 0.555505 0.250000 0.243973
#
# Coordination Sequence:
#
# PCOD8254840 Si02
#       3
#     8   8   8
#     4  10  23  42  70 102 135 186 239 294 350 426
#     4  11  23  44  71 102 138 187 242 291 359 434
#     4  11  25  43  68 106 147 184 234 303 364 427
#
# _framework density 27.415782
#
# number of rings (size 3 to 8) (size 9 to 14) (size 15 to 20)
#    0.000    1.333    3.333    1.000    0.000   13.333 
#    0.000    0.000    0.000    0.000    0.000    0.000 
#    0.000    0.000    0.000    0.000    0.000    0.000 
#
# Total GULP energy -297680.712562 kJ/mol
# GULP energy per Si atom -12403.363023 kJ/mol
# Density = 2.735338 g / cm^3
# Si number density = 27.415782 Si / 1000 Ang^3
#
#
#
# Elastic Constant Matrix: (Units=GPa)
#
#
# Indices 1 2 3 4 5 6 
#
# 1 78.4054 23.4823 -9.6471 0.0000 0.0000 0.0000
# 2 23.4823 249.1197 75.7387 0.0000 0.0000 0.0000
# 3 -9.6471 75.7387 218.6095 0.0000 0.0000 0.0000
# 4 0.0000 0.0000 0.0000 51.1779 0.0000 0.0000
# 5 0.0000 0.0000 0.0000 0.0000 38.2967 0.0000
# 6 0.0000 0.0000 0.0000 0.0000 0.0000 37.4670
#
#
#
# Elastic Compliance Matrix: (Units=1/GPa)
#
#
# Indices 1 2 3 4 5 6 
#
# 1 0.013378 -0.001610 0.001148 0.000000 0.000000 0.000000
# 2 -0.001610 0.004681 -0.001693 0.000000 0.000000 0.000000
# 3 0.001148 -0.001693 0.005211 0.000000 0.000000 0.000000
# 4 0.000000 0.000000 0.000000 0.019540 0.000000 0.000000
# 5 0.000000 0.000000 0.000000 0.000000 0.026112 0.000000
# 6 0.000000 0.000000 0.000000 0.000000 0.000000 0.026690
#
#
# Mechanical properties :
#
#
# Convention : Reuss Voigt Hill
#
# Bulk Modulus (GPa) = 52.74095 80.58692 66.66393
# Shear Modulus (GPa) = 47.06291 55.82568 51.44430
#
# Velocity S-wave (km/s) = 4.14773 4.51739 4.33650
# Velocity P-wave (km/s) = 6.49749 7.52777 7.03152
#
# Compressibility (1/GPa) = 0.01896060
#
# Stress axis : x y z
#
# Youngs Moduli (GPa) = 74.75117 213.65208 191.88472
#
# Poissons Ratio (x) = 0.34399 -0.22032
# Poissons Ratio (y) = 0.12035 0.32479
# Poissons Ratio (z) = -0.08583 0.36164
#
# Static dielectric constant tensor:
#      x y z
#    x 7.422060 0.000000 0.000000 
#    y 0.000000 5.137650 0.000000 
#    z 0.000000 0.000000 5.508390 
# 
# 
# High freq. dielectric constant tensor:
#      x y z
#    x 2.198600 0.000000 0.000000 
#    y 0.000000 2.084490 0.000000 
#    z 0.000000 0.000000 2.117910 
# 
# From -- ./inp_files/329.got.cif
#   From: 2010.03.12/outbox.cif.g09.slc.cpg/sg62_1_cif.got.tgz:329.got - 2010.04.10 19:12:36.
