data_PCOD8254747
_publ_section_title
;
Structure prediction by ZEFSAII (Michael W. Deem and Ramdas Pophale) SiO2 
 PCOD8254747
Probable space group: P N M A
;
_chemical_formula_sum "Si O2"
_cell_formula_units_Z 32
_cell_length_a 4.956692
_cell_length_b 14.347424
_cell_length_c 16.986570
_cell_angle_alpha 90.000000
_cell_angle_beta 90.000000
_cell_angle_gamma 90.000000
_cell_volume 1208.012865
_symmetry_space_group_name_H-M "P N M A"
_symmetry_group_IT_number 62
_symmetry_cell_setting 'orthorhombic'
loop_
_space_group_symop_operation_xyz
x,y,z
1/2-x,-y,1/2+z
1/2+x,1/2-y,1/2-z
-x,1/2+y,-z
-x,-y,-z
1/2+x,y,1/2-z
1/2-x,1/2+y,1/2+z
x,1/2-y,z
loop_
_atom_site_type_symbol
_atom_site_label
_atom_site_fract_x
_atom_site_fract_y
_atom_site_fract_z
Si Si1 0.238964 0.250000 0.989610
Si Si2 0.216755 0.141782 0.301406
Si Si3 0.849862 0.555573 0.302131
Si Si4 0.765644 0.750000 0.380585
Si Si5 0.578852 0.063982 0.428002
O O1 0.538279 0.250000 0.955123
O O2 0.034790 0.250000 0.916003
O O3 0.215006 0.340377 0.044184
O O4 0.410636 0.117240 0.225765
O O5 0.246768 0.250000 0.321511
O O6 0.308202 0.085785 0.378491
O O7 0.653564 0.533771 0.227713
O O8 0.811865 0.662607 0.324442
O O9 0.797918 0.492957 0.378361
O O10 0.500000 0.000000 0.500000
#
# Coordination Sequence:
#
# PCOD8254747 Si02
#       5
#     4   8   8   4   8
#     4  12  28  49  74 115 152 203 249 320 396 451
#     4  10  22  44  70 100 140 189 239 296 365 437
#     4  12  27  49  78 112 150 202 259 315 380 455
#     4  12  26  51  78 107 158 199 255 316 382 459
#     4  12  26  49  76 111 156 196 255 318 382 464
#
# _framework density 26.489785999999999
#
# number of rings (size 3 to 8) (size 9 to 14) (size 15 to 20)
#    0.000    0.500    3.750    3.750    0.000    5.000 
#    0.000    0.000    0.000    0.000    0.000    0.000 
#    0.000    0.000    0.000    0.000    0.000    0.000 
#
# Total GULP energy -397165.879951 kJ/mol
# GULP energy per Si atom -12411.433748 kJ/mol
# Density = 2.642949 g / cm^3
# Si number density = 26.489786 Si / 1000 Ang^3
#
#
#
# Elastic Constant Matrix: (Units=GPa)
#
#
# Indices 1 2 3 4 5 6 
#
# 1 119.2853 40.4127 44.3255 0.0000 0.0000 0.0000
# 2 40.4127 182.9463 81.3064 0.0000 0.0000 0.0000
# 3 44.3255 81.3064 159.3958 0.0000 0.0000 0.0000
# 4 0.0000 0.0000 0.0000 78.0270 0.0000 0.0000
# 5 0.0000 0.0000 0.0000 0.0000 41.0298 0.0000
# 6 0.0000 0.0000 0.0000 0.0000 0.0000 38.8633
#
#
#
# Elastic Compliance Matrix: (Units=1/GPa)
#
#
# Indices 1 2 3 4 5 6 
#
# 1 0.009549 -0.001202 -0.002043 0.000000 0.000000 0.000000
# 2 -0.001202 0.007220 -0.003349 0.000000 0.000000 0.000000
# 3 -0.002043 -0.003349 0.008550 0.000000 0.000000 0.000000
# 4 0.000000 0.000000 0.000000 0.012816 0.000000 0.000000
# 5 0.000000 0.000000 0.000000 0.000000 0.024373 0.000000
# 6 0.000000 0.000000 0.000000 0.000000 0.000000 0.025731
#
#
# Mechanical properties :
#
#
# Convention : Reuss Voigt Hill
#
# Bulk Modulus (GPa) = 82.41799 88.19075 85.30437
# Shear Modulus (GPa) = 47.40742 51.28953 49.34848
#
# Velocity S-wave (km/s) = 4.23501 4.40500 4.32084
# Velocity P-wave (km/s) = 7.42256 7.69654 7.56079
#
# Compressibility (1/GPa) = 0.01213327
#
# Stress axis : x y z
#
# Youngs Moduli (GPa) = 104.71881 138.50949 116.96225
#
# Poissons Ratio (x) = 0.16644 0.23890
# Poissons Ratio (y) = 0.12584 0.39165
# Poissons Ratio (z) = 0.21390 0.46381
#
# Static dielectric constant tensor:
#      x y z
#    x 4.842350 0.000000 0.000000 
#    y 0.000000 5.332940 0.000000 
#    z 0.000000 0.000000 4.868720 
# 
# 
# High freq. dielectric constant tensor:
#      x y z
#    x 2.067730 0.000000 0.000000 
#    y 0.000000 2.118580 0.000000 
#    z 0.000000 0.000000 2.070900 
# 
# From -- ./inp_files/21427.got.cif
#   From: 2010.03.12/outbox.cif.g09.slc.cpg/sg62_11_cif.got.tgz:21427.got - 2010.04.10 19:12:36.
