data_PCOD8254160
_publ_section_title
;
Structure prediction by ZEFSAII (Michael W. Deem and Ramdas Pophale) SiO2 
 PCOD8254160
Probable space group: P N M A
;
_chemical_formula_sum "Si O2"
_cell_formula_units_Z 48
_cell_length_a 18.947062
_cell_length_b 8.745227
_cell_length_c 14.952234
_cell_angle_alpha 90.000000
_cell_angle_beta 90.000000
_cell_angle_gamma 90.000000
_cell_volume 2477.530720
_symmetry_space_group_name_H-M "P N M A"
_symmetry_group_IT_number 62
_symmetry_cell_setting 'orthorhombic'
loop_
_space_group_symop_operation_xyz
x,y,z
1/2-x,-y,1/2+z
1/2+x,1/2-y,1/2-z
-x,1/2+y,-z
-x,-y,-z
1/2+x,y,1/2-z
1/2-x,1/2+y,1/2+z
x,1/2-y,z
loop_
_atom_site_type_symbol
_atom_site_label
_atom_site_fract_x
_atom_site_fract_y
_atom_site_fract_z
Si Si1 0.324243 0.427892 0.151385
Si Si2 0.423623 0.929950 0.008263
Si Si3 0.174256 0.929761 0.154523
Si Si4 0.423131 0.929401 0.505691
Si Si5 0.332211 0.075293 0.357551
Si Si6 0.672625 0.427026 0.157843
O O1 0.313462 0.250000 0.131423
O O2 0.386816 0.494972 0.093028
O O3 0.251382 0.510746 0.127313
O O4 0.346589 0.456394 0.253509
O O5 0.427696 0.750000 0.023034
O O6 0.381977 0.972301 0.918483
O O7 0.500000 0.000000 0.000000
O O8 0.173038 0.750000 0.141139
O O9 0.116102 0.002533 0.091040
O O10 0.154934 0.971527 0.256113
O O11 0.429946 0.750000 0.518163
O O12 0.500000 0.000000 0.500000
O O13 0.380907 0.964160 0.414835
O O14 0.350149 0.250000 0.383028
O O15 0.250684 0.038395 0.379467
O O16 0.667501 0.250000 0.186894
#
# Coordination Sequence:
#
# PCOD8254160 Si02
#       6
#     8   8   8   8   8   8
#     4  10  21  39  63  88 116 151 191 237 287 340
#     4  11  23  38  58  85 120 158 195 238 288 343
#     4  11  22  38  62  89 116 148 190 239 287 341
#     4  12  25  40  59  84 117 155 194 237 288 345
#     4   9  19  38  62  87 115 148 190 239 289 340
#     4   9  20  39  61  85 115 152 191 236 288 337
#
# _framework density 19.374129
#
# number of rings (size 3 to 8) (size 9 to 14) (size 15 to 20)
#    0.000    1.667    0.000    6.000    0.000    7.333 
#    0.000    1.667    0.000    0.000    0.000    0.000 
#    0.000    0.000    0.000    0.000    0.000    0.000 
#
# Total GULP energy -595461.631267 kJ/mol
# GULP energy per Si atom -12405.450651 kJ/mol
# Density = 1.933003 g / cm^3
# Si number density = 19.374129 Si / 1000 Ang^3
#
#
#
# Elastic Constant Matrix: (Units=GPa)
#
#
# Indices 1 2 3 4 5 6 
#
# 1 156.3164 73.2888 86.9828 0.0000 0.0000 0.0000
# 2 73.2888 144.7094 67.2542 0.0000 0.0000 0.0000
# 3 86.9828 67.2542 105.8863 0.0000 0.0000 0.0000
# 4 0.0000 0.0000 0.0000 37.5526 0.0000 0.0000
# 5 0.0000 0.0000 0.0000 0.0000 61.5280 0.0000
# 6 0.0000 0.0000 0.0000 0.0000 0.0000 37.4607
#
#
#
# Elastic Compliance Matrix: (Units=1/GPa)
#
#
# Indices 1 2 3 4 5 6 
#
# 1 0.012244 -0.002166 -0.008683 0.000000 0.000000 0.000000
# 2 -0.002166 0.010188 -0.004692 0.000000 0.000000 0.000000
# 3 -0.008683 -0.004692 0.019557 0.000000 0.000000 0.000000
# 4 0.000000 0.000000 0.000000 0.026629 0.000000 0.000000
# 5 0.000000 0.000000 0.000000 0.000000 0.016253 0.000000
# 6 0.000000 0.000000 0.000000 0.000000 0.000000 0.026695
#
#
# Mechanical properties :
#
#
# Convention : Reuss Voigt Hill
#
# Bulk Modulus (GPa) = 91.67328 95.77375 93.72351
# Shear Modulus (GPa) = 34.18064 39.26734 36.72399
#
# Velocity S-wave (km/s) = 4.20484 4.50688 4.35848
# Velocity P-wave (km/s) = 8.42582 8.75350 8.59122
#
# Compressibility (1/GPa) = 0.01090830
#
# Stress axis : x y z
#
# Youngs Moduli (GPa) = 81.67106 98.15716 51.13374
#
# Poissons Ratio (x) = 0.21259 0.44398
# Poissons Ratio (y) = 0.17689 0.23990
# Poissons Ratio (z) = 0.70912 0.46051
#
# Static dielectric constant tensor:
#      x y z
#    x 3.544300 0.000000 0.000000 
#    y 0.000000 3.608020 0.000000 
#    z 0.000000 0.000000 3.604950 
# 
# 
# High freq. dielectric constant tensor:
#      x y z
#    x 1.756490 0.000000 0.000000 
#    y 0.000000 1.763320 0.000000 
#    z 0.000000 0.000000 1.765710 
# 
# From -- ./inp_files/19553.got.cif
#   From: 2010.03.12/outbox.cif.g09.slc.cpg/sg62_10_cif.got.tgz:19553.got - 2010.04.10 19:12:36.
