data_PCOD8254033
_publ_section_title
;
Structure prediction by ZEFSAII (Michael W. Deem and Ramdas Pophale) SiO2 
 PCOD8254033
Probable space group: P N M A
;
_chemical_formula_sum "Si O2"
_cell_formula_units_Z 40
_cell_length_a 12.259884
_cell_length_b 9.081654
_cell_length_c 18.377797
_cell_angle_alpha 90.000000
_cell_angle_beta 90.000000
_cell_angle_gamma 90.000000
_cell_volume 2046.184369
_symmetry_space_group_name_H-M "P N M A"
_symmetry_group_IT_number 62
_symmetry_cell_setting 'orthorhombic'
loop_
_space_group_symop_operation_xyz
x,y,z
1/2-x,-y,1/2+z
1/2+x,1/2-y,1/2-z
-x,1/2+y,-z
-x,-y,-z
1/2+x,y,1/2-z
1/2-x,1/2+y,1/2+z
x,1/2-y,z
loop_
_atom_site_type_symbol
_atom_site_label
_atom_site_fract_x
_atom_site_fract_y
_atom_site_fract_z
Si Si1 0.555578 0.421627 0.654400
Si Si2 0.042321 0.079451 0.429016
Si Si3 0.193421 0.920020 0.119096
Si Si4 0.787620 0.079952 0.048355
Si Si5 0.383582 0.075775 0.197337
O O1 0.577195 0.250000 0.666510
O O2 0.430603 0.455837 0.637777
O O3 0.624552 0.475699 0.585634
O O4 0.592161 0.508928 0.724840
O O5 0.019310 0.250000 0.442182
O O6 0.169929 0.049029 0.415753
O O7 0.977325 0.022219 0.358447
O O8 0.000000 0.000000 0.500000
O O9 0.222308 0.750000 0.133478
O O10 0.266388 0.020639 0.170814
O O11 0.217957 0.962861 0.036120
O O12 0.822591 0.250000 0.057989
O O13 0.380158 0.250000 0.205064
#
# Coordination Sequence:
#
# PCOD8254033 Si02
#       5
#     8   8   8   8   8
#     4  11  25  41  61  91 124 162 207 252 307 364
#     4  10  21  38  62  91 122 158 201 250 302 359
#     4  10  22  42  65  90 123 162 203 253 305 361
#     4  10  21  40  65  92 124 159 201 251 307 366
#     4  11  24  40  61  91 124 162 205 251 309 364
#
# _framework density 19.548583000000001
#
# number of rings (size 3 to 8) (size 9 to 14) (size 15 to 20)
#    0.000    1.600    2.000    1.800    2.800    4.000 
#    0.000    0.000    0.000    0.000    0.000    0.000 
#    0.000    0.000    0.000    0.000    0.000    0.000 
#
# Total GULP energy -496241.617140 kJ/mol
# GULP energy per Si atom -12406.040428 kJ/mol
# Density = 1.950409 g / cm^3
# Si number density = 19.548583 Si / 1000 Ang^3
#
#
#
# Elastic Constant Matrix: (Units=GPa)
#
#
# Indices 1 2 3 4 5 6 
#
# 1 101.9675 44.5544 27.6787 0.0000 0.0000 0.0000
# 2 44.5544 64.5967 21.2705 0.0000 0.0000 0.0000
# 3 27.6787 21.2705 52.3696 0.0000 0.0000 0.0000
# 4 0.0000 0.0000 0.0000 37.1815 0.0000 0.0000
# 5 0.0000 0.0000 0.0000 0.0000 8.8318 0.0000
# 6 0.0000 0.0000 0.0000 0.0000 0.0000 29.8300
#
#
#
# Elastic Compliance Matrix: (Units=1/GPa)
#
#
# Indices 1 2 3 4 5 6 
#
# 1 0.014813 -0.008819 -0.004247 0.000000 0.000000 0.000000
# 2 -0.008819 0.023121 -0.004730 0.000000 0.000000 0.000000
# 3 -0.004247 -0.004730 0.023261 0.000000 0.000000 0.000000
# 4 0.000000 0.000000 0.000000 0.026895 0.000000 0.000000
# 5 0.000000 0.000000 0.000000 0.000000 0.113227 0.000000
# 6 0.000000 0.000000 0.000000 0.000000 0.000000 0.033523
#
#
# Mechanical properties :
#
#
# Convention : Reuss Voigt Hill
#
# Bulk Modulus (GPa) = 39.05771 45.10456 42.08114
# Shear Modulus (GPa) = 17.92328 23.53066 20.72697
#
# Velocity S-wave (km/s) = 3.03125 3.47320 3.25973
# Velocity P-wave (km/s) = 5.68107 6.26158 5.97837
#
# Compressibility (1/GPa) = 0.02560314
#
# Stress axis : x y z
#
# Youngs Moduli (GPa) = 67.50709 43.25147 42.99042
#
# Poissons Ratio (x) = 0.38142 0.18260
# Poissons Ratio (y) = 0.59532 0.20334
# Poissons Ratio (z) = 0.28673 0.20457
#
# Static dielectric constant tensor:
#      x y z
#    x 4.607960 0.000000 0.000000 
#    y 0.000000 3.537020 0.000000 
#    z 0.000000 0.000000 3.623660 
# 
# 
# High freq. dielectric constant tensor:
#      x y z
#    x 1.775790 0.000000 0.000000 
#    y 0.000000 1.761660 0.000000 
#    z 0.000000 0.000000 1.769710 
# 
# From -- ./inp_files/22767.got.cif
#   From: 2010.03.12/outbox.cif.g09.slc.cpg/sg62_12_cif.got.tgz:22767.got - 2010.04.10 19:12:36.
