data_PCOD8254164
_publ_section_title
;
Structure prediction by ZEFSAII (Michael W. Deem and Ramdas Pophale) SiO2 
 PCOD8254164
Probable space group: P N M A
;
_chemical_formula_sum "Si O2"
_cell_formula_units_Z 48
_cell_length_a 20.116876
_cell_length_b 8.531838
_cell_length_c 14.357110
_cell_angle_alpha 90.000000
_cell_angle_beta 90.000000
_cell_angle_gamma 90.000000
_cell_volume 2464.167171
_symmetry_space_group_name_H-M "P N M A"
_symmetry_group_IT_number 62
_symmetry_cell_setting 'orthorhombic'
loop_
_space_group_symop_operation_xyz
x,y,z
1/2-x,-y,1/2+z
1/2+x,1/2-y,1/2-z
-x,1/2+y,-z
-x,-y,-z
1/2+x,y,1/2-z
1/2-x,1/2+y,1/2+z
x,1/2-y,z
loop_
_atom_site_type_symbol
_atom_site_label
_atom_site_fract_x
_atom_site_fract_y
_atom_site_fract_z
Si Si1 0.123337 0.430947 0.017290
Si Si2 0.234227 0.069038 0.511298
Si Si3 0.424652 0.067704 0.330640
Si Si4 0.195684 0.933932 0.700637
Si Si5 0.062247 0.930467 0.199555
Si Si6 0.674469 0.068660 0.183665
O O1 0.112809 0.250000 0.042860
O O2 0.200714 0.463226 0.000638
O O3 0.081238 0.471198 0.925937
O O4 0.098012 0.534180 0.102440
O O5 0.256523 0.250000 0.510394
O O6 0.186014 0.033350 0.424842
O O7 0.194053 0.028174 0.604293
O O8 0.415599 0.250000 0.353861
O O9 0.368570 0.012276 0.258400
O O10 0.496395 0.034316 0.286734
O O11 0.194285 0.750000 0.679232
O O12 0.260785 0.982140 0.758218
O O13 0.041752 0.750000 0.203088
O O14 0.111820 0.967378 0.284216
O O15 0.658697 0.250000 0.202248
#
# Coordination Sequence:
#
# PCOD8254164 Si02
#       6
#     8   8   8   8   8   8
#     4  12  23  37  60  90 125 160 197 245 301 360
#     4  11  22  38  62  92 123 155 201 250 297 350
#     4  11  23  42  63  87 123 162 199 247 304 358
#     4  10  21  39  63  89 121 157 199 245 298 356
#     4  12  25  40  60  90 123 159 203 247 297 359
#     4  10  21  40  62  88 121 159 198 245 298 352
#
# _framework density 19.479199000000001
#
# number of rings (size 3 to 8) (size 9 to 14) (size 15 to 20)
#    0.000    1.000    3.333    4.500    0.000    2.667 
#    0.000    0.833    0.000    0.000    0.000    0.000 
#    0.000    0.000    0.000    0.000    0.000    0.000 
#
# Total GULP energy -595578.930422 kJ/mol
# GULP energy per Si atom -12407.894384 kJ/mol
# Density = 1.943486 g / cm^3
# Si number density = 19.479199 Si / 1000 Ang^3
#
#
#
# Elastic Constant Matrix: (Units=GPa)
#
#
# Indices 1 2 3 4 5 6 
#
# 1 77.4674 10.4047 14.9201 0.0000 0.0000 0.0000
# 2 10.4047 56.6428 22.9587 0.0000 0.0000 0.0000
# 3 14.9201 22.9587 103.2571 0.0000 0.0000 0.0000
# 4 0.0000 0.0000 0.0000 30.9908 0.0000 0.0000
# 5 0.0000 0.0000 0.0000 0.0000 25.3856 0.0000
# 6 0.0000 0.0000 0.0000 0.0000 0.0000 30.1587
#
#
#
# Elastic Compliance Matrix: (Units=1/GPa)
#
#
# Indices 1 2 3 4 5 6 
#
# 1 0.013452 -0.001850 -0.001532 0.000000 0.000000 0.000000
# 2 -0.001850 0.019658 -0.004103 0.000000 0.000000 0.000000
# 3 -0.001532 -0.004103 0.010818 0.000000 0.000000 0.000000
# 4 0.000000 0.000000 0.000000 0.032268 0.000000 0.000000
# 5 0.000000 0.000000 0.000000 0.000000 0.039392 0.000000
# 6 0.000000 0.000000 0.000000 0.000000 0.000000 0.033158
#
#
# Mechanical properties :
#
#
# Convention : Reuss Voigt Hill
#
# Bulk Modulus (GPa) = 34.53450 37.10381 35.81916
# Shear Modulus (GPa) = 28.84005 29.91259 29.37632
#
# Velocity S-wave (km/s) = 3.85197 3.92295 3.88762
# Velocity P-wave (km/s) = 6.12789 6.29354 6.21126
#
# Compressibility (1/GPa) = 0.02895655
#
# Stress axis : x y z
#
# Youngs Moduli (GPa) = 74.33691 50.87114 92.43536
#
# Poissons Ratio (x) = 0.09411 0.14165
# Poissons Ratio (y) = 0.13752 0.37930
# Poissons Ratio (z) = 0.11392 0.20875
#
# Static dielectric constant tensor:
#      x y z
#    x 3.525150 0.000000 0.000000 
#    y 0.000000 3.486610 0.000000 
#    z 0.000000 0.000000 3.587300 
# 
# 
# High freq. dielectric constant tensor:
#      x y z
#    x 1.756160 0.000000 0.000000 
#    y 0.000000 1.761240 0.000000 
#    z 0.000000 0.000000 1.759340 
# 
# From -- ./inp_files/19519.got.cif
#   From: 2010.03.12/outbox.cif.g09.slc.cpg/sg62_10_cif.got.tgz:19519.got - 2010.04.10 19:12:36.
