data_PCOD8254790
_publ_section_title
;
Structure prediction by ZEFSAII (Michael W. Deem and Ramdas Pophale) SiO2 
 PCOD8254790
Probable space group: P N M A
;
_chemical_formula_sum "Si O2"
_cell_formula_units_Z 56
_cell_length_a 21.803428
_cell_length_b 8.576919
_cell_length_c 14.633638
_cell_angle_alpha 90.000000
_cell_angle_beta 90.000000
_cell_angle_gamma 90.000000
_cell_volume 2736.581560
_symmetry_space_group_name_H-M "P N M A"
_symmetry_group_IT_number 62
_symmetry_cell_setting 'orthorhombic'
loop_
_space_group_symop_operation_xyz
x,y,z
1/2-x,-y,1/2+z
1/2+x,1/2-y,1/2-z
-x,1/2+y,-z
-x,-y,-z
1/2+x,y,1/2-z
1/2-x,1/2+y,1/2+z
x,1/2-y,z
loop_
_atom_site_type_symbol
_atom_site_label
_atom_site_fract_x
_atom_site_fract_y
_atom_site_fract_z
Si Si1 0.381271 0.566763 0.578391
Si Si2 0.673854 0.930995 0.032695
Si Si3 0.480653 0.934879 0.722847
Si Si4 0.544391 0.432594 0.075789
Si Si5 0.748869 0.930515 0.381562
Si Si6 0.221902 0.069102 0.824762
Si Si7 0.902598 0.067492 0.111500
O O1 0.368504 0.750000 0.585862
O O2 0.425192 0.505003 0.659002
O O3 0.317605 0.476159 0.582137
O O4 0.412466 0.528041 0.481682
O O5 0.656787 0.750000 0.039279
O O6 0.725050 0.980453 0.105693
O O7 0.614079 0.031104 0.051950
O O8 0.698896 0.969929 0.932126
O O9 0.478232 0.750000 0.725634
O O10 0.472508 0.004443 0.824711
O O11 0.545377 0.991371 0.681854
O O12 0.534246 0.250000 0.078072
O O13 0.500000 0.500000 0.000000
O O14 0.760493 0.750000 0.402532
O O15 0.752831 0.968901 0.275068
O O16 0.204266 0.250000 0.837342
O O17 0.162784 0.964921 0.843084
O O18 0.909544 0.250000 0.090437
#
# Coordination Sequence:
#
# PCOD8254790 Si02
#       7
#     8   8   8   8   8   8   8
#     4  11  21  39  63  91 126 164 204 253 314 371
#     4  11  23  42  65  91 125 165 204 253 313 369
#     4   9  22  41  62  89 123 164 207 254 311 372
#     4  11  24  44  66  92 125 163 212 262 310 371
#     4  11  23  39  62  93 125 160 206 256 307 369
#     4  10  23  41  61  90 127 162 205 258 312 369
#     4  11  22  38  62  92 124 162 208 254 307 372
#
# _framework density 20.463484999999999
#
# number of rings (size 3 to 8) (size 9 to 14) (size 15 to 20)
#    0.000    1.429    1.429    3.429    2.000    1.714 
#    0.000    6.429    0.000    0.000    0.000    0.000 
#    0.000    0.000    0.000    0.000    0.000    0.000 
#
# Total GULP energy -694731.910259 kJ/mol
# GULP energy per Si atom -12405.926969 kJ/mol
# Density = 2.041691 g / cm^3
# Si number density = 20.463485 Si / 1000 Ang^3
#
#
#
# Elastic Constant Matrix: (Units=GPa)
#
#
# Indices 1 2 3 4 5 6 
#
# 1 121.1602 19.3626 58.3807 0.0000 0.0000 0.0000
# 2 19.3626 37.6406 26.9229 0.0000 0.0000 0.0000
# 3 58.3807 26.9229 125.2590 0.0000 0.0000 0.0000
# 4 0.0000 0.0000 0.0000 30.1874 0.0000 0.0000
# 5 0.0000 0.0000 0.0000 0.0000 35.5951 0.0000
# 6 0.0000 0.0000 0.0000 0.0000 0.0000 33.7755
#
#
#
# Elastic Compliance Matrix: (Units=1/GPa)
#
#
# Indices 1 2 3 4 5 6 
#
# 1 0.010812 -0.002313 -0.004542 0.000000 0.000000 0.000000
# 2 -0.002313 0.031888 -0.005776 0.000000 0.000000 0.000000
# 3 -0.004542 -0.005776 0.011342 0.000000 0.000000 0.000000
# 4 0.000000 0.000000 0.000000 0.033126 0.000000 0.000000
# 5 0.000000 0.000000 0.000000 0.000000 0.028094 0.000000
# 6 0.000000 0.000000 0.000000 0.000000 0.000000 0.029607
#
#
# Mechanical properties :
#
#
# Convention : Reuss Voigt Hill
#
# Bulk Modulus (GPa) = 34.74631 54.82134 44.78382
# Shear Modulus (GPa) = 27.82039 31.87116 29.84578
#
# Velocity S-wave (km/s) = 3.69116 3.95075 3.82316
# Velocity P-wave (km/s) = 5.93150 6.90357 6.43591
#
# Compressibility (1/GPa) = 0.02878003
#
# Stress axis : x y z
#
# Youngs Moduli (GPa) = 92.49231 31.35956 88.16895
#
# Poissons Ratio (x) = 0.07253 0.40046
# Poissons Ratio (y) = 0.21393 0.50926
# Poissons Ratio (z) = 0.42010 0.18113
#
# Static dielectric constant tensor:
#      x y z
#    x 3.835010 0.000000 0.000000 
#    y 0.000000 3.555260 0.000000 
#    z 0.000000 0.000000 4.214300 
# 
# 
# High freq. dielectric constant tensor:
#      x y z
#    x 1.808750 0.000000 0.000000 
#    y 0.000000 1.790130 0.000000 
#    z 0.000000 0.000000 1.817120 
# 
# From -- ./inp_files/20262.got.cif
#   From: 2010.03.12/outbox.cif.g09.slc.cpg/sg62_11_cif.got.tgz:20262.got - 2010.04.10 19:12:36.
