data_PCOD8254929
_publ_section_title
;
Structure prediction by ZEFSAII (Michael W. Deem and Ramdas Pophale) SiO2 
 PCOD8254929
Probable space group: P N M A
;
_chemical_formula_sum "Si O2"
_cell_formula_units_Z 32
_cell_length_a 16.055040
_cell_length_b 16.281218
_cell_length_c 4.783601
_cell_angle_alpha 90.000000
_cell_angle_beta 90.000000
_cell_angle_gamma 90.000000
_cell_volume 1250.412283
_symmetry_space_group_name_H-M "P N M A"
_symmetry_group_IT_number 62
_symmetry_cell_setting 'orthorhombic'
loop_
_space_group_symop_operation_xyz
x,y,z
1/2-x,-y,1/2+z
1/2+x,1/2-y,1/2-z
-x,1/2+y,-z
-x,-y,-z
1/2+x,y,1/2-z
1/2-x,1/2+y,1/2+z
x,1/2-y,z
loop_
_atom_site_type_symbol
_atom_site_label
_atom_site_fract_x
_atom_site_fract_y
_atom_site_fract_z
Si Si1 0.910034 0.502209 0.639575
Si Si2 0.179271 0.158887 0.444945
Si Si3 0.079541 0.250000 0.840504
Si Si4 0.963880 0.250000 0.336617
Si Si5 0.141654 0.904216 0.845657
O O1 0.879711 0.594288 0.719246
O O2 0.913326 0.447512 0.916772
O O3 0.000000 0.500000 0.500000
O O4 0.843674 0.466309 0.413332
O O5 0.182517 0.250000 0.292692
O O6 0.271808 0.124509 0.478363
O O7 0.136946 0.170832 0.753837
O O8 0.050345 0.250000 0.160444
O O9 0.993675 0.250000 0.657428
O O10 0.909922 0.329298 0.277611
#
# Coordination Sequence:
#
# PCOD8254929 Si02
#       5
#     8   8   4   4   8
#     4  12  26  46  72 105 137 186 229 292 337 413
#     4  10  24  49  66 106 138 186 226 289 348 414
#     4  10  25  40  71  92 142 172 236 266 353 396
#     4  12  21  44  63 104 126 192 216 298 329 428
#     4  12  25  44  72  98 143 175 240 275 355 402
#
# _framework density 25.591559
#
# number of rings (size 3 to 8) (size 9 to 14) (size 15 to 20)
#    0.750    0.000    1.250    6.750    0.000    4.000 
#    0.000    0.000    0.000    0.000    0.000    0.000 
#    0.000    0.000    0.000    0.000    0.000    0.000 
#
# Total GULP energy -396696.395780 kJ/mol
# GULP energy per Si atom -12396.762368 kJ/mol
# Density = 2.553331 g / cm^3
# Si number density = 25.591559 Si / 1000 Ang^3
#
#
#
# Elastic Constant Matrix: (Units=GPa)
#
#
# Indices 1 2 3 4 5 6 
#
# 1 109.4658 37.0831 -11.2728 0.0000 0.0000 0.0000
# 2 37.0831 154.6716 26.2821 0.0000 0.0000 0.0000
# 3 -11.2728 26.2821 73.7529 0.0000 0.0000 0.0000
# 4 0.0000 0.0000 0.0000 23.1892 0.0000 0.0000
# 5 0.0000 0.0000 0.0000 0.0000 26.7617 0.0000
# 6 0.0000 0.0000 0.0000 0.0000 0.0000 38.7896
#
#
#
# Elastic Compliance Matrix: (Units=1/GPa)
#
#
# Indices 1 2 3 4 5 6 
#
# 1 0.010404 -0.002943 0.002639 0.000000 0.000000 0.000000
# 2 -0.002943 0.007714 -0.003199 0.000000 0.000000 0.000000
# 3 0.002639 -0.003199 0.015102 0.000000 0.000000 0.000000
# 4 0.000000 0.000000 0.000000 0.043124 0.000000 0.000000
# 5 0.000000 0.000000 0.000000 0.000000 0.037367 0.000000
# 6 0.000000 0.000000 0.000000 0.000000 0.000000 0.025780
#
#
# Mechanical properties :
#
#
# Convention : Reuss Voigt Hill
#
# Bulk Modulus (GPa) = 38.14630 49.11945 43.63287
# Shear Modulus (GPa) = 32.20928 36.80128 34.50528
#
# Velocity S-wave (km/s) = 3.55151 3.79624 3.67591
# Velocity P-wave (km/s) = 5.63523 6.20085 5.92479
#
# Compressibility (1/GPa) = 0.02621486
#
# Stress axis : x y z
#
# Youngs Moduli (GPa) = 96.11745 129.62759 66.21621
#
# Poissons Ratio (x) = 0.38147 -0.17474
# Poissons Ratio (y) = 0.28285 0.21182
# Poissons Ratio (z) = -0.25364 0.41466
#
# Static dielectric constant tensor:
#      x y z
#    x 4.536680 0.000000 0.000000 
#    y 0.000000 5.099520 0.000000 
#    z 0.000000 0.000000 4.376370 
# 
# 
# High freq. dielectric constant tensor:
#      x y z
#    x 2.033630 0.000000 0.000000 
#    y 0.000000 2.042090 0.000000 
#    z 0.000000 0.000000 2.008370 
# 
# From -- ./inp_files/1507.got.cif
#   From: 2010.03.12/outbox.cif.g09.slc.cpg/sg62_1_cif.got.tgz:1507.got - 2010.04.10 19:12:36.
