data_PCOD8254659
_publ_section_title
;
Structure prediction by ZEFSAII (Michael W. Deem and Ramdas Pophale) SiO2 
 PCOD8254659
Probable space group: P N M A
;
_chemical_formula_sum "Si O2"
_cell_formula_units_Z 56
_cell_length_a 19.580741
_cell_length_b 8.876371
_cell_length_c 15.119232
_cell_angle_alpha 90.000000
_cell_angle_beta 90.000000
_cell_angle_gamma 90.000000
_cell_volume 2627.812051
_symmetry_space_group_name_H-M "P N M A"
_symmetry_group_IT_number 62
_symmetry_cell_setting 'orthorhombic'
loop_
_space_group_symop_operation_xyz
x,y,z
1/2-x,-y,1/2+z
1/2+x,1/2-y,1/2-z
-x,1/2+y,-z
-x,-y,-z
1/2+x,y,1/2-z
1/2-x,1/2+y,1/2+z
x,1/2-y,z
loop_
_atom_site_type_symbol
_atom_site_label
_atom_site_fract_x
_atom_site_fract_y
_atom_site_fract_z
Si Si1 0.784013 0.427760 0.506095
Si Si2 0.360584 0.425761 0.501499
Si Si3 0.135290 0.416184 0.651893
Si Si4 0.080919 0.574904 0.811872
Si Si5 0.360870 0.576902 0.839218
Si Si6 0.073147 0.424853 0.163030
Si Si7 0.486034 0.083581 0.911434
O O1 0.788467 0.250000 0.501985
O O2 0.707916 0.479336 0.487199
O O3 0.832765 0.492430 0.429485
O O4 0.806372 0.480916 0.604797
O O5 0.342847 0.250000 0.507007
O O6 0.397147 0.468561 0.410552
O O7 0.411839 0.470857 0.579441
O O8 0.169854 0.250000 0.656926
O O9 0.137422 0.498729 0.746799
O O10 0.055210 0.396917 0.640516
O O11 0.088402 0.750000 0.792657
O O12 0.001473 0.525418 0.799234
O O13 0.347945 0.750000 0.864659
O O14 0.363334 0.552875 0.732759
O O15 0.436977 0.528836 0.861259
O O16 0.069261 0.250000 0.134138
O O17 0.452624 0.250000 0.926161
O O18 0.500000 0.000000 0.000000
#
# Coordination Sequence:
#
# PCOD8254659 Si02
#       7
#     8   8   8   8   8   8   8
#     4  12  26  43  64  89 127 171 211 254 311 380
#     4  11  25  44  66  90 124 166 214 264 310 368
#     4  11  23  38  62  95 129 163 206 258 311 371
#     4  10  22  42  67  96 127 165 208 257 317 371
#     4  11  22  38  63  93 128 163 204 256 310 375
#     4  10  22  41  67  96 127 163 207 257 314 371
#     4  11  21  33  56  90 127 165 203 252 313 371
#
# _framework density 21.310504000000002
#
# number of rings (size 3 to 8) (size 9 to 14) (size 15 to 20)
#    0.000    1.143    2.857    3.429    0.000    5.143 
#    0.000    1.429    0.000    0.000    0.000    0.000 
#    0.000    0.000    0.000    0.000    0.000    0.000 
#
# Total GULP energy -694100.476377 kJ/mol
# GULP energy per Si atom -12394.651364 kJ/mol
# Density = 2.126200 g / cm^3
# Si number density = 21.310504 Si / 1000 Ang^3
#
#
#
# Elastic Constant Matrix: (Units=GPa)
#
#
# Indices 1 2 3 4 5 6 
#
# 1 54.5255 12.7408 10.7343 0.0000 0.0000 0.0000
# 2 12.7408 99.2860 50.0282 0.0000 0.0000 0.0000
# 3 10.7343 50.0282 111.9781 0.0000 0.0000 0.0000
# 4 0.0000 0.0000 0.0000 30.8498 0.0000 0.0000
# 5 0.0000 0.0000 0.0000 0.0000 19.6938 0.0000
# 6 0.0000 0.0000 0.0000 0.0000 0.0000 31.2709
#
#
#
# Elastic Compliance Matrix: (Units=1/GPa)
#
#
# Indices 1 2 3 4 5 6 
#
# 1 0.018984 -0.001960 -0.000944 0.000000 0.000000 0.000000
# 2 -0.001960 0.013200 -0.005710 0.000000 0.000000 0.000000
# 3 -0.000944 -0.005710 0.011572 0.000000 0.000000 0.000000
# 4 0.000000 0.000000 0.000000 0.032415 0.000000 0.000000
# 5 0.000000 0.000000 0.000000 0.000000 0.050777 0.000000
# 6 0.000000 0.000000 0.000000 0.000000 0.000000 0.031979
#
#
# Mechanical properties :
#
#
# Convention : Reuss Voigt Hill
#
# Bulk Modulus (GPa) = 37.69595 45.86626 41.78110
# Shear Modulus (GPa) = 27.02732 29.18198 28.10465
#
# Velocity S-wave (km/s) = 3.56513 3.70452 3.63549
# Velocity P-wave (km/s) = 5.88848 6.31407 6.10498
#
# Compressibility (1/GPa) = 0.02652805
#
# Stress axis : x y z
#
# Youngs Moduli (GPa) = 52.67601 75.75501 86.41789
#
# Poissons Ratio (x) = 0.14852 0.08157
# Poissons Ratio (y) = 0.10327 0.49341
# Poissons Ratio (z) = 0.04972 0.43253
#
# Static dielectric constant tensor:
#      x y z
#    x 3.742260 0.000000 0.000000 
#    y 0.000000 3.814650 0.000000 
#    z 0.000000 0.000000 3.935440 
# 
# 
# High freq. dielectric constant tensor:
#      x y z
#    x 1.823560 0.000000 0.000000 
#    y 0.000000 1.842190 0.000000 
#    z 0.000000 0.000000 1.846850 
# 
# From -- ./inp_files/20216.got.cif
#   From: 2010.03.12/outbox.cif.g09.slc.cpg/sg62_11_cif.got.tgz:20216.got - 2010.04.10 19:12:36.
