data_PCOD8254603
_publ_section_title
;
Structure prediction by ZEFSAII (Michael W. Deem and Ramdas Pophale) SiO2 
 PCOD8254603
Probable space group: P N M A
;
_chemical_formula_sum "Si O2"
_cell_formula_units_Z 40
_cell_length_a 8.983569
_cell_length_b 11.022471
_cell_length_c 18.697012
_cell_angle_alpha 90.000000
_cell_angle_beta 90.000000
_cell_angle_gamma 90.000000
_cell_volume 1851.399233
_symmetry_space_group_name_H-M "P N M A"
_symmetry_group_IT_number 62
_symmetry_cell_setting 'orthorhombic'
loop_
_space_group_symop_operation_xyz
x,y,z
1/2-x,-y,1/2+z
1/2+x,1/2-y,1/2-z
-x,1/2+y,-z
-x,-y,-z
1/2+x,y,1/2-z
1/2-x,1/2+y,1/2+z
x,1/2-y,z
loop_
_atom_site_type_symbol
_atom_site_label
_atom_site_fract_x
_atom_site_fract_y
_atom_site_fract_z
Si Si1 0.027015 0.250000 0.846594
Si Si2 0.263651 0.750000 0.226942
Si Si3 0.273844 0.012057 0.188008
Si Si4 0.907208 0.613632 0.686164
Si Si5 0.392244 0.448998 0.559080
Si Si6 0.604169 0.387094 0.023756
O O1 0.190189 0.250000 0.810718
O O2 0.915637 0.250000 0.778186
O O3 0.001789 0.134830 0.895664
O O4 0.323005 0.630047 0.185140
O O5 0.415814 0.097215 0.190548
O O6 0.176284 0.025365 0.259486
O O7 0.178167 0.044754 0.116337
O O8 0.869905 0.750000 0.709851
O O9 0.852177 0.587630 0.605935
O O10 0.500000 0.500000 0.500000
O O11 0.255190 0.381711 0.521440
O O12 0.531076 0.250000 0.017076
O O13 0.500000 0.500000 0.000000
#
# Coordination Sequence:
#
# PCOD8254603 Si02
#       6
#     4   4   8   8   8   8
#     4  10  22  44  64 100 132 168 226 282 346 410
#     4  10  22  40  70  98 128 166 222 286 348 386
#     4  11  23  44  68  97 134 171 224 284 331 409
#     4  11  25  43  66  95 132 178 228 269 338 400
#     4  11  24  44  65  98 141 178 224 278 350 413
#     4  11  24  48  70  98 139 184 227 287 346 416
#
# _framework density 21.605281000000002
#
# number of rings (size 3 to 8) (size 9 to 14) (size 15 to 20)
#    0.000    1.200    3.000    3.000    5.600    0.000 
#    7.200    0.000    0.000    0.000    0.000    0.000 
#    0.000    0.000    0.000    0.000    0.000    0.000 
#
# Total GULP energy -495736.935827 kJ/mol
# GULP energy per Si atom -12393.423396 kJ/mol
# Density = 2.155611 g / cm^3
# Si number density = 21.605281 Si / 1000 Ang^3
#
#
#
# Elastic Constant Matrix: (Units=GPa)
#
#
# Indices 1 2 3 4 5 6 
#
# 1 64.3756 36.4209 63.6811 0.0000 0.0000 0.0000
# 2 36.4209 100.4561 47.2782 0.0000 0.0000 0.0000
# 3 63.6811 47.2782 169.5615 0.0000 0.0000 0.0000
# 4 0.0000 0.0000 0.0000 27.5331 0.0000 0.0000
# 5 0.0000 0.0000 0.0000 0.0000 60.6251 0.0000
# 6 0.0000 0.0000 0.0000 0.0000 0.0000 23.9478
#
#
#
# Elastic Compliance Matrix: (Units=1/GPa)
#
#
# Indices 1 2 3 4 5 6 
#
# 1 0.027422 -0.005865 -0.008663 0.000000 0.000000 0.000000
# 2 -0.005865 0.012712 -0.001342 0.000000 0.000000 0.000000
# 3 -0.008663 -0.001342 0.009525 0.000000 0.000000 0.000000
# 4 0.000000 0.000000 0.000000 0.036320 0.000000 0.000000
# 5 0.000000 0.000000 0.000000 0.000000 0.016495 0.000000
# 6 0.000000 0.000000 0.000000 0.000000 0.000000 0.041757
#
#
# Mechanical properties :
#
#
# Convention : Reuss Voigt Hill
#
# Bulk Modulus (GPa) = 55.80505 69.90597 62.85551
# Shear Modulus (GPa) = 27.48082 34.88873 31.18478
#
# Velocity S-wave (km/s) = 3.57031 4.02285 3.80331
# Velocity P-wave (km/s) = 6.54840 7.34874 6.96008
#
# Compressibility (1/GPa) = 0.01791953
#
# Stress axis : x y z
#
# Youngs Moduli (GPa) = 36.46745 78.66304 104.98232
#
# Poissons Ratio (x) = 0.46133 0.90950
# Poissons Ratio (y) = 0.21387 0.14089
# Poissons Ratio (z) = 0.31593 0.10557
#
# Static dielectric constant tensor:
#      x y z
#    x 3.765420 0.000000 0.000000 
#    y 0.000000 4.190390 0.000000 
#    z 0.000000 0.000000 4.208710 
# 
# 
# High freq. dielectric constant tensor:
#      x y z
#    x 1.832560 0.000000 0.000000 
#    y 0.000000 1.845580 0.000000 
#    z 0.000000 0.000000 1.867050 
# 
# From -- ./inp_files/21925.got.cif
#   From: 2010.03.12/outbox.cif.g09.slc.cpg/sg62_11_cif.got.tgz:21925.got - 2010.04.10 19:12:36.
