data_PCOD8254106
_publ_section_title
;
Structure prediction by ZEFSAII (Michael W. Deem and Ramdas Pophale) SiO2 
 PCOD8254106
Probable space group: P N M A
;
_chemical_formula_sum "Si O2"
_cell_formula_units_Z 40
_cell_length_a 25.287047
_cell_length_b 9.097320
_cell_length_c 8.781331
_cell_angle_alpha 90.000000
_cell_angle_beta 90.000000
_cell_angle_gamma 90.000000
_cell_volume 2020.095656
_symmetry_space_group_name_H-M "P N M A"
_symmetry_group_IT_number 62
_symmetry_cell_setting 'orthorhombic'
loop_
_space_group_symop_operation_xyz
x,y,z
1/2-x,-y,1/2+z
1/2+x,1/2-y,1/2-z
-x,1/2+y,-z
-x,-y,-z
1/2+x,y,1/2-z
1/2-x,1/2+y,1/2+z
x,1/2-y,z
loop_
_atom_site_type_symbol
_atom_site_label
_atom_site_fract_x
_atom_site_fract_y
_atom_site_fract_z
Si Si1 0.391331 0.578415 0.350702
Si Si2 0.284579 0.919448 0.174490
Si Si3 0.903594 0.421872 0.830721
Si Si4 0.990779 0.920427 0.342351
Si Si5 0.689622 0.078094 0.171634
O O1 0.398557 0.750000 0.389276
O O2 0.334708 0.544522 0.278537
O O3 0.395745 0.485731 0.502633
O O4 0.436180 0.525232 0.232896
O O5 0.267545 0.750000 0.191047
O O6 0.236477 0.022246 0.221373
O O7 0.298080 0.959052 0.002025
O O8 0.891081 0.250000 0.834974
O O9 0.962859 0.455737 0.776732
O O10 0.864557 0.497704 0.711621
O O11 0.987745 0.750000 0.381591
O O12 0.000000 0.000000 0.500000
O O13 0.682037 0.250000 0.200426
#
# Coordination Sequence:
#
# PCOD8254106 Si02
#       5
#     8   8   8   8   8
#     4  10  21  39  61  85 116 153 192 235 285 340
#     4  10  22  39  59  85 115 148 191 239 284 337
#     4  11  23  38  58  87 119 150 190 237 283 337
#     4  10  22  39  60  87 118 152 191 236 284 338
#     4  11  23  39  60  84 114 153 191 233 287 340
#
# _framework density 19.801043
#
# number of rings (size 3 to 8) (size 9 to 14) (size 15 to 20)
#    0.000    1.600    0.000    4.200    0.000    9.600 
#    0.000    0.000    0.000    0.000    0.000    0.000 
#    0.000    0.000    0.000    0.000    0.000    0.000 
#
# Total GULP energy -496259.425218 kJ/mol
# GULP energy per Si atom -12406.485630 kJ/mol
# Density = 1.975597 g / cm^3
# Si number density = 19.801043 Si / 1000 Ang^3
#
#
#
# Elastic Constant Matrix: (Units=GPa)
#
#
# Indices 1 2 3 4 5 6 
#
# 1 51.3363 20.1182 -5.9135 0.0000 0.0000 0.0000
# 2 20.1182 68.6017 35.0764 0.0000 0.0000 0.0000
# 3 -5.9135 35.0764 88.7383 0.0000 0.0000 0.0000
# 4 0.0000 0.0000 0.0000 36.6508 0.0000 0.0000
# 5 0.0000 0.0000 0.0000 0.0000 31.0229 0.0000
# 6 0.0000 0.0000 0.0000 0.0000 0.0000 30.8478
#
#
#
# Elastic Compliance Matrix: (Units=1/GPa)
#
#
# Indices 1 2 3 4 5 6 
#
# 1 0.023964 -0.009831 0.005483 0.000000 0.000000 0.000000
# 2 -0.009831 0.022302 -0.009471 0.000000 0.000000 0.000000
# 3 0.005483 -0.009471 0.015378 0.000000 0.000000 0.000000
# 4 0.000000 0.000000 0.000000 0.027285 0.000000 0.000000
# 5 0.000000 0.000000 0.000000 0.000000 0.032234 0.000000
# 6 0.000000 0.000000 0.000000 0.000000 0.000000 0.032417
#
#
# Mechanical properties :
#
#
# Convention : Reuss Voigt Hill
#
# Bulk Modulus (GPa) = 29.40627 34.13759 31.77193
# Shear Modulus (GPa) = 25.96679 30.33063 28.14871
#
# Velocity S-wave (km/s) = 3.62523 3.91803 3.77447
# Velocity P-wave (km/s) = 5.69264 6.14375 5.92249
#
# Compressibility (1/GPa) = 0.03400635
#
# Stress axis : x y z
#
# Youngs Moduli (GPa) = 41.72982 44.83813 65.02750
#
# Poissons Ratio (x) = 0.44081 -0.35654
# Poissons Ratio (y) = 0.41025 0.61587
# Poissons Ratio (z) = -0.22880 0.42465
#
# Static dielectric constant tensor:
#      x y z
#    x 3.929970 0.000000 0.000000 
#    y 0.000000 3.647100 0.000000 
#    z 0.000000 0.000000 3.719020 
# 
# 
# High freq. dielectric constant tensor:
#      x y z
#    x 1.790380 0.000000 0.000000 
#    y 0.000000 1.771740 0.000000 
#    z 0.000000 0.000000 1.786810 
# 
# From -- ./inp_files/9060.got.cif
#   From: 2010.03.12/outbox.cif.g09.slc.cpg/sg62_5_cif.got.tgz:9060.got - 2010.04.10 19:12:36.
