data_PCOD8254553
_publ_section_title
;
Structure prediction by ZEFSAII (Michael W. Deem and Ramdas Pophale) SiO2 
 PCOD8254553
Probable space group: P N M A
;
_chemical_formula_sum "Si O2"
_cell_formula_units_Z 40
_cell_length_a 7.205356
_cell_length_b 22.199419
_cell_length_c 8.661280
_cell_angle_alpha 90.000000
_cell_angle_beta 90.000000
_cell_angle_gamma 90.000000
_cell_volume 1385.412590
_symmetry_space_group_name_H-M "P N M A"
_symmetry_group_IT_number 62
_symmetry_cell_setting 'orthorhombic'
loop_
_space_group_symop_operation_xyz
x,y,z
1/2-x,-y,1/2+z
1/2+x,1/2-y,1/2-z
-x,1/2+y,-z
-x,-y,-z
1/2+x,y,1/2-z
1/2-x,1/2+y,1/2+z
x,1/2-y,z
loop_
_atom_site_type_symbol
_atom_site_label
_atom_site_fract_x
_atom_site_fract_y
_atom_site_fract_z
Si Si1 0.817565 0.816792 0.434651
Si Si2 0.702824 0.858946 0.115394
Si Si3 0.733220 0.989235 0.036372
Si Si4 0.962419 0.946729 0.773867
Si Si5 0.025661 0.316523 0.136520
O O1 0.897670 0.750000 0.412316
O O2 0.692797 0.833505 0.287215
O O3 0.687615 0.820716 0.583824
O O4 0.994436 0.860094 0.453061
O O5 0.772176 0.927367 0.126489
O O6 0.835715 0.819245 0.007818
O O7 0.537856 0.020970 0.102231
O O8 0.885024 0.038036 0.096005
O O9 0.765682 0.972716 0.852753
O O10 0.945179 0.874131 0.751174
O O11 0.054491 0.250000 0.216953
#
# Coordination Sequence:
#
# PCOD8254553 Si02
#       5
#     8   8   8   8   8
#     4  11  20  31  54  89 128 170 219 274 338 399
#     4  11  20  34  59  93 130 175 214 279 345 393
#     4  10  23  42  66  97 136 172 226 277 338 407
#     4  10  23  45  66  99 134 178 223 283 340 404
#     4  10  22  40  61  90 131 175 226 279 330 405
#
# _framework density 28.872264999999999
#
# number of rings (size 3 to 8) (size 9 to 14) (size 15 to 20)
#    0.000    1.600    2.000    3.000    5.600    0.800 
#    7.200    1.000    0.000    0.000    0.000    0.000 
#    0.000    0.000    0.000    0.000    0.000    0.000 
#
# Total GULP energy -495870.548305 kJ/mol
# GULP energy per Si atom -12396.763708 kJ/mol
# Density = 2.880655 g / cm^3
# Si number density = 28.872265 Si / 1000 Ang^3
#
#
#
# Elastic Constant Matrix: (Units=GPa)
#
#
# Indices 1 2 3 4 5 6 
#
# 1 106.8246 11.8109 -7.7010 0.0000 0.0000 0.0000
# 2 11.8109 214.8291 64.8896 0.0000 0.0000 0.0000
# 3 -7.7010 64.8896 103.2612 0.0000 0.0000 0.0000
# 4 0.0000 0.0000 0.0000 35.8602 0.0000 0.0000
# 5 0.0000 0.0000 0.0000 0.0000 26.0139 0.0000
# 6 0.0000 0.0000 0.0000 0.0000 0.0000 36.1582
#
#
#
# Elastic Compliance Matrix: (Units=1/GPa)
#
#
# Indices 1 2 3 4 5 6 
#
# 1 0.009555 -0.000914 0.001287 0.000000 0.000000 0.000000
# 2 -0.000914 0.005833 -0.003734 0.000000 0.000000 0.000000
# 3 0.001287 -0.003734 0.012126 0.000000 0.000000 0.000000
# 4 0.000000 0.000000 0.000000 0.027886 0.000000 0.000000
# 5 0.000000 0.000000 0.000000 0.000000 0.038441 0.000000
# 6 0.000000 0.000000 0.000000 0.000000 0.000000 0.027656
#
#
# Mechanical properties :
#
#
# Convention : Reuss Voigt Hill
#
# Bulk Modulus (GPa) = 48.09331 62.54602 55.31966
# Shear Modulus (GPa) = 36.99604 43.33416 40.16510
#
# Velocity S-wave (km/s) = 3.58351 3.87834 3.73383
# Velocity P-wave (km/s) = 5.81510 6.46261 6.14739
#
# Compressibility (1/GPa) = 0.02079291
#
# Stress axis : x y z
#
# Youngs Moduli (GPa) = 104.65749 171.44310 82.46525
#
# Poissons Ratio (x) = 0.15671 -0.10613
# Poissons Ratio (y) = 0.09566 0.30789
# Poissons Ratio (z) = -0.13469 0.64009
#
# Static dielectric constant tensor:
#      x y z
#    x 5.709170 0.000000 0.000000 
#    y 0.000000 5.275700 0.000000 
#    z 0.000000 0.000000 5.016150 
# 
# 
# High freq. dielectric constant tensor:
#      x y z
#    x 2.208780 0.000000 0.000000 
#    y 0.000000 2.176500 0.000000 
#    z 0.000000 0.000000 2.174790 
# 
# From -- ./inp_files/4269.got.cif
#   From: 2010.03.12/outbox.cif.g09.slc.cpg/sg62_3_cif.got.tgz:4269.got - 2010.04.10 19:12:36.
