data_PCOD8254343
_publ_section_title
;
Structure prediction by ZEFSAII (Michael W. Deem and Ramdas Pophale) SiO2 
 PCOD8254343
Probable space group: P N M A
;
_chemical_formula_sum "Si O2"
_cell_formula_units_Z 32
_cell_length_a 13.657713
_cell_length_b 12.494910
_cell_length_c 7.629864
_cell_angle_alpha 90.000000
_cell_angle_beta 90.000000
_cell_angle_gamma 90.000000
_cell_volume 1302.050748
_symmetry_space_group_name_H-M "P N M A"
_symmetry_group_IT_number 62
_symmetry_cell_setting 'orthorhombic'
loop_
_space_group_symop_operation_xyz
x,y,z
1/2-x,-y,1/2+z
1/2+x,1/2-y,1/2-z
-x,1/2+y,-z
-x,-y,-z
1/2+x,y,1/2-z
1/2-x,1/2+y,1/2+z
x,1/2-y,z
loop_
_atom_site_type_symbol
_atom_site_label
_atom_site_fract_x
_atom_site_fract_y
_atom_site_fract_z
Si Si1 0.087561 0.130301 0.056268
Si Si2 0.519556 0.940015 0.212464
Si Si3 0.228902 0.928648 0.354181
Si Si4 0.338280 0.872676 0.010540
O O1 0.081591 0.250000 0.128088
O O2 0.044569 0.059580 0.215514
O O3 0.201601 0.101906 0.016939
O O4 0.024071 0.122776 0.879042
O O5 0.617991 0.882113 0.139685
O O6 0.440381 0.935244 0.054136
O O7 0.273227 0.878781 0.181883
O O8 0.217097 0.059635 0.358682
O O9 0.353498 0.750000 0.953321
#
# Coordination Sequence:
#
# PCOD8254343 Si02
#       4
#     8   8   8   8
#     4  10  22  40  64  95 133 173 212 265 329 389
#     4  10  21  41  65  92 134 165 219 272 315 395
#     4  11  21  44  65  95 135 166 222 271 314 397
#     4  11  25  43  67  98 133 174 218 271 330 385
#
# _framework density 24.576613999999999
#
# number of rings (size 3 to 8) (size 9 to 14) (size 15 to 20)
#    0.000    1.500    2.500    3.750    0.000    5.000 
#    0.000    2.500    0.000    0.000    0.000    0.000 
#    0.000    0.000    0.000    0.000    0.000    0.000 
#
# Total GULP energy -396441.689570 kJ/mol
# GULP energy per Si atom -12388.802799 kJ/mol
# Density = 2.452068 g / cm^3
# Si number density = 24.576614 Si / 1000 Ang^3
#
#
#
# Elastic Constant Matrix: (Units=GPa)
#
#
# Indices 1 2 3 4 5 6 
#
# 1 155.9342 43.1885 29.5043 0.0000 0.0000 0.0000
# 2 43.1885 165.0196 21.9998 0.0000 0.0000 0.0000
# 3 29.5043 21.9998 87.1159 0.0000 0.0000 0.0000
# 4 0.0000 0.0000 0.0000 9.7577 0.0000 0.0000
# 5 0.0000 0.0000 0.0000 0.0000 29.6772 0.0000
# 6 0.0000 0.0000 0.0000 0.0000 0.0000 9.3313
#
#
#
# Elastic Compliance Matrix: (Units=1/GPa)
#
#
# Indices 1 2 3 4 5 6 
#
# 1 0.007250 -0.001625 -0.002045 0.000000 0.000000 0.000000
# 2 -0.001625 0.006635 -0.001125 0.000000 0.000000 0.000000
# 3 -0.002045 -0.001125 0.012456 0.000000 0.000000 0.000000
# 4 0.000000 0.000000 0.000000 0.102483 0.000000 0.000000
# 5 0.000000 0.000000 0.000000 0.000000 0.033696 0.000000
# 6 0.000000 0.000000 0.000000 0.000000 0.000000 0.107166
#
#
# Mechanical properties :
#
#
# Convention : Reuss Voigt Hill
#
# Bulk Modulus (GPa) = 59.69989 66.38390 63.04189
# Shear Modulus (GPa) = 17.55252 30.64506 24.09879
#
# Velocity S-wave (km/s) = 2.67534 3.53501 3.13478
# Velocity P-wave (km/s) = 5.82128 6.61297 6.22971
#
# Compressibility (1/GPa) = 0.01675045
#
# Stress axis : x y z
#
# Youngs Moduli (GPa) = 137.93252 150.71262 80.28409
#
# Poissons Ratio (x) = 0.24488 0.16419
# Poissons Ratio (y) = 0.22411 0.09035
# Poissons Ratio (z) = 0.28208 0.16960
#
# Static dielectric constant tensor:
#      x y z
#    x 5.013180 0.000000 0.000000 
#    y 0.000000 4.228540 0.000000 
#    z 0.000000 0.000000 4.634540 
# 
# 
# High freq. dielectric constant tensor:
#      x y z
#    x 1.992000 0.000000 0.000000 
#    y 0.000000 1.956980 0.000000 
#    z 0.000000 0.000000 2.000280 
# 
# From -- ./inp_files/5771.got.cif
#   From: 2010.03.12/outbox.cif.g09.slc.cpg/sg62_3_cif.got.tgz:5771.got - 2010.04.10 19:12:36.
