data_PCOD8254711
_publ_section_title
;
Structure prediction by ZEFSAII (Michael W. Deem and Ramdas Pophale) SiO2 
 PCOD8254711
Probable space group: P N M A
;
_chemical_formula_sum "Si O2"
_cell_formula_units_Z 40
_cell_length_a 22.899550
_cell_length_b 14.773160
_cell_length_c 4.938056
_cell_angle_alpha 90.000000
_cell_angle_beta 90.000000
_cell_angle_gamma 90.000000
_cell_volume 1670.538005
_symmetry_space_group_name_H-M "P N M A"
_symmetry_group_IT_number 62
_symmetry_cell_setting 'orthorhombic'
loop_
_space_group_symop_operation_xyz
x,y,z
1/2-x,-y,1/2+z
1/2+x,1/2-y,1/2-z
-x,1/2+y,-z
-x,-y,-z
1/2+x,y,1/2-z
1/2-x,1/2+y,1/2+z
x,1/2-y,z
loop_
_atom_site_type_symbol
_atom_site_label
_atom_site_fract_x
_atom_site_fract_y
_atom_site_fract_z
Si Si1 0.611938 0.972546 0.319086
Si Si2 0.052191 0.402605 0.541262
Si Si3 0.019426 0.647020 0.958347
Si Si4 0.151967 0.150701 0.867923
Si Si5 0.235854 0.944496 0.359688
O O1 0.581244 0.906038 0.535819
O O2 0.668873 0.919965 0.207793
O O3 0.630484 0.069287 0.440806
O O4 0.566052 0.996024 0.074322
O O5 0.115191 0.353882 0.586249
O O6 0.009649 0.349660 0.337168
O O7 0.023482 0.406906 0.838745
O O8 0.029018 0.750000 0.056741
O O9 0.141132 0.250000 0.999464
O O10 0.221175 0.140594 0.807354
O O11 0.239842 0.973954 0.672553
#
# Coordination Sequence:
#
# PCOD8254711 Si02
#       5
#     8   8   8   8   8
#     4  11  25  44  71  95 138 174 227 272 339 391
#     4  12  24  44  63  98 133 174 221 277 328 391
#     4  12  27  42  66  98 137 179 224 274 333 397
#     4  11  24  42  70 101 132 175 222 274 332 395
#     4  10  22  43  63  92 126 166 211 272 324 386
#
# _framework density 23.944382999999998
#
# number of rings (size 3 to 8) (size 9 to 14) (size 15 to 20)
#    0.000    0.800    4.000    3.000    2.800    2.400 
#    0.000    0.000    0.000    1.200    0.000    0.000 
#    0.000    0.000    0.000    0.000    0.000    0.000 
#
# Total GULP energy -495770.093391 kJ/mol
# GULP energy per Si atom -12394.252335 kJ/mol
# Density = 2.388988 g / cm^3
# Si number density = 23.944383 Si / 1000 Ang^3
#
#
#
# Elastic Constant Matrix: (Units=GPa)
#
#
# Indices 1 2 3 4 5 6 
#
# 1 76.4945 37.0558 8.3212 0.0000 0.0000 0.0000
# 2 37.0558 89.8456 8.6566 0.0000 0.0000 0.0000
# 3 8.3212 8.6566 79.6053 0.0000 0.0000 0.0000
# 4 0.0000 0.0000 0.0000 23.5002 0.0000 0.0000
# 5 0.0000 0.0000 0.0000 0.0000 21.1857 0.0000
# 6 0.0000 0.0000 0.0000 0.0000 0.0000 15.6862
#
#
#
# Elastic Compliance Matrix: (Units=1/GPa)
#
#
# Indices 1 2 3 4 5 6 
#
# 1 0.016414 -0.006674 -0.000990 0.000000 0.000000 0.000000
# 2 -0.006674 0.013962 -0.000821 0.000000 0.000000 0.000000
# 3 -0.000990 -0.000821 0.012755 0.000000 0.000000 0.000000
# 4 0.000000 0.000000 0.000000 0.042553 0.000000 0.000000
# 5 0.000000 0.000000 0.000000 0.000000 0.047202 0.000000
# 6 0.000000 0.000000 0.000000 0.000000 0.000000 0.063750
#
#
# Mechanical properties :
#
#
# Convention : Reuss Voigt Hill
#
# Bulk Modulus (GPa) = 38.22524 39.33474 38.77999
# Shear Modulus (GPa) = 22.48958 24.86854 23.67906
#
# Velocity S-wave (km/s) = 3.06803 3.22622 3.14812
# Velocity P-wave (km/s) = 5.34315 5.50829 5.42635
#
# Compressibility (1/GPa) = 0.02616072
#
# Stress axis : x y z
#
# Youngs Moduli (GPa) = 60.92477 71.62306 78.40255
#
# Poissons Ratio (x) = 0.47803 0.07761
# Poissons Ratio (y) = 0.40663 0.06434
# Poissons Ratio (z) = 0.06031 0.05877
#
# Static dielectric constant tensor:
#      x y z
#    x 4.942600 0.000000 0.000000 
#    y 0.000000 3.896720 0.000000 
#    z 0.000000 0.000000 4.203840 
# 
# 
# High freq. dielectric constant tensor:
#      x y z
#    x 1.968860 0.000000 0.000000 
#    y 0.000000 1.912340 0.000000 
#    z 0.000000 0.000000 1.948770 
# 
# From -- ./inp_files/3109.got.cif
#   From: 2010.03.12/outbox.cif.g09.slc.cpg/sg62_2_cif.got.tgz:3109.got - 2010.04.10 19:12:36.
