data_PCOD8254986
_publ_section_title
;
Structure prediction by ZEFSAII (Michael W. Deem and Ramdas Pophale) SiO2 
 PCOD8254986
Probable space group: P N M A
;
_chemical_formula_sum "Si O2"
_cell_formula_units_Z 64
_cell_length_a 9.803279
_cell_length_b 29.438077
_cell_length_c 10.755192
_cell_angle_alpha 90.000000
_cell_angle_beta 90.000000
_cell_angle_gamma 90.000000
_cell_volume 3103.837440
_symmetry_space_group_name_H-M "P N M A"
_symmetry_group_IT_number 62
_symmetry_cell_setting 'orthorhombic'
loop_
_space_group_symop_operation_xyz
x,y,z
1/2-x,-y,1/2+z
1/2+x,1/2-y,1/2-z
-x,1/2+y,-z
-x,-y,-z
1/2+x,y,1/2-z
1/2-x,1/2+y,1/2+z
x,1/2-y,z
loop_
_atom_site_type_symbol
_atom_site_label
_atom_site_fract_x
_atom_site_fract_y
_atom_site_fract_z
Si Si1 0.082663 0.301702 0.148916
Si Si2 0.585847 0.198539 0.060689
Si Si3 0.080432 0.573478 0.181252
Si Si4 0.623647 0.927384 0.740406
Si Si5 0.710447 0.079718 0.611606
Si Si6 0.653785 0.639706 0.530448
Si Si7 0.332007 0.352543 0.059407
Si Si8 0.143248 0.025722 0.131608
O O1 0.067566 0.250000 0.100623
O O2 0.048982 0.304672 0.293908
O O3 0.239286 0.317703 0.137629
O O4 0.983528 0.334579 0.072197
O O5 0.595869 0.250000 0.014536
O O6 0.725682 0.175553 0.020626
O O7 0.458276 0.173675 0.995268
O O8 0.153134 0.567467 0.313560
O O9 0.105088 0.526414 0.108398
O O10 0.919232 0.581495 0.203916
O O11 0.136299 0.616095 0.103261
O O12 0.691848 0.899393 0.628439
O O13 0.607791 0.893600 0.857498
O O14 0.478084 0.946311 0.697245
O O15 0.724262 0.968579 0.779262
O O16 0.735784 0.128550 0.549668
O O17 0.677062 0.043448 0.505170
#
# Coordination Sequence:
#
# PCOD8254986 Si02
#       8
#     8   8   8   8   8   8   8   8
#     4  11  20  37  65  99 134 167 209 264 336 401
#     4  11  22  36  62 103 136 158 206 267 333 405
#     4  12  26  44  67  88 131 175 230 269 317 382
#     4  11  20  39  66  95 134 169 213 260 332 391
#     4  11  26  45  63  94 125 176 220 270 318 383
#     4  12  22  38  63  93 133 175 208 266 326 387
#     4  11  21  40  63  95 134 171 207 260 331 395
#     4  11  24  43  65  95 132 171 219 275 322 382
#
# _framework density 20.619636
#
# number of rings (size 3 to 8) (size 9 to 14) (size 15 to 20)
#    0.000    0.750    5.000    3.375    3.500    2.000 
#    0.000    1.875    0.000    4.500    0.000    0.000 
#    0.000    0.000    0.000    0.000    0.000    0.000 
#
# Total GULP energy -793706.470273 kJ/mol
# GULP energy per Si atom -12401.663598 kJ/mol
# Density = 2.057270 g / cm^3
# Si number density = 20.619636 Si / 1000 Ang^3
#
#
#
# Elastic Constant Matrix: (Units=GPa)
#
#
# Indices 1 2 3 4 5 6 
#
# 1 95.9436 28.7241 42.8223 0.0000 0.0000 0.0000
# 2 28.7241 109.6502 24.5984 0.0000 0.0000 0.0000
# 3 42.8223 24.5984 66.0996 0.0000 0.0000 0.0000
# 4 0.0000 0.0000 0.0000 23.1000 0.0000 0.0000
# 5 0.0000 0.0000 0.0000 0.0000 31.1858 0.0000
# 6 0.0000 0.0000 0.0000 0.0000 0.0000 32.9923
#
#
#
# Elastic Compliance Matrix: (Units=1/GPa)
#
#
# Indices 1 2 3 4 5 6 
#
# 1 0.015021 -0.001911 -0.009020 0.000000 0.000000 0.000000
# 2 -0.001911 0.010194 -0.002555 0.000000 0.000000 0.000000
# 3 -0.009020 -0.002555 0.021923 0.000000 0.000000 0.000000
# 4 0.000000 0.000000 0.000000 0.043290 0.000000 0.000000
# 5 0.000000 0.000000 0.000000 0.000000 0.032066 0.000000
# 6 0.000000 0.000000 0.000000 0.000000 0.000000 0.030310
#
#
# Mechanical properties :
#
#
# Convention : Reuss Voigt Hill
#
# Bulk Modulus (GPa) = 49.59158 51.55366 50.57262
# Shear Modulus (GPa) = 26.80987 29.15886 27.98436
#
# Velocity S-wave (km/s) = 3.60975 3.76457 3.68798
# Velocity P-wave (km/s) = 6.44024 6.62967 6.53564
#
# Compressibility (1/GPa) = 0.02016472
#
# Stress axis : x y z
#
# Youngs Moduli (GPa) = 66.57405 98.09823 45.61403
#
# Poissons Ratio (x) = 0.18751 0.41143
# Poissons Ratio (y) = 0.12725 0.11656
# Poissons Ratio (z) = 0.60049 0.25067
#
# Static dielectric constant tensor:
#      x y z
#    x 3.880970 0.000000 0.000000 
#    y 0.000000 3.885730 0.000000 
#    z 0.000000 0.000000 3.431780 
# 
# 
# High freq. dielectric constant tensor:
#      x y z
#    x 1.823020 0.000000 0.000000 
#    y 0.000000 1.813330 0.000000 
#    z 0.000000 0.000000 1.772520 
# 
# From -- ./inp_files/11557.got.cif
#   From: 2010.03.12/outbox.cif.g09.slc.cpg/sg62_6_cif.got.tgz:11557.got - 2010.04.10 19:12:36.
