data_PCOD8254488
_publ_section_title
;
Structure prediction by ZEFSAII (Michael W. Deem and Ramdas Pophale) SiO2 
 PCOD8254488
Probable space group: P N M A
;
_chemical_formula_sum "Si O2"
_cell_formula_units_Z 64
_cell_length_a 23.463389
_cell_length_b 8.820171
_cell_length_c 15.544993
_cell_angle_alpha 90.000000
_cell_angle_beta 90.000000
_cell_angle_gamma 90.000000
_cell_volume 3217.053451
_symmetry_space_group_name_H-M "P N M A"
_symmetry_group_IT_number 62
_symmetry_cell_setting 'orthorhombic'
loop_
_space_group_symop_operation_xyz
x,y,z
1/2-x,-y,1/2+z
1/2+x,1/2-y,1/2-z
-x,1/2+y,-z
-x,-y,-z
1/2+x,y,1/2-z
1/2-x,1/2+y,1/2+z
x,1/2-y,z
loop_
_atom_site_type_symbol
_atom_site_label
_atom_site_fract_x
_atom_site_fract_y
_atom_site_fract_z
Si Si1 0.124630 0.424436 0.128548
Si Si2 0.193031 0.072409 0.294745
Si Si3 0.208240 0.577865 0.006339
Si Si4 0.931496 0.929235 0.246847
Si Si5 0.951251 0.569380 0.439407
Si Si6 0.816654 0.423110 0.193280
Si Si7 0.664542 0.428183 0.022345
Si Si8 0.009468 0.927029 0.092155
O O1 0.104738 0.250000 0.120521
O O2 0.148704 0.463703 0.221400
O O3 0.172905 0.455335 0.058928
O O4 0.073605 0.540360 0.118280
O O5 0.202631 0.250000 0.311794
O O6 0.256313 0.011155 0.270928
O O7 0.166836 0.000268 0.381605
O O8 0.197218 0.750000 0.038242
O O9 0.186824 0.561539 0.909237
O O10 0.274599 0.534735 0.021226
O O11 0.933479 0.750000 0.244673
O O12 0.956948 0.983710 0.339339
O O13 0.968591 0.995557 0.167030
O O14 0.866433 0.978568 0.235116
O O15 0.955102 0.750000 0.446599
O O16 0.889550 0.505507 0.470853
O O17 0.000000 0.500000 0.500000
O O18 0.827844 0.250000 0.220692
O O19 0.655707 0.250000 0.028367
O O20 0.998675 0.750000 0.082575
O O21 0.000000 0.000000 0.000000
#
# Coordination Sequence:
#
# PCOD8254488 Si02
#       8
#     8   8   8   8   8   8   8   8
#     4  11  22  34  55  85 116 145 184 233 281 336
#     4   8  17  33  53  81 112 142 179 226 270 323
#     4   9  18  34  57  84 112 147 187 229 279 341
#     4  10  23  39  57  85 119 148 185 241 292 333
#     4  10  22  39  59  83 111 148 191 237 286 340
#     4   9  18  35  58  82 110 145 187 228 273 336
#     4   8  16  34  58  79 107 147 188 225 272 338
#     4  11  24  42  60  82 116 154 193 239 288 343
#
# _framework density 19.893979999999999
#
# number of rings (size 3 to 8) (size 9 to 14) (size 15 to 20)
#    0.000    2.500    0.000    3.000    3.500    4.000 
#    0.000    1.250    0.000    2.250    0.000    0.000 
#    0.000    0.000    0.000    0.000    0.000    0.000 
#
# Total GULP energy -793271.228798 kJ/mol
# GULP energy per Si atom -12394.862950 kJ/mol
# Density = 1.984870 g / cm^3
# Si number density = 19.893980 Si / 1000 Ang^3
#
#
#
# Elastic Constant Matrix: (Units=GPa)
#
#
# Indices 1 2 3 4 5 6 
#
# 1 127.4833 21.3381 69.1120 0.0000 0.0000 0.0000
# 2 21.3381 22.4557 30.3092 0.0000 0.0000 0.0000
# 3 69.1120 30.3092 125.6785 0.0000 0.0000 0.0000
# 4 0.0000 0.0000 0.0000 22.9443 0.0000 0.0000
# 5 0.0000 0.0000 0.0000 0.0000 43.0591 0.0000
# 6 0.0000 0.0000 0.0000 0.0000 0.0000 29.7132
#
#
#
# Elastic Compliance Matrix: (Units=1/GPa)
#
#
# Indices 1 2 3 4 5 6 
#
# 1 0.011359 -0.003503 -0.005402 0.000000 0.000000 0.000000
# 2 -0.003503 0.067103 -0.014257 0.000000 0.000000 0.000000
# 3 -0.005402 -0.014257 0.014365 0.000000 0.000000 0.000000
# 4 0.000000 0.000000 0.000000 0.043584 0.000000 0.000000
# 5 0.000000 0.000000 0.000000 0.000000 0.023224 0.000000
# 6 0.000000 0.000000 0.000000 0.000000 0.000000 0.033655
#
#
# Mechanical properties :
#
#
# Convention : Reuss Voigt Hill
#
# Bulk Modulus (GPa) = 21.50291 57.45956 39.48124
# Shear Modulus (GPa) = 19.59907 29.46720 24.53313
#
# Velocity S-wave (km/s) = 3.14216 3.85283 3.51550
# Velocity P-wave (km/s) = 4.89861 6.98126 6.03052
#
# Compressibility (1/GPa) = 0.04650533
#
# Stress axis : x y z
#
# Youngs Moduli (GPa) = 88.03747 14.90240 69.61166
#
# Poissons Ratio (x) = 0.05220 0.37601
# Poissons Ratio (y) = 0.30838 0.99243
# Poissons Ratio (z) = 0.47554 0.21246
#
# Static dielectric constant tensor:
#      x y z
#    x 3.895860 0.000000 0.000000 
#    y 0.000000 3.290010 0.000000 
#    z 0.000000 0.000000 3.950490 
# 
# 
# High freq. dielectric constant tensor:
#      x y z
#    x 1.786820 0.000000 0.000000 
#    y 0.000000 1.740340 0.000000 
#    z 0.000000 0.000000 1.784990 
# 
# From -- ./inp_files/20804.got.cif
#   From: 2010.03.12/outbox.cif.g09.slc.cpg/sg62_11_cif.got.tgz:20804.got - 2010.04.10 19:12:36.
