data_PCOD8254081
_publ_section_title
;
Structure prediction by ZEFSAII (Michael W. Deem and Ramdas Pophale) SiO2 
 PCOD8254081
Probable space group: P N M A
;
_chemical_formula_sum "Si O2"
_cell_formula_units_Z 48
_cell_length_a 15.643884
_cell_length_b 27.141923
_cell_length_c 5.140073
_cell_angle_alpha 90.000000
_cell_angle_beta 90.000000
_cell_angle_gamma 90.000000
_cell_volume 2182.501184
_symmetry_space_group_name_H-M "P N M A"
_symmetry_group_IT_number 62
_symmetry_cell_setting 'orthorhombic'
loop_
_space_group_symop_operation_xyz
x,y,z
1/2-x,-y,1/2+z
1/2+x,1/2-y,1/2-z
-x,1/2+y,-z
-x,-y,-z
1/2+x,y,1/2-z
1/2-x,1/2+y,1/2+z
x,1/2-y,z
loop_
_atom_site_type_symbol
_atom_site_label
_atom_site_fract_x
_atom_site_fract_y
_atom_site_fract_z
Si Si1 0.700947 0.612833 0.532975
Si Si2 0.970839 0.140658 0.840482
Si Si3 0.985089 0.695305 0.644481
Si Si4 0.299499 0.806717 0.706857
Si Si5 0.650459 0.107487 0.650183
Si Si6 0.755495 0.968493 0.856244
O O1 0.620418 0.613233 0.337770
O O2 0.718263 0.667224 0.655005
O O3 0.786657 0.594715 0.386809
O O4 0.684288 0.571012 0.753726
O O5 0.968094 0.183706 0.626835
O O6 0.050834 0.105423 0.765431
O O7 0.982108 0.159213 0.133458
O O8 0.010637 0.750000 0.729311
O O9 0.882427 0.691146 0.604214
O O10 0.276292 0.750000 0.634579
O O11 0.324655 0.837464 0.449167
O O12 0.662082 0.065095 0.430948
O O13 0.779351 0.005091 0.618197
#
# Coordination Sequence:
#
# PCOD8254081 Si02
#       6
#     8   8   8   8   8   8
#     4  11  23  41  66  96 128 170 218 265 322 381
#     4  11  24  39  63  92 130 170 214 267 315 380
#     4  10  21  39  59  87 129 175 218 261 312 364
#     4   9  20  37  61  92 128 174 218 260 312 376
#     4  10  22  43  65  94 131 173 210 265 328 379
#     4  11  23  43  73  94 124 167 209 268 334 392
#
# _framework density 21.993115
#
# number of rings (size 3 to 8) (size 9 to 14) (size 15 to 20)
#    0.000    1.667    3.333    0.500    4.667    2.667 
#    0.000    1.667    0.000    0.000    0.000    0.000 
#    0.000    0.000    0.000    0.000    0.000    0.000 
#
# Total GULP energy -594882.458258 kJ/mol
# GULP energy per Si atom -12393.384547 kJ/mol
# Density = 2.194306 g / cm^3
# Si number density = 21.993115 Si / 1000 Ang^3
#
#
#
# Elastic Constant Matrix: (Units=GPa)
#
#
# Indices 1 2 3 4 5 6 
#
# 1 69.3782 1.3699 6.0740 0.0000 0.0000 0.0000
# 2 1.3699 104.9568 20.6257 0.0000 0.0000 0.0000
# 3 6.0740 20.6257 86.1731 0.0000 0.0000 0.0000
# 4 0.0000 0.0000 0.0000 36.8330 0.0000 0.0000
# 5 0.0000 0.0000 0.0000 0.0000 21.6247 0.0000
# 6 0.0000 0.0000 0.0000 0.0000 0.0000 11.5611
#
#
#
# Elastic Compliance Matrix: (Units=1/GPa)
#
#
# Indices 1 2 3 4 5 6 
#
# 1 0.014503 0.000012 -0.001025 0.000000 0.000000 0.000000
# 2 0.000012 0.009998 -0.002394 0.000000 0.000000 0.000000
# 3 -0.001025 -0.002394 0.012250 0.000000 0.000000 0.000000
# 4 0.000000 0.000000 0.000000 0.027150 0.000000 0.000000
# 5 0.000000 0.000000 0.000000 0.000000 0.046243 0.000000
# 6 0.000000 0.000000 0.000000 0.000000 0.000000 0.086497
#
#
# Mechanical properties :
#
#
# Convention : Reuss Voigt Hill
#
# Bulk Modulus (GPa) = 33.40324 35.18305 34.29315
# Shear Modulus (GPa) = 23.42649 29.49967 26.46308
#
# Velocity S-wave (km/s) = 3.26724 3.66637 3.47254
# Velocity P-wave (km/s) = 5.42717 5.82710 5.63068
#
# Compressibility (1/GPa) = 0.02993721
#
# Stress axis : x y z
#
# Youngs Moduli (GPa) = 68.95001 100.01984 81.63403
#
# Poissons Ratio (x) = -0.00122 0.08369
# Poissons Ratio (y) = -0.00084 0.19542
# Poissons Ratio (z) = 0.07069 0.23944
#
# Static dielectric constant tensor:
#      x y z
#    x 3.856080 0.000000 0.000000 
#    y 0.000000 4.050720 0.000000 
#    z 0.000000 0.000000 3.954090 
# 
# 
# High freq. dielectric constant tensor:
#      x y z
#    x 1.833660 0.000000 0.000000 
#    y 0.000000 1.858140 0.000000 
#    z 0.000000 0.000000 1.872400 
# 
# From -- ./inp_files/1132.got.cif
#   From: 2010.03.12/outbox.cif.g09.slc.cpg/sg62_1_cif.got.tgz:1132.got - 2010.04.10 19:12:36.
