data_PCOD8254707
_publ_section_title
;
Structure prediction by ZEFSAII (Michael W. Deem and Ramdas Pophale) SiO2 
 PCOD8254707
Probable space group: P N M A
;
_chemical_formula_sum "Si O2"
_cell_formula_units_Z 64
_cell_length_a 9.325671
_cell_length_b 30.175831
_cell_length_c 10.779001
_cell_angle_alpha 90.000000
_cell_angle_beta 90.000000
_cell_angle_gamma 90.000000
_cell_volume 3033.317292
_symmetry_space_group_name_H-M "P N M A"
_symmetry_group_IT_number 62
_symmetry_cell_setting 'orthorhombic'
loop_
_space_group_symop_operation_xyz
x,y,z
1/2-x,-y,1/2+z
1/2+x,1/2-y,1/2-z
-x,1/2+y,-z
-x,-y,-z
1/2+x,y,1/2-z
1/2-x,1/2+y,1/2+z
x,1/2-y,z
loop_
_atom_site_type_symbol
_atom_site_label
_atom_site_fract_x
_atom_site_fract_y
_atom_site_fract_z
Si Si1 0.438758 0.438100 0.984303
Si Si2 0.974708 0.483503 0.759554
Si Si3 0.212577 0.113524 0.434651
Si Si4 0.244127 0.634988 0.373596
Si Si5 0.284578 0.458521 0.234842
Si Si6 0.206496 0.799817 0.591879
Si Si7 0.567974 0.614937 0.354442
Si Si8 0.600331 0.300814 0.187303
O O1 0.467106 0.480244 0.893115
O O2 0.304488 0.412284 0.925454
O O3 0.584497 0.408912 0.986668
O O4 0.393605 0.448039 0.123895
O O5 0.859292 0.518254 0.812004
O O6 0.953146 0.435475 0.814633
O O7 0.126081 0.503449 0.808736
O O8 0.247560 0.085429 0.311185
O O9 0.358004 0.115079 0.512491
O O10 0.173773 0.164176 0.404543
O O11 0.191165 0.671652 0.469292
O O12 0.414650 0.638515 0.359903
O O13 0.167719 0.642327 0.241002
O O14 0.211368 0.750000 0.543051
O O15 0.347821 0.811139 0.672393
O O16 0.070436 0.807589 0.682511
O O17 0.643406 0.250000 0.150449
#
# Coordination Sequence:
#
# PCOD8254707 Si02
#       8
#     8   8   8   8   8   8   8   8
#     4  11  23  44  62  87 131 174 223 283 332 395
#     4  11  24  43  61  86 127 177 223 277 333 389
#     4  12  25  41  66  99 129 175 221 274 334 398
#     4  11  23  45  68  93 129 177 223 272 328 399
#     4  12  25  37  64  94 127 170 227 279 337 396
#     4  10  22  42  72 103 136 170 214 274 337 400
#     4  11  26  43  69  91 131 180 226 270 329 393
#     4  10  23  43  70 102 136 169 210 271 338 398
#
# _framework density 21.099012999999999
#
# number of rings (size 3 to 8) (size 9 to 14) (size 15 to 20)
#    0.000    1.000    2.500    4.875    5.250    0.500 
#    0.000    1.250    0.000    0.000    0.000    0.000 
#    0.000    0.000    0.000    0.000    0.000    0.000 
#
# Total GULP energy -793601.432113 kJ/mol
# GULP energy per Si atom -12400.022377 kJ/mol
# Density = 2.105099 g / cm^3
# Si number density = 21.099013 Si / 1000 Ang^3
#
#
#
# Elastic Constant Matrix: (Units=GPa)
#
#
# Indices 1 2 3 4 5 6 
#
# 1 102.9779 26.3749 14.2338 0.0000 0.0000 0.0000
# 2 26.3749 71.9902 19.9280 0.0000 0.0000 0.0000
# 3 14.2338 19.9280 45.7943 0.0000 0.0000 0.0000
# 4 0.0000 0.0000 0.0000 25.7677 0.0000 0.0000
# 5 0.0000 0.0000 0.0000 0.0000 36.2210 0.0000
# 6 0.0000 0.0000 0.0000 0.0000 0.0000 29.1103
#
#
#
# Elastic Compliance Matrix: (Units=1/GPa)
#
#
# Indices 1 2 3 4 5 6 
#
# 1 0.010855 -0.003460 -0.001868 0.000000 0.000000 0.000000
# 2 -0.003460 0.016896 -0.006277 0.000000 0.000000 0.000000
# 3 -0.001868 -0.006277 0.025149 0.000000 0.000000 0.000000
# 4 0.000000 0.000000 0.000000 0.038808 0.000000 0.000000
# 5 0.000000 0.000000 0.000000 0.000000 0.027608 0.000000
# 6 0.000000 0.000000 0.000000 0.000000 0.000000 0.034352
#
#
# Mechanical properties :
#
#
# Convention : Reuss Voigt Hill
#
# Bulk Modulus (GPa) = 33.68190 37.98175 35.83182
# Shear Modulus (GPa) = 26.77002 28.90151 27.83577
#
# Velocity S-wave (km/s) = 3.56586 3.70510 3.63615
# Velocity P-wave (km/s) = 5.74040 6.02864 5.88628
#
# Compressibility (1/GPa) = 0.02968954
#
# Stress axis : x y z
#
# Youngs Moduli (GPa) = 92.12167 59.18581 39.76284
#
# Poissons Ratio (x) = 0.20477 0.07429
# Poissons Ratio (y) = 0.31872 0.24960
# Poissons Ratio (z) = 0.17212 0.37152
#
# Static dielectric constant tensor:
#      x y z
#    x 4.006640 0.000000 0.000000 
#    y 0.000000 3.791910 0.000000 
#    z 0.000000 0.000000 3.769150 
# 
# 
# High freq. dielectric constant tensor:
#      x y z
#    x 1.844250 0.000000 0.000000 
#    y 0.000000 1.822440 0.000000 
#    z 0.000000 0.000000 1.815080 
# 
# From -- ./inp_files/11563.got.cif
#   From: 2010.03.12/outbox.cif.g09.slc.cpg/sg62_6_cif.got.tgz:11563.got - 2010.04.10 19:12:36.
