data_PCOD8254295
_publ_section_title
;
Structure prediction by ZEFSAII (Michael W. Deem and Ramdas Pophale) SiO2 
 PCOD8254295
Probable space group: P N M A
;
_chemical_formula_sum "Si O2"
_cell_formula_units_Z 64
_cell_length_a 22.849305
_cell_length_b 14.989535
_cell_length_c 9.166114
_cell_angle_alpha 90.000000
_cell_angle_beta 90.000000
_cell_angle_gamma 90.000000
_cell_volume 3139.398234
_symmetry_space_group_name_H-M "P N M A"
_symmetry_group_IT_number 62
_symmetry_cell_setting 'orthorhombic'
loop_
_space_group_symop_operation_xyz
x,y,z
1/2-x,-y,1/2+z
1/2+x,1/2-y,1/2-z
-x,1/2+y,-z
-x,-y,-z
1/2+x,y,1/2-z
1/2-x,1/2+y,1/2+z
x,1/2-y,z
loop_
_atom_site_type_symbol
_atom_site_label
_atom_site_fract_x
_atom_site_fract_y
_atom_site_fract_z
Si Si1 0.994981 0.650899 0.241632
Si Si2 0.508775 0.352146 0.404254
Si Si3 0.227611 0.851423 0.457118
Si Si4 0.073405 0.521078 0.716450
Si Si5 0.626635 0.069252 0.303031
Si Si6 0.398743 0.084866 0.901432
Si Si7 0.255203 0.649230 0.785182
Si Si8 0.316445 0.999809 0.415365
O O1 0.966995 0.750000 0.258063
O O2 0.057342 0.652382 0.322080
O O3 0.953983 0.576249 0.314601
O O4 0.004171 0.627162 0.072528
O O5 0.493285 0.250000 0.364478
O O6 0.468415 0.418631 0.314659
O O7 0.577329 0.368413 0.374237
O O8 0.245026 0.750000 0.422717
O O9 0.165624 0.874491 0.386618
O O10 0.223796 0.868035 0.630444
O O11 0.277712 0.911979 0.384663
O O12 0.081847 0.573382 0.567198
O O13 0.135354 0.505714 0.791141
O O14 0.675753 0.131348 0.230461
O O15 0.597417 0.010504 0.177407
O O16 0.654619 0.004244 0.425171
O O17 0.245818 0.750000 0.838972
O O18 0.225919 0.585843 0.906601
#
# Coordination Sequence:
#
# PCOD8254295 Si02
#       8
#     8   8   8   8   8   8   8   8
#     4  11  24  42  64  94 129 168 213 268 321 378
#     4  11  24  43  68  96 127 170 222 270 318 378
#     4  10  22  40  65  94 126 165 211 261 322 384
#     4  12  24  42  65  96 129 173 214 263 321 387
#     4  11  22  41  69  92 128 170 213 265 322 382
#     4  12  23  41  67  90 131 172 209 263 330 380
#     4  10  21  40  66  96 124 163 213 263 314 379
#     4  11  22  40  69  91 128 164 216 263 317 382
#
# _framework density 20.386071999999999
#
# number of rings (size 3 to 8) (size 9 to 14) (size 15 to 20)
#    0.000    1.000    5.000    2.250    0.000    2.500 
#    0.000    1.875    0.000    0.000    0.000    0.000 
#    0.000    0.000    0.000    0.000    0.000    0.000 
#
# Total GULP energy -793914.323065 kJ/mol
# GULP energy per Si atom -12404.911298 kJ/mol
# Density = 2.033967 g / cm^3
# Si number density = 20.386072 Si / 1000 Ang^3
#
#
#
# Elastic Constant Matrix: (Units=GPa)
#
#
# Indices 1 2 3 4 5 6 
#
# 1 112.4270 47.8411 36.8059 0.0000 0.0000 0.0000
# 2 47.8411 125.8233 26.5329 0.0000 0.0000 0.0000
# 3 36.8059 26.5329 60.5318 0.0000 0.0000 0.0000
# 4 0.0000 0.0000 0.0000 19.8113 0.0000 0.0000
# 5 0.0000 0.0000 0.0000 0.0000 18.6283 0.0000
# 6 0.0000 0.0000 0.0000 0.0000 0.0000 22.5826
#
#
#
# Elastic Compliance Matrix: (Units=1/GPa)
#
#
# Indices 1 2 3 4 5 6 
#
# 1 0.012309 -0.003418 -0.005986 0.000000 0.000000 0.000000
# 2 -0.003418 0.009706 -0.002176 0.000000 0.000000 0.000000
# 3 -0.005986 -0.002176 0.021114 0.000000 0.000000 0.000000
# 4 0.000000 0.000000 0.000000 0.050476 0.000000 0.000000
# 5 0.000000 0.000000 0.000000 0.000000 0.053682 0.000000
# 6 0.000000 0.000000 0.000000 0.000000 0.000000 0.044282
#
#
# Mechanical properties :
#
#
# Convention : Reuss Voigt Hill
#
# Bulk Modulus (GPa) = 50.07908 57.90463 53.99185
# Shear Modulus (GPa) = 22.58506 24.71125 23.64816
#
# Velocity S-wave (km/s) = 3.33207 3.48539 3.40959
# Velocity P-wave (km/s) = 6.27872 6.68303 6.48403
#
# Compressibility (1/GPa) = 0.01996842
#
# Stress axis : x y z
#
# Youngs Moduli (GPa) = 81.24319 103.02796 47.36195
#
# Poissons Ratio (x) = 0.35212 0.28351
# Poissons Ratio (y) = 0.27767 0.10308
# Poissons Ratio (z) = 0.48633 0.22422
#
# Static dielectric constant tensor:
#      x y z
#    x 3.793720 0.000000 0.000000 
#    y 0.000000 3.727300 0.000000 
#    z 0.000000 0.000000 3.609560 
# 
# 
# High freq. dielectric constant tensor:
#      x y z
#    x 1.807380 0.000000 0.000000 
#    y 0.000000 1.802130 0.000000 
#    z 0.000000 0.000000 1.786620 
# 
# From -- ./inp_files/9471.got.cif
#   From: 2010.03.12/outbox.cif.g09.slc.cpg/sg62_5_cif.got.tgz:9471.got - 2010.04.10 19:12:36.
