data_PCOD8254609
_publ_section_title
;
Structure prediction by ZEFSAII (Michael W. Deem and Ramdas Pophale) SiO2 
 PCOD8254609
Probable space group: P N M A
;
_chemical_formula_sum "Si O2"
_cell_formula_units_Z 64
_cell_length_a 30.458445
_cell_length_b 8.712928
_cell_length_c 11.943900
_cell_angle_alpha 90.000000
_cell_angle_beta 90.000000
_cell_angle_gamma 90.000000
_cell_volume 3169.698916
_symmetry_space_group_name_H-M "P N M A"
_symmetry_group_IT_number 62
_symmetry_cell_setting 'orthorhombic'
loop_
_space_group_symop_operation_xyz
x,y,z
1/2-x,-y,1/2+z
1/2+x,1/2-y,1/2-z
-x,1/2+y,-z
-x,-y,-z
1/2+x,y,1/2-z
1/2-x,1/2+y,1/2+z
x,1/2-y,z
loop_
_atom_site_type_symbol
_atom_site_label
_atom_site_fract_x
_atom_site_fract_y
_atom_site_fract_z
Si Si1 0.303502 0.431715 0.757862
Si Si2 0.378257 0.430873 0.595260
Si Si3 0.570746 0.069361 0.003921
Si Si4 0.547621 0.573582 0.784973
Si Si5 0.793174 0.568963 0.300726
Si Si6 0.949588 0.926587 0.752249
Si Si7 0.125220 0.428868 0.852253
Si Si8 0.337115 0.069106 0.996351
O O1 0.304185 0.250000 0.755889
O O2 0.335982 0.497600 0.661985
O O3 0.253956 0.489717 0.742081
O O4 0.320550 0.491275 0.876853
O O5 0.377313 0.250000 0.597542
O O6 0.423246 0.482388 0.653798
O O7 0.376936 0.483695 0.468487
O O8 0.562332 0.250000 0.994783
O O9 0.560986 0.007277 0.128512
O O10 0.620244 0.027399 0.969983
O O11 0.540351 0.983169 0.912919
O O12 0.562881 0.750000 0.785011
O O13 0.501208 0.554241 0.721902
O O14 0.583848 0.472214 0.723697
O O15 0.793852 0.750000 0.326822
O O16 0.829607 0.525205 0.208697
O O17 0.800393 0.472519 0.413222
O O18 0.935088 0.750000 0.757456
O O19 0.123246 0.250000 0.877481
O O20 0.347330 0.250000 0.996327
#
# Coordination Sequence:
#
# PCOD8254609 Si02
#       8
#     8   8   8   8   8   8   8   8
#     4   9  21  40  61  89 123 158 198 248 302 351
#     4  11  23  41  64  88 119 160 203 250 301 355
#     4  11  21  37  61  91 126 159 194 242 301 360
#     4  11  23  40  63  90 121 157 200 250 298 357
#     4  10  22  41  62  87 123 161 199 247 299 356
#     4  10  23  41  62  90 122 157 199 247 302 359
#     4  11  24  41  62  87 121 161 201 248 301 358
#     4  11  21  37  63  92 122 157 199 247 298 353
#
# _framework density 20.191191
#
# number of rings (size 3 to 8) (size 9 to 14) (size 15 to 20)
#    0.000    1.500    2.500    2.250    1.750    2.500 
#    0.000    1.875    0.000    0.000    0.000    0.000 
#    0.000    0.000    0.000    0.000    0.000    0.000 
#
# Total GULP energy -793857.242461 kJ/mol
# GULP energy per Si atom -12404.019413 kJ/mol
# Density = 2.014523 g / cm^3
# Si number density = 20.191191 Si / 1000 Ang^3
#
#
#
# Elastic Constant Matrix: (Units=GPa)
#
#
# Indices 1 2 3 4 5 6 
#
# 1 97.6840 19.3067 26.1749 0.0000 0.0000 0.0000
# 2 19.3067 36.8446 11.7248 0.0000 0.0000 0.0000
# 3 26.1749 11.7248 102.7739 0.0000 0.0000 0.0000
# 4 0.0000 0.0000 0.0000 35.8822 0.0000 0.0000
# 5 0.0000 0.0000 0.0000 0.0000 25.8226 0.0000
# 6 0.0000 0.0000 0.0000 0.0000 0.0000 26.6780
#
#
#
# Elastic Compliance Matrix: (Units=1/GPa)
#
#
# Indices 1 2 3 4 5 6 
#
# 1 0.011974 -0.005504 -0.002422 0.000000 0.000000 0.000000
# 2 -0.005504 0.030693 -0.002100 0.000000 0.000000 0.000000
# 3 -0.002422 -0.002100 0.010586 0.000000 0.000000 0.000000
# 4 0.000000 0.000000 0.000000 0.027869 0.000000 0.000000
# 5 0.000000 0.000000 0.000000 0.000000 0.038726 0.000000
# 6 0.000000 0.000000 0.000000 0.000000 0.000000 0.037484
#
#
# Mechanical properties :
#
#
# Convention : Reuss Voigt Hill
#
# Bulk Modulus (GPa) = 30.11782 39.07948 34.59865
# Shear Modulus (GPa) = 26.53223 29.68299 28.10761
#
# Velocity S-wave (km/s) = 3.62892 3.83834 3.73510
# Velocity P-wave (km/s) = 5.70153 6.24825 5.98114
#
# Compressibility (1/GPa) = 0.03320293
#
# Stress axis : x y z
#
# Youngs Moduli (GPa) = 83.51606 32.58055 94.46065
#
# Poissons Ratio (x) = 0.17931 0.22875
# Poissons Ratio (y) = 0.45964 0.19836
# Poissons Ratio (z) = 0.20225 0.06842
#
# Static dielectric constant tensor:
#      x y z
#    x 3.817420 0.000000 0.000000 
#    y 0.000000 3.488820 0.000000 
#    z 0.000000 0.000000 3.736730 
# 
# 
# High freq. dielectric constant tensor:
#      x y z
#    x 1.798420 0.000000 0.000000 
#    y 0.000000 1.778100 0.000000 
#    z 0.000000 0.000000 1.794450 
# 
# From -- ./inp_files/15785.got.cif
#   From: 2010.03.12/outbox.cif.g09.slc.cpg/sg62_8_cif.got.tgz:15785.got - 2010.04.10 19:12:36.
