data_PCOD8254077
_publ_section_title
;
Structure prediction by ZEFSAII (Michael W. Deem and Ramdas Pophale) SiO2 
 PCOD8254077
Probable space group: P N M A
;
_chemical_formula_sum "Si O2"
_cell_formula_units_Z 40
_cell_length_a 18.070411
_cell_length_b 8.438108
_cell_length_c 13.360953
_cell_angle_alpha 90.000000
_cell_angle_beta 90.000000
_cell_angle_gamma 90.000000
_cell_volume 2037.279177
_symmetry_space_group_name_H-M "P N M A"
_symmetry_group_IT_number 62
_symmetry_cell_setting 'orthorhombic'
loop_
_space_group_symop_operation_xyz
x,y,z
1/2-x,-y,1/2+z
1/2+x,1/2-y,1/2-z
-x,1/2+y,-z
-x,-y,-z
1/2+x,y,1/2-z
1/2-x,1/2+y,1/2+z
x,1/2-y,z
loop_
_atom_site_type_symbol
_atom_site_label
_atom_site_fract_x
_atom_site_fract_y
_atom_site_fract_z
Si Si1 0.335559 0.067146 0.419231
Si Si2 0.691678 0.564559 0.176084
Si Si3 0.976064 0.938266 0.189197
Si Si4 0.627455 0.065211 0.373533
Si Si5 0.035006 0.564301 0.399903
O O1 0.342529 0.250000 0.449222
O O2 0.259764 0.038924 0.360695
O O3 0.401554 0.020218 0.345804
O O4 0.335750 0.961197 0.518735
O O5 0.709481 0.750000 0.164695
O O6 0.675891 0.528051 0.292082
O O7 0.620513 0.512413 0.110303
O O8 0.969252 0.750000 0.179164
O O9 0.989486 0.995497 0.303307
O O10 0.044291 0.996978 0.121424
O O11 0.626444 0.250000 0.347147
O O12 0.030195 0.750000 0.402611
O O13 0.000000 0.500000 0.500000
#
# Coordination Sequence:
#
# PCOD8254077 Si02
#       5
#     8   8   8   8   8
#     4  12  24  38  59  88 117 152 193 238 291 347
#     4  10  22  41  59  83 117 152 191 239 289 343
#     4  10  21  39  59  84 116 152 193 240 288 343
#     4  11  22  39  61  85 114 151 191 238 291 347
#     4   9  20  37  60  84 112 149 189 231 281 336
#
# _framework density 19.634031
#
# number of rings (size 3 to 8) (size 9 to 14) (size 15 to 20)
#    0.000    1.600    0.000    6.600    0.000    6.400 
#    0.000    4.000    0.000    0.000    0.000    0.000 
#    0.000    0.000    0.000    0.000    0.000    0.000 
#
# Total GULP energy -496180.482655 kJ/mol
# GULP energy per Si atom -12404.512066 kJ/mol
# Density = 1.958934 g / cm^3
# Si number density = 19.634031 Si / 1000 Ang^3
#
#
#
# Elastic Constant Matrix: (Units=GPa)
#
#
# Indices 1 2 3 4 5 6 
#
# 1 127.3711 25.5208 60.4950 0.0000 0.0000 0.0000
# 2 25.5208 62.5683 20.2055 0.0000 0.0000 0.0000
# 3 60.4950 20.2055 92.6442 0.0000 0.0000 0.0000
# 4 0.0000 0.0000 0.0000 36.9212 0.0000 0.0000
# 5 0.0000 0.0000 0.0000 0.0000 23.3721 0.0000
# 6 0.0000 0.0000 0.0000 0.0000 0.0000 34.6232
#
#
#
# Elastic Compliance Matrix: (Units=1/GPa)
#
#
# Indices 1 2 3 4 5 6 
#
# 1 0.011729 -0.002486 -0.007117 0.000000 0.000000 0.000000
# 2 -0.002486 0.017720 -0.002241 0.000000 0.000000 0.000000
# 3 -0.007117 -0.002241 0.015930 0.000000 0.000000 0.000000
# 4 0.000000 0.000000 0.000000 0.027085 0.000000 0.000000
# 5 0.000000 0.000000 0.000000 0.000000 0.042786 0.000000
# 6 0.000000 0.000000 0.000000 0.000000 0.000000 0.028882
#
#
# Mechanical properties :
#
#
# Convention : Reuss Voigt Hill
#
# Bulk Modulus (GPa) = 46.10180 55.00290 50.55235
# Shear Modulus (GPa) = 28.56297 30.74079 29.65188
#
# Velocity S-wave (km/s) = 3.81828 3.96117 3.89038
# Velocity P-wave (km/s) = 6.55519 6.99972 6.78110
#
# Compressibility (1/GPa) = 0.02169113
#
# Stress axis : x y z
#
# Youngs Moduli (GPa) = 85.25633 56.43223 62.77449
#
# Poissons Ratio (x) = 0.14029 0.44676
# Poissons Ratio (y) = 0.21194 0.14071
# Poissons Ratio (z) = 0.60676 0.12649
#
# Static dielectric constant tensor:
#      x y z
#    x 3.593960 0.000000 0.000000 
#    y 0.000000 3.650700 0.000000 
#    z 0.000000 0.000000 3.398540 
# 
# 
# High freq. dielectric constant tensor:
#      x y z
#    x 1.766500 0.000000 0.000000 
#    y 0.000000 1.774650 0.000000 
#    z 0.000000 0.000000 1.769940 
# 
# From -- ./inp_files/13853.got.cif
#   From: 2010.03.12/outbox.cif.g09.slc.cpg/sg62_7_cif.got.tgz:13853.got - 2010.04.10 19:12:36.
