data_PCOD8254718
_publ_section_title
;
Structure prediction by ZEFSAII (Michael W. Deem and Ramdas Pophale) SiO2 
 PCOD8254718
Probable space group: P N M A
;
_chemical_formula_sum "Si O2"
_cell_formula_units_Z 40
_cell_length_a 10.000573
_cell_length_b 21.112465
_cell_length_c 10.092546
_cell_angle_alpha 90.000000
_cell_angle_beta 90.000000
_cell_angle_gamma 90.000000
_cell_volume 2130.907336
_symmetry_space_group_name_H-M "P N M A"
_symmetry_group_IT_number 62
_symmetry_cell_setting 'orthorhombic'
loop_
_space_group_symop_operation_xyz
x,y,z
1/2-x,-y,1/2+z
1/2+x,1/2-y,1/2-z
-x,1/2+y,-z
-x,-y,-z
1/2+x,y,1/2-z
1/2-x,1/2+y,1/2+z
x,1/2-y,z
loop_
_atom_site_type_symbol
_atom_site_label
_atom_site_fract_x
_atom_site_fract_y
_atom_site_fract_z
Si Si1 0.031252 0.112549 0.019128
Si Si2 0.464507 0.750000 0.623749
Si Si3 0.612758 0.032717 0.229762
Si Si4 0.366806 0.944800 0.249684
Si Si5 0.779480 0.882205 0.505802
Si Si6 0.766467 0.750000 0.631951
O O1 0.056321 0.187597 0.034459
O O2 0.098897 0.073975 0.137642
O O3 0.874493 0.095109 0.014953
O O4 0.101647 0.091026 0.885114
O O5 0.613850 0.750000 0.684905
O O6 0.359965 0.750000 0.741532
O O7 0.628725 0.079598 0.107327
O O8 0.485329 0.989727 0.202085
O O9 0.738681 0.988008 0.238024
O O10 0.338228 0.891424 0.140333
O O11 0.794626 0.808912 0.538024
#
# Coordination Sequence:
#
# PCOD8254718 Si02
#       6
#     8   4   8   8   8   4
#     4  11  23  43  64  93 130 160 207 264 307 363
#     4  10  22  43  68  88 120 166 206 257 312 360
#     4  12  22  40  67  89 130 167 203 255 308 371
#     4  12  24  40  63  93 130 167 202 252 317 366
#     4  11  23  42  65  93 126 164 209 259 308 369
#     4  10  22  43  66  90 120 162 210 259 306 368
#
# _framework density 18.771346999999999
#
# number of rings (size 3 to 8) (size 9 to 14) (size 15 to 20)
#    0.000    0.800    6.000    2.400    0.000    0.800 
#    3.600    0.000    0.000    0.000    0.000    0.000 
#    0.000    0.000    0.000    0.000    0.000    0.000 
#
# Total GULP energy -496178.472789 kJ/mol
# GULP energy per Si atom -12404.461820 kJ/mol
# Density = 1.872862 g / cm^3
# Si number density = 18.771347 Si / 1000 Ang^3
#
#
#
# Elastic Constant Matrix: (Units=GPa)
#
#
# Indices 1 2 3 4 5 6 
#
# 1 96.0252 63.1772 29.5576 0.0000 0.0000 0.0000
# 2 63.1772 127.7790 53.0524 0.0000 0.0000 0.0000
# 3 29.5576 53.0524 118.9747 0.0000 0.0000 0.0000
# 4 0.0000 0.0000 0.0000 105.2471 0.0000 0.0000
# 5 0.0000 0.0000 0.0000 0.0000 34.7578 0.0000
# 6 0.0000 0.0000 0.0000 0.0000 0.0000 17.7008
#
#
#
# Elastic Compliance Matrix: (Units=1/GPa)
#
#
# Indices 1 2 3 4 5 6 
#
# 1 0.015462 -0.007424 -0.000531 0.000000 0.000000 0.000000
# 2 -0.007424 0.013169 -0.004028 0.000000 0.000000 0.000000
# 3 -0.000531 -0.004028 0.010333 0.000000 0.000000 0.000000
# 4 0.000000 0.000000 0.000000 0.009501 0.000000 0.000000
# 5 0.000000 0.000000 0.000000 0.000000 0.028771 0.000000
# 6 0.000000 0.000000 0.000000 0.000000 0.000000 0.056495
#
#
# Mechanical properties :
#
#
# Convention : Reuss Voigt Hill
#
# Bulk Modulus (GPa) = 66.67400 70.48368 68.57884
# Shear Modulus (GPa) = 30.73212 44.67392 37.70302
#
# Velocity S-wave (km/s) = 4.05060 4.88371 4.48654
# Velocity P-wave (km/s) = 7.58107 8.33252 7.96566
#
# Compressibility (1/GPa) = 0.01499835
#
# Stress axis : x y z
#
# Youngs Moduli (GPa) = 64.67462 75.93498 96.77713
#
# Poissons Ratio (x) = 0.56378 0.05135
# Poissons Ratio (y) = 0.48018 0.38980
# Poissons Ratio (z) = 0.03432 0.30585
#
# Static dielectric constant tensor:
#      x y z
#    x 3.609840 0.000000 0.000000 
#    y 0.000000 3.655700 0.000000 
#    z 0.000000 0.000000 3.501040 
# 
# 
# High freq. dielectric constant tensor:
#      x y z
#    x 1.740480 0.000000 0.000000 
#    y 0.000000 1.743740 0.000000 
#    z 0.000000 0.000000 1.730670 
# 
# From -- ./inp_files/4329.got.cif
#   From: 2010.03.12/outbox.cif.g09.slc.cpg/sg62_3_cif.got.tgz:4329.got - 2010.04.10 19:12:36.
