data_PCOD8254979
_publ_section_title
;
Structure prediction by ZEFSAII (Michael W. Deem and Ramdas Pophale) SiO2 
 PCOD8254979
Probable space group: P N M A
;
_chemical_formula_sum "Si O2"
_cell_formula_units_Z 48
_cell_length_a 9.780216
_cell_length_b 14.030619
_cell_length_c 17.623406
_cell_angle_alpha 90.000000
_cell_angle_beta 90.000000
_cell_angle_gamma 90.000000
_cell_volume 2418.327556
_symmetry_space_group_name_H-M "P N M A"
_symmetry_group_IT_number 62
_symmetry_cell_setting 'orthorhombic'
loop_
_space_group_symop_operation_xyz
x,y,z
1/2-x,-y,1/2+z
1/2+x,1/2-y,1/2-z
-x,1/2+y,-z
-x,-y,-z
1/2+x,y,1/2-z
1/2-x,1/2+y,1/2+z
x,1/2-y,z
loop_
_atom_site_type_symbol
_atom_site_label
_atom_site_fract_x
_atom_site_fract_y
_atom_site_fract_z
Si Si1 0.521499 0.457651 0.582673
Si Si2 0.661004 0.250000 0.321979
Si Si3 0.965274 0.750000 0.037849
Si Si4 0.381402 0.250000 0.376059
Si Si5 0.216161 0.041108 0.181865
Si Si6 0.235497 0.447962 0.347698
Si Si7 0.812817 0.250000 0.472024
Si Si8 0.955066 0.439770 0.428838
O O1 0.500000 0.500000 0.500000
O O2 0.489499 0.344890 0.583562
O O3 0.428651 0.511371 0.645474
O O4 0.680261 0.478264 0.600476
O O5 0.498427 0.250000 0.311736
O O6 0.722736 0.347775 0.290239
O O7 0.695112 0.250000 0.410000
O O8 0.796927 0.750000 0.040664
O O9 0.050082 0.750000 0.959271
O O10 0.293772 0.342828 0.359960
O O11 0.242177 0.998595 0.265111
O O12 0.329976 0.014910 0.119196
O O13 0.078628 0.435439 0.370477
O O14 0.912370 0.339619 0.465496
O O15 0.000000 0.500000 0.500000
#
# Coordination Sequence:
#
# PCOD8254979 Si02
#       8
#     8   4   4   4   8   8   4   8
#     4  12  22  42  68  90 122 171 226 264 305 392
#     4   9  17  36  59  86 126 158 197 243 318 384
#     4  11  22  39  68  95 116 167 232 264 305 371
#     4  11  20  35  65  96 124 157 209 257 308 390
#     4  11  23  40  61  91 131 168 203 266 323 383
#     4  12  23  38  62  96 129 165 208 261 328 383
#     4   9  19  38  56  87 124 156 192 262 315 355
#     4  11  23  38  58  89 125 163 200 251 321 372
#
# _framework density 19.848427000000001
#
# number of rings (size 3 to 8) (size 9 to 14) (size 15 to 20)
#    0.000    1.000    3.333    6.000    0.000    0.000 
#    0.000    0.833    0.000    2.000    0.000    0.000 
#    0.000    0.000    0.000    0.000    0.000    0.000 
#
# Total GULP energy -594631.559945 kJ/mol
# GULP energy per Si atom -12388.157499 kJ/mol
# Density = 1.980325 g / cm^3
# Si number density = 19.848427 Si / 1000 Ang^3
#
#
#
# Elastic Constant Matrix: (Units=GPa)
#
#
# Indices 1 2 3 4 5 6 
#
# 1 104.3651 23.9042 31.1050 0.0000 0.0000 0.0000
# 2 23.9042 99.4901 37.1976 0.0000 0.0000 0.0000
# 3 31.1050 37.1976 97.8543 0.0000 0.0000 0.0000
# 4 0.0000 0.0000 0.0000 16.1492 0.0000 0.0000
# 5 0.0000 0.0000 0.0000 0.0000 31.8536 0.0000
# 6 0.0000 0.0000 0.0000 0.0000 0.0000 34.6894
#
#
#
# Elastic Compliance Matrix: (Units=1/GPa)
#
#
# Indices 1 2 3 4 5 6 
#
# 1 0.010780 -0.001526 -0.002847 0.000000 0.000000 0.000000
# 2 -0.001526 0.011932 -0.004051 0.000000 0.000000 0.000000
# 3 -0.002847 -0.004051 0.012664 0.000000 0.000000 0.000000
# 4 0.000000 0.000000 0.000000 0.061923 0.000000 0.000000
# 5 0.000000 0.000000 0.000000 0.000000 0.031394 0.000000
# 6 0.000000 0.000000 0.000000 0.000000 0.000000 0.028827
#
#
# Mechanical properties :
#
#
# Convention : Reuss Voigt Hill
#
# Bulk Modulus (GPa) = 53.96757 54.01368 53.99062
# Shear Modulus (GPa) = 27.69432 30.50528 29.09980
#
# Velocity S-wave (km/s) = 3.73941 3.92460 3.83312
# Velocity P-wave (km/s) = 6.77445 6.91439 6.84478
#
# Compressibility (1/GPa) = 0.01852965
#
# Stress axis : x y z
#
# Youngs Moduli (GPa) = 92.76794 83.80544 78.96410
#
# Poissons Ratio (x) = 0.12786 0.22477
# Poissons Ratio (y) = 0.14154 0.31988
# Poissons Ratio (z) = 0.26407 0.33949
#
# Static dielectric constant tensor:
#      x y z
#    x 3.560430 0.000000 0.000000 
#    y 0.000000 5.116600 0.000000 
#    z 0.000000 0.000000 3.581360 
# 
# 
# High freq. dielectric constant tensor:
#      x y z
#    x 1.789190 0.000000 0.000000 
#    y 0.000000 1.757470 0.000000 
#    z 0.000000 0.000000 1.767500 
# 
# From -- ./inp_files/22265.got.cif
#   From: 2010.03.12/outbox.cif.g09.slc.cpg/sg62_12_cif.got.tgz:22265.got - 2010.04.10 19:12:36.
