data_PCOD8254802
_publ_section_title
;
Structure prediction by ZEFSAII (Michael W. Deem and Ramdas Pophale) SiO2 
 PCOD8254802
Probable space group: P N M A
;
_chemical_formula_sum "Si O2"
_cell_formula_units_Z 56
_cell_length_a 9.354210
_cell_length_b 14.089680
_cell_length_c 20.512960
_cell_angle_alpha 90.000000
_cell_angle_beta 90.000000
_cell_angle_gamma 90.000000
_cell_volume 2703.563524
_symmetry_space_group_name_H-M "P N M A"
_symmetry_group_IT_number 62
_symmetry_cell_setting 'orthorhombic'
loop_
_space_group_symop_operation_xyz
x,y,z
1/2-x,-y,1/2+z
1/2+x,1/2-y,1/2-z
-x,1/2+y,-z
-x,-y,-z
1/2+x,y,1/2-z
1/2-x,1/2+y,1/2+z
x,1/2-y,z
loop_
_atom_site_type_symbol
_atom_site_label
_atom_site_fract_x
_atom_site_fract_y
_atom_site_fract_z
Si Si1 0.506886 0.913405 0.750222
Si Si2 0.404417 0.512169 0.365270
Si Si3 0.172351 0.361269 0.370040
Si Si4 0.742478 0.351536 0.328188
Si Si5 0.306343 0.989482 0.563378
Si Si6 0.768532 0.138137 0.551664
Si Si7 0.088641 0.142004 0.515341
O O1 0.416934 0.922490 0.816778
O O2 0.419510 0.851571 0.697576
O O3 0.656602 0.862687 0.765101
O O4 0.542566 0.012484 0.711032
O O5 0.326907 0.410284 0.378061
O O6 0.536822 0.521758 0.414677
O O7 0.293599 0.598533 0.379434
O O8 0.186141 0.250000 0.350187
O O9 0.085694 0.370676 0.437522
O O10 0.773327 0.250000 0.362054
O O11 0.774935 0.434529 0.378691
O O12 0.321530 0.917453 0.503104
O O13 0.213646 0.081318 0.547463
O O14 0.742553 0.250000 0.546217
O O15 0.934919 0.110520 0.543717
O O16 0.121202 0.250000 0.534827
#
# Coordination Sequence:
#
# PCOD8254802 Si02
#       7
#     8   8   8   8   8   8   8
#     4  11  23  38  58  87 126 166 211 256 316 380
#     4  11  25  40  61  96 130 170 214 260 324 380
#     4  11  22  38  63  93 132 170 209 263 319 388
#     4  11  22  35  57  90 127 166 207 257 316 380
#     4  11  23  39  61  96 132 165 211 262 316 383
#     4  11  23  41  64  92 127 168 215 263 316 378
#     4  10  23  41  66  97 129 171 214 261 323 388
#
# _framework density 20.713404000000001
#
# number of rings (size 3 to 8) (size 9 to 14) (size 15 to 20)
#    0.000    1.143    2.857    3.429    2.000    5.143 
#    0.000    0.000    0.000    1.714    0.000    0.000 
#    0.000    0.000    0.000    0.000    0.000    0.000 
#
# Total GULP energy -694109.089860 kJ/mol
# GULP energy per Si atom -12394.805176 kJ/mol
# Density = 2.066626 g / cm^3
# Si number density = 20.713404 Si / 1000 Ang^3
#
#
#
# Elastic Constant Matrix: (Units=GPa)
#
#
# Indices 1 2 3 4 5 6 
#
# 1 123.8728 54.4343 55.9158 0.0000 0.0000 0.0000
# 2 54.4343 96.0410 57.1342 0.0000 0.0000 0.0000
# 3 55.9158 57.1342 99.1043 0.0000 0.0000 0.0000
# 4 0.0000 0.0000 0.0000 25.1479 0.0000 0.0000
# 5 0.0000 0.0000 0.0000 0.0000 34.5968 0.0000
# 6 0.0000 0.0000 0.0000 0.0000 0.0000 18.1781
#
#
#
# Elastic Compliance Matrix: (Units=1/GPa)
#
#
# Indices 1 2 3 4 5 6 
#
# 1 0.011832 -0.004162 -0.004276 0.000000 0.000000 0.000000
# 2 -0.004162 0.017311 -0.007632 0.000000 0.000000 0.000000
# 3 -0.004276 -0.007632 0.016903 0.000000 0.000000 0.000000
# 4 0.000000 0.000000 0.000000 0.039765 0.000000 0.000000
# 5 0.000000 0.000000 0.000000 0.000000 0.028904 0.000000
# 6 0.000000 0.000000 0.000000 0.000000 0.000000 0.055011
#
#
# Mechanical properties :
#
#
# Convention : Reuss Voigt Hill
#
# Bulk Modulus (GPa) = 71.91223 72.66519 72.28871
# Shear Modulus (GPa) = 24.21279 25.68683 24.94981
#
# Velocity S-wave (km/s) = 3.42269 3.52534 3.47439
# Velocity P-wave (km/s) = 7.10020 7.19222 7.14636
#
# Compressibility (1/GPa) = 0.01390584
#
# Stress axis : x y z
#
# Youngs Moduli (GPa) = 84.51538 57.76545 59.16193
#
# Poissons Ratio (x) = 0.24044 0.25299
# Poissons Ratio (y) = 0.35178 0.45150
# Poissons Ratio (z) = 0.36141 0.44085
#
# Static dielectric constant tensor:
#      x y z
#    x 3.891500 0.000000 0.000000 
#    y 0.000000 3.642890 0.000000 
#    z 0.000000 0.000000 3.945510 
# 
# 
# High freq. dielectric constant tensor:
#      x y z
#    x 1.830920 0.000000 0.000000 
#    y 0.000000 1.781720 0.000000 
#    z 0.000000 0.000000 1.807500 
# 
# From -- ./inp_files/25988.got.cif
#   From: 2010.03.12/outbox.cif.g09.slc.cpg/sg62_13_cif.got.tgz:25988.got - 2010.04.10 19:12:36.
