data_PCOD8254632
_publ_section_title
;
Structure prediction by ZEFSAII (Michael W. Deem and Ramdas Pophale) SiO2 
 PCOD8254632
Probable space group: P N M A
;
_chemical_formula_sum "Si O2"
_cell_formula_units_Z 56
_cell_length_a 14.061644
_cell_length_b 29.779051
_cell_length_c 6.742715
_cell_angle_alpha 90.000000
_cell_angle_beta 90.000000
_cell_angle_gamma 90.000000
_cell_volume 2823.460755
_symmetry_space_group_name_H-M "P N M A"
_symmetry_group_IT_number 62
_symmetry_cell_setting 'orthorhombic'
loop_
_space_group_symop_operation_xyz
x,y,z
1/2-x,-y,1/2+z
1/2+x,1/2-y,1/2-z
-x,1/2+y,-z
-x,-y,-z
1/2+x,y,1/2-z
1/2-x,1/2+y,1/2+z
x,1/2-y,z
loop_
_atom_site_type_symbol
_atom_site_label
_atom_site_fract_x
_atom_site_fract_y
_atom_site_fract_z
Si Si1 0.550566 0.949286 0.809196
Si Si2 0.791346 0.158474 0.791529
Si Si3 0.197419 0.937310 0.024477
Si Si4 0.936507 0.300681 0.073950
Si Si5 0.051802 0.854029 0.530110
Si Si6 0.913169 0.697618 0.254582
Si Si7 0.140306 0.494378 0.357061
O O1 0.601648 0.935048 0.605960
O O2 0.450763 0.972068 0.751599
O O3 0.529255 0.906620 0.949028
O O4 0.614234 0.984688 0.930175
O O5 0.773887 0.111941 0.904177
O O6 0.693048 0.180385 0.724237
O O7 0.852299 0.151407 0.594170
O O8 0.844819 0.193131 0.935060
O O9 0.182403 0.967869 0.215589
O O10 0.281950 0.955832 0.888609
O O11 0.937361 0.250000 0.154189
O O12 0.929495 0.334183 0.254886
O O13 0.031889 0.311470 0.950490
O O14 0.961977 0.829790 0.431825
O O15 0.915475 0.750000 0.311189
#
# Coordination Sequence:
#
# PCOD8254632 Si02
#       7
#     8   8   8   8   8   8   8
#     4  11  23  42  62  89 126 163 209 251 312 368
#     4  11  23  40  66  92 127 161 209 263 312 371
#     4  12  22  43  61  95 125 161 211 255 308 370
#     4  10  22  41  64  91 125 163 204 257 316 375
#     4  11  22  42  63  92 123 163 209 259 309 379
#     4  10  23  42  62  91 124 160 206 256 315 377
#     4  11  24  40  64  90 126 166 204 258 310 366
#
# _framework density 19.833815000000001
#
# number of rings (size 3 to 8) (size 9 to 14) (size 15 to 20)
#    0.000    1.143    4.286    2.143    0.000    2.857 
#    5.143    1.429    0.000    0.000    0.000    0.000 
#    0.000    0.000    0.000    0.000    0.000    0.000 
#
# Total GULP energy -694765.366612 kJ/mol
# GULP energy per Si atom -12406.524404 kJ/mol
# Density = 1.978867 g / cm^3
# Si number density = 19.833815 Si / 1000 Ang^3
#
#
#
# Elastic Constant Matrix: (Units=GPa)
#
#
# Indices 1 2 3 4 5 6 
#
# 1 89.1259 26.6652 13.3379 0.0000 0.0000 0.0000
# 2 26.6652 82.6175 12.9086 0.0000 0.0000 0.0000
# 3 13.3379 12.9086 56.9431 0.0000 0.0000 0.0000
# 4 0.0000 0.0000 0.0000 34.6593 0.0000 0.0000
# 5 0.0000 0.0000 0.0000 0.0000 24.5257 0.0000
# 6 0.0000 0.0000 0.0000 0.0000 0.0000 30.5577
#
#
#
# Elastic Compliance Matrix: (Units=1/GPa)
#
#
# Indices 1 2 3 4 5 6 
#
# 1 0.012660 -0.003756 -0.002114 0.000000 0.000000 0.000000
# 2 -0.003756 0.013663 -0.002217 0.000000 0.000000 0.000000
# 3 -0.002114 -0.002217 0.018559 0.000000 0.000000 0.000000
# 4 0.000000 0.000000 0.000000 0.028852 0.000000 0.000000
# 5 0.000000 0.000000 0.000000 0.000000 0.040774 0.000000
# 6 0.000000 0.000000 0.000000 0.000000 0.000000 0.032725
#
#
# Mechanical properties :
#
#
# Convention : Reuss Voigt Hill
#
# Bulk Modulus (GPa) = 34.83420 37.16777 36.00099
# Shear Modulus (GPa) = 28.90565 29.66687 29.28626
#
# Velocity S-wave (km/s) = 3.82172 3.87172 3.84680
# Velocity P-wave (km/s) = 6.08894 6.22633 6.15802
#
# Compressibility (1/GPa) = 0.02870742
#
# Stress axis : x y z
#
# Youngs Moduli (GPa) = 78.98811 73.19222 53.88154
#
# Poissons Ratio (x) = 0.27490 0.11390
# Poissons Ratio (y) = 0.29667 0.11948
# Poissons Ratio (z) = 0.16698 0.16230
#
# Static dielectric constant tensor:
#      x y z
#    x 3.631770 0.000000 0.000000 
#    y 0.000000 3.747570 0.000000 
#    z 0.000000 0.000000 3.465170 
# 
# 
# High freq. dielectric constant tensor:
#      x y z
#    x 1.776890 0.000000 0.000000 
#    y 0.000000 1.789150 0.000000 
#    z 0.000000 0.000000 1.772290 
# 
# From -- ./inp_files/1257.got.cif
#   From: 2010.03.12/outbox.cif.g09.slc.cpg/sg62_1_cif.got.tgz:1257.got - 2010.04.10 19:12:36.
