data_PCOD8254392
_publ_section_title
;
Structure prediction by ZEFSAII (Michael W. Deem and Ramdas Pophale) SiO2 
 PCOD8254392
Probable space group: P N M A
;
_chemical_formula_sum "Si O2"
_cell_formula_units_Z 32
_cell_length_a 9.583096
_cell_length_b 5.215004
_cell_length_c 28.283034
_cell_angle_alpha 90.000000
_cell_angle_beta 90.000000
_cell_angle_gamma 90.000000
_cell_volume 1413.469626
_symmetry_space_group_name_H-M "P N M A"
_symmetry_group_IT_number 62
_symmetry_cell_setting 'orthorhombic'
loop_
_space_group_symop_operation_xyz
x,y,z
1/2-x,-y,1/2+z
1/2+x,1/2-y,1/2-z
-x,1/2+y,-z
-x,-y,-z
1/2+x,y,1/2-z
1/2-x,1/2+y,1/2+z
x,1/2-y,z
loop_
_atom_site_type_symbol
_atom_site_label
_atom_site_fract_x
_atom_site_fract_y
_atom_site_fract_z
Si Si1 0.958215 0.750000 0.624939
Si Si2 0.413163 0.750000 0.983850
Si Si3 0.504611 0.250000 0.384554
Si Si4 0.108719 0.750000 0.149451
Si Si5 0.088742 0.750000 0.985395
Si Si6 0.417188 0.750000 0.163563
Si Si7 0.791007 0.250000 0.197554
Si Si8 0.107957 0.250000 0.765902
O O1 0.047518 0.495087 0.632131
O O2 0.897386 0.750000 0.572556
O O3 0.842168 0.750000 0.664771
O O4 0.251556 0.750000 0.003768
O O5 0.500000 0.500000 0.000000
O O6 0.598623 0.505659 0.385529
O O7 0.399802 0.250000 0.428586
O O8 0.425328 0.250000 0.335278
O O9 0.254644 0.750000 0.175701
O O10 0.992620 0.750000 0.189439
O O11 0.000000 0.500000 0.000000
O O12 0.481204 0.750000 0.216784
O O13 0.793646 0.498715 0.231254
#
# Coordination Sequence:
#
# PCOD8254392 Si02
#       8
#     4   4   4   4   4   4   4   4
#     4  12  26  44  70  98 135 185 230 278 355 426
#     4  12  28  50  74 106 149 193 245 305 379 443
#     4  10  21  43  65  90 123 170 215 270 333 406
#     4  10  23  39  64  91 131 169 219 275 334 395
#     4  12  26  44  73 107 135 178 241 300 362 439
#     4  12  26  41  64 104 138 176 229 282 345 419
#     4  10  21  42  68  88 127 171 223 264 322 410
#     4  10  23  41  64  96 128 178 214 280 334 386
#
# _framework density 22.639326000000001
#
# number of rings (size 3 to 8) (size 9 to 14) (size 15 to 20)
#    0.000    1.000    1.250    4.500    3.500    6.000 
#    0.000    0.000    0.000    0.000    0.000    0.000 
#    0.000    0.000    0.000    0.000    0.000    0.000 
#
# Total GULP energy -396673.060127 kJ/mol
# GULP energy per Si atom -12396.033129 kJ/mol
# Density = 2.258780 g / cm^3
# Si number density = 22.639326 Si / 1000 Ang^3
#
#
#
# Elastic Constant Matrix: (Units=GPa)
#
#
# Indices 1 2 3 4 5 6 
#
# 1 120.4888 65.1479 13.9565 0.0000 0.0000 0.0000
# 2 65.1479 218.5413 26.2623 0.0000 0.0000 0.0000
# 3 13.9565 26.2623 72.5309 0.0000 0.0000 0.0000
# 4 0.0000 0.0000 0.0000 23.9044 0.0000 0.0000
# 5 0.0000 0.0000 0.0000 0.0000 31.9976 0.0000
# 6 0.0000 0.0000 0.0000 0.0000 0.0000 23.6314
#
#
#
# Elastic Compliance Matrix: (Units=1/GPa)
#
#
# Indices 1 2 3 4 5 6 
#
# 1 0.009948 -0.002860 -0.000879 0.000000 0.000000 0.000000
# 2 -0.002860 0.005606 -0.001480 0.000000 0.000000 0.000000
# 3 -0.000879 -0.001480 0.014492 0.000000 0.000000 0.000000
# 4 0.000000 0.000000 0.000000 0.041833 0.000000 0.000000
# 5 0.000000 0.000000 0.000000 0.000000 0.031252 0.000000
# 6 0.000000 0.000000 0.000000 0.000000 0.000000 0.042317
#
#
# Mechanical properties :
#
#
# Convention : Reuss Voigt Hill
#
# Bulk Modulus (GPa) = 50.99532 69.14381 60.06956
# Shear Modulus (GPa) = 30.78429 36.31966 33.55197
#
# Velocity S-wave (km/s) = 3.69151 4.00968 3.85388
# Velocity P-wave (km/s) = 6.38307 7.21419 6.81132
#
# Compressibility (1/GPa) = 0.01960964
#
# Stress axis : x y z
#
# Youngs Moduli (GPa) = 100.52678 178.37648 69.00344
#
# Poissons Ratio (x) = 0.51013 0.06063
# Poissons Ratio (y) = 0.28749 0.10210
# Poissons Ratio (z) = 0.08833 0.26392
#
# Static dielectric constant tensor:
#      x y z
#    x 3.983890 0.000000 0.000000 
#    y 0.000000 4.691660 0.000000 
#    z 0.000000 0.000000 4.015660 
# 
# 
# High freq. dielectric constant tensor:
#      x y z
#    x 1.883910 0.000000 0.000000 
#    y 0.000000 1.916590 0.000000 
#    z 0.000000 0.000000 1.894520 
# 
# From -- ./inp_files/30618.got.cif
#   From: 2010.03.12/outbox.cif.g09.slc.cpg/sg62_16_cif.got.tgz:30618.got - 2010.04.10 19:12:36.
