data_PCOD8254904
_publ_section_title
;
Structure prediction by ZEFSAII (Michael W. Deem and Ramdas Pophale) SiO2 
 PCOD8254904
Probable space group: P N M A
;
_chemical_formula_sum "Si O2"
_cell_formula_units_Z 64
_cell_length_a 11.846416
_cell_length_b 8.721513
_cell_length_c 30.483324
_cell_angle_alpha 90.000000
_cell_angle_beta 90.000000
_cell_angle_gamma 90.000000
_cell_volume 3149.496528
_symmetry_space_group_name_H-M "P N M A"
_symmetry_group_IT_number 62
_symmetry_cell_setting 'orthorhombic'
loop_
_space_group_symop_operation_xyz
x,y,z
1/2-x,-y,1/2+z
1/2+x,1/2-y,1/2-z
-x,1/2+y,-z
-x,-y,-z
1/2+x,y,1/2-z
1/2-x,1/2+y,1/2+z
x,1/2-y,z
loop_
_atom_site_type_symbol
_atom_site_label
_atom_site_fract_x
_atom_site_fract_y
_atom_site_fract_z
Si Si1 0.409197 0.930153 0.628050
Si Si2 0.743446 0.071284 0.168575
Si Si3 0.352945 0.430659 0.126264
Si Si4 0.549387 0.073210 0.705519
Si Si5 0.470190 0.575149 0.454525
Si Si6 0.231153 0.577418 0.420201
Si Si7 0.490003 0.571868 0.952520
Si Si8 0.512942 0.926651 0.194883
O O1 0.426205 0.750000 0.634342
O O2 0.278090 0.974046 0.622832
O O3 0.458041 0.012783 0.670874
O O4 0.473732 0.981094 0.584587
O O5 0.752862 0.250000 0.158787
O O6 0.780940 0.975547 0.126162
O O7 0.616723 0.032432 0.181451
O O8 0.833666 0.021542 0.205169
O O9 0.371817 0.250000 0.132930
O O10 0.415215 0.488112 0.081694
O O11 0.403274 0.518680 0.168226
O O12 0.575209 0.250000 0.695316
O O13 0.501272 0.049786 0.753711
O O14 0.500000 0.500000 0.500000
O O15 0.513324 0.750000 0.452100
O O16 0.334535 0.569065 0.453672
O O17 0.182432 0.750000 0.417569
O O18 0.132947 0.462280 0.433597
O O19 0.506203 0.750000 0.959028
O O20 0.500000 0.500000 0.000000
O O21 0.538232 0.750000 0.183409
#
# Coordination Sequence:
#
# PCOD8254904 Si02
#       8
#     8   8   8   8   8   8   8   8
#     4  11  24  43  66  94 130 171 213 264 322 381
#     4  12  24  41  68  96 127 167 213 267 322 381
#     4  10  24  44  64  92 131 169 213 264 317 377
#     4  11  25  44  65  95 130 169 216 265 318 381
#     4  11  25  43  66  95 130 169 213 267 319 383
#     4  11  23  42  67  94 127 166 211 268 323 378
#     4  11  24  42  65  95 129 169 214 265 318 382
#     4  11  25  43  67  95 129 171 214 263 320 381
#
# _framework density 20.320708
#
# number of rings (size 3 to 8) (size 9 to 14) (size 15 to 20)
#    0.000    1.000    2.500    3.375    3.500    5.000 
#    0.000    0.000    0.000    0.000    0.000    0.000 
#    0.000    0.000    0.000    0.000    0.000    0.000 
#
# Total GULP energy -793902.078382 kJ/mol
# GULP energy per Si atom -12404.719975 kJ/mol
# Density = 2.027446 g / cm^3
# Si number density = 20.320708 Si / 1000 Ang^3
#
#
#
# Elastic Constant Matrix: (Units=GPa)
#
#
# Indices 1 2 3 4 5 6 
#
# 1 107.0794 30.6876 35.6775 0.0000 0.0000 0.0000
# 2 30.6876 56.8703 39.3965 0.0000 0.0000 0.0000
# 3 35.6775 39.3965 121.8959 0.0000 0.0000 0.0000
# 4 0.0000 0.0000 0.0000 35.1247 0.0000 0.0000
# 5 0.0000 0.0000 0.0000 0.0000 27.8290 0.0000
# 6 0.0000 0.0000 0.0000 0.0000 0.0000 35.2483
#
#
#
# Elastic Compliance Matrix: (Units=1/GPa)
#
#
# Indices 1 2 3 4 5 6 
#
# 1 0.011322 -0.004914 -0.001726 0.000000 0.000000 0.000000
# 2 -0.004914 0.024789 -0.006574 0.000000 0.000000 0.000000
# 3 -0.001726 -0.006574 0.010833 0.000000 0.000000 0.000000
# 4 0.000000 0.000000 0.000000 0.028470 0.000000 0.000000
# 5 0.000000 0.000000 0.000000 0.000000 0.035934 0.000000
# 6 0.000000 0.000000 0.000000 0.000000 0.000000 0.028370
#
#
# Mechanical properties :
#
#
# Convention : Reuss Voigt Hill
#
# Bulk Modulus (GPa) = 48.73707 55.26318 52.00013
# Shear Modulus (GPa) = 28.90431 31.64601 30.27516
#
# Velocity S-wave (km/s) = 3.77557 3.95058 3.86407
# Velocity P-wave (km/s) = 6.56069 6.93282 6.74932
#
# Compressibility (1/GPa) = 0.02051826
#
# Stress axis : x y z
#
# Youngs Moduli (GPa) = 88.32249 40.33996 92.30750
#
# Poissons Ratio (x) = 0.19823 0.15929
# Poissons Ratio (y) = 0.43402 0.60679
# Poissons Ratio (z) = 0.15241 0.26518
#
# Static dielectric constant tensor:
#      x y z
#    x 3.914360 0.000000 0.000000 
#    y 0.000000 3.950960 0.000000 
#    z 0.000000 0.000000 1.487900 
# 
# 
# High freq. dielectric constant tensor:
#      x y z
#    x 1.804760 0.000000 0.000000 
#    y 0.000000 1.805800 0.000000 
#    z 0.000000 0.000000 1.802500 
# 
# From -- ./inp_files/32563.got.cif
#   From: 2010.03.12/outbox.cif.g09.slc.cpg/sg62_17_cif.got.tgz:32563.got - 2010.04.10 19:12:36.
