data_PCOD8254561
_publ_section_title
;
Structure prediction by ZEFSAII (Michael W. Deem and Ramdas Pophale) SiO2 
 PCOD8254561
Probable space group: P N M A
;
_chemical_formula_sum "Si O2"
_cell_formula_units_Z 44
_cell_length_a 14.069542
_cell_length_b 16.761261
_cell_length_c 8.651911
_cell_angle_alpha 90.000000
_cell_angle_beta 90.000000
_cell_angle_gamma 90.000000
_cell_volume 2040.321906
_symmetry_space_group_name_H-M "P N M A"
_symmetry_group_IT_number 62
_symmetry_cell_setting 'orthorhombic'
loop_
_space_group_symop_operation_xyz
x,y,z
1/2-x,-y,1/2+z
1/2+x,1/2-y,1/2-z
-x,1/2+y,-z
-x,-y,-z
1/2+x,y,1/2-z
1/2-x,1/2+y,1/2+z
x,1/2-y,z
loop_
_atom_site_type_symbol
_atom_site_label
_atom_site_fract_x
_atom_site_fract_y
_atom_site_fract_z
Si Si1 0.067659 0.250000 0.514833
Si Si2 0.046357 0.911601 0.996847
Si Si3 0.359762 0.496103 0.952382
Si Si4 0.979511 0.396992 0.350752
Si Si5 0.739643 0.750000 0.334646
Si Si6 0.481033 0.250000 0.642871
Si Si7 0.238272 0.580085 0.190542
O O1 0.038465 0.323163 0.409728
O O2 0.182380 0.250000 0.527027
O O3 0.013443 0.250000 0.679291
O O4 0.062134 0.885855 0.819702
O O5 0.984947 0.836270 0.070039
O O6 0.145852 0.918990 0.083658
O O7 0.000000 0.000000 0.000000
O O8 0.448346 0.527973 0.853263
O O9 0.273003 0.478754 0.835664
O O10 0.391841 0.413605 0.033172
O O11 0.328379 0.556041 0.087762
O O12 0.631696 0.750000 0.392367
O O13 0.758059 0.831405 0.239233
#
# Coordination Sequence:
#
# PCOD8254561 Si02
#       7
#     4   8   8   8   4   4   8
#     4  12  23  43  71  88 140 180 219 284 337 397
#     4  11  22  41  67  94 134 171 220 279 339 399
#     4  11  23  38  64  95 129 167 227 265 332 398
#     4  11  23  40  64  96 125 173 219 272 331 405
#     4  10  22  40  62  90 126 170 218 260 338 389
#     4  10  25  41  65 102 128 178 229 278 333 416
#     4  11  22  42  64  94 131 174 215 281 326 405
#
# _framework density 21.565225000000002
#
# number of rings (size 3 to 8) (size 9 to 14) (size 15 to 20)
#    0.000    1.091    3.636    3.818    2.545    1.455 
#    0.000    0.000    0.000    1.091    0.000    0.000 
#    0.000    0.000    0.000    0.000    0.000    0.000 
#
# Total GULP energy -545086.632478 kJ/mol
# GULP energy per Si atom -12388.332556 kJ/mol
# Density = 2.151614 g / cm^3
# Si number density = 21.565225 Si / 1000 Ang^3
#
#
#
# Elastic Constant Matrix: (Units=GPa)
#
#
# Indices 1 2 3 4 5 6 
#
# 1 59.1175 9.6205 11.7164 0.0000 0.0000 0.0000
# 2 9.6205 115.1774 23.4725 0.0000 0.0000 0.0000
# 3 11.7164 23.4725 106.7689 0.0000 0.0000 0.0000
# 4 0.0000 0.0000 0.0000 31.6384 0.0000 0.0000
# 5 0.0000 0.0000 0.0000 0.0000 31.5655 0.0000
# 6 0.0000 0.0000 0.0000 0.0000 0.0000 23.9081
#
#
#
# Elastic Compliance Matrix: (Units=1/GPa)
#
#
# Indices 1 2 3 4 5 6 
#
# 1 0.017427 -0.001116 -0.001667 0.000000 0.000000 0.000000
# 2 -0.001116 0.009161 -0.001892 0.000000 0.000000 0.000000
# 3 -0.001667 -0.001892 0.009965 0.000000 0.000000 0.000000
# 4 0.000000 0.000000 0.000000 0.031607 0.000000 0.000000
# 5 0.000000 0.000000 0.000000 0.000000 0.031680 0.000000
# 6 0.000000 0.000000 0.000000 0.000000 0.000000 0.041827
#
#
# Mechanical properties :
#
#
# Convention : Reuss Voigt Hill
#
# Bulk Modulus (GPa) = 36.75915 41.18696 38.97305
# Shear Modulus (GPa) = 31.23350 33.17269 32.20310
#
# Velocity S-wave (km/s) = 3.80982 3.92631 3.86850
# Velocity P-wave (km/s) = 6.03618 6.30038 6.16970
#
# Compressibility (1/GPa) = 0.02720411
#
# Stress axis : x y z
#
# Youngs Moduli (GPa) = 57.38072 109.15894 100.35320
#
# Poissons Ratio (x) = 0.12181 0.16730
# Poissons Ratio (y) = 0.06403 0.18982
# Poissons Ratio (z) = 0.09566 0.20648
#
# Static dielectric constant tensor:
#      x y z
#    x 3.815590 0.000000 0.000000 
#    y 0.000000 4.522660 0.000000 
#    z 0.000000 0.000000 3.793700 
# 
# 
# High freq. dielectric constant tensor:
#      x y z
#    x 1.833070 0.000000 0.000000 
#    y 0.000000 1.868430 0.000000 
#    z 0.000000 0.000000 1.835120 
# 
# From -- ./inp_files/6380.got.cif
#   From: 2010.03.12/outbox.cif.g09.slc.cpg/sg62_4_cif.got.tgz:6380.got - 2010.04.10 19:12:36.
