data_PCOD8254207
_publ_section_title
;
Structure prediction by ZEFSAII (Michael W. Deem and Ramdas Pophale) SiO2 
 PCOD8254207
Probable space group: P N M A
;
_chemical_formula_sum "Si O2"
_cell_formula_units_Z 48
_cell_length_a 9.406917
_cell_length_b 16.087510
_cell_length_c 13.537685
_cell_angle_alpha 90.000000
_cell_angle_beta 90.000000
_cell_angle_gamma 90.000000
_cell_volume 2048.710280
_symmetry_space_group_name_H-M "P N M A"
_symmetry_group_IT_number 62
_symmetry_cell_setting 'orthorhombic'
loop_
_space_group_symop_operation_xyz
x,y,z
1/2-x,-y,1/2+z
1/2+x,1/2-y,1/2-z
-x,1/2+y,-z
-x,-y,-z
1/2+x,y,1/2-z
1/2-x,1/2+y,1/2+z
x,1/2-y,z
loop_
_atom_site_type_symbol
_atom_site_label
_atom_site_fract_x
_atom_site_fract_y
_atom_site_fract_z
Si Si1 0.222076 0.984102 0.058125
Si Si2 0.629584 0.150150 0.827050
Si Si3 0.406919 0.117838 0.981616
Si Si4 0.886022 0.657967 0.105656
Si Si5 0.645064 0.750000 0.686211
Si Si6 0.471306 0.091288 0.423553
Si Si7 0.472543 0.750000 0.877710
O O1 0.111409 0.044324 0.118755
O O2 0.243487 0.898801 0.118074
O O3 0.373227 0.029757 0.036027
O O4 0.162833 0.969417 0.944702
O O5 0.650914 0.250000 0.838535
O O6 0.484542 0.116375 0.875849
O O7 0.630895 0.117973 0.714149
O O8 0.257287 0.161720 0.959550
O O9 0.509934 0.168863 0.054852
O O10 0.942044 0.750000 0.125350
O O11 0.003282 0.613474 0.039410
O O12 0.569646 0.669059 0.642018
O O13 0.603104 0.750000 0.800593
O O14 0.815218 0.750000 0.671602
#
# Coordination Sequence:
#
# PCOD8254207 Si02
#       7
#     8   8   8   8   4   8   4
#     4  10  24  43  71 102 151 195 235 309 367 423
#     4  11  23  40  70 110 142 193 244 293 372 455
#     4  11  23  48  68 104 156 184 248 303 376 426
#     4  10  21  39  75 104 143 191 237 307 365 441
#     4  12  28  48  83 105 144 196 261 297 361 452
#     4  10  23  47  70 104 146 193 248 300 372 431
#     4  12  28  48  79 115 136 206 247 307 369 436
#
# _framework density 23.429373999999999
#
# number of rings (size 3 to 8) (size 9 to 14) (size 15 to 20)
#    0.000    1.333    2.500    1.500    8.167    0.000 
#    9.000    3.333    0.000    0.000    0.000    0.000 
#    0.000    0.000    0.000    0.000    0.000    0.000 
#
# Total GULP energy -594766.860062 kJ/mol
# GULP energy per Si atom -12390.976251 kJ/mol
# Density = 2.337605 g / cm^3
# Si number density = 23.429374 Si / 1000 Ang^3
#
#
#
# Elastic Constant Matrix: (Units=GPa)
#
#
# Indices 1 2 3 4 5 6 
#
# 1 103.1494 17.5374 24.4626 0.0000 0.0000 0.0000
# 2 17.5374 81.6488 20.3694 0.0000 0.0000 0.0000
# 3 24.4626 20.3694 102.8094 0.0000 0.0000 0.0000
# 4 0.0000 0.0000 0.0000 -8.7740 0.0000 0.0000
# 5 0.0000 0.0000 0.0000 0.0000 35.2334 0.0000
# 6 0.0000 0.0000 0.0000 0.0000 0.0000 20.8700
#
#
#
# Elastic Compliance Matrix: (Units=1/GPa)
#
#
# Indices 1 2 3 4 5 6 
#
# 1 0.010498 -0.001717 -0.002158 0.000000 0.000000 0.000000
# 2 -0.001717 0.013165 -0.002200 0.000000 0.000000 0.000000
# 3 -0.002158 -0.002200 0.010676 0.000000 0.000000 0.000000
# 4 0.000000 0.000000 0.000000 -0.113973 0.000000 0.000000
# 5 0.000000 0.000000 0.000000 0.000000 0.028382 0.000000
# 6 0.000000 0.000000 0.000000 0.000000 0.000000 0.047916
#
#
# Mechanical properties :
#
#
# Convention : Reuss Voigt Hill
#
# Bulk Modulus (GPa) = 45.06400 45.81627 45.44013
# Shear Modulus (GPa) = 308.44658 24.48175 166.46416
#
# Velocity S-wave (km/s) = 11.48631 3.23602 8.43822
# Velocity P-wave (km/s) = 13.97102 5.79310 10.69461
#
# Compressibility (1/GPa) = 0.02219066
#
# Stress axis : x y z
#
# Youngs Moduli (GPa) = 95.25363 75.95831 93.66755
#
# Poissons Ratio (x) = 0.13039 0.20212
# Poissons Ratio (y) = 0.16351 0.20606
# Poissons Ratio (z) = 0.20554 0.16710
#
# Static dielectric constant tensor:
#      x y z
#    x 4.267670 0.000000 0.000000 
#    y 0.000000 4.372490 0.000000 
#    z 0.000000 0.000000 4.034670 
# 
# 
# High freq. dielectric constant tensor:
#      x y z
#    x 1.939170 0.000000 0.000000 
#    y 0.000000 1.939050 0.000000 
#    z 0.000000 0.000000 1.906030 
# 
# From -- ./inp_files/17015.got.cif
#   From: 2010.03.12/outbox.cif.g09.slc.cpg/sg62_9_cif.got.tgz:17015.got - 2010.04.10 19:12:36.
