data_PCOD8254832
_publ_section_title
;
Structure prediction by ZEFSAII (Michael W. Deem and Ramdas Pophale) SiO2 
 PCOD8254832
Probable space group: P N M A
;
_chemical_formula_sum "Si O2"
_cell_formula_units_Z 64
_cell_length_a 22.761403
_cell_length_b 13.319661
_cell_length_c 9.719047
_cell_angle_alpha 90.000000
_cell_angle_beta 90.000000
_cell_angle_gamma 90.000000
_cell_volume 2946.564025
_symmetry_space_group_name_H-M "P N M A"
_symmetry_group_IT_number 62
_symmetry_cell_setting 'orthorhombic'
loop_
_space_group_symop_operation_xyz
x,y,z
1/2-x,-y,1/2+z
1/2+x,1/2-y,1/2-z
-x,1/2+y,-z
-x,-y,-z
1/2+x,y,1/2-z
1/2-x,1/2+y,1/2+z
x,1/2-y,z
loop_
_atom_site_type_symbol
_atom_site_label
_atom_site_fract_x
_atom_site_fract_y
_atom_site_fract_z
Si Si1 0.359605 0.133630 0.902351
Si Si2 0.507860 0.866603 0.063385
Si Si3 0.189623 0.510800 0.650185
Si Si4 0.407555 0.867642 0.571716
Si Si5 0.017568 0.869547 0.744067
Si Si6 0.321073 0.031914 0.635819
Si Si7 0.640209 0.867732 0.629854
Si Si8 0.095079 0.368609 0.753848
O O1 0.343268 0.250000 0.921823
O O2 0.321228 0.086970 0.781361
O O3 0.428290 0.118783 0.869535
O O4 0.345524 0.076391 0.041191
O O5 0.493026 0.750000 0.046348
O O6 0.503834 0.914968 0.909030
O O7 0.460584 0.913711 0.169361
O O8 0.253656 0.484151 0.593463
O O9 0.193335 0.578622 0.788361
O O10 0.154912 0.408995 0.686302
O O11 0.395284 0.750000 0.588045
O O12 0.466793 0.900211 0.649770
O O13 0.411871 0.900903 0.412795
O O14 0.353090 0.924341 0.642797
O O15 0.023403 0.750000 0.732595
O O16 0.079441 0.910704 0.803954
O O17 0.355128 0.103673 0.529516
O O18 0.645235 0.750000 0.645878
O O19 0.097776 0.250000 0.742592
#
# Coordination Sequence:
#
# PCOD8254832 Si02
#       8
#     8   8   8   8   8   8   8   8
#     4  11  25  44  69  97 131 171 216 275 333 383
#     4   9  19  39  65  98 130 166 217 267 328 395
#     4  12  25  46  65  95 129 173 229 266 315 393
#     4  10  23  43  66  96 135 176 213 269 332 383
#     4   9  19  38  66  98 130 166 216 268 326 397
#     4  12  27  44  63  99 131 172 228 269 310 395
#     4  11  23  44  69  94 129 169 216 276 332 379
#     4  10  23  42  67  97 135 173 213 273 331 382
#
# _framework density 21.720213000000001
#
# number of rings (size 3 to 8) (size 9 to 14) (size 15 to 20)
#    0.000    1.500    2.500    1.500    3.500    4.000 
#    0.000    0.000    0.000    0.000    0.000    0.000 
#    0.000    0.000    0.000    0.000    0.000    0.000 
#
# Total GULP energy -793890.133090 kJ/mol
# GULP energy per Si atom -12404.533330 kJ/mol
# Density = 2.167078 g / cm^3
# Si number density = 21.720213 Si / 1000 Ang^3
#
#
#
# Elastic Constant Matrix: (Units=GPa)
#
#
# Indices 1 2 3 4 5 6 
#
# 1 114.0091 17.3298 33.4521 0.0000 0.0000 0.0000
# 2 17.3298 27.6384 34.9203 0.0000 0.0000 0.0000
# 3 33.4521 34.9203 103.1087 0.0000 0.0000 0.0000
# 4 0.0000 0.0000 0.0000 26.6314 0.0000 0.0000
# 5 0.0000 0.0000 0.0000 0.0000 33.3666 0.0000
# 6 0.0000 0.0000 0.0000 0.0000 0.0000 25.9244
#
#
#
# Elastic Compliance Matrix: (Units=1/GPa)
#
#
# Indices 1 2 3 4 5 6 
#
# 1 0.009913 -0.003762 -0.001942 0.000000 0.000000 0.000000
# 2 -0.003762 0.064672 -0.020682 0.000000 0.000000 0.000000
# 3 -0.001942 -0.020682 0.017333 0.000000 0.000000 0.000000
# 4 0.000000 0.000000 0.000000 0.037550 0.000000 0.000000
# 5 0.000000 0.000000 0.000000 0.000000 0.029970 0.000000
# 6 0.000000 0.000000 0.000000 0.000000 0.000000 0.038574
#
#
# Mechanical properties :
#
#
# Convention : Reuss Voigt Hill
#
# Bulk Modulus (GPa) = 25.54574 46.24007 35.89291
# Shear Modulus (GPa) = 18.95149 27.78807 23.36978
#
# Velocity S-wave (km/s) = 2.95706 3.58070 3.28372
# Velocity P-wave (km/s) = 4.84208 6.19923 5.56220
#
# Compressibility (1/GPa) = 0.03914547
#
# Stress axis : x y z
#
# Youngs Moduli (GPa) = 100.87890 15.46275 57.69315
#
# Poissons Ratio (x) = 0.05817 0.11204
# Poissons Ratio (y) = 0.37949 1.19322
# Poissons Ratio (z) = 0.19591 0.31980
#
# Static dielectric constant tensor:
#      x y z
#    x 3.791080 0.000000 0.000000 
#    y 0.000000 3.880330 0.000000 
#    z 0.000000 0.000000 4.061620 
# 
# 
# High freq. dielectric constant tensor:
#      x y z
#    x 1.840270 0.000000 0.000000 
#    y 0.000000 1.871140 0.000000 
#    z 0.000000 0.000000 1.863590 
# 
# From -- ./inp_files/9527.got.cif
#   From: 2010.03.12/outbox.cif.g09.slc.cpg/sg62_5_cif.got.tgz:9527.got - 2010.04.10 19:12:36.
