data_PCOD8254749
_publ_section_title
;
Structure prediction by ZEFSAII (Michael W. Deem and Ramdas Pophale) SiO2 
 PCOD8254749
Probable space group: P N M A
;
_chemical_formula_sum "Si O2"
_cell_formula_units_Z 36
_cell_length_a 12.890049
_cell_length_b 18.237227
_cell_length_c 7.323516
_cell_angle_alpha 90.000000
_cell_angle_beta 90.000000
_cell_angle_gamma 90.000000
_cell_volume 1721.602984
_symmetry_space_group_name_H-M "P N M A"
_symmetry_group_IT_number 62
_symmetry_cell_setting 'orthorhombic'
loop_
_space_group_symop_operation_xyz
x,y,z
1/2-x,-y,1/2+z
1/2+x,1/2-y,1/2-z
-x,1/2+y,-z
-x,-y,-z
1/2+x,y,1/2-z
1/2-x,1/2+y,1/2+z
x,1/2-y,z
loop_
_atom_site_type_symbol
_atom_site_label
_atom_site_fract_x
_atom_site_fract_y
_atom_site_fract_z
Si Si1 0.860872 0.367726 0.803481
Si Si2 0.763288 0.750000 0.135777
Si Si3 0.999525 0.250000 0.960065
Si Si4 0.220059 0.587142 0.840348
Si Si5 0.881547 0.016537 0.507524
Si Si6 0.670684 0.750000 0.760001
O O1 0.756704 0.318951 0.769307
O O2 0.874304 0.409387 0.617833
O O3 0.963134 0.320263 0.845631
O O4 0.846244 0.421953 0.974463
O O5 0.875184 0.750000 0.035029
O O6 0.671810 0.750000 0.980223
O O7 0.944108 0.250000 0.163077
O O8 0.167363 0.535550 0.688857
O O9 0.229846 0.674391 0.797206
O O10 0.331349 0.552559 0.887823
O O11 0.000000 0.000000 0.500000
#
# Coordination Sequence:
#
# PCOD8254749 Si02
#       6
#     8   4   4   8   8   4
#     4  10  23  44  64 101 141 172 236 280 333 426
#     4  11  21  43  73  96 142 187 219 294 352 394
#     4   9  23  39  67 102 134 179 225 286 348 408
#     4  11  24  47  67 102 143 177 236 288 339 415
#     4  12  26  43  71 102 136 188 223 282 354 409
#     4  10  22  44  70 102 136 184 240 284 336 426
#
# _framework density 20.910744999999999
#
# number of rings (size 3 to 8) (size 9 to 14) (size 15 to 20)
#    0.000    1.333    4.444    0.667    3.111    4.444 
#    0.000    0.000    0.000    0.000    0.000    0.000 
#    0.000    0.000    0.000    0.000    0.000    0.000 
#
# Total GULP energy -445983.667358 kJ/mol
# GULP energy per Si atom -12388.435204 kJ/mol
# Density = 2.086315 g / cm^3
# Si number density = 20.910745 Si / 1000 Ang^3
#
#
#
# Elastic Constant Matrix: (Units=GPa)
#
#
# Indices 1 2 3 4 5 6 
#
# 1 114.8551 54.3506 44.6520 0.0000 0.0000 0.0000
# 2 54.3506 103.8646 30.4882 0.0000 0.0000 0.0000
# 3 44.6520 30.4882 124.8845 0.0000 0.0000 0.0000
# 4 0.0000 0.0000 0.0000 21.5960 0.0000 0.0000
# 5 0.0000 0.0000 0.0000 0.0000 22.1747 0.0000
# 6 0.0000 0.0000 0.0000 0.0000 0.0000 8.5683
#
#
#
# Elastic Compliance Matrix: (Units=1/GPa)
#
#
# Indices 1 2 3 4 5 6 
#
# 1 0.012609 -0.005682 -0.003121 0.000000 0.000000 0.000000
# 2 -0.005682 0.012931 -0.001125 0.000000 0.000000 0.000000
# 3 -0.003121 -0.001125 0.009398 0.000000 0.000000 0.000000
# 4 0.000000 0.000000 0.000000 0.046305 0.000000 0.000000
# 5 0.000000 0.000000 0.000000 0.000000 0.045096 0.000000
# 6 0.000000 0.000000 0.000000 0.000000 0.000000 0.116709
#
#
# Mechanical properties :
#
#
# Convention : Reuss Voigt Hill
#
# Bulk Modulus (GPa) = 66.30606 66.95398 66.63002
# Shear Modulus (GPa) = 18.66143 24.74204 21.70173
#
# Velocity S-wave (km/s) = 2.99060 3.44353 3.22503
# Velocity P-wave (km/s) = 6.61081 6.92091 6.76764
#
# Compressibility (1/GPa) = 0.01508158
#
# Stress axis : x y z
#
# Youngs Moduli (GPa) = 79.31055 77.33083 106.40448
#
# Poissons Ratio (x) = 0.43937 0.33210
# Poissons Ratio (y) = 0.45062 0.11976
# Poissons Ratio (z) = 0.24754 0.08703
#
# Static dielectric constant tensor:
#      x y z
#    x 3.380130 0.000000 0.000000 
#    y 0.000000 3.971040 0.000000 
#    z 0.000000 0.000000 4.180890 
# 
# 
# High freq. dielectric constant tensor:
#      x y z
#    x 1.784200 0.000000 0.000000 
#    y 0.000000 1.832110 0.000000 
#    z 0.000000 0.000000 1.840850 
# 
# From -- ./inp_files/5160.got.cif
#   From: 2010.03.12/outbox.cif.g09.slc.cpg/sg62_3_cif.got.tgz:5160.got - 2010.04.10 19:12:36.
