data_PCOD8254930
_publ_section_title
;
Structure prediction by ZEFSAII (Michael W. Deem and Ramdas Pophale) SiO2 
 PCOD8254930
Probable space group: P N M A
;
_chemical_formula_sum "Si O2"
_cell_formula_units_Z 40
_cell_length_a 12.342839
_cell_length_b 8.825927
_cell_length_c 18.159280
_cell_angle_alpha 90.000000
_cell_angle_beta 90.000000
_cell_angle_gamma 90.000000
_cell_volume 1978.217412
_symmetry_space_group_name_H-M "P N M A"
_symmetry_group_IT_number 62
_symmetry_cell_setting 'orthorhombic'
loop_
_space_group_symop_operation_xyz
x,y,z
1/2-x,-y,1/2+z
1/2+x,1/2-y,1/2-z
-x,1/2+y,-z
-x,-y,-z
1/2+x,y,1/2-z
1/2-x,1/2+y,1/2+z
x,1/2-y,z
loop_
_atom_site_type_symbol
_atom_site_label
_atom_site_fract_x
_atom_site_fract_y
_atom_site_fract_z
Si Si1 0.735153 0.425690 0.956072
Si Si2 0.620969 0.926998 0.696925
Si Si3 0.048834 0.427880 0.072791
Si Si4 0.693587 0.927632 0.111433
Si Si5 0.547754 0.425138 0.844309
O O1 0.764303 0.250000 0.959975
O O2 0.831236 0.508577 0.911979
O O3 0.622924 0.456566 0.914708
O O4 0.728877 0.486125 0.038450
O O5 0.647885 0.750000 0.692139
O O6 0.524294 0.973118 0.642195
O O7 0.728488 0.020993 0.677464
O O8 0.585887 0.968388 0.778770
O O9 0.054841 0.250000 0.061295
O O10 0.000000 0.500000 0.000000
O O11 0.704625 0.750000 0.097300
O O12 0.572356 0.973579 0.132894
O O13 0.553341 0.250000 0.819544
#
# Coordination Sequence:
#
# PCOD8254930 Si02
#       5
#     8   8   8   8   8
#     4  11  23  41  66  95 127 164 211 261 311 375
#     4  11  25  42  63  93 128 165 210 262 315 371
#     4  11  23  40  63  93 125 164 210 259 313 370
#     4  11  23  42  67  93 126 166 209 258 313 375
#     4  10  25  44  64  93 128 168 209 256 318 377
#
# _framework density 20.220224000000002
#
# number of rings (size 3 to 8) (size 9 to 14) (size 15 to 20)
#    0.000    1.200    2.000    3.000    2.800    5.600 
#    0.000    0.000    0.000    0.000    0.000    0.000 
#    0.000    0.000    0.000    0.000    0.000    0.000 
#
# Total GULP energy -496319.338473 kJ/mol
# GULP energy per Si atom -12407.983462 kJ/mol
# Density = 2.017420 g / cm^3
# Si number density = 20.220224 Si / 1000 Ang^3
#
#
#
# Elastic Constant Matrix: (Units=GPa)
#
#
# Indices 1 2 3 4 5 6 
#
# 1 140.6366 40.4101 15.0199 0.0000 0.0000 0.0000
# 2 40.4101 70.8396 20.8953 0.0000 0.0000 0.0000
# 3 15.0199 20.8953 62.0845 0.0000 0.0000 0.0000
# 4 0.0000 0.0000 0.0000 32.0701 0.0000 0.0000
# 5 0.0000 0.0000 0.0000 0.0000 25.1861 0.0000
# 6 0.0000 0.0000 0.0000 0.0000 0.0000 33.8732
#
#
#
# Elastic Compliance Matrix: (Units=1/GPa)
#
#
# Indices 1 2 3 4 5 6 
#
# 1 0.008517 -0.004719 -0.000472 0.000000 0.000000 0.000000
# 2 -0.004719 0.018287 -0.005013 0.000000 0.000000 0.000000
# 3 -0.000472 -0.005013 0.017909 0.000000 0.000000 0.000000
# 4 0.000000 0.000000 0.000000 0.031182 0.000000 0.000000
# 5 0.000000 0.000000 0.000000 0.000000 0.039704 0.000000
# 6 0.000000 0.000000 0.000000 0.000000 0.000000 0.029522
#
#
# Mechanical properties :
#
#
# Convention : Reuss Voigt Hill
#
# Bulk Modulus (GPa) = 41.14589 47.35680 44.25135
# Shear Modulus (GPa) = 28.79677 31.37492 30.08584
#
# Velocity S-wave (km/s) = 3.77789 3.94339 3.86153
# Velocity P-wave (km/s) = 6.27878 6.64869 6.46638
#
# Compressibility (1/GPa) = 0.02430376
#
# Stress axis : x y z
#
# Youngs Moduli (GPa) = 117.41299 54.68329 55.83931
#
# Poissons Ratio (x) = 0.25806 0.02637
# Poissons Ratio (y) = 0.55409 0.27993
# Poissons Ratio (z) = 0.05544 0.27413
#
# Static dielectric constant tensor:
#      x y z
#    x 4.179400 0.000000 0.000000 
#    y 0.000000 3.787820 0.000000 
#    z 0.000000 0.000000 3.597240 
# 
# 
# High freq. dielectric constant tensor:
#      x y z
#    x 1.809220 0.000000 0.000000 
#    y 0.000000 1.799180 0.000000 
#    z 0.000000 0.000000 1.790120 
# 
# From -- ./inp_files/22765.got.cif
#   From: 2010.03.12/outbox.cif.g09.slc.cpg/sg62_12_cif.got.tgz:22765.got - 2010.04.10 19:12:36.
