data_PCOD8254849
_publ_section_title
;
Structure prediction by ZEFSAII (Michael W. Deem and Ramdas Pophale) SiO2 
 PCOD8254849
Probable space group: P N M A
;
_chemical_formula_sum "Si O2"
_cell_formula_units_Z 64
_cell_length_a 14.289437
_cell_length_b 23.104334
_cell_length_c 9.484984
_cell_angle_alpha 90.000000
_cell_angle_beta 90.000000
_cell_angle_gamma 90.000000
_cell_volume 3131.447787
_symmetry_space_group_name_H-M "P N M A"
_symmetry_group_IT_number 62
_symmetry_cell_setting 'orthorhombic'
loop_
_space_group_symop_operation_xyz
x,y,z
1/2-x,-y,1/2+z
1/2+x,1/2-y,1/2-z
-x,1/2+y,-z
-x,-y,-z
1/2+x,y,1/2-z
1/2-x,1/2+y,1/2+z
x,1/2-y,z
loop_
_atom_site_type_symbol
_atom_site_label
_atom_site_fract_x
_atom_site_fract_y
_atom_site_fract_z
Si Si1 0.120005 0.467687 0.463443
Si Si2 0.276830 0.315982 0.563162
Si Si3 0.382871 0.317290 0.840846
Si Si4 0.989450 0.040407 0.197196
Si Si5 0.916253 0.635978 0.333354
Si Si6 0.287306 0.083915 0.013823
Si Si7 0.288496 0.405701 0.324005
Si Si8 0.087353 0.428442 0.933105
O O1 0.090433 0.427583 0.594773
O O2 0.132646 0.533890 0.516666
O O3 0.219738 0.449523 0.401876
O O4 0.038139 0.463629 0.349008
O O5 0.285979 0.250000 0.520886
O O6 0.354639 0.333017 0.679846
O O7 0.173148 0.326840 0.622873
O O8 0.297309 0.348748 0.418084
O O9 0.359932 0.250000 0.872578
O O10 0.491191 0.329159 0.876503
O O11 0.321560 0.358131 0.939157
O O12 0.888990 0.068196 0.205555
O O13 0.979931 0.976231 0.136125
O O14 0.051772 0.080550 0.092976
O O15 0.921696 0.628615 0.164015
O O16 0.197598 0.056101 0.934865
O O17 0.251627 0.105843 0.166637
#
# Coordination Sequence:
#
# PCOD8254849 Si02
#       8
#     8   8   8   8   8   8   8   8
#     4  11  24  38  64  94 131 171 206 251 322 383
#     4  10  23  43  66  90 120 166 217 267 323 373
#     4  11  24  42  67  93 121 164 216 270 320 370
#     4  11  22  39  58  92 129 169 207 249 311 380
#     4  11  22  41  65  95 127 168 212 264 318 377
#     4  12  23  41  62  95 132 168 210 259 318 378
#     4  11  23  39  62  88 129 165 204 259 311 385
#     4  11  22  36  62  91 130 169 205 258 307 374
#
# _framework density 20.437830999999999
#
# number of rings (size 3 to 8) (size 9 to 14) (size 15 to 20)
#    0.000    1.000    3.750    3.375    0.000    3.000 
#    0.000    0.000    0.000    0.750    0.000    0.000 
#    0.000    0.000    0.000    0.000    0.000    0.000 
#
# Total GULP energy -793429.792223 kJ/mol
# GULP energy per Si atom -12397.340503 kJ/mol
# Density = 2.039131 g / cm^3
# Si number density = 20.437831 Si / 1000 Ang^3
#
#
#
# Elastic Constant Matrix: (Units=GPa)
#
#
# Indices 1 2 3 4 5 6 
#
# 1 111.6243 23.4992 29.5021 0.0000 0.0000 0.0000
# 2 23.4992 89.1216 45.7300 0.0000 0.0000 0.0000
# 3 29.5021 45.7300 105.6097 0.0000 0.0000 0.0000
# 4 0.0000 0.0000 0.0000 25.1501 0.0000 0.0000
# 5 0.0000 0.0000 0.0000 0.0000 33.7952 0.0000
# 6 0.0000 0.0000 0.0000 0.0000 0.0000 21.8703
#
#
#
# Elastic Compliance Matrix: (Units=1/GPa)
#
#
# Indices 1 2 3 4 5 6 
#
# 1 0.009831 -0.001521 -0.002088 0.000000 0.000000 0.000000
# 2 -0.001521 0.014661 -0.005924 0.000000 0.000000 0.000000
# 3 -0.002088 -0.005924 0.012617 0.000000 0.000000 0.000000
# 4 0.000000 0.000000 0.000000 0.039761 0.000000 0.000000
# 5 0.000000 0.000000 0.000000 0.000000 0.029590 0.000000
# 6 0.000000 0.000000 0.000000 0.000000 0.000000 0.045724
#
#
# Mechanical properties :
#
#
# Convention : Reuss Voigt Hill
#
# Bulk Modulus (GPa) = 55.41840 55.97980 55.69910
# Shear Modulus (GPa) = 28.20666 30.00472 29.10569
#
# Velocity S-wave (km/s) = 3.71903 3.83573 3.77783
# Velocity P-wave (km/s) = 6.75396 6.86053 6.80745
#
# Compressibility (1/GPa) = 0.01804455
#
# Stress axis : x y z
#
# Youngs Moduli (GPa) = 101.72365 68.20757 79.25844
#
# Poissons Ratio (x) = 0.10374 0.16546
# Poissons Ratio (y) = 0.15471 0.46949
# Poissons Ratio (z) = 0.21236 0.40403
#
# Static dielectric constant tensor:
#      x y z
#    x 3.822510 0.000000 0.000000 
#    y 0.000000 3.513390 0.000000 
#    z 0.000000 0.000000 3.918820 
# 
# 
# High freq. dielectric constant tensor:
#      x y z
#    x 1.818990 0.000000 0.000000 
#    y 0.000000 1.773180 0.000000 
#    z 0.000000 0.000000 1.808830 
# 
# From -- ./inp_files/6944.got.cif
#   From: 2010.03.12/outbox.cif.g09.slc.cpg/sg62_4_cif.got.tgz:6944.got - 2010.04.10 19:12:36.
