data_PCOD8254997
_publ_section_title
;
Structure prediction by ZEFSAII (Michael W. Deem and Ramdas Pophale) SiO2 
 PCOD8254997
Probable space group: P N M A
;
_chemical_formula_sum "Si O2"
_cell_formula_units_Z 56
_cell_length_a 13.696727
_cell_length_b 9.042092
_cell_length_c 29.023006
_cell_angle_alpha 90.000000
_cell_angle_beta 90.000000
_cell_angle_gamma 90.000000
_cell_volume 3594.414129
_symmetry_space_group_name_H-M "P N M A"
_symmetry_group_IT_number 62
_symmetry_cell_setting 'orthorhombic'
loop_
_space_group_symop_operation_xyz
x,y,z
1/2-x,-y,1/2+z
1/2+x,1/2-y,1/2-z
-x,1/2+y,-z
-x,-y,-z
1/2+x,y,1/2-z
1/2-x,1/2+y,1/2+z
x,1/2-y,z
loop_
_atom_site_type_symbol
_atom_site_label
_atom_site_fract_x
_atom_site_fract_y
_atom_site_fract_z
Si Si1 0.399934 0.582025 0.100360
Si Si2 0.724748 0.922611 0.180006
Si Si3 0.411618 0.922525 0.267276
Si Si4 0.397685 0.920262 0.998584
Si Si5 0.128246 0.922632 0.411050
Si Si6 0.308468 0.424673 0.184057
Si Si7 0.131814 0.575751 0.226310
O O1 0.385152 0.750000 0.118026
O O2 0.350888 0.562977 0.049573
O O3 0.514777 0.545231 0.098717
O O4 0.346654 0.468496 0.133852
O O5 0.705928 0.750000 0.175425
O O6 0.838121 0.959480 0.190613
O O7 0.690309 0.992109 0.131536
O O8 0.658699 0.980804 0.222320
O O9 0.405348 0.750000 0.253813
O O10 0.519740 0.965604 0.283867
O O11 0.382950 0.013301 0.222106
O O12 0.414382 0.750000 0.986287
O O13 0.500000 0.000000 0.000000
O O14 0.334770 0.995350 0.957648
O O15 0.148143 0.750000 0.418305
O O16 0.303380 0.250000 0.188444
O O17 0.199983 0.491213 0.190032
O O18 0.152052 0.750000 0.221418
#
# Coordination Sequence:
#
# PCOD8254997 Si02
#       7
#     8   8   8   8   8   8   8
#     4   9  17  29  43  59  84 119 152 176 205 255
#     4   8  14  25  43  66  86 109 144 177 208 249
#     4   9  17  31  49  65  85 117 153 182 209 251
#     4   9  17  28  42  61  85 113 144 176 212 255
#     4   9  16  27  44  65  90 116 141 174 213 255
#     4  11  21  29  42  66  92 115 142 180 224 262
#     4   9  17  31  48  62  83 117 153 183 208 247
#
# _framework density 15.579727999999999
#
# number of rings (size 3 to 8) (size 9 to 14) (size 15 to 20)
#    0.000    2.857    0.000    4.286    0.000    5.714 
#    0.000    2.857    0.000    0.000    0.000    1.000 
#    0.000    0.000    0.000    0.000    0.000    0.000 
#
# Total GULP energy -694090.211505 kJ/mol
# GULP energy per Si atom -12394.468063 kJ/mol
# Density = 1.554427 g / cm^3
# Si number density = 15.579728 Si / 1000 Ang^3
#
#
#
# Elastic Constant Matrix: (Units=GPa)
#
#
# Indices 1 2 3 4 5 6 
#
# 1 89.3188 37.0949 42.6853 0.0000 0.0000 0.0000
# 2 37.0949 72.4419 47.5277 0.0000 0.0000 0.0000
# 3 42.6853 47.5277 105.9475 0.0000 0.0000 0.0000
# 4 0.0000 0.0000 0.0000 25.9474 0.0000 0.0000
# 5 0.0000 0.0000 0.0000 0.0000 20.8869 0.0000
# 6 0.0000 0.0000 0.0000 0.0000 0.0000 13.4039
#
#
#
# Elastic Compliance Matrix: (Units=1/GPa)
#
#
# Indices 1 2 3 4 5 6 
#
# 1 0.015193 -0.005334 -0.003728 0.000000 0.000000 0.000000
# 2 -0.005334 0.021434 -0.007466 0.000000 0.000000 0.000000
# 3 -0.003728 -0.007466 0.014290 0.000000 0.000000 0.000000
# 4 0.000000 0.000000 0.000000 0.038540 0.000000 0.000000
# 5 0.000000 0.000000 0.000000 0.000000 0.047877 0.000000
# 6 0.000000 0.000000 0.000000 0.000000 0.000000 0.074605
#
#
# Mechanical properties :
#
#
# Convention : Reuss Voigt Hill
#
# Bulk Modulus (GPa) = 55.99047 58.03599 57.01323
# Shear Modulus (GPa) = 19.92444 21.40765 20.66604
#
# Velocity S-wave (km/s) = 3.58001 3.71087 3.64602
# Velocity P-wave (km/s) = 7.28729 7.46274 7.37554
#
# Compressibility (1/GPa) = 0.01786018
#
# Stress axis : x y z
#
# Youngs Moduli (GPa) = 65.82110 46.65537 69.97841
#
# Poissons Ratio (x) = 0.24884 0.26091
# Poissons Ratio (y) = 0.35106 0.52248
# Poissons Ratio (z) = 0.24541 0.34834
#
# Static dielectric constant tensor:
#      x y z
#    x 2.863850 0.000000 0.000000 
#    y 0.000000 2.900360 0.000000 
#    z 0.000000 0.000000 3.159290 
# 
# 
# High freq. dielectric constant tensor:
#      x y z
#    x 1.566890 0.000000 0.000000 
#    y 0.000000 1.585520 0.000000 
#    z 0.000000 0.000000 1.596670 
# 
# From -- ./inp_files/32650.got.cif
#   From: 2010.03.12/outbox.cif.g09.slc.cpg/sg62_17_cif.got.tgz:32650.got - 2010.04.10 19:12:36.
