data_PCOD8254407
_publ_section_title
;
Structure prediction by ZEFSAII (Michael W. Deem and Ramdas Pophale) SiO2 
 PCOD8254407
Probable space group: P N M A
;
_chemical_formula_sum "Si O2"
_cell_formula_units_Z 48
_cell_length_a 10.247576
_cell_length_b 17.862115
_cell_length_c 11.643155
_cell_angle_alpha 90.000000
_cell_angle_beta 90.000000
_cell_angle_gamma 90.000000
_cell_volume 2131.202457
_symmetry_space_group_name_H-M "P N M A"
_symmetry_group_IT_number 62
_symmetry_cell_setting 'orthorhombic'
loop_
_space_group_symop_operation_xyz
x,y,z
1/2-x,-y,1/2+z
1/2+x,1/2-y,1/2-z
-x,1/2+y,-z
-x,-y,-z
1/2+x,y,1/2-z
1/2-x,1/2+y,1/2+z
x,1/2-y,z
loop_
_atom_site_type_symbol
_atom_site_label
_atom_site_fract_x
_atom_site_fract_y
_atom_site_fract_z
Si Si1 0.943161 0.750000 0.459492
Si Si2 0.546591 0.999650 0.705420
Si Si3 0.214731 0.089994 0.206293
Si Si4 0.835608 0.250000 0.860194
Si Si5 0.830578 0.899059 0.040823
Si Si6 0.142584 0.250000 0.277110
Si Si7 0.032024 0.250000 0.039320
Si Si8 0.913546 0.368575 0.678420
O O1 0.819565 0.750000 0.373501
O O2 0.916912 0.750000 0.595415
O O3 0.027407 0.822748 0.428426
O O4 0.560788 0.039756 0.580375
O O5 0.510854 0.062710 0.799079
O O6 0.436248 0.936232 0.712262
O O7 0.686433 0.961878 0.725842
O O8 0.227231 0.174673 0.255687
O O9 0.251246 0.079576 0.072637
O O10 0.893297 0.321681 0.794705
O O11 0.884382 0.250000 0.992662
O O12 0.895975 0.820425 0.014569
O O13 0.730590 0.895173 0.146145
O O14 0.029810 0.250000 0.178086
#
# Coordination Sequence:
#
# PCOD8254407 Si02
#       8
#     4   8   8   4   8   4   4   8
#     4  11  26  42  71 104 144 185 233 288 352 418
#     4  12  24  46  71 107 137 185 236 292 352 422
#     4  11  28  45  74  97 143 190 237 286 353 422
#     4  11  22  40  69 107 135 184 231 292 348 417
#     4  11  23  45  69 102 142 186 231 289 350 422
#     4  10  27  51  66 102 137 190 236 288 342 438
#     4  10  21  43  74  97 138 189 234 280 352 419
#     4  11  24  41  72 105 142 177 235 298 354 410
#
# _framework density 22.522497000000001
#
# number of rings (size 3 to 8) (size 9 to 14) (size 15 to 20)
#    0.000    1.000    3.333    2.500    4.667    5.333 
#    3.000    0.000    0.000    0.000    0.000    0.000 
#    0.000    0.000    0.000    0.000    0.000    0.000 
#
# Total GULP energy -595006.624753 kJ/mol
# GULP energy per Si atom -12395.971349 kJ/mol
# Density = 2.247123 g / cm^3
# Si number density = 22.522497 Si / 1000 Ang^3
#
#
#
# Elastic Constant Matrix: (Units=GPa)
#
#
# Indices 1 2 3 4 5 6 
#
# 1 88.1564 37.5024 22.7283 0.0000 0.0000 0.0000
# 2 37.5024 145.7883 44.7003 0.0000 0.0000 0.0000
# 3 22.7283 44.7003 113.5407 0.0000 0.0000 0.0000
# 4 0.0000 0.0000 0.0000 55.6366 0.0000 0.0000
# 5 0.0000 0.0000 0.0000 0.0000 29.7963 0.0000
# 6 0.0000 0.0000 0.0000 0.0000 0.0000 29.4916
#
#
#
# Elastic Compliance Matrix: (Units=1/GPa)
#
#
# Indices 1 2 3 4 5 6 
#
# 1 0.012946 -0.002884 -0.001456 0.000000 0.000000 0.000000
# 2 -0.002884 0.008443 -0.002747 0.000000 0.000000 0.000000
# 3 -0.001456 -0.002747 0.010180 0.000000 0.000000 0.000000
# 4 0.000000 0.000000 0.000000 0.017974 0.000000 0.000000
# 5 0.000000 0.000000 0.000000 0.000000 0.033561 0.000000
# 6 0.000000 0.000000 0.000000 0.000000 0.000000 0.033908
#
#
# Mechanical properties :
#
#
# Convention : Reuss Voigt Hill
#
# Bulk Modulus (GPa) = 57.48464 61.92751 59.70608
# Shear Modulus (GPa) = 36.50059 39.15518 37.82788
#
# Velocity S-wave (km/s) = 4.03007 4.17405 4.10269
# Velocity P-wave (km/s) = 6.87269 7.12641 7.00070
#
# Compressibility (1/GPa) = 0.01739595
#
# Stress axis : x y z
#
# Youngs Moduli (GPa) = 77.24624 118.43784 98.22887
#
# Poissons Ratio (x) = 0.34153 0.14304
# Poissons Ratio (y) = 0.22275 0.26982
# Poissons Ratio (z) = 0.11248 0.32533
#
# Static dielectric constant tensor:
#      x y z
#    x 3.854470 0.000000 0.000000 
#    y 0.000000 4.239180 0.000000 
#    z 0.000000 0.000000 4.101480 
# 
# 
# High freq. dielectric constant tensor:
#      x y z
#    x 1.883330 0.000000 0.000000 
#    y 0.000000 1.901500 0.000000 
#    z 0.000000 0.000000 1.889490 
# 
# From -- ./inp_files/12326.got.cif
#   From: 2010.03.12/outbox.cif.g09.slc.cpg/sg62_7_cif.got.tgz:12326.got - 2010.04.10 19:12:36.
