data_PCOD8254195
_publ_section_title
;
Structure prediction by ZEFSAII (Michael W. Deem and Ramdas Pophale) SiO2 
 PCOD8254195
Probable space group: P N M A
;
_chemical_formula_sum "Si O2"
_cell_formula_units_Z 64
_cell_length_a 9.703147
_cell_length_b 13.786893
_cell_length_c 23.492250
_cell_angle_alpha 90.000000
_cell_angle_beta 90.000000
_cell_angle_gamma 90.000000
_cell_volume 3142.705096
_symmetry_space_group_name_H-M "P N M A"
_symmetry_group_IT_number 62
_symmetry_cell_setting 'orthorhombic'
loop_
_space_group_symop_operation_xyz
x,y,z
1/2-x,-y,1/2+z
1/2+x,1/2-y,1/2-z
-x,1/2+y,-z
-x,-y,-z
1/2+x,y,1/2-z
1/2-x,1/2+y,1/2+z
x,1/2-y,z
loop_
_atom_site_type_symbol
_atom_site_label
_atom_site_fract_x
_atom_site_fract_y
_atom_site_fract_z
Si Si1 0.054097 0.862400 0.910319
Si Si2 0.493614 0.363930 0.537990
Si Si3 0.997728 0.365235 0.784442
Si Si4 0.307906 0.954877 0.375756
Si Si5 0.491487 0.047156 0.841006
Si Si6 0.623513 0.139251 0.307592
Si Si7 0.573641 0.864498 0.790110
Si Si8 0.268388 0.363482 0.627678
O O1 0.102908 0.750000 0.908888
O O2 0.913634 0.877265 0.873686
O O3 0.172610 0.928469 0.881933
O O4 0.019110 0.901100 0.973279
O O5 0.514053 0.250000 0.538354
O O6 0.627685 0.407572 0.567864
O O7 0.355953 0.393390 0.572162
O O8 0.020055 0.250000 0.786212
O O9 0.123146 0.414529 0.818287
O O10 0.993647 0.401648 0.720347
O O11 0.855008 0.394945 0.816067
O O12 0.147391 0.926593 0.374488
O O13 0.622768 0.082800 0.876688
O O14 0.495029 0.929551 0.836796
O O15 0.645033 0.250000 0.292405
O O16 0.769950 0.093210 0.290251
O O17 0.494387 0.103758 0.269879
O O18 0.561345 0.750000 0.804576
O O19 0.238700 0.250000 0.629431
#
# Coordination Sequence:
#
# PCOD8254195 Si02
#       8
#     8   8   8   8   8   8   8   8
#     4  10  21  39  66  90 111 153 205 241 288 351
#     4   9  20  41  66  85 111 152 200 250 293 347
#     4  10  22  39  59  85 120 158 197 237 284 353
#     4  11  23  37  58  91 118 153 195 249 293 337
#     4  12  24  33  57  88 120 160 191 239 295 350
#     4   9  20  37  59  82 112 152 192 236 281 341
#     4  10  23  38  55  85 123 158 190 234 293 348
#     4   9  20  38  58  82 115 153 192 243 297 346
#
# _framework density 20.364621
#
# number of rings (size 3 to 8) (size 9 to 14) (size 15 to 20)
#    0.000    2.000    0.000    3.375    8.750    3.500 
#    0.000    0.625    0.000    0.000    0.000    0.000 
#    0.000    0.000    0.000    0.000    0.000    0.000 
#
# Total GULP energy -793353.456441 kJ/mol
# GULP energy per Si atom -12396.147757 kJ/mol
# Density = 2.031827 g / cm^3
# Si number density = 20.364621 Si / 1000 Ang^3
#
#
#
# Elastic Constant Matrix: (Units=GPa)
#
#
# Indices 1 2 3 4 5 6 
#
# 1 163.6070 46.7061 68.9813 0.0000 0.0000 0.0000
# 2 46.7061 47.1412 31.4666 0.0000 0.0000 0.0000
# 3 68.9813 31.4666 92.6109 0.0000 0.0000 0.0000
# 4 0.0000 0.0000 0.0000 21.2177 0.0000 0.0000
# 5 0.0000 0.0000 0.0000 0.0000 10.8341 0.0000
# 6 0.0000 0.0000 0.0000 0.0000 0.0000 25.0959
#
#
#
# Elastic Compliance Matrix: (Units=1/GPa)
#
#
# Indices 1 2 3 4 5 6 
#
# 1 0.010270 -0.006556 -0.005422 0.000000 0.000000 0.000000
# 2 -0.006556 0.031620 -0.005860 0.000000 0.000000 0.000000
# 3 -0.005422 -0.005860 0.016828 0.000000 0.000000 0.000000
# 4 0.000000 0.000000 0.000000 0.047131 0.000000 0.000000
# 5 0.000000 0.000000 0.000000 0.000000 0.092301 0.000000
# 6 0.000000 0.000000 0.000000 0.000000 0.000000 0.039847
#
#
# Mechanical properties :
#
#
# Convention : Reuss Voigt Hill
#
# Bulk Modulus (GPa) = 43.40110 66.40748 54.90429
# Shear Modulus (GPa) = 17.77123 21.84319 19.80721
#
# Velocity S-wave (km/s) = 2.95727 3.27862 3.12208
# Velocity P-wave (km/s) = 5.74621 6.85656 6.32580
#
# Compressibility (1/GPa) = 0.02304089
#
# Stress axis : x y z
#
# Youngs Moduli (GPa) = 97.37264 31.62546 59.42598
#
# Poissons Ratio (x) = 0.20733 0.32221
# Poissons Ratio (y) = 0.63836 0.34826
# Poissons Ratio (z) = 0.52795 0.18534
#
# Static dielectric constant tensor:
#      x y z
#    x 3.743040 0.000000 0.000000 
#    y 0.000000 3.948330 0.000000 
#    z 0.000000 0.000000 3.670140 
# 
# 
# High freq. dielectric constant tensor:
#      x y z
#    x 1.782810 0.000000 0.000000 
#    y 0.000000 1.818630 0.000000 
#    z 0.000000 0.000000 1.774600 
# 
# From -- ./inp_files/28964.got.cif
#   From: 2010.03.12/outbox.cif.g09.slc.cpg/sg62_15_cif.got.tgz:28964.got - 2010.04.10 19:12:36.
