data_PCOD8254850
_publ_section_title
;
Structure prediction by ZEFSAII (Michael W. Deem and Ramdas Pophale) SiO2 
 PCOD8254850
Probable space group: P N M A
;
_chemical_formula_sum "Si O2"
_cell_formula_units_Z 48
_cell_length_a 9.395618
_cell_length_b 16.648134
_cell_length_c 15.039478
_cell_angle_alpha 90.000000
_cell_angle_beta 90.000000
_cell_angle_gamma 90.000000
_cell_volume 2352.467741
_symmetry_space_group_name_H-M "P N M A"
_symmetry_group_IT_number 62
_symmetry_cell_setting 'orthorhombic'
loop_
_space_group_symop_operation_xyz
x,y,z
1/2-x,-y,1/2+z
1/2+x,1/2-y,1/2-z
-x,1/2+y,-z
-x,-y,-z
1/2+x,y,1/2-z
1/2-x,1/2+y,1/2+z
x,1/2-y,z
loop_
_atom_site_type_symbol
_atom_site_label
_atom_site_fract_x
_atom_site_fract_y
_atom_site_fract_z
Si Si1 0.595741 0.446369 0.764373
Si Si2 0.481767 0.656365 0.571361
Si Si3 0.192928 0.344263 0.399798
Si Si4 0.015580 0.343054 0.570067
Si Si5 0.652768 0.056344 0.273801
Si Si6 0.691679 0.157477 0.600555
O O1 0.586590 0.390769 0.849962
O O2 0.441470 0.476210 0.734216
O O3 0.686555 0.525942 0.786502
O O4 0.668318 0.396932 0.685736
O O5 0.461417 0.750000 0.592106
O O6 0.646107 0.630259 0.576418
O O7 0.388903 0.608408 0.641714
O O8 0.424994 0.635121 0.473458
O O9 0.181998 0.250000 0.381145
O O10 0.090340 0.371499 0.479501
O O11 0.137849 0.389479 0.313343
O O12 0.047620 0.250000 0.588070
O O13 0.847926 0.359998 0.561173
O O14 0.676595 0.250000 0.629688
#
# Coordination Sequence:
#
# PCOD8254850 Si02
#       6
#     8   8   8   8   8   8
#     4  12  25  42  61  93 129 165 204 251 313 368
#     4  10  23  43  66  91 122 164 210 255 305 366
#     4  10  23  43  66  92 122 163 211 255 304 365
#     4  10  23  43  66  91 122 164 210 255 305 366
#     4  12  25  42  61  93 129 165 204 251 313 368
#     4  10  23  43  66  92 122 163 211 255 304 365
#
# _framework density 20.404105999999999
#
# number of rings (size 3 to 8) (size 9 to 14) (size 15 to 20)
#    0.000    1.333    3.333    1.000    4.667    2.667 
#    0.000    0.000    0.000    0.000    0.000    0.000 
#    0.000    0.000    0.000    0.000    0.000    0.000 
#
# Total GULP energy -595508.280595 kJ/mol
# GULP energy per Si atom -12406.422512 kJ/mol
# Density = 2.035767 g / cm^3
# Si number density = 20.404106 Si / 1000 Ang^3
#
#
#
# Elastic Constant Matrix: (Units=GPa)
#
#
# Indices 1 2 3 4 5 6 
#
# 1 78.4819 24.4545 28.1212 0.0000 0.0000 0.0000
# 2 24.4545 53.6157 38.5188 0.0000 0.0000 0.0000
# 3 28.1212 38.5188 75.8593 0.0000 0.0000 0.0000
# 4 0.0000 0.0000 0.0000 1050.4245 0.0000 0.0000
# 5 0.0000 0.0000 0.0000 0.0000 37.7639 0.0000
# 6 0.0000 0.0000 0.0000 0.0000 0.0000 34.5638
#
#
#
# Elastic Compliance Matrix: (Units=1/GPa)
#
#
# Indices 1 2 3 4 5 6 
#
# 1 0.015381 -0.004595 -0.003368 0.000000 0.000000 0.000000
# 2 -0.004595 0.030735 -0.013903 0.000000 0.000000 0.000000
# 3 -0.003368 -0.013903 0.021490 0.000000 0.000000 0.000000
# 4 0.000000 0.000000 0.000000 0.000952 0.000000 0.000000
# 5 0.000000 0.000000 0.000000 0.000000 0.026480 0.000000
# 6 0.000000 0.000000 0.000000 0.000000 0.000000 0.028932
#
#
# Mechanical properties :
#
#
# Convention : Reuss Voigt Hill
#
# Bulk Modulus (GPa) = 41.88777 43.34955 42.61866
# Shear Modulus (GPa) = 28.46382 232.34125 130.40254
#
# Velocity S-wave (km/s) = 3.73903 10.68256 8.00304
# Velocity P-wave (km/s) = 6.26212 13.16995 10.31169
#
# Compressibility (1/GPa) = 0.02387332
#
# Stress axis : x y z
#
# Youngs Moduli (GPa) = 65.01709 32.53571 46.53247
#
# Poissons Ratio (x) = 0.14951 0.15673
# Poissons Ratio (y) = 0.29878 0.64694
# Poissons Ratio (z) = 0.21899 0.45234
#
# Static dielectric constant tensor:
#      x y z
#    x 3.847970 0.000000 0.000000 
#    y 0.000000 3.695350 0.000000 
#    z 0.000000 0.000000 3.660350 
# 
# 
# High freq. dielectric constant tensor:
#      x y z
#    x 1.811040 0.000000 0.000000 
#    y 0.000000 1.801800 0.000000 
#    z 0.000000 0.000000 1.801920 
# 
# From -- ./inp_files/16922.got.cif
#   From: 2010.03.12/outbox.cif.g09.slc.cpg/sg62_9_cif.got.tgz:16922.got - 2010.04.10 19:12:36.
