data_PCOD8254009
_publ_section_title
;
Structure prediction by ZEFSAII (Michael W. Deem and Ramdas Pophale) SiO2 
 PCOD8254009
Probable space group: P N M A
;
_chemical_formula_sum "Si O2"
_cell_formula_units_Z 56
_cell_length_a 14.699773
_cell_length_b 8.634473
_cell_length_c 21.227562
_cell_angle_alpha 90.000000
_cell_angle_beta 90.000000
_cell_angle_gamma 90.000000
_cell_volume 2694.303914
_symmetry_space_group_name_H-M "P N M A"
_symmetry_group_IT_number 62
_symmetry_cell_setting 'orthorhombic'
loop_
_space_group_symop_operation_xyz
x,y,z
1/2-x,-y,1/2+z
1/2+x,1/2-y,1/2-z
-x,1/2+y,-z
-x,-y,-z
1/2+x,y,1/2-z
1/2-x,1/2+y,1/2+z
x,1/2-y,z
loop_
_atom_site_type_symbol
_atom_site_label
_atom_site_fract_x
_atom_site_fract_y
_atom_site_fract_z
Si Si1 0.702515 0.927634 0.603970
Si Si2 0.215733 0.926836 0.274216
Si Si3 0.087837 0.072502 0.728312
Si Si4 0.485600 0.931468 0.430912
Si Si5 0.033410 0.431474 0.594802
Si Si6 0.057374 0.068813 0.189495
Si Si7 0.127248 0.428162 0.471557
O O1 0.670181 0.750000 0.611404
O O2 0.765944 0.947216 0.542083
O O3 0.764732 0.975136 0.663094
O O4 0.615873 0.036072 0.594374
O O5 0.194202 0.750000 0.293422
O O6 0.303821 0.937782 0.230269
O O7 0.131623 0.991648 0.234671
O O8 0.054762 0.250000 0.736963
O O9 0.058934 0.996245 0.661997
O O10 0.042709 0.969751 0.783133
O O11 0.502323 0.750000 0.434036
O O12 0.500000 0.000000 0.500000
O O13 0.559120 0.003233 0.382022
O O14 0.044158 0.250000 0.601473
O O15 0.930113 0.475978 0.579543
O O16 0.102957 0.493169 0.541047
O O17 0.075235 0.250000 0.187162
O O18 0.096405 0.250000 0.465890
#
# Coordination Sequence:
#
# PCOD8254009 Si02
#       7
#     8   8   8   8   8   8   8
#     4  11  22  39  63  93 127 166 214 265 324 389
#     4  11  23  39  63  92 125 167 215 265 324 388
#     4  10  21  38  61  88 119 160 206 257 316 379
#     4  12  26  46  69  94 127 168 216 268 330 398
#     4   9  18  34  55  82 117 156 202 250 303 366
#     4  12  25  42  65  94 130 168 214 272 330 389
#     4   9  19  34  54  83 119 158 199 247 304 368
#
# _framework density 20.784589
#
# number of rings (size 3 to 8) (size 9 to 14) (size 15 to 20)
#    0.000    1.429    1.429    4.286    0.000    5.714 
#    0.000    2.857    0.000    0.000    0.000    0.000 
#    0.000    0.000    0.000    0.000    0.000    0.000 
#
# Total GULP energy -694485.698665 kJ/mol
# GULP energy per Si atom -12401.530333 kJ/mol
# Density = 2.073728 g / cm^3
# Si number density = 20.784589 Si / 1000 Ang^3
#
#
#
# Elastic Constant Matrix: (Units=GPa)
#
#
# Indices 1 2 3 4 5 6 
#
# 1 72.4517 19.1385 24.8802 0.0000 0.0000 0.0000
# 2 19.1385 86.2929 24.9957 0.0000 0.0000 0.0000
# 3 24.8802 24.9957 112.8403 0.0000 0.0000 0.0000
# 4 0.0000 0.0000 0.0000 31.8149 0.0000 0.0000
# 5 0.0000 0.0000 0.0000 0.0000 31.5781 0.0000
# 6 0.0000 0.0000 0.0000 0.0000 0.0000 31.1262
#
#
#
# Elastic Compliance Matrix: (Units=1/GPa)
#
#
# Indices 1 2 3 4 5 6 
#
# 1 0.015464 -0.002609 -0.002832 0.000000 0.000000 0.000000
# 2 -0.002609 0.012823 -0.002265 0.000000 0.000000 0.000000
# 3 -0.002832 -0.002265 0.009988 0.000000 0.000000 0.000000
# 4 0.000000 0.000000 0.000000 0.031432 0.000000 0.000000
# 5 0.000000 0.000000 0.000000 0.000000 0.031668 0.000000
# 6 0.000000 0.000000 0.000000 0.000000 0.000000 0.032127
#
#
# Mechanical properties :
#
#
# Convention : Reuss Voigt Hill
#
# Bulk Modulus (GPa) = 43.73890 45.51264 44.62577
# Shear Modulus (GPa) = 31.94160 32.40854 32.17507
#
# Velocity S-wave (km/s) = 3.92445 3.95303 3.93876
# Velocity P-wave (km/s) = 6.45172 6.54065 6.49633
#
# Compressibility (1/GPa) = 0.02286294
#
# Stress axis : x y z
#
# Youngs Moduli (GPa) = 64.66635 77.98289 100.11819
#
# Poissons Ratio (x) = 0.20349 0.28350
# Poissons Ratio (y) = 0.16875 0.22679
# Poissons Ratio (z) = 0.18311 0.17665
#
# Static dielectric constant tensor:
#      x y z
#    x 3.663920 0.000000 0.000000 
#    y 0.000000 3.703760 0.000000 
#    z 0.000000 0.000000 4.103060 
# 
# 
# High freq. dielectric constant tensor:
#      x y z
#    x 1.809490 0.000000 0.000000 
#    y 0.000000 1.809300 0.000000 
#    z 0.000000 0.000000 1.826000 
# 
# From -- ./inp_files/27234.got.cif
#   From: 2010.03.12/outbox.cif.g09.slc.cpg/sg62_14_cif.got.tgz:27234.got - 2010.04.10 19:12:36.
