data_PCOD8254434
_publ_section_title
;
Structure prediction by ZEFSAII (Michael W. Deem and Ramdas Pophale) SiO2 
 PCOD8254434
Probable space group: P N M A
;
_chemical_formula_sum "Si O2"
_cell_formula_units_Z 64
_cell_length_a 12.632744
_cell_length_b 9.021317
_cell_length_c 28.455997
_cell_angle_alpha 90.000000
_cell_angle_beta 90.000000
_cell_angle_gamma 90.000000
_cell_volume 3242.958906
_symmetry_space_group_name_H-M "P N M A"
_symmetry_group_IT_number 62
_symmetry_cell_setting 'orthorhombic'
loop_
_space_group_symop_operation_xyz
x,y,z
1/2-x,-y,1/2+z
1/2+x,1/2-y,1/2-z
-x,1/2+y,-z
-x,-y,-z
1/2+x,y,1/2-z
1/2-x,1/2+y,1/2+z
x,1/2-y,z
loop_
_atom_site_type_symbol
_atom_site_label
_atom_site_fract_x
_atom_site_fract_y
_atom_site_fract_z
Si Si1 0.778433 0.424400 0.615797
Si Si2 0.397466 0.421690 0.557295
Si Si3 0.364709 0.913504 0.708882
Si Si4 0.987218 0.579977 0.360224
Si Si5 0.388249 0.078533 0.446768
Si Si6 0.727505 0.575862 0.878936
Si Si7 0.039166 0.418673 0.747737
Si Si8 0.719308 0.586276 0.707717
O O1 0.762103 0.250000 0.610585
O O2 0.718285 0.506674 0.573819
O O3 0.727379 0.474044 0.664800
O O4 0.902988 0.466725 0.614423
O O5 0.403538 0.250000 0.571488
O O6 0.506720 0.499229 0.573799
O O7 0.381468 0.443901 0.502185
O O8 0.297129 0.497036 0.581526
O O9 0.407622 0.750000 0.693939
O O10 0.275982 0.965185 0.671894
O O11 0.325710 0.902838 0.762415
O O12 0.456259 0.036247 0.711233
O O13 0.959236 0.750000 0.371291
O O14 0.892931 0.481010 0.380966
O O15 0.004959 0.557378 0.304658
O O16 0.394140 0.250000 0.432470
O O17 0.726726 0.750000 0.888804
O O18 0.073012 0.250000 0.756367
O O19 0.137323 0.526513 0.753985
O O20 0.687331 0.750000 0.689118
#
# Coordination Sequence:
#
# PCOD8254434 Si02
#       8
#     8   8   8   8   8   8   8   8
#     4  11  23  40  61  89 120 156 202 246 298 354
#     4  10  22  42  67  93 122 154 190 239 299 357
#     4  10  22  37  54  80 115 156 198 242 289 343
#     4  10  22  39  58  83 119 159 200 247 296 350
#     4  10  22  42  67  94 121 152 192 240 298 357
#     4  11  23  39  61  89 119 156 203 247 295 353
#     4  11  22  36  55  79 113 156 200 247 294 343
#     4  11  22  37  56  81 117 157 199 244 291 346
#
# _framework density 19.735061999999999
#
# number of rings (size 3 to 8) (size 9 to 14) (size 15 to 20)
#    0.000    1.500    2.500    2.250    1.750    4.500 
#    0.000    0.625    0.000    0.000    0.000    0.000 
#    0.000    0.000    0.000    0.000    0.000    0.000 
#
# Total GULP energy -793603.129074 kJ/mol
# GULP energy per Si atom -12400.048892 kJ/mol
# Density = 1.969014 g / cm^3
# Si number density = 19.735062 Si / 1000 Ang^3
#
#
#
# Elastic Constant Matrix: (Units=GPa)
#
#
# Indices 1 2 3 4 5 6 
#
# 1 121.7038 74.2469 38.8161 0.0000 0.0000 0.0000
# 2 74.2469 129.4210 43.7025 0.0000 0.0000 0.0000
# 3 38.8161 43.7025 52.7347 0.0000 0.0000 0.0000
# 4 0.0000 0.0000 0.0000 30.4716 0.0000 0.0000
# 5 0.0000 0.0000 0.0000 0.0000 37.8864 0.0000
# 6 0.0000 0.0000 0.0000 0.0000 0.0000 38.2817
#
#
#
# Elastic Compliance Matrix: (Units=1/GPa)
#
#
# Indices 1 2 3 4 5 6 
#
# 1 0.013489 -0.006090 -0.004882 0.000000 0.000000 0.000000
# 2 -0.006090 0.013479 -0.006688 0.000000 0.000000 0.000000
# 3 -0.004882 -0.006688 0.028098 0.000000 0.000000 0.000000
# 4 0.000000 0.000000 0.000000 0.032817 0.000000 0.000000
# 5 0.000000 0.000000 0.000000 0.000000 0.026395 0.000000
# 6 0.000000 0.000000 0.000000 0.000000 0.000000 0.026122
#
#
# Mechanical properties :
#
#
# Convention : Reuss Voigt Hill
#
# Bulk Modulus (GPa) = 50.63976 68.59894 59.61935
# Shear Modulus (GPa) = 27.42716 31.13420 29.28068
#
# Velocity S-wave (km/s) = 3.73200 3.97622 3.85605
# Velocity P-wave (km/s) = 6.65477 7.47769 7.07820
#
# Compressibility (1/GPa) = 0.01974733
#
# Stress axis : x y z
#
# Youngs Moduli (GPa) = 74.13509 74.19148 35.58933
#
# Poissons Ratio (x) = 0.45182 0.17374
# Poissons Ratio (y) = 0.45148 0.23800
# Poissons Ratio (z) = 0.36191 0.49616
#
# Static dielectric constant tensor:
#      x y z
#    x 3.599520 0.000000 0.000000 
#    y 0.000000 3.710400 0.000000 
#    z 0.000000 0.000000 3.366380 
# 
# 
# High freq. dielectric constant tensor:
#      x y z
#    x 1.772430 0.000000 0.000000 
#    y 0.000000 1.781680 0.000000 
#    z 0.000000 0.000000 1.750600 
# 
# From -- ./inp_files/32532.got.cif
#   From: 2010.03.12/outbox.cif.g09.slc.cpg/sg62_17_cif.got.tgz:32532.got - 2010.04.10 19:12:36.
