data_PCOD8254190
_publ_section_title
;
Structure prediction by ZEFSAII (Michael W. Deem and Ramdas Pophale) SiO2 
 PCOD8254190
Probable space group: P N M A
;
_chemical_formula_sum "Si O2"
_cell_formula_units_Z 64
_cell_length_a 29.508415
_cell_length_b 8.676971
_cell_length_c 12.590793
_cell_angle_alpha 90.000000
_cell_angle_beta 90.000000
_cell_angle_gamma 90.000000
_cell_volume 3223.792737
_symmetry_space_group_name_H-M "P N M A"
_symmetry_group_IT_number 62
_symmetry_cell_setting 'orthorhombic'
loop_
_space_group_symop_operation_xyz
x,y,z
1/2-x,-y,1/2+z
1/2+x,1/2-y,1/2-z
-x,1/2+y,-z
-x,-y,-z
1/2+x,y,1/2-z
1/2-x,1/2+y,1/2+z
x,1/2-y,z
loop_
_atom_site_type_symbol
_atom_site_label
_atom_site_fract_x
_atom_site_fract_y
_atom_site_fract_z
Si Si1 0.957492 0.571411 0.622103
Si Si2 0.053100 0.072423 0.617235
Si Si3 0.852158 0.570926 0.010717
Si Si4 0.754288 0.427689 0.019958
Si Si5 0.376892 0.927289 0.723321
Si Si6 0.713581 0.926099 0.213101
Si Si7 0.784639 0.071779 0.340094
Si Si8 0.876048 0.431064 0.225703
O O1 0.972284 0.750000 0.625697
O O2 0.935510 0.535046 0.506367
O O3 0.923286 0.530115 0.717116
O O4 0.000915 0.465359 0.640696
O O5 0.062428 0.250000 0.643458
O O6 0.083439 0.970506 0.695030
O O7 0.840564 0.750000 0.024623
O O8 0.881468 0.514353 0.112006
O O9 0.805944 0.477512 0.000762
O O10 0.881408 0.541709 0.903178
O O11 0.748725 0.250000 0.990642
O O12 0.714579 0.534504 0.965705
O O13 0.742626 0.455148 0.142423
O O14 0.363814 0.750000 0.744625
O O15 0.338849 0.033463 0.776126
O O16 0.718555 0.750000 0.176915
O O17 0.740515 0.960885 0.321533
O O18 0.775092 0.250000 0.317322
O O19 0.829437 0.013586 0.280810
O O20 0.875504 0.250000 0.205514
#
# Coordination Sequence:
#
# PCOD8254190 Si02
#       8
#     8   8   8   8   8   8   8   8
#     4   9  20  41  66  92 121 154 190 239 305 363
#     4  10  21  39  65  94 122 153 193 243 300 364
#     4  11  22  38  61  85 119 159 203 250 297 355
#     4  12  24  38  56  80 117 161 204 251 302 353
#     4  10  22  40  62  89 121 158 200 249 302 360
#     4  12  24  37  57  85 119 160 204 249 296 354
#     4  11  23  39  57  83 118 158 204 250 298 353
#     4  11  24  40  61  87 121 160 202 250 301 360
#
# _framework density 19.852394
#
# number of rings (size 3 to 8) (size 9 to 14) (size 15 to 20)
#    0.000    1.250    2.500    3.750    1.750    3.000 
#    0.000    0.625    0.000    0.000    0.000    0.000 
#    0.000    0.000    0.000    0.000    0.000    0.000 
#
# Total GULP energy -793511.320913 kJ/mol
# GULP energy per Si atom -12398.614389 kJ/mol
# Density = 1.980721 g / cm^3
# Si number density = 19.852394 Si / 1000 Ang^3
#
#
#
# Elastic Constant Matrix: (Units=GPa)
#
#
# Indices 1 2 3 4 5 6 
#
# 1 76.8566 30.4347 52.5887 0.0000 0.0000 0.0000
# 2 30.4347 84.4744 36.7571 0.0000 0.0000 0.0000
# 3 52.5887 36.7571 106.9776 0.0000 0.0000 0.0000
# 4 0.0000 0.0000 0.0000 31.8951 0.0000 0.0000
# 5 0.0000 0.0000 0.0000 0.0000 37.5290 0.0000
# 6 0.0000 0.0000 0.0000 0.0000 0.0000 30.7580
#
#
#
# Elastic Compliance Matrix: (Units=1/GPa)
#
#
# Indices 1 2 3 4 5 6 
#
# 1 0.020460 -0.003521 -0.008848 0.000000 0.000000 0.000000
# 2 -0.003521 0.014525 -0.003260 0.000000 0.000000 0.000000
# 3 -0.008848 -0.003260 0.014817 0.000000 0.000000 0.000000
# 4 0.000000 0.000000 0.000000 0.031353 0.000000 0.000000
# 5 0.000000 0.000000 0.000000 0.000000 0.026646 0.000000
# 6 0.000000 0.000000 0.000000 0.000000 0.000000 0.032512
#
#
# Mechanical properties :
#
#
# Convention : Reuss Voigt Hill
#
# Bulk Modulus (GPa) = 53.92509 56.42995 55.17752
# Shear Modulus (GPa) = 28.12913 29.93829 29.03371
#
# Velocity S-wave (km/s) = 3.76828 3.88757 3.82839
# Velocity P-wave (km/s) = 6.79376 6.97405 6.88450
#
# Compressibility (1/GPa) = 0.01854424
#
# Stress axis : x y z
#
# Youngs Moduli (GPa) = 48.87652 68.84695 67.48917
#
# Poissons Ratio (x) = 0.24244 0.59713
# Poissons Ratio (y) = 0.17211 0.21999
# Poissons Ratio (z) = 0.43245 0.22442
#
# Static dielectric constant tensor:
#      x y z
#    x 3.328970 0.000000 0.000000 
#    y 0.000000 3.528260 0.000000 
#    z 0.000000 0.000000 3.875710 
# 
# 
# High freq. dielectric constant tensor:
#      x y z
#    x 1.749660 0.000000 0.000000 
#    y 0.000000 1.779950 0.000000 
#    z 0.000000 0.000000 1.794830 
# 
# From -- ./inp_files/15789.got.cif
#   From: 2010.03.12/outbox.cif.g09.slc.cpg/sg62_8_cif.got.tgz:15789.got - 2010.04.10 19:12:36.
