data_PCOD8254576
_publ_section_title
;
Structure prediction by ZEFSAII (Michael W. Deem and Ramdas Pophale) SiO2 
 PCOD8254576
Probable space group: P N M A
;
_chemical_formula_sum "Si O2"
_cell_formula_units_Z 48
_cell_length_a 14.809047
_cell_length_b 8.831975
_cell_length_c 18.434169
_cell_angle_alpha 90.000000
_cell_angle_beta 90.000000
_cell_angle_gamma 90.000000
_cell_volume 2411.062716
_symmetry_space_group_name_H-M "P N M A"
_symmetry_group_IT_number 62
_symmetry_cell_setting 'orthorhombic'
loop_
_space_group_symop_operation_xyz
x,y,z
1/2-x,-y,1/2+z
1/2+x,1/2-y,1/2-z
-x,1/2+y,-z
-x,-y,-z
1/2+x,y,1/2-z
1/2-x,1/2+y,1/2+z
x,1/2-y,z
loop_
_atom_site_type_symbol
_atom_site_label
_atom_site_fract_x
_atom_site_fract_y
_atom_site_fract_z
Si Si1 0.252062 0.571630 0.576774
Si Si2 0.094602 0.574587 0.981721
Si Si3 0.214223 0.072740 0.241244
Si Si4 0.034959 0.572078 0.287398
Si Si5 0.057706 0.429851 0.564282
Si Si6 0.602429 0.576505 0.687745
O O1 0.236222 0.750000 0.568197
O O2 0.327020 0.515887 0.521394
O O3 0.287807 0.530418 0.656673
O O4 0.159626 0.487152 0.558892
O O5 0.094459 0.750000 0.005527
O O6 0.113290 0.556333 0.897231
O O7 0.000000 0.500000 0.000000
O O8 0.202834 0.250000 0.254337
O O9 0.307965 0.013059 0.274068
O O10 0.135788 0.990929 0.285419
O O11 0.040319 0.750000 0.286573
O O12 0.984992 0.513924 0.359821
O O13 0.982696 0.517403 0.215935
O O14 0.056499 0.250000 0.557523
O O15 0.000000 0.500000 0.500000
O O16 0.585395 0.750000 0.709586
#
# Coordination Sequence:
#
# PCOD8254576 Si02
#       6
#     8   8   8   8   8   8
#     4  11  23  42  67  94 125 166 210 259 314 371
#     4  11  24  41  63  93 128 167 209 257 311 371
#     4  10  22  40  64  90 120 163 207 251 307 374
#     4  11  24  40  63  95 126 158 202 262 314 359
#     4  11  25  43  63  92 127 167 210 257 314 374
#     4  10  22  42  64  89 121 164 209 248 303 373
#
# _framework density 19.908232999999999
#
# number of rings (size 3 to 8) (size 9 to 14) (size 15 to 20)
#    0.000    1.333    1.667    3.000    2.333    9.333 
#    0.000    0.000    0.000    0.000    0.000    0.000 
#    0.000    0.000    0.000    0.000    0.000    0.000 
#
# Total GULP energy -595510.963665 kJ/mol
# GULP energy per Si atom -12406.478410 kJ/mol
# Density = 1.986292 g / cm^3
# Si number density = 19.908233 Si / 1000 Ang^3
#
#
#
# Elastic Constant Matrix: (Units=GPa)
#
#
# Indices 1 2 3 4 5 6 
#
# 1 114.5209 40.1864 33.1646 0.0000 0.0000 0.0000
# 2 40.1864 68.2230 40.0292 0.0000 0.0000 0.0000
# 3 33.1646 40.0292 80.8020 0.0000 0.0000 0.0000
# 4 0.0000 0.0000 0.0000 33.2820 0.0000 0.0000
# 5 0.0000 0.0000 0.0000 0.0000 39.7179 0.0000
# 6 0.0000 0.0000 0.0000 0.0000 0.0000 42.1606
#
#
#
# Elastic Compliance Matrix: (Units=1/GPa)
#
#
# Indices 1 2 3 4 5 6 
#
# 1 0.011205 -0.005501 -0.001874 0.000000 0.000000 0.000000
# 2 -0.005501 0.023365 -0.009317 0.000000 0.000000 0.000000
# 3 -0.001874 -0.009317 0.017761 0.000000 0.000000 0.000000
# 4 0.000000 0.000000 0.000000 0.030046 0.000000 0.000000
# 5 0.000000 0.000000 0.000000 0.000000 0.025178 0.000000
# 6 0.000000 0.000000 0.000000 0.000000 0.000000 0.023719
#
#
# Mechanical properties :
#
#
# Convention : Reuss Voigt Hill
#
# Bulk Modulus (GPa) = 52.77911 54.47847 53.62879
# Shear Modulus (GPa) = 29.24450 33.04313 31.14382
#
# Velocity S-wave (km/s) = 3.83687 4.07845 3.95950
# Velocity P-wave (km/s) = 6.79687 7.04291 6.92098
#
# Compressibility (1/GPa) = 0.01894689
#
# Stress axis : x y z
#
# Youngs Moduli (GPa) = 89.24624 42.79959 56.30380
#
# Poissons Ratio (x) = 0.23543 0.10551
# Poissons Ratio (y) = 0.49092 0.52459
# Poissons Ratio (z) = 0.16724 0.39877
#
# Static dielectric constant tensor:
#      x y z
#    x 3.633640 0.000000 0.000000 
#    y 0.000000 3.794010 0.000000 
#    z 0.000000 0.000000 3.706800 
# 
# 
# High freq. dielectric constant tensor:
#      x y z
#    x 1.793870 0.000000 0.000000 
#    y 0.000000 1.780890 0.000000 
#    z 0.000000 0.000000 1.787900 
# 
# From -- ./inp_files/23650.got.cif
#   From: 2010.03.12/outbox.cif.g09.slc.cpg/sg62_12_cif.got.tgz:23650.got - 2010.04.10 19:12:36.
