data_PCOD8254694
_publ_section_title
;
Structure prediction by ZEFSAII (Michael W. Deem and Ramdas Pophale) SiO2 
 PCOD8254694
Probable space group: P N M A
;
_chemical_formula_sum "Si O2"
_cell_formula_units_Z 48
_cell_length_a 5.261933
_cell_length_b 24.111223
_cell_length_c 17.342988
_cell_angle_alpha 90.000000
_cell_angle_beta 90.000000
_cell_angle_gamma 90.000000
_cell_volume 2200.333330
_symmetry_space_group_name_H-M "P N M A"
_symmetry_group_IT_number 62
_symmetry_cell_setting 'orthorhombic'
loop_
_space_group_symop_operation_xyz
x,y,z
1/2-x,-y,1/2+z
1/2+x,1/2-y,1/2-z
-x,1/2+y,-z
-x,-y,-z
1/2+x,y,1/2-z
1/2-x,1/2+y,1/2+z
x,1/2-y,z
loop_
_atom_site_type_symbol
_atom_site_label
_atom_site_fract_x
_atom_site_fract_y
_atom_site_fract_z
Si Si1 0.552125 0.141309 0.701120
Si Si2 0.364155 0.636240 0.939719
Si Si3 0.012524 0.750000 0.496261
Si Si4 0.182545 0.534828 0.553543
Si Si5 0.005368 0.750000 0.105941
Si Si6 0.588543 0.571975 0.434623
Si Si7 0.119931 0.685400 0.798639
O O1 0.802127 0.130995 0.749651
O O2 0.531504 0.200796 0.664594
O O3 0.575514 0.098029 0.632319
O O4 0.541184 0.586382 0.904678
O O5 0.143680 0.648208 0.876592
O O6 0.509707 0.694893 0.950547
O O7 0.282062 0.616603 0.026078
O O8 0.286361 0.750000 0.457222
O O9 0.780087 0.750000 0.435227
O O10 0.414639 0.559474 0.506970
O O11 0.292408 0.483959 0.605210
O O12 0.000000 0.500000 0.500000
O O13 0.854437 0.670551 0.758039
O O14 0.128901 0.750000 0.821981
#
# Coordination Sequence:
#
# PCOD8254694 Si02
#       7
#     8   8   4   8   4   8   8
#     4  12  26  42  65  94 139 182 222 277 339 403
#     4  11  22  40  67  99 126 173 220 278 329 397
#     4  12  24  37  70 103 130 165 229 286 310 403
#     4   9  21  40  70  91 127 163 220 280 335 383
#     4  12  24  43  60  95 138 177 227 272 336 397
#     4  10  22  42  67  96 125 173 231 278 332 389
#     4  10  23  41  60  91 134 171 204 254 331 400
#
# _framework density 21.814878
#
# number of rings (size 3 to 8) (size 9 to 14) (size 15 to 20)
#    0.000    1.333    2.500    2.500    7.000    0.000 
#    0.000    1.667    0.000    0.000    0.000    0.000 
#    0.000    0.000    0.000    0.000    0.000    0.000 
#
# Total GULP energy -594686.693933 kJ/mol
# GULP energy per Si atom -12389.306124 kJ/mol
# Density = 2.176523 g / cm^3
# Si number density = 21.814878 Si / 1000 Ang^3
#
#
#
# Elastic Constant Matrix: (Units=GPa)
#
#
# Indices 1 2 3 4 5 6 
#
# 1 71.5012 6.7643 -4.9715 0.0000 0.0000 0.0000
# 2 6.7643 116.7686 19.4798 0.0000 0.0000 0.0000
# 3 -4.9715 19.4798 52.2060 0.0000 0.0000 0.0000
# 4 0.0000 0.0000 0.0000 -13.5004 0.0000 0.0000
# 5 0.0000 0.0000 0.0000 0.0000 7.8533 0.0000
# 6 0.0000 0.0000 0.0000 0.0000 0.0000 23.2595
#
#
#
# Elastic Compliance Matrix: (Units=1/GPa)
#
#
# Indices 1 2 3 4 5 6 
#
# 1 0.014215 -0.001119 0.001771 0.000000 0.000000 0.000000
# 2 -0.001119 0.009221 -0.003547 0.000000 0.000000 0.000000
# 3 0.001771 -0.003547 0.020647 0.000000 0.000000 0.000000
# 4 0.000000 0.000000 0.000000 -0.074072 0.000000 0.000000
# 5 0.000000 0.000000 0.000000 0.000000 0.127334 0.000000
# 6 0.000000 0.000000 0.000000 0.000000 0.000000 0.042993
#
#
# Mechanical properties :
#
#
# Convention : Reuss Voigt Hill
#
# Bulk Modulus (GPa) = 26.11459 31.44679 28.78069
# Shear Modulus (GPa) = 31.46795 18.13603 24.80199
#
# Velocity S-wave (km/s) = 3.80215 2.88646 3.37550
# Velocity P-wave (km/s) = 5.59214 5.05524 5.33046
#
# Compressibility (1/GPa) = 0.03829277
#
# Stress axis : x y z
#
# Youngs Moduli (GPa) = 70.34930 108.45398 48.43297
#
# Poissons Ratio (x) = 0.12135 -0.08578
# Poissons Ratio (y) = 0.07872 0.17179
# Poissons Ratio (z) = -0.12460 0.38469
#
# Static dielectric constant tensor:
#      x y z
#    x 4.137640 0.000000 0.000000 
#    y 0.000000 4.696280 0.000000 
#    z 0.000000 0.000000 3.674240 
# 
# 
# High freq. dielectric constant tensor:
#      x y z
#    x 1.866210 0.000000 0.000000 
#    y 0.000000 1.879070 0.000000 
#    z 0.000000 0.000000 1.825510 
# 
# From -- ./inp_files/16239.got.cif
#   From: 2010.03.12/outbox.cif.g09.slc.cpg/sg62_9_cif.got.tgz:16239.got - 2010.04.10 19:12:36.
