data_PCOD8254381
_publ_section_title
;
Structure prediction by ZEFSAII (Michael W. Deem and Ramdas Pophale) SiO2 
 PCOD8254381
Probable space group: P N M A
;
_chemical_formula_sum "Si O2"
_cell_formula_units_Z 40
_cell_length_a 12.129091
_cell_length_b 9.168507
_cell_length_c 18.491487
_cell_angle_alpha 90.000000
_cell_angle_beta 90.000000
_cell_angle_gamma 90.000000
_cell_volume 2056.357937
_symmetry_space_group_name_H-M "P N M A"
_symmetry_group_IT_number 62
_symmetry_cell_setting 'orthorhombic'
loop_
_space_group_symop_operation_xyz
x,y,z
1/2-x,-y,1/2+z
1/2+x,1/2-y,1/2-z
-x,1/2+y,-z
-x,-y,-z
1/2+x,y,1/2-z
1/2-x,1/2+y,1/2+z
x,1/2-y,z
loop_
_atom_site_type_symbol
_atom_site_label
_atom_site_fract_x
_atom_site_fract_y
_atom_site_fract_z
Si Si1 0.433960 0.580071 0.562640
Si Si2 0.901134 0.417108 0.189364
Si Si3 0.172780 0.080787 0.384753
Si Si4 0.034784 0.079908 0.670355
Si Si5 0.709325 0.419607 0.951885
O O1 0.500000 0.500000 0.500000
O O2 0.428085 0.750000 0.542656
O O3 0.493631 0.555118 0.638909
O O4 0.312656 0.515804 0.571641
O O5 0.896320 0.250000 0.215119
O O6 0.792891 0.459661 0.144585
O O7 0.906149 0.518474 0.258944
O O8 0.145340 0.250000 0.374324
O O9 0.168660 0.035657 0.468598
O O10 0.084210 0.991168 0.339558
O O11 0.017453 0.250000 0.680968
O O12 0.109878 0.043673 0.601525
O O13 0.744151 0.250000 0.949563
#
# Coordination Sequence:
#
# PCOD8254381 Si02
#       5
#     8   8   8   8   8
#     4  11  22  39  64  92 121 159 205 251 301 362
#     4  10  23  42  62  87 122 166 206 244 304 369
#     4  10  21  42  66  86 121 163 204 248 299 373
#     4  11  25  40  61  93 127 159 201 259 310 353
#     4  10  22  42  64  91 124 159 203 255 306 359
#
# _framework density 19.451867
#
# number of rings (size 3 to 8) (size 9 to 14) (size 15 to 20)
#    0.000    1.600    2.000    1.800    2.800    4.800 
#    0.000    0.000    0.000    0.000    0.000    0.000 
#    0.000    0.000    0.000    0.000    0.000    0.000 
#
# Total GULP energy -496271.654347 kJ/mol
# GULP energy per Si atom -12406.791359 kJ/mol
# Density = 1.940759 g / cm^3
# Si number density = 19.451867 Si / 1000 Ang^3
#
#
#
# Elastic Constant Matrix: (Units=GPa)
#
#
# Indices 1 2 3 4 5 6 
#
# 1 79.5605 50.4046 26.8920 0.0000 0.0000 0.0000
# 2 50.4046 87.1549 50.3550 0.0000 0.0000 0.0000
# 3 26.8920 50.3550 112.3017 0.0000 0.0000 0.0000
# 4 0.0000 0.0000 0.0000 36.1750 0.0000 0.0000
# 5 0.0000 0.0000 0.0000 0.0000 28.6012 0.0000
# 6 0.0000 0.0000 0.0000 0.0000 0.0000 35.6161
#
#
#
# Elastic Compliance Matrix: (Units=1/GPa)
#
#
# Indices 1 2 3 4 5 6 
#
# 1 0.019861 -0.011794 0.000532 0.000000 0.000000 0.000000
# 2 -0.011794 0.022489 -0.007260 0.000000 0.000000 0.000000
# 3 0.000532 -0.007260 0.012032 0.000000 0.000000 0.000000
# 4 0.000000 0.000000 0.000000 0.027643 0.000000 0.000000
# 5 0.000000 0.000000 0.000000 0.000000 0.034964 0.000000
# 6 0.000000 0.000000 0.000000 0.000000 0.000000 0.028077
#
#
# Mechanical properties :
#
#
# Convention : Reuss Voigt Hill
#
# Bulk Modulus (GPa) = 57.67066 59.36892 58.51979
# Shear Modulus (GPa) = 26.61151 30.16950 28.39050
#
# Velocity S-wave (km/s) = 3.70276 3.94252 3.82452
# Velocity P-wave (km/s) = 6.92768 7.16323 7.04644
#
# Compressibility (1/GPa) = 0.01733984
#
# Stress axis : x y z
#
# Youngs Moduli (GPa) = 50.35008 44.46629 83.10965
#
# Poissons Ratio (x) = 0.52443 -0.04424
# Poissons Ratio (y) = 0.59382 0.60335
# Poissons Ratio (z) = -0.02680 0.32281
#
# Static dielectric constant tensor:
#      x y z
#    x 3.628770 0.000000 0.000000 
#    y 0.000000 3.574990 0.000000 
#    z 0.000000 0.000000 3.636120 
# 
# 
# High freq. dielectric constant tensor:
#      x y z
#    x 1.767890 0.000000 0.000000 
#    y 0.000000 1.758580 0.000000 
#    z 0.000000 0.000000 1.766930 
# 
# From -- ./inp_files/22772.got.cif
#   From: 2010.03.12/outbox.cif.g09.slc.cpg/sg62_12_cif.got.tgz:22772.got - 2010.04.10 19:12:36.
