data_PCOD8254915
_publ_section_title
;
Structure prediction by ZEFSAII (Michael W. Deem and Ramdas Pophale) SiO2 
 PCOD8254915
Probable space group: P N M A
;
_chemical_formula_sum "Si O2"
_cell_formula_units_Z 28
_cell_length_a 5.340997
_cell_length_b 13.215383
_cell_length_c 17.336992
_cell_angle_alpha 90.000000
_cell_angle_beta 90.000000
_cell_angle_gamma 90.000000
_cell_volume 1223.702471
_symmetry_space_group_name_H-M "P N M A"
_symmetry_group_IT_number 62
_symmetry_cell_setting 'orthorhombic'
loop_
_space_group_symop_operation_xyz
x,y,z
1/2-x,-y,1/2+z
1/2+x,1/2-y,1/2-z
-x,1/2+y,-z
-x,-y,-z
1/2+x,y,1/2-z
1/2-x,1/2+y,1/2+z
x,1/2-y,z
loop_
_atom_site_type_symbol
_atom_site_label
_atom_site_fract_x
_atom_site_fract_y
_atom_site_fract_z
Si Si1 0.805049 0.955639 0.058294
Si Si2 0.481177 0.360543 0.075721
Si Si3 0.963304 0.631479 0.212055
Si Si4 0.768260 0.750000 0.800613
O O1 0.948786 0.889881 0.121338
O O2 0.663309 0.048663 0.100208
O O3 0.622159 0.883187 0.009883
O O4 0.000000 0.000000 0.000000
O O5 0.620217 0.250000 0.070754
O O6 0.268208 0.349001 0.143272
O O7 0.719769 0.583633 0.254505
O O8 0.969508 0.750000 0.227622
O O9 0.542511 0.750000 0.736938
#
# Coordination Sequence:
#
# PCOD8254915 Si02
#       4
#     8   8   8   4
#     4  11  24  42  69 101 136 184 233 294 340 420
#     4   9  24  42  64  99 135 182 232 274 356 402
#     4  10  24  45  70 101 136 181 229 290 350 406
#     4  10  24  44  68  96 140 184 228 276 346 420
#
# _framework density 22.881378000000002
#
# number of rings (size 3 to 8) (size 9 to 14) (size 15 to 20)
#    0.857    1.143    0.000    0.857   12.000    4.571 
#    0.000    0.000    0.000    0.000    0.000    0.000 
#    0.000    0.000    0.000    0.000    0.000    0.000 
#
# Total GULP energy -346952.348516 kJ/mol
# GULP energy per Si atom -12391.155304 kJ/mol
# Density = 2.282930 g / cm^3
# Si number density = 22.881378 Si / 1000 Ang^3
#
#
#
# Elastic Constant Matrix: (Units=GPa)
#
#
# Indices 1 2 3 4 5 6 
#
# 1 87.1020 0.5982 18.1743 0.0000 0.0000 0.0000
# 2 0.5982 52.8553 5.3805 0.0000 0.0000 0.0000
# 3 18.1743 5.3805 99.2618 0.0000 0.0000 0.0000
# 4 0.0000 0.0000 0.0000 40.1626 0.0000 0.0000
# 5 0.0000 0.0000 0.0000 0.0000 46.9636 0.0000
# 6 0.0000 0.0000 0.0000 0.0000 0.0000 8.2583
#
#
#
# Elastic Compliance Matrix: (Units=1/GPa)
#
#
# Indices 1 2 3 4 5 6 
#
# 1 0.011937 0.000088 -0.002190 0.000000 0.000000 0.000000
# 2 0.000088 0.019025 -0.001047 0.000000 0.000000 0.000000
# 3 -0.002190 -0.001047 0.010532 0.000000 0.000000 0.000000
# 4 0.000000 0.000000 0.000000 0.024899 0.000000 0.000000
# 5 0.000000 0.000000 0.000000 0.000000 0.021293 0.000000
# 6 0.000000 0.000000 0.000000 0.000000 0.000000 0.121091
#
#
# Mechanical properties :
#
#
# Convention : Reuss Voigt Hill
#
# Bulk Modulus (GPa) = 28.41323 31.94723 30.18023
# Shear Modulus (GPa) = 22.04502 33.41463 27.72982
#
# Velocity S-wave (km/s) = 3.10731 3.82559 3.48500
# Velocity P-wave (km/s) = 5.03174 5.78843 5.42330
#
# Compressibility (1/GPa) = 0.03519487
#
# Stress axis : x y z
#
# Youngs Moduli (GPa) = 83.77149 52.56184 94.94695
#
# Poissons Ratio (x) = -0.00462 0.20797
# Poissons Ratio (y) = -0.00736 0.09944
# Poissons Ratio (z) = 0.18349 0.05505
#
# Static dielectric constant tensor:
#      x y z
#    x 4.143270 0.000000 0.000000 
#    y 0.000000 4.078140 0.000000 
#    z 0.000000 0.000000 3.736210 
# 
# 
# High freq. dielectric constant tensor:
#      x y z
#    x 1.891120 0.000000 0.000000 
#    y 0.000000 1.893560 0.000000 
#    z 0.000000 0.000000 1.910450 
# 
# From -- ./inp_files/21404.got.cif
#   From: 2010.03.12/outbox.cif.g09.slc.cpg/sg62_11_cif.got.tgz:21404.got - 2010.04.10 19:12:36.
