data_PCOD8254982
_publ_section_title
;
Structure prediction by ZEFSAII (Michael W. Deem and Ramdas Pophale) SiO2 
 PCOD8254982
Probable space group: P N M A
;
_chemical_formula_sum "Si O2"
_cell_formula_units_Z 48
_cell_length_a 13.305109
_cell_length_b 18.507243
_cell_length_c 9.620817
_cell_angle_alpha 90.000000
_cell_angle_beta 90.000000
_cell_angle_gamma 90.000000
_cell_volume 2369.038496
_symmetry_space_group_name_H-M "P N M A"
_symmetry_group_IT_number 62
_symmetry_cell_setting 'orthorhombic'
loop_
_space_group_symop_operation_xyz
x,y,z
1/2-x,-y,1/2+z
1/2+x,1/2-y,1/2-z
-x,1/2+y,-z
-x,-y,-z
1/2+x,y,1/2-z
1/2-x,1/2+y,1/2+z
x,1/2-y,z
loop_
_atom_site_type_symbol
_atom_site_label
_atom_site_fract_x
_atom_site_fract_y
_atom_site_fract_z
Si Si1 0.559557 0.562376 0.079094
Si Si2 0.911294 0.429752 0.109134
Si Si3 0.603645 0.408672 0.722434
Si Si4 0.408875 0.830822 0.554873
Si Si5 0.211672 0.893353 0.637298
Si Si6 0.694005 0.542503 0.332583
O O1 0.478703 0.611165 0.160881
O O2 0.634269 0.526202 0.191005
O O3 0.500000 0.500000 0.000000
O O4 0.619795 0.613884 0.972202
O O5 0.923649 0.512917 0.155048
O O6 0.829583 0.390601 0.206325
O O7 0.017426 0.388845 0.127507
O O8 0.876231 0.420706 0.949369
O O9 0.601110 0.346731 0.608167
O O10 0.712323 0.406429 0.794728
O O11 0.451332 0.750000 0.575646
O O12 0.297006 0.832900 0.621104
O O13 0.264627 0.969180 0.600603
#
# Coordination Sequence:
#
# PCOD8254982 Si02
#       6
#     8   8   8   8   8   8
#     4  12  21  34  60 100 126 154 200 265 318 374
#     4  11  22  39  67  94 126 159 218 270 317 369
#     4  11  22  38  63  95 128 160 215 264 319 373
#     4  12  25  43  62  89 133 178 211 256 328 394
#     4  11  23  37  62  96 125 161 205 268 321 373
#     4  11  20  36  64  98 127 155 208 265 326 364
#
# _framework density 20.261385000000001
#
# number of rings (size 3 to 8) (size 9 to 14) (size 15 to 20)
#    0.000    0.667    8.333    2.500    0.000    0.667 
#    0.000    3.333    0.000    2.000    0.000    0.000 
#    0.000    0.000    0.000    0.000    0.000    0.000 
#
# Total GULP energy -595263.365358 kJ/mol
# GULP energy per Si atom -12401.320112 kJ/mol
# Density = 2.021527 g / cm^3
# Si number density = 20.261385 Si / 1000 Ang^3
#
#
#
# Elastic Constant Matrix: (Units=GPa)
#
#
# Indices 1 2 3 4 5 6 
#
# 1 122.2766 25.9654 40.3130 0.0000 0.0000 0.0000
# 2 25.9654 49.5456 23.7241 0.0000 0.0000 0.0000
# 3 40.3130 23.7241 106.7129 0.0000 0.0000 0.0000
# 4 0.0000 0.0000 0.0000 11.8961 0.0000 0.0000
# 5 0.0000 0.0000 0.0000 0.0000 51.9909 0.0000
# 6 0.0000 0.0000 0.0000 0.0000 0.0000 17.2765
#
#
#
# Elastic Compliance Matrix: (Units=1/GPa)
#
#
# Indices 1 2 3 4 5 6 
#
# 1 0.009949 -0.003821 -0.002909 0.000000 0.000000 0.000000
# 2 -0.003821 0.024055 -0.003905 0.000000 0.000000 0.000000
# 3 -0.002909 -0.003905 0.011338 0.000000 0.000000 0.000000
# 4 0.000000 0.000000 0.000000 0.084061 0.000000 0.000000
# 5 0.000000 0.000000 0.000000 0.000000 0.019234 0.000000
# 6 0.000000 0.000000 0.000000 0.000000 0.000000 0.057882
#
#
# Mechanical properties :
#
#
# Convention : Reuss Voigt Hill
#
# Bulk Modulus (GPa) = 41.53967 50.94891 46.24429
# Shear Modulus (GPa) = 21.20331 28.80155 25.00243
#
# Velocity S-wave (km/s) = 3.23846 3.77437 3.51664
# Velocity P-wave (km/s) = 5.87621 6.64792 6.27394
#
# Compressibility (1/GPa) = 0.02407337
#
# Stress axis : x y z
#
# Youngs Moduli (GPa) = 100.51727 41.57064 88.20021
#
# Poissons Ratio (x) = 0.15884 0.25656
# Poissons Ratio (y) = 0.38407 0.34438
# Poissons Ratio (z) = 0.29239 0.16231
#
# Static dielectric constant tensor:
#      x y z
#    x 4.173380 0.000000 0.000000 
#    y 0.000000 3.044990 0.000000 
#    z 0.000000 0.000000 3.937570 
# 
# 
# High freq. dielectric constant tensor:
#      x y z
#    x 1.821480 0.000000 0.000000 
#    y 0.000000 1.715340 0.000000 
#    z 0.000000 0.000000 1.805900 
# 
# From -- ./inp_files/6487.got.cif
#   From: 2010.03.12/outbox.cif.g09.slc.cpg/sg62_4_cif.got.tgz:6487.got - 2010.04.10 19:12:36.
