data_PCOD8254019
_publ_section_title
;
Structure prediction by ZEFSAII (Michael W. Deem and Ramdas Pophale) SiO2 
 PCOD8254019
Probable space group: P N M A
;
_chemical_formula_sum "Si O2"
_cell_formula_units_Z 64
_cell_length_a 11.944320
_cell_length_b 8.561505
_cell_length_c 30.523752
_cell_angle_alpha 90.000000
_cell_angle_beta 90.000000
_cell_angle_gamma 90.000000
_cell_volume 3121.400251
_symmetry_space_group_name_H-M "P N M A"
_symmetry_group_IT_number 62
_symmetry_cell_setting 'orthorhombic'
loop_
_space_group_symop_operation_xyz
x,y,z
1/2-x,-y,1/2+z
1/2+x,1/2-y,1/2-z
-x,1/2+y,-z
-x,-y,-z
1/2+x,y,1/2-z
1/2-x,1/2+y,1/2+z
x,1/2-y,z
loop_
_atom_site_type_symbol
_atom_site_label
_atom_site_fract_x
_atom_site_fract_y
_atom_site_fract_z
Si Si1 0.241085 0.434626 0.448990
Si Si2 0.504843 0.573597 0.164614
Si Si3 0.996787 0.431326 0.427019
Si Si4 0.222861 0.430104 0.297798
Si Si5 0.136345 0.932582 0.121558
Si Si6 0.773213 0.928624 0.292877
Si Si7 0.377831 0.932717 0.368809
Si Si8 0.762387 0.065657 0.459890
O O1 0.247348 0.250000 0.441125
O O2 0.113971 0.501372 0.444497
O O3 0.317188 0.518447 0.413322
O O4 0.285624 0.480246 0.497015
O O5 0.509365 0.750000 0.146354
O O6 0.485372 0.458386 0.124489
O O7 0.618883 0.536094 0.189051
O O8 0.404797 0.553509 0.198765
O O9 0.996848 0.250000 0.436411
O O10 0.887731 0.502906 0.451018
O O11 0.193588 0.250000 0.305829
O O12 0.246430 0.457514 0.246941
O O13 0.329339 0.475964 0.327124
O O14 0.154065 0.750000 0.112134
O O15 0.203325 0.983850 0.164875
O O16 0.007503 0.977259 0.127845
O O17 0.181898 0.028435 0.080464
O O18 0.742336 0.750000 0.280812
O O19 0.360787 0.750000 0.360804
O O20 0.763253 0.250000 0.467665
#
# Coordination Sequence:
#
# PCOD8254019 Si02
#       8
#     8   8   8   8   8   8   8   8
#     4  11  23  40  63  91 126 166 207 255 312 369
#     4  11  22  39  68  95 124 164 206 256 308 367
#     4  10  21  38  61  93 129 162 201 256 311 365
#     4  12  26  42  63  94 131 166 205 254 311 371
#     4  10  23  44  66  90 122 161 209 261 310 366
#     4  10  23  43  66  94 124 163 211 256 309 366
#     4  11  24  43  66  91 122 163 212 261 309 366
#     4  11  23  39  63  94 127 163 206 254 311 375
#
# _framework density 20.503619
#
# number of rings (size 3 to 8) (size 9 to 14) (size 15 to 20)
#    0.000    1.250    2.500    3.000    1.750    4.000 
#    0.000    0.000    0.000    0.000    0.000    0.000 
#    0.000    0.000    0.000    0.000    0.000    0.000 
#
# Total GULP energy -793914.744596 kJ/mol
# GULP energy per Si atom -12404.917884 kJ/mol
# Density = 2.045695 g / cm^3
# Si number density = 20.503619 Si / 1000 Ang^3
#
#
#
# Elastic Constant Matrix: (Units=GPa)
#
#
# Indices 1 2 3 4 5 6 
#
# 1 100.7594 25.7641 20.6920 0.0000 0.0000 0.0000
# 2 25.7641 33.5235 14.7921 0.0000 0.0000 0.0000
# 3 20.6920 14.7921 109.4707 0.0000 0.0000 0.0000
# 4 0.0000 0.0000 0.0000 30.8731 0.0000 0.0000
# 5 0.0000 0.0000 0.0000 0.0000 20.5066 0.0000
# 6 0.0000 0.0000 0.0000 0.0000 0.0000 26.5919
#
#
#
# Elastic Compliance Matrix: (Units=1/GPa)
#
#
# Indices 1 2 3 4 5 6 
#
# 1 0.012482 -0.009094 -0.001131 0.000000 0.000000 0.000000
# 2 -0.009094 0.038347 -0.003463 0.000000 0.000000 0.000000
# 3 -0.001131 -0.003463 0.009816 0.000000 0.000000 0.000000
# 4 0.000000 0.000000 0.000000 0.032391 0.000000 0.000000
# 5 0.000000 0.000000 0.000000 0.000000 0.048765 0.000000
# 6 0.000000 0.000000 0.000000 0.000000 0.000000 0.037605
#
#
# Mechanical properties :
#
#
# Convention : Reuss Voigt Hill
#
# Bulk Modulus (GPa) = 30.05635 40.69446 35.37541
# Shear Modulus (GPa) = 22.94932 27.76135 25.35534
#
# Velocity S-wave (km/s) = 3.34920 3.68363 3.52039
# Velocity P-wave (km/s) = 5.44491 6.16301 5.81506
#
# Compressibility (1/GPa) = 0.03327084
#
# Stress axis : x y z
#
# Youngs Moduli (GPa) = 80.11424 26.07772 101.86998
#
# Poissons Ratio (x) = 0.23716 0.11517
# Poissons Ratio (y) = 0.72857 0.35274
# Poissons Ratio (z) = 0.09057 0.09030
#
# Static dielectric constant tensor:
#      x y z
#    x 3.929210 0.000000 0.000000 
#    y 0.000000 3.609510 0.000000 
#    z 0.000000 0.000000 3.681060 
# 
# 
# High freq. dielectric constant tensor:
#      x y z
#    x 1.809330 0.000000 0.000000 
#    y 0.000000 1.797750 0.000000 
#    z 0.000000 0.000000 1.809470 
# 
# From -- ./inp_files/32465.got.cif
#   From: 2010.03.12/outbox.cif.g09.slc.cpg/sg62_17_cif.got.tgz:32465.got - 2010.04.10 19:12:36.
