data_PCOD8254833
_publ_section_title
;
Structure prediction by ZEFSAII (Michael W. Deem and Ramdas Pophale) SiO2 
 PCOD8254833
Probable space group: P N M A
;
_chemical_formula_sum "Si O2"
_cell_formula_units_Z 48
_cell_length_a 8.913897
_cell_length_b 25.229872
_cell_length_c 9.404669
_cell_angle_alpha 90.000000
_cell_angle_beta 90.000000
_cell_angle_gamma 90.000000
_cell_volume 2115.076957
_symmetry_space_group_name_H-M "P N M A"
_symmetry_group_IT_number 62
_symmetry_cell_setting 'orthorhombic'
loop_
_space_group_symop_operation_xyz
x,y,z
1/2-x,-y,1/2+z
1/2+x,1/2-y,1/2-z
-x,1/2+y,-z
-x,-y,-z
1/2+x,y,1/2-z
1/2-x,1/2+y,1/2+z
x,1/2-y,z
loop_
_atom_site_type_symbol
_atom_site_label
_atom_site_fract_x
_atom_site_fract_y
_atom_site_fract_z
Si Si1 0.928951 0.479640 0.644130
Si Si2 0.751487 0.310289 0.592199
Si Si3 0.867560 0.811208 0.790864
Si Si4 0.155568 0.637619 0.922241
Si Si5 0.890413 0.480657 0.120661
Si Si6 0.526627 0.636107 0.273298
O O1 0.748478 0.478939 0.639640
O O2 0.979515 0.422822 0.707386
O O3 0.000000 0.500000 0.500000
O O4 0.000325 0.523730 0.745763
O O5 0.708599 0.250000 0.628628
O O6 0.749026 0.318920 0.421892
O O7 0.917157 0.324797 0.648275
O O8 0.639478 0.349335 0.675910
O O9 0.913229 0.750000 0.771777
O O10 0.799092 0.831857 0.642112
O O11 0.013969 0.844123 0.830358
O O12 0.184191 0.575576 0.906728
O O13 0.135699 0.646601 0.090706
O O14 0.000000 0.500000 0.000000
#
# Coordination Sequence:
#
# PCOD8254833 Si02
#       6
#     8   8   8   8   8   8
#     4  12  27  43  72 101 142 189 236 295 353 424
#     4  10  23  42  67  99 135 175 225 285 348 419
#     4  10  23  43  68 100 134 175 227 285 347 418
#     4  11  24  43  70  97 135 179 228 284 346 415
#     4  12  25  46  68 104 142 183 241 290 354 425
#     4  11  24  42  69  97 136 179 230 281 348 413
#
# _framework density 22.694209000000001
#
# number of rings (size 3 to 8) (size 9 to 14) (size 15 to 20)
#    0.000    1.000    1.667    4.000    7.000    3.333 
#    0.000    0.000    0.000    0.000    0.000    0.000 
#    0.000    0.000    0.000    0.000    0.000    0.000 
#
# Total GULP energy -595021.818961 kJ/mol
# GULP energy per Si atom -12396.287895 kJ/mol
# Density = 2.264256 g / cm^3
# Si number density = 22.694209 Si / 1000 Ang^3
#
#
#
# Elastic Constant Matrix: (Units=GPa)
#
#
# Indices 1 2 3 4 5 6 
#
# 1 68.8866 11.4219 32.4640 0.0000 0.0000 0.0000
# 2 11.4219 97.8267 24.3871 0.0000 0.0000 0.0000
# 3 32.4640 24.3871 110.7945 0.0000 0.0000 0.0000
# 4 0.0000 0.0000 0.0000 43.8103 0.0000 0.0000
# 5 0.0000 0.0000 0.0000 0.0000 49.8341 0.0000
# 6 0.0000 0.0000 0.0000 0.0000 0.0000 30.7028
#
#
#
# Elastic Compliance Matrix: (Units=1/GPa)
#
#
# Indices 1 2 3 4 5 6 
#
# 1 0.016899 -0.000782 -0.004779 0.000000 0.000000 0.000000
# 2 -0.000782 0.010852 -0.002160 0.000000 0.000000 0.000000
# 3 -0.004779 -0.002160 0.010901 0.000000 0.000000 0.000000
# 4 0.000000 0.000000 0.000000 0.022826 0.000000 0.000000
# 5 0.000000 0.000000 0.000000 0.000000 0.020067 0.000000
# 6 0.000000 0.000000 0.000000 0.000000 0.000000 0.032570
#
#
# Mechanical properties :
#
#
# Convention : Reuss Voigt Hill
#
# Bulk Modulus (GPa) = 43.08363 46.00598 44.54480
# Shear Modulus (GPa) = 36.41862 38.81844 37.61853
#
# Velocity S-wave (km/s) = 4.01028 4.14031 4.07581
# Velocity P-wave (km/s) = 6.36151 6.57056 6.46688
#
# Compressibility (1/GPa) = 0.02321067
#
# Stress axis : x y z
#
# Youngs Moduli (GPa) = 59.17658 92.15087 91.73057
#
# Poissons Ratio (x) = 0.07202 0.43842
# Poissons Ratio (y) = 0.04625 0.19810
# Poissons Ratio (z) = 0.28283 0.19901
#
# Static dielectric constant tensor:
#      x y z
#    x 3.984540 0.000000 0.000000 
#    y 0.000000 3.881590 0.000000 
#    z 0.000000 0.000000 4.267820 
# 
# 
# High freq. dielectric constant tensor:
#      x y z
#    x 1.891810 0.000000 0.000000 
#    y 0.000000 1.899650 0.000000 
#    z 0.000000 0.000000 1.909510 
# 
# From -- ./inp_files/4521.got.cif
#   From: 2010.03.12/outbox.cif.g09.slc.cpg/sg62_3_cif.got.tgz:4521.got - 2010.04.10 19:12:36.
