data_PCOD8254645
_publ_section_title
;
Structure prediction by ZEFSAII (Michael W. Deem and Ramdas Pophale) SiO2 
 PCOD8254645
Probable space group: P N M A
;
_chemical_formula_sum "Si O2"
_cell_formula_units_Z 56
_cell_length_a 8.517643
_cell_length_b 20.237567
_cell_length_c 14.549722
_cell_angle_alpha 90.000000
_cell_angle_beta 90.000000
_cell_angle_gamma 90.000000
_cell_volume 2508.028276
_symmetry_space_group_name_H-M "P N M A"
_symmetry_group_IT_number 62
_symmetry_cell_setting 'orthorhombic'
loop_
_space_group_symop_operation_xyz
x,y,z
1/2-x,-y,1/2+z
1/2+x,1/2-y,1/2-z
-x,1/2+y,-z
-x,-y,-z
1/2+x,y,1/2-z
1/2-x,1/2+y,1/2+z
x,1/2-y,z
loop_
_atom_site_type_symbol
_atom_site_label
_atom_site_fract_x
_atom_site_fract_y
_atom_site_fract_z
Si Si1 0.474417 0.376700 0.029604
Si Si2 0.868807 0.673076 0.021111
Si Si3 0.416822 0.750000 0.886836
Si Si4 0.521485 0.384607 0.348040
Si Si5 0.374586 0.900821 0.154651
Si Si6 0.154801 0.950643 0.698172
Si Si7 0.093588 0.750000 0.779966
Si Si8 0.562204 0.673218 0.301858
O O1 0.308183 0.350735 0.992514
O O2 0.588121 0.314897 0.050888
O O3 0.464420 0.423680 0.119532
O O4 0.564005 0.414854 0.948301
O O5 0.887892 0.750000 0.992877
O O6 0.983130 0.626351 0.958316
O O7 0.920469 0.663172 0.125981
O O8 0.267782 0.750000 0.818916
O O9 0.584468 0.750000 0.831681
O O10 0.683067 0.416094 0.318726
O O11 0.390439 0.431753 0.303351
O O12 0.509679 0.312648 0.305627
O O13 0.222778 0.854180 0.155703
O O14 0.515213 0.866088 0.210489
O O15 0.329630 0.970983 0.197595
O O16 0.587554 0.750000 0.277413
#
# Coordination Sequence:
#
# PCOD8254645 Si02
#       8
#     8   8   4   8   8   8   4   8
#     4  11  25  41  69 101 139 178 226 281 343 408
#     4  10  22  41  66 101 137 168 219 286 349 399
#     4  12  26  38  70 107 141 182 228 282 346 398
#     4  11  23  40  68  96 140 179 222 276 337 411
#     4  12  26  47  68  94 136 176 236 286 342 420
#     4  11  25  44  64  98 136 189 221 275 348 419
#     4  12  24  40  66 105 141 176 226 276 336 400
#     4  11  26  45  72  99 127 176 232 297 352 397
#
# _framework density 22.328296999999999
#
# number of rings (size 3 to 8) (size 9 to 14) (size 15 to 20)
#    0.000    0.857    2.857    3.429    6.000    1.143 
#    0.000    7.857    0.000    0.000    0.000    0.000 
#    0.000    0.000    0.000    0.000    0.000    0.000 
#
# Total GULP energy -694308.226784 kJ/mol
# GULP energy per Si atom -12398.361193 kJ/mol
# Density = 2.227748 g / cm^3
# Si number density = 22.328297 Si / 1000 Ang^3
#
#
#
# Elastic Constant Matrix: (Units=GPa)
#
#
# Indices 1 2 3 4 5 6 
#
# 1 78.3775 16.8758 19.0031 0.0000 0.0000 0.0000
# 2 16.8758 136.9246 18.4281 0.0000 0.0000 0.0000
# 3 19.0031 18.4281 62.6326 0.0000 0.0000 0.0000
# 4 0.0000 0.0000 0.0000 31.6218 0.0000 0.0000
# 5 0.0000 0.0000 0.0000 0.0000 35.3914 0.0000
# 6 0.0000 0.0000 0.0000 0.0000 0.0000 0.7731
#
#
#
# Elastic Compliance Matrix: (Units=1/GPa)
#
#
# Indices 1 2 3 4 5 6 
#
# 1 0.013958 -0.001198 -0.003883 0.000000 0.000000 0.000000
# 2 -0.001198 0.007707 -0.001904 0.000000 0.000000 0.000000
# 3 -0.003883 -0.001904 0.017704 0.000000 0.000000 0.000000
# 4 0.000000 0.000000 0.000000 0.031624 0.000000 0.000000
# 5 0.000000 0.000000 0.000000 0.000000 0.028255 0.000000
# 6 0.000000 0.000000 0.000000 0.000000 0.000000 1.293522
#
#
# Mechanical properties :
#
#
# Convention : Reuss Voigt Hill
#
# Bulk Modulus (GPa) = 39.36930 42.94986 41.15958
# Shear Modulus (GPa) = 3.53305 28.46576 15.99941
#
# Velocity S-wave (km/s) = 1.25927 3.57441 2.67975
# Velocity P-wave (km/s) = 4.44799 6.02599 5.29609
#
# Compressibility (1/GPa) = 0.02540050
#
# Stress axis : x y z
#
# Youngs Moduli (GPa) = 71.64346 129.74886 56.48313
#
# Poissons Ratio (x) = 0.15541 0.21930
# Poissons Ratio (y) = 0.08581 0.10756
# Poissons Ratio (z) = 0.27816 0.24707
#
# Static dielectric constant tensor:
#      x y z
#    x 3.825360 0.000000 0.000000 
#    y 0.000000 3.938140 0.000000 
#    z 0.000000 0.000000 4.281590 
# 
# 
# High freq. dielectric constant tensor:
#      x y z
#    x 1.877540 0.000000 0.000000 
#    y 0.000000 1.879340 0.000000 
#    z 0.000000 0.000000 1.885630 
# 
# From -- ./inp_files/17249.got.cif
#   From: 2010.03.12/outbox.cif.g09.slc.cpg/sg62_9_cif.got.tgz:17249.got - 2010.04.10 19:12:36.
