data_PCOD8254649
_publ_section_title
;
Structure prediction by ZEFSAII (Michael W. Deem and Ramdas Pophale) SiO2 
 PCOD8254649
Probable space group: P N M A
;
_chemical_formula_sum "Si O2"
_cell_formula_units_Z 32
_cell_length_a 9.864293
_cell_length_b 18.758034
_cell_length_c 8.796429
_cell_angle_alpha 90.000000
_cell_angle_beta 90.000000
_cell_angle_gamma 90.000000
_cell_volume 1627.644984
_symmetry_space_group_name_H-M "P N M A"
_symmetry_group_IT_number 62
_symmetry_cell_setting 'orthorhombic'
loop_
_space_group_symop_operation_xyz
x,y,z
1/2-x,-y,1/2+z
1/2+x,1/2-y,1/2-z
-x,1/2+y,-z
-x,-y,-z
1/2+x,y,1/2-z
1/2-x,1/2+y,1/2+z
x,1/2-y,z
loop_
_atom_site_type_symbol
_atom_site_label
_atom_site_fract_x
_atom_site_fract_y
_atom_site_fract_z
Si Si1 0.711985 0.832420 0.893180
Si Si2 0.026020 0.668988 0.894512
Si Si3 0.134390 0.531843 0.430495
Si Si4 0.381811 0.455774 0.573382
O O1 0.692531 0.750000 0.945629
O O2 0.619165 0.849998 0.748909
O O3 0.869324 0.848459 0.853848
O O4 0.663304 0.886022 0.024538
O O5 0.042630 0.750000 0.943473
O O6 0.081760 0.626405 0.040184
O O7 0.245848 0.477468 0.489484
O O8 0.128981 0.529208 0.250169
O O9 0.000000 0.500000 0.500000
O O10 0.500000 0.500000 0.500000
#
# Coordination Sequence:
#
# PCOD8254649 Si02
#       4
#     8   8   8   8
#     4  10  22  42  66  95 129 167 210 258 319 382
#     4  10  22  41  66  94 129 169 209 260 319 381
#     4  12  26  41  66  96 126 168 210 265 317 375
#     4  12  24  43  64  93 128 163 213 262 318 375
#
# _framework density 19.660307
#
# number of rings (size 3 to 8) (size 9 to 14) (size 15 to 20)
#    0.000    1.000    2.500    4.500    3.500    1.000 
#    0.000    0.000    0.000    0.000    0.000    0.000 
#    0.000    0.000    0.000    0.000    0.000    0.000 
#
# Total GULP energy -396812.720892 kJ/mol
# GULP energy per Si atom -12400.397528 kJ/mol
# Density = 1.961556 g / cm^3
# Si number density = 19.660307 Si / 1000 Ang^3
#
#
#
# Elastic Constant Matrix: (Units=GPa)
#
#
# Indices 1 2 3 4 5 6 
#
# 1 171.1776 64.5877 78.5929 0.0000 0.0000 0.0000
# 2 64.5877 118.4677 66.0136 0.0000 0.0000 0.0000
# 3 78.5929 66.0136 170.3464 0.0000 0.0000 0.0000
# 4 0.0000 0.0000 0.0000 39.5587 0.0000 0.0000
# 5 0.0000 0.0000 0.0000 0.0000 32.0735 0.0000
# 6 0.0000 0.0000 0.0000 0.0000 0.0000 38.2636
#
#
#
# Elastic Compliance Matrix: (Units=1/GPa)
#
#
# Indices 1 2 3 4 5 6 
#
# 1 0.008172 -0.003003 -0.002607 0.000000 0.000000 0.000000
# 2 -0.003003 0.011869 -0.003214 0.000000 0.000000 0.000000
# 3 -0.002607 -0.003214 0.008319 0.000000 0.000000 0.000000
# 4 0.000000 0.000000 0.000000 0.025279 0.000000 0.000000
# 5 0.000000 0.000000 0.000000 0.000000 0.031178 0.000000
# 6 0.000000 0.000000 0.000000 0.000000 0.000000 0.026135
#
#
# Mechanical properties :
#
#
# Convention : Reuss Voigt Hill
#
# Bulk Modulus (GPa) = 93.34928 97.59780 95.47354
# Shear Modulus (GPa) = 37.83035 38.69897 38.26466
#
# Velocity S-wave (km/s) = 4.39133 4.44146 4.41646
# Velocity P-wave (km/s) = 8.56130 8.72077 8.64140
#
# Compressibility (1/GPa) = 0.01071246
#
# Stress axis : x y z
#
# Youngs Moduli (GPa) = 122.37566 84.25139 120.21263
#
# Poissons Ratio (x) = 0.25298 0.31334
# Poissons Ratio (y) = 0.36745 0.38640
# Poissons Ratio (z) = 0.31897 0.27081
#
# Static dielectric constant tensor:
#      x y z
#    x 3.855770 0.000000 0.000000 
#    y 0.000000 3.697590 0.000000 
#    z 0.000000 0.000000 3.707420 
# 
# 
# High freq. dielectric constant tensor:
#      x y z
#    x 1.790330 0.000000 0.000000 
#    y 0.000000 1.786300 0.000000 
#    z 0.000000 0.000000 1.752350 
# 
# From -- ./inp_files/4111.got.cif
#   From: 2010.03.12/outbox.cif.g09.slc.cpg/sg62_3_cif.got.tgz:4111.got - 2010.04.10 19:12:36.
