data_PCOD8254724
_publ_section_title
;
Structure prediction by ZEFSAII (Michael W. Deem and Ramdas Pophale) SiO2 
 PCOD8254724
Probable space group: P N M A
;
_chemical_formula_sum "Si O2"
_cell_formula_units_Z 48
_cell_length_a 8.961206
_cell_length_b 15.181725
_cell_length_c 16.608111
_cell_angle_alpha 90.000000
_cell_angle_beta 90.000000
_cell_angle_gamma 90.000000
_cell_volume 2259.476455
_symmetry_space_group_name_H-M "P N M A"
_symmetry_group_IT_number 62
_symmetry_cell_setting 'orthorhombic'
loop_
_space_group_symop_operation_xyz
x,y,z
1/2-x,-y,1/2+z
1/2+x,1/2-y,1/2-z
-x,1/2+y,-z
-x,-y,-z
1/2+x,y,1/2-z
1/2-x,1/2+y,1/2+z
x,1/2-y,z
loop_
_atom_site_type_symbol
_atom_site_label
_atom_site_fract_x
_atom_site_fract_y
_atom_site_fract_z
Si Si1 0.548059 0.150312 0.839214
Si Si2 0.618672 0.571526 0.020760
Si Si3 0.326069 0.151170 0.148949
Si Si4 0.618821 0.855229 0.317679
Si Si5 0.005852 0.648105 0.802452
Si Si6 0.076366 0.010947 0.915238
O O1 0.584044 0.250000 0.819363
O O2 0.471963 0.142938 0.926613
O O3 0.713402 0.106103 0.832876
O O4 0.431211 0.116528 0.772230
O O5 0.750724 0.534086 0.074999
O O6 0.500000 0.500000 0.000000
O O7 0.682170 0.603189 0.935899
O O8 0.366555 0.250000 0.126408
O O9 0.170964 0.142123 0.195086
O O10 0.448301 0.115711 0.212603
O O11 0.605399 0.750000 0.333996
O O12 0.505657 0.906289 0.375183
O O13 0.059776 0.750000 0.818618
O O14 0.073725 0.581366 0.867532
O O15 0.000000 0.000000 0.000000
#
# Coordination Sequence:
#
# PCOD8254724 Si02
#       6
#     8   8   8   8   8   8
#     4  10  22  43  66  97 134 176 219 268 332 405
#     4  12  26  41  64 100 135 174 221 278 340 402
#     4  10  23  45  69  94 130 175 225 278 335 396
#     4  10  23  42  69  99 134 177 221 270 334 405
#     4  10  24  45  70  96 128 175 227 277 333 401
#     4  12  25  43  67  98 132 174 225 282 338 396
#
# _framework density 21.243860000000002
#
# number of rings (size 3 to 8) (size 9 to 14) (size 15 to 20)
#    0.000    1.333    1.667    2.500    4.667    3.333 
#    0.000    0.833    0.000    0.000    0.000    0.000 
#    0.000    0.000    0.000    0.000    0.000    0.000 
#
# Total GULP energy -594998.473092 kJ/mol
# GULP energy per Si atom -12395.801523 kJ/mol
# Density = 2.119551 g / cm^3
# Si number density = 21.243860 Si / 1000 Ang^3
#
#
#
# Elastic Constant Matrix: (Units=GPa)
#
#
# Indices 1 2 3 4 5 6 
#
# 1 140.7136 34.5247 52.5905 0.0000 0.0000 0.0000
# 2 34.5247 72.6179 46.5391 0.0000 0.0000 0.0000
# 3 52.5905 46.5391 138.3092 0.0000 0.0000 0.0000
# 4 0.0000 0.0000 0.0000 39.0281 0.0000 0.0000
# 5 0.0000 0.0000 0.0000 0.0000 49.3634 0.0000
# 6 0.0000 0.0000 0.0000 0.0000 0.0000 33.8042
#
#
#
# Elastic Compliance Matrix: (Units=1/GPa)
#
#
# Indices 1 2 3 4 5 6 
#
# 1 0.008640 -0.002553 -0.002426 0.000000 0.000000 0.000000
# 2 -0.002553 0.018311 -0.005191 0.000000 0.000000 0.000000
# 3 -0.002426 -0.005191 0.009899 0.000000 0.000000 0.000000
# 4 0.000000 0.000000 0.000000 0.025623 0.000000 0.000000
# 5 0.000000 0.000000 0.000000 0.000000 0.020258 0.000000
# 6 0.000000 0.000000 0.000000 0.000000 0.000000 0.029582
#
#
# Mechanical properties :
#
#
# Convention : Reuss Voigt Hill
#
# Bulk Modulus (GPa) = 60.56670 68.77213 64.66941
# Shear Modulus (GPa) = 36.19112 38.97157 37.58135
#
# Velocity S-wave (km/s) = 4.13195 4.28774 4.21056
# Velocity P-wave (km/s) = 7.16492 7.54691 7.35840
#
# Compressibility (1/GPa) = 0.01651072
#
# Stress axis : x y z
#
# Youngs Moduli (GPa) = 115.74453 54.61217 101.01694
#
# Poissons Ratio (x) = 0.13941 0.24509
# Poissons Ratio (y) = 0.29546 0.52435
# Poissons Ratio (z) = 0.28082 0.28348
#
# Static dielectric constant tensor:
#      x y z
#    x 4.019900 0.000000 0.000000 
#    y 0.000000 4.312710 0.000000 
#    z 0.000000 0.000000 2.956620 
# 
# 
# High freq. dielectric constant tensor:
#      x y z
#    x 1.848010 0.000000 0.000000 
#    y 0.000000 1.830970 0.000000 
#    z 0.000000 0.000000 1.841040 
# 
# From -- ./inp_files/22220.got.cif
#   From: 2010.03.12/outbox.cif.g09.slc.cpg/sg62_12_cif.got.tgz:22220.got - 2010.04.10 19:12:36.
