data_PCOD8254670
_publ_section_title
;
Structure prediction by ZEFSAII (Michael W. Deem and Ramdas Pophale) SiO2 
 PCOD8254670
Probable space group: P N M A
;
_chemical_formula_sum "Si O2"
_cell_formula_units_Z 48
_cell_length_a 15.124356
_cell_length_b 29.197783
_cell_length_c 4.947124
_cell_angle_alpha 90.000000
_cell_angle_beta 90.000000
_cell_angle_gamma 90.000000
_cell_volume 2184.638404
_symmetry_space_group_name_H-M "P N M A"
_symmetry_group_IT_number 62
_symmetry_cell_setting 'orthorhombic'
loop_
_space_group_symop_operation_xyz
x,y,z
1/2-x,-y,1/2+z
1/2+x,1/2-y,1/2-z
-x,1/2+y,-z
-x,-y,-z
1/2+x,y,1/2-z
1/2-x,1/2+y,1/2+z
x,1/2-y,z
loop_
_atom_site_type_symbol
_atom_site_label
_atom_site_fract_x
_atom_site_fract_y
_atom_site_fract_z
Si Si1 0.896136 0.098687 0.435693
Si Si2 0.402487 0.599139 0.894937
Si Si3 0.708740 0.750000 0.534015
Si Si4 0.107260 0.841343 0.077759
Si Si5 0.749832 0.529945 0.722223
Si Si6 0.184457 0.250000 0.954219
Si Si7 0.589663 0.158825 0.618511
O O1 0.855846 0.120091 0.713471
O O2 0.833188 0.058347 0.335900
O O3 0.998176 0.081504 0.474826
O O4 0.894598 0.139697 0.223143
O O5 0.331791 0.558498 0.898005
O O6 0.403068 0.618001 0.593642
O O7 0.369095 0.638728 0.103432
O O8 0.661030 0.705049 0.426505
O O9 0.799458 0.750000 0.366692
O O10 0.728385 0.750000 0.853868
O O11 0.010642 0.827875 0.183227
O O12 0.713735 0.500383 0.470439
O O13 0.132930 0.296564 0.014002
#
# Coordination Sequence:
#
# PCOD8254670 Si02
#       7
#     8   8   4   8   8   4   8
#     4  10  23  42  67  92 125 170 213 260 320 383
#     4  10  23  42  67  92 125 170 213 260 320 383
#     4  12  25  36  59 100 130 167 211 260 307 360
#     4  10  22  42  63  89 127 174 213 256 308 370
#     4  12  26  42  66  97 126 163 206 274 338 392
#     4  12  25  36  59 100 130 167 211 260 307 360
#     4  10  22  42  63  89 127 174 213 256 308 370
#
# _framework density 21.971599999999999
#
# number of rings (size 3 to 8) (size 9 to 14) (size 15 to 20)
#    0.000    1.333    0.000    4.500    7.000    1.333 
#    0.000    6.667    0.000    0.000    0.000    0.000 
#    0.000    0.000    0.000    0.000    0.000    0.000 
#
# Total GULP energy -595148.210971 kJ/mol
# GULP energy per Si atom -12398.921062 kJ/mol
# Density = 2.192159 g / cm^3
# Si number density = 21.971600 Si / 1000 Ang^3
#
#
#
# Elastic Constant Matrix: (Units=GPa)
#
#
# Indices 1 2 3 4 5 6 
#
# 1 87.5309 63.6096 24.5311 0.0000 0.0000 0.0000
# 2 63.6096 112.8084 26.3909 0.0000 0.0000 0.0000
# 3 24.5311 26.3909 105.4804 0.0000 0.0000 0.0000
# 4 0.0000 0.0000 0.0000 46.6745 0.0000 0.0000
# 5 0.0000 0.0000 0.0000 0.0000 31.7353 0.0000
# 6 0.0000 0.0000 0.0000 0.0000 0.0000 -149.2814
#
#
#
# Elastic Compliance Matrix: (Units=1/GPa)
#
#
# Indices 1 2 3 4 5 6 
#
# 1 0.019714 -0.010668 -0.001916 0.000000 0.000000 0.000000
# 2 -0.010668 0.015189 -0.001319 0.000000 0.000000 0.000000
# 3 -0.001916 -0.001319 0.010256 0.000000 0.000000 0.000000
# 4 0.000000 0.000000 0.000000 0.021425 0.000000 0.000000
# 5 0.000000 0.000000 0.000000 0.000000 0.031511 0.000000
# 6 0.000000 0.000000 0.000000 0.000000 0.000000 -0.006699
#
#
# Mechanical properties :
#
#
# Convention : Reuss Voigt Hill
#
# Bulk Modulus (GPa) = 57.62720 59.43142 58.52931
# Shear Modulus (GPa) = 40.00469 -1.42178 19.29146
#
# Velocity S-wave (km/s) = 4.27165 -0.80530 2.96635
# Velocity P-wave (km/s) = 7.11437 5.12282 6.19909
#
# Compressibility (1/GPa) = 0.01735292
#
# Stress axis : x y z
#
# Youngs Moduli (GPa) = 50.72549 65.83892 97.50390
#
# Poissons Ratio (x) = 0.70237 0.18679
# Poissons Ratio (y) = 0.54114 0.12862
# Poissons Ratio (z) = 0.09717 0.08685
#
# Static dielectric constant tensor:
#      x y z
#    x 4.001750 0.000000 0.000000 
#    y 0.000000 3.859800 0.000000 
#    z 0.000000 0.000000 4.137650 
# 
# 
# High freq. dielectric constant tensor:
#      x y z
#    x 1.859610 0.000000 0.000000 
#    y 0.000000 1.858840 0.000000 
#    z 0.000000 0.000000 1.884810 
# 
# From -- ./inp_files/1186.got.cif
#   From: 2010.03.12/outbox.cif.g09.slc.cpg/sg62_1_cif.got.tgz:1186.got - 2010.04.10 19:12:36.
