data_PCOD8254125
_publ_section_title
;
Structure prediction by ZEFSAII (Michael W. Deem and Ramdas Pophale) SiO2 
 PCOD8254125
Probable space group: P N M A
;
_chemical_formula_sum "Si O2"
_cell_formula_units_Z 64
_cell_length_a 9.293378
_cell_length_b 13.468890
_cell_length_c 24.387497
_cell_angle_alpha 90.000000
_cell_angle_beta 90.000000
_cell_angle_gamma 90.000000
_cell_volume 3052.619240
_symmetry_space_group_name_H-M "P N M A"
_symmetry_group_IT_number 62
_symmetry_cell_setting 'orthorhombic'
loop_
_space_group_symop_operation_xyz
x,y,z
1/2-x,-y,1/2+z
1/2+x,1/2-y,1/2-z
-x,1/2+y,-z
-x,-y,-z
1/2+x,y,1/2-z
1/2-x,1/2+y,1/2+z
x,1/2-y,z
loop_
_atom_site_type_symbol
_atom_site_label
_atom_site_fract_x
_atom_site_fract_y
_atom_site_fract_z
Si Si1 0.122174 0.861413 0.678586
Si Si2 0.697179 0.138415 0.217091
Si Si3 0.975476 0.362307 0.705497
Si Si4 0.518953 0.636584 0.391861
Si Si5 0.797324 0.864099 0.015615
Si Si6 0.729932 0.503375 0.916636
Si Si7 0.330329 0.940331 0.294713
Si Si8 0.990662 0.136368 0.576733
O O1 0.114621 0.750000 0.655266
O O2 0.259110 0.871357 0.719008
O O3 0.971755 0.884728 0.710001
O O4 0.142438 0.932162 0.627033
O O5 0.736573 0.250000 0.195666
O O6 0.791114 0.053432 0.186410
O O7 0.017629 0.250000 0.721501
O O8 0.811340 0.380224 0.721839
O O9 0.994341 0.382033 0.641497
O O10 0.073860 0.439330 0.739442
O O11 0.572689 0.750000 0.386940
O O12 0.442122 0.618832 0.450031
O O13 0.653515 0.563939 0.385500
O O14 0.407377 0.616121 0.343676
O O15 0.781424 0.750000 0.998225
O O16 0.809002 0.928127 0.960779
O O17 0.661824 0.897272 0.052494
O O18 0.616446 0.432293 0.948348
O O19 0.023408 0.250000 0.561532
#
# Coordination Sequence:
#
# PCOD8254125 Si02
#       8
#     8   8   8   8   8   8   8   8
#     4  10  23  41  63  93 127 163 207 259 308 367
#     4  10  22  41  62  88 127 169 209 257 314 372
#     4  11  23  38  60  91 129 168 210 253 304 375
#     4  11  25  43  63  91 129 166 204 257 317 373
#     4  10  22  44  67  86 118 163 206 259 315 368
#     4  12  23  39  64  96 118 162 213 261 303 372
#     4  12  23  39  62  92 127 169 210 254 310 370
#     4  10  21  39  61  90 127 164 204 254 315 370
#
# _framework density 20.965600999999999
#
# number of rings (size 3 to 8) (size 9 to 14) (size 15 to 20)
#    0.000    1.250    1.250    4.875    5.250    0.000 
#    0.000    0.625    0.000    0.750    0.000    0.000 
#    0.000    0.000    0.000    0.000    0.000    0.000 
#
# Total GULP energy -793707.769674 kJ/mol
# GULP energy per Si atom -12401.683901 kJ/mol
# Density = 2.091788 g / cm^3
# Si number density = 20.965601 Si / 1000 Ang^3
#
#
#
# Elastic Constant Matrix: (Units=GPa)
#
#
# Indices 1 2 3 4 5 6 
#
# 1 97.8438 53.8652 19.2299 0.0000 0.0000 0.0000
# 2 53.8652 121.2084 39.0162 0.0000 0.0000 0.0000
# 3 19.2299 39.0162 62.0722 0.0000 0.0000 0.0000
# 4 0.0000 0.0000 0.0000 29.8259 0.0000 0.0000
# 5 0.0000 0.0000 0.0000 0.0000 29.0676 0.0000
# 6 0.0000 0.0000 0.0000 0.0000 0.0000 39.1468
#
#
#
# Elastic Compliance Matrix: (Units=1/GPa)
#
#
# Indices 1 2 3 4 5 6 
#
# 1 0.013544 -0.005852 -0.000517 0.000000 0.000000 0.000000
# 2 -0.005852 0.012872 -0.006278 0.000000 0.000000 0.000000
# 3 -0.000517 -0.006278 0.020216 0.000000 0.000000 0.000000
# 4 0.000000 0.000000 0.000000 0.033528 0.000000 0.000000
# 5 0.000000 0.000000 0.000000 0.000000 0.034403 0.000000
# 6 0.000000 0.000000 0.000000 0.000000 0.000000 0.025545
#
#
# Mechanical properties :
#
#
# Convention : Reuss Voigt Hill
#
# Bulk Modulus (GPa) = 46.86599 56.14966 51.50782
# Shear Modulus (GPa) = 28.98305 30.87562 29.92933
#
# Velocity S-wave (km/s) = 3.72211 3.84171 3.78239
# Velocity P-wave (km/s) = 6.39331 6.82043 6.61032
#
# Compressibility (1/GPa) = 0.02133744
#
# Stress axis : x y z
#
# Youngs Moduli (GPa) = 73.83387 77.68913 49.46477
#
# Poissons Ratio (x) = 0.45467 0.02559
# Poissons Ratio (y) = 0.43211 0.31052
# Poissons Ratio (z) = 0.03819 0.48771
#
# Static dielectric constant tensor:
#      x y z
#    x 3.815000 0.000000 0.000000 
#    y 0.000000 4.087690 0.000000 
#    z 0.000000 0.000000 3.474510 
# 
# 
# High freq. dielectric constant tensor:
#      x y z
#    x 1.825730 0.000000 0.000000 
#    y 0.000000 1.844750 0.000000 
#    z 0.000000 0.000000 1.794230 
# 
# From -- ./inp_files/29004.got.cif
#   From: 2010.03.12/outbox.cif.g09.slc.cpg/sg62_15_cif.got.tgz:29004.got - 2010.04.10 19:12:36.
