data_PCOD8254890
_publ_section_title
;
Structure prediction by ZEFSAII (Michael W. Deem and Ramdas Pophale) SiO2 
 PCOD8254890
Probable space group: P N M A
;
_chemical_formula_sum "Si O2"
_cell_formula_units_Z 32
_cell_length_a 4.856506
_cell_length_b 12.637220
_cell_length_c 20.673261
_cell_angle_alpha 90.000000
_cell_angle_beta 90.000000
_cell_angle_gamma 90.000000
_cell_volume 1268.774564
_symmetry_space_group_name_H-M "P N M A"
_symmetry_group_IT_number 62
_symmetry_cell_setting 'orthorhombic'
loop_
_space_group_symop_operation_xyz
x,y,z
1/2-x,-y,1/2+z
1/2+x,1/2-y,1/2-z
-x,1/2+y,-z
-x,-y,-z
1/2+x,y,1/2-z
1/2-x,1/2+y,1/2+z
x,1/2-y,z
loop_
_atom_site_type_symbol
_atom_site_label
_atom_site_fract_x
_atom_site_fract_y
_atom_site_fract_z
Si Si1 0.959258 0.750000 0.207216
Si Si2 0.610961 0.250000 0.206169
Si Si3 0.477506 0.933766 0.391741
Si Si4 0.809315 0.367157 0.394455
Si Si5 0.477910 0.627891 0.032614
O O1 0.641218 0.750000 0.227877
O O2 0.028731 0.644251 0.167810
O O3 0.929390 0.250000 0.227291
O O4 0.536564 0.145750 0.163067
O O5 0.160531 0.933832 0.413761
O O6 0.657771 0.893248 0.453094
O O7 0.572159 0.052053 0.372026
O O8 0.675401 0.250000 0.407442
O O9 0.955350 0.411405 0.459886
O O10 0.552632 0.750000 0.039913
#
# Coordination Sequence:
#
# PCOD8254890 Si02
#       5
#     4   4   8   8   8
#     4  12  26  42  64  92 126 172 222 254 310 370
#     4  10  24  42  62  86 128 168 216 250 304 372
#     4  12  23  43  68  95 131 166 208 268 321 378
#     4   9  24  43  66 100 127 168 210 264 320 384
#     4  11  21  41  67 100 129 161 208 266 328 383
#
# _framework density 25.221185999999999
#
# number of rings (size 3 to 8) (size 9 to 14) (size 15 to 20)
#    0.750    0.500    2.500    3.000    0.000    6.000 
#    0.000    0.000    0.000    0.000    0.000    0.000 
#    0.000    0.000    0.000    0.000    0.000    0.000 
#
# Total GULP energy -396894.560536 kJ/mol
# GULP energy per Si atom -12402.955017 kJ/mol
# Density = 2.516378 g / cm^3
# Si number density = 25.221186 Si / 1000 Ang^3
#
#
#
# Elastic Constant Matrix: (Units=GPa)
#
#
# Indices 1 2 3 4 5 6 
#
# 1 68.6688 4.8158 1.8694 0.0000 0.0000 0.0000
# 2 4.8158 97.6064 22.7470 0.0000 0.0000 0.0000
# 3 1.8694 22.7470 93.2608 0.0000 0.0000 0.0000
# 4 0.0000 0.0000 0.0000 30.5855 0.0000 0.0000
# 5 0.0000 0.0000 0.0000 0.0000 30.6941 0.0000
# 6 0.0000 0.0000 0.0000 0.0000 0.0000 19.8289
#
#
#
# Elastic Compliance Matrix: (Units=1/GPa)
#
#
# Indices 1 2 3 4 5 6 
#
# 1 0.014615 -0.000692 -0.000124 0.000000 0.000000 0.000000
# 2 -0.000692 0.010895 -0.002644 0.000000 0.000000 0.000000
# 3 -0.000124 -0.002644 0.011370 0.000000 0.000000 0.000000
# 4 0.000000 0.000000 0.000000 0.032695 0.000000 0.000000
# 5 0.000000 0.000000 0.000000 0.000000 0.032580 0.000000
# 6 0.000000 0.000000 0.000000 0.000000 0.000000 0.050431
#
#
# Mechanical properties :
#
#
# Convention : Reuss Voigt Hill
#
# Bulk Modulus (GPa) = 33.37762 35.37782 34.37772
# Shear Modulus (GPa) = 29.49980 31.56195 30.53088
#
# Velocity S-wave (km/s) = 3.42372 3.54136 3.48303
# Velocity P-wave (km/s) = 5.37511 5.54789 5.46218
#
# Compressibility (1/GPa) = 0.02996019
#
# Stress axis : x y z
#
# Youngs Moduli (GPa) = 68.42480 91.78132 87.95149
#
# Poissons Ratio (x) = 0.06353 0.01092
# Poissons Ratio (y) = 0.04736 0.23251
# Poissons Ratio (z) = 0.00849 0.24263
#
# Static dielectric constant tensor:
#      x y z
#    x 4.091720 0.000000 0.000000 
#    y 0.000000 4.645170 0.000000 
#    z 0.000000 0.000000 4.352250 
# 
# 
# High freq. dielectric constant tensor:
#      x y z
#    x 1.995730 0.000000 0.000000 
#    y 0.000000 2.027360 0.000000 
#    z 0.000000 0.000000 1.994380 
# 
# From -- ./inp_files/25181.got.cif
#   From: 2010.03.12/outbox.cif.g09.slc.cpg/sg62_13_cif.got.tgz:25181.got - 2010.04.10 19:12:36.
