data_PCOD8254834
_publ_section_title
;
Structure prediction by ZEFSAII (Michael W. Deem and Ramdas Pophale) SiO2 
 PCOD8254834
Probable space group: P N M A
;
_chemical_formula_sum "Si O2"
_cell_formula_units_Z 28
_cell_length_a 15.490075
_cell_length_b 14.010860
_cell_length_c 5.395110
_cell_angle_alpha 90.000000
_cell_angle_beta 90.000000
_cell_angle_gamma 90.000000
_cell_volume 1170.896797
_symmetry_space_group_name_H-M "P N M A"
_symmetry_group_IT_number 62
_symmetry_cell_setting 'orthorhombic'
loop_
_space_group_symop_operation_xyz
x,y,z
1/2-x,-y,1/2+z
1/2+x,1/2-y,1/2-z
-x,1/2+y,-z
-x,-y,-z
1/2+x,y,1/2-z
1/2-x,1/2+y,1/2+z
x,1/2-y,z
loop_
_atom_site_type_symbol
_atom_site_label
_atom_site_fract_x
_atom_site_fract_y
_atom_site_fract_z
Si Si1 0.455815 0.408834 0.610968
Si Si2 0.716464 0.250000 0.978392
Si Si3 0.971030 0.750000 0.397325
Si Si4 0.384121 0.250000 0.268397
Si Si5 0.274563 0.446056 0.738692
O O1 0.500000 0.500000 0.500000
O O2 0.531335 0.347453 0.740627
O O3 0.414108 0.346603 0.395517
O O4 0.377430 0.438581 0.792648
O O5 0.615357 0.250000 0.067522
O O6 0.733604 0.158093 0.806552
O O7 0.778694 0.250000 0.223300
O O8 0.068518 0.750000 0.506590
O O9 0.263902 0.510232 0.490486
#
# Coordination Sequence:
#
# PCOD8254834 Si02
#       5
#     8   4   4   4   8
#     4  10  23  42  67  99 138 180 243 299 354 440
#     4  10  24  46  67 102 146 190 241 311 360 440
#     4  11  23  43  72  97 140 194 233 299 375 426
#     4   9  23  41  61 103 132 182 234 294 355 430
#     4  11  26  45  71 107 142 196 243 299 371 437
#
# _framework density 23.913295000000002
#
# number of rings (size 3 to 8) (size 9 to 14) (size 15 to 20)
#    0.000    1.714    0.000    2.571   12.000    2.286 
#    0.000    0.000    0.000    0.000    0.000    0.000 
#    0.000    0.000    0.000    0.000    0.000    0.000 
#
# Total GULP energy -346919.856727 kJ/mol
# GULP energy per Si atom -12389.994883 kJ/mol
# Density = 2.385887 g / cm^3
# Si number density = 23.913295 Si / 1000 Ang^3
#
#
#
# Elastic Constant Matrix: (Units=GPa)
#
#
# Indices 1 2 3 4 5 6 
#
# 1 184.9435 55.3826 30.3052 0.0000 0.0000 0.0000
# 2 55.3826 162.6293 35.7081 0.0000 0.0000 0.0000
# 3 30.3052 35.7081 77.2260 0.0000 0.0000 0.0000
# 4 0.0000 0.0000 0.0000 -30.3574 0.0000 0.0000
# 5 0.0000 0.0000 0.0000 0.0000 29.4586 0.0000
# 6 0.0000 0.0000 0.0000 0.0000 0.0000 13.6972
#
#
#
# Elastic Compliance Matrix: (Units=1/GPa)
#
#
# Indices 1 2 3 4 5 6 
#
# 1 0.006198 -0.001755 -0.001621 0.000000 0.000000 0.000000
# 2 -0.001755 0.007341 -0.002706 0.000000 0.000000 0.000000
# 3 -0.001621 -0.002706 0.014836 0.000000 0.000000 0.000000
# 4 0.000000 0.000000 0.000000 -0.032941 0.000000 0.000000
# 5 0.000000 0.000000 0.000000 0.000000 0.033946 0.000000
# 6 0.000000 0.000000 0.000000 0.000000 0.000000 0.073008
#
#
# Mechanical properties :
#
#
# Convention : Reuss Voigt Hill
#
# Bulk Modulus (GPa) = 61.68155 74.17672 67.92913
# Shear Modulus (GPa) = 41.68260 22.78654 32.23457
#
# Velocity S-wave (km/s) = 4.17954 3.09023 3.67546
# Velocity P-wave (km/s) = 7.01008 6.61960 6.81763
#
# Compressibility (1/GPa) = 0.01621230
#
# Stress axis : x y z
#
# Youngs Moduli (GPa) = 161.33819 136.22847 67.40324
#
# Poissons Ratio (x) = 0.23906 0.10925
# Poissons Ratio (y) = 0.28313 0.18236
# Poissons Ratio (z) = 0.26151 0.36857
#
# Static dielectric constant tensor:
#      x y z
#    x 4.743200 0.000000 0.000000 
#    y 0.000000 4.721750 0.000000 
#    z 0.000000 0.000000 3.876550 
# 
# 
# High freq. dielectric constant tensor:
#      x y z
#    x 1.961000 0.000000 0.000000 
#    y 0.000000 1.977540 0.000000 
#    z 0.000000 0.000000 1.912640 
# 
# From -- ./inp_files/823.got.cif
#   From: 2010.03.12/outbox.cif.g09.slc.cpg/sg62_1_cif.got.tgz:823.got - 2010.04.10 19:12:36.
