data_PCOD8254050
_publ_section_title
;
Structure prediction by ZEFSAII (Michael W. Deem and Ramdas Pophale) SiO2 
 PCOD8254050
Probable space group: P N M A
;
_chemical_formula_sum "Si O2"
_cell_formula_units_Z 48
_cell_length_a 9.531863
_cell_length_b 8.677628
_cell_length_c 27.463256
_cell_angle_alpha 90.000000
_cell_angle_beta 90.000000
_cell_angle_gamma 90.000000
_cell_volume 2271.594693
_symmetry_space_group_name_H-M "P N M A"
_symmetry_group_IT_number 62
_symmetry_cell_setting 'orthorhombic'
loop_
_space_group_symop_operation_xyz
x,y,z
1/2-x,-y,1/2+z
1/2+x,1/2-y,1/2-z
-x,1/2+y,-z
-x,-y,-z
1/2+x,y,1/2-z
1/2-x,1/2+y,1/2+z
x,1/2-y,z
loop_
_atom_site_type_symbol
_atom_site_label
_atom_site_fract_x
_atom_site_fract_y
_atom_site_fract_z
Si Si1 0.059040 0.079194 0.953303
Si Si2 0.676438 0.432014 0.710771
Si Si3 0.866764 0.568683 0.793969
Si Si4 0.208878 0.575871 0.107792
Si Si5 0.190347 0.932735 0.392076
Si Si6 0.551171 0.568467 0.949062
O O1 0.095003 0.250000 0.970211
O O2 0.201447 0.003838 0.933014
O O3 0.951641 0.078863 0.908689
O O4 0.000000 0.000000 0.000000
O O5 0.684517 0.250000 0.720600
O O6 0.762056 0.523871 0.751061
O O7 0.513979 0.480413 0.711140
O O8 0.751006 0.478194 0.660433
O O9 0.895759 0.750000 0.793733
O O10 0.784266 0.521602 0.842885
O O11 0.263698 0.750000 0.117088
O O12 0.296080 0.496377 0.064358
O O13 0.168990 0.750000 0.396019
O O14 0.045988 0.019313 0.403457
O O15 0.557517 0.750000 0.954423
O O16 0.500000 0.500000 0.000000
#
# Coordination Sequence:
#
# PCOD8254050 Si02
#       6
#     8   8   8   8   8   8
#     4  10  21  38  63  94 124 160 210 260 316 383
#     4  11  24  46  72  97 130 177 222 267 330 402
#     4  12  26  44  68 102 137 170 217 277 332 391
#     4  11  23  44  68  94 129 174 221 267 326 396
#     4  10  22  43  67  93 127 170 219 268 321 391
#     4  12  26  43  64  96 134 176 223 272 330 390
#
# _framework density 21.130528999999999
#
# number of rings (size 3 to 8) (size 9 to 14) (size 15 to 20)
#    0.000    1.000    1.667    5.000    2.333    6.000 
#    0.000    0.000    0.000    0.000    0.000    0.000 
#    0.000    0.000    0.000    0.000    0.000    0.000 
#
# Total GULP energy -595330.176373 kJ/mol
# GULP energy per Si atom -12402.712008 kJ/mol
# Density = 2.108244 g / cm^3
# Si number density = 21.130529 Si / 1000 Ang^3
#
#
#
# Elastic Constant Matrix: (Units=GPa)
#
#
# Indices 1 2 3 4 5 6 
#
# 1 69.5111 14.6211 8.3642 0.0000 0.0000 0.0000
# 2 14.6211 102.5738 28.0372 0.0000 0.0000 0.0000
# 3 8.3642 28.0372 93.6835 0.0000 0.0000 0.0000
# 4 0.0000 0.0000 0.0000 31.6979 0.0000 0.0000
# 5 0.0000 0.0000 0.0000 0.0000 42.0651 0.0000
# 6 0.0000 0.0000 0.0000 0.0000 0.0000 36.1931
#
#
#
# Elastic Compliance Matrix: (Units=1/GPa)
#
#
# Indices 1 2 3 4 5 6 
#
# 1 0.014880 -0.001914 -0.000756 0.000000 0.000000 0.000000
# 2 -0.001914 0.010864 -0.003080 0.000000 0.000000 0.000000
# 3 -0.000756 -0.003080 0.011664 0.000000 0.000000 0.000000
# 4 0.000000 0.000000 0.000000 0.031548 0.000000 0.000000
# 5 0.000000 0.000000 0.000000 0.000000 0.023773 0.000000
# 6 0.000000 0.000000 0.000000 0.000000 0.000000 0.027630
#
#
# Mechanical properties :
#
#
# Convention : Reuss Voigt Hill
#
# Bulk Modulus (GPa) = 38.60033 40.86817 39.73425
# Shear Modulus (GPa) = 35.58878 36.30762 35.94820
#
# Velocity S-wave (km/s) = 4.10840 4.14968 4.12909
# Velocity P-wave (km/s) = 6.38846 6.50712 6.44806
#
# Compressibility (1/GPa) = 0.02590651
#
# Stress axis : x y z
#
# Youngs Moduli (GPa) = 67.20521 92.04751 85.73692
#
# Poissons Ratio (x) = 0.17622 0.06478
# Poissons Ratio (y) = 0.12866 0.26410
# Poissons Ratio (z) = 0.05078 0.28354
#
# Static dielectric constant tensor:
#      x y z
#    x 8.277560 0.000000 0.000000 
#    y 0.000000 3.821570 0.000000 
#    z 0.000000 0.000000 4.796320 
# 
# 
# High freq. dielectric constant tensor:
#      x y z
#    x 1.841500 0.000000 0.000000 
#    y 0.000000 1.827350 0.000000 
#    z 0.000000 0.000000 1.840450 
# 
# From -- ./inp_files/32008.got.cif
#   From: 2010.03.12/outbox.cif.g09.slc.cpg/sg62_17_cif.got.tgz:32008.got - 2010.04.10 19:12:36.
