data_PCOD8254869
_publ_section_title
;
Structure prediction by ZEFSAII (Michael W. Deem and Ramdas Pophale) SiO2 
 PCOD8254869
Probable space group: P N M A
;
_chemical_formula_sum "Si O2"
_cell_formula_units_Z 48
_cell_length_a 9.113109
_cell_length_b 16.239413
_cell_length_c 15.772813
_cell_angle_alpha 90.000000
_cell_angle_beta 90.000000
_cell_angle_gamma 90.000000
_cell_volume 2334.242898
_symmetry_space_group_name_H-M "P N M A"
_symmetry_group_IT_number 62
_symmetry_cell_setting 'orthorhombic'
loop_
_space_group_symop_operation_xyz
x,y,z
1/2-x,-y,1/2+z
1/2+x,1/2-y,1/2-z
-x,1/2+y,-z
-x,-y,-z
1/2+x,y,1/2-z
1/2-x,1/2+y,1/2+z
x,1/2-y,z
loop_
_atom_site_type_symbol
_atom_site_label
_atom_site_fract_x
_atom_site_fract_y
_atom_site_fract_z
Si Si1 0.489986 0.653180 0.186430
Si Si2 0.141916 0.408540 0.034544
Si Si3 0.403828 0.250000 0.287424
Si Si4 0.189590 0.087291 0.838976
Si Si5 0.137341 0.050399 0.533871
Si Si6 0.674064 0.591281 0.613503
Si Si7 0.784880 0.750000 0.864945
O O1 0.461926 0.750000 0.178920
O O2 0.661080 0.634205 0.181756
O O3 0.435022 0.619950 0.276501
O O4 0.402172 0.609175 0.111130
O O5 0.237897 0.486470 0.062948
O O6 0.213912 0.328980 0.076132
O O7 0.978213 0.424638 0.065488
O O8 0.140475 0.393071 0.934361
O O9 0.328943 0.170167 0.327647
O O10 0.578032 0.250000 0.299771
O O11 0.365994 0.250000 0.188082
O O12 0.210781 0.988667 0.828953
O O13 0.199493 0.105290 0.456504
O O14 0.000000 0.000000 0.500000
#
# Coordination Sequence:
#
# PCOD8254869 Si02
#       7
#     8   8   4   8   8   8   4
#     4  12  28  43  65  99 133 176 230 284 334 391
#     4  10  23  44  70  95 132 180 218 262 343 400
#     4  10  24  42  64 107 129 162 222 263 333 392
#     4  11  25  45  67  94 136 174 227 274 331 402
#     4  11  22  43  66  95 125 174 224 272 330 395
#     4  10  23  44  68  97 134 173 213 270 337 404
#     4  10  24  42  68  95 133 172 208 277 325 396
#
# _framework density 20.563413000000001
#
# number of rings (size 3 to 8) (size 9 to 14) (size 15 to 20)
#    0.000    1.333    3.333    2.500   10.500    2.667 
#    0.000    0.000    0.000    0.000    0.000    0.000 
#    0.000    0.000    0.000    0.000    0.000    0.000 
#
# Total GULP energy -595382.598571 kJ/mol
# GULP energy per Si atom -12403.804137 kJ/mol
# Density = 2.051661 g / cm^3
# Si number density = 20.563413 Si / 1000 Ang^3
#
#
#
# Elastic Constant Matrix: (Units=GPa)
#
#
# Indices 1 2 3 4 5 6 
#
# 1 57.0495 15.8025 31.9312 0.0000 0.0000 0.0000
# 2 15.8025 121.0489 61.6155 0.0000 0.0000 0.0000
# 3 31.9312 61.6155 105.7182 0.0000 0.0000 0.0000
# 4 0.0000 0.0000 0.0000 24.0703 0.0000 0.0000
# 5 0.0000 0.0000 0.0000 0.0000 40.5362 0.0000
# 6 0.0000 0.0000 0.0000 0.0000 0.0000 32.9159
#
#
#
# Elastic Compliance Matrix: (Units=1/GPa)
#
#
# Indices 1 2 3 4 5 6 
#
# 1 0.021136 0.000697 -0.006790 0.000000 0.000000 0.000000
# 2 0.000697 0.011769 -0.007070 0.000000 0.000000 0.000000
# 3 -0.006790 -0.007070 0.015630 0.000000 0.000000 0.000000
# 4 0.000000 0.000000 0.000000 0.041545 0.000000 0.000000
# 5 0.000000 0.000000 0.000000 0.000000 0.024669 0.000000
# 6 0.000000 0.000000 0.000000 0.000000 0.000000 0.030380
#
#
# Mechanical properties :
#
#
# Convention : Reuss Voigt Hill
#
# Bulk Modulus (GPa) = 45.02565 55.83502 50.43033
# Shear Modulus (GPa) = 27.95502 31.13564 29.54533
#
# Velocity S-wave (km/s) = 3.69108 3.89540 3.79462
# Velocity P-wave (km/s) = 6.33316 6.88794 6.61637
#
# Compressibility (1/GPa) = 0.02220956
#
# Stress axis : x y z
#
# Youngs Moduli (GPa) = 47.31242 84.97135 63.97778
#
# Poissons Ratio (x) = -0.05923 0.43442
# Poissons Ratio (y) = -0.03298 0.45230
# Poissons Ratio (z) = 0.32126 0.60072
#
# Static dielectric constant tensor:
#      x y z
#    x 3.940140 0.000000 0.000000 
#    y 0.000000 3.995660 0.000000 
#    z 0.000000 0.000000 3.793840 
# 
# 
# High freq. dielectric constant tensor:
#      x y z
#    x 1.814540 0.000000 0.000000 
#    y 0.000000 1.815570 0.000000 
#    z 0.000000 0.000000 1.807080 
# 
# From -- ./inp_files/17003.got.cif
#   From: 2010.03.12/outbox.cif.g09.slc.cpg/sg62_9_cif.got.tgz:17003.got - 2010.04.10 19:12:36.
