data_PCOD8254778
_publ_section_title
;
Structure prediction by ZEFSAII (Michael W. Deem and Ramdas Pophale) SiO2 
 PCOD8254778
Probable space group: P N M A
;
_chemical_formula_sum "Si O2"
_cell_formula_units_Z 44
_cell_length_a 11.190571
_cell_length_b 7.665889
_cell_length_c 26.591648
_cell_angle_alpha 90.000000
_cell_angle_beta 90.000000
_cell_angle_gamma 90.000000
_cell_volume 2281.182477
_symmetry_space_group_name_H-M "P N M A"
_symmetry_group_IT_number 62
_symmetry_cell_setting 'orthorhombic'
loop_
_space_group_symop_operation_xyz
x,y,z
1/2-x,-y,1/2+z
1/2+x,1/2-y,1/2-z
-x,1/2+y,-z
-x,-y,-z
1/2+x,y,1/2-z
1/2-x,1/2+y,1/2+z
x,1/2-y,z
loop_
_atom_site_type_symbol
_atom_site_label
_atom_site_fract_x
_atom_site_fract_y
_atom_site_fract_z
Si Si1 0.790014 0.444280 0.120705
Si Si2 0.366195 0.750000 0.144421
Si Si3 0.744780 0.051870 0.410294
Si Si4 0.632998 0.049248 0.514810
Si Si5 0.141826 0.750000 0.338333
Si Si6 0.959904 0.949030 0.832046
Si Si7 0.659616 0.750000 0.276100
O O1 0.747874 0.250000 0.135853
O O2 0.684626 0.578453 0.132267
O O3 0.905812 0.498553 0.152970
O O4 0.822113 0.438312 0.061860
O O5 0.344844 0.578167 0.110738
O O6 0.499830 0.750000 0.164067
O O7 0.282551 0.750000 0.193229
O O8 0.790496 0.250000 0.402875
O O9 0.721526 0.009770 0.468531
O O10 0.620211 0.021961 0.381435
O O11 0.637539 0.250000 0.530469
O O12 0.500000 0.000000 0.500000
O O13 0.193703 0.750000 0.282145
O O14 0.950293 0.750000 0.812511
O O15 0.917162 0.076817 0.787936
#
# Coordination Sequence:
#
# PCOD8254778 Si02
#       7
#     8   4   8   8   4   8   4
#     4  11  23  39  61  93 134 161 198 262 315 366
#     4  10  24  42  62  88 120 170 210 253 307 376
#     4   9  19  36  60  91 123 157 204 252 301 372
#     4  11  20  32  61  99 129 163 202 251 316 372
#     4  12  27  44  61  88 124 167 220 256 311 370
#     4   9  18  36  61  94 122 151 194 255 318 368
#     4  10  23  40  69  86 118 159 208 265 320 360
#
# _framework density 19.288242
#
# number of rings (size 3 to 8) (size 9 to 14) (size 15 to 20)
#    0.000    1.818    2.727    1.091    5.091    1.455 
#    0.000    0.909    0.000    0.000    0.000    0.000 
#    0.000    0.000    0.000    0.000    0.000    0.000 
#
# Total GULP energy -545755.323166 kJ/mol
# GULP energy per Si atom -12403.530072 kJ/mol
# Density = 1.924434 g / cm^3
# Si number density = 19.288242 Si / 1000 Ang^3
#
#
#
# Elastic Constant Matrix: (Units=GPa)
#
#
# Indices 1 2 3 4 5 6 
#
# 1 90.9278 47.3430 30.3517 0.0000 0.0000 0.0000
# 2 47.3430 114.3338 40.1789 0.0000 0.0000 0.0000
# 3 30.3517 40.1789 94.4464 0.0000 0.0000 0.0000
# 4 0.0000 0.0000 0.0000 19.2886 0.0000 0.0000
# 5 0.0000 0.0000 0.0000 0.0000 22.4118 0.0000
# 6 0.0000 0.0000 0.0000 0.0000 0.0000 24.2825
#
#
#
# Elastic Compliance Matrix: (Units=1/GPa)
#
#
# Indices 1 2 3 4 5 6 
#
# 1 0.014496 -0.005133 -0.002475 0.000000 0.000000 0.000000
# 2 -0.005133 0.012101 -0.003498 0.000000 0.000000 0.000000
# 3 -0.002475 -0.003498 0.012872 0.000000 0.000000 0.000000
# 4 0.000000 0.000000 0.000000 0.051844 0.000000 0.000000
# 5 0.000000 0.000000 0.000000 0.000000 0.044619 0.000000
# 6 0.000000 0.000000 0.000000 0.000000 0.000000 0.041182
#
#
# Mechanical properties :
#
#
# Convention : Reuss Voigt Hill
#
# Bulk Modulus (GPa) = 57.94916 59.49502 58.72209
# Shear Modulus (GPa) = 24.38080 25.31889 24.84984
#
# Velocity S-wave (km/s) = 3.55917 3.62699 3.59324
# Velocity P-wave (km/s) = 6.85560 6.96077 6.90838
#
# Compressibility (1/GPa) = 0.01725651
#
# Stress axis : x y z
#
# Youngs Moduli (GPa) = 68.98259 82.63670 77.68977
#
# Poissons Ratio (x) = 0.42416 0.19228
# Poissons Ratio (y) = 0.35408 0.27180
# Poissons Ratio (z) = 0.17073 0.28910
#
# Static dielectric constant tensor:
#      x y z
#    x 3.183380 0.000000 0.000000 
#    y 0.000000 3.756620 0.000000 
#    z 0.000000 0.000000 3.411730 
# 
# 
# High freq. dielectric constant tensor:
#      x y z
#    x 1.721730 0.000000 0.000000 
#    y 0.000000 1.768500 0.000000 
#    z 0.000000 0.000000 1.744350 
# 
# From -- ./inp_files/29202.got.cif
#   From: 2010.03.12/outbox.cif.g09.slc.cpg/sg62_15_cif.got.tgz:29202.got - 2010.04.10 19:12:36.
