data_PCOD8254159
_publ_section_title
;
Structure prediction by ZEFSAII (Michael W. Deem and Ramdas Pophale) SiO2 
 PCOD8254159
Probable space group: P N M A
;
_chemical_formula_sum "Si O2"
_cell_formula_units_Z 48
_cell_length_a 9.222299
_cell_length_b 9.527890
_cell_length_c 26.864150
_cell_angle_alpha 90.000000
_cell_angle_beta 90.000000
_cell_angle_gamma 90.000000
_cell_volume 2360.527351
_symmetry_space_group_name_H-M "P N M A"
_symmetry_group_IT_number 62
_symmetry_cell_setting 'orthorhombic'
loop_
_space_group_symop_operation_xyz
x,y,z
1/2-x,-y,1/2+z
1/2+x,1/2-y,1/2-z
-x,1/2+y,-z
-x,-y,-z
1/2+x,y,1/2-z
1/2-x,1/2+y,1/2+z
x,1/2-y,z
loop_
_atom_site_type_symbol
_atom_site_label
_atom_site_fract_x
_atom_site_fract_y
_atom_site_fract_z
Si Si1 0.645166 0.410888 0.716730
Si Si2 0.110221 0.750000 0.933084
Si Si3 0.972994 0.505469 0.606023
Si Si4 0.565311 0.086773 0.215060
Si Si5 0.527523 0.750000 0.457617
Si Si6 0.637160 0.250000 0.928203
Si Si7 0.057945 0.250000 0.462678
Si Si8 0.138215 0.460688 0.893113
O O1 0.678693 0.250000 0.734719
O O2 0.528175 0.484124 0.751151
O O3 0.778066 0.517470 0.717791
O O4 0.587691 0.400635 0.660021
O O5 0.274190 0.750000 0.950392
O O6 0.083016 0.619571 0.897076
O O7 0.012065 0.750000 0.982606
O O8 0.990852 0.584948 0.658444
O O9 0.012878 0.611605 0.561334
O O10 0.811203 0.442557 0.600124
O O11 0.093355 0.384501 0.604246
O O12 0.567913 0.250000 0.233235
O O13 0.692916 0.750000 0.439059
O O14 0.443201 0.615334 0.437887
O O15 0.538024 0.250000 0.978088
#
# Coordination Sequence:
#
# PCOD8254159 Si02
#       8
#     8   4   8   8   4   4   4   8
#     4  11  24  41  66  94 124 158 205 254 310 366
#     4   9  20  35  64  87 117 160 202 253 292 359
#     4  10  21  39  63  87 116 161 207 242 296 364
#     4  11  24  42  67  92 123 160 206 254 307 369
#     4  11  21  39  54  91 126 156 199 251 308 345
#     4  11  23  33  60  89 126 160 193 255 302 351
#     4   9  18  39  58  89 119 156 206 249 296 349
#     4  10  21  39  64  85 118 159 207 242 295 366
#
# _framework density 20.334437999999999
#
# number of rings (size 3 to 8) (size 9 to 14) (size 15 to 20)
#    0.000    1.667    1.667    2.500    9.333    1.333 
#    0.000    2.500    0.000    0.000    0.000    0.000 
#    0.000    0.000    0.000    0.000    0.000    0.000 
#
# Total GULP energy -595105.628411 kJ/mol
# GULP energy per Si atom -12398.033925 kJ/mol
# Density = 2.028816 g / cm^3
# Si number density = 20.334438 Si / 1000 Ang^3
#
#
#
# Elastic Constant Matrix: (Units=GPa)
#
#
# Indices 1 2 3 4 5 6 
#
# 1 43.6257 19.5455 21.5974 0.0000 0.0000 0.0000
# 2 19.5455 141.2251 16.2298 0.0000 0.0000 0.0000
# 3 21.5974 16.2298 62.7270 0.0000 0.0000 0.0000
# 4 0.0000 0.0000 0.0000 27.4867 0.0000 0.0000
# 5 0.0000 0.0000 0.0000 0.0000 31.3995 0.0000
# 6 0.0000 0.0000 0.0000 0.0000 0.0000 129.6733
#
#
#
# Elastic Compliance Matrix: (Units=1/GPa)
#
#
# Indices 1 2 3 4 5 6 
#
# 1 0.028762 -0.002930 -0.009145 0.000000 0.000000 0.000000
# 2 -0.002930 0.007596 -0.000957 0.000000 0.000000 0.000000
# 3 -0.009145 -0.000957 0.019338 0.000000 0.000000 0.000000
# 4 0.000000 0.000000 0.000000 0.036381 0.000000 0.000000
# 5 0.000000 0.000000 0.000000 0.000000 0.031848 0.000000
# 6 0.000000 0.000000 0.000000 0.000000 0.000000 0.007712
#
#
# Mechanical properties :
#
#
# Convention : Reuss Voigt Hill
#
# Bulk Modulus (GPa) = 33.74512 40.25814 37.00163
# Shear Modulus (GPa) = 29.83676 50.39221 40.11449
#
# Velocity S-wave (km/s) = 3.83469 4.98352 4.44637
# Velocity P-wave (km/s) = 6.01977 7.27702 6.67805
#
# Compressibility (1/GPa) = 0.02963391
#
# Stress axis : x y z
#
# Youngs Moduli (GPa) = 34.76784 131.64281 51.71067
#
# Poissons Ratio (x) = 0.38568 0.47290
# Poissons Ratio (y) = 0.10186 0.04947
# Poissons Ratio (z) = 0.31795 0.12595
#
# Static dielectric constant tensor:
#      x y z
#    x 3.432860 0.000000 0.000000 
#    y 0.000000 4.008740 0.000000 
#    z 0.000000 0.000000 3.892670 
# 
# 
# High freq. dielectric constant tensor:
#      x y z
#    x 1.767490 0.000000 0.000000 
#    y 0.000000 1.814410 0.000000 
#    z 0.000000 0.000000 1.798760 
# 
# From -- ./inp_files/32117.got.cif
#   From: 2010.03.12/outbox.cif.g09.slc.cpg/sg62_17_cif.got.tgz:32117.got - 2010.04.10 19:12:36.
