data_PCOD8254583
_publ_section_title
;
Structure prediction by ZEFSAII (Michael W. Deem and Ramdas Pophale) SiO2 
 PCOD8254583
Probable space group: P N M A
;
_chemical_formula_sum "Si O2"
_cell_formula_units_Z 64
_cell_length_a 12.889967
_cell_length_b 28.374984
_cell_length_c 8.388745
_cell_angle_alpha 90.000000
_cell_angle_beta 90.000000
_cell_angle_gamma 90.000000
_cell_volume 3068.205356
_symmetry_space_group_name_H-M "P N M A"
_symmetry_group_IT_number 62
_symmetry_cell_setting 'orthorhombic'
loop_
_space_group_symop_operation_xyz
x,y,z
1/2-x,-y,1/2+z
1/2+x,1/2-y,1/2-z
-x,1/2+y,-z
-x,-y,-z
1/2+x,y,1/2-z
1/2-x,1/2+y,1/2+z
x,1/2-y,z
loop_
_atom_site_type_symbol
_atom_site_label
_atom_site_fract_x
_atom_site_fract_y
_atom_site_fract_z
Si Si1 0.452113 0.302761 0.328015
Si Si2 0.881015 0.364878 0.753706
Si Si3 0.529670 0.108211 0.487918
Si Si4 0.751287 0.195345 0.977300
Si Si5 0.222514 0.434934 0.854927
Si Si6 0.514104 0.057349 0.166103
Si Si7 0.023021 0.342239 0.483915
Si Si8 0.167041 0.493381 0.553832
O O1 0.484410 0.250000 0.380209
O O2 0.531948 0.339214 0.411516
O O3 0.332546 0.312473 0.377455
O O4 0.462341 0.308017 0.137903
O O5 0.799768 0.326244 0.816982
O O6 0.824848 0.402679 0.641297
O O7 0.970722 0.336639 0.657666
O O8 0.929235 0.394662 0.899677
O O9 0.628990 0.099070 0.596626
O O10 0.525168 0.068325 0.352841
O O11 0.727282 0.250000 0.948157
O O12 0.644766 0.168975 0.017005
O O13 0.206149 0.453616 0.675271
O O14 0.236944 0.476505 0.984228
O O15 0.503876 0.104267 0.064580
O O16 0.411731 0.026189 0.150239
O O17 0.613786 0.029216 0.102203
#
# Coordination Sequence:
#
# PCOD8254583 Si02
#       8
#     8   8   8   8   8   8   8   8
#     4   9  21  42  67  96 126 165 215 268 322 396
#     4  11  23  41  62  91 131 167 212 268 323 389
#     4  10  23  41  64  90 127 174 207 264 331 384
#     4  10  22  40  64  95 127 166 211 259 326 397
#     4  12  25  41  63  94 127 171 221 265 334 381
#     4  10  22  42  62  90 124 167 216 270 323 380
#     4  11  21  41  67  92 130 169 212 265 329 386
#     4  11  24  40  63  92 127 167 222 276 311 396
#
# _framework density 20.859099000000001
#
# number of rings (size 3 to 8) (size 9 to 14) (size 15 to 20)
#    0.000    1.500    1.250    3.375    3.500    3.500 
#    6.750    3.125    0.000    0.000    0.000    0.000 
#    0.000    0.000    0.000    0.000    0.000    0.000 
#
# Total GULP energy -793712.769101 kJ/mol
# GULP energy per Si atom -12401.762017 kJ/mol
# Density = 2.081162 g / cm^3
# Si number density = 20.859099 Si / 1000 Ang^3
#
#
#
# Elastic Constant Matrix: (Units=GPa)
#
#
# Indices 1 2 3 4 5 6 
#
# 1 101.9496 41.3864 45.7560 0.0000 0.0000 0.0000
# 2 41.3864 80.1739 34.4155 0.0000 0.0000 0.0000
# 3 45.7560 34.4155 110.5434 0.0000 0.0000 0.0000
# 4 0.0000 0.0000 0.0000 28.2824 0.0000 0.0000
# 5 0.0000 0.0000 0.0000 0.0000 29.1098 0.0000
# 6 0.0000 0.0000 0.0000 0.0000 0.0000 29.3914
#
#
#
# Elastic Compliance Matrix: (Units=1/GPa)
#
#
# Indices 1 2 3 4 5 6 
#
# 1 0.013811 -0.005397 -0.004037 0.000000 0.000000 0.000000
# 2 -0.005397 0.016506 -0.002905 0.000000 0.000000 0.000000
# 3 -0.004037 -0.002905 0.011621 0.000000 0.000000 0.000000
# 4 0.000000 0.000000 0.000000 0.035358 0.000000 0.000000
# 5 0.000000 0.000000 0.000000 0.000000 0.034353 0.000000
# 6 0.000000 0.000000 0.000000 0.000000 0.000000 0.034024
#
#
# Mechanical properties :
#
#
# Convention : Reuss Voigt Hill
#
# Bulk Modulus (GPa) = 57.93095 59.53139 58.73117
# Shear Modulus (GPa) = 28.39254 28.76399 28.57826
#
# Velocity S-wave (km/s) = 3.69339 3.71747 3.70545
# Velocity P-wave (km/s) = 6.78388 6.85769 6.82088
#
# Compressibility (1/GPa) = 0.01726193
#
# Stress axis : x y z
#
# Youngs Moduli (GPa) = 72.40494 60.58521 86.04803
#
# Poissons Ratio (x) = 0.32696 0.34734
# Poissons Ratio (y) = 0.39075 0.24996
# Poissons Ratio (z) = 0.29227 0.17599
#
# Static dielectric constant tensor:
#      x y z
#    x 3.645700 0.000000 0.000000 
#    y 0.000000 3.836760 0.000000 
#    z 0.000000 0.000000 3.839940 
# 
# 
# High freq. dielectric constant tensor:
#      x y z
#    x 1.813520 0.000000 0.000000 
#    y 0.000000 1.820530 0.000000 
#    z 0.000000 0.000000 1.819850 
# 
# From -- ./inp_files/5546.got.cif
#   From: 2010.03.12/outbox.cif.g09.slc.cpg/sg62_3_cif.got.tgz:5546.got - 2010.04.10 19:12:36.
