data_PCOD8254854
_publ_section_title
;
Structure prediction by ZEFSAII (Michael W. Deem and Ramdas Pophale) SiO2 
 PCOD8254854
Probable space group: P N M A
;
_chemical_formula_sum "Si O2"
_cell_formula_units_Z 48
_cell_length_a 14.780534
_cell_length_b 8.627998
_cell_length_c 18.409826
_cell_angle_alpha 90.000000
_cell_angle_beta 90.000000
_cell_angle_gamma 90.000000
_cell_volume 2347.739162
_symmetry_space_group_name_H-M "P N M A"
_symmetry_group_IT_number 62
_symmetry_cell_setting 'orthorhombic'
loop_
_space_group_symop_operation_xyz
x,y,z
1/2-x,-y,1/2+z
1/2+x,1/2-y,1/2-z
-x,1/2+y,-z
-x,-y,-z
1/2+x,y,1/2-z
1/2-x,1/2+y,1/2+z
x,1/2-y,z
loop_
_atom_site_type_symbol
_atom_site_label
_atom_site_fract_x
_atom_site_fract_y
_atom_site_fract_z
Si Si1 0.563706 0.070035 0.939307
Si Si2 0.904917 0.931457 0.022143
Si Si3 0.253454 0.567329 0.590139
Si Si4 0.991361 0.571817 0.277014
Si Si5 0.693801 0.931509 0.257596
Si Si6 0.150099 0.570357 0.826968
O O1 0.583415 0.250000 0.954752
O O2 0.513448 0.046721 0.862902
O O3 0.656591 0.975282 0.942467
O O4 0.500000 0.000000 0.000000
O O5 0.913513 0.750000 0.016986
O O6 0.880208 0.975836 0.103382
O O7 0.828203 0.990734 0.967033
O O8 0.000000 0.000000 0.000000
O O9 0.259575 0.750000 0.605587
O O10 0.268393 0.474364 0.663927
O O11 0.971583 0.750000 0.256137
O O12 0.917444 0.464082 0.239276
O O13 0.089579 0.519267 0.249058
O O14 0.707133 0.750000 0.244230
O O15 0.749006 0.021512 0.195610
O O16 0.147839 0.750000 0.846191
#
# Coordination Sequence:
#
# PCOD8254854 Si02
#       6
#     8   8   8   8   8   8
#     4  11  24  42  65  94 129 171 216 265 322 385
#     4  11  25  44  67  95 132 170 214 266 321 383
#     4  11  24  43  66  96 130 169 214 265 320 383
#     4  10  23  43  67  93 126 170 215 263 323 381
#     4  11  23  41  66  94 127 167 211 263 320 380
#     4  12  25  41  65  97 131 167 214 264 316 380
#
# _framework density 20.4452
#
# number of rings (size 3 to 8) (size 9 to 14) (size 15 to 20)
#    0.000    1.000    1.667    4.500    2.333    7.333 
#    0.000    0.000    0.000    0.000    0.000    0.000 
#    0.000    0.000    0.000    0.000    0.000    0.000 
#
# Total GULP energy -595580.036004 kJ/mol
# GULP energy per Si atom -12407.917417 kJ/mol
# Density = 2.039867 g / cm^3
# Si number density = 20.445200 Si / 1000 Ang^3
#
#
#
# Elastic Constant Matrix: (Units=GPa)
#
#
# Indices 1 2 3 4 5 6 
#
# 1 122.5568 25.6090 23.1846 0.0000 0.0000 0.0000
# 2 25.6090 45.9215 11.7573 0.0000 0.0000 0.0000
# 3 23.1846 11.7573 87.5825 0.0000 0.0000 0.0000
# 4 0.0000 0.0000 0.0000 36.0005 0.0000 0.0000
# 5 0.0000 0.0000 0.0000 0.0000 43.0723 0.0000
# 6 0.0000 0.0000 0.0000 0.0000 0.0000 33.9154
#
#
#
# Elastic Compliance Matrix: (Units=1/GPa)
#
#
# Indices 1 2 3 4 5 6 
#
# 1 0.009523 -0.004831 -0.001872 0.000000 0.000000 0.000000
# 2 -0.004831 0.025003 -0.002077 0.000000 0.000000 0.000000
# 3 -0.001872 -0.002077 0.012192 0.000000 0.000000 0.000000
# 4 0.000000 0.000000 0.000000 0.027777 0.000000 0.000000
# 5 0.000000 0.000000 0.000000 0.000000 0.023217 0.000000
# 6 0.000000 0.000000 0.000000 0.000000 0.000000 0.029485
#
#
# Mechanical properties :
#
#
# Convention : Reuss Voigt Hill
#
# Bulk Modulus (GPa) = 34.29875 41.90697 38.10286
# Shear Modulus (GPa) = 32.36695 35.63161 33.99928
#
# Velocity S-wave (km/s) = 3.98315 4.17920 4.08235
# Velocity P-wave (km/s) = 6.16168 6.62037 6.39514
#
# Compressibility (1/GPa) = 0.02915558
#
# Stress axis : x y z
#
# Youngs Moduli (GPa) = 105.00619 39.99597 82.01866
#
# Poissons Ratio (x) = 0.19324 0.15357
# Poissons Ratio (y) = 0.50733 0.17039
# Poissons Ratio (z) = 0.19661 0.08309
#
# Static dielectric constant tensor:
#      x y z
#    x 3.897870 0.000000 0.000000 
#    y 0.000000 3.757760 0.000000 
#    z 0.000000 0.000000 3.702790 
# 
# 
# High freq. dielectric constant tensor:
#      x y z
#    x 1.816680 0.000000 0.000000 
#    y 0.000000 1.806190 0.000000 
#    z 0.000000 0.000000 1.809030 
# 
# From -- ./inp_files/23723.got.cif
#   From: 2010.03.12/outbox.cif.g09.slc.cpg/sg62_12_cif.got.tgz:23723.got - 2010.04.10 19:12:36.
