data_PCOD8254107
_publ_section_title
;
Structure prediction by ZEFSAII (Michael W. Deem and Ramdas Pophale) SiO2 
 PCOD8254107
Probable space group: P N M A
;
_chemical_formula_sum "Si O2"
_cell_formula_units_Z 40
_cell_length_a 25.617697
_cell_length_b 8.618973
_cell_length_c 8.892808
_cell_angle_alpha 90.000000
_cell_angle_beta 90.000000
_cell_angle_gamma 90.000000
_cell_volume 1963.516344
_symmetry_space_group_name_H-M "P N M A"
_symmetry_group_IT_number 62
_symmetry_cell_setting 'orthorhombic'
loop_
_space_group_symop_operation_xyz
x,y,z
1/2-x,-y,1/2+z
1/2+x,1/2-y,1/2-z
-x,1/2+y,-z
-x,-y,-z
1/2+x,y,1/2-z
1/2-x,1/2+y,1/2+z
x,1/2-y,z
loop_
_atom_site_type_symbol
_atom_site_label
_atom_site_fract_x
_atom_site_fract_y
_atom_site_fract_z
Si Si1 0.706234 0.568441 0.148904
Si Si2 0.810051 0.929344 0.329643
Si Si3 0.606995 0.933847 0.335058
Si Si4 0.494752 0.432859 0.835051
Si Si5 0.093021 0.932003 0.827642
O O1 0.699605 0.750000 0.111797
O O2 0.760866 0.531281 0.226445
O O3 0.660298 0.508639 0.258405
O O4 0.704617 0.468204 0.999317
O O5 0.825916 0.750000 0.317020
O O6 0.858177 0.034658 0.279424
O O7 0.605307 0.750000 0.339593
O O8 0.558006 0.999167 0.240683
O O9 0.604950 0.996649 0.505539
O O10 0.491873 0.250000 0.848949
O O11 0.542756 0.479171 0.731377
O O12 0.500000 0.500000 0.000000
O O13 0.081185 0.750000 0.826119
#
# Coordination Sequence:
#
# PCOD8254107 Si02
#       5
#     8   8   8   8   8
#     4  10  21  39  61  85 116 154 195 240 292 348
#     4  11  23  38  59  89 120 152 195 242 287 345
#     4   9  20  38  60  84 113 152 195 239 288 345
#     4  11  22  38  60  88 119 153 197 243 291 349
#     4  11  22  39  61  84 116 157 196 240 295 345
#
# _framework density 20.371614999999998
#
# number of rings (size 3 to 8) (size 9 to 14) (size 15 to 20)
#    0.000    1.600    0.000    4.800    0.000    4.800 
#    0.000    6.000    0.000    0.000    0.000    0.000 
#    0.000    0.000    0.000    0.000    0.000    0.000 
#
# Total GULP energy -496224.236934 kJ/mol
# GULP energy per Si atom -12405.605923 kJ/mol
# Density = 2.032525 g / cm^3
# Si number density = 20.371615 Si / 1000 Ang^3
#
#
#
# Elastic Constant Matrix: (Units=GPa)
#
#
# Indices 1 2 3 4 5 6 
#
# 1 76.3947 19.8636 -15.4313 0.0000 0.0000 0.0000
# 2 19.8636 40.3835 21.9216 0.0000 0.0000 0.0000
# 3 -15.4313 21.9216 80.9042 0.0000 0.0000 0.0000
# 4 0.0000 0.0000 0.0000 32.7879 0.0000 0.0000
# 5 0.0000 0.0000 0.0000 0.0000 42.1144 0.0000
# 6 0.0000 0.0000 0.0000 0.0000 0.0000 20.3371
#
#
#
# Elastic Compliance Matrix: (Units=1/GPa)
#
#
# Indices 1 2 3 4 5 6 
#
# 1 0.017647 -0.012319 0.006704 0.000000 0.000000 0.000000
# 2 -0.012319 0.037633 -0.012547 0.000000 0.000000 0.000000
# 3 0.006704 -0.012547 0.017039 0.000000 0.000000 0.000000
# 4 0.000000 0.000000 0.000000 0.030499 0.000000 0.000000
# 5 0.000000 0.000000 0.000000 0.000000 0.023745 0.000000
# 6 0.000000 0.000000 0.000000 0.000000 0.000000 0.049171
#
#
# Mechanical properties :
#
#
# Convention : Reuss Voigt Hill
#
# Bulk Modulus (GPa) = 27.78187 27.82112 27.80150
# Shear Modulus (GPa) = 22.31576 30.46976 26.39276
#
# Velocity S-wave (km/s) = 3.31332 3.87162 3.60330
# Velocity P-wave (km/s) = 5.32021 5.80279 5.56673
#
# Compressibility (1/GPa) = 0.03599469
#
# Stress axis : x y z
#
# Youngs Moduli (GPa) = 56.66585 26.57236 58.69008
#
# Poissons Ratio (x) = 0.32736 -0.39346
# Poissons Ratio (y) = 0.69809 0.73637
# Poissons Ratio (z) = -0.37989 0.33340
#
# Static dielectric constant tensor:
#      x y z
#    x 4.062000 0.000000 0.000000 
#    y 0.000000 3.470890 0.000000 
#    z 0.000000 0.000000 3.926570 
# 
# 
# High freq. dielectric constant tensor:
#      x y z
#    x 1.814110 0.000000 0.000000 
#    y 0.000000 1.779520 0.000000 
#    z 0.000000 0.000000 1.814400 
# 
# From -- ./inp_files/9076.got.cif
#   From: 2010.03.12/outbox.cif.g09.slc.cpg/sg62_5_cif.got.tgz:9076.got - 2010.04.10 19:12:36.
