data_PCOD8254477
_publ_section_title
;
Structure prediction by ZEFSAII (Michael W. Deem and Ramdas Pophale) SiO2 
 PCOD8254477
Probable space group: P N M A
;
_chemical_formula_sum "Si O2"
_cell_formula_units_Z 48
_cell_length_a 11.907101
_cell_length_b 16.960603
_cell_length_c 11.603301
_cell_angle_alpha 90.000000
_cell_angle_beta 90.000000
_cell_angle_gamma 90.000000
_cell_volume 2343.305352
_symmetry_space_group_name_H-M "P N M A"
_symmetry_group_IT_number 62
_symmetry_cell_setting 'orthorhombic'
loop_
_space_group_symop_operation_xyz
x,y,z
1/2-x,-y,1/2+z
1/2+x,1/2-y,1/2-z
-x,1/2+y,-z
-x,-y,-z
1/2+x,y,1/2-z
1/2-x,1/2+y,1/2+z
x,1/2-y,z
loop_
_atom_site_type_symbol
_atom_site_label
_atom_site_fract_x
_atom_site_fract_y
_atom_site_fract_z
Si Si1 0.264194 0.342111 0.962731
Si Si2 0.186034 0.341373 0.431450
Si Si3 0.072411 0.070528 0.848921
Si Si4 0.359219 0.660201 0.684220
Si Si5 0.487421 0.657006 0.119600
Si Si6 0.928998 0.400153 0.072398
O O1 0.235240 0.250000 0.954797
O O2 0.190566 0.384952 0.865391
O O3 0.394567 0.358844 0.943613
O O4 0.224223 0.376740 0.087357
O O5 0.155542 0.250000 0.425565
O O6 0.157162 0.382149 0.307990
O O7 0.315967 0.354200 0.458071
O O8 0.108964 0.375629 0.533804
O O9 0.017167 0.102732 0.732275
O O10 0.095990 0.977116 0.849710
O O11 0.983109 0.083837 0.949370
O O12 0.323041 0.750000 0.699519
O O13 0.488649 0.654826 0.646560
O O14 0.474102 0.750000 0.151167
#
# Coordination Sequence:
#
# PCOD8254477 Si02
#       6
#     8   8   8   8   8   8
#     4   9  19  37  60  85 116 155 197 245 299 350
#     4  10  22  38  62  92 116 148 201 252 294 348
#     4  10  22  40  58  84 122 157 194 237 296 365
#     4   9  19  37  61  84 113 154 199 248 299 347
#     4  10  22  38  62  93 120 150 198 254 303 351
#     4  10  22  40  59  84 119 160 197 238 293 363
#
# _framework density 20.483885000000001
#
# number of rings (size 3 to 8) (size 9 to 14) (size 15 to 20)
#    0.000    2.333    0.000    1.000    4.667    3.333 
#    6.000    1.667    0.000    0.000    0.000    0.000 
#    0.000    0.000    0.000    0.000    0.000    0.000 
#
# Total GULP energy -595068.857321 kJ/mol
# GULP energy per Si atom -12397.267861 kJ/mol
# Density = 2.043726 g / cm^3
# Si number density = 20.483885 Si / 1000 Ang^3
#
#
#
# Elastic Constant Matrix: (Units=GPa)
#
#
# Indices 1 2 3 4 5 6 
#
# 1 125.5553 9.2438 45.2429 0.0000 0.0000 0.0000
# 2 9.2438 29.8798 31.9856 0.0000 0.0000 0.0000
# 3 45.2429 31.9856 114.7836 0.0000 0.0000 0.0000
# 4 0.0000 0.0000 0.0000 24.4752 0.0000 0.0000
# 5 0.0000 0.0000 0.0000 0.0000 24.1493 0.0000
# 6 0.0000 0.0000 0.0000 0.0000 0.0000 14.7631
#
#
#
# Elastic Compliance Matrix: (Units=1/GPa)
#
#
# Indices 1 2 3 4 5 6 
#
# 1 0.009330 0.001497 -0.004095 0.000000 0.000000 0.000000
# 2 0.001497 0.047935 -0.013947 0.000000 0.000000 0.000000
# 3 -0.004095 -0.013947 0.014213 0.000000 0.000000 0.000000
# 4 0.000000 0.000000 0.000000 0.040858 0.000000 0.000000
# 5 0.000000 0.000000 0.000000 0.000000 0.041409 0.000000
# 6 0.000000 0.000000 0.000000 0.000000 0.000000 0.067736
#
#
# Mechanical properties :
#
#
# Convention : Reuss Voigt Hill
#
# Bulk Modulus (GPa) = 26.05072 49.24036 37.64554
# Shear Modulus (GPa) = 18.70096 24.92730 21.81413
#
# Velocity S-wave (km/s) = 3.02480 3.49223 3.26688
# Velocity P-wave (km/s) = 4.99445 6.35229 5.71385
#
# Compressibility (1/GPa) = 0.03838666
#
# Stress axis : x y z
#
# Youngs Moduli (GPa) = 107.18289 20.86170 70.36051
#
# Poissons Ratio (x) = -0.03122 0.28809
# Poissons Ratio (y) = -0.16042 0.98135
# Poissons Ratio (z) = 0.43886 0.29097
#
# Static dielectric constant tensor:
#      x y z
#    x 3.626230 0.000000 0.000000 
#    y 0.000000 3.537890 0.000000 
#    z 0.000000 0.000000 3.924450 
# 
# 
# High freq. dielectric constant tensor:
#      x y z
#    x 1.805730 0.000000 0.000000 
#    y 0.000000 1.777420 0.000000 
#    z 0.000000 0.000000 1.806310 
# 
# From -- ./inp_files/12240.got.cif
#   From: 2010.03.12/outbox.cif.g09.slc.cpg/sg62_7_cif.got.tgz:12240.got - 2010.04.10 19:12:36.
