data_PCOD8254347
_publ_section_title
;
Structure prediction by ZEFSAII (Michael W. Deem and Ramdas Pophale) SiO2 
 PCOD8254347
Probable space group: P N M A
;
_chemical_formula_sum "Si O2"
_cell_formula_units_Z 48
_cell_length_a 14.639214
_cell_length_b 8.866933
_cell_length_c 18.591410
_cell_angle_alpha 90.000000
_cell_angle_beta 90.000000
_cell_angle_gamma 90.000000
_cell_volume 2413.256668
_symmetry_space_group_name_H-M "P N M A"
_symmetry_group_IT_number 62
_symmetry_cell_setting 'orthorhombic'
loop_
_space_group_symop_operation_xyz
x,y,z
1/2-x,-y,1/2+z
1/2+x,1/2-y,1/2-z
-x,1/2+y,-z
-x,-y,-z
1/2+x,y,1/2-z
1/2-x,1/2+y,1/2+z
x,1/2-y,z
loop_
_atom_site_type_symbol
_atom_site_label
_atom_site_fract_x
_atom_site_fract_y
_atom_site_fract_z
Si Si1 0.598859 0.424653 0.810192
Si Si2 0.906772 0.926019 0.475277
Si Si3 0.760262 0.425518 0.575284
Si Si4 0.535063 0.426544 0.293110
Si Si5 0.790402 0.075829 0.739524
Si Si6 0.050548 0.428439 0.932889
O O1 0.571246 0.250000 0.800704
O O2 0.517868 0.526579 0.779132
O O3 0.689952 0.463329 0.766975
O O4 0.612958 0.467538 0.892881
O O5 0.917500 0.750000 0.486937
O O6 0.820822 0.981889 0.520181
O O7 0.000000 0.000000 0.500000
O O8 0.770641 0.250000 0.557630
O O9 0.795193 0.460997 0.655247
O O10 0.656018 0.478391 0.565965
O O11 0.526434 0.250000 0.307524
O O12 0.640566 0.470104 0.282929
O O13 0.494784 0.515636 0.360049
O O14 0.814533 0.250000 0.754721
O O15 0.041026 0.250000 0.936222
O O16 0.000000 0.500000 0.000000
#
# Coordination Sequence:
#
# PCOD8254347 Si02
#       6
#     8   8   8   8   8   8
#     4  10  22  43  65  89 121 167 214 254 310 376
#     4  11  24  40  63  93 127 166 208 256 314 376
#     4  10  22  42  67  92 124 165 209 260 316 373
#     4  12  25  40  63  97 129 163 206 264 319 371
#     4  10  21  41  66  89 119 165 212 258 314 376
#     4  11  24  44  66  93 128 170 215 261 314 379
#
# _framework density 19.890134
#
# number of rings (size 3 to 8) (size 9 to 14) (size 15 to 20)
#    0.000    1.333    1.667    3.500    2.333    8.000 
#    0.000    0.000    0.000    0.000    0.000    0.000 
#    0.000    0.000    0.000    0.000    0.000    0.000 
#
# Total GULP energy -595513.237657 kJ/mol
# GULP energy per Si atom -12406.525785 kJ/mol
# Density = 1.984486 g / cm^3
# Si number density = 19.890134 Si / 1000 Ang^3
#
#
#
# Elastic Constant Matrix: (Units=GPa)
#
#
# Indices 1 2 3 4 5 6 
#
# 1 83.9836 33.3987 20.5111 0.0000 0.0000 0.0000
# 2 33.3987 69.5616 33.0038 0.0000 0.0000 0.0000
# 3 20.5111 33.0038 89.6351 0.0000 0.0000 0.0000
# 4 0.0000 0.0000 0.0000 37.5787 0.0000 0.0000
# 5 0.0000 0.0000 0.0000 0.0000 41.5317 0.0000
# 6 0.0000 0.0000 0.0000 0.0000 0.0000 34.6231
#
#
#
# Elastic Compliance Matrix: (Units=1/GPa)
#
#
# Indices 1 2 3 4 5 6 
#
# 1 0.014781 -0.006655 -0.000932 0.000000 0.000000 0.000000
# 2 -0.006655 0.020415 -0.005994 0.000000 0.000000 0.000000
# 3 -0.000932 -0.005994 0.013577 0.000000 0.000000 0.000000
# 4 0.000000 0.000000 0.000000 0.026611 0.000000 0.000000
# 5 0.000000 0.000000 0.000000 0.000000 0.024078 0.000000
# 6 0.000000 0.000000 0.000000 0.000000 0.000000 0.028882
#
#
# Mechanical properties :
#
#
# Convention : Reuss Voigt Hill
#
# Bulk Modulus (GPa) = 46.27258 46.33416 46.30337
# Shear Modulus (GPa) = 30.72973 33.16447 31.94710
#
# Velocity S-wave (km/s) = 3.93488 4.08779 4.01206
# Velocity P-wave (km/s) = 6.63015 6.75468 6.69271
#
# Compressibility (1/GPa) = 0.02161107
#
# Stress axis : x y z
#
# Youngs Moduli (GPa) = 67.65366 48.98429 73.65603
#
# Poissons Ratio (x) = 0.32597 0.06865
# Poissons Ratio (y) = 0.45021 0.44149
# Poissons Ratio (z) = 0.06306 0.29361
#
# Static dielectric constant tensor:
#      x y z
#    x 3.622320 0.000000 0.000000 
#    y 0.000000 3.601000 0.000000 
#    z 0.000000 0.000000 3.470540 
# 
# 
# High freq. dielectric constant tensor:
#      x y z
#    x 1.791220 0.000000 0.000000 
#    y 0.000000 1.772640 0.000000 
#    z 0.000000 0.000000 1.790270 
# 
# From -- ./inp_files/23711.got.cif
#   From: 2010.03.12/outbox.cif.g09.slc.cpg/sg62_12_cif.got.tgz:23711.got - 2010.04.10 19:12:36.
