data_PCOD8254335
_publ_section_title
;
Structure prediction by ZEFSAII (Michael W. Deem and Ramdas Pophale) SiO2 
 PCOD8254335
Probable space group: P N M A
;
_chemical_formula_sum "Si O2"
_cell_formula_units_Z 48
_cell_length_a 16.971399
_cell_length_b 8.529187
_cell_length_c 16.844155
_cell_angle_alpha 90.000000
_cell_angle_beta 90.000000
_cell_angle_gamma 90.000000
_cell_volume 2438.229095
_symmetry_space_group_name_H-M "P N M A"
_symmetry_group_IT_number 62
_symmetry_cell_setting 'orthorhombic'
loop_
_space_group_symop_operation_xyz
x,y,z
1/2-x,-y,1/2+z
1/2+x,1/2-y,1/2-z
-x,1/2+y,-z
-x,-y,-z
1/2+x,y,1/2-z
1/2-x,1/2+y,1/2+z
x,1/2-y,z
loop_
_atom_site_type_symbol
_atom_site_label
_atom_site_fract_x
_atom_site_fract_y
_atom_site_fract_z
Si Si1 0.912702 0.435109 0.501990
Si Si2 0.354184 0.567767 0.324514
Si Si3 0.177521 0.933076 0.657132
Si Si4 0.001626 0.433859 0.087451
Si Si5 0.688812 0.064904 0.143525
Si Si6 0.352314 0.933709 0.683866
O O1 0.911857 0.250000 0.516139
O O2 0.871206 0.481641 0.419895
O O3 0.867498 0.520914 0.572054
O O4 0.000000 0.500000 0.500000
O O5 0.369464 0.750000 0.338331
O O6 0.355549 0.530118 0.231141
O O7 0.422294 0.471018 0.366442
O O8 0.272435 0.520217 0.366133
O O9 0.168355 0.750000 0.677665
O O10 0.269149 0.975626 0.642093
O O11 0.012815 0.250000 0.081025
O O12 0.075947 0.510820 0.134797
O O13 0.000000 0.500000 0.000000
O O14 0.703993 0.250000 0.146291
O O15 0.648349 0.005369 0.225222
O O16 0.366134 0.750000 0.685498
#
# Coordination Sequence:
#
# PCOD8254335 Si02
#       6
#     8   8   8   8   8   8
#     4  11  24  39  61  92 127 163 203 251 304 360
#     4  11  23  40  62  90 122 160 202 249 304 363
#     4   9  20  41  64  86 116 161 204 247 304 359
#     4  11  23  39  61  91 123 159 201 250 305 363
#     4  10  21  41  65  90 118 158 205 251 306 363
#     4   8  18  38  63  85 113 154 198 244 302 361
#
# _framework density 19.686419000000001
#
# number of rings (size 3 to 8) (size 9 to 14) (size 15 to 20)
#    0.000    2.000    0.000    4.000    4.667    1.333 
#    0.000    7.500    0.000    0.000    0.000    0.000 
#    0.000    0.000    0.000    0.000    0.000    0.000 
#
# Total GULP energy -595284.012027 kJ/mol
# GULP energy per Si atom -12401.750251 kJ/mol
# Density = 1.964161 g / cm^3
# Si number density = 19.686419 Si / 1000 Ang^3
#
#
#
# Elastic Constant Matrix: (Units=GPa)
#
#
# Indices 1 2 3 4 5 6 
#
# 1 138.7264 10.2947 76.9501 0.0000 0.0000 0.0000
# 2 10.2947 47.6587 13.3071 0.0000 0.0000 0.0000
# 3 76.9501 13.3071 100.7203 0.0000 0.0000 0.0000
# 4 0.0000 0.0000 0.0000 33.7081 0.0000 0.0000
# 5 0.0000 0.0000 0.0000 0.0000 35.7014 0.0000
# 6 0.0000 0.0000 0.0000 0.0000 0.0000 28.7131
#
#
#
# Elastic Compliance Matrix: (Units=1/GPa)
#
#
# Indices 1 2 3 4 5 6 
#
# 1 0.012510 -0.000035 -0.009553 0.000000 0.000000 0.000000
# 2 -0.000035 0.021786 -0.002852 0.000000 0.000000 0.000000
# 3 -0.009553 -0.002852 0.017604 0.000000 0.000000 0.000000
# 4 0.000000 0.000000 0.000000 0.029666 0.000000 0.000000
# 5 0.000000 0.000000 0.000000 0.000000 0.028010 0.000000
# 6 0.000000 0.000000 0.000000 0.000000 0.000000 0.034827
#
#
# Mechanical properties :
#
#
# Convention : Reuss Voigt Hill
#
# Bulk Modulus (GPa) = 37.00859 54.24547 45.62703
# Shear Modulus (GPa) = 28.04420 32.06142 30.05281
#
# Velocity S-wave (km/s) = 3.77841 4.03998 3.91138
# Velocity P-wave (km/s) = 6.15427 7.02684 6.60498
#
# Compressibility (1/GPa) = 0.02702076
#
# Stress axis : x y z
#
# Youngs Moduli (GPa) = 79.93630 45.90041 56.80621
#
# Poissons Ratio (x) = 0.00160 0.54267
# Poissons Ratio (y) = 0.00279 0.16200
# Poissons Ratio (z) = 0.76363 0.13090
#
# Static dielectric constant tensor:
#      x y z
#    x 3.252410 0.000000 0.000000 
#    y 0.000000 3.469060 0.000000 
#    z 0.000000 0.000000 3.575620 
# 
# 
# High freq. dielectric constant tensor:
#      x y z
#    x 1.780190 0.000000 0.000000 
#    y 0.000000 1.756840 0.000000 
#    z 0.000000 0.000000 1.776300 
# 
# From -- ./inp_files/23772.got.cif
#   From: 2010.03.12/outbox.cif.g09.slc.cpg/sg62_12_cif.got.tgz:23772.got - 2010.04.10 19:12:36.
