data_PCOD8254773
_publ_section_title
;
Structure prediction by ZEFSAII (Michael W. Deem and Ramdas Pophale) SiO2 
 PCOD8254773
Probable space group: P N M A
;
_chemical_formula_sum "Si O2"
_cell_formula_units_Z 56
_cell_length_a 9.675255
_cell_length_b 20.672280
_cell_length_c 13.109545
_cell_angle_alpha 90.000000
_cell_angle_beta 90.000000
_cell_angle_gamma 90.000000
_cell_volume 2622.034595
_symmetry_space_group_name_H-M "P N M A"
_symmetry_group_IT_number 62
_symmetry_cell_setting 'orthorhombic'
loop_
_space_group_symop_operation_xyz
x,y,z
1/2-x,-y,1/2+z
1/2+x,1/2-y,1/2-z
-x,1/2+y,-z
-x,-y,-z
1/2+x,y,1/2-z
1/2-x,1/2+y,1/2+z
x,1/2-y,z
loop_
_atom_site_type_symbol
_atom_site_label
_atom_site_fract_x
_atom_site_fract_y
_atom_site_fract_z
Si Si1 0.251431 0.821969 0.805480
Si Si2 0.906908 0.677394 0.326281
Si Si3 0.850236 0.367101 0.548764
Si Si4 0.291507 0.119603 0.514292
Si Si5 0.938545 0.675332 0.094157
Si Si6 0.378123 0.990745 0.921781
Si Si7 0.473381 0.117385 0.174608
O O1 0.209422 0.750000 0.768867
O O2 0.158909 0.876479 0.747966
O O3 0.413634 0.832110 0.782400
O O4 0.233311 0.827225 0.926877
O O5 0.849027 0.750000 0.332201
O O6 0.804520 0.631169 0.387820
O O7 0.911489 0.653996 0.210092
O O8 0.060692 0.674925 0.372499
O O9 0.703151 0.332939 0.531090
O O10 0.824281 0.437341 0.601938
O O11 0.930664 0.368353 0.441698
O O12 0.450516 0.125502 0.547426
O O13 0.250982 0.049452 0.468871
O O14 0.989424 0.750000 0.087193
O O15 0.448006 0.952791 0.825119
O O16 0.500000 0.000000 0.000000
#
# Coordination Sequence:
#
# PCOD8254773 Si02
#       7
#     8   8   8   8   8   8   8
#     4  11  22  38  61  92 127 169 214 260 323 391
#     4  11  21  40  66  93 126 170 218 263 328 392
#     4  11  22  43  68  89 130 174 214 270 326 380
#     4  11  22  41  65  92 135 173 204 271 331 375
#     4  11  25  39  62 104 134 160 218 274 325 397
#     4   9  19  44  68  86 125 164 221 262 306 395
#     4  10  23  40  62  90 126 167 217 266 315 382
#
# _framework density 21.357461000000001
#
# number of rings (size 3 to 8) (size 9 to 14) (size 15 to 20)
#    0.000    1.429    4.286    3.000    2.000    4.571 
#    5.143    2.857    0.000    0.000    0.000    0.000 
#    0.000    0.000    0.000    0.000    0.000    0.000 
#
# Total GULP energy -694184.464677 kJ/mol
# GULP energy per Si atom -12396.151155 kJ/mol
# Density = 2.130885 g / cm^3
# Si number density = 21.357461 Si / 1000 Ang^3
#
#
#
# Elastic Constant Matrix: (Units=GPa)
#
#
# Indices 1 2 3 4 5 6 
#
# 1 130.1229 20.2137 28.6836 0.0000 0.0000 0.0000
# 2 20.2137 75.6680 22.5978 0.0000 0.0000 0.0000
# 3 28.6836 22.5978 59.7157 0.0000 0.0000 0.0000
# 4 0.0000 0.0000 0.0000 19.6246 0.0000 0.0000
# 5 0.0000 0.0000 0.0000 0.0000 35.4790 0.0000
# 6 0.0000 0.0000 0.0000 0.0000 0.0000 31.8272
#
#
#
# Elastic Compliance Matrix: (Units=1/GPa)
#
#
# Indices 1 2 3 4 5 6 
#
# 1 0.008693 -0.001212 -0.003717 0.000000 0.000000 0.000000
# 2 -0.001212 0.015069 -0.005120 0.000000 0.000000 0.000000
# 3 -0.003717 -0.005120 0.020469 0.000000 0.000000 0.000000
# 4 0.000000 0.000000 0.000000 0.050956 0.000000 0.000000
# 5 0.000000 0.000000 0.000000 0.000000 0.028186 0.000000
# 6 0.000000 0.000000 0.000000 0.000000 0.000000 0.031420
#
#
# Mechanical properties :
#
#
# Convention : Reuss Voigt Hill
#
# Bulk Modulus (GPa) = 41.43840 45.38855 43.41348
# Shear Modulus (GPa) = 27.33234 30.32026 28.82630
#
# Velocity S-wave (km/s) = 3.58125 3.77192 3.67782
# Velocity P-wave (km/s) = 6.04524 6.34569 6.19729
#
# Compressibility (1/GPa) = 0.02413221
#
# Stress axis : x y z
#
# Youngs Moduli (GPa) = 115.04003 66.36359 48.85483
#
# Poissons Ratio (x) = 0.08044 0.18158
# Poissons Ratio (y) = 0.13945 0.25014
# Poissons Ratio (z) = 0.42757 0.33978
#
# Static dielectric constant tensor:
#      x y z
#    x 3.905500 0.000000 0.000000 
#    y 0.000000 4.465490 0.000000 
#    z 0.000000 0.000000 3.699020 
# 
# 
# High freq. dielectric constant tensor:
#      x y z
#    x 1.845280 0.000000 0.000000 
#    y 0.000000 1.827150 0.000000 
#    z 0.000000 0.000000 1.822350 
# 
# From -- ./inp_files/17186.got.cif
#   From: 2010.03.12/outbox.cif.g09.slc.cpg/sg62_9_cif.got.tgz:17186.got - 2010.04.10 19:12:36.
