data_PCOD8254026
_publ_section_title
;
Structure prediction by ZEFSAII (Michael W. Deem and Ramdas Pophale) SiO2 
 PCOD8254026
Probable space group: P N M A
;
_chemical_formula_sum "Si O2"
_cell_formula_units_Z 64
_cell_length_a 23.573598
_cell_length_b 9.069393
_cell_length_c 14.761717
_cell_angle_alpha 90.000000
_cell_angle_beta 90.000000
_cell_angle_gamma 90.000000
_cell_volume 3156.028888
_symmetry_space_group_name_H-M "P N M A"
_symmetry_group_IT_number 62
_symmetry_cell_setting 'orthorhombic'
loop_
_space_group_symop_operation_xyz
x,y,z
1/2-x,-y,1/2+z
1/2+x,1/2-y,1/2-z
-x,1/2+y,-z
-x,-y,-z
1/2+x,y,1/2-z
1/2-x,1/2+y,1/2+z
x,1/2-y,z
loop_
_atom_site_type_symbol
_atom_site_label
_atom_site_fract_x
_atom_site_fract_y
_atom_site_fract_z
Si Si1 0.666288 0.421797 0.590127
Si Si2 0.032959 0.924163 0.580848
Si Si3 0.975853 0.082913 0.742045
Si Si4 0.245275 0.922888 0.766564
Si Si5 0.960792 0.583541 0.069758
Si Si6 0.629006 0.083021 0.195251
Si Si7 0.258022 0.079786 0.055932
Si Si8 0.866187 0.916734 0.490261
O O1 0.663724 0.250000 0.614350
O O2 0.696626 0.497383 0.675913
O O3 0.602453 0.485854 0.578504
O O4 0.698428 0.450262 0.494813
O O5 0.029303 0.750000 0.571065
O O6 0.098057 0.978045 0.576024
O O7 0.000000 0.000000 0.500000
O O8 0.008620 0.973168 0.676268
O O9 0.974011 0.250000 0.703783
O O10 0.008136 0.076575 0.835303
O O11 0.911673 0.022558 0.753982
O O12 0.237230 0.750000 0.781930
O O13 0.306880 0.976237 0.800303
O O14 0.243212 0.965717 0.660896
O O15 0.954699 0.750000 0.034536
O O16 0.000000 0.500000 0.000000
O O17 0.625989 0.250000 0.234014
O O18 0.607834 0.078949 0.091335
O O19 0.275710 0.250000 0.044684
O O20 0.302469 0.975564 0.005514
O O21 0.867361 0.750000 0.452794
#
# Coordination Sequence:
#
# PCOD8254026 Si02
#       8
#     8   8   8   8   8   8   8   8
#     4  10  22  42  65  91 126 164 205 260 317 370
#     4  12  24  39  60  89 125 165 205 248 306 371
#     4  11  24  41  62  92 127 163 211 262 310 374
#     4  10  22  40  62  92 123 158 206 256 307 376
#     4  10  25  46  67  93 124 166 217 266 316 368
#     4  10  21  38  62  89 121 162 208 256 314 375
#     4  10  22  39  62  90 121 160 206 253 312 376
#     4  11  22  38  60  88 124 162 202 251 306 369
#
# _framework density 20.278648
#
# number of rings (size 3 to 8) (size 9 to 14) (size 15 to 20)
#    0.000    1.500    2.500    1.875    3.500    3.000 
#    0.000    0.000    0.000    0.000    0.000    0.000 
#    0.000    0.000    0.000    0.000    0.000    0.000 
#
# Total GULP energy -793749.868107 kJ/mol
# GULP energy per Si atom -12402.341689 kJ/mol
# Density = 2.023249 g / cm^3
# Si number density = 20.278648 Si / 1000 Ang^3
#
#
#
# Elastic Constant Matrix: (Units=GPa)
#
#
# Indices 1 2 3 4 5 6 
#
# 1 156.2544 63.0921 47.8690 0.0000 0.0000 0.0000
# 2 63.0921 114.9652 44.6530 0.0000 0.0000 0.0000
# 3 47.8690 44.6530 94.0640 0.0000 0.0000 0.0000
# 4 0.0000 0.0000 0.0000 28.9266 0.0000 0.0000
# 5 0.0000 0.0000 0.0000 0.0000 32.9572 0.0000
# 6 0.0000 0.0000 0.0000 0.0000 0.0000 36.4170
#
#
#
# Elastic Compliance Matrix: (Units=1/GPa)
#
#
# Indices 1 2 3 4 5 6 
#
# 1 0.008732 -0.003759 -0.002659 0.000000 0.000000 0.000000
# 2 -0.003759 0.012283 -0.003918 0.000000 0.000000 0.000000
# 3 -0.002659 -0.003918 0.013844 0.000000 0.000000 0.000000
# 4 0.000000 0.000000 0.000000 0.034570 0.000000 0.000000
# 5 0.000000 0.000000 0.000000 0.000000 0.030342 0.000000
# 6 0.000000 0.000000 0.000000 0.000000 0.000000 0.027460
#
#
# Mechanical properties :
#
#
# Convention : Reuss Voigt Hill
#
# Bulk Modulus (GPa) = 70.48806 75.16797 72.82801
# Shear Modulus (GPa) = 32.75812 33.63813 33.19813
#
# Velocity S-wave (km/s) = 4.02356 4.07725 4.05050
# Velocity P-wave (km/s) = 7.51137 7.70151 7.60703
#
# Compressibility (1/GPa) = 0.01418680
#
# Stress axis : x y z
#
# Youngs Moduli (GPa) = 114.51491 81.41270 72.23274
#
# Poissons Ratio (x) = 0.30607 0.19209
# Poissons Ratio (y) = 0.43051 0.28299
# Poissons Ratio (z) = 0.30453 0.31895
#
# Static dielectric constant tensor:
#      x y z
#    x 3.889080 0.000000 0.000000 
#    y 0.000000 3.711810 0.000000 
#    z 0.000000 0.000000 3.312810 
# 
# 
# High freq. dielectric constant tensor:
#      x y z
#    x 1.806460 0.000000 0.000000 
#    y 0.000000 1.787130 0.000000 
#    z 0.000000 0.000000 1.787300 
# 
# From -- ./inp_files/20893.got.cif
#   From: 2010.03.12/outbox.cif.g09.slc.cpg/sg62_11_cif.got.tgz:20893.got - 2010.04.10 19:12:36.
