data_PCOD8254051
_publ_section_title
;
Structure prediction by ZEFSAII (Michael W. Deem and Ramdas Pophale) SiO2 
 PCOD8254051
Probable space group: P N M A
;
_chemical_formula_sum "Si O2"
_cell_formula_units_Z 64
_cell_length_a 11.579275
_cell_length_b 29.902281
_cell_length_c 8.724260
_cell_angle_alpha 90.000000
_cell_angle_beta 90.000000
_cell_angle_gamma 90.000000
_cell_volume 3020.746539
_symmetry_space_group_name_H-M "P N M A"
_symmetry_group_IT_number 62
_symmetry_cell_setting 'orthorhombic'
loop_
_space_group_symop_operation_xyz
x,y,z
1/2-x,-y,1/2+z
1/2+x,1/2-y,1/2-z
-x,1/2+y,-z
-x,-y,-z
1/2+x,y,1/2-z
1/2-x,1/2+y,1/2+z
x,1/2-y,z
loop_
_atom_site_type_symbol
_atom_site_label
_atom_site_fract_x
_atom_site_fract_y
_atom_site_fract_z
Si Si1 0.603632 0.119163 0.122748
Si Si2 0.761399 0.549784 0.030855
Si Si3 0.507438 0.415553 0.429432
Si Si4 0.199402 0.198574 0.891406
Si Si5 0.279699 0.455937 0.327905
Si Si6 0.885335 0.368086 0.583983
Si Si7 0.783526 0.800106 0.460937
Si Si8 0.452874 0.332541 0.596722
O O1 0.571538 0.113697 0.299769
O O2 0.697352 0.080292 0.086252
O O3 0.484188 0.115411 0.030409
O O4 0.658748 0.167374 0.085655
O O5 0.725447 0.547424 0.854213
O O6 0.898142 0.560261 0.036650
O O7 0.734670 0.503925 0.117588
O O8 0.688948 0.587526 0.122811
O O9 0.414968 0.451088 0.367664
O O10 0.434459 0.381664 0.530415
O O11 0.236397 0.250000 0.911080
O O12 0.291781 0.167802 0.983652
O O13 0.190253 0.184326 0.712619
O O14 0.072225 0.189813 0.956587
O O15 0.943002 0.340390 0.721560
O O16 0.829400 0.750000 0.493026
O O17 0.644856 0.800662 0.474279
#
# Coordination Sequence:
#
# PCOD8254051 Si02
#       8
#     8   8   8   8   8   8   8   8
#     4  11  23  43  65  88 130 172 202 257 326 373
#     4  11  25  43  65  95 127 165 217 262 324 380
#     4  11  23  43  67  88 129 169 207 263 320 379
#     4  10  21  38  64  98 128 162 212 268 313 364
#     4  11  25  43  66  93 128 167 210 268 318 384
#     4  11  23  40  64  96 127 170 212 259 314 385
#     4  10  21  38  63  94 126 165 213 260 312 373
#     4  11  21  38  68  92 125 167 211 263 314 372
#
# _framework density 21.186814999999999
#
# number of rings (size 3 to 8) (size 9 to 14) (size 15 to 20)
#    0.000    1.250    5.000    0.750    1.750    2.500 
#    0.000    1.250    0.000    0.000    0.000    0.000 
#    0.000    0.000    0.000    0.000    0.000    0.000 
#
# Total GULP energy -793330.490531 kJ/mol
# GULP energy per Si atom -12395.788915 kJ/mol
# Density = 2.113859 g / cm^3
# Si number density = 21.186815 Si / 1000 Ang^3
#
#
#
# Elastic Constant Matrix: (Units=GPa)
#
#
# Indices 1 2 3 4 5 6 
#
# 1 114.6374 36.4825 10.6779 0.0000 0.0000 0.0000
# 2 36.4825 124.5429 10.3885 0.0000 0.0000 0.0000
# 3 10.6779 10.3885 17.0051 0.0000 0.0000 0.0000
# 4 0.0000 0.0000 0.0000 25.7110 0.0000 0.0000
# 5 0.0000 0.0000 0.0000 0.0000 26.3235 0.0000
# 6 0.0000 0.0000 0.0000 0.0000 0.0000 29.4985
#
#
#
# Elastic Compliance Matrix: (Units=1/GPa)
#
#
# Indices 1 2 3 4 5 6 
#
# 1 0.009966 -0.002526 -0.004715 0.000000 0.000000 0.000000
# 2 -0.002526 0.009101 -0.003973 0.000000 0.000000 0.000000
# 3 -0.004715 -0.003973 0.064194 0.000000 0.000000 0.000000
# 4 0.000000 0.000000 0.000000 0.038894 0.000000 0.000000
# 5 0.000000 0.000000 0.000000 0.000000 0.037989 0.000000
# 6 0.000000 0.000000 0.000000 0.000000 0.000000 0.033900
#
#
# Mechanical properties :
#
#
# Convention : Reuss Voigt Hill
#
# Bulk Modulus (GPa) = 16.43874 41.25368 28.84621
# Shear Modulus (GPa) = 21.11935 29.54902 25.33419
#
# Velocity S-wave (km/s) = 3.16066 3.73861 3.46172
# Velocity P-wave (km/s) = 4.59299 6.17656 5.44267
#
# Compressibility (1/GPa) = 0.06083192
#
# Stress axis : x y z
#
# Youngs Moduli (GPa) = 100.33864 109.88057 15.57785
#
# Poissons Ratio (x) = 0.27757 0.07345
# Poissons Ratio (y) = 0.25347 0.06190
# Poissons Ratio (z) = 0.47308 0.43661
#
# Static dielectric constant tensor:
#      x y z
#    x 4.041620 0.000000 0.000000 
#    y 0.000000 3.766800 0.000000 
#    z 0.000000 0.000000 3.502800 
# 
# 
# High freq. dielectric constant tensor:
#      x y z
#    x 1.850830 0.000000 0.000000 
#    y 0.000000 1.832590 0.000000 
#    z 0.000000 0.000000 1.799630 
# 
# From -- ./inp_files/5535.got.cif
#   From: 2010.03.12/outbox.cif.g09.slc.cpg/sg62_3_cif.got.tgz:5535.got - 2010.04.10 19:12:36.
