data_PCOD8254865
_publ_section_title
;
Structure prediction by ZEFSAII (Michael W. Deem and Ramdas Pophale) SiO2 
 PCOD8254865
Probable space group: P N M A
;
_chemical_formula_sum "Si O2"
_cell_formula_units_Z 48
_cell_length_a 25.761407
_cell_length_b 9.828145
_cell_length_c 9.715988
_cell_angle_alpha 90.000000
_cell_angle_beta 90.000000
_cell_angle_gamma 90.000000
_cell_volume 2459.960332
_symmetry_space_group_name_H-M "P N M A"
_symmetry_group_IT_number 62
_symmetry_cell_setting 'orthorhombic'
loop_
_space_group_symop_operation_xyz
x,y,z
1/2-x,-y,1/2+z
1/2+x,1/2-y,1/2-z
-x,1/2+y,-z
-x,-y,-z
1/2+x,y,1/2-z
1/2-x,1/2+y,1/2+z
x,1/2-y,z
loop_
_atom_site_type_symbol
_atom_site_label
_atom_site_fract_x
_atom_site_fract_y
_atom_site_fract_z
Si Si1 0.445287 0.250000 0.133788
Si Si2 0.988935 0.250000 0.867926
Si Si3 0.034028 0.250000 0.577069
Si Si4 0.603492 0.995938 0.984737
Si Si5 0.090058 0.970015 0.207333
Si Si6 0.204324 0.591709 0.187634
Si Si7 0.285640 0.908757 0.951699
Si Si8 0.037543 0.250000 0.157336
O O1 0.408538 0.383453 0.132554
O O2 0.482010 0.250000 0.266765
O O3 0.478487 0.250000 0.994531
O O4 0.952960 0.382673 0.871065
O O5 0.027696 0.250000 0.740035
O O6 0.027050 0.250000 0.996314
O O7 0.063495 0.382758 0.529233
O O8 0.661668 0.050853 0.968918
O O9 0.595162 0.926217 0.133494
O O10 0.146091 0.945591 0.138800
O O11 0.073480 0.125498 0.199887
O O12 0.208666 0.750000 0.231199
O O13 0.222319 0.498579 0.315222
O O14 0.239366 0.559162 0.055994
O O15 0.287334 0.750000 0.909713
#
# Coordination Sequence:
#
# PCOD8254865 Si02
#       8
#     4   4   4   8   8   8   8   4
#     4  12  22  38  61  90 122 158 205 252 292 360
#     4  12  24  40  59  88 126 166 203 248 306 366
#     4  12  20  38  63  88 118 158 205 250 296 350
#     4  11  21  38  65  92 114 160 208 255 300 352
#     4  11  21  41  64  87 121 166 205 245 309 368
#     4  10  23  44  68  93 124 162 206 261 314 375
#     4  10  23  44  65  94 127 156 206 262 312 373
#     4  12  26  40  57  92 130 164 205 252 302 378
#
# _framework density 19.512508
#
# number of rings (size 3 to 8) (size 9 to 14) (size 15 to 20)
#    0.000    1.000    5.000    2.000    7.000    0.667 
#    6.000    0.000    0.000    0.000    0.000    0.000 
#    0.000    0.000    0.000    0.000    0.000    0.000 
#
# Total GULP energy -595375.820376 kJ/mol
# GULP energy per Si atom -12403.662924 kJ/mol
# Density = 1.946810 g / cm^3
# Si number density = 19.512508 Si / 1000 Ang^3
#
#
#
# Elastic Constant Matrix: (Units=GPa)
#
#
# Indices 1 2 3 4 5 6 
#
# 1 84.2539 25.2989 27.0715 0.0000 0.0000 0.0000
# 2 25.2989 118.0424 9.3457 0.0000 0.0000 0.0000
# 3 27.0715 9.3457 74.5588 0.0000 0.0000 0.0000
# 4 0.0000 0.0000 0.0000 -85.3473 0.0000 0.0000
# 5 0.0000 0.0000 0.0000 0.0000 34.1399 0.0000
# 6 0.0000 0.0000 0.0000 0.0000 0.0000 31.7623
#
#
#
# Elastic Compliance Matrix: (Units=1/GPa)
#
#
# Indices 1 2 3 4 5 6 
#
# 1 0.014221 -0.002665 -0.004829 0.000000 0.000000 0.000000
# 2 -0.002665 0.009056 -0.000167 0.000000 0.000000 0.000000
# 3 -0.004829 -0.000167 0.015187 0.000000 0.000000 0.000000
# 4 0.000000 0.000000 0.000000 -0.011717 0.000000 0.000000
# 5 0.000000 0.000000 0.000000 0.000000 0.029291 0.000000
# 6 0.000000 0.000000 0.000000 0.000000 0.000000 0.031484
#
#
# Mechanical properties :
#
#
# Convention : Reuss Voigt Hill
#
# Bulk Modulus (GPa) = 43.21647 44.47636 43.84642
# Shear Modulus (GPa) = 45.22449 10.45356 27.83903
#
# Velocity S-wave (km/s) = 4.81949 2.31711 3.78130
# Velocity P-wave (km/s) = 7.29151 5.47740 6.44857
#
# Compressibility (1/GPa) = 0.02313933
#
# Stress axis : x y z
#
# Youngs Moduli (GPa) = 70.31867 110.42342 65.84710
#
# Poissons Ratio (x) = 0.29433 0.31800
# Poissons Ratio (y) = 0.18743 0.01102
# Poissons Ratio (z) = 0.33960 0.01848
#
# Static dielectric constant tensor:
#      x y z
#    x 3.644490 0.000000 0.000000 
#    y 0.000000 3.784330 0.000000 
#    z 0.000000 0.000000 3.325480 
# 
# 
# High freq. dielectric constant tensor:
#      x y z
#    x 1.765450 0.000000 0.000000 
#    y 0.000000 1.779140 0.000000 
#    z 0.000000 0.000000 1.740440 
# 
# From -- ./inp_files/10343.got.cif
#   From: 2010.03.12/outbox.cif.g09.slc.cpg/sg62_6_cif.got.tgz:10343.got - 2010.04.10 19:12:36.
