data_PCOD8254719
_publ_section_title
;
Structure prediction by ZEFSAII (Michael W. Deem and Ramdas Pophale) SiO2 
 PCOD8254719
Probable space group: P N M A
;
_chemical_formula_sum "Si O2"
_cell_formula_units_Z 48
_cell_length_a 9.159892
_cell_length_b 17.123822
_cell_length_c 15.221716
_cell_angle_alpha 90.000000
_cell_angle_beta 90.000000
_cell_angle_gamma 90.000000
_cell_volume 2387.562080
_symmetry_space_group_name_H-M "P N M A"
_symmetry_group_IT_number 62
_symmetry_cell_setting 'orthorhombic'
loop_
_space_group_symop_operation_xyz
x,y,z
1/2-x,-y,1/2+z
1/2+x,1/2-y,1/2-z
-x,1/2+y,-z
-x,-y,-z
1/2+x,y,1/2-z
1/2-x,1/2+y,1/2+z
x,1/2-y,z
loop_
_atom_site_type_symbol
_atom_site_label
_atom_site_fract_x
_atom_site_fract_y
_atom_site_fract_z
Si Si1 0.699495 0.340898 0.496896
Si Si2 0.268004 0.910608 0.682384
Si Si3 0.526189 0.160632 0.667572
Si Si4 0.512719 0.091380 0.982438
Si Si5 0.214009 0.408819 0.682667
Si Si6 0.450610 0.842083 0.837265
O O1 0.723837 0.250000 0.478029
O O2 0.649721 0.381381 0.405706
O O3 0.572385 0.356692 0.567189
O O4 0.851124 0.375288 0.533377
O O5 0.339530 0.880379 0.770525
O O6 0.107097 0.877113 0.682517
O O7 0.270151 0.003294 0.681903
O O8 0.559712 0.250000 0.692672
O O9 0.622674 0.105536 0.729313
O O10 0.354751 0.146217 0.678434
O O11 0.609009 0.110337 0.898232
O O12 0.593004 0.133861 0.063925
O O13 0.500000 0.000000 0.000000
O O14 0.450031 0.750000 0.825289
#
# Coordination Sequence:
#
# PCOD8254719 Si02
#       6
#     8   8   8   8   8   8
#     4  10  22  43  66  90 129 171 212 265 324 380
#     4  11  23  40  64  94 126 165 210 262 322 379
#     4  11  26  42  65  96 130 173 218 266 324 383
#     4  11  22  41  63  95 125 166 212 260 316 379
#     4  12  24  41  67  94 130 168 216 271 318 384
#     4  11  23  40  64  93 128 167 209 258 319 384
#
# _framework density 20.104189999999999
#
# number of rings (size 3 to 8) (size 9 to 14) (size 15 to 20)
#    0.000    1.000    3.333    5.500    2.333    6.000 
#    0.000    1.667    0.000    0.000    0.000    0.000 
#    0.000    0.000    0.000    0.000    0.000    0.000 
#
# Total GULP energy -595429.780278 kJ/mol
# GULP energy per Si atom -12404.787089 kJ/mol
# Density = 2.005843 g / cm^3
# Si number density = 20.104190 Si / 1000 Ang^3
#
#
#
# Elastic Constant Matrix: (Units=GPa)
#
#
# Indices 1 2 3 4 5 6 
#
# 1 41.7068 6.4007 8.2454 0.0000 0.0000 0.0000
# 2 6.4007 87.8674 21.7678 0.0000 0.0000 0.0000
# 3 8.2454 21.7678 61.5869 0.0000 0.0000 0.0000
# 4 0.0000 0.0000 0.0000 37.5333 0.0000 0.0000
# 5 0.0000 0.0000 0.0000 0.0000 44.4123 0.0000
# 6 0.0000 0.0000 0.0000 0.0000 0.0000 32.8289
#
#
#
# Elastic Compliance Matrix: (Units=1/GPa)
#
#
# Indices 1 2 3 4 5 6 
#
# 1 0.024721 -0.001075 -0.002930 0.000000 0.000000 0.000000
# 2 -0.001075 0.012520 -0.004281 0.000000 0.000000 0.000000
# 3 -0.002930 -0.004281 0.018143 0.000000 0.000000 0.000000
# 4 0.000000 0.000000 0.000000 0.026643 0.000000 0.000000
# 5 0.000000 0.000000 0.000000 0.000000 0.022516 0.000000
# 6 0.000000 0.000000 0.000000 0.000000 0.000000 0.030461
#
#
# Mechanical properties :
#
#
# Convention : Reuss Voigt Hill
#
# Bulk Modulus (GPa) = 25.76549 29.33208 27.54879
# Shear Modulus (GPa) = 30.39279 33.27136 31.83208
#
# Velocity S-wave (km/s) = 3.89236 4.07252 3.98346
# Velocity P-wave (km/s) = 5.74843 6.06099 5.90678
#
# Compressibility (1/GPa) = 0.03881160
#
# Stress axis : x y z
#
# Youngs Moduli (GPa) = 40.45132 79.87426 55.11880
#
# Poissons Ratio (x) = 0.08586 0.16148
# Poissons Ratio (y) = 0.04348 0.23597
# Poissons Ratio (z) = 0.11851 0.34195
#
# Static dielectric constant tensor:
#      x y z
#    x 3.810210 0.000000 0.000000 
#    y 0.000000 3.827990 0.000000 
#    z 0.000000 0.000000 4.067440 
# 
# 
# High freq. dielectric constant tensor:
#      x y z
#    x 1.778990 0.000000 0.000000 
#    y 0.000000 1.802680 0.000000 
#    z 0.000000 0.000000 1.801410 
# 
# From -- ./inp_files/16952.got.cif
#   From: 2010.03.12/outbox.cif.g09.slc.cpg/sg62_9_cif.got.tgz:16952.got - 2010.04.10 19:12:36.
