data_PCOD8254072
_publ_section_title
;
Structure prediction by ZEFSAII (Michael W. Deem and Ramdas Pophale) SiO2 
 PCOD8254072
Probable space group: P N M A
;
_chemical_formula_sum "Si O2"
_cell_formula_units_Z 64
_cell_length_a 15.008219
_cell_length_b 18.120631
_cell_length_c 11.589157
_cell_angle_alpha 90.000000
_cell_angle_beta 90.000000
_cell_angle_gamma 90.000000
_cell_volume 3151.768577
_symmetry_space_group_name_H-M "P N M A"
_symmetry_group_IT_number 62
_symmetry_cell_setting 'orthorhombic'
loop_
_space_group_symop_operation_xyz
x,y,z
1/2-x,-y,1/2+z
1/2+x,1/2-y,1/2-z
-x,1/2+y,-z
-x,-y,-z
1/2+x,y,1/2-z
1/2-x,1/2+y,1/2+z
x,1/2-y,z
loop_
_atom_site_type_symbol
_atom_site_label
_atom_site_fract_x
_atom_site_fract_y
_atom_site_fract_z
Si Si1 0.227533 0.395677 0.483134
Si Si2 0.320365 0.573741 0.229652
Si Si3 0.979796 0.073089 0.780827
Si Si4 0.914106 0.337244 0.984927
Si Si5 0.487886 0.590537 0.680626
Si Si6 0.320265 0.831474 0.762857
Si Si7 0.845861 0.093050 0.336891
Si Si8 0.329784 0.057492 0.905992
O O1 0.206633 0.380194 0.616377
O O2 0.332857 0.385260 0.465103
O O3 0.179594 0.335621 0.402262
O O4 0.196985 0.475036 0.438730
O O5 0.420292 0.599731 0.255034
O O6 0.312339 0.487286 0.202057
O O7 0.251885 0.593398 0.333157
O O8 0.934479 0.137164 0.855103
O O9 0.922224 0.059727 0.665095
O O10 0.987582 0.996188 0.850945
O O11 0.895256 0.250000 0.985951
O O12 0.994673 0.359355 0.068652
O O13 0.387774 0.608447 0.715335
O O14 0.555828 0.608325 0.785664
O O15 0.350013 0.750000 0.725424
O O16 0.222021 0.847403 0.713807
O O17 0.847345 0.101967 0.475680
#
# Coordination Sequence:
#
# PCOD8254072 Si02
#       8
#     8   8   8   8   8   8   8   8
#     4  11  21  39  66  89 126 165 208 257 312 379
#     4  10  21  38  66  97 121 161 211 261 316 371
#     4  11  23  41  68  97 125 168 213 267 315 374
#     4  12  25  43  65  94 132 170 210 263 321 380
#     4  11  23  41  63  97 125 166 214 263 314 374
#     4  12  24  40  62  91 128 170 210 258 321 381
#     4  10  23  38  63  92 129 158 203 268 320 368
#     4  11  21  40  65  98 126 156 213 269 314 374
#
# _framework density 20.306059999999999
#
# number of rings (size 3 to 8) (size 9 to 14) (size 15 to 20)
#    0.000    1.000    5.000    1.875    5.250    2.000 
#    0.000    1.875    0.000    0.000    0.000    0.000 
#    0.000    0.000    0.000    0.000    0.000    0.000 
#
# Total GULP energy -793625.147970 kJ/mol
# GULP energy per Si atom -12400.392937 kJ/mol
# Density = 2.025984 g / cm^3
# Si number density = 20.306060 Si / 1000 Ang^3
#
#
#
# Elastic Constant Matrix: (Units=GPa)
#
#
# Indices 1 2 3 4 5 6 
#
# 1 90.2311 14.4370 12.3889 0.0000 0.0000 0.0000
# 2 14.4370 57.4155 29.6653 0.0000 0.0000 0.0000
# 3 12.3889 29.6653 105.8570 0.0000 0.0000 0.0000
# 4 0.0000 0.0000 0.0000 21.9347 0.0000 0.0000
# 5 0.0000 0.0000 0.0000 0.0000 30.9163 0.0000
# 6 0.0000 0.0000 0.0000 0.0000 0.0000 12.8482
#
#
#
# Elastic Compliance Matrix: (Units=1/GPa)
#
#
# Indices 1 2 3 4 5 6 
#
# 1 0.011583 -0.002587 -0.000631 0.000000 0.000000 0.000000
# 2 -0.002587 0.020943 -0.005566 0.000000 0.000000 0.000000
# 3 -0.000631 -0.005566 0.011080 0.000000 0.000000 0.000000
# 4 0.000000 0.000000 0.000000 0.045590 0.000000 0.000000
# 5 0.000000 0.000000 0.000000 0.000000 0.032345 0.000000
# 6 0.000000 0.000000 0.000000 0.000000 0.000000 0.077832
#
#
# Mechanical properties :
#
#
# Convention : Reuss Voigt Hill
#
# Bulk Modulus (GPa) = 38.40349 40.72065 39.56207
# Shear Modulus (GPa) = 22.16099 26.27400 24.21749
#
# Velocity S-wave (km/s) = 3.30714 3.60098 3.45719
# Velocity P-wave (km/s) = 5.79105 6.11444 5.95494
#
# Compressibility (1/GPa) = 0.02603930
#
# Stress axis : x y z
#
# Youngs Moduli (GPa) = 86.33251 47.74783 90.24903
#
# Poissons Ratio (x) = 0.12351 0.05692
# Poissons Ratio (y) = 0.22331 0.50236
# Poissons Ratio (z) = 0.05445 0.26578
#
# Static dielectric constant tensor:
#      x y z
#    x 3.723430 0.000000 0.000000 
#    y 0.000000 3.314390 0.000000 
#    z 0.000000 0.000000 3.928920 
# 
# 
# High freq. dielectric constant tensor:
#      x y z
#    x 1.804100 0.000000 0.000000 
#    y 0.000000 1.756240 0.000000 
#    z 0.000000 0.000000 1.802750 
# 
# From -- ./inp_files/13622.got.cif
#   From: 2010.03.12/outbox.cif.g09.slc.cpg/sg62_7_cif.got.tgz:13622.got - 2010.04.10 19:12:36.
