data_PCOD8254688
_publ_section_title
;
Structure prediction by ZEFSAII (Michael W. Deem and Ramdas Pophale) SiO2 
 PCOD8254688
Probable space group: P N M A
;
_chemical_formula_sum "Si O2"
_cell_formula_units_Z 48
_cell_length_a 11.872807
_cell_length_b 8.409678
_cell_length_c 23.268746
_cell_angle_alpha 90.000000
_cell_angle_beta 90.000000
_cell_angle_gamma 90.000000
_cell_volume 2323.302471
_symmetry_space_group_name_H-M "P N M A"
_symmetry_group_IT_number 62
_symmetry_cell_setting 'orthorhombic'
loop_
_space_group_symop_operation_xyz
x,y,z
1/2-x,-y,1/2+z
1/2+x,1/2-y,1/2-z
-x,1/2+y,-z
-x,-y,-z
1/2+x,y,1/2-z
1/2-x,1/2+y,1/2+z
x,1/2-y,z
loop_
_atom_site_type_symbol
_atom_site_label
_atom_site_fract_x
_atom_site_fract_y
_atom_site_fract_z
Si Si1 0.779069 0.934298 0.575138
Si Si2 0.687916 0.565065 0.950969
Si Si3 0.495431 0.433850 0.874918
Si Si4 0.400138 0.936945 0.342077
Si Si5 0.659670 0.936913 0.357312
Si Si6 0.349141 0.064557 0.219614
O O1 0.769891 0.750000 0.559358
O O2 0.799693 0.035215 0.518040
O O3 0.881896 0.964257 0.618821
O O4 0.663225 0.993034 0.602932
O O5 0.668272 0.750000 0.938944
O O6 0.580187 0.471140 0.926976
O O7 0.799949 0.506735 0.918286
O O8 0.462106 0.250000 0.876518
O O9 0.551678 0.473084 0.813818
O O10 0.380027 0.750000 0.337506
O O11 0.530216 0.980947 0.349239
O O12 0.350768 0.020589 0.286014
O O13 0.682158 0.750000 0.356567
O O14 0.727865 0.015826 0.305151
O O15 0.368228 0.250000 0.210594
#
# Coordination Sequence:
#
# PCOD8254688 Si02
#       6
#     8   8   8   8   8   8
#     4  12  25  41  62  92 127 163 208 258 310 368
#     4  11  22  40  65  93 126 163 206 255 310 370
#     4  11  22  40  65  93 126 164 208 257 311 366
#     4  11  25  43  63  90 124 165 209 255 310 367
#     4  10  22  42  66  90 121 162 208 254 308 369
#     4  11  23  40  64  92 125 162 206 255 308 368
#
# _framework density 20.660246000000001
#
# number of rings (size 3 to 8) (size 9 to 14) (size 15 to 20)
#    0.000    1.000    0.000    9.500    2.333    3.333 
#    0.000    0.000    0.000    0.000    0.000    0.000 
#    0.000    0.000    0.000    0.000    0.000    0.000 
#
# Total GULP energy -595597.915947 kJ/mol
# GULP energy per Si atom -12408.289916 kJ/mol
# Density = 2.061322 g / cm^3
# Si number density = 20.660246 Si / 1000 Ang^3
#
#
#
# Elastic Constant Matrix: (Units=GPa)
#
#
# Indices 1 2 3 4 5 6 
#
# 1 97.3726 27.7687 14.1807 0.0000 0.0000 0.0000
# 2 27.7687 103.1385 12.5758 0.0000 0.0000 0.0000
# 3 14.1807 12.5758 61.0207 0.0000 0.0000 0.0000
# 4 0.0000 0.0000 0.0000 36.8413 0.0000 0.0000
# 5 0.0000 0.0000 0.0000 0.0000 22.9183 0.0000
# 6 0.0000 0.0000 0.0000 0.0000 0.0000 32.9125
#
#
#
# Elastic Compliance Matrix: (Units=1/GPa)
#
#
# Indices 1 2 3 4 5 6 
#
# 1 0.011372 -0.002810 -0.002064 0.000000 0.000000 0.000000
# 2 -0.002810 0.010640 -0.001540 0.000000 0.000000 0.000000
# 3 -0.002064 -0.001540 0.017185 0.000000 0.000000 0.000000
# 4 0.000000 0.000000 0.000000 0.027143 0.000000 0.000000
# 5 0.000000 0.000000 0.000000 0.000000 0.043633 0.000000
# 6 0.000000 0.000000 0.000000 0.000000 0.000000 0.030384
#
#
# Mechanical properties :
#
#
# Convention : Reuss Voigt Hill
#
# Bulk Modulus (GPa) = 37.92231 41.17579 39.54905
# Shear Modulus (GPa) = 30.86924 32.33486 31.60205
#
# Velocity S-wave (km/s) = 3.86960 3.96040 3.91526
# Velocity P-wave (km/s) = 6.19356 6.39423 6.29469
#
# Compressibility (1/GPa) = 0.02636970
#
# Stress axis : x y z
#
# Youngs Moduli (GPa) = 87.93734 93.98474 58.19101
#
# Poissons Ratio (x) = 0.26410 0.12008
# Poissons Ratio (y) = 0.24711 0.08960
# Poissons Ratio (z) = 0.18147 0.14472
#
# Static dielectric constant tensor:
#      x y z
#    x 3.771770 0.000000 0.000000 
#    y 0.000000 3.831270 0.000000 
#    z 0.000000 0.000000 3.695340 
# 
# 
# High freq. dielectric constant tensor:
#      x y z
#    x 1.811150 0.000000 0.000000 
#    y 0.000000 1.826770 0.000000 
#    z 0.000000 0.000000 1.810990 
# 
# From -- ./inp_files/29272.got.cif
#   From: 2010.03.12/outbox.cif.g09.slc.cpg/sg62_15_cif.got.tgz:29272.got - 2010.04.10 19:12:36.
