data_PCOD8254301
_publ_section_title
;
Structure prediction by ZEFSAII (Michael W. Deem and Ramdas Pophale) SiO2 
 PCOD8254301
Probable space group: P N M A
;
_chemical_formula_sum "Si O2"
_cell_formula_units_Z 40
_cell_length_a 13.435460
_cell_length_b 14.578268
_cell_length_c 9.474142
_cell_angle_alpha 90.000000
_cell_angle_beta 90.000000
_cell_angle_gamma 90.000000
_cell_volume 1855.659801
_symmetry_space_group_name_H-M "P N M A"
_symmetry_group_IT_number 62
_symmetry_cell_setting 'orthorhombic'
loop_
_space_group_symop_operation_xyz
x,y,z
1/2-x,-y,1/2+z
1/2+x,1/2-y,1/2-z
-x,1/2+y,-z
-x,-y,-z
1/2+x,y,1/2-z
1/2-x,1/2+y,1/2+z
x,1/2-y,z
loop_
_atom_site_type_symbol
_atom_site_label
_atom_site_fract_x
_atom_site_fract_y
_atom_site_fract_z
Si Si1 0.062186 0.414343 0.450521
Si Si2 0.169654 0.352138 0.717394
Si Si3 0.600515 0.355364 0.475984
Si Si4 0.728179 0.465125 0.264314
Si Si5 0.576394 0.647659 0.714377
O O1 0.095502 0.355903 0.585114
O O2 0.159271 0.450909 0.370189
O O3 0.000000 0.500000 0.500000
O O4 0.995445 0.350996 0.350540
O O5 0.217389 0.250000 0.723791
O O6 0.258206 0.426396 0.705362
O O7 0.103872 0.371301 0.856885
O O8 0.623746 0.250000 0.434420
O O9 0.684507 0.418164 0.403987
O O10 0.490125 0.381651 0.421134
O O11 0.836389 0.424699 0.230452
O O12 0.620622 0.750000 0.695302
#
# Coordination Sequence:
#
# PCOD8254301 Si02
#       5
#     8   8   8   8   8
#     4  11  23  44  65  95 130 170 214 266 325 384
#     4  11  23  41  63  93 130 165 210 273 327 378
#     4   9  21  41  63  92 128 165 212 266 321 383
#     4  11  22  41  67  91 128 171 220 258 317 398
#     4  10  21  40  67  92 122 170 216 262 322 385
#
# _framework density 21.555675999999998
#
# number of rings (size 3 to 8) (size 9 to 14) (size 15 to 20)
#    0.000    1.600    2.000    2.400    0.000    3.200 
#    3.600    1.000    0.000    0.000    0.000    0.000 
#    0.000    0.000    0.000    0.000    0.000    0.000 
#
# Total GULP energy -496133.796281 kJ/mol
# GULP energy per Si atom -12403.344907 kJ/mol
# Density = 2.150661 g / cm^3
# Si number density = 21.555676 Si / 1000 Ang^3
#
#
#
# Elastic Constant Matrix: (Units=GPa)
#
#
# Indices 1 2 3 4 5 6 
#
# 1 112.5593 49.0494 45.8084 0.0000 0.0000 0.0000
# 2 49.0494 116.0219 28.6615 0.0000 0.0000 0.0000
# 3 45.8084 28.6615 134.2485 0.0000 0.0000 0.0000
# 4 0.0000 0.0000 0.0000 29.6552 0.0000 0.0000
# 5 0.0000 0.0000 0.0000 0.0000 21.2199 0.0000
# 6 0.0000 0.0000 0.0000 0.0000 0.0000 9.0464
#
#
#
# Elastic Compliance Matrix: (Units=1/GPa)
#
#
# Indices 1 2 3 4 5 6 
#
# 1 0.012063 -0.004310 -0.003196 0.000000 0.000000 0.000000
# 2 -0.004310 0.010639 -0.000801 0.000000 0.000000 0.000000
# 3 -0.003196 -0.000801 0.008710 0.000000 0.000000 0.000000
# 4 0.000000 0.000000 0.000000 0.033721 0.000000 0.000000
# 5 0.000000 0.000000 0.000000 0.000000 0.047126 0.000000
# 6 0.000000 0.000000 0.000000 0.000000 0.000000 0.110542
#
#
# Mechanical properties :
#
#
# Convention : Reuss Voigt Hill
#
# Bulk Modulus (GPa) = 67.57327 67.76316 67.66821
# Shear Modulus (GPa) = 20.46268 27.93832 24.20050
#
# Velocity S-wave (km/s) = 3.08440 3.60405 3.35430
# Velocity P-wave (km/s) = 6.64086 6.98738 6.81632
#
# Compressibility (1/GPa) = 0.01479875
#
# Stress axis : x y z
#
# Youngs Moduli (GPa) = 82.89703 93.99322 114.80610
#
# Poissons Ratio (x) = 0.40514 0.36692
# Poissons Ratio (y) = 0.35731 0.09192
# Poissons Ratio (z) = 0.26494 0.07525
#
# Static dielectric constant tensor:
#      x y z
#    x 3.772740 0.000000 0.000000 
#    y 0.000000 4.038440 0.000000 
#    z 0.000000 0.000000 3.634590 
# 
# 
# High freq. dielectric constant tensor:
#      x y z
#    x 1.830280 0.000000 0.000000 
#    y 0.000000 1.857030 0.000000 
#    z 0.000000 0.000000 1.860050 
# 
# From -- ./inp_files/6095.got.cif
#   From: 2010.03.12/outbox.cif.g09.slc.cpg/sg62_4_cif.got.tgz:6095.got - 2010.04.10 19:12:36.
