data_PCOD8254292
_publ_section_title
;
Structure prediction by ZEFSAII (Michael W. Deem and Ramdas Pophale) SiO2 
 PCOD8254292
Probable space group: P N M A
;
_chemical_formula_sum "Si O2"
_cell_formula_units_Z 64
_cell_length_a 15.431797
_cell_length_b 18.664465
_cell_length_c 10.846626
_cell_angle_alpha 90.000000
_cell_angle_beta 90.000000
_cell_angle_gamma 90.000000
_cell_volume 3124.112849
_symmetry_space_group_name_H-M "P N M A"
_symmetry_group_IT_number 62
_symmetry_cell_setting 'orthorhombic'
loop_
_space_group_symop_operation_xyz
x,y,z
1/2-x,-y,1/2+z
1/2+x,1/2-y,1/2-z
-x,1/2+y,-z
-x,-y,-z
1/2+x,y,1/2-z
1/2-x,1/2+y,1/2+z
x,1/2-y,z
loop_
_atom_site_type_symbol
_atom_site_label
_atom_site_fract_x
_atom_site_fract_y
_atom_site_fract_z
Si Si1 0.462656 0.569417 0.784306
Si Si2 0.168139 0.169002 0.414816
Si Si3 0.250081 0.170081 0.160494
Si Si4 0.041273 0.334391 0.789575
Si Si5 0.706889 0.400931 0.837774
Si Si6 0.115991 0.926783 0.292223
Si Si7 0.938512 0.667363 0.927724
Si Si8 0.133740 0.546682 0.578145
O O1 0.410986 0.615779 0.886110
O O2 0.409206 0.502070 0.726904
O O3 0.492214 0.618892 0.669066
O O4 0.542613 0.534876 0.855645
O O5 0.131666 0.250000 0.423236
O O6 0.238856 0.163147 0.307215
O O7 0.214886 0.148676 0.541838
O O8 0.275893 0.250000 0.121665
O O9 0.162385 0.147311 0.089911
O O10 0.328983 0.121811 0.121183
O O11 0.047828 0.250000 0.760798
O O12 0.128012 0.373426 0.745414
O O13 0.957621 0.366343 0.721574
O O14 0.030586 0.349233 0.934856
O O15 0.795155 0.394476 0.760430
O O16 0.695845 0.482606 0.879963
O O17 0.125148 0.950801 0.432740
O O18 0.953827 0.750000 0.892166
#
# Coordination Sequence:
#
# PCOD8254292 Si02
#       8
#     8   8   8   8   8   8   8   8
#     4  11  21  42  65  93 128 164 217 270 319 375
#     4  10  21  40  66  94 125 167 216 266 321 379
#     4   9  20  39  63  93 125 164 216 271 318 380
#     4  11  25  45  65  96 133 170 214 263 322 394
#     4  12  24  41  66  94 130 176 208 264 327 383
#     4  12  26  43  65  95 133 170 216 264 324 388
#     4   9  20  41  65  91 128 167 211 266 320 377
#     4  12  24  40  64  93 131 165 219 268 319 380
#
# _framework density 20.485817000000001
#
# number of rings (size 3 to 8) (size 9 to 14) (size 15 to 20)
#    0.000    1.250    2.500    4.875    0.000    4.000 
#    0.000    2.500    0.000    0.000    0.000    0.000 
#    0.000    0.000    0.000    0.000    0.000    0.000 
#
# Total GULP energy -793778.791762 kJ/mol
# GULP energy per Si atom -12402.793621 kJ/mol
# Density = 2.043919 g / cm^3
# Si number density = 20.485817 Si / 1000 Ang^3
#
#
#
# Elastic Constant Matrix: (Units=GPa)
#
#
# Indices 1 2 3 4 5 6 
#
# 1 89.1398 33.0437 18.6565 0.0000 0.0000 0.0000
# 2 33.0437 98.1342 30.8425 0.0000 0.0000 0.0000
# 3 18.6565 30.8425 75.0935 0.0000 0.0000 0.0000
# 4 0.0000 0.0000 0.0000 34.5666 0.0000 0.0000
# 5 0.0000 0.0000 0.0000 0.0000 24.9162 0.0000
# 6 0.0000 0.0000 0.0000 0.0000 0.0000 31.1095
#
#
#
# Elastic Compliance Matrix: (Units=1/GPa)
#
#
# Indices 1 2 3 4 5 6 
#
# 1 0.012993 -0.003858 -0.001643 0.000000 0.000000 0.000000
# 2 -0.003858 0.012846 -0.004318 0.000000 0.000000 0.000000
# 3 -0.001643 -0.004318 0.015498 0.000000 0.000000 0.000000
# 4 0.000000 0.000000 0.000000 0.028930 0.000000 0.000000
# 5 0.000000 0.000000 0.000000 0.000000 0.040135 0.000000
# 6 0.000000 0.000000 0.000000 0.000000 0.000000 0.032145
#
#
# Mechanical properties :
#
#
# Convention : Reuss Voigt Hill
#
# Bulk Modulus (GPa) = 46.08575 47.49476 46.79026
# Shear Modulus (GPa) = 29.51291 30.10676 29.80984
#
# Velocity S-wave (km/s) = 3.79971 3.83775 3.81877
# Velocity P-wave (km/s) = 6.46495 6.54769 6.50645
#
# Compressibility (1/GPa) = 0.02169868
#
# Stress axis : x y z
#
# Youngs Moduli (GPa) = 76.96728 77.84327 64.52309
#
# Poissons Ratio (x) = 0.30035 0.10602
# Poissons Ratio (y) = 0.29697 0.27859
# Poissons Ratio (z) = 0.12647 0.33610
#
# Static dielectric constant tensor:
#      x y z
#    x 3.459310 0.000000 0.000000 
#    y 0.000000 3.931490 0.000000 
#    z 0.000000 0.000000 3.850720 
# 
# 
# High freq. dielectric constant tensor:
#      x y z
#    x 1.783130 0.000000 0.000000 
#    y 0.000000 1.820080 0.000000 
#    z 0.000000 0.000000 1.806550 
# 
# From -- ./inp_files/13580.got.cif
#   From: 2010.03.12/outbox.cif.g09.slc.cpg/sg62_7_cif.got.tgz:13580.got - 2010.04.10 19:12:36.
