data_PCOD8254654
_publ_section_title
;
Structure prediction by ZEFSAII (Michael W. Deem and Ramdas Pophale) SiO2 
 PCOD8254654
Probable space group: P N M A
;
_chemical_formula_sum "Si O2"
_cell_formula_units_Z 48
_cell_length_a 8.928920
_cell_length_b 12.188999
_cell_length_c 19.427461
_cell_angle_alpha 90.000000
_cell_angle_beta 90.000000
_cell_angle_gamma 90.000000
_cell_volume 2114.379888
_symmetry_space_group_name_H-M "P N M A"
_symmetry_group_IT_number 62
_symmetry_cell_setting 'orthorhombic'
loop_
_space_group_symop_operation_xyz
x,y,z
1/2-x,-y,1/2+z
1/2+x,1/2-y,1/2-z
-x,1/2+y,-z
-x,-y,-z
1/2+x,y,1/2-z
1/2-x,1/2+y,1/2+z
x,1/2-y,z
loop_
_atom_site_type_symbol
_atom_site_label
_atom_site_fract_x
_atom_site_fract_y
_atom_site_fract_z
Si Si1 0.245759 0.485420 0.502299
Si Si2 0.539799 0.373711 0.656546
Si Si3 0.641730 0.873654 0.214859
Si Si4 0.002386 0.417566 0.074570
Si Si5 0.434713 0.250000 0.164182
Si Si6 0.494587 0.488084 0.106491
Si Si7 0.417165 0.750000 0.686798
O O1 0.347988 0.589368 0.527953
O O2 0.355683 0.388539 0.472343
O O3 0.148166 0.454486 0.569569
O O4 0.136631 0.518765 0.440730
O O5 0.554221 0.250000 0.628260
O O6 0.392823 0.386052 0.704346
O O7 0.686900 0.406263 0.701060
O O8 0.521626 0.453795 0.592295
O O9 0.607985 0.750000 0.190007
O O10 0.523647 0.954320 0.178489
O O11 0.014472 0.352688 0.145573
O O12 0.473292 0.357144 0.118399
O O13 0.261512 0.250000 0.185743
O O14 0.531027 0.250000 0.234497
#
# Coordination Sequence:
#
# PCOD8254654 Si02
#       7
#     8   8   8   8   4   8   4
#     4  10  24  44  66  92 132 178 222 272 320 408
#     4  10  22  41  66  96 130 167 216 276 329 391
#     4  10  22  41  66  96 130 167 216 276 329 391
#     4  11  23  47  66 101 134 177 231 269 348 402
#     4  12  28  46  74 102 142 184 229 304 353 410
#     4  11  23  47  66 101 134 177 231 269 348 402
#     4  12  28  46  74 102 142 184 229 304 353 410
#
# _framework density 22.701691
#
# number of rings (size 3 to 8) (size 9 to 14) (size 15 to 20)
#    0.000    1.333    3.333    1.000    4.667    2.667 
#   18.000    0.000    0.000    0.000    0.000    0.000 
#    0.000    0.000    0.000    0.000    0.000    0.000 
#
# Total GULP energy -594736.517389 kJ/mol
# GULP energy per Si atom -12390.344112 kJ/mol
# Density = 2.265002 g / cm^3
# Si number density = 22.701691 Si / 1000 Ang^3
#
#
#
# Elastic Constant Matrix: (Units=GPa)
#
#
# Indices 1 2 3 4 5 6 
#
# 1 129.5358 30.1954 38.3082 0.0000 0.0000 0.0000
# 2 30.1954 95.4123 37.8504 0.0000 0.0000 0.0000
# 3 38.3082 37.8504 90.6410 0.0000 0.0000 0.0000
# 4 0.0000 0.0000 0.0000 9.9859 0.0000 0.0000
# 5 0.0000 0.0000 0.0000 0.0000 43.5370 0.0000
# 6 0.0000 0.0000 0.0000 0.0000 0.0000 17.6014
#
#
#
# Elastic Compliance Matrix: (Units=1/GPa)
#
#
# Indices 1 2 3 4 5 6 
#
# 1 0.009024 -0.001610 -0.003142 0.000000 0.000000 0.000000
# 2 -0.001610 0.012849 -0.004685 0.000000 0.000000 0.000000
# 3 -0.003142 -0.004685 0.014317 0.000000 0.000000 0.000000
# 4 0.000000 0.000000 0.000000 0.100141 0.000000 0.000000
# 5 0.000000 0.000000 0.000000 0.000000 0.022969 0.000000
# 6 0.000000 0.000000 0.000000 0.000000 0.000000 0.056814
#
#
# Mechanical properties :
#
#
# Convention : Reuss Voigt Hill
#
# Bulk Modulus (GPa) = 57.74774 58.69968 58.22371
# Shear Modulus (GPa) = 20.76763 28.17385 24.47074
#
# Velocity S-wave (km/s) = 3.02786 3.52667 3.28674
# Velocity P-wave (km/s) = 6.14140 6.51892 6.33297
#
# Compressibility (1/GPa) = 0.01731670
#
# Stress axis : x y z
#
# Youngs Moduli (GPa) = 110.81297 77.82785 69.84750
#
# Poissons Ratio (x) = 0.12527 0.21945
# Poissons Ratio (y) = 0.17836 0.32725
# Poissons Ratio (z) = 0.34816 0.36464
#
# Static dielectric constant tensor:
#      x y z
#    x 4.442360 0.000000 0.000000 
#    y 0.000000 3.830780 0.000000 
#    z 0.000000 0.000000 4.036750 
# 
# 
# High freq. dielectric constant tensor:
#      x y z
#    x 1.916840 0.000000 0.000000 
#    y 0.000000 1.859810 0.000000 
#    z 0.000000 0.000000 1.908470 
# 
# From -- ./inp_files/25883.got.cif
#   From: 2010.03.12/outbox.cif.g09.slc.cpg/sg62_13_cif.got.tgz:25883.got - 2010.04.10 19:12:36.
