data_PCOD8254028
_publ_section_title
;
Structure prediction by ZEFSAII (Michael W. Deem and Ramdas Pophale) SiO2 
 PCOD8254028
Probable space group: P N M A
;
_chemical_formula_sum "Si O2"
_cell_formula_units_Z 48
_cell_length_a 18.583160
_cell_length_b 8.662781
_cell_length_c 14.957488
_cell_angle_alpha 90.000000
_cell_angle_beta 90.000000
_cell_angle_gamma 90.000000
_cell_volume 2407.884020
_symmetry_space_group_name_H-M "P N M A"
_symmetry_group_IT_number 62
_symmetry_cell_setting 'orthorhombic'
loop_
_space_group_symop_operation_xyz
x,y,z
1/2-x,-y,1/2+z
1/2+x,1/2-y,1/2-z
-x,1/2+y,-z
-x,-y,-z
1/2+x,y,1/2-z
1/2-x,1/2+y,1/2+z
x,1/2-y,z
loop_
_atom_site_type_symbol
_atom_site_label
_atom_site_fract_x
_atom_site_fract_y
_atom_site_fract_z
Si Si1 0.217302 0.066369 0.503556
Si Si2 0.825086 0.429935 0.146979
Si Si3 0.562315 0.067140 0.061006
Si Si4 0.585069 0.567263 0.250204
Si Si5 0.987824 0.068777 0.096889
Si Si6 0.757446 0.432281 0.802679
O O1 0.218181 0.250000 0.505888
O O2 0.274683 0.003903 0.431819
O O3 0.138300 0.005562 0.477107
O O4 0.240362 0.998026 0.599557
O O5 0.810731 0.250000 0.160955
O O6 0.806675 0.516495 0.238322
O O7 0.906616 0.466770 0.124149
O O8 0.558047 0.250000 0.059021
O O9 0.551965 0.010894 0.162364
O O10 0.500000 0.000000 0.000000
O O11 0.582751 0.750000 0.238392
O O12 0.539137 0.519599 0.335424
O O13 0.666235 0.505619 0.266043
O O14 0.004834 0.250000 0.097686
O O15 0.000000 0.000000 0.000000
O O16 0.760055 0.250000 0.809324
#
# Coordination Sequence:
#
# PCOD8254028 Si02
#       6
#     8   8   8   8   8   8
#     4   9  19  38  62  85 117 157 195 244 307 361
#     4  10  21  40  62  88 121 157 198 251 307 364
#     4  11  23  40  62  88 123 165 209 256 311 369
#     4  11  23  41  64  91 128 167 206 253 308 371
#     4  11  24  41  64  93 126 164 206 255 310 369
#     4  10  21  38  62  90 118 157 203 251 305 364
#
# _framework density 19.934515000000001
#
# number of rings (size 3 to 8) (size 9 to 14) (size 15 to 20)
#    0.000    1.667    1.667    2.500    2.333    4.667 
#    0.000    1.667    0.000    0.000    0.000    0.000 
#    0.000    0.000    0.000    0.000    0.000    0.000 
#
# Total GULP energy -595417.471411 kJ/mol
# GULP energy per Si atom -12404.530654 kJ/mol
# Density = 1.988914 g / cm^3
# Si number density = 19.934515 Si / 1000 Ang^3
#
#
#
# Elastic Constant Matrix: (Units=GPa)
#
#
# Indices 1 2 3 4 5 6 
#
# 1 96.3858 28.0394 38.4370 0.0000 0.0000 0.0000
# 2 28.0394 40.4978 22.1309 0.0000 0.0000 0.0000
# 3 38.4370 22.1309 149.2851 0.0000 0.0000 0.0000
# 4 0.0000 0.0000 0.0000 35.1205 0.0000 0.0000
# 5 0.0000 0.0000 0.0000 0.0000 43.5124 0.0000
# 6 0.0000 0.0000 0.0000 0.0000 0.0000 27.8305
#
#
#
# Elastic Compliance Matrix: (Units=1/GPa)
#
#
# Indices 1 2 3 4 5 6 
#
# 1 0.013684 -0.008215 -0.002306 0.000000 0.000000 0.000000
# 2 -0.008215 0.031801 -0.002599 0.000000 0.000000 0.000000
# 3 -0.002306 -0.002599 0.007678 0.000000 0.000000 0.000000
# 4 0.000000 0.000000 0.000000 0.028473 0.000000 0.000000
# 5 0.000000 0.000000 0.000000 0.000000 0.022982 0.000000
# 6 0.000000 0.000000 0.000000 0.000000 0.000000 0.035932
#
#
# Mechanical properties :
#
#
# Convention : Reuss Voigt Hill
#
# Bulk Modulus (GPa) = 37.14221 51.48704 44.31462
# Shear Modulus (GPa) = 28.44748 34.46343 31.45545
#
# Velocity S-wave (km/s) = 3.78172 4.16243 3.97664
# Velocity P-wave (km/s) = 6.14338 6.99895 6.58508
#
# Compressibility (1/GPa) = 0.02692355
#
# Stress axis : x y z
#
# Youngs Moduli (GPa) = 73.07775 31.44596 130.25013
#
# Poissons Ratio (x) = 0.25831 0.30029
# Poissons Ratio (y) = 0.60030 0.33856
# Poissons Ratio (z) = 0.16848 0.08174
#
# Static dielectric constant tensor:
#      x y z
#    x 3.921750 0.000000 0.000000 
#    y 0.000000 3.427390 0.000000 
#    z 0.000000 0.000000 3.791530 
# 
# 
# High freq. dielectric constant tensor:
#      x y z
#    x 1.789870 0.000000 0.000000 
#    y 0.000000 1.761160 0.000000 
#    z 0.000000 0.000000 1.796930 
# 
# From -- ./inp_files/19569.got.cif
#   From: 2010.03.12/outbox.cif.g09.slc.cpg/sg62_10_cif.got.tgz:19569.got - 2010.04.10 19:12:36.
