data_PCOD8254774
_publ_section_title
;
Structure prediction by ZEFSAII (Michael W. Deem and Ramdas Pophale) SiO2 
 PCOD8254774
Probable space group: P N M A
;
_chemical_formula_sum "Si O2"
_cell_formula_units_Z 64
_cell_length_a 9.368235
_cell_length_b 11.846887
_cell_length_c 28.195088
_cell_angle_alpha 90.000000
_cell_angle_beta 90.000000
_cell_angle_gamma 90.000000
_cell_volume 3129.215529
_symmetry_space_group_name_H-M "P N M A"
_symmetry_group_IT_number 62
_symmetry_cell_setting 'orthorhombic'
loop_
_space_group_symop_operation_xyz
x,y,z
1/2-x,-y,1/2+z
1/2+x,1/2-y,1/2-z
-x,1/2+y,-z
-x,-y,-z
1/2+x,y,1/2-z
1/2-x,1/2+y,1/2+z
x,1/2-y,z
loop_
_atom_site_type_symbol
_atom_site_label
_atom_site_fract_x
_atom_site_fract_y
_atom_site_fract_z
Si Si1 0.046483 0.618169 0.026515
Si Si2 0.090448 0.876540 0.659150
Si Si3 0.625418 0.125918 0.967864
Si Si4 0.589606 0.120651 0.341624
Si Si5 0.630027 0.041003 0.609010
Si Si6 0.188650 0.124414 0.790636
Si Si7 0.421616 0.552875 0.928575
Si Si8 0.949794 0.504552 0.746557
O O1 0.032541 0.750000 0.003881
O O2 0.210121 0.592766 0.038482
O O3 0.951826 0.625299 0.073791
O O4 0.000000 0.500000 0.000000
O O5 0.100795 0.750000 0.679509
O O6 0.249403 0.918537 0.645402
O O7 0.985916 0.873604 0.613979
O O8 0.028681 0.955918 0.699538
O O9 0.598878 0.250000 0.948494
O O10 0.525822 0.053089 0.934010
O O11 0.577942 0.122116 0.022764
O O12 0.565157 0.250000 0.354168
O O13 0.560706 0.102896 0.285627
O O14 0.478909 0.054711 0.374064
O O15 0.689157 0.113178 0.652689
O O16 0.760231 0.982266 0.581977
O O17 0.237108 0.250000 0.777258
O O18 0.292066 0.033352 0.767199
O O19 0.032049 0.101412 0.769532
#
# Coordination Sequence:
#
# PCOD8254774 Si02
#       8
#     8   8   8   8   8   8   8   8
#     4  11  23  43  67  97 134 177 222 272 333 398
#     4  11  22  39  62  90 126 164 205 259 316 380
#     4  10  23  42  64  90 128 168 212 267 325 387
#     4  10  23  40  63  92 129 170 211 259 321 386
#     4  11  23  41  65  93 129 162 215 266 319 385
#     4  11  23  40  62  87 121 164 209 259 309 376
#     4  11  22  41  63  93 126 159 217 261 323 388
#     4  11  21  41  60  90 124 160 211 254 313 379
#
# _framework density 20.452411000000001
#
# number of rings (size 3 to 8) (size 9 to 14) (size 15 to 20)
#    0.000    1.250    3.750    2.250    0.000    2.500 
#    0.000    0.625    0.000    0.000    0.000    0.000 
#    0.000    0.000    0.000    0.000    0.000    0.000 
#
# Total GULP energy -793335.974752 kJ/mol
# GULP energy per Si atom -12395.874606 kJ/mol
# Density = 2.040586 g / cm^3
# Si number density = 20.452411 Si / 1000 Ang^3
#
#
#
# Elastic Constant Matrix: (Units=GPa)
#
#
# Indices 1 2 3 4 5 6 
#
# 1 115.5529 34.7872 14.2170 0.0000 0.0000 0.0000
# 2 34.7872 91.0294 13.7338 0.0000 0.0000 0.0000
# 3 14.2170 13.7338 63.4564 0.0000 0.0000 0.0000
# 4 0.0000 0.0000 0.0000 19.6634 0.0000 0.0000
# 5 0.0000 0.0000 0.0000 0.0000 41.0627 0.0000
# 6 0.0000 0.0000 0.0000 0.0000 0.0000 24.9849
#
#
#
# Elastic Compliance Matrix: (Units=1/GPa)
#
#
# Indices 1 2 3 4 5 6 
#
# 1 0.009906 -0.003567 -0.001447 0.000000 0.000000 0.000000
# 2 -0.003567 0.012641 -0.001937 0.000000 0.000000 0.000000
# 3 -0.001447 -0.001937 0.016502 0.000000 0.000000 0.000000
# 4 0.000000 0.000000 0.000000 0.050856 0.000000 0.000000
# 5 0.000000 0.000000 0.000000 0.000000 0.024353 0.000000
# 6 0.000000 0.000000 0.000000 0.000000 0.000000 0.040024
#
#
# Mechanical properties :
#
#
# Convention : Reuss Voigt Hill
#
# Bulk Modulus (GPa) = 39.76658 43.94607 41.85632
# Shear Modulus (GPa) = 28.31786 30.96224 29.64005
#
# Velocity S-wave (km/s) = 3.72502 3.89507 3.81099
# Velocity P-wave (km/s) = 6.16334 6.46238 6.31463
#
# Compressibility (1/GPa) = 0.02514675
#
# Stress axis : x y z
#
# Youngs Moduli (GPa) = 100.94856 79.10834 60.59772
#
# Poissons Ratio (x) = 0.28220 0.08770
# Poissons Ratio (y) = 0.36011 0.11736
# Poissons Ratio (z) = 0.14611 0.15320
#
# Static dielectric constant tensor:
#      x y z
#    x 3.873070 0.000000 0.000000 
#    y 0.000000 3.690500 0.000000 
#    z 0.000000 0.000000 3.654270 
# 
# 
# High freq. dielectric constant tensor:
#      x y z
#    x 1.816080 0.000000 0.000000 
#    y 0.000000 1.797070 0.000000 
#    z 0.000000 0.000000 1.796550 
# 
# From -- ./inp_files/32240.got.cif
#   From: 2010.03.12/outbox.cif.g09.slc.cpg/sg62_17_cif.got.tgz:32240.got - 2010.04.10 19:12:36.
