data_PCOD8254364
_publ_section_title
;
Structure prediction by ZEFSAII (Michael W. Deem and Ramdas Pophale) SiO2 
 PCOD8254364
Probable space group: P N M A
;
_chemical_formula_sum "Si O2"
_cell_formula_units_Z 64
_cell_length_a 11.298003
_cell_length_b 31.810661
_cell_length_c 8.636840
_cell_angle_alpha 90.000000
_cell_angle_beta 90.000000
_cell_angle_gamma 90.000000
_cell_volume 3104.053897
_symmetry_space_group_name_H-M "P N M A"
_symmetry_group_IT_number 62
_symmetry_cell_setting 'orthorhombic'
loop_
_space_group_symop_operation_xyz
x,y,z
1/2-x,-y,1/2+z
1/2+x,1/2-y,1/2-z
-x,1/2+y,-z
-x,-y,-z
1/2+x,y,1/2-z
1/2-x,1/2+y,1/2+z
x,1/2-y,z
loop_
_atom_site_type_symbol
_atom_site_label
_atom_site_fract_x
_atom_site_fract_y
_atom_site_fract_z
Si Si1 0.667943 0.342675 0.649282
Si Si2 0.634192 0.883603 0.975408
Si Si3 0.046287 0.600281 0.189546
Si Si4 0.376096 0.018392 0.542766
Si Si5 0.904072 0.863997 0.690930
Si Si6 0.481685 0.796431 0.562499
Si Si7 0.760736 0.945590 0.757158
Si Si8 0.295573 0.165157 0.536237
O O1 0.753723 0.352850 0.502467
O O2 0.591267 0.384817 0.691531
O O3 0.583141 0.304070 0.602310
O O4 0.736029 0.325088 0.799131
O O5 0.521814 0.859294 0.910041
O O6 0.662323 0.921181 0.856947
O O7 0.603833 0.898796 0.144097
O O8 0.070487 0.552758 0.154879
O O9 0.115405 0.626290 0.058463
O O10 0.296543 0.037090 0.402303
O O11 0.500000 0.000000 0.500000
O O12 0.300577 0.985117 0.640843
O O13 0.931452 0.834561 0.835834
O O14 0.870302 0.912744 0.729625
O O15 0.796617 0.844651 0.596532
O O16 0.451038 0.750000 0.628621
O O17 0.622885 0.797272 0.529926
#
# Coordination Sequence:
#
# PCOD8254364 Si02
#       8
#     8   8   8   8   8   8   8   8
#     4  10  21  43  71 100 130 170 226 277 339 408
#     4  11  22  39  68  94 125 178 221 271 335 407
#     4  10  21  41  67  95 129 171 227 277 334 395
#     4  12  26  41  64  96 136 178 228 288 333 398
#     4  12  23  44  70  98 134 181 225 273 352 409
#     4  11  26  44  70 103 137 175 223 283 340 414
#     4  12  25  43  63  98 139 181 227 286 343 403
#     4  10  22  43  71  98 130 178 222 274 338 409
#
# _framework density 20.618199000000001
#
# number of rings (size 3 to 8) (size 9 to 14) (size 15 to 20)
#    0.000    1.000    3.750    3.000    3.500    3.000 
#    0.000    2.500    0.000    0.000    0.000    0.000 
#    0.000    0.000    0.000    0.000    0.000    0.000 
#
# Total GULP energy -792949.973640 kJ/mol
# GULP energy per Si atom -12389.843338 kJ/mol
# Density = 2.057127 g / cm^3
# Si number density = 20.618199 Si / 1000 Ang^3
#
#
#
# Elastic Constant Matrix: (Units=GPa)
#
#
# Indices 1 2 3 4 5 6 
#
# 1 128.6638 36.8254 41.9354 0.0000 0.0000 0.0000
# 2 36.8254 89.6130 42.8851 0.0000 0.0000 0.0000
# 3 41.9354 42.8851 83.7534 0.0000 0.0000 0.0000
# 4 0.0000 0.0000 0.0000 20.5474 0.0000 0.0000
# 5 0.0000 0.0000 0.0000 0.0000 41.3005 0.0000
# 6 0.0000 0.0000 0.0000 0.0000 0.0000 25.2481
#
#
#
# Elastic Compliance Matrix: (Units=1/GPa)
#
#
# Indices 1 2 3 4 5 6 
#
# 1 0.009599 -0.002178 -0.003691 0.000000 0.000000 0.000000
# 2 -0.002178 0.015275 -0.006731 0.000000 0.000000 0.000000
# 3 -0.003691 -0.006731 0.017234 0.000000 0.000000 0.000000
# 4 0.000000 0.000000 0.000000 0.048668 0.000000 0.000000
# 5 0.000000 0.000000 0.000000 0.000000 0.024213 0.000000
# 6 0.000000 0.000000 0.000000 0.000000 0.000000 0.039607
#
#
# Mechanical properties :
#
#
# Convention : Reuss Voigt Hill
#
# Bulk Modulus (GPa) = 59.14193 60.59134 59.86663
# Shear Modulus (GPa) = 26.96412 29.44483 28.20448
#
# Velocity S-wave (km/s) = 3.62025 3.78312 3.70258
# Velocity P-wave (km/s) = 6.79864 6.96662 6.88314
#
# Compressibility (1/GPa) = 0.01690848
#
# Stress axis : x y z
#
# Youngs Moduli (GPa) = 104.18272 65.46485 58.02399
#
# Poissons Ratio (x) = 0.14260 0.21415
# Poissons Ratio (y) = 0.22693 0.39056
# Poissons Ratio (z) = 0.38450 0.44064
#
# Static dielectric constant tensor:
#      x y z
#    x 4.894240 0.000000 0.000000 
#    y 0.000000 3.793830 0.000000 
#    z 0.000000 0.000000 3.679770 
# 
# 
# High freq. dielectric constant tensor:
#      x y z
#    x 1.827900 0.000000 0.000000 
#    y 0.000000 1.783020 0.000000 
#    z 0.000000 0.000000 1.821170 
# 
# From -- ./inp_files/5525.got.cif
#   From: 2010.03.12/outbox.cif.g09.slc.cpg/sg62_3_cif.got.tgz:5525.got - 2010.04.10 19:12:36.
