data_PCOD8254942
_publ_section_title
;
Structure prediction by ZEFSAII (Michael W. Deem and Ramdas Pophale) SiO2 
 PCOD8254942
Probable space group: P N M A
;
_chemical_formula_sum "Si O2"
_cell_formula_units_Z 32
_cell_length_a 7.930938
_cell_length_b 14.253432
_cell_length_c 11.505296
_cell_angle_alpha 90.000000
_cell_angle_beta 90.000000
_cell_angle_gamma 90.000000
_cell_volume 1300.594159
_symmetry_space_group_name_H-M "P N M A"
_symmetry_group_IT_number 62
_symmetry_cell_setting 'orthorhombic'
loop_
_space_group_symop_operation_xyz
x,y,z
1/2-x,-y,1/2+z
1/2+x,1/2-y,1/2-z
-x,1/2+y,-z
-x,-y,-z
1/2+x,y,1/2-z
1/2-x,1/2+y,1/2+z
x,1/2-y,z
loop_
_atom_site_type_symbol
_atom_site_label
_atom_site_fract_x
_atom_site_fract_y
_atom_site_fract_z
Si Si1 0.196302 0.250000 0.139569
Si Si2 0.347746 0.583315 0.070710
Si Si3 0.471790 0.141160 0.720043
Si Si4 0.410944 0.750000 0.901406
Si Si5 0.853692 0.923871 0.009544
O O1 0.176837 0.250000 0.276908
O O2 0.390164 0.250000 0.106206
O O3 0.111788 0.342883 0.085400
O O4 0.509705 0.587717 0.155882
O O5 0.324361 0.477989 0.017580
O O6 0.191727 0.607357 0.153814
O O7 0.350658 0.657366 0.967143
O O8 0.464446 0.250000 0.750185
O O9 0.637473 0.120916 0.638427
O O10 0.000000 0.000000 0.000000
#
# Coordination Sequence:
#
# PCOD8254942 Si02
#       5
#     4   8   8   4   8
#     4  12  30  49  77 112 154 207 248 322 382 455
#     4  11  26  45  74 111 145 199 248 317 373 457
#     4  11  21  43  74 100 150 189 253 308 378 431
#     4  12  30  47  77 108 164 197 260 306 394 455
#     4  10  26  46  77 107 153 197 258 306 382 448
#
# _framework density 24.604137999999999
#
# number of rings (size 3 to 8) (size 9 to 14) (size 15 to 20)
#    0.000    1.000    3.750    0.000   14.000    3.000 
#    0.000    0.000    0.000    0.000    0.000    0.000 
#    0.000    0.000    0.000    0.000    0.000    0.000 
#
# Total GULP energy -396863.196954 kJ/mol
# GULP energy per Si atom -12401.974905 kJ/mol
# Density = 2.454814 g / cm^3
# Si number density = 24.604138 Si / 1000 Ang^3
#
#
#
# Elastic Constant Matrix: (Units=GPa)
#
#
# Indices 1 2 3 4 5 6 
#
# 1 38.7356 21.5707 2.3508 0.0000 0.0000 0.0000
# 2 21.5707 148.4722 70.3518 0.0000 0.0000 0.0000
# 3 2.3508 70.3518 169.9567 0.0000 0.0000 0.0000
# 4 0.0000 0.0000 0.0000 50.3391 0.0000 0.0000
# 5 0.0000 0.0000 0.0000 0.0000 46.6163 0.0000
# 6 0.0000 0.0000 0.0000 0.0000 0.0000 35.1545
#
#
#
# Elastic Compliance Matrix: (Units=1/GPa)
#
#
# Indices 1 2 3 4 5 6 
#
# 1 0.028451 -0.004910 0.001639 0.000000 0.000000 0.000000
# 2 -0.004910 0.009226 -0.003751 0.000000 0.000000 0.000000
# 3 0.001639 -0.003751 0.007414 0.000000 0.000000 0.000000
# 4 0.000000 0.000000 0.000000 0.019865 0.000000 0.000000
# 5 0.000000 0.000000 0.000000 0.000000 0.021452 0.000000
# 6 0.000000 0.000000 0.000000 0.000000 0.000000 0.028446
#
#
# Mechanical properties :
#
#
# Convention : Reuss Voigt Hill
#
# Bulk Modulus (GPa) = 32.20993 60.63459 46.42226
# Shear Modulus (GPa) = 35.90745 43.94805 39.92775
#
# Velocity S-wave (km/s) = 3.82436 4.23094 4.03278
# Velocity P-wave (km/s) = 5.71145 6.96888 6.37126
#
# Compressibility (1/GPa) = 0.03104632
#
# Stress axis : x y z
#
# Youngs Moduli (GPa) = 35.14837 108.38885 134.88154
#
# Poissons Ratio (x) = 0.53220 -0.22106
# Poissons Ratio (y) = 0.17258 0.50596
# Poissons Ratio (z) = -0.05761 0.40658
#
# Static dielectric constant tensor:
#      x y z
#    x 4.854580 0.000000 0.000000 
#    y 0.000000 5.211450 0.000000 
#    z 0.000000 0.000000 5.438720 
# 
# 
# High freq. dielectric constant tensor:
#      x y z
#    x 1.991380 0.000000 0.000000 
#    y 0.000000 1.984080 0.000000 
#    z 0.000000 0.000000 1.997580 
# 
# From -- ./inp_files/10997.got.cif
#   From: 2010.03.12/outbox.cif.g09.slc.cpg/sg62_6_cif.got.tgz:10997.got - 2010.04.10 19:12:36.
