data_PCOD8254537
_publ_section_title
;
Structure prediction by ZEFSAII (Michael W. Deem and Ramdas Pophale) SiO2 
 PCOD8254537
Probable space group: P N M A
;
_chemical_formula_sum "Si O2"
_cell_formula_units_Z 64
_cell_length_a 23.331440
_cell_length_b 15.134935
_cell_length_c 8.948877
_cell_angle_alpha 90.000000
_cell_angle_beta 90.000000
_cell_angle_gamma 90.000000
_cell_volume 3160.025906
_symmetry_space_group_name_H-M "P N M A"
_symmetry_group_IT_number 62
_symmetry_cell_setting 'orthorhombic'
loop_
_space_group_symop_operation_xyz
x,y,z
1/2-x,-y,1/2+z
1/2+x,1/2-y,1/2-z
-x,1/2+y,-z
-x,-y,-z
1/2+x,y,1/2-z
1/2-x,1/2+y,1/2+z
x,1/2-y,z
loop_
_atom_site_type_symbol
_atom_site_label
_atom_site_fract_x
_atom_site_fract_y
_atom_site_fract_z
Si Si1 0.141821 0.351330 0.918849
Si Si2 0.060561 0.992982 0.577013
Si Si3 0.361768 0.653831 0.081394
Si Si4 0.661194 0.596351 0.081772
Si Si5 0.850420 0.355939 0.923998
Si Si6 0.061509 0.513152 0.927751
Si Si7 0.748267 0.345854 0.386160
Si Si8 0.261690 0.576625 0.919761
O O1 0.121980 0.250000 0.950859
O O2 0.196034 0.380921 0.014445
O O3 0.162011 0.362888 0.748134
O O4 0.091876 0.419477 0.959416
O O5 0.099873 0.921730 0.492991
O O6 0.055814 0.968372 0.751193
O O7 0.087393 0.088069 0.545339
O O8 0.000000 0.000000 0.500000
O O9 0.389758 0.750000 0.066693
O O10 0.308805 0.648568 0.967735
O O11 0.648778 0.630238 0.246829
O O12 0.707417 0.517058 0.061748
O O13 0.693904 0.668942 0.983086
O O14 0.850263 0.250000 0.960902
O O15 0.905839 0.403504 0.997073
O O16 0.794881 0.407943 0.982606
O O17 0.000000 0.500000 0.000000
O O18 0.732852 0.250000 0.319215
O O19 0.757382 0.413783 0.251592
#
# Coordination Sequence:
#
# PCOD8254537 Si02
#       8
#     8   8   8   8   8   8   8   8
#     4   9  19  36  60  86 115 150 194 241 297 367
#     4  10  22  40  60  84 114 152 199 249 302 361
#     4   9  18  35  58  85 113 147 187 235 293 364
#     4  11  22  38  60  83 116 159 200 243 298 363
#     4  12  25  41  61  90 126 168 212 259 314 376
#     4  11  23  41  63  86 118 159 205 257 311 370
#     4  11  21  34  54  85 117 145 180 230 286 347
#     4  11  21  35  58  87 121 152 190 242 301 362
#
# _framework density 20.252998000000002
#
# number of rings (size 3 to 8) (size 9 to 14) (size 15 to 20)
#    0.000    1.500    0.000    6.000    0.000    4.500 
#    0.000    5.000    0.000    0.000    0.000    0.000 
#    0.000    0.000    0.000    0.000    0.000    0.000 
#
# Total GULP energy -793334.140173 kJ/mol
# GULP energy per Si atom -12395.845940 kJ/mol
# Density = 2.020690 g / cm^3
# Si number density = 20.252998 Si / 1000 Ang^3
#
#
#
# Elastic Constant Matrix: (Units=GPa)
#
#
# Indices 1 2 3 4 5 6 
#
# 1 138.3604 39.4236 61.0248 0.0000 0.0000 0.0000
# 2 39.4236 78.1500 24.8667 0.0000 0.0000 0.0000
# 3 61.0248 24.8667 121.8057 0.0000 0.0000 0.0000
# 4 0.0000 0.0000 0.0000 28.7262 0.0000 0.0000
# 5 0.0000 0.0000 0.0000 0.0000 42.3642 0.0000
# 6 0.0000 0.0000 0.0000 0.0000 0.0000 22.2325
#
#
#
# Elastic Compliance Matrix: (Units=1/GPa)
#
#
# Indices 1 2 3 4 5 6 
#
# 1 0.010221 -0.003772 -0.004351 0.000000 0.000000 0.000000
# 2 -0.003772 0.015077 -0.001188 0.000000 0.000000 0.000000
# 3 -0.004351 -0.001188 0.010632 0.000000 0.000000 0.000000
# 4 0.000000 0.000000 0.000000 0.034811 0.000000 0.000000
# 5 0.000000 0.000000 0.000000 0.000000 0.023605 0.000000
# 6 0.000000 0.000000 0.000000 0.000000 0.000000 0.044979
#
#
# Mechanical properties :
#
#
# Convention : Reuss Voigt Hill
#
# Bulk Modulus (GPa) = 57.77564 65.43849 61.60706
# Shear Modulus (GPa) = 30.54059 32.86465 31.70262
#
# Velocity S-wave (km/s) = 3.88745 4.03265 3.96072
# Velocity P-wave (km/s) = 6.98130 7.35280 7.16946
#
# Compressibility (1/GPa) = 0.01730833
#
# Stress axis : x y z
#
# Youngs Moduli (GPa) = 97.83626 66.32749 94.05448
#
# Poissons Ratio (x) = 0.25017 0.40921
# Poissons Ratio (y) = 0.36902 0.11176
# Poissons Ratio (z) = 0.42567 0.07881
#
# Static dielectric constant tensor:
#      x y z
#    x 3.584190 0.000000 0.000000 
#    y 0.000000 3.964230 0.000000 
#    z 0.000000 0.000000 3.796420 
# 
# 
# High freq. dielectric constant tensor:
#      x y z
#    x 1.781950 0.000000 0.000000 
#    y 0.000000 1.799350 0.000000 
#    z 0.000000 0.000000 1.803280 
# 
# From -- ./inp_files/9477.got.cif
#   From: 2010.03.12/outbox.cif.g09.slc.cpg/sg62_5_cif.got.tgz:9477.got - 2010.04.10 19:12:36.
