data_PCOD8254860
_publ_section_title
;
Structure prediction by ZEFSAII (Michael W. Deem and Ramdas Pophale) SiO2 
 PCOD8254860
Probable space group: P N M A
;
_chemical_formula_sum "Si O2"
_cell_formula_units_Z 36
_cell_length_a 10.358599
_cell_length_b 18.346751
_cell_length_c 8.326179
_cell_angle_alpha 90.000000
_cell_angle_beta 90.000000
_cell_angle_gamma 90.000000
_cell_volume 1582.362314
_symmetry_space_group_name_H-M "P N M A"
_symmetry_group_IT_number 62
_symmetry_cell_setting 'orthorhombic'
loop_
_space_group_symop_operation_xyz
x,y,z
1/2-x,-y,1/2+z
1/2+x,1/2-y,1/2-z
-x,1/2+y,-z
-x,-y,-z
1/2+x,y,1/2-z
1/2-x,1/2+y,1/2+z
x,1/2-y,z
loop_
_atom_site_type_symbol
_atom_site_label
_atom_site_fract_x
_atom_site_fract_y
_atom_site_fract_z
Si Si1 0.532820 0.750000 0.527438
Si Si2 0.027715 0.986067 0.813814
Si Si3 0.777640 0.902347 0.792850
Si Si4 0.791490 0.750000 0.360155
Si Si5 0.623986 0.250000 0.179000
Si Si6 0.863517 0.870436 0.132416
O O1 0.682755 0.750000 0.496027
O O2 0.508453 0.750000 0.718655
O O3 0.475203 0.677775 0.446892
O O4 0.142904 0.929686 0.779306
O O5 0.896199 0.955152 0.734031
O O6 0.073464 0.066240 0.755189
O O7 0.000000 0.000000 0.000000
O O8 0.794640 0.821410 0.726596
O O9 0.773712 0.901730 0.988728
O O10 0.912555 0.750000 0.486609
O O11 0.779258 0.821373 0.251818
#
# Coordination Sequence:
#
# PCOD8254860 Si02
#       6
#     4   8   8   4   4   8
#     4   9  21  43  68  94 137 185 223 305 337 427
#     4  10  23  43  72 103 145 188 241 295 363 424
#     4  10  23  44  71 101 144 194 232 306 354 433
#     4  11  23  41  74  96 139 187 230 302 358 423
#     4  10  24  40  68 102 132 182 243 275 369 420
#     4   9  22  44  65 105 137 179 242 288 363 427
#
# _framework density 22.750793999999999
#
# number of rings (size 3 to 8) (size 9 to 14) (size 15 to 20)
#    0.000    2.222    0.000    0.667   12.444    1.778 
#    8.000    5.556    0.000    0.000    0.000    0.000 
#    0.000    0.000    0.000    0.000    0.000    0.000 
#
# Total GULP energy -446080.567384 kJ/mol
# GULP energy per Si atom -12391.126872 kJ/mol
# Density = 2.269901 g / cm^3
# Si number density = 22.750794 Si / 1000 Ang^3
#
#
#
# Elastic Constant Matrix: (Units=GPa)
#
#
# Indices 1 2 3 4 5 6 
#
# 1 115.3826 34.4395 50.0532 0.0000 0.0000 0.0000
# 2 34.4395 133.4863 44.6850 0.0000 0.0000 0.0000
# 3 50.0532 44.6850 113.5878 0.0000 0.0000 0.0000
# 4 0.0000 0.0000 0.0000 22.8551 0.0000 0.0000
# 5 0.0000 0.0000 0.0000 0.0000 36.2886 0.0000
# 6 0.0000 0.0000 0.0000 0.0000 0.0000 6.2332
#
#
#
# Elastic Compliance Matrix: (Units=1/GPa)
#
#
# Indices 1 2 3 4 5 6 
#
# 1 0.010935 -0.001391 -0.004271 0.000000 0.000000 0.000000
# 2 -0.001391 0.008805 -0.002851 0.000000 0.000000 0.000000
# 3 -0.004271 -0.002851 0.011807 0.000000 0.000000 0.000000
# 4 0.000000 0.000000 0.000000 0.043754 0.000000 0.000000
# 5 0.000000 0.000000 0.000000 0.000000 0.027557 0.000000
# 6 0.000000 0.000000 0.000000 0.000000 0.000000 0.160431
#
#
# Mechanical properties :
#
#
# Convention : Reuss Voigt Hill
#
# Bulk Modulus (GPa) = 68.86798 68.97912 68.92355
# Shear Modulus (GPa) = 17.53428 28.62730 23.08079
#
# Velocity S-wave (km/s) = 2.77918 3.55110 3.18858
# Velocity P-wave (km/s) = 6.37454 6.87015 6.62698
#
# Compressibility (1/GPa) = 0.01452054
#
# Stress axis : x y z
#
# Youngs Moduli (GPa) = 91.44962 113.57657 84.69345
#
# Poissons Ratio (x) = 0.15803 0.36174
# Poissons Ratio (y) = 0.12725 0.24142
# Poissons Ratio (z) = 0.39060 0.32376
#
# Static dielectric constant tensor:
#      x y z
#    x 3.924490 0.000000 0.000000 
#    y 0.000000 5.011690 0.000000 
#    z 0.000000 0.000000 4.089030 
# 
# 
# High freq. dielectric constant tensor:
#      x y z
#    x 1.876840 0.000000 0.000000 
#    y 0.000000 1.925390 0.000000 
#    z 0.000000 0.000000 1.884900 
# 
# From -- ./inp_files/4234.got.cif
#   From: 2010.03.12/outbox.cif.g09.slc.cpg/sg62_3_cif.got.tgz:4234.got - 2010.04.10 19:12:36.
