data_PCOD8254036
_publ_section_title
;
Structure prediction by ZEFSAII (Michael W. Deem and Ramdas Pophale) SiO2 
 PCOD8254036
Probable space group: P N M A
;
_chemical_formula_sum "Si O2"
_cell_formula_units_Z 64
_cell_length_a 18.581462
_cell_length_b 8.609216
_cell_length_c 20.019962
_cell_angle_alpha 90.000000
_cell_angle_beta 90.000000
_cell_angle_gamma 90.000000
_cell_volume 3202.629757
_symmetry_space_group_name_H-M "P N M A"
_symmetry_group_IT_number 62
_symmetry_cell_setting 'orthorhombic'
loop_
_space_group_symop_operation_xyz
x,y,z
1/2-x,-y,1/2+z
1/2+x,1/2-y,1/2-z
-x,1/2+y,-z
-x,-y,-z
1/2+x,y,1/2-z
1/2-x,1/2+y,1/2+z
x,1/2-y,z
loop_
_atom_site_type_symbol
_atom_site_label
_atom_site_fract_x
_atom_site_fract_y
_atom_site_fract_z
Si Si1 0.454175 0.431735 0.684680
Si Si2 0.698455 0.929179 0.591114
Si Si3 0.038206 0.933332 0.699306
Si Si4 0.463070 0.069854 0.435676
Si Si5 0.214197 0.434712 0.532599
Si Si6 0.948898 0.932991 0.443860
Si Si7 0.198136 0.067466 0.153620
Si Si8 0.686672 0.934460 0.738212
O O1 0.458752 0.250000 0.697402
O O2 0.471574 0.519617 0.753682
O O3 0.512681 0.480204 0.630080
O O4 0.375910 0.475957 0.658341
O O5 0.713879 0.750000 0.603679
O O6 0.621817 0.954603 0.555776
O O7 0.759659 0.992267 0.540821
O O8 0.700345 0.008497 0.664588
O O9 0.040755 0.750000 0.690830
O O10 0.112355 0.999976 0.730849
O O11 0.024635 0.007179 0.627412
O O12 0.483687 0.250000 0.427926
O O13 0.500000 0.000000 0.500000
O O14 0.224268 0.250000 0.541399
O O15 0.132388 0.488867 0.541925
O O16 0.262879 0.523393 0.585577
O O17 0.953777 0.750000 0.445693
O O18 0.000000 0.000000 0.500000
O O19 0.182710 0.250000 0.155070
O O20 0.247548 0.014188 0.215396
O O21 0.678831 0.750000 0.734056
#
# Coordination Sequence:
#
# PCOD8254036 Si02
#       8
#     8   8   8   8   8   8   8   8
#     4  12  25  40  59  90 129 166 210 264 316 378
#     4   9  18  35  59  86 116 152 199 250 306 368
#     4  11  21  41  68  92 121 164 214 270 326 382
#     4  11  21  36  59  87 123 164 206 255 310 373
#     4  10  21  38  62  91 126 165 205 261 323 381
#     4  11  24  41  64  96 131 171 217 265 320 384
#     4  11  22  38  63  92 121 162 211 260 316 383
#     4   9  18  35  62  90 115 154 206 257 312 374
#
# _framework density 19.983578999999999
#
# number of rings (size 3 to 8) (size 9 to 14) (size 15 to 20)
#    0.000    1.500    2.500    3.375    0.000    2.500 
#    0.000    3.125    0.000    0.000    0.000    0.000 
#    0.000    0.000    0.000    0.000    0.000    0.000 
#
# Total GULP energy -793785.745919 kJ/mol
# GULP energy per Si atom -12402.902280 kJ/mol
# Density = 1.993810 g / cm^3
# Si number density = 19.983579 Si / 1000 Ang^3
#
#
#
# Elastic Constant Matrix: (Units=GPa)
#
#
# Indices 1 2 3 4 5 6 
#
# 1 87.9223 21.2963 45.4064 0.0000 0.0000 0.0000
# 2 21.2963 40.6288 16.5693 0.0000 0.0000 0.0000
# 3 45.4064 16.5693 157.5903 0.0000 0.0000 0.0000
# 4 0.0000 0.0000 0.0000 32.9582 0.0000 0.0000
# 5 0.0000 0.0000 0.0000 0.0000 39.8701 0.0000
# 6 0.0000 0.0000 0.0000 0.0000 0.0000 23.4441
#
#
#
# Elastic Compliance Matrix: (Units=1/GPa)
#
#
# Indices 1 2 3 4 5 6 
#
# 1 0.014745 -0.006265 -0.003590 0.000000 0.000000 0.000000
# 2 -0.006265 0.028378 -0.001179 0.000000 0.000000 0.000000
# 3 -0.003590 -0.001179 0.007504 0.000000 0.000000 0.000000
# 4 0.000000 0.000000 0.000000 0.030341 0.000000 0.000000
# 5 0.000000 0.000000 0.000000 0.000000 0.025081 0.000000
# 6 0.000000 0.000000 0.000000 0.000000 0.000000 0.042655
#
#
# Mechanical properties :
#
#
# Convention : Reuss Voigt Hill
#
# Bulk Modulus (GPa) = 35.01405 50.29838 42.65621
# Shear Modulus (GPa) = 27.73303 32.77911 30.25607
#
# Velocity S-wave (km/s) = 3.72935 4.05446 3.89530
# Velocity P-wave (km/s) = 6.00862 6.86605 6.45160
#
# Compressibility (1/GPa) = 0.02855997
#
# Stress axis : x y z
#
# Youngs Moduli (GPa) = 67.81934 35.23908 133.26573
#
# Poissons Ratio (x) = 0.22077 0.47840
# Poissons Ratio (y) = 0.42488 0.15706
# Poissons Ratio (z) = 0.24346 0.04153
#
# Static dielectric constant tensor:
#      x y z
#    x 3.701370 0.000000 0.000000 
#    y 0.000000 3.490840 0.000000 
#    z 0.000000 0.000000 4.061610 
# 
# 
# High freq. dielectric constant tensor:
#      x y z
#    x 1.782950 0.000000 0.000000 
#    y 0.000000 1.760740 0.000000 
#    z 0.000000 0.000000 1.797020 
# 
# From -- ./inp_files/27726.got.cif
#   From: 2010.03.12/outbox.cif.g09.slc.cpg/sg62_14_cif.got.tgz:27726.got - 2010.04.10 19:12:36.
