data_PCOD8254437
_publ_section_title
;
Structure prediction by ZEFSAII (Michael W. Deem and Ramdas Pophale) SiO2 
 PCOD8254437
Probable space group: P N M A
;
_chemical_formula_sum "Si O2"
_cell_formula_units_Z 40
_cell_length_a 5.495570
_cell_length_b 12.602222
_cell_length_c 25.930242
_cell_angle_alpha 90.000000
_cell_angle_beta 90.000000
_cell_angle_gamma 90.000000
_cell_volume 1795.835035
_symmetry_space_group_name_H-M "P N M A"
_symmetry_group_IT_number 62
_symmetry_cell_setting 'orthorhombic'
loop_
_space_group_symop_operation_xyz
x,y,z
1/2-x,-y,1/2+z
1/2+x,1/2-y,1/2-z
-x,1/2+y,-z
-x,-y,-z
1/2+x,y,1/2-z
1/2-x,1/2+y,1/2+z
x,1/2-y,z
loop_
_atom_site_type_symbol
_atom_site_label
_atom_site_fract_x
_atom_site_fract_y
_atom_site_fract_z
Si Si1 0.241229 0.624183 0.721704
Si Si2 0.578478 0.129477 0.947051
Si Si3 0.054329 0.124400 0.778181
Si Si4 0.191343 0.539804 0.959882
Si Si5 0.094244 0.001420 0.129928
O O1 0.501713 0.585890 0.746651
O O2 0.236626 0.750000 0.717416
O O3 0.227769 0.575258 0.664149
O O4 0.530257 0.250000 0.931074
O O5 0.335502 0.063365 0.941031
O O6 0.769965 0.080187 0.907452
O O7 0.652228 0.126141 0.008434
O O8 0.287903 0.087909 0.744250
O O9 0.061888 0.250000 0.784623
O O10 0.079520 0.069780 0.833749
O O11 0.064719 0.580957 0.906958
O O12 0.000000 0.500000 0.000000
#
# Coordination Sequence:
#
# PCOD8254437 Si02
#       5
#     8   8   8   8   8
#     4  10  23  42  65  95 133 176 219 267 320 377
#     4  10  22  41  64  92 125 162 208 265 328 393
#     4  10  22  37  55  89 131 170 209 254 313 380
#     4   9  22  41  60  90 124 163 208 261 329 385
#     4  11  22  37  65  93 121 166 213 264 320 380
#
# _framework density 22.273762999999999
#
# number of rings (size 3 to 8) (size 9 to 14) (size 15 to 20)
#    0.000    2.000    0.000    1.800    5.600    4.800 
#    0.000    8.000    0.000    0.000    0.000    0.000 
#    0.000    0.000    0.000    0.000    0.000    0.000 
#
# Total GULP energy -495658.357666 kJ/mol
# GULP energy per Si atom -12391.458942 kJ/mol
# Density = 2.222307 g / cm^3
# Si number density = 22.273763 Si / 1000 Ang^3
#
#
#
# Elastic Constant Matrix: (Units=GPa)
#
#
# Indices 1 2 3 4 5 6 
#
# 1 74.3440 34.6117 32.9968 0.0000 0.0000 0.0000
# 2 34.6117 49.2698 37.0546 0.0000 0.0000 0.0000
# 3 32.9968 37.0546 142.3182 0.0000 0.0000 0.0000
# 4 0.0000 0.0000 0.0000 27.1197 0.0000 0.0000
# 5 0.0000 0.0000 0.0000 0.0000 27.4089 0.0000
# 6 0.0000 0.0000 0.0000 0.0000 0.0000 31.6093
#
#
#
# Elastic Compliance Matrix: (Units=1/GPa)
#
#
# Indices 1 2 3 4 5 6 
#
# 1 0.020159 -0.013239 -0.001227 0.000000 0.000000 0.000000
# 2 -0.013239 0.033933 -0.005765 0.000000 0.000000 0.000000
# 3 -0.001227 -0.005765 0.008812 0.000000 0.000000 0.000000
# 4 0.000000 0.000000 0.000000 0.036874 0.000000 0.000000
# 5 0.000000 0.000000 0.000000 0.000000 0.036484 0.000000
# 6 0.000000 0.000000 0.000000 0.000000 0.000000 0.031636
#
#
# Mechanical properties :
#
#
# Convention : Reuss Voigt Hill
#
# Bulk Modulus (GPa) = 44.56066 52.80648 48.68357
# Shear Modulus (GPa) = 23.16523 27.97886 25.57205
#
# Velocity S-wave (km/s) = 3.22844 3.54805 3.39201
# Velocity P-wave (km/s) = 5.82635 6.36744 6.10289
#
# Compressibility (1/GPa) = 0.02244132
#
# Stress axis : x y z
#
# Youngs Moduli (GPa) = 49.60553 29.47022 113.48038
#
# Poissons Ratio (x) = 0.39015 0.13924
# Poissons Ratio (y) = 0.65672 0.65426
# Poissons Ratio (z) = 0.06087 0.16991
#
# Static dielectric constant tensor:
#      x y z
#    x 4.250980 0.000000 0.000000 
#    y 0.000000 3.967530 0.000000 
#    z 0.000000 0.000000 4.480930 
# 
# 
# High freq. dielectric constant tensor:
#      x y z
#    x 1.882940 0.000000 0.000000 
#    y 0.000000 1.874170 0.000000 
#    z 0.000000 0.000000 1.886870 
# 
# From -- ./inp_files/28250.got.cif
#   From: 2010.03.12/outbox.cif.g09.slc.cpg/sg62_15_cif.got.tgz:28250.got - 2010.04.10 19:12:36.
