data_PCOD8254769
_publ_section_title
;
Structure prediction by ZEFSAII (Michael W. Deem and Ramdas Pophale) SiO2 
 PCOD8254769
Probable space group: P N M A
;
_chemical_formula_sum "Si O2"
_cell_formula_units_Z 48
_cell_length_a 30.742224
_cell_length_b 8.625272
_cell_length_c 8.905040
_cell_angle_alpha 90.000000
_cell_angle_beta 90.000000
_cell_angle_gamma 90.000000
_cell_volume 2361.260797
_symmetry_space_group_name_H-M "P N M A"
_symmetry_group_IT_number 62
_symmetry_cell_setting 'orthorhombic'
loop_
_space_group_symop_operation_xyz
x,y,z
1/2-x,-y,1/2+z
1/2+x,1/2-y,1/2-z
-x,1/2+y,-z
-x,-y,-z
1/2+x,y,1/2-z
1/2-x,1/2+y,1/2+z
x,1/2-y,z
loop_
_atom_site_type_symbol
_atom_site_label
_atom_site_fract_x
_atom_site_fract_y
_atom_site_fract_z
Si Si1 0.373391 0.931051 0.399967
Si Si2 0.041910 0.066606 0.080202
Si Si3 0.041449 0.068140 0.418529
Si Si4 0.294186 0.071214 0.566110
Si Si5 0.287681 0.429551 0.914941
Si Si6 0.623426 0.930001 0.922996
O O1 0.376260 0.750000 0.359712
O O2 0.415408 0.988707 0.491610
O O3 0.331038 0.960929 0.499393
O O4 0.369927 0.031095 0.250348
O O5 0.038679 0.250000 0.081174
O O6 0.044643 0.000713 0.249635
O O7 0.000000 0.000000 0.000000
O O8 0.035597 0.250000 0.412958
O O9 0.084351 0.028807 0.510474
O O10 0.000000 0.000000 0.500000
O O11 0.306929 0.250000 0.540066
O O12 0.289834 0.031839 0.740273
O O13 0.248615 0.037723 0.487094
O O14 0.276342 0.250000 0.944967
O O15 0.333292 0.475969 0.988333
O O16 0.612255 0.750000 0.941818
#
# Coordination Sequence:
#
# PCOD8254769 Si02
#       6
#     8   8   8   8   8   8
#     4  11  23  40  61  87 119 155 195 240 292 349
#     4  10  23  40  60  86 117 154 195 240 291 348
#     4  11  23  40  61  88 120 156 198 244 296 351
#     4  11  23  39  61  88 117 153 196 241 290 345
#     4  10  23  41  60  86 120 156 195 241 293 348
#     4  11  23  40  62  89 120 156 198 244 295 351
#
# _framework density 20.328123999999999
#
# number of rings (size 3 to 8) (size 9 to 14) (size 15 to 20)
#    0.000    1.333    0.000    5.000    0.000   10.667 
#    0.000    0.000    0.000    0.000    0.000    0.000 
#    0.000    0.000    0.000    0.000    0.000    0.000 
#
# Total GULP energy -595556.608039 kJ/mol
# GULP energy per Si atom -12407.429334 kJ/mol
# Density = 2.028186 g / cm^3
# Si number density = 20.328124 Si / 1000 Ang^3
#
#
#
# Elastic Constant Matrix: (Units=GPa)
#
#
# Indices 1 2 3 4 5 6 
#
# 1 143.2031 25.3868 64.7416 0.0000 0.0000 0.0000
# 2 25.3868 36.0497 25.1398 0.0000 0.0000 0.0000
# 3 64.7416 25.1398 145.9310 0.0000 0.0000 0.0000
# 4 0.0000 0.0000 0.0000 24.9193 0.0000 0.0000
# 5 0.0000 0.0000 0.0000 0.0000 39.1663 0.0000
# 6 0.0000 0.0000 0.0000 0.0000 0.0000 38.3849
#
#
#
# Elastic Compliance Matrix: (Units=1/GPa)
#
#
# Indices 1 2 3 4 5 6 
#
# 1 0.009251 -0.004151 -0.003389 0.000000 0.000000 0.000000
# 2 -0.004151 0.033390 -0.003910 0.000000 0.000000 0.000000
# 3 -0.003389 -0.003910 0.009030 0.000000 0.000000 0.000000
# 4 0.000000 0.000000 0.000000 0.040129 0.000000 0.000000
# 5 0.000000 0.000000 0.000000 0.000000 0.025532 0.000000
# 6 0.000000 0.000000 0.000000 0.000000 0.000000 0.026052
#
#
# Mechanical properties :
#
#
# Convention : Reuss Voigt Hill
#
# Bulk Modulus (GPa) = 34.75948 61.74667 48.25308
# Shear Modulus (GPa) = 28.42911 34.48848 31.45879
#
# Velocity S-wave (km/s) = 3.74372 4.12344 3.93816
# Velocity P-wave (km/s) = 5.98528 7.28775 6.66839
#
# Compressibility (1/GPa) = 0.02876913
#
# Stress axis : x y z
#
# Youngs Moduli (GPa) = 108.09353 29.94912 110.74497
#
# Poissons Ratio (x) = 0.12433 0.37533
# Poissons Ratio (y) = 0.44874 0.43305
# Poissons Ratio (z) = 0.36634 0.11711
#
# Static dielectric constant tensor:
#      x y z
#    x 3.770800 0.000000 0.000000 
#    y 0.000000 4.248040 0.000000 
#    z 0.000000 0.000000 4.240620 
# 
# 
# High freq. dielectric constant tensor:
#      x y z
#    x 1.810470 0.000000 0.000000 
#    y 0.000000 1.794450 0.000000 
#    z 0.000000 0.000000 1.814850 
# 
# From -- ./inp_files/10222.got.cif
#   From: 2010.03.12/outbox.cif.g09.slc.cpg/sg62_6_cif.got.tgz:10222.got - 2010.04.10 19:12:36.
