data_PCOD8254586
_publ_section_title
;
Structure prediction by ZEFSAII (Michael W. Deem and Ramdas Pophale) SiO2 
 PCOD8254586
Probable space group: P N M A
;
_chemical_formula_sum "Si O2"
_cell_formula_units_Z 48
_cell_length_a 18.084006
_cell_length_b 15.797034
_cell_length_c 8.040747
_cell_angle_alpha 90.000000
_cell_angle_beta 90.000000
_cell_angle_gamma 90.000000
_cell_volume 2297.029606
_symmetry_space_group_name_H-M "P N M A"
_symmetry_group_IT_number 62
_symmetry_cell_setting 'orthorhombic'
loop_
_space_group_symop_operation_xyz
x,y,z
1/2-x,-y,1/2+z
1/2+x,1/2-y,1/2-z
-x,1/2+y,-z
-x,-y,-z
1/2+x,y,1/2-z
1/2-x,1/2+y,1/2+z
x,1/2-y,z
loop_
_atom_site_type_symbol
_atom_site_label
_atom_site_fract_x
_atom_site_fract_y
_atom_site_fract_z
Si Si1 0.579883 0.510803 0.575914
Si Si2 0.913635 0.845126 0.586759
Si Si3 0.282158 0.103396 0.955932
Si Si4 0.144798 0.155742 0.768789
Si Si5 0.921735 0.345431 0.355528
Si Si6 0.326003 0.967590 0.706154
O O1 0.500000 0.500000 0.500000
O O2 0.599823 0.417102 0.639749
O O3 0.587925 0.584390 0.712066
O O4 0.638224 0.531875 0.428862
O O5 0.901034 0.750000 0.647500
O O6 0.862808 0.864379 0.426680
O O7 0.889863 0.902837 0.740003
O O8 0.000556 0.861893 0.550028
O O9 0.230391 0.156916 0.829814
O O10 0.297988 0.014866 0.868102
O O11 0.358577 0.149341 0.002893
O O12 0.241770 0.084989 0.130006
O O13 0.111677 0.250000 0.803931
O O14 0.919867 0.250000 0.279087
#
# Coordination Sequence:
#
# PCOD8254586 Si02
#       6
#     8   8   8   8   8   8
#     4  11  23  39  64  95 124 168 213 261 316 372
#     4  10  22  40  65  93 126 169 215 262 316 379
#     4  11  23  40  64  93 127 169 209 263 320 376
#     4  10  23  42  64  92 126 169 213 255 315 386
#     4  11  24  42  63  95 130 166 215 269 319 373
#     4  11  22  40  63  92 128 165 217 261 313 391
#
# _framework density 20.896554999999999
#
# number of rings (size 3 to 8) (size 9 to 14) (size 15 to 20)
#    0.000    1.333    1.667    4.500    2.333    5.333 
#    0.000    3.333    0.000    0.000    0.000    0.000 
#    0.000    0.000    0.000    0.000    0.000    0.000 
#
# Total GULP energy -595030.427052 kJ/mol
# GULP energy per Si atom -12396.467230 kJ/mol
# Density = 2.084899 g / cm^3
# Si number density = 20.896555 Si / 1000 Ang^3
#
#
#
# Elastic Constant Matrix: (Units=GPa)
#
#
# Indices 1 2 3 4 5 6 
#
# 1 114.3827 50.0293 57.6188 0.0000 0.0000 0.0000
# 2 50.0293 114.4225 56.7408 0.0000 0.0000 0.0000
# 3 57.6188 56.7408 100.1431 0.0000 0.0000 0.0000
# 4 0.0000 0.0000 0.0000 24.3586 0.0000 0.0000
# 5 0.0000 0.0000 0.0000 0.0000 40.9229 0.0000
# 6 0.0000 0.0000 0.0000 0.0000 0.0000 23.7557
#
#
#
# Elastic Compliance Matrix: (Units=1/GPa)
#
#
# Indices 1 2 3 4 5 6 
#
# 1 0.012894 -0.002724 -0.005875 0.000000 0.000000 0.000000
# 2 -0.002724 0.012730 -0.005645 0.000000 0.000000 0.000000
# 3 -0.005875 -0.005645 0.016565 0.000000 0.000000 0.000000
# 4 0.000000 0.000000 0.000000 0.041053 0.000000 0.000000
# 5 0.000000 0.000000 0.000000 0.000000 0.024436 0.000000
# 6 0.000000 0.000000 0.000000 0.000000 0.000000 0.042095
#
#
# Mechanical properties :
#
#
# Convention : Reuss Voigt Hill
#
# Bulk Modulus (GPa) = 72.99736 73.08068 73.03902
# Shear Modulus (GPa) = 27.34801 28.77806 28.06303
#
# Velocity S-wave (km/s) = 3.62157 3.71505 3.66860
# Velocity P-wave (km/s) = 7.24543 7.31099 7.27828
#
# Compressibility (1/GPa) = 0.01369913
#
# Stress axis : x y z
#
# Youngs Moduli (GPa) = 77.55831 78.55361 60.36939
#
# Poissons Ratio (x) = 0.21399 0.35467
# Poissons Ratio (y) = 0.21128 0.34082
# Poissons Ratio (z) = 0.45565 0.44347
#
# Static dielectric constant tensor:
#      x y z
#    x 4.009620 0.000000 0.000000 
#    y 0.000000 3.796930 0.000000 
#    z 0.000000 0.000000 3.793460 
# 
# 
# High freq. dielectric constant tensor:
#      x y z
#    x 1.829610 0.000000 0.000000 
#    y 0.000000 1.818040 0.000000 
#    z 0.000000 0.000000 1.815930 
# 
# From -- ./inp_files/7614.got.cif
#   From: 2010.03.12/outbox.cif.g09.slc.cpg/sg62_4_cif.got.tgz:7614.got - 2010.04.10 19:12:36.
