data_PCOD8254406
_publ_section_title
;
Structure prediction by ZEFSAII (Michael W. Deem and Ramdas Pophale) SiO2 
 PCOD8254406
Probable space group: P N M A
;
_chemical_formula_sum "Si O2"
_cell_formula_units_Z 44
_cell_length_a 14.502329
_cell_length_b 14.818026
_cell_length_c 8.055702
_cell_angle_alpha 90.000000
_cell_angle_beta 90.000000
_cell_angle_gamma 90.000000
_cell_volume 1731.137236
_symmetry_space_group_name_H-M "P N M A"
_symmetry_group_IT_number 62
_symmetry_cell_setting 'orthorhombic'
loop_
_space_group_symop_operation_xyz
x,y,z
1/2-x,-y,1/2+z
1/2+x,1/2-y,1/2-z
-x,1/2+y,-z
-x,-y,-z
1/2+x,y,1/2-z
1/2-x,1/2+y,1/2+z
x,1/2-y,z
loop_
_atom_site_type_symbol
_atom_site_label
_atom_site_fract_x
_atom_site_fract_y
_atom_site_fract_z
Si Si1 0.248667 0.750000 0.809208
Si Si2 0.616456 0.250000 0.876672
Si Si3 0.825963 0.072499 0.071633
Si Si4 0.826513 0.049642 0.716865
Si Si5 0.019276 0.893757 0.493826
Si Si6 0.878441 0.750000 0.004150
Si Si7 0.523679 0.091127 0.345898
O O1 0.186821 0.660162 0.813973
O O2 0.298949 0.750000 0.632950
O O3 0.316136 0.750000 0.967076
O O4 0.553843 0.160030 0.883026
O O5 0.663089 0.250000 0.692194
O O6 0.933534 0.039290 0.077926
O O7 0.763667 0.989021 0.128327
O O8 0.796381 0.101822 0.884299
O O9 0.879231 0.116323 0.589686
O O10 0.892266 0.970120 0.784763
O O11 0.015075 0.856540 0.681528
O O12 0.000000 0.000000 0.500000
O O13 0.942368 0.837642 0.981302
#
# Coordination Sequence:
#
# PCOD8254406 Si02
#       7
#     4   4   8   8   8   4   8
#     4  12  25  50  64 107 149 186 238 317 366 440
#     4  12  24  43  78 104 142 202 246 303 382 457
#     4  12  25  43  70 103 148 188 245 309 370 446
#     4  11  24  42  67 105 144 191 252 301 375 448
#     4  10  21  43  71 105 144 190 249 308 374 442
#     4  12  23  45  76 107 141 194 246 302 380 451
#     4  11  22  44  72  98 148 193 240 312 377 439
#
# _framework density 25.416819
#
# number of rings (size 3 to 8) (size 9 to 14) (size 15 to 20)
#    0.000    0.727    3.636    4.364    0.000    5.091 
#    3.273    0.000    0.000    0.000    0.000    0.000 
#    0.000    0.000    0.000    0.000    0.000    0.000 
#
# Total GULP energy -545477.214611 kJ/mol
# GULP energy per Si atom -12397.209423 kJ/mol
# Density = 2.535897 g / cm^3
# Si number density = 25.416819 Si / 1000 Ang^3
#
#
#
# Elastic Constant Matrix: (Units=GPa)
#
#
# Indices 1 2 3 4 5 6 
#
# 1 105.7837 6.3831 0.2415 0.0000 0.0000 0.0000
# 2 6.3831 56.1980 -12.9875 0.0000 0.0000 0.0000
# 3 0.2415 -12.9875 131.2177 0.0000 0.0000 0.0000
# 4 0.0000 0.0000 0.0000 25.4745 0.0000 0.0000
# 5 0.0000 0.0000 0.0000 0.0000 47.0020 0.0000
# 6 0.0000 0.0000 0.0000 0.0000 0.0000 29.0536
#
#
#
# Elastic Compliance Matrix: (Units=1/GPa)
#
#
# Indices 1 2 3 4 5 6 
#
# 1 0.009521 -0.001111 -0.000127 0.000000 0.000000 0.000000
# 2 -0.001111 0.018340 0.001817 0.000000 0.000000 0.000000
# 3 -0.000127 0.001817 0.007801 0.000000 0.000000 0.000000
# 4 0.000000 0.000000 0.000000 0.039255 0.000000 0.000000
# 5 0.000000 0.000000 0.000000 0.000000 0.021276 0.000000
# 6 0.000000 0.000000 0.000000 0.000000 0.000000 0.034419
#
#
# Mechanical properties :
#
#
# Convention : Reuss Voigt Hill
#
# Bulk Modulus (GPa) = 27.15912 31.16373 29.16143
# Shear Modulus (GPa) = 35.27907 40.27683 37.77795
#
# Velocity S-wave (km/s) = 3.72966 3.98509 3.85949
# Velocity P-wave (km/s) = 5.40886 5.78466 5.59991
#
# Compressibility (1/GPa) = 0.03682004
#
# Stress axis : x y z
#
# Youngs Moduli (GPa) = 105.03568 54.52448 128.18826
#
# Poissons Ratio (x) = 0.06057 0.01634
# Poissons Ratio (y) = 0.11668 -0.23296
# Poissons Ratio (z) = 0.01339 -0.09909
#
# Static dielectric constant tensor:
#      x y z
#    x 4.636440 0.000000 0.000000 
#    y 0.000000 4.445570 0.000000 
#    z 0.000000 0.000000 5.450300 
# 
# 
# High freq. dielectric constant tensor:
#      x y z
#    x 2.016230 0.000000 0.000000 
#    y 0.000000 1.993950 0.000000 
#    z 0.000000 0.000000 2.039450 
# 
# From -- ./inp_files/6404.got.cif
#   From: 2010.03.12/outbox.cif.g09.slc.cpg/sg62_4_cif.got.tgz:6404.got - 2010.04.10 19:12:36.
