data_PCOD8254370
_publ_section_title
;
Structure prediction by ZEFSAII (Michael W. Deem and Ramdas Pophale) SiO2 
 PCOD8254370
Probable space group: P N M A
;
_chemical_formula_sum "Si O2"
_cell_formula_units_Z 48
_cell_length_a 10.007854
_cell_length_b 13.668265
_cell_length_c 17.468836
_cell_angle_alpha 90.000000
_cell_angle_beta 90.000000
_cell_angle_gamma 90.000000
_cell_volume 2389.562086
_symmetry_space_group_name_H-M "P N M A"
_symmetry_group_IT_number 62
_symmetry_cell_setting 'orthorhombic'
loop_
_space_group_symop_operation_xyz
x,y,z
1/2-x,-y,1/2+z
1/2+x,1/2-y,1/2-z
-x,1/2+y,-z
-x,-y,-z
1/2+x,y,1/2-z
1/2-x,1/2+y,1/2+z
x,1/2-y,z
loop_
_atom_site_type_symbol
_atom_site_label
_atom_site_fract_x
_atom_site_fract_y
_atom_site_fract_z
Si Si1 0.116503 0.969104 0.858346
Si Si2 0.616355 0.134862 0.100852
Si Si3 0.617718 0.975657 0.817198
Si Si4 0.239943 0.359981 0.945595
Si Si5 0.546747 0.364337 0.930359
Si Si6 0.152308 0.138168 0.116154
O O1 0.241075 0.897345 0.867896
O O2 0.092759 0.000196 0.771034
O O3 0.990198 0.912807 0.892475
O O4 0.135164 0.068947 0.905259
O O5 0.601904 0.250000 0.106094
O O6 0.501585 0.091579 0.153678
O O7 0.598632 0.099901 0.013103
O O8 0.757802 0.918271 0.822116
O O9 0.625905 0.076392 0.865236
O O10 0.205753 0.250000 0.918964
O O11 0.389966 0.388778 0.921493
O O12 0.231113 0.367880 0.036616
O O13 0.575748 0.250000 0.918260
O O14 0.132227 0.250000 0.142899
#
# Coordination Sequence:
#
# PCOD8254370 Si02
#       6
#     8   8   8   8   8   8
#     4  12  25  38  60  94 129 161 193 252 313 365
#     4  11  22  40  66  91 118 162 213 249 291 362
#     4  12  23  39  63  90 125 162 201 247 308 365
#     4  10  21  42  67  88 117 161 209 255 303 355
#     4  10  21  41  69  91 114 158 215 259 290 351
#     4  11  24  41  61  89 125 163 202 248 305 362
#
# _framework density 20.087363
#
# number of rings (size 3 to 8) (size 9 to 14) (size 15 to 20)
#    0.000    1.000    3.333    4.000    0.000    4.667 
#    0.000    2.500    0.000    0.000    0.000    0.000 
#    0.000    0.000    0.000    0.000    0.000    0.000 
#
# Total GULP energy -595546.369109 kJ/mol
# GULP energy per Si atom -12407.216023 kJ/mol
# Density = 2.004164 g / cm^3
# Si number density = 20.087363 Si / 1000 Ang^3
#
#
#
# Elastic Constant Matrix: (Units=GPa)
#
#
# Indices 1 2 3 4 5 6 
#
# 1 93.5360 28.9268 -1.5370 0.0000 0.0000 0.0000
# 2 28.9268 79.8762 20.8026 0.0000 0.0000 0.0000
# 3 -1.5370 20.8026 70.6540 0.0000 0.0000 0.0000
# 4 0.0000 0.0000 0.0000 12.7387 0.0000 0.0000
# 5 0.0000 0.0000 0.0000 0.0000 6.1923 0.0000
# 6 0.0000 0.0000 0.0000 0.0000 0.0000 35.8220
#
#
#
# Elastic Compliance Matrix: (Units=1/GPa)
#
#
# Indices 1 2 3 4 5 6 
#
# 1 0.012225 -0.004870 0.001700 0.000000 0.000000 0.000000
# 2 -0.004870 0.015499 -0.004669 0.000000 0.000000 0.000000
# 3 0.001700 -0.004669 0.015565 0.000000 0.000000 0.000000
# 4 0.000000 0.000000 0.000000 0.078501 0.000000 0.000000
# 5 0.000000 0.000000 0.000000 0.000000 0.161490 0.000000
# 6 0.000000 0.000000 0.000000 0.000000 0.000000 0.027916
#
#
# Mechanical properties :
#
#
# Convention : Reuss Voigt Hill
#
# Bulk Modulus (GPa) = 36.21816 37.82787 37.02301
# Shear Modulus (GPa) = 14.87749 24.00887 19.44318
#
# Velocity S-wave (km/s) = 2.72442 3.46095 3.11453
# Velocity P-wave (km/s) = 5.28830 5.90283 5.60400
#
# Compressibility (1/GPa) = 0.02761046
#
# Stress axis : x y z
#
# Youngs Moduli (GPa) = 81.79918 64.52010 64.24574
#
# Poissons Ratio (x) = 0.31421 -0.10920
# Poissons Ratio (y) = 0.39836 0.29998
# Poissons Ratio (z) = -0.13904 0.30126
#
# Static dielectric constant tensor:
#      x y z
#    x 3.651670 0.000000 0.000000 
#    y 0.000000 3.780810 0.000000 
#    z 0.000000 0.000000 3.562760 
# 
# 
# High freq. dielectric constant tensor:
#      x y z
#    x 1.784520 0.000000 0.000000 
#    y 0.000000 1.799030 0.000000 
#    z 0.000000 0.000000 1.779610 
# 
# From -- ./inp_files/22193.got.cif
#   From: 2010.03.12/outbox.cif.g09.slc.cpg/sg62_12_cif.got.tgz:22193.got - 2010.04.10 19:12:36.
