data_PCOD8254886
_publ_section_title
;
Structure prediction by ZEFSAII (Michael W. Deem and Ramdas Pophale) SiO2 
 PCOD8254886
Probable space group: P N M A
;
_chemical_formula_sum "Si O2"
_cell_formula_units_Z 64
_cell_length_a 10.184348
_cell_length_b 25.936796
_cell_length_c 12.064974
_cell_angle_alpha 90.000000
_cell_angle_beta 90.000000
_cell_angle_gamma 90.000000
_cell_volume 3186.955118
_symmetry_space_group_name_H-M "P N M A"
_symmetry_group_IT_number 62
_symmetry_cell_setting 'orthorhombic'
loop_
_space_group_symop_operation_xyz
x,y,z
1/2-x,-y,1/2+z
1/2+x,1/2-y,1/2-z
-x,1/2+y,-z
-x,-y,-z
1/2+x,y,1/2-z
1/2-x,1/2+y,1/2+z
x,1/2-y,z
loop_
_atom_site_type_symbol
_atom_site_label
_atom_site_fract_x
_atom_site_fract_y
_atom_site_fract_z
Si Si1 0.368749 0.496430 0.562379
Si Si2 0.481812 0.024001 0.786702
Si Si3 0.731536 0.109753 0.954085
Si Si4 0.075241 0.349026 0.218010
Si Si5 0.226799 0.395921 0.023175
Si Si6 0.500636 0.921120 0.905967
Si Si7 0.197756 0.691767 0.860992
Si Si8 0.732196 0.089391 0.713669
O O1 0.500000 0.500000 0.500000
O O2 0.399264 0.504481 0.691178
O O3 0.319075 0.440316 0.529617
O O4 0.275419 0.541770 0.521358
O O5 0.620182 0.046717 0.741778
O O6 0.375458 0.066952 0.824058
O O7 0.516777 0.982637 0.883412
O O8 0.740286 0.125721 0.823438
O O9 0.585573 0.090219 0.984672
O O10 0.781308 0.155741 0.031625
O O11 0.119153 0.367494 0.096597
O O12 0.066936 0.398866 0.295975
O O13 0.182725 0.311576 0.273462
O O14 0.936150 0.321116 0.203668
O O15 0.370089 0.386479 0.074002
O O16 0.197206 0.377353 0.896261
O O17 0.190971 0.750000 0.905549
#
# Coordination Sequence:
#
# PCOD8254886 Si02
#       8
#     8   8   8   8   8   8   8   8
#     4  11  20  33  55  87 126 169 209 243 296 368
#     4  11  22  34  54  84 126 174 209 246 287 357
#     4  10  24  39  58  89 122 164 213 256 301 373
#     4  11  23  40  66 101 122 153 202 258 322 381
#     4  12  22  37  62  89 134 170 197 252 305 373
#     4  11  22  37  58  88 126 164 207 252 309 361
#     4  11  24  45  71  92 120 156 204 270 324 367
#     4  11  24  37  54  86 123 172 214 243 291 359
#
# _framework density 20.081862999999998
#
# number of rings (size 3 to 8) (size 9 to 14) (size 15 to 20)
#    0.000    1.000    3.750    4.125    1.750    1.500 
#    0.000    0.000    0.000    1.500    0.000    0.000 
#    0.000    0.000    0.000    0.000    0.000    0.000 
#
# Total GULP energy -793092.548711 kJ/mol
# GULP energy per Si atom -12392.071074 kJ/mol
# Density = 2.003616 g / cm^3
# Si number density = 20.081863 Si / 1000 Ang^3
#
#
#
# Elastic Constant Matrix: (Units=GPa)
#
#
# Indices 1 2 3 4 5 6 
#
# 1 111.1675 19.3318 29.4030 0.0000 0.0000 0.0000
# 2 19.3318 72.6890 36.7215 0.0000 0.0000 0.0000
# 3 29.4030 36.7215 107.1319 0.0000 0.0000 0.0000
# 4 0.0000 0.0000 0.0000 19.4899 0.0000 0.0000
# 5 0.0000 0.0000 0.0000 0.0000 27.3932 0.0000
# 6 0.0000 0.0000 0.0000 0.0000 0.0000 12.6517
#
#
#
# Elastic Compliance Matrix: (Units=1/GPa)
#
#
# Indices 1 2 3 4 5 6 
#
# 1 0.009835 -0.001514 -0.002180 0.000000 0.000000 0.000000
# 2 -0.001514 0.016872 -0.005367 0.000000 0.000000 0.000000
# 3 -0.002180 -0.005367 0.011772 0.000000 0.000000 0.000000
# 4 0.000000 0.000000 0.000000 0.051309 0.000000 0.000000
# 5 0.000000 0.000000 0.000000 0.000000 0.036505 0.000000
# 6 0.000000 0.000000 0.000000 0.000000 0.000000 0.079041
#
#
# Mechanical properties :
#
#
# Convention : Reuss Voigt Hill
#
# Bulk Modulus (GPa) = 49.12715 51.32232 50.22473
# Shear Modulus (GPa) = 21.71613 25.60911 23.66262
#
# Velocity S-wave (km/s) = 3.29200 3.57492 3.43637
# Velocity P-wave (km/s) = 6.24230 6.53086 6.38821
#
# Compressibility (1/GPa) = 0.02035534
#
# Stress axis : x y z
#
# Youngs Moduli (GPa) = 101.67307 59.27150 84.94385
#
# Poissons Ratio (x) = 0.08975 0.18521
# Poissons Ratio (y) = 0.15396 0.45593
# Poissons Ratio (z) = 0.22168 0.31814
#
# Static dielectric constant tensor:
#      x y z
#    x 3.838000 0.000000 0.000000 
#    y 0.000000 3.084650 0.000000 
#    z 0.000000 0.000000 3.900250 
# 
# 
# High freq. dielectric constant tensor:
#      x y z
#    x 1.808040 0.000000 0.000000 
#    y 0.000000 1.720550 0.000000 
#    z 0.000000 0.000000 1.803310 
# 
# From -- ./inp_files/11577.got.cif
#   From: 2010.03.12/outbox.cif.g09.slc.cpg/sg62_6_cif.got.tgz:11577.got - 2010.04.10 19:12:36.
