data_PCOD8254669
_publ_section_title
;
Structure prediction by ZEFSAII (Michael W. Deem and Ramdas Pophale) SiO2 
 PCOD8254669
Probable space group: P N M A
;
_chemical_formula_sum "Si O2"
_cell_formula_units_Z 48
_cell_length_a 28.812189
_cell_length_b 8.956442
_cell_length_c 9.274945
_cell_angle_alpha 90.000000
_cell_angle_beta 90.000000
_cell_angle_gamma 90.000000
_cell_volume 2393.443146
_symmetry_space_group_name_H-M "P N M A"
_symmetry_group_IT_number 62
_symmetry_cell_setting 'orthorhombic'
loop_
_space_group_symop_operation_xyz
x,y,z
1/2-x,-y,1/2+z
1/2+x,1/2-y,1/2-z
-x,1/2+y,-z
-x,-y,-z
1/2+x,y,1/2-z
1/2-x,1/2+y,1/2+z
x,1/2-y,z
loop_
_atom_site_type_symbol
_atom_site_label
_atom_site_fract_x
_atom_site_fract_y
_atom_site_fract_z
Si Si1 0.633790 0.574415 0.031636
Si Si2 0.519941 0.915327 0.633012
Si Si3 0.701699 0.073906 0.542655
Si Si4 0.538724 0.418490 0.090516
Si Si5 0.878106 0.425252 0.202983
Si Si6 0.215669 0.073519 0.290671
O O1 0.634449 0.750000 0.060533
O O2 0.585665 0.510722 0.088478
O O3 0.674417 0.498549 0.119951
O O4 0.640503 0.538748 0.862966
O O5 0.531427 0.750000 0.579980
O O6 0.478983 0.915654 0.747515
O O7 0.568385 0.981120 0.694636
O O8 0.500000 0.000000 0.500000
O O9 0.706791 0.250000 0.566094
O O10 0.711460 0.030112 0.377267
O O11 0.650284 0.019892 0.585405
O O12 0.736283 0.988884 0.649352
O O13 0.546609 0.250000 0.032617
O O14 0.500000 0.500000 0.000000
O O15 0.872744 0.250000 0.170093
O O16 0.214097 0.250000 0.311664
#
# Coordination Sequence:
#
# PCOD8254669 Si02
#       6
#     8   8   8   8   8   8
#     4  11  23  41  65  93 125 163 208 255 308 367
#     4  10  23  41  60  88 126 165 209 258 307 360
#     4  11  25  43  65  94 125 160 203 252 307 368
#     4  11  22  40  63  91 126 165 210 258 305 363
#     4  10  22  42  63  89 125 164 205 256 307 361
#     4  11  25  44  65  94 127 159 200 254 306 365
#
# _framework density 20.054791000000002
#
# number of rings (size 3 to 8) (size 9 to 14) (size 15 to 20)
#    0.000    1.333    1.667    3.000    2.333   10.000 
#    0.000    0.000    0.000    0.000    0.000    0.000 
#    0.000    0.000    0.000    0.000    0.000    0.000 
#
# Total GULP energy -595334.589565 kJ/mol
# GULP energy per Si atom -12402.803949 kJ/mol
# Density = 2.000915 g / cm^3
# Si number density = 20.054791 Si / 1000 Ang^3
#
#
#
# Elastic Constant Matrix: (Units=GPa)
#
#
# Indices 1 2 3 4 5 6 
#
# 1 98.7097 35.5157 40.2653 0.0000 0.0000 0.0000
# 2 35.5157 84.0933 68.1097 0.0000 0.0000 0.0000
# 3 40.2653 68.1097 118.8992 0.0000 0.0000 0.0000
# 4 0.0000 0.0000 0.0000 37.0420 0.0000 0.0000
# 5 0.0000 0.0000 0.0000 0.0000 42.8567 0.0000
# 6 0.0000 0.0000 0.0000 0.0000 0.0000 42.0281
#
#
#
# Elastic Compliance Matrix: (Units=1/GPa)
#
#
# Indices 1 2 3 4 5 6 
#
# 1 0.012250 -0.003383 -0.002210 0.000000 0.000000 0.000000
# 2 -0.003383 0.023118 -0.012097 0.000000 0.000000 0.000000
# 3 -0.002210 -0.012097 0.016089 0.000000 0.000000 0.000000
# 4 0.000000 0.000000 0.000000 0.026996 0.000000 0.000000
# 5 0.000000 0.000000 0.000000 0.000000 0.023334 0.000000
# 6 0.000000 0.000000 0.000000 0.000000 0.000000 0.023794
#
#
# Mechanical properties :
#
#
# Convention : Reuss Voigt Hill
#
# Bulk Modulus (GPa) = 62.20814 65.49817 63.85315
# Shear Modulus (GPa) = 30.06245 34.90613 32.48429
#
# Velocity S-wave (km/s) = 3.87591 4.17650 4.02901
# Velocity P-wave (km/s) = 7.14959 7.48252 7.31795
#
# Compressibility (1/GPa) = 0.01607507
#
# Stress axis : x y z
#
# Youngs Moduli (GPa) = 81.63506 43.25553 62.15524
#
# Poissons Ratio (x) = 0.14635 0.13738
# Poissons Ratio (y) = 0.27620 0.75191
# Poissons Ratio (z) = 0.18043 0.52327
#
# Static dielectric constant tensor:
#      x y z
#    x 3.619160 0.000000 0.000000 
#    y 0.000000 3.785640 0.000000 
#    z 0.000000 0.000000 3.720510 
# 
# 
# High freq. dielectric constant tensor:
#      x y z
#    x 1.798780 0.000000 0.000000 
#    y 0.000000 1.790060 0.000000 
#    z 0.000000 0.000000 1.789710 
# 
# From -- ./inp_files/10264.got.cif
#   From: 2010.03.12/outbox.cif.g09.slc.cpg/sg62_6_cif.got.tgz:10264.got - 2010.04.10 19:12:36.
