data_PCOD8254114
_publ_section_title
;
Structure prediction by ZEFSAII (Michael W. Deem and Ramdas Pophale) SiO2 
 PCOD8254114
Probable space group: P N M A
;
_chemical_formula_sum "Si O2"
_cell_formula_units_Z 48
_cell_length_a 9.804511
_cell_length_b 16.803021
_cell_length_c 13.538351
_cell_angle_alpha 90.000000
_cell_angle_beta 90.000000
_cell_angle_gamma 90.000000
_cell_volume 2230.381108
_symmetry_space_group_name_H-M "P N M A"
_symmetry_group_IT_number 62
_symmetry_cell_setting 'orthorhombic'
loop_
_space_group_symop_operation_xyz
x,y,z
1/2-x,-y,1/2+z
1/2+x,1/2-y,1/2-z
-x,1/2+y,-z
-x,-y,-z
1/2+x,y,1/2-z
1/2-x,1/2+y,1/2+z
x,1/2-y,z
loop_
_atom_site_type_symbol
_atom_site_label
_atom_site_fract_x
_atom_site_fract_y
_atom_site_fract_z
Si Si1 0.509432 0.568925 0.753521
Si Si2 0.807460 0.428759 0.959798
Si Si3 0.693930 0.662584 0.078048
Si Si4 0.943305 0.844084 0.552190
Si Si5 0.584332 0.396062 0.458480
Si Si6 0.764402 0.039361 0.742017
O O1 0.453970 0.613073 0.656121
O O2 0.415458 0.493377 0.776792
O O3 0.659784 0.534268 0.733314
O O4 0.508888 0.631222 0.843035
O O5 0.694065 0.394166 0.034047
O O6 0.839588 0.520538 0.984000
O O7 0.754131 0.418323 0.848437
O O8 0.949204 0.382225 0.975791
O O9 0.673606 0.750000 0.124020
O O10 0.550098 0.632832 0.033773
O O11 0.760016 0.606152 0.160402
O O12 0.804471 0.669386 0.989136
O O13 0.912185 0.750000 0.553406
#
# Coordination Sequence:
#
# PCOD8254114 Si02
#       6
#     8   8   8   8   8   8
#     4  11  22  38  63  90 116 155 204 247 295 357
#     4  10  21  39  63  89 117 153 202 248 297 360
#     4  11  24  40  58  85 122 159 197 249 310 364
#     4  11  24  40  60  90 127 162 198 250 314 373
#     4  10  21  39  61  87 118 155 202 250 293 355
#     4  11  22  38  63  89 116 155 201 251 297 353
#
# _framework density 21.520987000000002
#
# number of rings (size 3 to 8) (size 9 to 14) (size 15 to 20)
#    0.000    1.333    0.000    8.000    0.000    4.000 
#    0.000    8.333    0.000    0.000    0.000    0.000 
#    0.000    0.000    0.000    0.000    0.000    0.000 
#
# Total GULP energy -595241.230412 kJ/mol
# GULP energy per Si atom -12400.858967 kJ/mol
# Density = 2.147200 g / cm^3
# Si number density = 21.520987 Si / 1000 Ang^3
#
#
#
# Elastic Constant Matrix: (Units=GPa)
#
#
# Indices 1 2 3 4 5 6 
#
# 1 111.7268 30.3060 33.2013 0.0000 0.0000 0.0000
# 2 30.3060 51.8923 44.4576 0.0000 0.0000 0.0000
# 3 33.2013 44.4576 114.1829 0.0000 0.0000 0.0000
# 4 0.0000 0.0000 0.0000 26.1410 0.0000 0.0000
# 5 0.0000 0.0000 0.0000 0.0000 37.7912 0.0000
# 6 0.0000 0.0000 0.0000 0.0000 0.0000 19.1560
#
#
#
# Elastic Compliance Matrix: (Units=1/GPa)
#
#
# Indices 1 2 3 4 5 6 
#
# 1 0.010714 -0.005384 -0.001019 0.000000 0.000000 0.000000
# 2 -0.005384 0.031622 -0.010747 0.000000 0.000000 0.000000
# 3 -0.001019 -0.010747 0.013238 0.000000 0.000000 0.000000
# 4 0.000000 0.000000 0.000000 0.038254 0.000000 0.000000
# 5 0.000000 0.000000 0.000000 0.000000 0.026461 0.000000
# 6 0.000000 0.000000 0.000000 0.000000 0.000000 0.052203
#
#
# Mechanical properties :
#
#
# Convention : Reuss Voigt Hill
#
# Bulk Modulus (GPa) = 47.00382 54.85910 50.93146
# Shear Modulus (GPa) = 23.37727 27.94012 25.65870
#
# Velocity S-wave (km/s) = 3.29941 3.60707 3.45666
# Velocity P-wave (km/s) = 6.03350 6.54937 6.29672
#
# Compressibility (1/GPa) = 0.02127487
#
# Stress axis : x y z
#
# Youngs Moduli (GPa) = 93.33921 31.62357 75.53772
#
# Poissons Ratio (x) = 0.17026 0.07697
# Poissons Ratio (y) = 0.50253 0.81178
# Poissons Ratio (z) = 0.09511 0.33985
#
# Static dielectric constant tensor:
#      x y z
#    x 3.996980 0.000000 0.000000 
#    y 0.000000 3.516480 0.000000 
#    z 0.000000 0.000000 3.914490 
# 
# 
# High freq. dielectric constant tensor:
#      x y z
#    x 1.861870 0.000000 0.000000 
#    y 0.000000 1.813140 0.000000 
#    z 0.000000 0.000000 1.853370 
# 
# From -- ./inp_files/16959.got.cif
#   From: 2010.03.12/outbox.cif.g09.slc.cpg/sg62_9_cif.got.tgz:16959.got - 2010.04.10 19:12:36.
