data_PCOD8254000
_publ_section_title
;
Structure prediction by ZEFSAII (Michael W. Deem and Ramdas Pophale) SiO2 
 PCOD8254000
Probable space group: P N M A
;
_chemical_formula_sum "Si O2"
_cell_formula_units_Z 64
_cell_length_a 16.641564
_cell_length_b 8.947553
_cell_length_c 22.174957
_cell_angle_alpha 90.000000
_cell_angle_beta 90.000000
_cell_angle_gamma 90.000000
_cell_volume 3301.879390
_symmetry_space_group_name_H-M "P N M A"
_symmetry_group_IT_number 62
_symmetry_cell_setting 'orthorhombic'
loop_
_space_group_symop_operation_xyz
x,y,z
1/2-x,-y,1/2+z
1/2+x,1/2-y,1/2-z
-x,1/2+y,-z
-x,-y,-z
1/2+x,y,1/2-z
1/2-x,1/2+y,1/2+z
x,1/2-y,z
loop_
_atom_site_type_symbol
_atom_site_label
_atom_site_fract_x
_atom_site_fract_y
_atom_site_fract_z
Si Si1 0.177494 0.926560 0.122095
Si Si2 0.002460 0.573307 0.435483
Si Si3 0.912710 0.926948 0.227903
Si Si4 0.586350 0.574454 0.498117
Si Si5 0.138958 0.078615 0.362966
Si Si6 0.823625 0.076708 0.119185
Si Si7 0.084789 0.424107 0.229473
Si Si8 0.143475 0.073711 0.643885
O O1 0.168157 0.750000 0.133152
O O2 0.133735 0.979001 0.061214
O O3 0.270700 0.974231 0.117163
O O4 0.141962 0.014794 0.177900
O O5 0.998076 0.750000 0.442560
O O6 0.926568 0.508086 0.398391
O O7 0.000000 0.500000 0.500000
O O8 0.083594 0.530494 0.401333
O O9 0.919845 0.750000 0.226935
O O10 0.868158 0.986657 0.288033
O O11 0.862376 0.977968 0.170844
O O12 0.001247 0.991841 0.225803
O O13 0.500000 0.500000 0.500000
O O14 0.573052 0.750000 0.496700
O O15 0.638407 0.526176 0.555797
O O16 0.115775 0.250000 0.377033
O O17 0.229287 0.044305 0.383215
O O18 0.128790 0.043265 0.292460
O O19 0.841176 0.250000 0.132876
O O20 0.069064 0.250000 0.219148
O O21 0.134936 0.250000 0.645112
#
# Coordination Sequence:
#
# PCOD8254000 Si02
#       8
#     8   8   8   8   8   8   8   8
#     4  10  21  38  61  86 111 152 201 243 292 352
#     4  11  23  40  63  90 124 161 199 244 297 353
#     4  11  21  37  60  88 118 155 198 243 294 353
#     4  10  22  39  60  83 113 151 193 237 287 349
#     4  10  22  40  62  88 120 158 199 243 299 361
#     4  10  22  39  60  87 118 155 197 247 303 353
#     4  11  22  37  58  88 122 155 192 243 300 354
#     4   9  20  38  61  87 116 151 196 245 292 345
#
# _framework density 19.382898999999998
#
# number of rings (size 3 to 8) (size 9 to 14) (size 15 to 20)
#    0.000    1.750    1.250    2.625    1.750    4.000 
#    0.000    1.875    0.000    0.000    0.000    0.000 
#    0.000    0.000    0.000    0.000    0.000    0.000 
#
# Total GULP energy -793844.787354 kJ/mol
# GULP energy per Si atom -12403.824802 kJ/mol
# Density = 1.933878 g / cm^3
# Si number density = 19.382899 Si / 1000 Ang^3
#
#
#
# Elastic Constant Matrix: (Units=GPa)
#
#
# Indices 1 2 3 4 5 6 
#
# 1 153.4790 46.7695 83.6213 0.0000 0.0000 0.0000
# 2 46.7695 64.3793 55.1296 0.0000 0.0000 0.0000
# 3 83.6213 55.1296 171.8469 0.0000 0.0000 0.0000
# 4 0.0000 0.0000 0.0000 32.4970 0.0000 0.0000
# 5 0.0000 0.0000 0.0000 0.0000 21.5053 0.0000
# 6 0.0000 0.0000 0.0000 0.0000 0.0000 29.7157
#
#
#
# Elastic Compliance Matrix: (Units=1/GPa)
#
#
# Indices 1 2 3 4 5 6 
#
# 1 0.009590 -0.004096 -0.003353 0.000000 0.000000 0.000000
# 2 -0.004096 0.023166 -0.005439 0.000000 0.000000 0.000000
# 3 -0.003353 -0.005439 0.009195 0.000000 0.000000 0.000000
# 4 0.000000 0.000000 0.000000 0.030772 0.000000 0.000000
# 5 0.000000 0.000000 0.000000 0.000000 0.046500 0.000000
# 6 0.000000 0.000000 0.000000 0.000000 0.000000 0.033652
#
#
# Mechanical properties :
#
#
# Convention : Reuss Voigt Hill
#
# Bulk Modulus (GPa) = 61.81696 84.52734 73.17215
# Shear Modulus (GPa) = 27.16757 30.35592 28.76175
#
# Velocity S-wave (km/s) = 3.74789 3.96172 3.85629
# Velocity P-wave (km/s) = 7.11974 8.03933 7.59347
#
# Compressibility (1/GPa) = 0.01617679
#
# Stress axis : x y z
#
# Youngs Moduli (GPa) = 104.27061 43.16704 108.75159
#
# Poissons Ratio (x) = 0.17682 0.36461
# Poissons Ratio (y) = 0.42711 0.59145
# Poissons Ratio (z) = 0.34958 0.23477
#
# Static dielectric constant tensor:
#      x y z
#    x 3.595390 0.000000 0.000000 
#    y 0.000000 3.403830 0.000000 
#    z 0.000000 0.000000 3.797760 
# 
# 
# High freq. dielectric constant tensor:
#      x y z
#    x 1.770290 0.000000 0.000000 
#    y 0.000000 1.741800 0.000000 
#    z 0.000000 0.000000 1.770120 
# 
# From -- ./inp_files/27626.got.cif
#   From: 2010.03.12/outbox.cif.g09.slc.cpg/sg62_14_cif.got.tgz:27626.got - 2010.04.10 19:12:36.
