data_PCOD8254828
_publ_section_title
;
Structure prediction by ZEFSAII (Michael W. Deem and Ramdas Pophale) SiO2 
 PCOD8254828
Probable space group: P N M A
;
_chemical_formula_sum "Si O2"
_cell_formula_units_Z 40
_cell_length_a 15.050881
_cell_length_b 8.569648
_cell_length_c 14.806964
_cell_angle_alpha 90.000000
_cell_angle_beta 90.000000
_cell_angle_gamma 90.000000
_cell_volume 1909.813355
_symmetry_space_group_name_H-M "P N M A"
_symmetry_group_IT_number 62
_symmetry_cell_setting 'orthorhombic'
loop_
_space_group_symop_operation_xyz
x,y,z
1/2-x,-y,1/2+z
1/2+x,1/2-y,1/2-z
-x,1/2+y,-z
-x,-y,-z
1/2+x,y,1/2-z
1/2-x,1/2+y,1/2+z
x,1/2-y,z
loop_
_atom_site_type_symbol
_atom_site_label
_atom_site_fract_x
_atom_site_fract_y
_atom_site_fract_z
Si Si1 0.226000 0.069329 0.312555
Si Si2 0.649338 0.433558 0.839706
Si Si3 0.246575 0.431388 0.004506
Si Si4 0.958302 0.072405 0.728112
Si Si5 0.570841 0.928204 0.433876
O O1 0.243311 0.250000 0.293760
O O2 0.280485 0.973116 0.238557
O O3 0.259284 0.026732 0.412069
O O4 0.121379 0.033949 0.307276
O O5 0.654761 0.250000 0.855893
O O6 0.670100 0.519675 0.933867
O O7 0.550536 0.488260 0.813581
O O8 0.251987 0.250000 0.981082
O O9 0.159700 0.469802 0.063137
O O10 0.938468 0.250000 0.698445
O O11 0.970219 0.060451 0.834989
O O12 0.592235 0.750000 0.460466
O O13 0.500000 0.000000 0.500000
#
# Coordination Sequence:
#
# PCOD8254828 Si02
#       5
#     8   8   8   8   8
#     4  12  25  42  67  97 131 173 220 274 332 395
#     4  11  23  43  68  97 133 172 219 272 332 397
#     4  12  25  42  65  94 131 176 221 271 329 390
#     4  10  23  42  66  93 129 174 215 268 330 392
#     4  11  22  39  65  97 132 170 219 272 329 390
#
# _framework density 20.944455999999999
#
# number of rings (size 3 to 8) (size 9 to 14) (size 15 to 20)
#    0.000    0.800    2.000    6.000    0.000    4.800 
#    0.000    0.000    0.000    0.000    0.000    0.000 
#    0.000    0.000    0.000    0.000    0.000    0.000 
#
# Total GULP energy -496298.077269 kJ/mol
# GULP energy per Si atom -12407.451932 kJ/mol
# Density = 2.089679 g / cm^3
# Si number density = 20.944456 Si / 1000 Ang^3
#
#
#
# Elastic Constant Matrix: (Units=GPa)
#
#
# Indices 1 2 3 4 5 6 
#
# 1 87.3846 22.1646 -5.9580 0.0000 0.0000 0.0000
# 2 22.1646 82.5186 7.7180 0.0000 0.0000 0.0000
# 3 -5.9580 7.7180 58.4596 0.0000 0.0000 0.0000
# 4 0.0000 0.0000 0.0000 37.5884 0.0000 0.0000
# 5 0.0000 0.0000 0.0000 0.0000 42.0753 0.0000
# 6 0.0000 0.0000 0.0000 0.0000 0.0000 34.5981
#
#
#
# Elastic Compliance Matrix: (Units=1/GPa)
#
#
# Indices 1 2 3 4 5 6 
#
# 1 0.012451 -0.003506 0.001732 0.000000 0.000000 0.000000
# 2 -0.003506 0.013257 -0.002108 0.000000 0.000000 0.000000
# 3 0.001732 -0.002108 0.017561 0.000000 0.000000 0.000000
# 4 0.000000 0.000000 0.000000 0.026604 0.000000 0.000000
# 5 0.000000 0.000000 0.000000 0.000000 0.023767 0.000000
# 6 0.000000 0.000000 0.000000 0.000000 0.000000 0.028903
#
#
# Mechanical properties :
#
#
# Convention : Reuss Voigt Hill
#
# Bulk Modulus (GPa) = 28.16516 30.69026 29.42771
# Shear Modulus (GPa) = 35.17596 36.48157 35.82877
#
# Velocity S-wave (km/s) = 4.10260 4.17805 4.14050
# Velocity P-wave (km/s) = 5.99321 6.16115 6.07776
#
# Compressibility (1/GPa) = 0.03550486
#
# Stress axis : x y z
#
# Youngs Moduli (GPa) = 80.31411 75.42945 56.94573
#
# Poissons Ratio (x) = 0.26448 -0.09862
# Poissons Ratio (y) = 0.28161 0.12002
# Poissons Ratio (z) = -0.13909 0.15898
#
# Static dielectric constant tensor:
#      x y z
#    x 3.981200 0.000000 0.000000 
#    y 0.000000 3.816160 0.000000 
#    z 0.000000 0.000000 3.791890 
# 
# 
# High freq. dielectric constant tensor:
#      x y z
#    x 1.827940 0.000000 0.000000 
#    y 0.000000 1.825730 0.000000 
#    z 0.000000 0.000000 1.828990 
# 
# From -- ./inp_files/18611.got.cif
#   From: 2010.03.12/outbox.cif.g09.slc.cpg/sg62_10_cif.got.tgz:18611.got - 2010.04.10 19:12:36.
