data_PCOD8254145
_publ_section_title
;
Structure prediction by ZEFSAII (Michael W. Deem and Ramdas Pophale) SiO2 
 PCOD8254145
Probable space group: P N M A
;
_chemical_formula_sum "Si O2"
_cell_formula_units_Z 48
_cell_length_a 23.233170
_cell_length_b 13.587336
_cell_length_c 7.501899
_cell_angle_alpha 90.000000
_cell_angle_beta 90.000000
_cell_angle_gamma 90.000000
_cell_volume 2368.176124
_symmetry_space_group_name_H-M "P N M A"
_symmetry_group_IT_number 62
_symmetry_cell_setting 'orthorhombic'
loop_
_space_group_symop_operation_xyz
x,y,z
1/2-x,-y,1/2+z
1/2+x,1/2-y,1/2-z
-x,1/2+y,-z
-x,-y,-z
1/2+x,y,1/2-z
1/2-x,1/2+y,1/2+z
x,1/2-y,z
loop_
_atom_site_type_symbol
_atom_site_label
_atom_site_fract_x
_atom_site_fract_y
_atom_site_fract_z
Si Si1 0.864810 0.863843 0.401379
Si Si2 0.581370 0.641618 0.282649
Si Si3 0.696836 0.016787 0.626338
Si Si4 0.392714 0.358839 0.317092
Si Si5 0.327004 0.992159 0.787618
Si Si6 0.525415 0.022355 0.811267
O O1 0.864277 0.750000 0.428562
O O2 0.816560 0.891368 0.254708
O O3 0.925055 0.897056 0.319247
O O4 0.855504 0.904774 0.600508
O O5 0.567934 0.750000 0.196416
O O6 0.605929 0.660373 0.475474
O O7 0.632463 0.587306 0.172918
O O8 0.525693 0.571017 0.303545
O O9 0.764937 0.006267 0.624716
O O10 0.665240 0.922474 0.719090
O O11 0.674992 0.033798 0.423161
O O12 0.390233 0.250000 0.223290
O O13 0.450003 0.418802 0.261447
O O14 0.500000 0.000000 0.000000
#
# Coordination Sequence:
#
# PCOD8254145 Si02
#       6
#     8   8   8   8   8   8
#     4  11  24  41  61  91 126 164 206 253 308 365
#     4  10  21  39  62  88 118 159 208 251 306 369
#     4  10  22  40  65  88 129 159 204 258 309 364
#     4   9  21  39  62  89 117 159 204 249 307 369
#     4  11  21  41  63  91 125 164 202 259 309 362
#     4  11  21  39  60  87 124 159 199 255 303 358
#
# _framework density 20.268764000000001
#
# number of rings (size 3 to 8) (size 9 to 14) (size 15 to 20)
#    0.000    1.667    3.333    1.000    0.000    3.333 
#    0.000    0.000    0.000    0.000    0.000    0.000 
#    0.000    0.000    0.000    0.000    0.000    0.000 
#
# Total GULP energy -594888.239313 kJ/mol
# GULP energy per Si atom -12393.504986 kJ/mol
# Density = 2.022263 g / cm^3
# Si number density = 20.268764 Si / 1000 Ang^3
#
#
#
# Elastic Constant Matrix: (Units=GPa)
#
#
# Indices 1 2 3 4 5 6 
#
# 1 112.9976 48.5311 -1.4119 0.0000 0.0000 0.0000
# 2 48.5311 153.3358 22.7189 0.0000 0.0000 0.0000
# 3 -1.4119 22.7189 60.4915 0.0000 0.0000 0.0000
# 4 0.0000 0.0000 0.0000 27.3499 0.0000 0.0000
# 5 0.0000 0.0000 0.0000 0.0000 33.2987 0.0000
# 6 0.0000 0.0000 0.0000 0.0000 0.0000 15.8830
#
#
#
# Elastic Compliance Matrix: (Units=1/GPa)
#
#
# Indices 1 2 3 4 5 6 
#
# 1 0.010380 -0.003517 0.001563 0.000000 0.000000 0.000000
# 2 -0.003517 0.008097 -0.003123 0.000000 0.000000 0.000000
# 3 0.001563 -0.003123 0.017741 0.000000 0.000000 0.000000
# 4 0.000000 0.000000 0.000000 0.036563 0.000000 0.000000
# 5 0.000000 0.000000 0.000000 0.000000 0.030031 0.000000
# 6 0.000000 0.000000 0.000000 0.000000 0.000000 0.062960
#
#
# Mechanical properties :
#
#
# Convention : Reuss Voigt Hill
#
# Bulk Modulus (GPa) = 38.36717 51.83345 45.10031
# Shear Modulus (GPa) = 27.08345 32.43877 29.76111
#
# Velocity S-wave (km/s) = 3.65939 4.00488 3.83603
# Velocity P-wave (km/s) = 6.06838 6.85668 6.47453
#
# Compressibility (1/GPa) = 0.02606395
#
# Stress axis : x y z
#
# Youngs Moduli (GPa) = 96.34197 123.49549 56.36742
#
# Poissons Ratio (x) = 0.43431 -0.08811
# Poissons Ratio (y) = 0.33881 0.17605
# Poissons Ratio (z) = -0.15059 0.38571
#
# Static dielectric constant tensor:
#      x y z
#    x 4.873870 0.000000 0.000000 
#    y 0.000000 2.826410 0.000000 
#    z 0.000000 0.000000 3.704800 
# 
# 
# High freq. dielectric constant tensor:
#      x y z
#    x 1.798400 0.000000 0.000000 
#    y 0.000000 1.786130 0.000000 
#    z 0.000000 0.000000 1.794250 
# 
# From -- ./inp_files/9319.got.cif
#   From: 2010.03.12/outbox.cif.g09.slc.cpg/sg62_5_cif.got.tgz:9319.got - 2010.04.10 19:12:36.
