data_PCOD8254934
_publ_section_title
;
Structure prediction by ZEFSAII (Michael W. Deem and Ramdas Pophale) SiO2 
 PCOD8254934
Probable space group: P N M A
;
_chemical_formula_sum "Si O2"
_cell_formula_units_Z 52
_cell_length_a 5.314521
_cell_length_b 19.667373
_cell_length_c 23.103213
_cell_angle_alpha 90.000000
_cell_angle_beta 90.000000
_cell_angle_gamma 90.000000
_cell_volume 2414.809435
_symmetry_space_group_name_H-M "P N M A"
_symmetry_group_IT_number 62
_symmetry_cell_setting 'orthorhombic'
loop_
_space_group_symop_operation_xyz
x,y,z
1/2-x,-y,1/2+z
1/2+x,1/2-y,1/2-z
-x,1/2+y,-z
-x,-y,-z
1/2+x,y,1/2-z
1/2-x,1/2+y,1/2+z
x,1/2-y,z
loop_
_atom_site_type_symbol
_atom_site_label
_atom_site_fract_x
_atom_site_fract_y
_atom_site_fract_z
Si Si1 0.038742 0.406861 0.397552
Si Si2 0.190915 0.952372 0.388129
Si Si3 0.186716 0.671082 0.999347
Si Si4 0.694279 0.059909 0.489659
Si Si5 0.797767 0.250000 0.787341
Si Si6 0.542131 0.669474 0.782345
Si Si7 0.213692 0.873797 0.126647
O O1 0.220652 0.466653 0.373147
O O2 0.135216 0.362069 0.450985
O O3 0.948245 0.358010 0.347077
O O4 0.807665 0.449252 0.425658
O O5 0.113827 0.945995 0.456439
O O6 0.458551 0.918028 0.374816
O O7 0.957451 0.918345 0.353630
O O8 0.157209 0.750000 0.985081
O O9 0.281631 0.660323 0.064926
O O10 0.918128 0.635696 0.992620
O O11 0.500000 0.000000 0.500000
O O12 0.521683 0.250000 0.759178
O O13 0.829751 0.316434 0.826124
O O14 0.790072 0.642982 0.749229
O O15 0.542473 0.750000 0.785832
#
# Coordination Sequence:
#
# PCOD8254934 Si02
#       7
#     8   8   8   8   4   8   8
#     4  12  23  41  69 101 136 184 234 278 357 424
#     4  11  23  40  69 100 141 177 218 281 352 422
#     4  11  23  38  63 102 142 176 226 289 346 420
#     4  11  22  39  63  99 147 183 222 270 360 434
#     4  12  26  50  78  98 138 192 240 292 358 420
#     4  10  25  47  68  92 134 184 231 285 338 396
#     4  11  24  45  66 101 134 179 228 285 350 411
#
# _framework density 21.533791999999998
#
# number of rings (size 3 to 8) (size 9 to 14) (size 15 to 20)
#    0.000    0.923    3.846    3.692    2.154    1.231 
#    1.385    4.615    0.000    0.000    0.000    0.000 
#    0.000    0.000    0.000    0.000    0.000    0.000 
#
# Total GULP energy -644543.883348 kJ/mol
# GULP energy per Si atom -12395.074680 kJ/mol
# Density = 2.148478 g / cm^3
# Si number density = 21.533792 Si / 1000 Ang^3
#
#
#
# Elastic Constant Matrix: (Units=GPa)
#
#
# Indices 1 2 3 4 5 6 
#
# 1 106.7584 30.6345 25.6549 0.0000 0.0000 0.0000
# 2 30.6345 116.5663 21.8093 0.0000 0.0000 0.0000
# 3 25.6549 21.8093 87.0301 0.0000 0.0000 0.0000
# 4 0.0000 0.0000 0.0000 32.5201 0.0000 0.0000
# 5 0.0000 0.0000 0.0000 0.0000 30.0687 0.0000
# 6 0.0000 0.0000 0.0000 0.0000 0.0000 24.8341
#
#
#
# Elastic Compliance Matrix: (Units=1/GPa)
#
#
# Indices 1 2 3 4 5 6 
#
# 1 0.010647 -0.002320 -0.002557 0.000000 0.000000 0.000000
# 2 -0.002320 0.009506 -0.001698 0.000000 0.000000 0.000000
# 3 -0.002557 -0.001698 0.012670 0.000000 0.000000 0.000000
# 4 0.000000 0.000000 0.000000 0.030750 0.000000 0.000000
# 5 0.000000 0.000000 0.000000 0.000000 0.033257 0.000000
# 6 0.000000 0.000000 0.000000 0.000000 0.000000 0.040267
#
#
# Mechanical properties :
#
#
# Convention : Reuss Voigt Hill
#
# Bulk Modulus (GPa) = 50.83286 51.83915 51.33600
# Shear Modulus (GPa) = 31.88656 32.96831 32.42744
#
# Velocity S-wave (km/s) = 3.85225 3.91705 3.88478
# Velocity P-wave (km/s) = 6.59119 6.67708 6.63427
#
# Compressibility (1/GPa) = 0.01967231
#
# Stress axis : x y z
#
# Youngs Moduli (GPa) = 93.92216 105.19441 78.92833
#
# Poissons Ratio (x) = 0.24402 0.20184
# Poissons Ratio (y) = 0.21787 0.13405
# Poissons Ratio (z) = 0.24019 0.17866
#
# Static dielectric constant tensor:
#      x y z
#    x 4.052200 0.000000 0.000000 
#    y 0.000000 4.043550 0.000000 
#    z 0.000000 0.000000 3.932630 
# 
# 
# High freq. dielectric constant tensor:
#      x y z
#    x 1.851380 0.000000 0.000000 
#    y 0.000000 1.858120 0.000000 
#    z 0.000000 0.000000 1.826570 
# 
# From -- ./inp_files/25345.got.cif
#   From: 2010.03.12/outbox.cif.g09.slc.cpg/sg62_13_cif.got.tgz:25345.got - 2010.04.10 19:12:36.
