data_PCOD8254307
_publ_section_title
;
Structure prediction by ZEFSAII (Michael W. Deem and Ramdas Pophale) SiO2 
 PCOD8254307
Probable space group: P N M A
;
_chemical_formula_sum "Si O2"
_cell_formula_units_Z 40
_cell_length_a 15.174208
_cell_length_b 13.947074
_cell_length_c 8.473022
_cell_angle_alpha 90.000000
_cell_angle_beta 90.000000
_cell_angle_gamma 90.000000
_cell_volume 1793.194805
_symmetry_space_group_name_H-M "P N M A"
_symmetry_group_IT_number 62
_symmetry_cell_setting 'orthorhombic'
loop_
_space_group_symop_operation_xyz
x,y,z
1/2-x,-y,1/2+z
1/2+x,1/2-y,1/2-z
-x,1/2+y,-z
-x,-y,-z
1/2+x,y,1/2-z
1/2-x,1/2+y,1/2+z
x,1/2-y,z
loop_
_atom_site_type_symbol
_atom_site_label
_atom_site_fract_x
_atom_site_fract_y
_atom_site_fract_z
Si Si1 0.308477 0.645633 0.153360
Si Si2 0.635223 0.558970 0.830566
Si Si3 0.809873 0.856288 0.717245
Si Si4 0.372618 0.140724 0.828559
Si Si5 0.533071 0.017994 0.325224
O O1 0.343550 0.750000 0.215359
O O2 0.358822 0.553518 0.220028
O O3 0.206645 0.636538 0.203486
O O4 0.324910 0.640492 0.967781
O O5 0.707734 0.618066 0.737447
O O6 0.536762 0.584456 0.771293
O O7 0.650938 0.581358 0.013993
O O8 0.826541 0.750000 0.785295
O O9 0.872826 0.927915 0.815050
O O10 0.398359 0.250000 0.871307
O O11 0.456148 0.087516 0.751730
O O12 0.500000 0.000000 0.500000
#
# Coordination Sequence:
#
# PCOD8254307 Si02
#       5
#     8   8   8   8   8
#     4  10  21  40  70  98 132 177 225 278 345 412
#     4  12  23  44  69 101 136 181 231 285 351 411
#     4  11  25  45  70 100 136 179 227 283 346 414
#     4  11  24  43  69 103 138 181 232 288 354 422
#     4  12  27  44  70 101 139 187 232 289 347 417
#
# _framework density 22.306554999999999
#
# number of rings (size 3 to 8) (size 9 to 14) (size 15 to 20)
#    0.000    0.800    4.000    2.400    2.800    3.200 
#    0.000    0.000    0.000    0.000    0.000    0.000 
#    0.000    0.000    0.000    0.000    0.000    0.000 
#
# Total GULP energy -495835.405655 kJ/mol
# GULP energy per Si atom -12395.885141 kJ/mol
# Density = 2.225578 g / cm^3
# Si number density = 22.306555 Si / 1000 Ang^3
#
#
#
# Elastic Constant Matrix: (Units=GPa)
#
#
# Indices 1 2 3 4 5 6 
#
# 1 91.8507 29.4756 11.5393 0.0000 0.0000 0.0000
# 2 29.4756 132.4857 28.7409 0.0000 0.0000 0.0000
# 3 11.5393 28.7409 52.6765 0.0000 0.0000 0.0000
# 4 0.0000 0.0000 0.0000 28.2955 0.0000 0.0000
# 5 0.0000 0.0000 0.0000 0.0000 41.8248 0.0000
# 6 0.0000 0.0000 0.0000 0.0000 0.0000 26.6388
#
#
#
# Elastic Compliance Matrix: (Units=1/GPa)
#
#
# Indices 1 2 3 4 5 6 
#
# 1 0.011803 -0.002342 -0.001308 0.000000 0.000000 0.000000
# 2 -0.002342 0.009026 -0.004412 0.000000 0.000000 0.000000
# 3 -0.001308 -0.004412 0.021677 0.000000 0.000000 0.000000
# 4 0.000000 0.000000 0.000000 0.035341 0.000000 0.000000
# 5 0.000000 0.000000 0.000000 0.000000 0.023909 0.000000
# 6 0.000000 0.000000 0.000000 0.000000 0.000000 0.037539
#
#
# Mechanical properties :
#
#
# Convention : Reuss Voigt Hill
#
# Bulk Modulus (GPa) = 37.90253 46.28049 42.09151
# Shear Modulus (GPa) = 30.44805 33.16895 31.80850
#
# Velocity S-wave (km/s) = 3.69857 3.86030 3.78030
# Velocity P-wave (km/s) = 5.93867 6.37665 6.16155
#
# Compressibility (1/GPa) = 0.02638347
#
# Stress axis : x y z
#
# Youngs Moduli (GPa) = 84.72294 110.78916 46.13121
#
# Poissons Ratio (x) = 0.25950 0.06032
# Poissons Ratio (y) = 0.19845 0.20352
# Poissons Ratio (z) = 0.11078 0.48876
#
# Static dielectric constant tensor:
#      x y z
#    x 3.969560 0.000000 0.000000 
#    y 0.000000 4.592710 0.000000 
#    z 0.000000 0.000000 3.898790 
# 
# 
# High freq. dielectric constant tensor:
#      x y z
#    x 1.874130 0.000000 0.000000 
#    y 0.000000 1.894690 0.000000 
#    z 0.000000 0.000000 1.871410 
# 
# From -- ./inp_files/6133.got.cif
#   From: 2010.03.12/outbox.cif.g09.slc.cpg/sg62_4_cif.got.tgz:6133.got - 2010.04.10 19:12:36.
