data_PCOD8254686
_publ_section_title
;
Structure prediction by ZEFSAII (Michael W. Deem and Ramdas Pophale) SiO2 
 PCOD8254686
Probable space group: P N M A
;
_chemical_formula_sum "Si O2"
_cell_formula_units_Z 56
_cell_length_a 19.536803
_cell_length_b 14.313897
_cell_length_c 9.366804
_cell_angle_alpha 90.000000
_cell_angle_beta 90.000000
_cell_angle_gamma 90.000000
_cell_volume 2619.405999
_symmetry_space_group_name_H-M "P N M A"
_symmetry_group_IT_number 62
_symmetry_cell_setting 'orthorhombic'
loop_
_space_group_symop_operation_xyz
x,y,z
1/2-x,-y,1/2+z
1/2+x,1/2-y,1/2-z
-x,1/2+y,-z
-x,-y,-z
1/2+x,y,1/2-z
1/2-x,1/2+y,1/2+z
x,1/2-y,z
loop_
_atom_site_type_symbol
_atom_site_label
_atom_site_fract_x
_atom_site_fract_y
_atom_site_fract_z
Si Si1 0.936557 0.858795 0.658618
Si Si2 0.830411 0.457630 0.010630
Si Si3 0.217741 0.144170 0.323168
Si Si4 0.534605 0.520846 0.648646
Si Si5 0.510501 0.356971 0.845837
Si Si6 0.644794 0.642836 0.216476
Si Si7 0.264247 0.854828 0.503761
O O1 0.941317 0.750000 0.694018
O O2 0.859531 0.896405 0.684282
O O3 0.958768 0.881938 0.498677
O O4 0.988073 0.908807 0.764452
O O5 0.759645 0.413023 0.060700
O O6 0.892771 0.429478 0.114611
O O7 0.824143 0.570190 0.022100
O O8 0.842945 0.425643 0.848809
O O9 0.214086 0.250000 0.379290
O O10 0.255879 0.138132 0.170728
O O11 0.500000 0.500000 0.500000
O O12 0.546736 0.423821 0.731685
O O13 0.526192 0.250000 0.803259
O O14 0.429488 0.377128 0.849487
O O15 0.651074 0.750000 0.268983
O O16 0.698453 0.620893 0.091370
O O17 0.291803 0.750000 0.469783
#
# Coordination Sequence:
#
# PCOD8254686 Si02
#       7
#     8   8   8   8   8   8   8
#     4  10  24  45  69  95 135 181 223 278 339 407
#     4  12  24  39  67  98 132 169 217 279 333 387
#     4  10  23  43  66  96 129 168 220 273 330 394
#     4  12  25  41  64  99 135 174 222 276 338 403
#     4  10  23  44  68  95 132 176 222 275 334 407
#     4  10  22  42  65  94 131 170 218 273 331 398
#     4  10  23  41  63  90 128 174 216 265 329 397
#
# _framework density 21.378893000000001
#
# number of rings (size 3 to 8) (size 9 to 14) (size 15 to 20)
#    0.000    1.429    1.429    2.571    4.000    4.571 
#    0.000    2.857    0.000    0.000    0.000    0.000 
#    0.000    0.000    0.000    0.000    0.000    0.000 
#
# Total GULP energy -694542.328905 kJ/mol
# GULP energy per Si atom -12402.541588 kJ/mol
# Density = 2.133023 g / cm^3
# Si number density = 21.378893 Si / 1000 Ang^3
#
#
#
# Elastic Constant Matrix: (Units=GPa)
#
#
# Indices 1 2 3 4 5 6 
#
# 1 117.3565 56.5609 66.0988 0.0000 0.0000 0.0000
# 2 56.5609 86.3895 60.2566 0.0000 0.0000 0.0000
# 3 66.0988 60.2566 142.0422 0.0000 0.0000 0.0000
# 4 0.0000 0.0000 0.0000 34.5578 0.0000 0.0000
# 5 0.0000 0.0000 0.0000 0.0000 43.6875 0.0000
# 6 0.0000 0.0000 0.0000 0.0000 0.0000 27.3575
#
#
#
# Elastic Compliance Matrix: (Units=1/GPa)
#
#
# Indices 1 2 3 4 5 6 
#
# 1 0.013657 -0.006403 -0.003639 0.000000 0.000000 0.000000
# 2 -0.006403 0.019442 -0.005268 0.000000 0.000000 0.000000
# 3 -0.003639 -0.005268 0.010968 0.000000 0.000000 0.000000
# 4 0.000000 0.000000 0.000000 0.028937 0.000000 0.000000
# 5 0.000000 0.000000 0.000000 0.000000 0.022890 0.000000
# 6 0.000000 0.000000 0.000000 0.000000 0.000000 0.036553
#
#
# Mechanical properties :
#
#
# Convention : Reuss Voigt Hill
#
# Bulk Modulus (GPa) = 74.36516 79.06897 76.71707
# Shear Modulus (GPa) = 29.84202 31.97868 30.91035
#
# Velocity S-wave (km/s) = 3.74018 3.87176 3.80654
# Velocity P-wave (km/s) = 7.31518 7.55330 7.43519
#
# Compressibility (1/GPa) = 0.01344716
#
# Stress axis : x y z
#
# Youngs Moduli (GPa) = 73.22503 51.43451 91.17301
#
# Poissons Ratio (x) = 0.32935 0.33175
# Poissons Ratio (y) = 0.46888 0.48030
# Poissons Ratio (z) = 0.26644 0.27096
#
# Static dielectric constant tensor:
#      x y z
#    x 3.228110 0.000000 0.000000 
#    y 0.000000 4.114450 0.000000 
#    z 0.000000 0.000000 3.426520 
# 
# 
# High freq. dielectric constant tensor:
#      x y z
#    x 1.837110 0.000000 0.000000 
#    y 0.000000 1.853700 0.000000 
#    z 0.000000 0.000000 1.841530 
# 
# From -- ./inp_files/8730.got.cif
#   From: 2010.03.12/outbox.cif.g09.slc.cpg/sg62_5_cif.got.tgz:8730.got - 2010.04.10 19:12:36.
