data_PCOD8254199
_publ_section_title
;
Structure prediction by ZEFSAII (Michael W. Deem and Ramdas Pophale) SiO2 
 PCOD8254199
Probable space group: P N M A
;
_chemical_formula_sum "Si O2"
_cell_formula_units_Z 56
_cell_length_a 9.718199
_cell_length_b 17.799438
_cell_length_c 15.563587
_cell_angle_alpha 90.000000
_cell_angle_beta 90.000000
_cell_angle_gamma 90.000000
_cell_volume 2692.165632
_symmetry_space_group_name_H-M "P N M A"
_symmetry_group_IT_number 62
_symmetry_cell_setting 'orthorhombic'
loop_
_space_group_symop_operation_xyz
x,y,z
1/2-x,-y,1/2+z
1/2+x,1/2-y,1/2-z
-x,1/2+y,-z
-x,-y,-z
1/2+x,y,1/2-z
1/2-x,1/2+y,1/2+z
x,1/2-y,z
loop_
_atom_site_type_symbol
_atom_site_label
_atom_site_fract_x
_atom_site_fract_y
_atom_site_fract_z
Si Si1 0.159022 0.501348 0.394029
Si Si2 0.515519 0.610691 0.998961
Si Si3 0.597090 0.667327 0.830274
Si Si4 0.142122 0.338534 0.662702
Si Si5 0.900191 0.840067 0.816102
Si Si6 0.084826 0.919716 0.227374
Si Si7 0.537749 0.531169 0.591135
O O1 0.034674 0.451697 0.430418
O O2 0.140956 0.519686 0.294489
O O3 0.299231 0.457294 0.407112
O O4 0.147486 0.579531 0.448359
O O5 0.565849 0.674134 0.932418
O O6 0.398678 0.638726 0.064972
O O7 0.615561 0.750000 0.792938
O O8 0.472652 0.633352 0.773166
O O9 0.743942 0.628026 0.811850
O O10 0.159345 0.250000 0.668779
O O11 0.287865 0.375473 0.685462
O O12 0.023030 0.362752 0.728832
O O13 0.907030 0.750000 0.834980
O O14 0.972879 0.886567 0.892584
O O15 0.005303 0.966806 0.156777
O O16 0.500000 0.500000 0.500000
#
# Coordination Sequence:
#
# PCOD8254199 Si02
#       7
#     8   8   8   8   8   8   8
#     4  10  22  40  61  94 125 163 214 260 316 376
#     4  10  21  39  66  93 126 164 213 267 319 383
#     4  10  21  40  61  89 124 166 208 256 323 387
#     4  11  23  42  66  96 132 173 217 269 324 384
#     4  10  24  41  64  94 131 169 213 266 328 391
#     4  11  23  42  65  93 130 172 219 262 320 387
#     4  12  24  40  66  93 128 166 217 268 320 375
#
# _framework density 20.801100000000002
#
# number of rings (size 3 to 8) (size 9 to 14) (size 15 to 20)
#    0.000    1.429    1.429    3.429    4.000    2.286 
#    0.000    3.571    0.000    0.000    0.000    0.000 
#    0.000    0.000    0.000    0.000    0.000    0.000 
#
# Total GULP energy -694115.146013 kJ/mol
# GULP energy per Si atom -12394.913322 kJ/mol
# Density = 2.075376 g / cm^3
# Si number density = 20.801100 Si / 1000 Ang^3
#
#
#
# Elastic Constant Matrix: (Units=GPa)
#
#
# Indices 1 2 3 4 5 6 
#
# 1 117.8431 19.6825 39.0026 0.0000 0.0000 0.0000
# 2 19.6825 75.1706 29.8353 0.0000 0.0000 0.0000
# 3 39.0026 29.8353 135.2123 0.0000 0.0000 0.0000
# 4 0.0000 0.0000 0.0000 31.7235 0.0000 0.0000
# 5 0.0000 0.0000 0.0000 0.0000 30.9224 0.0000
# 6 0.0000 0.0000 0.0000 0.0000 0.0000 28.5433
#
#
#
# Elastic Compliance Matrix: (Units=1/GPa)
#
#
# Indices 1 2 3 4 5 6 
#
# 1 0.009542 -0.001541 -0.002412 0.000000 0.000000 0.000000
# 2 -0.001541 0.014829 -0.002828 0.000000 0.000000 0.000000
# 3 -0.002412 -0.002828 0.008716 0.000000 0.000000 0.000000
# 4 0.000000 0.000000 0.000000 0.031522 0.000000 0.000000
# 5 0.000000 0.000000 0.000000 0.000000 0.032339 0.000000
# 6 0.000000 0.000000 0.000000 0.000000 0.000000 0.035034
#
#
# Mechanical properties :
#
#
# Convention : Reuss Voigt Hill
#
# Bulk Modulus (GPa) = 51.21802 56.14076 53.67939
# Shear Modulus (GPa) = 32.88359 34.21822 33.55090
#
# Velocity S-wave (km/s) = 3.98031 4.06028 4.02050
# Velocity P-wave (km/s) = 6.76757 7.00208 6.88583
#
# Compressibility (1/GPa) = 0.01952438
#
# Stress axis : x y z
#
# Youngs Moduli (GPa) = 104.80385 67.43630 114.73764
#
# Poissons Ratio (x) = 0.10391 0.27678
# Poissons Ratio (y) = 0.16149 0.32443
# Poissons Ratio (z) = 0.25282 0.19068
#
# Static dielectric constant tensor:
#      x y z
#    x 3.865130 0.000000 0.000000 
#    y 0.000000 3.717530 0.000000 
#    z 0.000000 0.000000 3.939890 
# 
# 
# High freq. dielectric constant tensor:
#      x y z
#    x 1.819960 0.000000 0.000000 
#    y 0.000000 1.810370 0.000000 
#    z 0.000000 0.000000 1.823360 
# 
# From -- ./inp_files/17219.got.cif
#   From: 2010.03.12/outbox.cif.g09.slc.cpg/sg62_9_cif.got.tgz:17219.got - 2010.04.10 19:12:36.
