data_PCOD8254939
_publ_section_title
;
Structure prediction by ZEFSAII (Michael W. Deem and Ramdas Pophale) SiO2 
 PCOD8254939
Probable space group: P N M A
;
_chemical_formula_sum "Si O2"
_cell_formula_units_Z 40
_cell_length_a 10.473767
_cell_length_b 29.413484
_cell_length_c 4.846118
_cell_angle_alpha 90.000000
_cell_angle_beta 90.000000
_cell_angle_gamma 90.000000
_cell_volume 1492.943466
_symmetry_space_group_name_H-M "P N M A"
_symmetry_group_IT_number 62
_symmetry_cell_setting 'orthorhombic'
loop_
_space_group_symop_operation_xyz
x,y,z
1/2-x,-y,1/2+z
1/2+x,1/2-y,1/2-z
-x,1/2+y,-z
-x,-y,-z
1/2+x,y,1/2-z
1/2-x,1/2+y,1/2+z
x,1/2-y,z
loop_
_atom_site_type_symbol
_atom_site_label
_atom_site_fract_x
_atom_site_fract_y
_atom_site_fract_z
Si Si1 0.840013 0.250000 0.963431
Si Si2 0.423728 0.902059 0.258092
Si Si3 0.267823 0.528636 0.566417
Si Si4 0.738142 0.673519 0.103002
Si Si5 0.607594 0.250000 0.340252
Si Si6 0.089974 0.892201 0.746878
O O1 0.692710 0.250000 0.065166
O O2 0.952633 0.250000 0.197133
O O3 0.856769 0.295833 0.785767
O O4 0.388402 0.949854 0.404151
O O5 0.299890 0.869455 0.239583
O O6 0.469017 0.906338 0.943975
O O7 0.541768 0.882952 0.441585
O O8 0.312407 0.495589 0.817291
O O9 0.187972 0.566458 0.729732
O O10 0.653761 0.655136 0.848138
O O11 0.855317 0.704311 0.001132
#
# Coordination Sequence:
#
# PCOD8254939 Si02
#       6
#     4   8   8   8   4   8
#     4  11  26  48  71 114 144 200 248 314 374 445
#     4  11  25  43  71 100 140 189 240 301 369 439
#     4  11  24  43  66 101 141 180 241 300 365 443
#     4  10  26  45  69 101 148 187 251 305 372 446
#     4  11  26  44  77 104 150 194 252 312 374 445
#     4  11  25  43  70 101 139 190 240 300 371 437
#
# _framework density 26.79271
#
# number of rings (size 3 to 8) (size 9 to 14) (size 15 to 20)
#    0.000    1.200    0.000    3.600    8.400   11.200 
#    0.000    0.000    0.000    0.000    0.000    0.000 
#    0.000    0.000    0.000    0.000    0.000    0.000 
#
# Total GULP energy -495956.764790 kJ/mol
# GULP energy per Si atom -12398.919120 kJ/mol
# Density = 2.673173 g / cm^3
# Si number density = 26.792710 Si / 1000 Ang^3
#
#
#
# Elastic Constant Matrix: (Units=GPa)
#
#
# Indices 1 2 3 4 5 6 
#
# 1 88.7750 17.5302 -2.7202 0.0000 0.0000 0.0000
# 2 17.5302 99.9819 12.3524 0.0000 0.0000 0.0000
# 3 -2.7202 12.3524 64.7149 0.0000 0.0000 0.0000
# 4 0.0000 0.0000 0.0000 8.9442 0.0000 0.0000
# 5 0.0000 0.0000 0.0000 0.0000 48.1724 0.0000
# 6 0.0000 0.0000 0.0000 0.0000 0.0000 14.6504
#
#
#
# Elastic Compliance Matrix: (Units=1/GPa)
#
#
# Indices 1 2 3 4 5 6 
#
# 1 0.011720 -0.002167 0.000906 0.000000 0.000000 0.000000
# 2 -0.002167 0.010644 -0.002123 0.000000 0.000000 0.000000
# 3 0.000906 -0.002123 0.015896 0.000000 0.000000 0.000000
# 4 0.000000 0.000000 0.000000 0.111804 0.000000 0.000000
# 5 0.000000 0.000000 0.000000 0.000000 0.020759 0.000000
# 6 0.000000 0.000000 0.000000 0.000000 0.000000 0.068257
#
#
# Mechanical properties :
#
#
# Convention : Reuss Voigt Hill
#
# Bulk Modulus (GPa) = 31.75314 34.19964 32.97639
# Shear Modulus (GPa) = 19.50501 29.44072 24.47286
#
# Velocity S-wave (km/s) = 2.70107 3.31846 3.02555
# Velocity P-wave (km/s) = 4.64810 5.24167 4.95379
#
# Compressibility (1/GPa) = 0.03149295
#
# Stress axis : x y z
#
# Youngs Moduli (GPa) = 85.32356 93.94967 62.91027
#
# Poissons Ratio (x) = 0.20358 -0.05701
# Poissons Ratio (y) = 0.18489 0.13354
# Poissons Ratio (z) = -0.07732 0.19943
#
# Static dielectric constant tensor:
#      x y z
#    x 4.513350 0.000000 0.000000 
#    y 0.000000 5.073490 0.000000 
#    z 0.000000 0.000000 4.657240 
# 
# 
# High freq. dielectric constant tensor:
#      x y z
#    x 2.062990 0.000000 0.000000 
#    y 0.000000 2.092980 0.000000 
#    z 0.000000 0.000000 2.074000 
# 
# From -- ./inp_files/649.got.cif
#   From: 2010.03.12/outbox.cif.g09.slc.cpg/sg62_1_cif.got.tgz:649.got - 2010.04.10 19:12:36.
