data_PCOD8254091
_publ_section_title
;
Structure prediction by ZEFSAII (Michael W. Deem and Ramdas Pophale) SiO2 
 PCOD8254091
Probable space group: P N M A
;
_chemical_formula_sum "Si O2"
_cell_formula_units_Z 48
_cell_length_a 9.330978
_cell_length_b 8.603463
_cell_length_c 30.353100
_cell_angle_alpha 90.000000
_cell_angle_beta 90.000000
_cell_angle_gamma 90.000000
_cell_volume 2436.708137
_symmetry_space_group_name_H-M "P N M A"
_symmetry_group_IT_number 62
_symmetry_cell_setting 'orthorhombic'
loop_
_space_group_symop_operation_xyz
x,y,z
1/2-x,-y,1/2+z
1/2+x,1/2-y,1/2-z
-x,1/2+y,-z
-x,-y,-z
1/2+x,y,1/2-z
1/2-x,1/2+y,1/2+z
x,1/2-y,z
loop_
_atom_site_type_symbol
_atom_site_label
_atom_site_fract_x
_atom_site_fract_y
_atom_site_fract_z
Si Si1 0.916504 0.928150 0.883998
Si Si2 0.588541 0.566383 0.877847
Si Si3 0.616526 0.429811 0.786804
Si Si4 0.409743 0.930921 0.460508
Si Si5 0.083996 0.935055 0.458523
Si Si6 0.580370 0.427713 0.283221
O O1 0.935592 0.750000 0.898401
O O2 0.751397 0.978787 0.890595
O O3 0.965502 0.954258 0.833779
O O4 0.017790 0.032848 0.913889
O O5 0.573919 0.750000 0.871320
O O6 0.543583 0.481935 0.832590
O O7 0.481723 0.506976 0.914709
O O8 0.660786 0.250000 0.789095
O O9 0.752789 0.536931 0.777572
O O10 0.506641 0.454792 0.747139
O O11 0.405588 0.750000 0.468023
O O12 0.247546 0.994524 0.461504
O O13 0.500000 0.000000 0.500000
O O14 0.072343 0.750000 0.457081
O O15 0.000000 0.000000 0.500000
O O16 0.553036 0.250000 0.268886
#
# Coordination Sequence:
#
# PCOD8254091 Si02
#       6
#     8   8   8   8   8   8
#     4   9  20  38  60  84 111 145 189 233 279 336
#     4  10  21  39  61  85 114 151 192 236 287 346
#     4  11  22  37  59  88 119 153 195 244 292 343
#     4  11  24  39  58  84 115 147 185 231 281 337
#     4  11  24  40  58  85 116 149 190 236 285 342
#     4  10  21  39  60  84 117 157 196 238 289 348
#
# _framework density 19.698709000000001
#
# number of rings (size 3 to 8) (size 9 to 14) (size 15 to 20)
#    0.000    1.667    0.000    5.500    0.000   12.000 
#    0.000    3.333    0.000    0.000    0.000    0.000 
#    0.000    0.000    0.000    0.000    0.000    0.000 
#
# Total GULP energy -595434.423734 kJ/mol
# GULP energy per Si atom -12404.883828 kJ/mol
# Density = 1.965387 g / cm^3
# Si number density = 19.698709 Si / 1000 Ang^3
#
#
#
# Elastic Constant Matrix: (Units=GPa)
#
#
# Indices 1 2 3 4 5 6 
#
# 1 113.8432 34.4244 70.8016 0.0000 0.0000 0.0000
# 2 34.4244 76.3330 35.9949 0.0000 0.0000 0.0000
# 3 70.8016 35.9949 124.0747 0.0000 0.0000 0.0000
# 4 0.0000 0.0000 0.0000 37.9509 0.0000 0.0000
# 5 0.0000 0.0000 0.0000 0.0000 38.9133 0.0000
# 6 0.0000 0.0000 0.0000 0.0000 0.0000 33.3310
#
#
#
# Elastic Compliance Matrix: (Units=1/GPa)
#
#
# Indices 1 2 3 4 5 6 
#
# 1 0.014181 -0.002988 -0.007225 0.000000 0.000000 0.000000
# 2 -0.002988 0.015806 -0.002880 0.000000 0.000000 0.000000
# 3 -0.007225 -0.002880 0.013018 0.000000 0.000000 0.000000
# 4 0.000000 0.000000 0.000000 0.026350 0.000000 0.000000
# 5 0.000000 0.000000 0.000000 0.000000 0.025698 0.000000
# 6 0.000000 0.000000 0.000000 0.000000 0.000000 0.030002
#
#
# Mechanical properties :
#
#
# Convention : Reuss Voigt Hill
#
# Bulk Modulus (GPa) = 59.46027 66.29918 62.87973
# Shear Modulus (GPa) = 31.87757 33.57439 32.72598
#
# Velocity S-wave (km/s) = 4.02712 4.13291 4.08036
# Velocity P-wave (km/s) = 7.20236 7.51693 7.36133
#
# Compressibility (1/GPa) = 0.01681795
#
# Stress axis : x y z
#
# Youngs Moduli (GPa) = 70.51546 63.26570 76.81459
#
# Poissons Ratio (x) = 0.18905 0.55502
# Poissons Ratio (y) = 0.21072 0.22125
# Poissons Ratio (z) = 0.50951 0.18222
#
# Static dielectric constant tensor:
#      x y z
#    x 4.204130 0.000000 0.000000 
#    y 0.000000 3.599240 0.000000 
#    z 0.000000 0.000000 3.761560 
# 
# 
# High freq. dielectric constant tensor:
#      x y z
#    x 1.766000 0.000000 0.000000 
#    y 0.000000 1.776060 0.000000 
#    z 0.000000 0.000000 1.780370 
# 
# From -- ./inp_files/31942.got.cif
#   From: 2010.03.12/outbox.cif.g09.slc.cpg/sg62_16_cif.got.tgz:31942.got - 2010.04.10 19:12:36.
