data_PCOD8254746
_publ_section_title
;
Structure prediction by ZEFSAII (Michael W. Deem and Ramdas Pophale) SiO2 
 PCOD8254746
Probable space group: P N M A
;
_chemical_formula_sum "Si O2"
_cell_formula_units_Z 48
_cell_length_a 16.443450
_cell_length_b 15.382290
_cell_length_c 8.750429
_cell_angle_alpha 90.000000
_cell_angle_beta 90.000000
_cell_angle_gamma 90.000000
_cell_volume 2213.315280
_symmetry_space_group_name_H-M "P N M A"
_symmetry_group_IT_number 62
_symmetry_cell_setting 'orthorhombic'
loop_
_space_group_symop_operation_xyz
x,y,z
1/2-x,-y,1/2+z
1/2+x,1/2-y,1/2-z
-x,1/2+y,-z
-x,-y,-z
1/2+x,y,1/2-z
1/2-x,1/2+y,1/2+z
x,1/2-y,z
loop_
_atom_site_type_symbol
_atom_site_label
_atom_site_fract_x
_atom_site_fract_y
_atom_site_fract_z
Si Si1 0.178608 0.845375 0.888515
Si Si2 0.211946 0.854338 0.549996
Si Si3 0.153382 0.151136 0.523125
Si Si4 0.082044 0.983636 0.408169
Si Si5 0.133363 0.348083 0.860432
Si Si6 0.034296 0.918693 0.078418
O O1 0.144393 0.750000 0.856217
O O2 0.213227 0.881769 0.728194
O O3 0.250000 0.843906 0.011894
O O4 0.105197 0.895671 0.962638
O O5 0.198888 0.750000 0.526936
O O6 0.297820 0.887369 0.474838
O O7 0.138008 0.909626 0.482674
O O8 0.117104 0.250000 0.496039
O O9 0.121607 0.080417 0.399795
O O10 0.134565 0.110449 0.690557
O O11 0.066565 0.942749 0.243880
O O12 0.000000 0.000000 0.500000
O O13 0.160422 0.250000 0.836414
O O14 0.040746 0.350825 0.920826
O O15 0.000000 0.000000 0.000000
#
# Coordination Sequence:
#
# PCOD8254746 Si02
#       6
#     8   8   8   8   8   8
#     4  10  23  44  67  97 134 178 228 277 336 405
#     4  10  24  44  71 101 136 181 225 277 340 413
#     4  10  23  43  69  97 132 178 229 280 338 405
#     4  12  25  43  68 101 135 178 231 286 344 402
#     4  10  22  44  69  97 134 180 227 278 342 411
#     4  12  26  41  65 101 136 178 222 283 344 407
#
# _framework density 21.686924999999999
#
# number of rings (size 3 to 8) (size 9 to 14) (size 15 to 20)
#    0.000    1.333    1.667    2.500    4.667    3.333 
#    0.000    0.833    0.000    0.000    0.000    0.000 
#    0.000    0.000    0.000    0.000    0.000    0.000 
#
# Total GULP energy -594655.381920 kJ/mol
# GULP energy per Si atom -12388.653790 kJ/mol
# Density = 2.163756 g / cm^3
# Si number density = 21.686925 Si / 1000 Ang^3
#
#
#
# Elastic Constant Matrix: (Units=GPa)
#
#
# Indices 1 2 3 4 5 6 
#
# 1 123.9454 49.6199 47.8219 0.0000 0.0000 0.0000
# 2 49.6199 83.9877 33.2826 0.0000 0.0000 0.0000
# 3 47.8219 33.2826 108.1291 0.0000 0.0000 0.0000
# 4 0.0000 0.0000 0.0000 31.0920 0.0000 0.0000
# 5 0.0000 0.0000 0.0000 0.0000 42.9816 0.0000
# 6 0.0000 0.0000 0.0000 0.0000 0.0000 43.0466
#
#
#
# Elastic Compliance Matrix: (Units=1/GPa)
#
#
# Indices 1 2 3 4 5 6 
#
# 1 0.011590 -0.005485 -0.003438 0.000000 0.000000 0.000000
# 2 -0.005485 0.016157 -0.002547 0.000000 0.000000 0.000000
# 3 -0.003438 -0.002547 0.011553 0.000000 0.000000 0.000000
# 4 0.000000 0.000000 0.000000 0.032163 0.000000 0.000000
# 5 0.000000 0.000000 0.000000 0.000000 0.023266 0.000000
# 6 0.000000 0.000000 0.000000 0.000000 0.000000 0.023231
#
#
# Mechanical properties :
#
#
# Convention : Reuss Voigt Hill
#
# Bulk Modulus (GPa) = 61.12682 64.16789 62.64735
# Shear Modulus (GPa) = 34.16427 35.77992 34.97209
#
# Velocity S-wave (km/s) = 3.97336 4.06623 4.02006
# Velocity P-wave (km/s) = 7.02121 7.19014 7.10618
#
# Compressibility (1/GPa) = 0.01635943
#
# Stress axis : x y z
#
# Youngs Moduli (GPa) = 86.27836 61.89426 86.56091
#
# Poissons Ratio (x) = 0.33951 0.29756
# Poissons Ratio (y) = 0.47327 0.22048
# Poissons Ratio (z) = 0.29659 0.15765
#
# Static dielectric constant tensor:
#      x y z
#    x 3.835690 0.000000 0.000000 
#    y 0.000000 4.125810 0.000000 
#    z 0.000000 0.000000 4.098170 
# 
# 
# High freq. dielectric constant tensor:
#      x y z
#    x 1.859990 0.000000 0.000000 
#    y 0.000000 1.854360 0.000000 
#    z 0.000000 0.000000 1.859280 
# 
# From -- ./inp_files/7665.got.cif
#   From: 2010.03.12/outbox.cif.g09.slc.cpg/sg62_4_cif.got.tgz:7665.got - 2010.04.10 19:12:36.
