data_PCOD8254314
_publ_section_title
;
Structure prediction by ZEFSAII (Michael W. Deem and Ramdas Pophale) SiO2 
 PCOD8254314
Probable space group: P N M A
;
_chemical_formula_sum "Si O2"
_cell_formula_units_Z 48
_cell_length_a 11.646936
_cell_length_b 14.932432
_cell_length_c 13.957763
_cell_angle_alpha 90.000000
_cell_angle_beta 90.000000
_cell_angle_gamma 90.000000
_cell_volume 2427.493382
_symmetry_space_group_name_H-M "P N M A"
_symmetry_group_IT_number 62
_symmetry_cell_setting 'orthorhombic'
loop_
_space_group_symop_operation_xyz
x,y,z
1/2-x,-y,1/2+z
1/2+x,1/2-y,1/2-z
-x,1/2+y,-z
-x,-y,-z
1/2+x,y,1/2-z
1/2-x,1/2+y,1/2+z
x,1/2-y,z
loop_
_atom_site_type_symbol
_atom_site_label
_atom_site_fract_x
_atom_site_fract_y
_atom_site_fract_z
Si Si1 0.576492 0.650636 0.372445
Si Si2 0.457994 0.084342 0.824422
Si Si3 0.921287 0.250000 0.389835
Si Si4 0.916595 0.750000 0.003323
Si Si5 0.607002 0.384391 0.146811
Si Si6 0.823935 0.647366 0.435111
Si Si7 0.176868 0.250000 0.199580
Si Si8 0.336671 0.250000 0.908019
O O1 0.598086 0.750000 0.329181
O O2 0.518644 0.590294 0.289604
O O3 0.487043 0.660990 0.461706
O O4 0.698889 0.609378 0.405000
O O5 0.576717 0.090659 0.882924
O O6 0.363554 0.159732 0.849627
O O7 0.399344 0.990176 0.845801
O O8 0.794960 0.250000 0.353676
O O9 0.926756 0.250000 0.504512
O O10 0.981218 0.159869 0.352778
O O11 0.915306 0.750000 0.887645
O O12 0.793606 0.750000 0.055610
O O13 0.671676 0.339956 0.236994
O O14 0.672146 0.359766 0.049465
O O15 0.838256 0.750000 0.402784
#
# Coordination Sequence:
#
# PCOD8254314 Si02
#       8
#     8   8   4   4   8   8   4   4
#     4   9  22  38  63  89 122 169 206 248 317 377
#     4  12  22  37  63 100 126 161 209 263 315 373
#     4  10  21  41  62  91 117 169 211 263 315 370
#     4   9  22  42  64  84 127 169 202 255 316 374
#     4  11  23  40  64  95 124 162 220 262 310 380
#     4  11  20  39  66  89 124 166 214 260 314 372
#     4  10  23  44  63  88 127 170 209 258 326 371
#     4  11  20  37  65  85 129 160 200 264 315 367
#
# _framework density 19.773482000000001
#
# number of rings (size 3 to 8) (size 9 to 14) (size 15 to 20)
#    0.500    1.000    5.000    0.500    2.333    4.000 
#    3.000    0.833    0.000    0.000    0.000    0.000 
#    0.000    0.000    0.000    0.000    0.000    0.000 
#
# Total GULP energy -594989.493884 kJ/mol
# GULP energy per Si atom -12395.614456 kJ/mol
# Density = 1.972848 g / cm^3
# Si number density = 19.773482 Si / 1000 Ang^3
#
#
#
# Elastic Constant Matrix: (Units=GPa)
#
#
# Indices 1 2 3 4 5 6 
#
# 1 75.6278 17.0701 32.5722 0.0000 0.0000 0.0000
# 2 17.0701 108.4614 23.1141 0.0000 0.0000 0.0000
# 3 32.5722 23.1141 126.0409 0.0000 0.0000 0.0000
# 4 0.0000 0.0000 0.0000 4.9076 0.0000 0.0000
# 5 0.0000 0.0000 0.0000 0.0000 25.1808 0.0000
# 6 0.0000 0.0000 0.0000 0.0000 0.0000 -4.7641
#
#
#
# Elastic Compliance Matrix: (Units=1/GPa)
#
#
# Indices 1 2 3 4 5 6 
#
# 1 0.015145 -0.001613 -0.003618 0.000000 0.000000 0.000000
# 2 -0.001613 0.009767 -0.001374 0.000000 0.000000 0.000000
# 3 -0.003618 -0.001374 0.009121 0.000000 0.000000 0.000000
# 4 0.000000 0.000000 0.000000 0.203767 0.000000 0.000000
# 5 0.000000 0.000000 0.000000 0.000000 0.039713 0.000000
# 6 0.000000 0.000000 0.000000 0.000000 0.000000 -0.209905
#
#
# Mechanical properties :
#
#
# Convention : Reuss Voigt Hill
#
# Bulk Modulus (GPa) = 48.02500 50.62702 49.32601
# Shear Modulus (GPa) = 56.97458 20.88976 38.93217
#
# Velocity S-wave (km/s) = 5.37366 3.25384 4.44205
# Velocity P-wave (km/s) = 7.92729 6.30680 7.16302
#
# Compressibility (1/GPa) = 0.02082249
#
# Stress axis : x y z
#
# Youngs Moduli (GPa) = 66.02875 102.39049 109.63731
#
# Poissons Ratio (x) = 0.16511 0.39668
# Poissons Ratio (y) = 0.10647 0.15068
# Poissons Ratio (z) = 0.23890 0.14072
#
# Static dielectric constant tensor:
#      x y z
#    x 3.504190 0.000000 0.000000 
#    y 0.000000 3.677870 0.000000 
#    z 0.000000 0.000000 3.797220 
# 
# 
# High freq. dielectric constant tensor:
#      x y z
#    x 1.768600 0.000000 0.000000 
#    y 0.000000 1.743500 0.000000 
#    z 0.000000 0.000000 1.782410 
# 
# From -- ./inp_files/18040.got.cif
#   From: 2010.03.12/outbox.cif.g09.slc.cpg/sg62_10_cif.got.tgz:18040.got - 2010.04.10 19:12:36.
