data_PCOD8254641
_publ_section_title
;
Structure prediction by ZEFSAII (Michael W. Deem and Ramdas Pophale) SiO2 
 PCOD8254641
Probable space group: P N M A
;
_chemical_formula_sum "Si O2"
_cell_formula_units_Z 48
_cell_length_a 5.143259
_cell_length_b 16.609807
_cell_length_c 23.811787
_cell_angle_alpha 90.000000
_cell_angle_beta 90.000000
_cell_angle_gamma 90.000000
_cell_volume 2034.206183
_symmetry_space_group_name_H-M "P N M A"
_symmetry_group_IT_number 62
_symmetry_cell_setting 'orthorhombic'
loop_
_space_group_symop_operation_xyz
x,y,z
1/2-x,-y,1/2+z
1/2+x,1/2-y,1/2-z
-x,1/2+y,-z
-x,-y,-z
1/2+x,y,1/2-z
1/2-x,1/2+y,1/2+z
x,1/2-y,z
loop_
_atom_site_type_symbol
_atom_site_label
_atom_site_fract_x
_atom_site_fract_y
_atom_site_fract_z
Si Si1 0.567272 0.904641 0.488962
Si Si2 0.213298 0.111852 0.712458
Si Si3 0.187440 0.414173 0.399064
Si Si4 0.650957 0.250000 0.550139
Si Si5 0.345963 0.750000 0.123767
Si Si6 0.696072 0.512099 0.386211
Si Si7 0.295869 0.656580 0.779968
O O1 0.740414 0.873245 0.541299
O O2 0.338288 0.835906 0.484373
O O3 0.715859 0.910237 0.428567
O O4 0.500000 0.000000 0.500000
O O5 0.484354 0.120385 0.743855
O O6 0.212770 0.028813 0.677598
O O7 0.191800 0.175636 0.664051
O O8 0.395157 0.484494 0.385409
O O9 0.195780 0.352679 0.347215
O O10 0.893473 0.444523 0.408374
O O11 0.865480 0.250000 0.598084
O O12 0.359282 0.250000 0.573946
O O13 0.542164 0.616031 0.748488
O O14 0.293213 0.750000 0.765599
#
# Coordination Sequence:
#
# PCOD8254641 Si02
#       7
#     8   8   8   4   4   8   8
#     4  10  25  46  73 104 142 181 231 289 348 411
#     4  12  25  42  67  98 136 180 236 290 339 412
#     4  11  24  41  70  96 136 177 230 281 351 423
#     4  12  26  45  76 104 136 193 226 291 349 426
#     4  12  26  45  70  96 142 181 242 275 357 408
#     4  11  24  42  66  98 136 181 219 292 351 405
#     4  10  22  41  65  93 132 174 220 287 349 408
#
# _framework density 23.596426000000001
#
# number of rings (size 3 to 8) (size 9 to 14) (size 15 to 20)
#    0.000    1.000    1.667    4.000    5.833    6.667 
#    0.000    0.000    1.833    0.000    0.000    0.000 
#    0.000    0.000    0.000    0.000    0.000    0.000 
#
# Total GULP energy -594661.766072 kJ/mol
# GULP energy per Si atom -12388.786793 kJ/mol
# Density = 2.354272 g / cm^3
# Si number density = 23.596426 Si / 1000 Ang^3
#
#
#
# Elastic Constant Matrix: (Units=GPa)
#
#
# Indices 1 2 3 4 5 6 
#
# 1 122.9849 19.4755 32.3623 0.0000 0.0000 0.0000
# 2 19.4755 67.4840 24.5092 0.0000 0.0000 0.0000
# 3 32.3623 24.5092 117.3158 0.0000 0.0000 0.0000
# 4 0.0000 0.0000 0.0000-1209.7032 0.0000 0.0000
# 5 0.0000 0.0000 0.0000 0.0000 48.5855 0.0000
# 6 0.0000 0.0000 0.0000 0.0000 0.0000 19.6257
#
#
#
# Elastic Compliance Matrix: (Units=1/GPa)
#
#
# Indices 1 2 3 4 5 6 
#
# 1 0.008971 -0.001829 -0.002093 0.000000 0.000000 0.000000
# 2 -0.001829 0.016408 -0.002923 0.000000 0.000000 0.000000
# 3 -0.002093 -0.002923 0.009712 0.000000 0.000000 0.000000
# 4 0.000000 0.000000 0.000000 -0.000827 0.000000 0.000000
# 5 0.000000 0.000000 0.000000 0.000000 0.020582 0.000000
# 6 0.000000 0.000000 0.000000 0.000000 0.000000 0.050954
#
#
# Mechanical properties :
#
#
# Convention : Reuss Voigt Hill
#
# Bulk Modulus (GPa) = 46.72646 51.16431 48.94538
# Shear Modulus (GPa) = 39.48687 -212.86921 -86.69117
#
# Velocity S-wave (km/s) = 4.09519 -9.50833 -6.06786
# Velocity P-wave (km/s) = 6.49662 9.94054 5.32016
#
# Compressibility (1/GPa) = 0.02140115
#
# Stress axis : x y z
#
# Youngs Moduli (GPa) = 111.46539 60.94626 102.96523
#
# Poissons Ratio (x) = 0.11147 0.21547
# Poissons Ratio (y) = 0.20388 0.30100
# Poissons Ratio (z) = 0.23326 0.17817
#
# Static dielectric constant tensor:
#      x y z
#    x 4.234980 0.000000 0.000000 
#    y 0.000000 3.788110 0.000000 
#    z 0.000000 0.000000 5.020470 
# 
# 
# High freq. dielectric constant tensor:
#      x y z
#    x 1.928620 0.000000 0.000000 
#    y 0.000000 1.923420 0.000000 
#    z 0.000000 0.000000 1.961680 
# 
# From -- ./inp_files/28344.got.cif
#   From: 2010.03.12/outbox.cif.g09.slc.cpg/sg62_15_cif.got.tgz:28344.got - 2010.04.10 19:12:36.
