data_PCOD8254360
_publ_section_title
;
Structure prediction by ZEFSAII (Michael W. Deem and Ramdas Pophale) SiO2 
 PCOD8254360
Probable space group: P N M A
;
_chemical_formula_sum "Si O2"
_cell_formula_units_Z 64
_cell_length_a 15.142579
_cell_length_b 8.699851
_cell_length_c 24.043422
_cell_angle_alpha 90.000000
_cell_angle_beta 90.000000
_cell_angle_gamma 90.000000
_cell_volume 3167.436681
_symmetry_space_group_name_H-M "P N M A"
_symmetry_group_IT_number 62
_symmetry_cell_setting 'orthorhombic'
loop_
_space_group_symop_operation_xyz
x,y,z
1/2-x,-y,1/2+z
1/2+x,1/2-y,1/2-z
-x,1/2+y,-z
-x,-y,-z
1/2+x,y,1/2-z
1/2-x,1/2+y,1/2+z
x,1/2-y,z
loop_
_atom_site_type_symbol
_atom_site_label
_atom_site_fract_x
_atom_site_fract_y
_atom_site_fract_z
Si Si1 0.156069 0.577139 0.117625
Si Si2 0.097600 0.566679 0.000443
Si Si3 0.251558 0.931725 0.428343
Si Si4 0.858394 0.923095 0.379646
Si Si5 0.432325 0.068233 0.727211
Si Si6 0.893745 0.429164 0.267760
Si Si7 0.265193 0.070579 0.799932
Si Si8 0.595406 0.570912 0.992470
O O1 0.121915 0.750000 0.111070
O O2 0.140471 0.499872 0.057606
O O3 0.256587 0.572285 0.136265
O O4 0.102952 0.502398 0.168362
O O5 0.095762 0.750000 0.996795
O O6 0.157080 0.505744 0.949638
O O7 0.000000 0.500000 0.000000
O O8 0.259768 0.750000 0.435131
O O9 0.236873 0.979662 0.364398
O O10 0.167720 0.995387 0.463820
O O11 0.889907 0.750000 0.394573
O O12 0.908932 0.981550 0.325554
O O13 0.873587 0.036029 0.430555
O O14 0.452624 0.250000 0.725529
O O15 0.362021 0.032030 0.775907
O O16 0.520302 0.970353 0.732904
O O17 0.887726 0.250000 0.280415
O O18 0.807347 0.477438 0.234093
O O19 0.243423 0.250000 0.792749
O O20 0.586558 0.750000 0.002148
O O21 0.500000 0.500000 0.000000
#
# Coordination Sequence:
#
# PCOD8254360 Si02
#       8
#     8   8   8   8   8   8   8   8
#     4   9  19  38  65  90 114 153 211 260 302 360
#     4  11  23  40  62  92 124 163 208 255 310 368
#     4  10  23  42  63  91 126 164 209 257 308 370
#     4  11  21  42  69  91 119 164 214 261 311 372
#     4  10  21  41  67  91 117 161 214 259 306 372
#     4  12  26  41  60  96 132 162 202 259 322 375
#     4  10  22  43  67  89 119 167 215 254 303 372
#     4  11  24  41  63  96 130 167 210 261 317 374
#
# _framework density 20.205614000000001
#
# number of rings (size 3 to 8) (size 9 to 14) (size 15 to 20)
#    0.000    1.500    2.500    2.250    3.500    1.500 
#    0.000    0.625    0.000    0.000    0.000    0.000 
#    0.000    0.000    0.000    0.000    0.000    0.000 
#
# Total GULP energy -793627.866889 kJ/mol
# GULP energy per Si atom -12400.435420 kJ/mol
# Density = 2.015963 g / cm^3
# Si number density = 20.205614 Si / 1000 Ang^3
#
#
#
# Elastic Constant Matrix: (Units=GPa)
#
#
# Indices 1 2 3 4 5 6 
#
# 1 86.8591 31.1744 12.9566 0.0000 0.0000 0.0000
# 2 31.1744 53.3007 16.7329 0.0000 0.0000 0.0000
# 3 12.9566 16.7329 104.7550 0.0000 0.0000 0.0000
# 4 0.0000 0.0000 0.0000 30.0764 0.0000 0.0000
# 5 0.0000 0.0000 0.0000 0.0000 34.5965 0.0000
# 6 0.0000 0.0000 0.0000 0.0000 0.0000 28.9381
#
#
#
# Elastic Compliance Matrix: (Units=1/GPa)
#
#
# Indices 1 2 3 4 5 6 
#
# 1 0.014593 -0.008389 -0.000465 0.000000 0.000000 0.000000
# 2 -0.008389 0.024575 -0.002888 0.000000 0.000000 0.000000
# 3 -0.000465 -0.002888 0.010065 0.000000 0.000000 0.000000
# 4 0.000000 0.000000 0.000000 0.033249 0.000000 0.000000
# 5 0.000000 0.000000 0.000000 0.000000 0.028905 0.000000
# 6 0.000000 0.000000 0.000000 0.000000 0.000000 0.034557
#
#
# Mechanical properties :
#
#
# Convention : Reuss Voigt Hill
#
# Bulk Modulus (GPa) = 38.83665 40.73806 39.78736
# Shear Modulus (GPa) = 28.08835 30.99226 29.54030
#
# Velocity S-wave (km/s) = 3.73248 3.92068 3.82774
# Velocity P-wave (km/s) = 6.15124 6.37975 6.26653
#
# Compressibility (1/GPa) = 0.02574887
#
# Stress axis : x y z
#
# Youngs Moduli (GPa) = 68.52492 40.69209 99.35553
#
# Poissons Ratio (x) = 0.34138 0.04619
# Poissons Ratio (y) = 0.57488 0.28692
# Poissons Ratio (z) = 0.03186 0.11751
#
# Static dielectric constant tensor:
#      x y z
#    x 4.329230 0.000000 0.000000 
#    y 0.000000 2.978720 0.000000 
#    z 0.000000 0.000000 4.325730 
# 
# 
# High freq. dielectric constant tensor:
#      x y z
#    x 1.796930 0.000000 0.000000 
#    y 0.000000 1.770370 0.000000 
#    z 0.000000 0.000000 1.805810 
# 
# From -- ./inp_files/29895.got.cif
#   From: 2010.03.12/outbox.cif.g09.slc.cpg/sg62_15_cif.got.tgz:29895.got - 2010.04.10 19:12:36.
