data_PCOD8254896
_publ_section_title
;
Structure prediction by ZEFSAII (Michael W. Deem and Ramdas Pophale) SiO2 
 PCOD8254896
Probable space group: P N M A
;
_chemical_formula_sum "Si O2"
_cell_formula_units_Z 56
_cell_length_a 15.236080
_cell_length_b 8.455035
_cell_length_c 19.860878
_cell_angle_alpha 90.000000
_cell_angle_beta 90.000000
_cell_angle_gamma 90.000000
_cell_volume 2558.509876
_symmetry_space_group_name_H-M "P N M A"
_symmetry_group_IT_number 62
_symmetry_cell_setting 'orthorhombic'
loop_
_space_group_symop_operation_xyz
x,y,z
1/2-x,-y,1/2+z
1/2+x,1/2-y,1/2-z
-x,1/2+y,-z
-x,-y,-z
1/2+x,y,1/2-z
1/2-x,1/2+y,1/2+z
x,1/2-y,z
loop_
_atom_site_type_symbol
_atom_site_label
_atom_site_fract_x
_atom_site_fract_y
_atom_site_fract_z
Si Si1 0.906015 0.430338 0.505010
Si Si2 0.664081 0.068742 0.133814
Si Si3 0.847875 0.930234 0.374290
Si Si4 0.504939 0.931926 0.629750
Si Si5 0.834012 0.429923 0.928553
Si Si6 0.677659 0.432698 0.573278
Si Si7 0.005051 0.936744 0.715416
O O1 0.903765 0.250000 0.530817
O O2 0.855774 0.544925 0.555453
O O3 0.868044 0.441376 0.430891
O O4 0.000000 0.500000 0.500000
O O5 0.676214 0.250000 0.153941
O O6 0.583274 0.997006 0.177873
O O7 0.760222 0.985992 0.137139
O O8 0.873968 0.750000 0.393532
O O9 0.741676 0.942254 0.370238
O O10 0.904542 0.980500 0.309186
O O11 0.533227 0.750000 0.623136
O O12 0.494473 0.982135 0.707126
O O13 0.413052 0.956746 0.592593
O O14 0.577689 0.038355 0.594059
O O15 0.867916 0.250000 0.932598
O O16 0.799771 0.479566 0.002805
O O17 0.694550 0.250000 0.559443
O O18 0.012883 0.750000 0.702638
#
# Coordination Sequence:
#
# PCOD8254896 Si02
#       7
#     8   8   8   8   8   8   8
#     4  12  22  34  57  91 129 169 209 258 317 376
#     4  11  22  39  63  95 130 165 209 263 315 378
#     4  11  23  38  63  95 130 167 207 261 318 375
#     4  11  25  46  67  90 124 170 217 265 316 377
#     4  11  24  43  67  96 127 163 209 268 323 375
#     4  12  25  42  67  97 126 165 211 265 324 380
#     4  10  24  43  65  92 129 173 213 255 314 382
#
# _framework density 21.887739
#
# number of rings (size 3 to 8) (size 9 to 14) (size 15 to 20)
#    0.000    0.857    2.857    4.714    0.000    4.571 
#    0.000    4.286    0.000    0.000    0.000    0.000 
#    0.000    0.000    0.000    0.000    0.000    0.000 
#
# Total GULP energy -694070.441577 kJ/mol
# GULP energy per Si atom -12394.115028 kJ/mol
# Density = 2.183792 g / cm^3
# Si number density = 21.887739 Si / 1000 Ang^3
#
#
#
# Elastic Constant Matrix: (Units=GPa)
#
#
# Indices 1 2 3 4 5 6 
#
# 1 134.0685 26.6509 32.1854 0.0000 0.0000 0.0000
# 2 26.6509 76.2611 17.5438 0.0000 0.0000 0.0000
# 3 32.1854 17.5438 79.7804 0.0000 0.0000 0.0000
# 4 0.0000 0.0000 0.0000 22.5974 0.0000 0.0000
# 5 0.0000 0.0000 0.0000 0.0000 16.9805 0.0000
# 6 0.0000 0.0000 0.0000 0.0000 0.0000 34.9302
#
#
#
# Elastic Compliance Matrix: (Units=1/GPa)
#
#
# Indices 1 2 3 4 5 6 
#
# 1 0.008636 -0.002335 -0.002971 0.000000 0.000000 0.000000
# 2 -0.002335 0.014443 -0.002234 0.000000 0.000000 0.000000
# 3 -0.002971 -0.002234 0.014224 0.000000 0.000000 0.000000
# 4 0.000000 0.000000 0.000000 0.044253 0.000000 0.000000
# 5 0.000000 0.000000 0.000000 0.000000 0.058891 0.000000
# 6 0.000000 0.000000 0.000000 0.000000 0.000000 0.028629
#
#
# Mechanical properties :
#
#
# Convention : Reuss Voigt Hill
#
# Bulk Modulus (GPa) = 44.99617 49.20783 47.10200
# Shear Modulus (GPa) = 26.10119 29.15029 27.62574
#
# Velocity S-wave (km/s) = 3.45701 3.65335 3.55654
# Velocity P-wave (km/s) = 6.04458 6.35033 6.19934
#
# Compressibility (1/GPa) = 0.02222411
#
# Stress axis : x y z
#
# Youngs Moduli (GPa) = 115.79272 69.23916 70.30316
#
# Poissons Ratio (x) = 0.16165 0.20884
# Poissons Ratio (y) = 0.27034 0.15706
# Poissons Ratio (z) = 0.34398 0.15469
#
# Static dielectric constant tensor:
#      x y z
#    x 4.121500 0.000000 0.000000 
#    y 0.000000 3.724510 0.000000 
#    z 0.000000 0.000000 3.747600 
# 
# 
# High freq. dielectric constant tensor:
#      x y z
#    x 1.882540 0.000000 0.000000 
#    y 0.000000 1.859140 0.000000 
#    z 0.000000 0.000000 1.837650 
# 
# From -- ./inp_files/27263.got.cif
#   From: 2010.03.12/outbox.cif.g09.slc.cpg/sg62_14_cif.got.tgz:27263.got - 2010.04.10 19:12:36.
