data_PCOD8254836
_publ_section_title
;
Structure prediction by ZEFSAII (Michael W. Deem and Ramdas Pophale) SiO2 
 PCOD8254836
Probable space group: P N M A
;
_chemical_formula_sum "Si O2"
_cell_formula_units_Z 40
_cell_length_a 8.587425
_cell_length_b 16.284167
_cell_length_c 12.370426
_cell_angle_alpha 90.000000
_cell_angle_beta 90.000000
_cell_angle_gamma 90.000000
_cell_volume 1729.868778
_symmetry_space_group_name_H-M "P N M A"
_symmetry_group_IT_number 62
_symmetry_cell_setting 'orthorhombic'
loop_
_space_group_symop_operation_xyz
x,y,z
1/2-x,-y,1/2+z
1/2+x,1/2-y,1/2-z
-x,1/2+y,-z
-x,-y,-z
1/2+x,y,1/2-z
1/2-x,1/2+y,1/2+z
x,1/2-y,z
loop_
_atom_site_type_symbol
_atom_site_label
_atom_site_fract_x
_atom_site_fract_y
_atom_site_fract_z
Si Si1 0.776250 0.392865 0.105213
Si Si2 0.154950 0.949235 0.486017
Si Si3 0.428357 0.347349 0.177542
Si Si4 0.714218 0.346813 0.683553
Si Si5 0.885650 0.341664 0.883854
O O1 0.606859 0.364049 0.145416
O O2 0.897607 0.382855 0.203023
O O3 0.784127 0.484009 0.051689
O O4 0.835637 0.336310 0.007859
O O5 0.186558 0.897840 0.596447
O O6 0.145741 0.882169 0.390673
O O7 0.000000 0.000000 0.500000
O O8 0.391423 0.250000 0.172536
O O9 0.716934 0.250000 0.670074
O O10 0.551604 0.385576 0.639680
O O11 0.749126 0.378378 0.806299
O O12 0.910476 0.250000 0.840689
#
# Coordination Sequence:
#
# PCOD8254836 Si02
#       5
#     8   8   8   8   8
#     4  11  26  44  70 102 141 182 236 292 348 416
#     4  10  25  43  67  98 135 181 230 285 349 406
#     4  11  24  45  71  99 140 189 236 288 350 423
#     4  10  23  42  70 100 137 180 232 284 345 417
#     4  10  23  42  68 101 133 177 230 286 344 411
#
# _framework density 23.123142000000001
#
# number of rings (size 3 to 8) (size 9 to 14) (size 15 to 20)
#    0.000    1.600    0.000    2.400   11.200    2.400 
#    0.000    0.000    0.000    0.000    0.000    0.000 
#    0.000    0.000    0.000    0.000    0.000    0.000 
#
# Total GULP energy -495549.630776 kJ/mol
# GULP energy per Si atom -12388.740769 kJ/mol
# Density = 2.307051 g / cm^3
# Si number density = 23.123142 Si / 1000 Ang^3
#
#
#
# Elastic Constant Matrix: (Units=GPa)
#
#
# Indices 1 2 3 4 5 6 
#
# 1 108.4516 47.0269 83.6503 0.0000 0.0000 0.0000
# 2 47.0269 87.9733 47.8388 0.0000 0.0000 0.0000
# 3 83.6503 47.8388 214.6847 0.0000 0.0000 0.0000
# 4 0.0000 0.0000 0.0000 42.9932 0.0000 0.0000
# 5 0.0000 0.0000 0.0000 0.0000 48.8088 0.0000
# 6 0.0000 0.0000 0.0000 0.0000 0.0000 28.8983
#
#
#
# Elastic Compliance Matrix: (Units=1/GPa)
#
#
# Indices 1 2 3 4 5 6 
#
# 1 0.015282 -0.005611 -0.004704 0.000000 0.000000 0.000000
# 2 -0.005611 0.014995 -0.001155 0.000000 0.000000 0.000000
# 3 -0.004704 -0.001155 0.006748 0.000000 0.000000 0.000000
# 4 0.000000 0.000000 0.000000 0.023260 0.000000 0.000000
# 5 0.000000 0.000000 0.000000 0.000000 0.020488 0.000000
# 6 0.000000 0.000000 0.000000 0.000000 0.000000 0.034604
#
#
# Mechanical properties :
#
#
# Convention : Reuss Voigt Hill
#
# Bulk Modulus (GPa) = 71.00008 85.34906 78.17457
# Shear Modulus (GPa) = 34.96193 39.64628 37.30410
#
# Velocity S-wave (km/s) = 3.89265 4.14523 4.02092
# Velocity P-wave (km/s) = 7.13971 7.73960 7.44570
#
# Compressibility (1/GPa) = 0.01408449
#
# Stress axis : x y z
#
# Youngs Moduli (GPa) = 65.43514 66.69052 148.18445
#
# Poissons Ratio (x) = 0.37421 0.69710
# Poissons Ratio (y) = 0.36717 0.17115
# Poissons Ratio (z) = 0.30783 0.07702
#
# Static dielectric constant tensor:
#      x y z
#    x 4.150800 0.000000 0.000000 
#    y 0.000000 4.450060 0.000000 
#    z 0.000000 0.000000 4.463940 
# 
# 
# High freq. dielectric constant tensor:
#      x y z
#    x 1.897910 0.000000 0.000000 
#    y 0.000000 1.917050 0.000000 
#    z 0.000000 0.000000 1.927950 
# 
# From -- ./inp_files/11077.got.cif
#   From: 2010.03.12/outbox.cif.g09.slc.cpg/sg62_6_cif.got.tgz:11077.got - 2010.04.10 19:12:36.
