data_PCOD8254981
_publ_section_title
;
Structure prediction by ZEFSAII (Michael W. Deem and Ramdas Pophale) SiO2 
 PCOD8254981
Probable space group: P N M A
;
_chemical_formula_sum "Si O2"
_cell_formula_units_Z 64
_cell_length_a 11.983506
_cell_length_b 8.392502
_cell_length_c 30.622654
_cell_angle_alpha 90.000000
_cell_angle_beta 90.000000
_cell_angle_gamma 90.000000
_cell_volume 3079.769250
_symmetry_space_group_name_H-M "P N M A"
_symmetry_group_IT_number 62
_symmetry_cell_setting 'orthorhombic'
loop_
_space_group_symop_operation_xyz
x,y,z
1/2-x,-y,1/2+z
1/2+x,1/2-y,1/2-z
-x,1/2+y,-z
-x,-y,-z
1/2+x,y,1/2-z
1/2-x,1/2+y,1/2+z
x,1/2-y,z
loop_
_atom_site_type_symbol
_atom_site_label
_atom_site_fract_x
_atom_site_fract_y
_atom_site_fract_z
Si Si1 0.287636 0.434718 0.702177
Si Si2 0.229201 0.561758 0.041821
Si Si3 0.633155 0.060852 0.876779
Si Si4 0.743466 0.933947 0.555015
Si Si5 0.500771 0.066097 0.336085
Si Si6 0.493586 0.566043 0.428049
Si Si7 0.617715 0.564459 0.132665
Si Si8 0.231370 0.934437 0.793369
O O1 0.313846 0.250000 0.694749
O O2 0.199088 0.496710 0.666206
O O3 0.401375 0.535207 0.698616
O O4 0.239471 0.460401 0.750154
O O5 0.224886 0.750000 0.048144
O O6 0.307476 0.488200 0.079828
O O7 0.101181 0.501158 0.045374
O O8 0.278069 0.516058 0.994303
O O9 0.630833 0.250000 0.879663
O O10 0.506750 0.996648 0.874634
O O11 0.771024 0.750000 0.564480
O O12 0.611385 0.957588 0.560046
O O13 0.811738 0.041442 0.588524
O O14 0.497896 0.250000 0.350381
O O15 0.383816 0.014739 0.315526
O O16 0.523819 0.953385 0.377225
O O17 0.466542 0.750000 0.438192
O O18 0.617240 0.750000 0.144708
O O19 0.669011 0.469041 0.173081
O O20 0.233116 0.750000 0.780264
#
# Coordination Sequence:
#
# PCOD8254981 Si02
#       8
#     8   8   8   8   8   8   8   8
#     4  11  23  41  67  93 121 157 204 250 300 361
#     4   9  19  37  61  88 120 158 197 246 307 363
#     4   9  20  40  62  88 118 154 201 253 297 348
#     4  11  22  37  59  88 124 161 197 246 309 365
#     4  11  23  40  63  92 126 161 196 247 307 359
#     4  11  20  36  63  90 120 158 202 251 299 357
#     4  11  23  40  63  88 118 159 209 254 297 356
#     4  11  25  43  62  89 127 161 199 249 305 359
#
# _framework density 20.780777
#
# number of rings (size 3 to 8) (size 9 to 14) (size 15 to 20)
#    0.000    1.500    2.500    2.625    1.750    2.000 
#    0.000    3.750    0.000    0.000    0.000    0.000 
#    0.000    0.000    0.000    0.000    0.000    0.000 
#
# Total GULP energy -793861.586537 kJ/mol
# GULP energy per Si atom -12404.087290 kJ/mol
# Density = 2.073348 g / cm^3
# Si number density = 20.780777 Si / 1000 Ang^3
#
#
#
# Elastic Constant Matrix: (Units=GPa)
#
#
# Indices 1 2 3 4 5 6 
#
# 1 118.8835 14.2044 35.6897 0.0000 0.0000 0.0000
# 2 14.2044 30.5332 11.9341 0.0000 0.0000 0.0000
# 3 35.6897 11.9341 123.0946 0.0000 0.0000 0.0000
# 4 0.0000 0.0000 0.0000 26.1165 0.0000 0.0000
# 5 0.0000 0.0000 0.0000 0.0000 23.3114 0.0000
# 6 0.0000 0.0000 0.0000 0.0000 0.0000 17.5172
#
#
#
# Elastic Compliance Matrix: (Units=1/GPa)
#
#
# Indices 1 2 3 4 5 6 
#
# 1 0.009560 -0.003496 -0.002433 0.000000 0.000000 0.000000
# 2 -0.003496 0.035320 -0.002411 0.000000 0.000000 0.000000
# 3 -0.002433 -0.002411 0.009063 0.000000 0.000000 0.000000
# 4 0.000000 0.000000 0.000000 0.038290 0.000000 0.000000
# 5 0.000000 0.000000 0.000000 0.000000 0.042897 0.000000
# 6 0.000000 0.000000 0.000000 0.000000 0.000000 0.057087
#
#
# Mechanical properties :
#
#
# Convention : Reuss Voigt Hill
#
# Bulk Modulus (GPa) = 26.83616 44.01863 35.42740
# Shear Modulus (GPa) = 22.59202 27.43457 25.01329
#
# Velocity S-wave (km/s) = 3.30079 3.63738 3.47317
# Velocity P-wave (km/s) = 5.24108 6.23451 5.75925
#
# Compressibility (1/GPa) = 0.03726315
#
# Stress axis : x y z
#
# Youngs Moduli (GPa) = 104.60607 28.31257 110.34024
#
# Poissons Ratio (x) = 0.09899 0.26843
# Poissons Ratio (y) = 0.36575 0.26598
# Poissons Ratio (z) = 0.25448 0.06825
#
# Static dielectric constant tensor:
#      x y z
#    x 3.876520 0.000000 0.000000 
#    y 0.000000 3.395160 0.000000 
#    z 0.000000 0.000000 3.855790 
# 
# 
# High freq. dielectric constant tensor:
#      x y z
#    x 1.817330 0.000000 0.000000 
#    y 0.000000 1.792820 0.000000 
#    z 0.000000 0.000000 1.823690 
# 
# From -- ./inp_files/32574.got.cif
#   From: 2010.03.12/outbox.cif.g09.slc.cpg/sg62_17_cif.got.tgz:32574.got - 2010.04.10 19:12:36.
