data_PCOD8254729
_publ_section_title
;
Structure prediction by ZEFSAII (Michael W. Deem and Ramdas Pophale) SiO2 
 PCOD8254729
Probable space group: P N M A
;
_chemical_formula_sum "Si O2"
_cell_formula_units_Z 48
_cell_length_a 18.629712
_cell_length_b 8.578885
_cell_length_c 14.608773
_cell_angle_alpha 90.000000
_cell_angle_beta 90.000000
_cell_angle_gamma 90.000000
_cell_volume 2334.805610
_symmetry_space_group_name_H-M "P N M A"
_symmetry_group_IT_number 62
_symmetry_cell_setting 'orthorhombic'
loop_
_space_group_symop_operation_xyz
x,y,z
1/2-x,-y,1/2+z
1/2+x,1/2-y,1/2-z
-x,1/2+y,-z
-x,-y,-z
1/2+x,y,1/2-z
1/2-x,1/2+y,1/2+z
x,1/2-y,z
loop_
_atom_site_type_symbol
_atom_site_label
_atom_site_fract_x
_atom_site_fract_y
_atom_site_fract_z
Si Si1 0.219239 0.068249 0.504326
Si Si2 0.818815 0.567039 0.147074
Si Si3 0.569784 0.930761 0.046004
Si Si4 0.592589 0.569568 0.255756
Si Si5 0.977162 0.934090 0.096860
Si Si6 0.758872 0.569202 0.807452
O O1 0.226304 0.250000 0.524005
O O2 0.260636 0.024614 0.412241
O O3 0.136591 0.023430 0.495052
O O4 0.256372 0.975769 0.586598
O O5 0.810752 0.750000 0.128980
O O6 0.898056 0.505418 0.122915
O O7 0.801577 0.528332 0.252681
O O8 0.578822 0.750000 0.020899
O O9 0.562306 0.955060 0.154381
O O10 0.500000 0.000000 0.000000
O O11 0.612318 0.750000 0.273788
O O12 0.532277 0.508234 0.325792
O O13 0.662673 0.466140 0.268425
O O14 0.977130 0.750000 0.091643
O O15 0.000000 0.000000 0.000000
O O16 0.742235 0.750000 0.794975
#
# Coordination Sequence:
#
# PCOD8254729 Si02
#       6
#     8   8   8   8   8   8
#     4  12  25  43  67  94 129 171 217 271 327 386
#     4  11  23  42  66  96 131 167 212 267 322 388
#     4  11  24  42  66  95 131 172 218 269 324 392
#     4  10  22  43  67  93 130 173 213 262 324 387
#     4  10  23  41  64  94 127 167 210 258 317 380
#     4  12  25  41  65  97 128 168 217 267 325 389
#
# _framework density 20.558456
#
# number of rings (size 3 to 8) (size 9 to 14) (size 15 to 20)
#    0.000    1.000    1.667    5.000    2.333    5.333 
#    0.000    0.000    0.000    0.000    0.000    0.000 
#    0.000    0.000    0.000    0.000    0.000    0.000 
#
# Total GULP energy -595574.819338 kJ/mol
# GULP energy per Si atom -12407.808736 kJ/mol
# Density = 2.051166 g / cm^3
# Si number density = 20.558456 Si / 1000 Ang^3
#
#
#
# Elastic Constant Matrix: (Units=GPa)
#
#
# Indices 1 2 3 4 5 6 
#
# 1 117.1368 48.4905 29.9996 0.0000 0.0000 0.0000
# 2 48.4905 72.7408 30.0893 0.0000 0.0000 0.0000
# 3 29.9996 30.0893 98.5346 0.0000 0.0000 0.0000
# 4 0.0000 0.0000 0.0000 37.2523 0.0000 0.0000
# 5 0.0000 0.0000 0.0000 0.0000 45.7465 0.0000
# 6 0.0000 0.0000 0.0000 0.0000 0.0000 29.8966
#
#
#
# Elastic Compliance Matrix: (Units=1/GPa)
#
#
# Indices 1 2 3 4 5 6 
#
# 1 0.011953 -0.007397 -0.001380 0.000000 0.000000 0.000000
# 2 -0.007397 0.020313 -0.003951 0.000000 0.000000 0.000000
# 3 -0.001380 -0.003951 0.011775 0.000000 0.000000 0.000000
# 4 0.000000 0.000000 0.000000 0.026844 0.000000 0.000000
# 5 0.000000 0.000000 0.000000 0.000000 0.021860 0.000000
# 6 0.000000 0.000000 0.000000 0.000000 0.000000 0.033449
#
#
# Mechanical properties :
#
#
# Convention : Reuss Voigt Hill
#
# Bulk Modulus (GPa) = 53.80769 56.17453 54.99111
# Shear Modulus (GPa) = 31.67692 34.56791 33.12242
#
# Velocity S-wave (km/s) = 3.92959 4.10499 4.01825
# Velocity P-wave (km/s) = 6.84242 7.06056 6.95235
#
# Compressibility (1/GPa) = 0.01858470
#
# Stress axis : x y z
#
# Youngs Moduli (GPa) = 83.66399 49.23051 84.92282
#
# Poissons Ratio (x) = 0.36415 0.11722
# Poissons Ratio (y) = 0.61885 0.33551
# Poissons Ratio (z) = 0.11548 0.19450
#
# Static dielectric constant tensor:
#      x y z
#    x 3.872010 0.000000 0.000000 
#    y 0.000000 3.781820 0.000000 
#    z 0.000000 0.000000 4.446040 
# 
# 
# High freq. dielectric constant tensor:
#      x y z
#    x 1.814460 0.000000 0.000000 
#    y 0.000000 1.805410 0.000000 
#    z 0.000000 0.000000 1.818960 
# 
# From -- ./inp_files/19633.got.cif
#   From: 2010.03.12/outbox.cif.g09.slc.cpg/sg62_10_cif.got.tgz:19633.got - 2010.04.10 19:12:36.
