data_PCOD8254239
_publ_section_title
;
Structure prediction by ZEFSAII (Michael W. Deem and Ramdas Pophale) SiO2 
 PCOD8254239
Probable space group: P N M A
;
_chemical_formula_sum "Si O2"
_cell_formula_units_Z 48
_cell_length_a 30.717788
_cell_length_b 8.799387
_cell_length_c 8.928143
_cell_angle_alpha 90.000000
_cell_angle_beta 90.000000
_cell_angle_gamma 90.000000
_cell_volume 2413.256557
_symmetry_space_group_name_H-M "P N M A"
_symmetry_group_IT_number 62
_symmetry_cell_setting 'orthorhombic'
loop_
_space_group_symop_operation_xyz
x,y,z
1/2-x,-y,1/2+z
1/2+x,1/2-y,1/2-z
-x,1/2+y,-z
-x,-y,-z
1/2+x,y,1/2-z
1/2-x,1/2+y,1/2+z
x,1/2-y,z
loop_
_atom_site_type_symbol
_atom_site_label
_atom_site_fract_x
_atom_site_fract_y
_atom_site_fract_z
Si Si1 0.791206 0.428436 0.404852
Si Si2 0.628065 0.924158 0.420761
Si Si3 0.960960 0.427478 0.090816
Si Si4 0.379110 0.073690 0.927188
Si Si5 0.540475 0.070933 0.915039
Si Si6 0.292651 0.571599 0.419314
O O1 0.787288 0.250000 0.382086
O O2 0.833314 0.472274 0.500925
O O3 0.749168 0.493209 0.491906
O O4 0.794940 0.501493 0.243666
O O5 0.642476 0.750000 0.445048
O O6 0.582773 0.958922 0.500046
O O7 0.664279 0.032625 0.489140
O O8 0.622949 0.962770 0.247372
O O9 0.969886 0.250000 0.113240
O O10 0.956515 0.505969 0.249646
O O11 0.000000 0.500000 0.000000
O O12 0.390555 0.250000 0.957463
O O13 0.415627 0.967978 0.997956
O O14 0.534004 0.250000 0.906899
O O15 0.500000 0.000000 0.000000
O O16 0.288564 0.750000 0.400285
#
# Coordination Sequence:
#
# PCOD8254239 Si02
#       6
#     8   8   8   8   8   8
#     4  10  22  39  59  85 119 157 195 241 296 349
#     4  10  22  40  62  87 120 159 194 238 297 355
#     4  11  23  40  63  91 122 159 202 246 298 357
#     4  10  21  40  63  87 118 157 200 243 294 355
#     4  12  25  41  62  89 121 157 199 249 302 356
#     4  11  23  38  60  89 118 153 199 245 289 348
#
# _framework density 19.890135999999998
#
# number of rings (size 3 to 8) (size 9 to 14) (size 15 to 20)
#    0.000    1.333    0.000    5.500    0.000   10.667 
#    0.000    0.000    0.000    0.000    0.000    0.000 
#    0.000    0.000    0.000    0.000    0.000    0.000 
#
# Total GULP energy -595506.323820 kJ/mol
# GULP energy per Si atom -12406.381746 kJ/mol
# Density = 1.984487 g / cm^3
# Si number density = 19.890136 Si / 1000 Ang^3
#
#
#
# Elastic Constant Matrix: (Units=GPa)
#
#
# Indices 1 2 3 4 5 6 
#
# 1 143.2612 67.9358 81.5527 0.0000 0.0000 0.0000
# 2 67.9358 82.6371 50.0985 0.0000 0.0000 0.0000
# 3 81.5527 50.0985 167.1910 0.0000 0.0000 0.0000
# 4 0.0000 0.0000 0.0000 14.4179 0.0000 0.0000
# 5 0.0000 0.0000 0.0000 0.0000 30.3071 0.0000
# 6 0.0000 0.0000 0.0000 0.0000 0.0000 35.7411
#
#
#
# Elastic Compliance Matrix: (Units=1/GPa)
#
#
# Indices 1 2 3 4 5 6 
#
# 1 0.013245 -0.008519 -0.003908 0.000000 0.000000 0.000000
# 2 -0.008519 0.020267 -0.001917 0.000000 0.000000 0.000000
# 3 -0.003908 -0.001917 0.008462 0.000000 0.000000 0.000000
# 4 0.000000 0.000000 0.000000 0.069358 0.000000 0.000000
# 5 0.000000 0.000000 0.000000 0.000000 0.032996 0.000000
# 6 0.000000 0.000000 0.000000 0.000000 0.000000 0.027979
#
#
# Mechanical properties :
#
#
# Convention : Reuss Voigt Hill
#
# Bulk Modulus (GPa) = 75.27426 88.02928 81.65177
# Shear Modulus (GPa) = 24.33987 28.99336 26.66661
#
# Velocity S-wave (km/s) = 3.50196 3.82209 3.66552
# Velocity P-wave (km/s) = 7.36742 7.98947 7.68474
#
# Compressibility (1/GPa) = 0.01328475
#
# Stress axis : x y z
#
# Youngs Moduli (GPa) = 75.50160 49.34040 118.17735
#
# Poissons Ratio (x) = 0.42035 0.46180
# Poissons Ratio (y) = 0.64323 0.22660
# Poissons Ratio (z) = 0.29504 0.09461
#
# Static dielectric constant tensor:
#      x y z
#    x 4.082610 0.000000 0.000000 
#    y 0.000000 3.641500 0.000000 
#    z 0.000000 0.000000 3.768740 
# 
# 
# High freq. dielectric constant tensor:
#      x y z
#    x 1.795370 0.000000 0.000000 
#    y 0.000000 1.775190 0.000000 
#    z 0.000000 0.000000 1.798690 
# 
# From -- ./inp_files/10200.got.cif
#   From: 2010.03.12/outbox.cif.g09.slc.cpg/sg62_6_cif.got.tgz:10200.got - 2010.04.10 19:12:36.
