data_PCOD8254082
_publ_section_title
;
Structure prediction by ZEFSAII (Michael W. Deem and Ramdas Pophale) SiO2 
 PCOD8254082
Probable space group: P N M A
;
_chemical_formula_sum "Si O2"
_cell_formula_units_Z 40
_cell_length_a 7.331779
_cell_length_b 23.916686
_cell_length_c 8.758702
_cell_angle_alpha 90.000000
_cell_angle_beta 90.000000
_cell_angle_gamma 90.000000
_cell_volume 1535.854653
_symmetry_space_group_name_H-M "P N M A"
_symmetry_group_IT_number 62
_symmetry_cell_setting 'orthorhombic'
loop_
_space_group_symop_operation_xyz
x,y,z
1/2-x,-y,1/2+z
1/2+x,1/2-y,1/2-z
-x,1/2+y,-z
-x,-y,-z
1/2+x,y,1/2-z
1/2-x,1/2+y,1/2+z
x,1/2-y,z
loop_
_atom_site_type_symbol
_atom_site_label
_atom_site_fract_x
_atom_site_fract_y
_atom_site_fract_z
Si Si1 0.252593 0.250000 0.312644
Si Si2 0.129681 0.652073 0.002519
Si Si3 0.008171 0.152475 0.692229
Si Si4 0.881566 0.250000 0.500759
Si Si5 0.699536 0.971535 0.534863
Si Si6 0.515452 0.473750 0.796292
O O1 0.367702 0.304724 0.363527
O O2 0.058888 0.250000 0.392309
O O3 0.222822 0.250000 0.128463
O O4 0.128642 0.590642 0.929174
O O5 0.296877 0.660427 0.118716
O O6 0.967373 0.663911 0.124572
O O7 0.937345 0.088310 0.672931
O O8 0.871486 0.195336 0.607601
O O9 0.770568 0.979508 0.358653
O O10 0.546275 0.014657 0.611231
O O11 0.891944 0.979479 0.624141
#
# Coordination Sequence:
#
# PCOD8254082 Si02
#       6
#     4   8   8   4   8   8
#     4  10  23  40  60  90 118 146 195 244 298 346
#     4  10  22  39  60  87 116 153 197 244 289 351
#     4  10  21  40  62  85 119 157 197 237 289 352
#     4  10  23  42  62  88 120 152 191 246 294 350
#     4  10  22  37  58  86 120 154 195 241 290 347
#     4  10  21  39  59  88 122 157 197 244 292 348
#
# _framework density 26.044129999999999
#
# number of rings (size 3 to 8) (size 9 to 14) (size 15 to 20)
#    0.000    2.000    0.000    3.000    0.000   11.200 
#    0.000    0.000    0.000    0.000    0.000    0.000 
#    0.000    0.000    0.000    0.000    0.000    0.000 
#
# Total GULP energy -495844.976454 kJ/mol
# GULP energy per Si atom -12396.124411 kJ/mol
# Density = 2.598485 g / cm^3
# Si number density = 26.044130 Si / 1000 Ang^3
#
#
#
# Elastic Constant Matrix: (Units=GPa)
#
#
# Indices 1 2 3 4 5 6 
#
# 1 47.4465 35.1039 7.0141 0.0000 0.0000 0.0000
# 2 35.1039 181.0879 73.4741 0.0000 0.0000 0.0000
# 3 7.0141 73.4741 134.6916 0.0000 0.0000 0.0000
# 4 0.0000 0.0000 0.0000 47.5894 0.0000 0.0000
# 5 0.0000 0.0000 0.0000 0.0000 35.2583 0.0000
# 6 0.0000 0.0000 0.0000 0.0000 0.0000 20.0742
#
#
#
# Elastic Compliance Matrix: (Units=1/GPa)
#
#
# Indices 1 2 3 4 5 6 
#
# 1 0.024911 -0.005526 0.001717 0.000000 0.000000 0.000000
# 2 -0.005526 0.008317 -0.004249 0.000000 0.000000 0.000000
# 3 0.001717 -0.004249 0.009653 0.000000 0.000000 0.000000
# 4 0.000000 0.000000 0.000000 0.021013 0.000000 0.000000
# 5 0.000000 0.000000 0.000000 0.000000 0.028362 0.000000
# 6 0.000000 0.000000 0.000000 0.000000 0.000000 0.049815
#
#
# Mechanical properties :
#
#
# Convention : Reuss Voigt Hill
#
# Bulk Modulus (GPa) = 37.36208 66.04556 51.70382
# Shear Modulus (GPa) = 29.92055 37.09331 33.50693
#
# Velocity S-wave (km/s) = 3.39313 3.77802 3.59073
# Velocity P-wave (km/s) = 5.45233 6.66673 6.08988
#
# Compressibility (1/GPa) = 0.02676511
#
# Stress axis : x y z
#
# Youngs Moduli (GPa) = 40.14341 120.22904 103.59468
#
# Poissons Ratio (x) = 0.66433 -0.17787
# Poissons Ratio (y) = 0.22182 0.44022
# Poissons Ratio (z) = -0.06892 0.51090
#
# Static dielectric constant tensor:
#      x y z
#    x 4.876210 0.000000 0.000000 
#    y 0.000000 4.555020 0.000000 
#    z 0.000000 0.000000 5.391360 
# 
# 
# High freq. dielectric constant tensor:
#      x y z
#    x 2.067850 0.000000 0.000000 
#    y 0.000000 2.027560 0.000000 
#    z 0.000000 0.000000 2.065830 
# 
# From -- ./inp_files/4353.got.cif
#   From: 2010.03.12/outbox.cif.g09.slc.cpg/sg62_3_cif.got.tgz:4353.got - 2010.04.10 19:12:36.
