data_PCOD8254818
_publ_section_title
;
Structure prediction by ZEFSAII (Michael W. Deem and Ramdas Pophale) SiO2 
 PCOD8254818
Probable space group: P N M A
;
_chemical_formula_sum "Si O2"
_cell_formula_units_Z 56
_cell_length_a 20.920872
_cell_length_b 8.697272
_cell_length_c 14.685953
_cell_angle_alpha 90.000000
_cell_angle_beta 90.000000
_cell_angle_gamma 90.000000
_cell_volume 2672.175445
_symmetry_space_group_name_H-M "P N M A"
_symmetry_group_IT_number 62
_symmetry_cell_setting 'orthorhombic'
loop_
_space_group_symop_operation_xyz
x,y,z
1/2-x,-y,1/2+z
1/2+x,1/2-y,1/2-z
-x,1/2+y,-z
-x,-y,-z
1/2+x,y,1/2-z
1/2-x,1/2+y,1/2+z
x,1/2-y,z
loop_
_atom_site_type_symbol
_atom_site_label
_atom_site_fract_x
_atom_site_fract_y
_atom_site_fract_z
Si Si1 0.024891 0.569405 0.271466
Si Si2 0.153768 0.073821 0.321669
Si Si3 0.604287 0.569263 0.744840
Si Si4 0.237800 0.431787 0.692062
Si Si5 0.051669 0.931002 0.066687
Si Si6 0.756846 0.925137 0.517674
Si Si7 0.135499 0.071945 0.934390
O O1 0.016261 0.750000 0.284812
O O2 0.085803 0.512006 0.327952
O O3 0.039682 0.518913 0.168909
O O4 0.958078 0.488319 0.301321
O O5 0.143395 0.250000 0.293273
O O6 0.177553 0.060910 0.426159
O O7 0.203219 0.004228 0.247725
O O8 0.612415 0.750000 0.756834
O O9 0.669102 0.485683 0.773322
O O10 0.593470 0.520523 0.639775
O O11 0.242982 0.250000 0.703462
O O12 0.237909 0.481508 0.586071
O O13 0.055038 0.750000 0.056767
O O14 0.118220 0.007589 0.034844
O O15 0.000000 0.000000 0.000000
O O16 0.731106 0.750000 0.521485
O O17 0.710342 0.037026 0.575326
O O18 0.119215 0.250000 0.922433
#
# Coordination Sequence:
#
# PCOD8254818 Si02
#       7
#     8   8   8   8   8   8   8
#     4  11  24  41  61  89 126 166 209 262 319 378
#     4  11  23  41  65  94 128 168 210 259 316 377
#     4  12  24  40  63  90 124 164 209 259 314 376
#     4  11  23  42  67  95 127 167 213 262 316 374
#     4  11  22  35  55  83 120 160 201 247 306 372
#     4  10  23  42  64  91 126 164 208 260 314 371
#     4  12  23  36  59  89 123 162 205 253 312 376
#
# _framework density 20.956707000000002
#
# number of rings (size 3 to 8) (size 9 to 14) (size 15 to 20)
#    0.000    0.857    2.857    5.143    0.000    6.857 
#    0.000    0.714    0.000    0.000    0.000    0.000 
#    0.000    0.000    0.000    0.000    0.000    0.000 
#
# Total GULP energy -694328.466634 kJ/mol
# GULP energy per Si atom -12398.722618 kJ/mol
# Density = 2.090901 g / cm^3
# Si number density = 20.956707 Si / 1000 Ang^3
#
#
#
# Elastic Constant Matrix: (Units=GPa)
#
#
# Indices 1 2 3 4 5 6 
#
# 1 103.1216 11.0130 3.0472 0.0000 0.0000 0.0000
# 2 11.0130 59.1641 14.5039 0.0000 0.0000 0.0000
# 3 3.0472 14.5039 55.9561 0.0000 0.0000 0.0000
# 4 0.0000 0.0000 0.0000 24.4253 0.0000 0.0000
# 5 0.0000 0.0000 0.0000 0.0000 27.4994 0.0000
# 6 0.0000 0.0000 0.0000 0.0000 0.0000 41.0636
#
#
#
# Elastic Compliance Matrix: (Units=1/GPa)
#
#
# Indices 1 2 3 4 5 6 
#
# 1 0.009894 -0.001826 -0.000066 0.000000 0.000000 0.000000
# 2 -0.001826 0.018386 -0.004666 0.000000 0.000000 0.000000
# 3 -0.000066 -0.004666 0.019084 0.000000 0.000000 0.000000
# 4 0.000000 0.000000 0.000000 0.040941 0.000000 0.000000
# 5 0.000000 0.000000 0.000000 0.000000 0.036364 0.000000
# 6 0.000000 0.000000 0.000000 0.000000 0.000000 0.024352
#
#
# Mechanical properties :
#
#
# Convention : Reuss Voigt Hill
#
# Bulk Modulus (GPa) = 29.19767 30.59669 29.89718
# Shear Modulus (GPa) = 28.80950 31.24283 30.02617
#
# Velocity S-wave (km/s) = 3.71174 3.86531 3.78930
# Velocity P-wave (km/s) = 5.68612 5.87814 5.78292
#
# Compressibility (1/GPa) = 0.03424931
#
# Stress axis : x y z
#
# Youngs Moduli (GPa) = 101.06924 54.38953 52.39933
#
# Poissons Ratio (x) = 0.09930 0.00344
# Poissons Ratio (y) = 0.18452 0.24451
# Poissons Ratio (z) = 0.00663 0.25379
#
# Static dielectric constant tensor:
#      x y z
#    x 4.057360 0.000000 0.000000 
#    y 0.000000 3.778070 0.000000 
#    z 0.000000 0.000000 3.889350 
# 
# 
# High freq. dielectric constant tensor:
#      x y z
#    x 1.834190 0.000000 0.000000 
#    y 0.000000 1.827780 0.000000 
#    z 0.000000 0.000000 1.803750 
# 
# From -- ./inp_files/20386.got.cif
#   From: 2010.03.12/outbox.cif.g09.slc.cpg/sg62_11_cif.got.tgz:20386.got - 2010.04.10 19:12:36.
