data_PCOD8254401
_publ_section_title
;
Structure prediction by ZEFSAII (Michael W. Deem and Ramdas Pophale) SiO2 
 PCOD8254401
Probable space group: P N M A
;
_chemical_formula_sum "Si O2"
_cell_formula_units_Z 48
_cell_length_a 18.702663
_cell_length_b 8.508854
_cell_length_c 14.932169
_cell_angle_alpha 90.000000
_cell_angle_beta 90.000000
_cell_angle_gamma 90.000000
_cell_volume 2376.278928
_symmetry_space_group_name_H-M "P N M A"
_symmetry_group_IT_number 62
_symmetry_cell_setting 'orthorhombic'
loop_
_space_group_symop_operation_xyz
x,y,z
1/2-x,-y,1/2+z
1/2+x,1/2-y,1/2-z
-x,1/2+y,-z
-x,-y,-z
1/2+x,y,1/2-z
1/2-x,1/2+y,1/2+z
x,1/2-y,z
loop_
_atom_site_type_symbol
_atom_site_label
_atom_site_fract_x
_atom_site_fract_y
_atom_site_fract_z
Si Si1 0.216749 0.065686 0.997765
Si Si2 0.175230 0.066930 0.635412
Si Si3 0.023953 0.567672 0.594304
Si Si4 0.920099 0.065657 0.742172
Si Si5 0.567591 0.564394 0.447874
Si Si6 0.263820 0.435693 0.801616
O O1 0.232011 0.250000 0.012899
O O2 0.262827 0.959133 0.063495
O O3 0.134193 0.028817 0.012007
O O4 0.238240 0.011182 0.898633
O O5 0.154271 0.250000 0.638643
O O6 0.205382 0.004215 0.730203
O O7 0.106914 0.965956 0.609650
O O8 0.010321 0.750000 0.589720
O O9 0.000000 0.500000 0.500000
O O10 0.979237 0.501220 0.676429
O O11 0.918082 0.250000 0.726878
O O12 0.941493 0.022843 0.843370
O O13 0.842174 0.992345 0.719492
O O14 0.500000 0.500000 0.500000
O O15 0.577393 0.750000 0.462396
O O16 0.268959 0.250000 0.791902
#
# Coordination Sequence:
#
# PCOD8254401 Si02
#       6
#     8   8   8   8   8   8
#     4  11  22  39  65  96 127 165 211 263 317 378
#     4  11  22  42  66  93 126 168 212 259 316 378
#     4  12  26  43  64  96 129 167 212 264 319 379
#     4  10  21  43  68  91 126 173 214 258 318 379
#     4  11  24  42  64  91 128 173 216 265 322 383
#     4   9  20  39  64  90 121 162 207 252 314 379
#
# _framework density 20.199649999999998
#
# number of rings (size 3 to 8) (size 9 to 14) (size 15 to 20)
#    0.000    1.333    1.667    4.000    2.333    2.667 
#    0.000    3.333    0.000    0.000    0.000    0.000 
#    0.000    0.000    0.000    0.000    0.000    0.000 
#
# Total GULP energy -595403.870508 kJ/mol
# GULP energy per Si atom -12404.247302 kJ/mol
# Density = 2.015367 g / cm^3
# Si number density = 20.199650 Si / 1000 Ang^3
#
#
#
# Elastic Constant Matrix: (Units=GPa)
#
#
# Indices 1 2 3 4 5 6 
#
# 1 111.3273 5.0172 42.4185 0.0000 0.0000 0.0000
# 2 5.0172 33.4670 39.4122 0.0000 0.0000 0.0000
# 3 42.4185 39.4122 138.3080 0.0000 0.0000 0.0000
# 4 0.0000 0.0000 0.0000 28.2991 0.0000 0.0000
# 5 0.0000 0.0000 0.0000 0.0000 43.9669 0.0000
# 6 0.0000 0.0000 0.0000 0.0000 0.0000 34.4968
#
#
#
# Elastic Compliance Matrix: (Units=1/GPa)
#
#
# Indices 1 2 3 4 5 6 
#
# 1 0.010409 0.003310 -0.004136 0.000000 0.000000 0.000000
# 2 0.003310 0.046024 -0.014130 0.000000 0.000000 0.000000
# 3 -0.004136 -0.014130 0.012525 0.000000 0.000000 0.000000
# 4 0.000000 0.000000 0.000000 0.035337 0.000000 0.000000
# 5 0.000000 0.000000 0.000000 0.000000 0.022744 0.000000
# 6 0.000000 0.000000 0.000000 0.000000 0.000000 0.028988
#
#
# Mechanical properties :
#
#
# Convention : Reuss Voigt Hill
#
# Bulk Modulus (GPa) = 25.61041 50.75534 38.18287
# Shear Modulus (GPa) = 25.13126 34.43620 29.78373
#
# Velocity S-wave (km/s) = 3.53107 4.13339 3.84405
# Velocity P-wave (km/s) = 5.41579 6.92541 6.21659
#
# Compressibility (1/GPa) = 0.03904663
#
# Stress axis : x y z
#
# Youngs Moduli (GPa) = 96.06957 21.72763 79.83946
#
# Poissons Ratio (x) = -0.07191 0.33018
# Poissons Ratio (y) = -0.31797 1.12815
# Poissons Ratio (z) = 0.39730 0.30702
#
# Static dielectric constant tensor:
#      x y z
#    x 3.818310 0.000000 0.000000 
#    y 0.000000 3.548150 0.000000 
#    z 0.000000 0.000000 4.056590 
# 
# 
# High freq. dielectric constant tensor:
#      x y z
#    x 1.804310 0.000000 0.000000 
#    y 0.000000 1.777970 0.000000 
#    z 0.000000 0.000000 1.807270 
# 
# From -- ./inp_files/19663.got.cif
#   From: 2010.03.12/outbox.cif.g09.slc.cpg/sg62_10_cif.got.tgz:19663.got - 2010.04.10 19:12:36.
