data_PCOD8254725
_publ_section_title
;
Structure prediction by ZEFSAII (Michael W. Deem and Ramdas Pophale) SiO2 
 PCOD8254725
Probable space group: P N M A
;
_chemical_formula_sum "Si O2"
_cell_formula_units_Z 36
_cell_length_a 11.918320
_cell_length_b 18.014032
_cell_length_c 7.423867
_cell_angle_alpha 90.000000
_cell_angle_beta 90.000000
_cell_angle_gamma 90.000000
_cell_volume 1593.881957
_symmetry_space_group_name_H-M "P N M A"
_symmetry_group_IT_number 62
_symmetry_cell_setting 'orthorhombic'
loop_
_space_group_symop_operation_xyz
x,y,z
1/2-x,-y,1/2+z
1/2+x,1/2-y,1/2-z
-x,1/2+y,-z
-x,-y,-z
1/2+x,y,1/2-z
1/2-x,1/2+y,1/2+z
x,1/2-y,z
loop_
_atom_site_type_symbol
_atom_site_label
_atom_site_fract_x
_atom_site_fract_y
_atom_site_fract_z
Si Si1 0.609041 0.972016 0.598201
Si Si2 0.380930 0.250000 0.952448
Si Si3 0.750110 0.750000 0.382034
Si Si4 0.316118 0.750000 0.727624
Si Si5 0.980053 0.629345 0.641918
Si Si6 0.811217 0.586857 0.375942
O O1 0.574412 0.910333 0.741650
O O2 0.690102 0.934896 0.452937
O O3 0.500000 0.000000 0.500000
O O4 0.669461 0.040983 0.694629
O O5 0.363521 0.250000 0.735912
O O6 0.258894 0.250000 0.049244
O O7 0.451662 0.321813 0.000408
O O8 0.731373 0.750000 0.598771
O O9 0.818247 0.675017 0.331433
O O10 0.395922 0.822498 0.733047
O O11 0.906599 0.570249 0.526781
#
# Coordination Sequence:
#
# PCOD8254725 Si02
#       6
#     8   4   4   4   8   8
#     4  12  27  43  73 100 140 195 229 299 373 425
#     4  11  23  39  78  97 139 194 231 299 362 409
#     4  10  24  42  70  97 140 183 231 297 349 415
#     4   9  21  43  62 106 139 181 240 304 345 434
#     4  10  22  43  67 101 140 180 242 293 358 423
#     4  11  26  47  67 105 145 177 247 294 350 443
#
# _framework density 22.586366000000002
#
# number of rings (size 3 to 8) (size 9 to 14) (size 15 to 20)
#    0.000    1.333    0.000    5.333    9.333    0.889 
#    0.000    2.222    0.000    0.000    0.000    0.000 
#    0.000    0.000    0.000    0.000    0.000    0.000 
#
# Total GULP energy -446437.091527 kJ/mol
# GULP energy per Si atom -12401.030320 kJ/mol
# Density = 2.253496 g / cm^3
# Si number density = 22.586366 Si / 1000 Ang^3
#
#
#
# Elastic Constant Matrix: (Units=GPa)
#
#
# Indices 1 2 3 4 5 6 
#
# 1 124.2057 43.2496 47.1705 0.0000 0.0000 0.0000
# 2 43.2496 118.6202 43.1845 0.0000 0.0000 0.0000
# 3 47.1705 43.1845 79.6465 0.0000 0.0000 0.0000
# 4 0.0000 0.0000 0.0000 20.0306 0.0000 0.0000
# 5 0.0000 0.0000 0.0000 0.0000 63.0536 0.0000
# 6 0.0000 0.0000 0.0000 0.0000 0.0000 27.4705
#
#
#
# Elastic Compliance Matrix: (Units=1/GPa)
#
#
# Indices 1 2 3 4 5 6 
#
# 1 0.010754 -0.001996 -0.005287 0.000000 0.000000 0.000000
# 2 -0.001996 0.010874 -0.004714 0.000000 0.000000 0.000000
# 3 -0.005287 -0.004714 0.018242 0.000000 0.000000 0.000000
# 4 0.000000 0.000000 0.000000 0.049924 0.000000 0.000000
# 5 0.000000 0.000000 0.000000 0.000000 0.015860 0.000000
# 6 0.000000 0.000000 0.000000 0.000000 0.000000 0.036403
#
#
# Mechanical properties :
#
#
# Convention : Reuss Voigt Hill
#
# Bulk Modulus (GPa) = 62.98357 65.52017 64.25187
# Shear Modulus (GPa) = 29.18141 34.70215 31.94178
#
# Velocity S-wave (km/s) = 3.59833 3.92397 3.76467
# Velocity P-wave (km/s) = 6.72385 7.04285 6.88520
#
# Compressibility (1/GPa) = 0.01587716
#
# Stress axis : x y z
#
# Youngs Moduli (GPa) = 92.98818 91.96089 54.81784
#
# Poissons Ratio (x) = 0.18359 0.28980
# Poissons Ratio (y) = 0.18564 0.25839
# Poissons Ratio (z) = 0.49160 0.43347
#
# Static dielectric constant tensor:
#      x y z
#    x 4.228580 0.000000 0.000000 
#    y 0.000000 4.044140 0.000000 
#    z 0.000000 0.000000 4.086270 
# 
# 
# High freq. dielectric constant tensor:
#      x y z
#    x 1.896340 0.000000 0.000000 
#    y 0.000000 1.897510 0.000000 
#    z 0.000000 0.000000 1.880480 
# 
# From -- ./inp_files/5156.got.cif
#   From: 2010.03.12/outbox.cif.g09.slc.cpg/sg62_3_cif.got.tgz:5156.got - 2010.04.10 19:12:36.
