data_PCOD8254138
_publ_section_title
;
Structure prediction by ZEFSAII (Michael W. Deem and Ramdas Pophale) SiO2 
 PCOD8254138
Probable space group: P N M A
;
_chemical_formula_sum "Si O2"
_cell_formula_units_Z 56
_cell_length_a 19.971832
_cell_length_b 8.663425
_cell_length_c 16.237907
_cell_angle_alpha 90.000000
_cell_angle_beta 90.000000
_cell_angle_gamma 90.000000
_cell_volume 2809.555231
_symmetry_space_group_name_H-M "P N M A"
_symmetry_group_IT_number 62
_symmetry_cell_setting 'orthorhombic'
loop_
_space_group_symop_operation_xyz
x,y,z
1/2-x,-y,1/2+z
1/2+x,1/2-y,1/2-z
-x,1/2+y,-z
-x,-y,-z
1/2+x,y,1/2-z
1/2-x,1/2+y,1/2+z
x,1/2-y,z
loop_
_atom_site_type_symbol
_atom_site_label
_atom_site_fract_x
_atom_site_fract_y
_atom_site_fract_z
Si Si1 0.704094 0.566652 0.817534
Si Si2 0.535163 0.070445 0.246919
Si Si3 0.106918 0.570826 0.824661
Si Si4 0.183207 0.567857 0.500754
Si Si5 0.843855 0.069056 0.842959
Si Si6 0.045586 0.565607 0.428283
Si Si7 0.831470 0.568573 0.018031
O O1 0.705856 0.750000 0.817586
O O2 0.654863 0.504026 0.746926
O O3 0.677610 0.503898 0.905713
O O4 0.778557 0.505555 0.801418
O O5 0.554469 0.250000 0.244964
O O6 0.469425 0.041720 0.300927
O O7 0.594174 0.971211 0.285364
O O8 0.520352 0.010655 0.155500
O O9 0.122011 0.750000 0.839625
O O10 0.120480 0.479471 0.908230
O O11 0.179127 0.750000 0.504633
O O12 0.121888 0.507788 0.445349
O O13 0.254794 0.515628 0.462883
O O14 0.833585 0.250000 0.845552
O O15 0.857856 0.008430 0.934607
O O16 0.040146 0.750000 0.423967
O O17 0.000000 0.500000 0.500000
O O18 0.835127 0.750000 0.003901
#
# Coordination Sequence:
#
# PCOD8254138 Si02
#       7
#     8   8   8   8   8   8   8
#     4   9  18  37  62  87 117 155 195 244 302 355
#     4  11  24  42  61  86 121 162 202 247 304 361
#     4  10  22  39  61  88 119 155 199 249 301 357
#     4   8  17  35  58  83 115 153 192 240 294 349
#     4  11  23  40  61  88 120 156 201 250 300 358
#     4  11  22  38  60  89 125 161 201 246 298 359
#     4  10  21  39  62  87 116 154 199 248 304 357
#
# _framework density 19.931981
#
# number of rings (size 3 to 8) (size 9 to 14) (size 15 to 20)
#    0.000    2.000    0.000    4.286    2.000    4.571 
#    0.000    9.286    0.000    0.000    0.000    0.000 
#    0.000    0.000    0.000    0.000    0.000    0.000 
#
# Total GULP energy -694509.056229 kJ/mol
# GULP energy per Si atom -12401.947433 kJ/mol
# Density = 1.988661 g / cm^3
# Si number density = 19.931981 Si / 1000 Ang^3
#
#
#
# Elastic Constant Matrix: (Units=GPa)
#
#
# Indices 1 2 3 4 5 6 
#
# 1 64.0945 2.5125 14.0059 0.0000 0.0000 0.0000
# 2 2.5125 21.5208 8.1483 0.0000 0.0000 0.0000
# 3 14.0059 8.1483 60.9353 0.0000 0.0000 0.0000
# 4 0.0000 0.0000 0.0000 31.3881 0.0000 0.0000
# 5 0.0000 0.0000 0.0000 0.0000 35.9413 0.0000
# 6 0.0000 0.0000 0.0000 0.0000 0.0000 19.0785
#
#
#
# Elastic Compliance Matrix: (Units=1/GPa)
#
#
# Indices 1 2 3 4 5 6 
#
# 1 0.016432 -0.000514 -0.003708 0.000000 0.000000 0.000000
# 2 -0.000514 0.048961 -0.006429 0.000000 0.000000 0.000000
# 3 -0.003708 -0.006429 0.018123 0.000000 0.000000 0.000000
# 4 0.000000 0.000000 0.000000 0.031859 0.000000 0.000000
# 5 0.000000 0.000000 0.000000 0.000000 0.027823 0.000000
# 6 0.000000 0.000000 0.000000 0.000000 0.000000 0.052415
#
#
# Mechanical properties :
#
#
# Convention : Reuss Voigt Hill
#
# Bulk Modulus (GPa) = 16.07376 21.76490 18.91933
# Shear Modulus (GPa) = 21.03896 25.40717 23.22307
#
# Velocity S-wave (km/s) = 3.25243 3.57416 3.41708
# Velocity P-wave (km/s) = 4.71022 5.28924 5.00811
#
# Compressibility (1/GPa) = 0.06221320
#
# Stress axis : x y z
#
# Youngs Moduli (GPa) = 60.85528 20.42447 55.17899
#
# Poissons Ratio (x) = 0.01051 0.20461
# Poissons Ratio (y) = 0.03131 0.35474
# Poissons Ratio (z) = 0.22566 0.13131
#
# Static dielectric constant tensor:
#      x y z
#    x 3.786730 0.000000 0.000000 
#    y 0.000000 3.478970 0.000000 
#    z 0.000000 0.000000 3.705540 
# 
# 
# High freq. dielectric constant tensor:
#      x y z
#    x 1.785300 0.000000 0.000000 
#    y 0.000000 1.766590 0.000000 
#    z 0.000000 0.000000 1.783290 
# 
# From -- ./inp_files/20265.got.cif
#   From: 2010.03.12/outbox.cif.g09.slc.cpg/sg62_11_cif.got.tgz:20265.got - 2010.04.10 19:12:36.
