data_PCOD8254473
_publ_section_title
;
Structure prediction by ZEFSAII (Michael W. Deem and Ramdas Pophale) SiO2 
 PCOD8254473
Probable space group: P N M A
;
_chemical_formula_sum "Si O2"
_cell_formula_units_Z 32
_cell_length_a 16.459643
_cell_length_b 10.617382
_cell_length_c 7.216871
_cell_angle_alpha 90.000000
_cell_angle_beta 90.000000
_cell_angle_gamma 90.000000
_cell_volume 1261.208232
_symmetry_space_group_name_H-M "P N M A"
_symmetry_group_IT_number 62
_symmetry_cell_setting 'orthorhombic'
loop_
_space_group_symop_operation_xyz
x,y,z
1/2-x,-y,1/2+z
1/2+x,1/2-y,1/2-z
-x,1/2+y,-z
-x,-y,-z
1/2+x,y,1/2-z
1/2-x,1/2+y,1/2+z
x,1/2-y,z
loop_
_atom_site_type_symbol
_atom_site_label
_atom_site_fract_x
_atom_site_fract_y
_atom_site_fract_z
Si Si1 0.841185 0.750000 0.622357
Si Si2 0.508731 0.750000 0.752850
Si Si3 0.879911 0.011058 0.236808
Si Si4 0.293590 0.995587 0.655102
Si Si5 0.085037 0.250000 0.867904
Si Si6 0.755981 0.250000 0.737120
O O1 0.823894 0.625684 0.739951
O O2 0.790582 0.750000 0.435971
O O3 0.938784 0.750000 0.590935
O O4 0.562409 0.626558 0.780693
O O5 0.469243 0.750000 0.549501
O O6 0.804334 0.012612 0.380396
O O7 0.930346 0.878900 0.250086
O O8 0.842220 0.019541 0.031978
O O9 0.309079 0.123357 0.778528
O O10 0.183551 0.250000 0.917600
#
# Coordination Sequence:
#
# PCOD8254473 Si02
#       6
#     4   4   8   8   4   4
#     4  12  23  40  64  98 134 169 211 270 321 376
#     4  12  24  40  64  94 130 171 209 258 325 389
#     4  11  22  40  64  96 122 166 219 261 316 378
#     4  11  21  41  68  94 126 169 220 268 311 373
#     4  10  22  38  61  87 135 162 210 259 315 380
#     4  10  23  42  61  97 131 170 220 269 309 375
#
# _framework density 25.372495000000001
#
# number of rings (size 3 to 8) (size 9 to 14) (size 15 to 20)
#    0.000    1.000    5.000    2.250    0.000    0.000 
#    0.000    7.500    0.000    0.000    0.000    0.000 
#    0.000    0.000    0.000    0.000    0.000    0.000 
#
# Total GULP energy -396445.378138 kJ/mol
# GULP energy per Si atom -12388.918067 kJ/mol
# Density = 2.531475 g / cm^3
# Si number density = 25.372495 Si / 1000 Ang^3
#
#
#
# Elastic Constant Matrix: (Units=GPa)
#
#
# Indices 1 2 3 4 5 6 
#
# 1 64.8374 58.2170 7.4113 0.0000 0.0000 0.0000
# 2 58.2170 257.1718 4.8260 0.0000 0.0000 0.0000
# 3 7.4113 4.8260 38.0610 0.0000 0.0000 0.0000
# 4 0.0000 0.0000 0.0000 41.6671 0.0000 0.0000
# 5 0.0000 0.0000 0.0000 0.0000 50.8981 0.0000
# 6 0.0000 0.0000 0.0000 0.0000 0.0000 -3.9661
#
#
#
# Elastic Compliance Matrix: (Units=1/GPa)
#
#
# Indices 1 2 3 4 5 6 
#
# 1 0.019760 -0.004411 -0.003288 0.000000 0.000000 0.000000
# 2 -0.004411 0.004883 0.000240 0.000000 0.000000 0.000000
# 3 -0.003288 0.000240 0.026883 0.000000 0.000000 0.000000
# 4 0.000000 0.000000 0.000000 0.024000 0.000000 0.000000
# 5 0.000000 0.000000 0.000000 0.000000 0.019647 0.000000
# 6 0.000000 0.000000 0.000000 0.000000 0.000000 -0.252134
#
#
# Mechanical properties :
#
#
# Convention : Reuss Voigt Hill
#
# Bulk Modulus (GPa) = 27.31767 55.66433 41.49100
# Shear Modulus (GPa) = -38.50928 37.02754 -0.74087
#
# Velocity S-wave (km/s) = -3.90007 3.82430 -0.54095
# Velocity P-wave (km/s) = 3.08069 6.44103 3.99976
#
# Compressibility (1/GPa) = 0.03660635
#
# Stress axis : x y z
#
# Youngs Moduli (GPa) = 50.60708 204.80942 37.19756
#
# Poissons Ratio (x) = 0.90351 0.12232
# Poissons Ratio (y) = 0.22325 -0.00892
# Poissons Ratio (z) = 0.16641 -0.04914
#
# Static dielectric constant tensor:
#      x y z
#    x 4.608450 0.000000 0.000000 
#    y 0.000000 5.643890 0.000000 
#    z 0.000000 0.000000 4.680200 
# 
# 
# High freq. dielectric constant tensor:
#      x y z
#    x 1.975610 0.000000 0.000000 
#    y 0.000000 2.060450 0.000000 
#    z 0.000000 0.000000 2.002380 
# 
# From -- ./inp_files/5818.got.cif
#   From: 2010.03.12/outbox.cif.g09.slc.cpg/sg62_3_cif.got.tgz:5818.got - 2010.04.10 19:12:36.
