data_PCOD8254715
_publ_section_title
;
Structure prediction by ZEFSAII (Michael W. Deem and Ramdas Pophale) SiO2 
 PCOD8254715
Probable space group: P N M A
;
_chemical_formula_sum "Si O2"
_cell_formula_units_Z 48
_cell_length_a 18.517578
_cell_length_b 8.815672
_cell_length_c 14.659324
_cell_angle_alpha 90.000000
_cell_angle_beta 90.000000
_cell_angle_gamma 90.000000
_cell_volume 2393.059791
_symmetry_space_group_name_H-M "P N M A"
_symmetry_group_IT_number 62
_symmetry_cell_setting 'orthorhombic'
loop_
_space_group_symop_operation_xyz
x,y,z
1/2-x,-y,1/2+z
1/2+x,1/2-y,1/2-z
-x,1/2+y,-z
-x,-y,-z
1/2+x,y,1/2-z
1/2-x,1/2+y,1/2+z
x,1/2-y,z
loop_
_atom_site_type_symbol
_atom_site_label
_atom_site_fract_x
_atom_site_fract_y
_atom_site_fract_z
Si Si1 0.284383 0.571328 0.537552
Si Si2 0.258369 0.574425 0.217075
Si Si3 0.575329 0.074433 0.759975
Si Si4 0.566264 0.428810 0.552424
Si Si5 0.974569 0.927213 0.593253
Si Si6 0.809186 0.571814 0.609051
O O1 0.271982 0.750000 0.525252
O O2 0.284023 0.526993 0.643743
O O3 0.360144 0.517838 0.495426
O O4 0.220160 0.478583 0.489487
O O5 0.238120 0.750000 0.203953
O O6 0.343487 0.548430 0.206127
O O7 0.234783 0.522789 0.316835
O O8 0.553685 0.250000 0.767498
O O9 0.566635 0.015036 0.656723
O O10 0.522702 0.977793 0.822271
O O11 0.500000 0.500000 0.500000
O O12 0.559221 0.250000 0.547464
O O13 0.982086 0.750000 0.579971
O O14 0.892711 0.973724 0.614945
O O15 0.000000 0.000000 0.500000
O O16 0.797143 0.750000 0.623725
#
# Coordination Sequence:
#
# PCOD8254715 Si02
#       6
#     8   8   8   8   8   8
#     4  11  23  42  65  93 127 162 205 259 312 369
#     4  11  23  41  65  93 124 163 207 256 311 369
#     4  10  22  43  65  90 126 165 206 254 308 368
#     4  10  23  42  62  89 125 165 207 256 309 367
#     4  11  25  42  63  93 126 163 206 256 309 368
#     4  11  24  42  63  93 127 162 208 257 307 371
#
# _framework density 20.058004
#
# number of rings (size 3 to 8) (size 9 to 14) (size 15 to 20)
#    0.000    1.333    1.667    3.000    2.333   10.000 
#    0.000    0.000    0.000    0.000    0.000    0.000 
#    0.000    0.000    0.000    0.000    0.000    0.000 
#
# Total GULP energy -595530.290374 kJ/mol
# GULP energy per Si atom -12406.881049 kJ/mol
# Density = 2.001235 g / cm^3
# Si number density = 20.058004 Si / 1000 Ang^3
#
#
#
# Elastic Constant Matrix: (Units=GPa)
#
#
# Indices 1 2 3 4 5 6 
#
# 1 93.9365 54.4084 24.7033 0.0000 0.0000 0.0000
# 2 54.4084 55.6127 21.0430 0.0000 0.0000 0.0000
# 3 24.7033 21.0430 97.4672 0.0000 0.0000 0.0000
# 4 0.0000 0.0000 0.0000 42.2644 0.0000 0.0000
# 5 0.0000 0.0000 0.0000 0.0000 40.8909 0.0000
# 6 0.0000 0.0000 0.0000 0.0000 0.0000 34.9789
#
#
#
# Elastic Compliance Matrix: (Units=1/GPa)
#
#
# Indices 1 2 3 4 5 6 
#
# 1 0.024681 -0.023717 -0.001135 0.000000 0.000000 0.000000
# 2 -0.023717 0.042372 -0.003137 0.000000 0.000000 0.000000
# 3 -0.001135 -0.003137 0.011225 0.000000 0.000000 0.000000
# 4 0.000000 0.000000 0.000000 0.023661 0.000000 0.000000
# 5 0.000000 0.000000 0.000000 0.000000 0.024455 0.000000
# 6 0.000000 0.000000 0.000000 0.000000 0.000000 0.028589
#
#
# Mechanical properties :
#
#
# Convention : Reuss Voigt Hill
#
# Bulk Modulus (GPa) = 44.84338 49.70286 47.27312
# Shear Modulus (GPa) = 22.89449 33.41762 28.15606
#
# Velocity S-wave (km/s) = 3.38215 4.08615 3.75071
# Velocity P-wave (km/s) = 6.13655 6.86262 6.50972
#
# Compressibility (1/GPa) = 0.02229984
#
# Stress axis : x y z
#
# Youngs Moduli (GPa) = 40.51709 23.60058 89.08866
#
# Poissons Ratio (x) = 0.55973 0.10111
# Poissons Ratio (y) = 0.96094 0.27946
# Poissons Ratio (z) = 0.04599 0.07403
#
# Static dielectric constant tensor:
#      x y z
#    x 3.696040 0.000000 0.000000 
#    y 0.000000 3.569410 0.000000 
#    z 0.000000 0.000000 3.672910 
# 
# 
# High freq. dielectric constant tensor:
#      x y z
#    x 1.792690 0.000000 0.000000 
#    y 0.000000 1.785680 0.000000 
#    z 0.000000 0.000000 1.799270 
# 
# From -- ./inp_files/19631.got.cif
#   From: 2010.03.12/outbox.cif.g09.slc.cpg/sg62_10_cif.got.tgz:19631.got - 2010.04.10 19:12:36.
