data_PCOD8254520
_publ_section_title
;
Structure prediction by ZEFSAII (Michael W. Deem and Ramdas Pophale) SiO2 
 PCOD8254520
Probable space group: P N M A
;
_chemical_formula_sum "Si O2"
_cell_formula_units_Z 64
_cell_length_a 9.010251
_cell_length_b 13.674713
_cell_length_c 23.274829
_cell_angle_alpha 90.000000
_cell_angle_beta 90.000000
_cell_angle_gamma 90.000000
_cell_volume 2867.752114
_symmetry_space_group_name_H-M "P N M A"
_symmetry_group_IT_number 62
_symmetry_cell_setting 'orthorhombic'
loop_
_space_group_symop_operation_xyz
x,y,z
1/2-x,-y,1/2+z
1/2+x,1/2-y,1/2-z
-x,1/2+y,-z
-x,-y,-z
1/2+x,y,1/2-z
1/2-x,1/2+y,1/2+z
x,1/2-y,z
loop_
_atom_site_type_symbol
_atom_site_label
_atom_site_fract_x
_atom_site_fract_y
_atom_site_fract_z
Si Si1 0.900992 0.635756 0.533060
Si Si2 0.106291 0.972631 0.947441
Si Si3 0.468897 0.550319 0.086045
Si Si4 0.755649 0.862866 0.118070
Si Si5 0.785099 0.949155 0.312927
Si Si6 0.223293 0.359422 0.236532
Si Si7 0.976279 0.861063 0.219624
Si Si8 0.433019 0.140173 0.333545
O O1 0.921495 0.750000 0.550088
O O2 0.727267 0.607538 0.533362
O O3 0.965203 0.617047 0.470070
O O4 0.993165 0.564170 0.575195
O O5 0.033447 0.931704 0.887737
O O6 0.180822 0.077078 0.935706
O O7 0.000000 0.000000 0.000000
O O8 0.589794 0.598607 0.128647
O O9 0.311310 0.560691 0.118696
O O10 0.762151 0.750000 0.101201
O O11 0.845918 0.885686 0.175425
O O12 0.617825 0.925528 0.295523
O O13 0.906849 0.882439 0.281344
O O14 0.818441 0.062208 0.298835
O O15 0.274926 0.250000 0.219537
O O16 0.050257 0.374597 0.219218
O O17 0.268748 0.376786 0.304412
O O18 0.030689 0.750000 0.216671
O O19 0.444228 0.250000 0.358127
#
# Coordination Sequence:
#
# PCOD8254520 Si02
#       8
#     8   8   8   8   8   8   8   8
#     4  10  23  44  67  94 129 176 230 283 344 414
#     4  11  24  40  66  97 137 177 226 283 346 418
#     4  10  24  42  67  95 126 173 224 281 337 408
#     4  10  22  42  63  87 125 168 218 273 332 395
#     4  12  23  40  65  94 136 169 218 280 340 408
#     4  10  22  39  65  95 130 170 216 271 342 409
#     4  11  25  41  63  97 132 176 223 274 343 411
#     4  10  22  42  65  97 133 173 222 278 342 416
#
# _framework density 22.317131
#
# number of rings (size 3 to 8) (size 9 to 14) (size 15 to 20)
#    0.000    1.500    0.000    4.125    3.500    7.500 
#    0.000    1.250    0.000    0.000    0.000    0.000 
#    0.000    0.000    0.000    0.000    0.000    0.000 
#
# Total GULP energy -793069.622593 kJ/mol
# GULP energy per Si atom -12391.712853 kJ/mol
# Density = 2.226634 g / cm^3
# Si number density = 22.317131 Si / 1000 Ang^3
#
#
#
# Elastic Constant Matrix: (Units=GPa)
#
#
# Indices 1 2 3 4 5 6 
#
# 1 65.9516 35.5026 56.8154 0.0000 0.0000 0.0000
# 2 35.5026 121.4158 49.7645 0.0000 0.0000 0.0000
# 3 56.8154 49.7645 104.1498 0.0000 0.0000 0.0000
# 4 0.0000 0.0000 0.0000 27.9712 0.0000 0.0000
# 5 0.0000 0.0000 0.0000 0.0000 39.0145 0.0000
# 6 0.0000 0.0000 0.0000 0.0000 0.0000 21.7038
#
#
#
# Elastic Compliance Matrix: (Units=1/GPa)
#
#
# Indices 1 2 3 4 5 6 
#
# 1 0.029203 -0.002499 -0.014737 0.000000 0.000000 0.000000
# 2 -0.002499 0.010456 -0.003633 0.000000 0.000000 0.000000
# 3 -0.014737 -0.003633 0.019376 0.000000 0.000000 0.000000
# 4 0.000000 0.000000 0.000000 0.035751 0.000000 0.000000
# 5 0.000000 0.000000 0.000000 0.000000 0.025632 0.000000
# 6 0.000000 0.000000 0.000000 0.000000 0.000000 0.046075
#
#
# Mechanical properties :
#
#
# Convention : Reuss Voigt Hill
#
# Bulk Modulus (GPa) = 57.80845 63.96468 60.88656
# Shear Modulus (GPa) = 23.36493 27.70020 25.53257
#
# Velocity S-wave (km/s) = 3.23917 3.52690 3.38609
# Velocity P-wave (km/s) = 6.32053 6.73122 6.52910
#
# Compressibility (1/GPa) = 0.01729851
#
# Stress axis : x y z
#
# Youngs Moduli (GPa) = 34.24291 95.64054 51.60910
#
# Poissons Ratio (x) = 0.23901 0.76055
# Poissons Ratio (y) = 0.08557 0.18748
# Poissons Ratio (z) = 0.50463 0.34743
#
# Static dielectric constant tensor:
#      x y z
#    x 3.988650 0.000000 0.000000 
#    y 0.000000 4.233620 0.000000 
#    z 0.000000 0.000000 3.878920 
# 
# 
# High freq. dielectric constant tensor:
#      x y z
#    x 1.872940 0.000000 0.000000 
#    y 0.000000 1.896830 0.000000 
#    z 0.000000 0.000000 1.868560 
# 
# From -- ./inp_files/28972.got.cif
#   From: 2010.03.12/outbox.cif.g09.slc.cpg/sg62_15_cif.got.tgz:28972.got - 2010.04.10 19:12:36.
