data_PCOD8254598
_publ_section_title
;
Structure prediction by ZEFSAII (Michael W. Deem and Ramdas Pophale) SiO2 
 PCOD8254598
Probable space group: P N M A
;
_chemical_formula_sum "Si O2"
_cell_formula_units_Z 40
_cell_length_a 9.012153
_cell_length_b 11.216076
_cell_length_c 18.148980
_cell_angle_alpha 90.000000
_cell_angle_beta 90.000000
_cell_angle_gamma 90.000000
_cell_volume 1834.516920
_symmetry_space_group_name_H-M "P N M A"
_symmetry_group_IT_number 62
_symmetry_cell_setting 'orthorhombic'
loop_
_space_group_symop_operation_xyz
x,y,z
1/2-x,-y,1/2+z
1/2+x,1/2-y,1/2-z
-x,1/2+y,-z
-x,-y,-z
1/2+x,y,1/2-z
1/2-x,1/2+y,1/2+z
x,1/2-y,z
loop_
_atom_site_type_symbol
_atom_site_label
_atom_site_fract_x
_atom_site_fract_y
_atom_site_fract_z
Si Si1 0.329277 0.485236 0.424278
Si Si2 0.399972 0.119320 0.005231
Si Si3 0.863295 0.885701 0.704852
Si Si4 0.672440 0.954328 0.840439
Si Si5 0.874082 0.383820 0.920559
O O1 0.234165 0.601700 0.447694
O O2 0.257942 0.416833 0.356277
O O3 0.491924 0.527348 0.400311
O O4 0.333566 0.394898 0.493288
O O5 0.475134 0.250000 0.987651
O O6 0.337947 0.130612 0.088131
O O7 0.500000 0.000000 0.000000
O O8 0.916057 0.750000 0.694438
O O9 0.790374 0.899594 0.784284
O O10 0.009550 0.968642 0.696369
O O11 0.733013 0.082019 0.869365
O O12 0.920097 0.250000 0.902028
#
# Coordination Sequence:
#
# PCOD8254598 Si02
#       5
#     8   8   8   8   8
#     4  10  22  40  68  98 128 171 225 275 333 406
#     4  11  22  40  67 101 135 175 225 279 336 405
#     4  12  23  42  65  94 131 170 220 284 341 400
#     4  11  25  41  65  98 130 176 226 275 341 406
#     4  10  22  43  65  94 133 173 222 279 336 402
#
# _framework density 21.804106000000001
#
# number of rings (size 3 to 8) (size 9 to 14) (size 15 to 20)
#    0.000    1.200    2.000    4.200    0.000    3.200 
#    0.000   13.000    0.000    0.000    0.000    0.000 
#    0.000    0.000    0.000    0.000    0.000    0.000 
#
# Total GULP energy -495809.264396 kJ/mol
# GULP energy per Si atom -12395.231610 kJ/mol
# Density = 2.175448 g / cm^3
# Si number density = 21.804106 Si / 1000 Ang^3
#
#
#
# Elastic Constant Matrix: (Units=GPa)
#
#
# Indices 1 2 3 4 5 6 
#
# 1 116.0777 51.3664 46.4945 0.0000 0.0000 0.0000
# 2 51.3664 126.9608 40.2431 0.0000 0.0000 0.0000
# 3 46.4945 40.2431 108.7770 0.0000 0.0000 0.0000
# 4 0.0000 0.0000 0.0000 8.1355 0.0000 0.0000
# 5 0.0000 0.0000 0.0000 0.0000 45.7661 0.0000
# 6 0.0000 0.0000 0.0000 0.0000 0.0000 25.9452
#
#
#
# Elastic Compliance Matrix: (Units=1/GPa)
#
#
# Indices 1 2 3 4 5 6 
#
# 1 0.011656 -0.003553 -0.003668 0.000000 0.000000 0.000000
# 2 -0.003553 0.010006 -0.002183 0.000000 0.000000 0.000000
# 3 -0.003668 -0.002183 0.011568 0.000000 0.000000 0.000000
# 4 0.000000 0.000000 0.000000 0.122918 0.000000 0.000000
# 5 0.000000 0.000000 0.000000 0.000000 0.021850 0.000000
# 6 0.000000 0.000000 0.000000 0.000000 0.000000 0.038543
#
#
# Mechanical properties :
#
#
# Convention : Reuss Voigt Hill
#
# Bulk Modulus (GPa) = 69.33524 69.78039 69.55781
# Shear Modulus (GPa) = 20.81966 30.21679 25.51822
#
# Velocity S-wave (km/s) = 3.09342 3.72671 3.42473
# Velocity P-wave (km/s) = 6.68036 7.11271 6.89992
#
# Compressibility (1/GPa) = 0.01442268
#
# Stress axis : x y z
#
# Youngs Moduli (GPa) = 85.78933 99.93929 86.44227
#
# Poissons Ratio (x) = 0.35513 0.31704
# Poissons Ratio (y) = 0.30485 0.18870
# Poissons Ratio (z) = 0.31465 0.21817
#
# Static dielectric constant tensor:
#      x y z
#    x 4.118110 0.000000 0.000000 
#    y 0.000000 3.704410 0.000000 
#    z 0.000000 0.000000 3.994470 
# 
# 
# High freq. dielectric constant tensor:
#      x y z
#    x 1.868720 0.000000 0.000000 
#    y 0.000000 1.836300 0.000000 
#    z 0.000000 0.000000 1.856050 
# 
# From -- ./inp_files/21918.got.cif
#   From: 2010.03.12/outbox.cif.g09.slc.cpg/sg62_11_cif.got.tgz:21918.got - 2010.04.10 19:12:36.
