data_PCOD8254346
_publ_section_title
;
Structure prediction by ZEFSAII (Michael W. Deem and Ramdas Pophale) SiO2 
 PCOD8254346
Probable space group: P N M A
;
_chemical_formula_sum "Si O2"
_cell_formula_units_Z 32
_cell_length_a 8.919815
_cell_length_b 14.707896
_cell_length_c 11.614072
_cell_angle_alpha 90.000000
_cell_angle_beta 90.000000
_cell_angle_gamma 90.000000
_cell_volume 1523.669982
_symmetry_space_group_name_H-M "P N M A"
_symmetry_group_IT_number 62
_symmetry_cell_setting 'orthorhombic'
loop_
_space_group_symop_operation_xyz
x,y,z
1/2-x,-y,1/2+z
1/2+x,1/2-y,1/2-z
-x,1/2+y,-z
-x,-y,-z
1/2+x,y,1/2-z
1/2-x,1/2+y,1/2+z
x,1/2-y,z
loop_
_atom_site_type_symbol
_atom_site_label
_atom_site_fract_x
_atom_site_fract_y
_atom_site_fract_z
Si Si1 0.601510 0.750000 0.332466
Si Si2 0.549155 0.149934 0.125161
Si Si3 0.063707 0.250000 0.598018
Si Si4 0.792160 0.039933 0.259777
Si Si5 0.968650 0.053912 0.885748
O O1 0.563122 0.750000 0.196268
O O2 0.779760 0.750000 0.336521
O O3 0.536456 0.837260 0.400596
O O4 0.564211 0.250000 0.182360
O O5 0.692925 0.092018 0.164378
O O6 0.391215 0.109108 0.165410
O O7 0.548248 0.160495 0.985115
O O8 0.690168 0.981480 0.342998
O O9 0.898769 0.966348 0.202022
O O10 0.000000 0.000000 0.000000
#
# Coordination Sequence:
#
# PCOD8254346 Si02
#       5
#     4   8   4   8   8
#     4  12  24  46  60  92 130 170 218 260 322 384
#     4   9  20  39  66  99 130 172 212 267 320 368
#     4  10  24  38  66  92 128 174 210 256 322 378
#     4  10  21  41  65  97 130 165 225 262 312 387
#     4  11  25  43  67  95 128 174 211 272 318 383
#
# _framework density 21.001922
#
# number of rings (size 3 to 8) (size 9 to 14) (size 15 to 20)
#    0.750    1.000    0.000    3.750    0.000    4.000 
#   11.250    6.250    0.000    0.000    0.000    0.000 
#    0.000    0.000    0.000    0.000    0.000    0.000 
#
# Total GULP energy -396729.594952 kJ/mol
# GULP energy per Si atom -12397.799842 kJ/mol
# Density = 2.095412 g / cm^3
# Si number density = 21.001922 Si / 1000 Ang^3
#
#
#
# Elastic Constant Matrix: (Units=GPa)
#
#
# Indices 1 2 3 4 5 6 
#
# 1 143.0507 50.5655 57.9331 0.0000 0.0000 0.0000
# 2 50.5655 145.9797 41.9274 0.0000 0.0000 0.0000
# 3 57.9331 41.9274 124.8689 0.0000 0.0000 0.0000
# 4 0.0000 0.0000 0.0000 27.4553 0.0000 0.0000
# 5 0.0000 0.0000 0.0000 0.0000 26.3857 0.0000
# 6 0.0000 0.0000 0.0000 0.0000 0.0000 17.1984
#
#
#
# Elastic Compliance Matrix: (Units=1/GPa)
#
#
# Indices 1 2 3 4 5 6 
#
# 1 0.009188 -0.002167 -0.003535 0.000000 0.000000 0.000000
# 2 -0.002167 0.008093 -0.001712 0.000000 0.000000 0.000000
# 3 -0.003535 -0.001712 0.010223 0.000000 0.000000 0.000000
# 4 0.000000 0.000000 0.000000 0.036423 0.000000 0.000000
# 5 0.000000 0.000000 0.000000 0.000000 0.037899 0.000000
# 6 0.000000 0.000000 0.000000 0.000000 0.000000 0.058145
#
#
# Mechanical properties :
#
#
# Convention : Reuss Voigt Hill
#
# Bulk Modulus (GPa) = 78.89104 79.41679 79.15391
# Shear Modulus (GPa) = 27.92900 31.77276 29.85088
#
# Velocity S-wave (km/s) = 3.65064 3.89376 3.77416
# Velocity P-wave (km/s) = 7.44411 7.62307 7.53413
#
# Compressibility (1/GPa) = 0.01267571
#
# Stress axis : x y z
#
# Youngs Moduli (GPa) = 108.83346 123.56898 97.81559
#
# Poissons Ratio (x) = 0.26782 0.34580
# Poissons Ratio (y) = 0.23588 0.16743
# Poissons Ratio (z) = 0.38475 0.21152
#
# Static dielectric constant tensor:
#      x y z
#    x 3.779490 0.000000 0.000000 
#    y 0.000000 3.843350 0.000000 
#    z 0.000000 0.000000 3.764290 
# 
# 
# High freq. dielectric constant tensor:
#      x y z
#    x 1.837620 0.000000 0.000000 
#    y 0.000000 1.830440 0.000000 
#    z 0.000000 0.000000 1.814630 
# 
# From -- ./inp_files/10957.got.cif
#   From: 2010.03.12/outbox.cif.g09.slc.cpg/sg62_6_cif.got.tgz:10957.got - 2010.04.10 19:12:36.
