data_PCOD8254967
_publ_section_title
;
Structure prediction by ZEFSAII (Michael W. Deem and Ramdas Pophale) SiO2 
 PCOD8254967
Probable space group: P N M A
;
_chemical_formula_sum "Si O2"
_cell_formula_units_Z 32
_cell_length_a 4.985854
_cell_length_b 10.671739
_cell_length_c 30.513037
_cell_angle_alpha 90.000000
_cell_angle_beta 90.000000
_cell_angle_gamma 90.000000
_cell_volume 1623.529513
_symmetry_space_group_name_H-M "P N M A"
_symmetry_group_IT_number 62
_symmetry_cell_setting 'orthorhombic'
loop_
_space_group_symop_operation_xyz
x,y,z
1/2-x,-y,1/2+z
1/2+x,1/2-y,1/2-z
-x,1/2+y,-z
-x,-y,-z
1/2+x,y,1/2-z
1/2-x,1/2+y,1/2+z
x,1/2-y,z
loop_
_atom_site_type_symbol
_atom_site_label
_atom_site_fract_x
_atom_site_fract_y
_atom_site_fract_z
Si Si1 0.078333 0.899162 0.723493
Si Si2 0.792460 0.886811 0.491654
Si Si3 0.013906 0.458357 0.073237
Si Si4 0.525182 0.107206 0.126548
O O1 0.855166 0.949959 0.756993
O O2 0.076669 0.750000 0.721344
O O3 0.034631 0.950675 0.674432
O O4 0.934033 0.750000 0.487544
O O5 0.583900 0.876424 0.531858
O O6 0.627355 0.911156 0.446610
O O7 0.000000 0.000000 0.500000
O O8 0.758871 0.478332 0.105263
O O9 0.254319 0.389679 0.098376
O O10 0.633753 0.250000 0.129629
#
# Coordination Sequence:
#
# PCOD8254967 Si02
#       4
#     8   8   8   8
#     4   9  17  29  46  73 109 150 185 224 282 346
#     4  11  24  41  61  84 118 158 199 248 294 344
#     4  11  23  37  54  84 110 154 196 236 285 344
#     4  11  20  33  54  80 115 153 193 235 285 350
#
# _framework density 19.710145000000001
#
# number of rings (size 3 to 8) (size 9 to 14) (size 15 to 20)
#    0.000    1.500    2.500    3.750    0.000    9.000 
#    0.000    0.000    0.000    0.000    0.000    0.000 
#    0.000   20.000    0.000    0.000    0.000    0.000 
#
# Total GULP energy -396568.063342 kJ/mol
# GULP energy per Si atom -12392.751979 kJ/mol
# Density = 1.966528 g / cm^3
# Si number density = 19.710145 Si / 1000 Ang^3
#
#
#
# Elastic Constant Matrix: (Units=GPa)
#
#
# Indices 1 2 3 4 5 6 
#
# 1 106.6055 29.3207 26.3131 0.0000 0.0000 0.0000
# 2 29.3207 86.6817 26.7427 0.0000 0.0000 0.0000
# 3 26.3131 26.7427 115.2099 0.0000 0.0000 0.0000
# 4 0.0000 0.0000 0.0000 11.3300 0.0000 0.0000
# 5 0.0000 0.0000 0.0000 0.0000 40.2823 0.0000
# 6 0.0000 0.0000 0.0000 0.0000 0.0000 15.7564
#
#
#
# Elastic Compliance Matrix: (Units=1/GPa)
#
#
# Indices 1 2 3 4 5 6 
#
# 1 0.010650 -0.003072 -0.001719 0.000000 0.000000 0.000000
# 2 -0.003072 0.013312 -0.002389 0.000000 0.000000 0.000000
# 3 -0.001719 -0.002389 0.009627 0.000000 0.000000 0.000000
# 4 0.000000 0.000000 0.000000 0.088261 0.000000 0.000000
# 5 0.000000 0.000000 0.000000 0.000000 0.024825 0.000000
# 6 0.000000 0.000000 0.000000 0.000000 0.000000 0.063466
#
#
# Mechanical properties :
#
#
# Convention : Reuss Voigt Hill
#
# Bulk Modulus (GPa) = 52.00295 52.58333 52.29314
# Shear Modulus (GPa) = 21.65344 28.54845 25.10094
#
# Velocity S-wave (km/s) = 3.31810 3.80993 3.57249
# Velocity P-wave (km/s) = 6.41255 6.78899 6.60345
#
# Compressibility (1/GPa) = 0.01922968
#
# Stress axis : x y z
#
# Youngs Moduli (GPa) = 93.90003 75.11773 103.87562
#
# Poissons Ratio (x) = 0.23075 0.17859
# Poissons Ratio (y) = 0.28845 0.24811
# Poissons Ratio (z) = 0.16144 0.17942
#
# Static dielectric constant tensor:
#      x y z
#    x 3.787330 0.000000 0.000000 
#    y 0.000000 3.056820 0.000000 
#    z 0.000000 0.000000 3.924620 
# 
# 
# High freq. dielectric constant tensor:
#      x y z
#    x 1.786180 0.000000 0.000000 
#    y 0.000000 1.690440 0.000000 
#    z 0.000000 0.000000 1.780110 
# 
# From -- ./inp_files/30221.got.cif
#   From: 2010.03.12/outbox.cif.g09.slc.cpg/sg62_16_cif.got.tgz:30221.got - 2010.04.10 19:12:36.
