data_PCOD8254428
_publ_section_title
;
Structure prediction by ZEFSAII (Michael W. Deem and Ramdas Pophale) SiO2 
 PCOD8254428
Probable space group: P N M A
;
_chemical_formula_sum "Si O2"
_cell_formula_units_Z 40
_cell_length_a 19.825561
_cell_length_b 16.832713
_cell_length_c 4.772361
_cell_angle_alpha 90.000000
_cell_angle_beta 90.000000
_cell_angle_gamma 90.000000
_cell_volume 1592.622665
_symmetry_space_group_name_H-M "P N M A"
_symmetry_group_IT_number 62
_symmetry_cell_setting 'orthorhombic'
loop_
_space_group_symop_operation_xyz
x,y,z
1/2-x,-y,1/2+z
1/2+x,1/2-y,1/2-z
-x,1/2+y,-z
-x,-y,-z
1/2+x,y,1/2-z
1/2-x,1/2+y,1/2+z
x,1/2-y,z
loop_
_atom_site_type_symbol
_atom_site_label
_atom_site_fract_x
_atom_site_fract_y
_atom_site_fract_z
Si Si1 0.877089 0.661604 0.880261
Si Si2 0.204442 0.750000 0.504713
Si Si3 0.474790 0.340820 0.251338
Si Si4 0.795226 0.984985 0.964385
Si Si5 0.796285 0.750000 0.487321
Si Si6 0.889888 0.383058 0.729285
O O1 0.881397 0.750000 0.030861
O O2 0.829107 0.599688 0.044328
O O3 0.841576 0.672944 0.572918
O O4 0.952134 0.626644 0.845155
O O5 0.226071 0.750000 0.830352
O O6 0.164190 0.828434 0.427659
O O7 0.275678 0.750000 0.336714
O O8 0.480531 0.250000 0.139846
O O9 0.422292 0.340607 0.504632
O O10 0.448813 0.397724 0.000334
O O11 0.732866 0.975271 0.747542
O O12 0.853927 0.036635 0.822450
#
# Coordination Sequence:
#
# PCOD8254428 Si02
#       6
#     8   4   8   8   4   8
#     4   9  24  46  69  94 133 180 217 269 328 399
#     4  12  20  36  58  94 126 160 214 250 326 372
#     4  11  22  44  64 100 132 175 224 266 321 397
#     4  12  26  47  66 101 134 170 222 277 329 389
#     4  10  22  36  62  88 116 174 204 254 306 384
#     4  12  24  38  70  95 134 172 214 281 321 384
#
# _framework density 25.115803
#
# number of rings (size 3 to 8) (size 9 to 14) (size 15 to 20)
#    0.600    0.400    2.000    4.800    0.000    4.800 
#    0.000    0.000    0.000    0.000    0.000    0.000 
#    0.000    0.000    0.000    0.000    0.000    0.000 
#
# Total GULP energy -495851.067940 kJ/mol
# GULP energy per Si atom -12396.276699 kJ/mol
# Density = 2.505864 g / cm^3
# Si number density = 25.115803 Si / 1000 Ang^3
#
#
#
# Elastic Constant Matrix: (Units=GPa)
#
#
# Indices 1 2 3 4 5 6 
#
# 1 121.4889 38.8238 9.5246 0.0000 0.0000 0.0000
# 2 38.8238 88.2223 4.9176 0.0000 0.0000 0.0000
# 3 9.5246 4.9176 70.4518 0.0000 0.0000 0.0000
# 4 0.0000 0.0000 0.0000 22.8334 0.0000 0.0000
# 5 0.0000 0.0000 0.0000 0.0000 28.6087 0.0000
# 6 0.0000 0.0000 0.0000 0.0000 0.0000 25.0132
#
#
#
# Elastic Compliance Matrix: (Units=1/GPa)
#
#
# Indices 1 2 3 4 5 6 
#
# 1 0.009650 -0.004190 -0.001012 0.000000 0.000000 0.000000
# 2 -0.004190 0.013199 -0.000355 0.000000 0.000000 0.000000
# 3 -0.001012 -0.000355 0.014356 0.000000 0.000000 0.000000
# 4 0.000000 0.000000 0.000000 0.043795 0.000000 0.000000
# 5 0.000000 0.000000 0.000000 0.000000 0.034954 0.000000
# 6 0.000000 0.000000 0.000000 0.000000 0.000000 0.039979
#
#
# Mechanical properties :
#
#
# Convention : Reuss Voigt Hill
#
# Bulk Modulus (GPa) = 38.32879 42.96611 40.64745
# Shear Modulus (GPa) = 28.45059 30.41753 29.43406
#
# Velocity S-wave (km/s) = 3.36933 3.48385 3.42707
# Velocity P-wave (km/s) = 5.51638 5.77298 5.64614
#
# Compressibility (1/GPa) = 0.02609005
#
# Stress axis : x y z
#
# Youngs Moduli (GPa) = 103.63183 75.76518 69.65878
#
# Poissons Ratio (x) = 0.31746 0.07050
# Poissons Ratio (y) = 0.43422 0.02472
# Poissons Ratio (z) = 0.10488 0.02688
#
# Static dielectric constant tensor:
#      x y z
#    x 4.877020 0.000000 0.000000 
#    y 0.000000 4.212700 0.000000 
#    z 0.000000 0.000000 4.334540 
# 
# 
# High freq. dielectric constant tensor:
#      x y z
#    x 2.026740 0.000000 0.000000 
#    y 0.000000 1.973860 0.000000 
#    z 0.000000 0.000000 1.993750 
# 
# From -- ./inp_files/1583.got.cif
#   From: 2010.03.12/outbox.cif.g09.slc.cpg/sg62_1_cif.got.tgz:1583.got - 2010.04.10 19:12:36.
