data_PCOD8254070
_publ_section_title
;
Structure prediction by ZEFSAII (Michael W. Deem and Ramdas Pophale) SiO2 
 PCOD8254070
Probable space group: P N M A
;
_chemical_formula_sum "Si O2"
_cell_formula_units_Z 48
_cell_length_a 8.769352
_cell_length_b 17.371353
_cell_length_c 14.905995
_cell_angle_alpha 90.000000
_cell_angle_beta 90.000000
_cell_angle_gamma 90.000000
_cell_volume 2270.712338
_symmetry_space_group_name_H-M "P N M A"
_symmetry_group_IT_number 62
_symmetry_cell_setting 'orthorhombic'
loop_
_space_group_symop_operation_xyz
x,y,z
1/2-x,-y,1/2+z
1/2+x,1/2-y,1/2-z
-x,1/2+y,-z
-x,-y,-z
1/2+x,y,1/2-z
1/2-x,1/2+y,1/2+z
x,1/2-y,z
loop_
_atom_site_type_symbol
_atom_site_label
_atom_site_fract_x
_atom_site_fract_y
_atom_site_fract_z
Si Si1 0.556058 0.105688 0.469380
Si Si2 0.902764 0.338810 0.848885
Si Si3 0.638600 0.425266 0.759262
Si Si4 0.030897 0.424979 0.324275
Si Si5 0.731568 0.164327 0.314971
Si Si6 0.713958 0.509297 0.585388
O O1 0.471336 0.143021 0.553545
O O2 0.639984 0.168736 0.408883
O O3 0.433225 0.064332 0.405027
O O4 0.686640 0.043641 0.497984
O O5 0.856986 0.250000 0.843020
O O6 0.753244 0.390963 0.833484
O O7 0.025866 0.357234 0.772176
O O8 0.545323 0.494670 0.800997
O O9 0.730242 0.455497 0.672853
O O10 0.905414 0.359163 0.336812
O O11 0.155344 0.397616 0.250694
O O12 0.130139 0.439864 0.415987
O O13 0.732269 0.250000 0.272836
#
# Coordination Sequence:
#
# PCOD8254070 Si02
#       6
#     8   8   8   8   8   8
#     4  10  23  42  63  94 127 168 205 258 330 375
#     4  11  23  40  63  92 129 162 204 260 320 374
#     4  11  20  39  65  93 116 163 218 251 302 369
#     4  12  22  40  67  96 119 170 220 262 303 375
#     4  12  24  41  64  93 132 166 209 265 326 380
#     4  10  21  38  66  92 119 160 212 268 294 374
#
# _framework density 21.138741
#
# number of rings (size 3 to 8) (size 9 to 14) (size 15 to 20)
#    0.000    1.000    5.000    1.500    4.667    0.667 
#    0.000    2.500    0.000    0.000    0.000    0.000 
#    0.000    0.000    0.000    0.000    0.000    0.000 
#
# Total GULP energy -595070.187873 kJ/mol
# GULP energy per Si atom -12397.295581 kJ/mol
# Density = 2.109063 g / cm^3
# Si number density = 21.138741 Si / 1000 Ang^3
#
#
#
# Elastic Constant Matrix: (Units=GPa)
#
#
# Indices 1 2 3 4 5 6 
#
# 1 113.0876 55.7412 42.9190 0.0000 0.0000 0.0000
# 2 55.7412 115.0795 25.4947 0.0000 0.0000 0.0000
# 3 42.9190 25.4947 56.4591 0.0000 0.0000 0.0000
# 4 0.0000 0.0000 0.0000 19.2374 0.0000 0.0000
# 5 0.0000 0.0000 0.0000 0.0000 39.5514 0.0000
# 6 0.0000 0.0000 0.0000 0.0000 0.0000 29.3227
#
#
#
# Elastic Compliance Matrix: (Units=1/GPa)
#
#
# Indices 1 2 3 4 5 6 
#
# 1 0.014772 -0.005186 -0.008887 0.000000 0.000000 0.000000
# 2 -0.005186 0.011476 -0.001240 0.000000 0.000000 0.000000
# 3 -0.008887 -0.001240 0.025028 0.000000 0.000000 0.000000
# 4 0.000000 0.000000 0.000000 0.051982 0.000000 0.000000
# 5 0.000000 0.000000 0.000000 0.000000 0.025284 0.000000
# 6 0.000000 0.000000 0.000000 0.000000 0.000000 0.034103
#
#
# Mechanical properties :
#
#
# Convention : Reuss Voigt Hill
#
# Bulk Modulus (GPa) = 48.42799 59.21511 53.82155
# Shear Modulus (GPa) = 24.98063 28.32038 26.65051
#
# Velocity S-wave (km/s) = 3.44138 3.66421 3.55455
# Velocity P-wave (km/s) = 6.22496 6.78051 6.50867
#
# Compressibility (1/GPa) = 0.02064922
#
# Stress axis : x y z
#
# Youngs Moduli (GPa) = 67.69593 87.13568 39.95548
#
# Poissons Ratio (x) = 0.45190 0.35510
# Poissons Ratio (y) = 0.35108 0.04954
# Poissons Ratio (z) = 0.60164 0.10804
#
# Static dielectric constant tensor:
#      x y z
#    x 4.047960 0.000000 0.000000 
#    y 0.000000 3.701500 0.000000 
#    z 0.000000 0.000000 3.630070 
# 
# 
# High freq. dielectric constant tensor:
#      x y z
#    x 1.839690 0.000000 0.000000 
#    y 0.000000 1.824090 0.000000 
#    z 0.000000 0.000000 1.809380 
# 
# From -- ./inp_files/16937.got.cif
#   From: 2010.03.12/outbox.cif.g09.slc.cpg/sg62_9_cif.got.tgz:16937.got - 2010.04.10 19:12:36.
