data_PCOD8254089
_publ_section_title
;
Structure prediction by ZEFSAII (Michael W. Deem and Ramdas Pophale) SiO2 
 PCOD8254089
Probable space group: P N M A
;
_chemical_formula_sum "Si O2"
_cell_formula_units_Z 64
_cell_length_a 9.601064
_cell_length_b 31.588051
_cell_length_c 10.681526
_cell_angle_alpha 90.000000
_cell_angle_beta 90.000000
_cell_angle_gamma 90.000000
_cell_volume 3239.481448
_symmetry_space_group_name_H-M "P N M A"
_symmetry_group_IT_number 62
_symmetry_cell_setting 'orthorhombic'
loop_
_space_group_symop_operation_xyz
x,y,z
1/2-x,-y,1/2+z
1/2+x,1/2-y,1/2-z
-x,1/2+y,-z
-x,-y,-z
1/2+x,y,1/2-z
1/2-x,1/2+y,1/2+z
x,1/2-y,z
loop_
_atom_site_type_symbol
_atom_site_label
_atom_site_fract_x
_atom_site_fract_y
_atom_site_fract_z
Si Si1 0.692655 0.201318 0.809853
Si Si2 0.454695 0.411902 0.159497
Si Si3 0.677212 0.428794 0.477126
Si Si4 0.658103 0.118215 0.953866
Si Si5 0.177767 0.047809 0.758766
Si Si6 0.423838 0.990821 0.703365
Si Si7 0.010148 0.702690 0.095715
Si Si8 0.056006 0.630236 0.920112
O O1 0.650169 0.250000 0.847710
O O2 0.636094 0.166536 0.908266
O O3 0.860346 0.196806 0.807329
O O4 0.628856 0.190116 0.673278
O O5 0.293705 0.420135 0.127701
O O6 0.532320 0.455740 0.193452
O O7 0.460896 0.377539 0.271839
O O8 0.525514 0.392217 0.037837
O O9 0.746747 0.436162 0.611782
O O10 0.580482 0.468227 0.431814
O O11 0.571087 0.390527 0.494729
O O12 0.670376 0.085724 0.839146
O O13 0.796032 0.111906 0.036704
O O14 0.266902 0.007447 0.718949
O O15 0.022868 0.031437 0.789532
O O16 0.997333 0.750000 0.047186
O O17 0.038231 0.678473 0.965261
#
# Coordination Sequence:
#
# PCOD8254089 Si02
#       8
#     8   8   8   8   8   8   8   8
#     4   9  19  37  61  92 127 160 193 244 305 356
#     4  11  24  42  59  80 119 163 200 246 305 355
#     4  11  23  39  59  82 114 157 202 244 298 356
#     4  11  24  39  62  90 118 154 204 250 298 361
#     4  12  24  37  60  86 116 150 200 255 295 353
#     4  11  24  40  56  84 115 158 197 248 304 349
#     4   9  18  35  62  92 125 158 195 243 300 361
#     4  10  21  39  60  84 116 156 202 242 297 357
#
# _framework density 19.756249
#
# number of rings (size 3 to 8) (size 9 to 14) (size 15 to 20)
#    0.000    1.500    1.250    4.125    3.500    5.000 
#    0.000    0.625    0.000    2.250    0.000    0.000 
#    0.000    0.000    0.000    0.000    0.000    0.000 
#
# Total GULP energy -793321.513523 kJ/mol
# GULP energy per Si atom -12395.648649 kJ/mol
# Density = 1.971128 g / cm^3
# Si number density = 19.756249 Si / 1000 Ang^3
#
#
#
# Elastic Constant Matrix: (Units=GPa)
#
#
# Indices 1 2 3 4 5 6 
#
# 1 68.5469 34.4149 17.5389 0.0000 0.0000 0.0000
# 2 34.4149 97.0011 47.4007 0.0000 0.0000 0.0000
# 3 17.5389 47.4007 95.3523 0.0000 0.0000 0.0000
# 4 0.0000 0.0000 0.0000 25.5948 0.0000 0.0000
# 5 0.0000 0.0000 0.0000 0.0000 32.0885 0.0000
# 6 0.0000 0.0000 0.0000 0.0000 0.0000 27.3502
#
#
#
# Elastic Compliance Matrix: (Units=1/GPa)
#
#
# Indices 1 2 3 4 5 6 
#
# 1 0.017753 -0.006212 -0.000177 0.000000 0.000000 0.000000
# 2 -0.006212 0.015790 -0.006707 0.000000 0.000000 0.000000
# 3 -0.000177 -0.006707 0.013854 0.000000 0.000000 0.000000
# 4 0.000000 0.000000 0.000000 0.039070 0.000000 0.000000
# 5 0.000000 0.000000 0.000000 0.000000 0.031164 0.000000
# 6 0.000000 0.000000 0.000000 0.000000 0.000000 0.036563
#
#
# Mechanical properties :
#
#
# Convention : Reuss Voigt Hill
#
# Bulk Modulus (GPa) = 47.15900 51.06770 49.11335
# Shear Modulus (GPa) = 26.67305 27.77642 27.22473
#
# Velocity S-wave (km/s) = 3.67837 3.75368 3.71621
# Velocity P-wave (km/s) = 6.47787 6.68519 6.58234
#
# Compressibility (1/GPa) = 0.02120486
#
# Stress axis : x y z
#
# Youngs Moduli (GPa) = 56.32967 63.32931 72.18020
#
# Poissons Ratio (x) = 0.39338 0.01281
# Poissons Ratio (y) = 0.34990 0.48412
# Poissons Ratio (z) = 0.01000 0.42475
#
# Static dielectric constant tensor:
#      x y z
#    x 3.654990 0.000000 0.000000 
#    y 0.000000 3.626710 0.000000 
#    z 0.000000 0.000000 3.424100 
# 
# 
# High freq. dielectric constant tensor:
#      x y z
#    x 1.780560 0.000000 0.000000 
#    y 0.000000 1.769400 0.000000 
#    z 0.000000 0.000000 1.758890 
# 
# From -- ./inp_files/11565.got.cif
#   From: 2010.03.12/outbox.cif.g09.slc.cpg/sg62_6_cif.got.tgz:11565.got - 2010.04.10 19:12:36.
