data_PCOD8254830
_publ_section_title
;
Structure prediction by ZEFSAII (Michael W. Deem and Ramdas Pophale) SiO2 
 PCOD8254830
Probable space group: P N M A
;
_chemical_formula_sum "Si O2"
_cell_formula_units_Z 64
_cell_length_a 9.040757
_cell_length_b 28.302225
_cell_length_c 10.680904
_cell_angle_alpha 90.000000
_cell_angle_beta 90.000000
_cell_angle_gamma 90.000000
_cell_volume 2732.960704
_symmetry_space_group_name_H-M "P N M A"
_symmetry_group_IT_number 62
_symmetry_cell_setting 'orthorhombic'
loop_
_space_group_symop_operation_xyz
x,y,z
1/2-x,-y,1/2+z
1/2+x,1/2-y,1/2-z
-x,1/2+y,-z
-x,-y,-z
1/2+x,y,1/2-z
1/2-x,1/2+y,1/2+z
x,1/2-y,z
loop_
_atom_site_type_symbol
_atom_site_label
_atom_site_fract_x
_atom_site_fract_y
_atom_site_fract_z
Si Si1 0.249273 0.571537 0.577449
Si Si2 0.996908 0.952690 0.748323
Si Si3 0.739320 0.111546 0.919667
Si Si4 0.108699 0.303664 0.163968
Si Si5 0.233936 0.338560 0.920693
Si Si6 0.246942 0.980241 0.919430
Si Si7 0.214059 0.693299 0.900985
Si Si8 0.985627 0.138912 0.743429
O O1 0.392023 0.581022 0.666256
O O2 0.256938 0.606219 0.459837
O O3 0.254343 0.517702 0.530463
O O4 0.099764 0.579480 0.657974
O O5 0.892463 0.987119 0.666090
O O6 0.100291 0.985786 0.834913
O O7 0.878301 0.105993 0.826279
O O8 0.587405 0.105109 0.842364
O O9 0.750304 0.072662 0.026312
O O10 0.736461 0.164857 0.976049
O O11 0.080385 0.250000 0.196380
O O12 0.183238 0.325251 0.287491
O O13 0.950261 0.325817 0.131787
O O14 0.221207 0.307853 0.046341
O O15 0.383381 0.326668 0.843511
O O16 0.091068 0.329468 0.832759
O O17 0.220808 0.750000 0.924973
#
# Coordination Sequence:
#
# PCOD8254830 Si02
#       8
#     8   8   8   8   8   8   8   8
#     4  11  24  39  60  90 122 165 208 258 311 363
#     4  10  24  39  58  90 120 158 214 262 314 357
#     4  11  23  42  64  89 129 162 213 255 314 363
#     4  10  23  42  67  96 125 159 202 259 318 371
#     4  11  23  42  64  89 129 162 213 255 314 363
#     4  11  24  39  60  90 122 165 208 258 311 363
#     4  10  23  42  67  96 125 159 202 259 318 371
#     4  10  24  41  63  92 119 176 205 248 309 377
#
# _framework density 23.417826000000002
#
# number of rings (size 3 to 8) (size 9 to 14) (size 15 to 20)
#    0.000    1.500    1.250    2.250    5.250    6.000 
#    0.000    3.750    0.000    0.000    0.000    0.000 
#    0.000    0.000    0.000    0.000    0.000    0.000 
#
# Total GULP energy -793619.181899 kJ/mol
# GULP energy per Si atom -12400.299717 kJ/mol
# Density = 2.336453 g / cm^3
# Si number density = 23.417826 Si / 1000 Ang^3
#
#
#
# Elastic Constant Matrix: (Units=GPa)
#
#
# Indices 1 2 3 4 5 6 
#
# 1 165.6121 22.0328 67.1963 0.0000 0.0000 0.0000
# 2 22.0328 62.8507 33.0645 0.0000 0.0000 0.0000
# 3 67.1963 33.0645 134.3991 0.0000 0.0000 0.0000
# 4 0.0000 0.0000 0.0000 22.4258 0.0000 0.0000
# 5 0.0000 0.0000 0.0000 0.0000 43.3323 0.0000
# 6 0.0000 0.0000 0.0000 0.0000 0.0000 15.7695
#
#
#
# Elastic Compliance Matrix: (Units=1/GPa)
#
#
# Indices 1 2 3 4 5 6 
#
# 1 0.007607 -0.000765 -0.003615 0.000000 0.000000 0.000000
# 2 -0.000765 0.018353 -0.004133 0.000000 0.000000 0.000000
# 3 -0.003615 -0.004133 0.010265 0.000000 0.000000 0.000000
# 4 0.000000 0.000000 0.000000 0.044591 0.000000 0.000000
# 5 0.000000 0.000000 0.000000 0.000000 0.023077 0.000000
# 6 0.000000 0.000000 0.000000 0.000000 0.000000 0.063413
#
#
# Mechanical properties :
#
#
# Convention : Reuss Voigt Hill
#
# Bulk Modulus (GPa) = 52.08550 67.49435 59.78992
# Shear Modulus (GPa) = 26.21483 32.34342 29.27913
#
# Velocity S-wave (km/s) = 3.34943 3.72041 3.53978
# Velocity P-wave (km/s) = 6.10314 6.88038 6.50338
#
# Compressibility (1/GPa) = 0.01919920
#
# Stress axis : x y z
#
# Youngs Moduli (GPa) = 131.46252 54.48705 97.42143
#
# Poissons Ratio (x) = 0.04167 0.35218
# Poissons Ratio (y) = 0.10054 0.40262
# Poissons Ratio (z) = 0.47524 0.22518
#
# Static dielectric constant tensor:
#      x y z
#    x 4.616500 0.000000 0.000000 
#    y 0.000000 3.506530 0.000000 
#    z 0.000000 0.000000 4.398260 
# 
# 
# High freq. dielectric constant tensor:
#      x y z
#    x 1.947420 0.000000 0.000000 
#    y 0.000000 1.877480 0.000000 
#    z 0.000000 0.000000 1.947790 
# 
# From -- ./inp_files/11576.got.cif
#   From: 2010.03.12/outbox.cif.g09.slc.cpg/sg62_6_cif.got.tgz:11576.got - 2010.04.10 19:12:36.
