data_PCOD8254274
_publ_section_title
;
Structure prediction by ZEFSAII (Michael W. Deem and Ramdas Pophale) SiO2 
 PCOD8254274
Probable space group: P N M A
;
_chemical_formula_sum "Si O2"
_cell_formula_units_Z 56
_cell_length_a 9.412501
_cell_length_b 13.347403
_cell_length_c 21.156144
_cell_angle_alpha 90.000000
_cell_angle_beta 90.000000
_cell_angle_gamma 90.000000
_cell_volume 2657.898078
_symmetry_space_group_name_H-M "P N M A"
_symmetry_group_IT_number 62
_symmetry_cell_setting 'orthorhombic'
loop_
_space_group_symop_operation_xyz
x,y,z
1/2-x,-y,1/2+z
1/2+x,1/2-y,1/2-z
-x,1/2+y,-z
-x,-y,-z
1/2+x,y,1/2-z
1/2-x,1/2+y,1/2+z
x,1/2-y,z
loop_
_atom_site_type_symbol
_atom_site_label
_atom_site_fract_x
_atom_site_fract_y
_atom_site_fract_z
Si Si1 0.623031 0.135940 0.935117
Si Si2 0.765440 0.636552 0.852153
Si Si3 0.857482 0.363153 0.485210
Si Si4 0.983742 0.131848 0.696880
Si Si5 0.709663 0.010790 0.736806
Si Si6 0.339293 0.028147 0.488716
Si Si7 0.407798 0.363460 0.367644
O O1 0.669322 0.250000 0.929367
O O2 0.544224 0.102900 0.871618
O O3 0.519251 0.114281 0.994591
O O4 0.767895 0.074834 0.947811
O O5 0.740268 0.750000 0.826044
O O6 0.657650 0.615142 0.910248
O O7 0.743034 0.554939 0.798374
O O8 0.924179 0.626961 0.879344
O O9 0.816726 0.250000 0.502081
O O10 0.748593 0.427847 0.527375
O O11 0.948729 0.250000 0.703472
O O12 0.101569 0.100770 0.748050
O O13 0.847106 0.063309 0.708063
O O14 0.639321 0.936028 0.687687
O O15 0.326875 0.106626 0.431703
O O16 0.500000 0.000000 0.500000
O O17 0.364452 0.250000 0.350174
#
# Coordination Sequence:
#
# PCOD8254274 Si02
#       7
#     8   8   8   8   8   8   8
#     4  10  23  43  65  96 130 169 220 279 335 397
#     4  10  21  40  64  95 135 176 220 269 325 396
#     4  10  21  40  65  91 130 175 219 269 327 390
#     4  11  25  44  70  97 133 175 226 282 332 400
#     4  12  23  44  67  96 130 178 223 270 338 392
#     4  12  23  38  65  95 130 171 211 268 339 398
#     4  11  24  42  64  96 132 169 218 275 328 398
#
# _framework density 21.069281
#
# number of rings (size 3 to 8) (size 9 to 14) (size 15 to 20)
#    0.000    1.143    2.857    3.429    0.000    1.714 
#    0.000    2.143    0.000    0.000    0.000    0.000 
#    0.000    0.000    0.000    0.000    0.000    0.000 
#
# Total GULP energy -694415.217281 kJ/mol
# GULP energy per Si atom -12400.271737 kJ/mol
# Density = 2.102133 g / cm^3
# Si number density = 21.069281 Si / 1000 Ang^3
#
#
#
# Elastic Constant Matrix: (Units=GPa)
#
#
# Indices 1 2 3 4 5 6 
#
# 1 110.5440 45.6015 47.2674 0.0000 0.0000 0.0000
# 2 45.6015 115.6842 52.7968 0.0000 0.0000 0.0000
# 3 47.2674 52.7968 106.4985 0.0000 0.0000 0.0000
# 4 0.0000 0.0000 0.0000 41.5549 0.0000 0.0000
# 5 0.0000 0.0000 0.0000 0.0000 37.0986 0.0000
# 6 0.0000 0.0000 0.0000 0.0000 0.0000 28.2757
#
#
#
# Elastic Compliance Matrix: (Units=1/GPa)
#
#
# Indices 1 2 3 4 5 6 
#
# 1 0.011894 -0.002946 -0.003819 0.000000 0.000000 0.000000
# 2 -0.002946 0.011901 -0.004593 0.000000 0.000000 0.000000
# 3 -0.003819 -0.004593 0.013362 0.000000 0.000000 0.000000
# 4 0.000000 0.000000 0.000000 0.024065 0.000000 0.000000
# 5 0.000000 0.000000 0.000000 0.000000 0.026955 0.000000
# 6 0.000000 0.000000 0.000000 0.000000 0.000000 0.035366
#
#
# Mechanical properties :
#
#
# Convention : Reuss Voigt Hill
#
# Bulk Modulus (GPa) = 69.23853 69.33979 69.28916
# Shear Modulus (GPa) = 33.09687 33.85655 33.47671
#
# Velocity S-wave (km/s) = 3.96771 4.01298 3.99041
# Velocity P-wave (km/s) = 7.34329 7.37929 7.36131
#
# Compressibility (1/GPa) = 0.01444283
#
# Stress axis : x y z
#
# Youngs Moduli (GPa) = 84.07481 84.02314 74.84187
#
# Poissons Ratio (x) = 0.24751 0.28579
# Poissons Ratio (y) = 0.24767 0.34373
# Poissons Ratio (z) = 0.32105 0.38590
#
# Static dielectric constant tensor:
#      x y z
#    x 3.967430 0.000000 0.000000 
#    y 0.000000 4.129060 0.000000 
#    z 0.000000 0.000000 3.830360 
# 
# 
# High freq. dielectric constant tensor:
#      x y z
#    x 1.824630 0.000000 0.000000 
#    y 0.000000 1.850820 0.000000 
#    z 0.000000 0.000000 1.819760 
# 
# From -- ./inp_files/25968.got.cif
#   From: 2010.03.12/outbox.cif.g09.slc.cpg/sg62_13_cif.got.tgz:25968.got - 2010.04.10 19:12:36.
