data_PCOD8254041
_publ_section_title
;
Structure prediction by ZEFSAII (Michael W. Deem and Ramdas Pophale) SiO2 
 PCOD8254041
Probable space group: P N M A
;
_chemical_formula_sum "Si O2"
_cell_formula_units_Z 48
_cell_length_a 9.792564
_cell_length_b 16.640851
_cell_length_c 15.786235
_cell_angle_alpha 90.000000
_cell_angle_beta 90.000000
_cell_angle_gamma 90.000000
_cell_volume 2572.471158
_symmetry_space_group_name_H-M "P N M A"
_symmetry_group_IT_number 62
_symmetry_cell_setting 'orthorhombic'
loop_
_space_group_symop_operation_xyz
x,y,z
1/2-x,-y,1/2+z
1/2+x,1/2-y,1/2-z
-x,1/2+y,-z
-x,-y,-z
1/2+x,y,1/2-z
1/2-x,1/2+y,1/2+z
x,1/2-y,z
loop_
_atom_site_type_symbol
_atom_site_label
_atom_site_fract_x
_atom_site_fract_y
_atom_site_fract_z
Si Si1 0.293823 0.589804 0.680397
Si Si2 0.599858 0.480427 0.075650
Si Si3 0.504505 0.156911 0.188259
Si Si4 0.101140 0.156282 0.834621
Si Si5 0.136057 0.449795 0.992889
Si Si6 0.144243 0.575081 0.262686
O O1 0.415468 0.638918 0.724808
O O2 0.151506 0.631791 0.702515
O O3 0.317912 0.590124 0.580350
O O4 0.287009 0.499063 0.713794
O O5 0.572751 0.390879 0.110045
O O6 0.754041 0.486584 0.042545
O O7 0.574255 0.544572 0.150596
O O8 0.500000 0.500000 0.000000
O O9 0.513828 0.250000 0.164842
O O10 0.074101 0.250000 0.838032
O O11 0.118846 0.124220 0.929407
O O12 0.236762 0.139112 0.780247
O O13 0.970395 0.114513 0.794239
O O14 0.000000 0.500000 0.000000
#
# Coordination Sequence:
#
# PCOD8254041 Si02
#       6
#     8   8   8   8   8   8
#     4  11  22  41  67  88 124 168 211 251 306 383
#     4  10  21  40  63  86 118 162 209 245 297 377
#     4  11  24  40  63  95 126 161 206 266 319 362
#     4  11  23  39  60  92 124 156 200 259 311 355
#     4  11  23  40  65  91 121 163 211 250 304 371
#     4  10  21  38  63  85 118 162 206 243 296 372
#
# _framework density 18.659099999999999
#
# number of rings (size 3 to 8) (size 9 to 14) (size 15 to 20)
#    0.000    1.333    3.333    3.000    4.667    1.333 
#    0.000    1.667    0.000    0.000    0.000    0.000 
#    0.000    0.000    0.000    0.000    0.000    0.000 
#
# Total GULP energy -595404.424767 kJ/mol
# GULP energy per Si atom -12404.258849 kJ/mol
# Density = 1.861663 g / cm^3
# Si number density = 18.659100 Si / 1000 Ang^3
#
#
#
# Elastic Constant Matrix: (Units=GPa)
#
#
# Indices 1 2 3 4 5 6 
#
# 1 125.9146 57.3119 59.4529 0.0000 0.0000 0.0000
# 2 57.3119 136.4847 52.0732 0.0000 0.0000 0.0000
# 3 59.4529 52.0732 133.0560 0.0000 0.0000 0.0000
# 4 0.0000 0.0000 0.0000 17.6226 0.0000 0.0000
# 5 0.0000 0.0000 0.0000 0.0000 34.5088 0.0000
# 6 0.0000 0.0000 0.0000 0.0000 0.0000 29.0464
#
#
#
# Elastic Compliance Matrix: (Units=1/GPa)
#
#
# Indices 1 2 3 4 5 6 
#
# 1 0.011190 -0.003281 -0.003716 0.000000 0.000000 0.000000
# 2 -0.003281 0.009575 -0.002281 0.000000 0.000000 0.000000
# 3 -0.003716 -0.002281 0.010069 0.000000 0.000000 0.000000
# 4 0.000000 0.000000 0.000000 0.056745 0.000000 0.000000
# 5 0.000000 0.000000 0.000000 0.000000 0.028978 0.000000
# 6 0.000000 0.000000 0.000000 0.000000 0.000000 0.034428
#
#
# Mechanical properties :
#
#
# Convention : Reuss Voigt Hill
#
# Bulk Modulus (GPa) = 81.45104 81.45902 81.45503
# Shear Modulus (GPa) = 28.79635 31.34339 30.06987
#
# Velocity S-wave (km/s) = 3.93273 4.10297 4.01875
# Velocity P-wave (km/s) = 8.02302 8.13616 8.07978
#
# Compressibility (1/GPa) = 0.01227731
#
# Stress axis : x y z
#
# Youngs Moduli (GPa) = 89.36711 104.43916 99.31727
#
# Poissons Ratio (x) = 0.34267 0.36904
# Poissons Ratio (y) = 0.29322 0.22656
# Poissons Ratio (z) = 0.33207 0.23825
#
# Static dielectric constant tensor:
#      x y z
#    x 3.572010 0.000000 0.000000 
#    y 0.000000 3.334930 0.000000 
#    z 0.000000 0.000000 3.755300 
# 
# 
# High freq. dielectric constant tensor:
#      x y z
#    x 1.742820 0.000000 0.000000 
#    y 0.000000 1.713670 0.000000 
#    z 0.000000 0.000000 1.735590 
# 
# From -- ./inp_files/16931.got.cif
#   From: 2010.03.12/outbox.cif.g09.slc.cpg/sg62_9_cif.got.tgz:16931.got - 2010.04.10 19:12:36.
