data_PCOD8254712
_publ_section_title
;
Structure prediction by ZEFSAII (Michael W. Deem and Ramdas Pophale) SiO2 
 PCOD8254712
Probable space group: P N M A
;
_chemical_formula_sum "Si O2"
_cell_formula_units_Z 48
_cell_length_a 18.246081
_cell_length_b 16.098210
_cell_length_c 7.805472
_cell_angle_alpha 90.000000
_cell_angle_beta 90.000000
_cell_angle_gamma 90.000000
_cell_volume 2292.695387
_symmetry_space_group_name_H-M "P N M A"
_symmetry_group_IT_number 62
_symmetry_cell_setting 'orthorhombic'
loop_
_space_group_symop_operation_xyz
x,y,z
1/2-x,-y,1/2+z
1/2+x,1/2-y,1/2-z
-x,1/2+y,-z
-x,-y,-z
1/2+x,y,1/2-z
1/2-x,1/2+y,1/2+z
x,1/2-y,z
loop_
_atom_site_type_symbol
_atom_site_label
_atom_site_fract_x
_atom_site_fract_y
_atom_site_fract_z
Si Si1 0.661923 0.842649 0.476575
Si Si2 0.238218 0.157933 0.221390
Si Si3 0.364289 0.958435 0.864733
Si Si4 0.972229 0.441264 0.853404
Si Si5 0.259594 0.110316 0.861346
Si Si6 0.110184 0.148694 0.704008
O O1 0.640969 0.750000 0.528409
O O2 0.708587 0.881433 0.633088
O O3 0.587975 0.891198 0.456054
O O4 0.706644 0.842785 0.300107
O O5 0.215860 0.250000 0.279539
O O6 0.164843 0.101709 0.212974
O O7 0.276153 0.160590 0.035754
O O8 0.437170 0.006713 0.804724
O O9 0.296303 0.021098 0.896699
O O10 0.380833 0.898763 0.024178
O O11 0.031908 0.377302 0.780994
O O12 0.000000 0.500000 0.000000
O O13 0.172054 0.111247 0.830154
O O14 0.114604 0.250000 0.685446
#
# Coordination Sequence:
#
# PCOD8254712 Si02
#       6
#     8   8   8   8   8   8
#     4  10  22  43  64  94 131 168 215 276 338 395
#     4  11  22  38  66  98 126 164 218 275 331 391
#     4  11  24  42  67  98 131 171 222 280 329 396
#     4  11  26  42  66  94 134 181 223 273 339 409
#     4  11  23  39  70  98 128 167 222 275 332 389
#     4  12  24  44  68  97 139 183 225 278 346 411
#
# _framework density 20.936056000000001
#
# number of rings (size 3 to 8) (size 9 to 14) (size 15 to 20)
#    0.000    1.000    1.667    5.000    7.000    0.000 
#    0.000    2.500    0.000    0.000    0.000    0.000 
#    0.000    0.000    0.000    0.000    0.000    0.000 
#
# Total GULP energy -594888.070765 kJ/mol
# GULP energy per Si atom -12393.501474 kJ/mol
# Density = 2.088840 g / cm^3
# Si number density = 20.936056 Si / 1000 Ang^3
#
#
#
# Elastic Constant Matrix: (Units=GPa)
#
#
# Indices 1 2 3 4 5 6 
#
# 1 124.3379 59.7851 44.0682 0.0000 0.0000 0.0000
# 2 59.7851 119.3122 36.7736 0.0000 0.0000 0.0000
# 3 44.0682 36.7736 132.7919 0.0000 0.0000 0.0000
# 4 0.0000 0.0000 0.0000 21.8949 0.0000 0.0000
# 5 0.0000 0.0000 0.0000 0.0000 22.3388 0.0000
# 6 0.0000 0.0000 0.0000 0.0000 0.0000 26.1448
#
#
#
# Elastic Compliance Matrix: (Units=1/GPa)
#
#
# Indices 1 2 3 4 5 6 
#
# 1 0.011240 -0.004901 -0.002373 0.000000 0.000000 0.000000
# 2 -0.004901 0.011300 -0.001503 0.000000 0.000000 0.000000
# 3 -0.002373 -0.001503 0.008734 0.000000 0.000000 0.000000
# 4 0.000000 0.000000 0.000000 0.045673 0.000000 0.000000
# 5 0.000000 0.000000 0.000000 0.000000 0.044765 0.000000
# 6 0.000000 0.000000 0.000000 0.000000 0.000000 0.038249
#
#
# Mechanical properties :
#
#
# Convention : Reuss Voigt Hill
#
# Bulk Modulus (GPa) = 72.88005 73.07732 72.97868
# Shear Modulus (GPa) = 27.45922 29.79672 28.62797
#
# Velocity S-wave (km/s) = 3.62550 3.77666 3.70185
# Velocity P-wave (km/s) = 7.23961 7.34835 7.29419
#
# Compressibility (1/GPa) = 0.01372118
#
# Stress axis : x y z
#
# Youngs Moduli (GPa) = 88.96733 88.49311 114.49141
#
# Poissons Ratio (x) = 0.43369 0.27168
# Poissons Ratio (y) = 0.43601 0.17208
# Poissons Ratio (z) = 0.21112 0.13300
#
# Static dielectric constant tensor:
#      x y z
#    x 4.334800 0.000000 0.000000 
#    y 0.000000 3.922810 0.000000 
#    z 0.000000 0.000000 4.040130 
# 
# 
# High freq. dielectric constant tensor:
#      x y z
#    x 1.813830 0.000000 0.000000 
#    y 0.000000 1.835330 0.000000 
#    z 0.000000 0.000000 1.830430 
# 
# From -- ./inp_files/7677.got.cif
#   From: 2010.03.12/outbox.cif.g09.slc.cpg/sg62_4_cif.got.tgz:7677.got - 2010.04.10 19:12:36.
