data_PCOD8254716
_publ_section_title
;
Structure prediction by ZEFSAII (Michael W. Deem and Ramdas Pophale) SiO2 
 PCOD8254716
Probable space group: P N M A
;
_chemical_formula_sum "Si O2"
_cell_formula_units_Z 48
_cell_length_a 13.462170
_cell_length_b 26.524130
_cell_length_c 6.358524
_cell_angle_alpha 90.000000
_cell_angle_beta 90.000000
_cell_angle_gamma 90.000000
_cell_volume 2270.453089
_symmetry_space_group_name_H-M "P N M A"
_symmetry_group_IT_number 62
_symmetry_cell_setting 'orthorhombic'
loop_
_space_group_symop_operation_xyz
x,y,z
1/2-x,-y,1/2+z
1/2+x,1/2-y,1/2-z
-x,1/2+y,-z
-x,-y,-z
1/2+x,y,1/2-z
1/2-x,1/2+y,1/2+z
x,1/2-y,z
loop_
_atom_site_type_symbol
_atom_site_label
_atom_site_fract_x
_atom_site_fract_y
_atom_site_fract_z
Si Si1 0.732244 0.642850 0.860184
Si Si2 0.861303 0.875983 0.477446
Si Si3 0.245508 0.448118 0.834911
Si Si4 0.468977 0.371995 0.285893
Si Si5 0.103165 0.970436 0.007864
Si Si6 0.100927 0.191686 0.900892
O O1 0.773257 0.644459 0.623188
O O2 0.616016 0.657783 0.845549
O O3 0.746126 0.587303 0.961560
O O4 0.788914 0.683776 0.003015
O O5 0.823817 0.922269 0.339896
O O6 0.901555 0.830459 0.333493
O O7 0.950530 0.894831 0.626279
O O8 0.355834 0.460208 0.744584
O O9 0.190647 0.499835 0.890305
O O10 0.411763 0.417050 0.399393
O O11 0.519641 0.335772 0.455079
O O12 0.000000 0.000000 0.000000
O O13 0.073964 0.250000 0.890694
#
# Coordination Sequence:
#
# PCOD8254716 Si02
#       6
#     8   8   8   8   8   8
#     4  10  22  44  67  93 131 177 218 275 332 390
#     4  10  22  43  65  91 133 176 215 279 328 390
#     4  11  25  42  63  98 140 179 235 275 323 392
#     4  11  24  41  68  97 132 174 221 269 334 397
#     4  12  25  40  66  99 138 184 226 273 328 395
#     4  10  24  44  68  98 129 165 220 280 342 408
#
# _framework density 21.141152000000002
#
# number of rings (size 3 to 8) (size 9 to 14) (size 15 to 20)
#    0.000    1.333    1.667    4.000    7.000    4.000 
#    0.000    1.667    0.000    0.000    0.000    0.000 
#    0.000    0.000    0.000    0.000    0.000    0.000 
#
# Total GULP energy -595250.587913 kJ/mol
# GULP energy per Si atom -12401.053915 kJ/mol
# Density = 2.109303 g / cm^3
# Si number density = 21.141152 Si / 1000 Ang^3
#
#
#
# Elastic Constant Matrix: (Units=GPa)
#
#
# Indices 1 2 3 4 5 6 
#
# 1 129.1419 29.3819 41.3824 0.0000 0.0000 0.0000
# 2 29.3819 108.8270 40.5466 0.0000 0.0000 0.0000
# 3 41.3824 40.5466 104.3933 0.0000 0.0000 0.0000
# 4 0.0000 0.0000 0.0000 19.5173 0.0000 0.0000
# 5 0.0000 0.0000 0.0000 0.0000 40.9120 0.0000
# 6 0.0000 0.0000 0.0000 0.0000 0.0000 20.0141
#
#
#
# Elastic Compliance Matrix: (Units=1/GPa)
#
#
# Indices 1 2 3 4 5 6 
#
# 1 0.009022 -0.001290 -0.003076 0.000000 0.000000 0.000000
# 2 -0.001290 0.010928 -0.003733 0.000000 0.000000 0.000000
# 3 -0.003076 -0.003733 0.012248 0.000000 0.000000 0.000000
# 4 0.000000 0.000000 0.000000 0.051237 0.000000 0.000000
# 5 0.000000 0.000000 0.000000 0.000000 0.024443 0.000000
# 6 0.000000 0.000000 0.000000 0.000000 0.000000 0.049965
#
#
# Mechanical properties :
#
#
# Convention : Reuss Voigt Hill
#
# Bulk Modulus (GPa) = 62.49443 62.77601 62.63522
# Shear Modulus (GPa) = 27.87473 31.49209 29.68341
#
# Velocity S-wave (km/s) = 3.63506 3.86374 3.75114
# Velocity P-wave (km/s) = 6.87335 7.04718 6.96081
#
# Compressibility (1/GPa) = 0.01600143
#
# Stress axis : x y z
#
# Youngs Moduli (GPa) = 110.83454 91.50744 81.64426
#
# Poissons Ratio (x) = 0.11805 0.25110
# Poissons Ratio (y) = 0.14299 0.30479
# Poissons Ratio (z) = 0.34087 0.34161
#
# Static dielectric constant tensor:
#      x y z
#    x 4.109090 0.000000 0.000000 
#    y 0.000000 3.540220 0.000000 
#    z 0.000000 0.000000 4.153960 
# 
# 
# High freq. dielectric constant tensor:
#      x y z
#    x 1.841970 0.000000 0.000000 
#    y 0.000000 1.804020 0.000000 
#    z 0.000000 0.000000 1.841660 
# 
# From -- ./inp_files/1141.got.cif
#   From: 2010.03.12/outbox.cif.g09.slc.cpg/sg62_1_cif.got.tgz:1141.got - 2010.04.10 19:12:36.
