data_PCOD8254143
_publ_section_title
;
Structure prediction by ZEFSAII (Michael W. Deem and Ramdas Pophale) SiO2 
 PCOD8254143
Probable space group: P N M A
;
_chemical_formula_sum "Si O2"
_cell_formula_units_Z 56
_cell_length_a 14.858482
_cell_length_b 8.787061
_cell_length_c 20.873499
_cell_angle_alpha 90.000000
_cell_angle_beta 90.000000
_cell_angle_gamma 90.000000
_cell_volume 2725.293869
_symmetry_space_group_name_H-M "P N M A"
_symmetry_group_IT_number 62
_symmetry_cell_setting 'orthorhombic'
loop_
_space_group_symop_operation_xyz
x,y,z
1/2-x,-y,1/2+z
1/2+x,1/2-y,1/2-z
-x,1/2+y,-z
-x,-y,-z
1/2+x,y,1/2-z
1/2-x,1/2+y,1/2+z
x,1/2-y,z
loop_
_atom_site_type_symbol
_atom_site_label
_atom_site_fract_x
_atom_site_fract_y
_atom_site_fract_z
Si Si1 0.006471 0.421275 0.728889
Si Si2 0.945089 0.920576 0.132646
Si Si3 0.315474 0.570739 0.762538
Si Si4 0.570723 0.071417 0.451446
Si Si5 0.766457 0.074481 0.101902
Si Si6 0.737717 0.425620 0.961834
Si Si7 0.335703 0.429026 0.161291
O O1 0.990772 0.250000 0.704147
O O2 0.069633 0.423701 0.791546
O O3 0.063989 0.512744 0.676869
O O4 0.911132 0.492712 0.747655
O O5 0.968120 0.750000 0.108552
O O6 0.855009 0.971752 0.096362
O O7 0.027098 0.036406 0.117752
O O8 0.327068 0.750000 0.754361
O O9 0.288093 0.526949 0.835070
O O10 0.242355 0.509595 0.710092
O O11 0.588150 0.250000 0.461099
O O12 0.500000 0.000000 0.500000
O O13 0.660529 0.976795 0.456076
O O14 0.797263 0.250000 0.106763
O O15 0.708175 0.048375 0.036558
O O16 0.728265 0.250000 0.942494
O O17 0.679497 0.522763 0.912149
O O18 0.336931 0.250000 0.166307
#
# Coordination Sequence:
#
# PCOD8254143 Si02
#       7
#     8   8   8   8   8   8   8
#     4  11  24  40  62  93 125 160 205 260 315 369
#     4  11  22  36  58  87 120 159 199 250 310 372
#     4  10  22  41  65  92 120 161 212 257 309 370
#     4  12  23  35  54  84 121 160 203 248 303 373
#     4  10  21  39  62  87 119 161 203 251 307 366
#     4  11  23  39  60  88 125 163 202 256 314 374
#     4  11  23  41  66  93 125 166 208 258 312 373
#
# _framework density 20.548242999999999
#
# number of rings (size 3 to 8) (size 9 to 14) (size 15 to 20)
#    0.000    1.143    2.857    3.857    0.000    6.286 
#    0.000    0.714    0.000    0.000    0.000    0.000 
#    0.000    0.000    0.000    0.000    0.000    0.000 
#
# Total GULP energy -694249.768755 kJ/mol
# GULP energy per Si atom -12397.317299 kJ/mol
# Density = 2.050147 g / cm^3
# Si number density = 20.548243 Si / 1000 Ang^3
#
#
#
# Elastic Constant Matrix: (Units=GPa)
#
#
# Indices 1 2 3 4 5 6 
#
# 1 56.6660 23.3601 12.3805 0.0000 0.0000 0.0000
# 2 23.3601 54.7181 25.7516 0.0000 0.0000 0.0000
# 3 12.3805 25.7516 104.2850 0.0000 0.0000 0.0000
# 4 0.0000 0.0000 0.0000 31.0413 0.0000 0.0000
# 5 0.0000 0.0000 0.0000 0.0000 32.5318 0.0000
# 6 0.0000 0.0000 0.0000 0.0000 0.0000 31.1513
#
#
#
# Elastic Compliance Matrix: (Units=1/GPa)
#
#
# Indices 1 2 3 4 5 6 
#
# 1 0.021426 -0.008995 -0.000322 0.000000 0.000000 0.000000
# 2 -0.008995 0.024455 -0.004971 0.000000 0.000000 0.000000
# 3 -0.000322 -0.004971 0.010855 0.000000 0.000000 0.000000
# 4 0.000000 0.000000 0.000000 0.032215 0.000000 0.000000
# 5 0.000000 0.000000 0.000000 0.000000 0.030739 0.000000
# 6 0.000000 0.000000 0.000000 0.000000 0.000000 0.032101
#
#
# Mechanical properties :
#
#
# Convention : Reuss Voigt Hill
#
# Bulk Modulus (GPa) = 35.51306 37.62818 36.57062
# Shear Modulus (GPa) = 26.34970 29.22333 27.78652
#
# Velocity S-wave (km/s) = 3.58485 3.77527 3.68129
# Velocity P-wave (km/s) = 5.86985 6.11191 5.99210
#
# Compressibility (1/GPa) = 0.02815866
#
# Stress axis : x y z
#
# Youngs Moduli (GPa) = 46.67224 40.89105 92.12450
#
# Poissons Ratio (x) = 0.36783 0.02970
# Poissons Ratio (y) = 0.41984 0.45795
# Poissons Ratio (z) = 0.01505 0.20327
#
# Static dielectric constant tensor:
#      x y z
#    x 3.542600 0.000000 0.000000 
#    y 0.000000 4.018030 0.000000 
#    z 0.000000 0.000000 3.901590 
# 
# 
# High freq. dielectric constant tensor:
#      x y z
#    x 1.779150 0.000000 0.000000 
#    y 0.000000 1.807670 0.000000 
#    z 0.000000 0.000000 1.816810 
# 
# From -- ./inp_files/27252.got.cif
#   From: 2010.03.12/outbox.cif.g09.slc.cpg/sg62_14_cif.got.tgz:27252.got - 2010.04.10 19:12:36.
