data_PCOD8254085
_publ_section_title
;
Structure prediction by ZEFSAII (Michael W. Deem and Ramdas Pophale) SiO2 
 PCOD8254085
Probable space group: P N M A
;
_chemical_formula_sum "Si O2"
_cell_formula_units_Z 56
_cell_length_a 22.014851
_cell_length_b 8.925496
_cell_length_c 14.515268
_cell_angle_alpha 90.000000
_cell_angle_beta 90.000000
_cell_angle_gamma 90.000000
_cell_volume 2852.155298
_symmetry_space_group_name_H-M "P N M A"
_symmetry_group_IT_number 62
_symmetry_cell_setting 'orthorhombic'
loop_
_space_group_symop_operation_xyz
x,y,z
1/2-x,-y,1/2+z
1/2+x,1/2-y,1/2-z
-x,1/2+y,-z
-x,-y,-z
1/2+x,y,1/2-z
1/2-x,1/2+y,1/2+z
x,1/2-y,z
loop_
_atom_site_type_symbol
_atom_site_label
_atom_site_fract_x
_atom_site_fract_y
_atom_site_fract_z
Si Si1 0.546422 0.078549 0.612777
Si Si2 0.689954 0.572294 0.915497
Si Si3 0.807139 0.928071 0.805716
Si Si4 0.580745 0.077052 0.809045
Si Si5 0.335975 0.924668 0.897236
Si Si6 0.576811 0.073500 0.412646
Si Si7 0.022325 0.425843 0.407021
O O1 0.525766 0.250000 0.602098
O O2 0.592094 0.059268 0.699349
O O3 0.581353 0.025835 0.520461
O O4 0.485638 0.984738 0.630288
O O5 0.687039 0.750000 0.916129
O O6 0.747207 0.511970 0.857148
O O7 0.629817 0.510438 0.868118
O O8 0.695373 0.515542 0.020201
O O9 0.809831 0.750000 0.810270
O O10 0.806389 0.979625 0.699034
O O11 0.865856 0.995950 0.858281
O O12 0.581833 0.250000 0.840421
O O13 0.514604 0.005846 0.825677
O O14 0.324079 0.750000 0.914719
O O15 0.407233 0.959279 0.891720
O O16 0.577306 0.250000 0.400007
O O17 0.008366 0.250000 0.408134
O O18 0.000000 0.500000 0.500000
#
# Coordination Sequence:
#
# PCOD8254085 Si02
#       7
#     8   8   8   8   8   8   8
#     4   9  19  33  54  84 114 142 178 228 278 329
#     4  11  23  38  57  81 110 145 191 236 273 329
#     4   9  20  38  59  81 107 146 191 230 274 336
#     4  11  22  36  54  81 118 153 186 230 284 340
#     4  10  21  39  60  82 112 147 184 231 289 344
#     4   9  17  35  59  81 108 143 183 228 281 337
#     4  11  21  34  58  87 115 148 185 231 288 344
#
# _framework density 19.634273
#
# number of rings (size 3 to 8) (size 9 to 14) (size 15 to 20)
#    0.000    2.000    1.429    2.143    0.000    4.000 
#    0.000    5.000    0.000    0.000    0.000    0.000 
#    0.000    0.000    0.000    0.000    0.000    0.000 
#
# Total GULP energy -694390.057768 kJ/mol
# GULP energy per Si atom -12399.822460 kJ/mol
# Density = 1.958958 g / cm^3
# Si number density = 19.634273 Si / 1000 Ang^3
#
#
#
# Elastic Constant Matrix: (Units=GPa)
#
#
# Indices 1 2 3 4 5 6 
#
# 1 92.7460 36.0416 68.4288 0.0000 0.0000 0.0000
# 2 36.0416 57.6052 42.8004 0.0000 0.0000 0.0000
# 3 68.4288 42.8004 159.7968 0.0000 0.0000 0.0000
# 4 0.0000 0.0000 0.0000 26.6880 0.0000 0.0000
# 5 0.0000 0.0000 0.0000 0.0000 34.1690 0.0000
# 6 0.0000 0.0000 0.0000 0.0000 0.0000 19.9948
#
#
#
# Elastic Compliance Matrix: (Units=1/GPa)
#
#
# Indices 1 2 3 4 5 6 
#
# 1 0.017654 -0.006777 -0.005745 0.000000 0.000000 0.000000
# 2 -0.006777 0.024274 -0.003599 0.000000 0.000000 0.000000
# 3 -0.005745 -0.003599 0.009682 0.000000 0.000000 0.000000
# 4 0.000000 0.000000 0.000000 0.037470 0.000000 0.000000
# 5 0.000000 0.000000 0.000000 0.000000 0.029266 0.000000
# 6 0.000000 0.000000 0.000000 0.000000 0.000000 0.050013
#
#
# Mechanical properties :
#
#
# Convention : Reuss Voigt Hill
#
# Bulk Modulus (GPa) = 51.63273 67.18773 59.41023
# Shear Modulus (GPa) = 24.14766 27.02882 25.58824
#
# Velocity S-wave (km/s) = 3.51076 3.71430 3.61396
# Velocity P-wave (km/s) = 6.54127 7.25869 6.90930
#
# Compressibility (1/GPa) = 0.01936756
#
# Stress axis : x y z
#
# Youngs Moduli (GPa) = 56.64305 41.19580 103.28361
#
# Poissons Ratio (x) = 0.27920 0.59334
# Poissons Ratio (y) = 0.38389 0.37176
# Poissons Ratio (z) = 0.32540 0.14828
#
# Static dielectric constant tensor:
#      x y z
#    x 3.272020 0.000000 0.000000 
#    y 0.000000 3.476290 0.000000 
#    z 0.000000 0.000000 3.884060 
# 
# 
# High freq. dielectric constant tensor:
#      x y z
#    x 1.751790 0.000000 0.000000 
#    y 0.000000 1.749820 0.000000 
#    z 0.000000 0.000000 1.786330 
# 
# From -- ./inp_files/20443.got.cif
#   From: 2010.03.12/outbox.cif.g09.slc.cpg/sg62_11_cif.got.tgz:20443.got - 2010.04.10 19:12:36.
