data_PCOD8254017
_publ_section_title
;
Structure prediction by ZEFSAII (Michael W. Deem and Ramdas Pophale) SiO2 
 PCOD8254017
Probable space group: P N M A
;
_chemical_formula_sum "Si O2"
_cell_formula_units_Z 32
_cell_length_a 5.003680
_cell_length_b 11.494131
_cell_length_c 28.126616
_cell_angle_alpha 90.000000
_cell_angle_beta 90.000000
_cell_angle_gamma 90.000000
_cell_volume 1617.644755
_symmetry_space_group_name_H-M "P N M A"
_symmetry_group_IT_number 62
_symmetry_cell_setting 'orthorhombic'
loop_
_space_group_symop_operation_xyz
x,y,z
1/2-x,-y,1/2+z
1/2+x,1/2-y,1/2-z
-x,1/2+y,-z
-x,-y,-z
1/2+x,y,1/2-z
1/2-x,1/2+y,1/2+z
x,1/2-y,z
loop_
_atom_site_type_symbol
_atom_site_label
_atom_site_fract_x
_atom_site_fract_y
_atom_site_fract_z
Si Si1 0.457424 0.482730 0.880402
Si Si2 0.073857 0.750000 0.997858
Si Si3 0.923342 0.883536 0.280969
Si Si4 0.457637 0.621529 0.591084
Si Si5 0.426626 0.250000 0.938923
O O1 0.525074 0.467402 0.825170
O O2 0.658993 0.573738 0.904100
O O3 0.481076 0.361360 0.907024
O O4 0.159500 0.532947 0.883945
O O5 0.877252 0.750000 0.042870
O O6 0.377082 0.750000 0.015928
O O7 0.024777 0.865030 0.965308
O O8 0.629398 0.910296 0.261425
O O9 0.953506 0.750000 0.297665
O O10 0.473397 0.750000 0.615311
#
# Coordination Sequence:
#
# PCOD8254017 Si02
#       5
#     8   4   8   8   4
#     4  12  22  40  65  90 123 155 203 251 299 363
#     4  10  24  42  54  93 120 165 208 238 306 338
#     4  10  21  38  61  92 125 150 187 242 315 371
#     4  10  24  42  60  84 119 177 202 238 294 352
#     4  12  24  36  62  97 120 151 206 256 306 348
#
# _framework density 19.781846999999999
#
# number of rings (size 3 to 8) (size 9 to 14) (size 15 to 20)
#    0.750    0.500    1.250    5.250    0.000    6.000 
#    0.000    0.000    0.000   15.000    0.000    0.000 
#    0.000    0.000    0.000    0.000    0.000    0.000 
#
# Total GULP energy -396915.872409 kJ/mol
# GULP energy per Si atom -12403.621013 kJ/mol
# Density = 1.973682 g / cm^3
# Si number density = 19.781847 Si / 1000 Ang^3
#
#
#
# Elastic Constant Matrix: (Units=GPa)
#
#
# Indices 1 2 3 4 5 6 
#
# 1 72.4509 14.7914 -4.5310 0.0000 0.0000 0.0000
# 2 14.7914 94.1888 36.3110 0.0000 0.0000 0.0000
# 3 -4.5310 36.3110 59.0069 0.0000 0.0000 0.0000
# 4 0.0000 0.0000 0.0000 -12.6565 0.0000 0.0000
# 5 0.0000 0.0000 0.0000 0.0000 12.6634 0.0000
# 6 0.0000 0.0000 0.0000 0.0000 0.0000 32.9621
#
#
#
# Elastic Compliance Matrix: (Units=1/GPa)
#
#
# Indices 1 2 3 4 5 6 
#
# 1 0.014749 -0.003609 0.003353 0.000000 0.000000 0.000000
# 2 -0.003609 0.014802 -0.009386 0.000000 0.000000 0.000000
# 3 0.003353 -0.009386 0.022980 0.000000 0.000000 0.000000
# 4 0.000000 0.000000 0.000000 -0.079011 0.000000 0.000000
# 5 0.000000 0.000000 0.000000 0.000000 0.078968 0.000000
# 6 0.000000 0.000000 0.000000 0.000000 0.000000 0.030338
#
#
# Mechanical properties :
#
#
# Convention : Reuss Voigt Hill
#
# Bulk Modulus (GPa) = 30.07644 35.42105 32.74874
# Shear Modulus (GPa) = 44.17280 18.53215 31.35247
#
# Velocity S-wave (km/s) = 4.73059 3.06408 3.98541
# Velocity P-wave (km/s) = 6.71379 5.51931 6.14564
#
# Compressibility (1/GPa) = 0.03324862
#
# Stress axis : x y z
#
# Youngs Moduli (GPa) = 67.80134 67.55792 43.51522
#
# Poissons Ratio (x) = 0.24381 -0.14592
# Poissons Ratio (y) = 0.24469 0.40843
# Poissons Ratio (z) = -0.22736 0.63409
#
# Static dielectric constant tensor:
#      x y z
#    x 3.581790 0.000000 0.000000 
#    y 0.000000 3.519790 0.000000 
#    z 0.000000 0.000000 3.388900 
# 
# 
# High freq. dielectric constant tensor:
#      x y z
#    x 1.787500 0.000000 0.000000 
#    y 0.000000 1.762590 0.000000 
#    z 0.000000 0.000000 1.762550 
# 
# From -- ./inp_files/30231.got.cif
#   From: 2010.03.12/outbox.cif.g09.slc.cpg/sg62_16_cif.got.tgz:30231.got - 2010.04.10 19:12:36.
