data_PCOD8254699
_publ_section_title
;
Structure prediction by ZEFSAII (Michael W. Deem and Ramdas Pophale) SiO2 
 PCOD8254699
Probable space group: P N M A
;
_chemical_formula_sum "Si O2"
_cell_formula_units_Z 64
_cell_length_a 30.340731
_cell_length_b 8.487302
_cell_length_c 11.844855
_cell_angle_alpha 90.000000
_cell_angle_beta 90.000000
_cell_angle_gamma 90.000000
_cell_volume 3050.179827
_symmetry_space_group_name_H-M "P N M A"
_symmetry_group_IT_number 62
_symmetry_cell_setting 'orthorhombic'
loop_
_space_group_symop_operation_xyz
x,y,z
1/2-x,-y,1/2+z
1/2+x,1/2-y,1/2-z
-x,1/2+y,-z
-x,-y,-z
1/2+x,y,1/2-z
1/2-x,1/2+y,1/2+z
x,1/2-y,z
loop_
_atom_site_type_symbol
_atom_site_label
_atom_site_fract_x
_atom_site_fract_y
_atom_site_fract_z
Si Si1 0.953676 0.434289 0.536983
Si Si2 0.176073 0.926607 0.224801
Si Si3 0.373279 0.934546 0.100929
Si Si4 0.375254 0.066484 0.348506
Si Si5 0.298893 0.569299 0.498103
Si Si6 0.423454 0.425965 0.721697
Si Si7 0.207535 0.067799 0.446729
Si Si8 0.048707 0.431802 0.997685
O O1 0.948301 0.250000 0.508830
O O2 0.915549 0.530769 0.475301
O O3 0.953369 0.466070 0.671043
O O4 0.000000 0.500000 0.500000
O O5 0.188781 0.750000 0.185918
O O6 0.126124 0.935729 0.267436
O O7 0.206312 0.974359 0.329362
O O8 0.180429 0.045617 0.121059
O O9 0.371228 0.750000 0.129122
O O10 0.376921 0.030972 0.216312
O O11 0.329217 0.991363 0.035644
O O12 0.367450 0.250000 0.369423
O O13 0.334458 0.974577 0.403402
O O14 0.421581 0.019057 0.404910
O O15 0.285342 0.750000 0.481040
O O16 0.255840 0.460505 0.495755
O O17 0.433746 0.250000 0.675198
O O18 0.431030 0.549552 0.622127
O O19 0.199538 0.250000 0.420764
O O20 0.047510 0.250000 0.964179
O O21 0.000000 0.500000 0.000000
#
# Coordination Sequence:
#
# PCOD8254699 Si02
#       8
#     8   8   8   8   8   8   8   8
#     4  11  24  43  67  97 133 174 220 269 326 388
#     4  11  22  42  70  97 131 170 217 272 329 389
#     4  11  25  45  68  96 133 173 219 271 330 394
#     4  12  26  46  69  95 133 174 220 272 332 393
#     4  12  26  44  68  98 133 173 221 271 330 393
#     4  10  22  42  68  95 130 171 216 270 327 384
#     4  11  25  44  68  98 133 173 220 270 327 392
#     4  12  26  44  69  98 133 173 221 270 328 390
#
# _framework density 20.98237
#
# number of rings (size 3 to 8) (size 9 to 14) (size 15 to 20)
#    0.000    0.750    2.500    4.875    3.500    3.000 
#    0.000    0.000    0.000    0.000    0.000    0.000 
#    0.000    0.000    0.000    0.000    0.000    0.000 
#
# Total GULP energy -794013.344927 kJ/mol
# GULP energy per Si atom -12406.458514 kJ/mol
# Density = 2.093461 g / cm^3
# Si number density = 20.982370 Si / 1000 Ang^3
#
#
#
# Elastic Constant Matrix: (Units=GPa)
#
#
# Indices 1 2 3 4 5 6 
#
# 1 114.5679 16.3775 26.8313 0.0000 0.0000 0.0000
# 2 16.3775 81.5086 27.2162 0.0000 0.0000 0.0000
# 3 26.8313 27.2162 101.2138 0.0000 0.0000 0.0000
# 4 0.0000 0.0000 0.0000 36.0774 0.0000 0.0000
# 5 0.0000 0.0000 0.0000 0.0000 33.1624 0.0000
# 6 0.0000 0.0000 0.0000 0.0000 0.0000 35.7856
#
#
#
# Elastic Compliance Matrix: (Units=1/GPa)
#
#
# Indices 1 2 3 4 5 6 
#
# 1 0.009405 -0.001162 -0.002181 0.000000 0.000000 0.000000
# 2 -0.001162 0.013622 -0.003355 0.000000 0.000000 0.000000
# 3 -0.002181 -0.003355 0.011360 0.000000 0.000000 0.000000
# 4 0.000000 0.000000 0.000000 0.027718 0.000000 0.000000
# 5 0.000000 0.000000 0.000000 0.000000 0.030155 0.000000
# 6 0.000000 0.000000 0.000000 0.000000 0.000000 0.027944
#
#
# Mechanical properties :
#
#
# Convention : Reuss Voigt Hill
#
# Bulk Modulus (GPa) = 47.63542 48.68226 48.15884
# Shear Modulus (GPa) = 35.56245 36.12945 35.84595
#
# Velocity S-wave (km/s) = 4.12135 4.15407 4.13774
# Velocity P-wave (km/s) = 6.73790 6.80149 6.76977
#
# Compressibility (1/GPa) = 0.02099278
#
# Stress axis : x y z
#
# Youngs Moduli (GPa) = 106.32341 73.40895 88.02498
#
# Poissons Ratio (x) = 0.08527 0.19198
# Poissons Ratio (y) = 0.12350 0.29533
# Poissons Ratio (z) = 0.23189 0.24629
#
# Static dielectric constant tensor:
#      x y z
#    x 3.709700 0.000000 0.000000 
#    y 0.000000 3.862340 0.000000 
#    z 0.000000 0.000000 3.774530 
# 
# 
# High freq. dielectric constant tensor:
#      x y z
#    x 1.831370 0.000000 0.000000 
#    y 0.000000 1.830050 0.000000 
#    z 0.000000 0.000000 1.830030 
# 
# From -- ./inp_files/15754.got.cif
#   From: 2010.03.12/outbox.cif.g09.slc.cpg/sg62_8_cif.got.tgz:15754.got - 2010.04.10 19:12:36.
