data_PCOD8254940
_publ_section_title
;
Structure prediction by ZEFSAII (Michael W. Deem and Ramdas Pophale) SiO2 
 PCOD8254940
Probable space group: P N M A
;
_chemical_formula_sum "Si O2"
_cell_formula_units_Z 40
_cell_length_a 9.975952
_cell_length_b 30.299890
_cell_length_c 4.968262
_cell_angle_alpha 90.000000
_cell_angle_beta 90.000000
_cell_angle_gamma 90.000000
_cell_volume 1501.757788
_symmetry_space_group_name_H-M "P N M A"
_symmetry_group_IT_number 62
_symmetry_cell_setting 'orthorhombic'
loop_
_space_group_symop_operation_xyz
x,y,z
1/2-x,-y,1/2+z
1/2+x,1/2-y,1/2-z
-x,1/2+y,-z
-x,-y,-z
1/2+x,y,1/2-z
1/2-x,1/2+y,1/2+z
x,1/2-y,z
loop_
_atom_site_type_symbol
_atom_site_label
_atom_site_fract_x
_atom_site_fract_y
_atom_site_fract_z
Si Si1 0.718324 0.895133 0.930651
Si Si2 0.671784 0.750000 0.332144
Si Si3 0.275432 0.527721 0.914151
Si Si4 0.500804 0.250000 0.177048
Si Si5 0.813291 0.824496 0.584693
Si Si6 0.549606 0.406475 0.818097
O O1 0.612837 0.900261 0.180736
O O2 0.871901 0.904606 0.032835
O O3 0.684331 0.932522 0.706962
O O4 0.706117 0.846329 0.794205
O O5 0.630264 0.750000 0.645711
O O6 0.754236 0.796278 0.328701
O O7 0.547361 0.750000 0.133388
O O8 0.303568 0.493171 0.670785
O O9 0.415056 0.547807 0.027411
O O10 0.589281 0.207614 0.250134
O O11 0.897556 0.865151 0.482631
#
# Coordination Sequence:
#
# PCOD8254940 Si02
#       6
#     8   4   8   4   8   8
#     4  11  26  48  75 116 154 209 253 325 383 474
#     4  11  26  45  74 107 146 196 254 313 375 443
#     4  11  24  51  74 114 150 200 257 329 391 461
#     4  11  26  45  76 105 150 194 256 313 375 445
#     4  10  26  45  71 108 154 202 255 311 385 455
#     4  11  26  46  79 110 158 201 262 314 393 461
#
# _framework density 26.635453999999999
#
# number of rings (size 3 to 8) (size 9 to 14) (size 15 to 20)
#    0.000    1.200    2.000    1.200    8.400    9.600 
#    0.000    0.000    0.000    0.000    0.000    0.000 
#    0.000    0.000    0.000    0.000    0.000    0.000 
#
# Total GULP energy -495555.032261 kJ/mol
# GULP energy per Si atom -12388.875807 kJ/mol
# Density = 2.657483 g / cm^3
# Si number density = 26.635454 Si / 1000 Ang^3
#
#
#
# Elastic Constant Matrix: (Units=GPa)
#
#
# Indices 1 2 3 4 5 6 
#
# 1 72.7592 6.8837 7.6758 0.0000 0.0000 0.0000
# 2 6.8837 120.7136 31.2807 0.0000 0.0000 0.0000
# 3 7.6758 31.2807 102.9826 0.0000 0.0000 0.0000
# 4 0.0000 0.0000 0.0000 13.4109 0.0000 0.0000
# 5 0.0000 0.0000 0.0000 0.0000 33.2162 0.0000
# 6 0.0000 0.0000 0.0000 0.0000 0.0000 15.0009
#
#
#
# Elastic Compliance Matrix: (Units=1/GPa)
#
#
# Indices 1 2 3 4 5 6 
#
# 1 0.013889 -0.000569 -0.000863 0.000000 0.000000 0.000000
# 2 -0.000569 0.009015 -0.002696 0.000000 0.000000 0.000000
# 3 -0.000863 -0.002696 0.010594 0.000000 0.000000 0.000000
# 4 0.000000 0.000000 0.000000 0.074566 0.000000 0.000000
# 5 0.000000 0.000000 0.000000 0.000000 0.030106 0.000000
# 6 0.000000 0.000000 0.000000 0.000000 0.000000 0.066663
#
#
# Mechanical properties :
#
#
# Convention : Reuss Voigt Hill
#
# Bulk Modulus (GPa) = 39.61421 43.12622 41.37022
# Shear Modulus (GPa) = 22.57332 29.03327 25.80330
#
# Velocity S-wave (km/s) = 2.91433 3.30513 3.11586
# Velocity P-wave (km/s) = 5.12147 5.54902 5.33953
#
# Compressibility (1/GPa) = 0.02524346
#
# Stress axis : x y z
#
# Youngs Moduli (GPa) = 72.00073 110.92507 94.39703
#
# Poissons Ratio (x) = 0.06306 0.08142
# Poissons Ratio (y) = 0.04093 0.25449
# Poissons Ratio (z) = 0.06210 0.29905
#
# Static dielectric constant tensor:
#      x y z
#    x 4.461400 0.000000 0.000000 
#    y 0.000000 5.501660 0.000000 
#    z 0.000000 0.000000 4.709710 
# 
# 
# High freq. dielectric constant tensor:
#      x y z
#    x 2.036950 0.000000 0.000000 
#    y 0.000000 2.098290 0.000000 
#    z 0.000000 0.000000 2.062250 
# 
# From -- ./inp_files/702.got.cif
#   From: 2010.03.12/outbox.cif.g09.slc.cpg/sg62_1_cif.got.tgz:702.got - 2010.04.10 19:12:36.
