data_PCOD8254944
_publ_section_title
;
Structure prediction by ZEFSAII (Michael W. Deem and Ramdas Pophale) SiO2 
 PCOD8254944
Probable space group: P N M A
;
_chemical_formula_sum "Si O2"
_cell_formula_units_Z 40
_cell_length_a 25.353303
_cell_length_b 12.489746
_cell_length_c 5.572257
_cell_angle_alpha 90.000000
_cell_angle_beta 90.000000
_cell_angle_gamma 90.000000
_cell_volume 1764.490366
_symmetry_space_group_name_H-M "P N M A"
_symmetry_group_IT_number 62
_symmetry_cell_setting 'orthorhombic'
loop_
_space_group_symop_operation_xyz
x,y,z
1/2-x,-y,1/2+z
1/2+x,1/2-y,1/2-z
-x,1/2+y,-z
-x,-y,-z
1/2+x,y,1/2-z
1/2-x,1/2+y,1/2+z
x,1/2-y,z
loop_
_atom_site_type_symbol
_atom_site_label
_atom_site_fract_x
_atom_site_fract_y
_atom_site_fract_z
Si Si1 0.093609 0.133137 0.364192
Si Si2 0.289720 0.134093 0.884332
Si Si3 0.489854 0.750000 0.094660
Si Si4 0.945951 0.250000 0.095485
Si Si5 0.880863 0.050529 0.946293
Si Si6 0.186771 0.062841 0.672866
O O1 0.093419 0.250000 0.225146
O O2 0.152518 0.119186 0.467945
O O3 0.048127 0.144202 0.570914
O O4 0.080206 0.027833 0.206519
O O5 0.298800 0.250000 0.003856
O O6 0.339485 0.112383 0.716899
O O7 0.234539 0.140025 0.742182
O O8 0.285477 0.047337 0.092189
O O9 0.526651 0.750000 0.855095
O O10 0.518401 0.750000 0.351821
O O11 0.912439 0.140509 0.092570
O O12 0.851748 0.964960 0.111250
#
# Coordination Sequence:
#
# PCOD8254944 Si02
#       6
#     8   8   4   4   8   8
#     4   9  24  46  70 101 137 177 245 295 360 426
#     4  11  23  41  65 100 140 186 233 282 356 439
#     4  10  28  50  75 108 137 192 250 304 376 416
#     4  12  28  48  75 106 147 188 244 308 366 432
#     4  11  25  42  71 101 145 185 234 293 364 429
#     4  11  23  43  66 102 141 186 231 292 358 430
#
# _framework density 22.669436999999999
#
# number of rings (size 3 to 8) (size 9 to 14) (size 15 to 20)
#    0.600    0.800    3.000    0.600    9.800    3.200 
#    0.000    0.000    0.000    0.000    0.000    0.000 
#    0.000    0.000    0.000    0.000    0.000    0.000 
#
# Total GULP energy -495548.117227 kJ/mol
# GULP energy per Si atom -12388.702931 kJ/mol
# Density = 2.261784 g / cm^3
# Si number density = 22.669437 Si / 1000 Ang^3
#
#
#
# Elastic Constant Matrix: (Units=GPa)
#
#
# Indices 1 2 3 4 5 6 
#
# 1 70.8842 16.3669 2.5435 0.0000 0.0000 0.0000
# 2 16.3669 113.1639 0.4419 0.0000 0.0000 0.0000
# 3 2.5435 0.4419 49.0489 0.0000 0.0000 0.0000
# 4 0.0000 0.0000 0.0000 -37.3500 0.0000 0.0000
# 5 0.0000 0.0000 0.0000 0.0000 29.4714 0.0000
# 6 0.0000 0.0000 0.0000 0.0000 0.0000 23.3383
#
#
#
# Elastic Compliance Matrix: (Units=1/GPa)
#
#
# Indices 1 2 3 4 5 6 
#
# 1 0.014622 -0.002112 -0.000739 0.000000 0.000000 0.000000
# 2 -0.002112 0.009142 0.000027 0.000000 0.000000 0.000000
# 3 -0.000739 0.000027 0.020426 0.000000 0.000000 0.000000
# 4 0.000000 0.000000 0.000000 -0.026774 0.000000 0.000000
# 5 0.000000 0.000000 0.000000 0.000000 0.033931 0.000000
# 6 0.000000 0.000000 0.000000 0.000000 0.000000 0.042848
#
#
# Mechanical properties :
#
#
# Convention : Reuss Voigt Hill
#
# Bulk Modulus (GPa) = 25.94583 30.20018 28.07301
# Shear Modulus (GPa) = 44.36947 17.34159 30.85553
#
# Velocity S-wave (km/s) = 4.42887 2.76882 3.69332
# Velocity P-wave (km/s) = 6.13378 4.85518 5.53155
#
# Compressibility (1/GPa) = 0.03854183
#
# Stress axis : x y z
#
# Youngs Moduli (GPa) = 68.39167 109.38436 48.95747
#
# Poissons Ratio (x) = 0.23100 0.03619
# Poissons Ratio (y) = 0.14443 -0.00133
# Poissons Ratio (z) = 0.05056 -0.00297
#
# Static dielectric constant tensor:
#      x y z
#    x 4.220850 0.000000 0.000000 
#    y 0.000000 4.203990 0.000000 
#    z 0.000000 0.000000 3.889900 
# 
# 
# High freq. dielectric constant tensor:
#      x y z
#    x 1.899100 0.000000 0.000000 
#    y 0.000000 1.904400 0.000000 
#    z 0.000000 0.000000 1.872270 
# 
# From -- ./inp_files/3083.got.cif
#   From: 2010.03.12/outbox.cif.g09.slc.cpg/sg62_2_cif.got.tgz:3083.got - 2010.04.10 19:12:36.
