data_PCOD8254482
_publ_section_title
;
Structure prediction by ZEFSAII (Michael W. Deem and Ramdas Pophale) SiO2 
 PCOD8254482
Probable space group: P N M A
;
_chemical_formula_sum "Si O2"
_cell_formula_units_Z 40
_cell_length_a 10.293992
_cell_length_b 10.610696
_cell_length_c 17.092449
_cell_angle_alpha 90.000000
_cell_angle_beta 90.000000
_cell_angle_gamma 90.000000
_cell_volume 1866.947009
_symmetry_space_group_name_H-M "P N M A"
_symmetry_group_IT_number 62
_symmetry_cell_setting 'orthorhombic'
loop_
_space_group_symop_operation_xyz
x,y,z
1/2-x,-y,1/2+z
1/2+x,1/2-y,1/2-z
-x,1/2+y,-z
-x,-y,-z
1/2+x,y,1/2-z
1/2-x,1/2+y,1/2+z
x,1/2-y,z
loop_
_atom_site_type_symbol
_atom_site_label
_atom_site_fract_x
_atom_site_fract_y
_atom_site_fract_z
Si Si1 0.008901 0.894848 0.067121
Si Si2 0.771746 0.250000 0.187938
Si Si3 0.233209 0.020953 0.843871
Si Si4 0.518320 0.750000 0.821796
Si Si5 0.993759 0.992014 0.408107
Si Si6 0.751082 0.607486 0.328044
O O1 0.028495 0.750000 0.036111
O O2 0.127097 0.938095 0.122395
O O3 0.877854 0.893890 0.118344
O O4 0.000000 0.000000 0.000000
O O5 0.792402 0.373848 0.133973
O O6 0.870490 0.250000 0.258463
O O7 0.622898 0.250000 0.219926
O O8 0.372038 0.066242 0.875872
O O9 0.232397 0.024716 0.749645
O O10 0.535763 0.870012 0.876306
O O11 0.878092 0.900403 0.382090
O O12 0.000000 0.000000 0.500000
O O13 0.730004 0.750000 0.300302
#
# Coordination Sequence:
#
# PCOD8254482 Si02
#       6
#     8   4   8   4   8   8
#     4  11  26  47  68  99 136 176 219 273 337 398
#     4  10  22  38  68  96 132 164 222 280 328 378
#     4  11  23  43  66  98 129 174 223 272 323 393
#     4  10  22  42  64  98 128 166 216 268 330 388
#     4  11  24  42  64  96 131 169 213 266 327 386
#     4  11  24  43  67  93 130 170 218 273 324 384
#
# _framework density 21.425353999999999
#
# number of rings (size 3 to 8) (size 9 to 14) (size 15 to 20)
#    0.000    1.200    2.000    3.000    5.600    3.200 
#    7.200    0.000    0.000    0.000    0.000    0.000 
#    0.000    0.000    0.000    0.000    0.000    0.000 
#
# Total GULP energy -496105.505127 kJ/mol
# GULP energy per Si atom -12402.637628 kJ/mol
# Density = 2.137659 g / cm^3
# Si number density = 21.425354 Si / 1000 Ang^3
#
#
#
# Elastic Constant Matrix: (Units=GPa)
#
#
# Indices 1 2 3 4 5 6 
#
# 1 155.0879 23.8960 54.8184 0.0000 0.0000 0.0000
# 2 23.8960 80.8781 10.0174 0.0000 0.0000 0.0000
# 3 54.8184 10.0174 98.6246 0.0000 0.0000 0.0000
# 4 0.0000 0.0000 0.0000 22.9498 0.0000 0.0000
# 5 0.0000 0.0000 0.0000 0.0000 38.3878 0.0000
# 6 0.0000 0.0000 0.0000 0.0000 0.0000 27.4544
#
#
#
# Elastic Compliance Matrix: (Units=1/GPa)
#
#
# Indices 1 2 3 4 5 6 
#
# 1 0.008305 -0.001906 -0.004422 0.000000 0.000000 0.000000
# 2 -0.001906 0.012959 -0.000257 0.000000 0.000000 0.000000
# 3 -0.004422 -0.000257 0.012624 0.000000 0.000000 0.000000
# 4 0.000000 0.000000 0.000000 0.043573 0.000000 0.000000
# 5 0.000000 0.000000 0.000000 0.000000 0.026050 0.000000
# 6 0.000000 0.000000 0.000000 0.000000 0.000000 0.036424
#
#
# Mechanical properties :
#
#
# Convention : Reuss Voigt Hill
#
# Bulk Modulus (GPa) = 48.26932 56.89491 52.58211
# Shear Modulus (GPa) = 31.24778 34.14899 32.69838
#
# Velocity S-wave (km/s) = 3.82311 3.99665 3.91084
# Velocity P-wave (km/s) = 6.48584 6.92172 6.70732
#
# Compressibility (1/GPa) = 0.02071709
#
# Stress axis : x y z
#
# Youngs Moduli (GPa) = 120.41200 77.16504 79.21623
#
# Poissons Ratio (x) = 0.14707 0.35033
# Poissons Ratio (y) = 0.22950 0.02035
# Poissons Ratio (z) = 0.53252 0.01982
#
# Static dielectric constant tensor:
#      x y z
#    x 4.454080 0.000000 0.000000 
#    y 0.000000 3.943780 0.000000 
#    z 0.000000 0.000000 3.647330 
# 
# 
# High freq. dielectric constant tensor:
#      x y z
#    x 1.859900 0.000000 0.000000 
#    y 0.000000 1.851170 0.000000 
#    z 0.000000 0.000000 1.828080 
# 
# From -- ./inp_files/21935.got.cif
#   From: 2010.03.12/outbox.cif.g09.slc.cpg/sg62_11_cif.got.tgz:21935.got - 2010.04.10 19:12:36.
