data_PCOD8254147
_publ_section_title
;
Structure prediction by ZEFSAII (Michael W. Deem and Ramdas Pophale) SiO2 
 PCOD8254147
Probable space group: P N M A
;
_chemical_formula_sum "Si O2"
_cell_formula_units_Z 48
_cell_length_a 17.967389
_cell_length_b 15.405068
_cell_length_c 8.578963
_cell_angle_alpha 90.000000
_cell_angle_beta 90.000000
_cell_angle_gamma 90.000000
_cell_volume 2374.561297
_symmetry_space_group_name_H-M "P N M A"
_symmetry_group_IT_number 62
_symmetry_cell_setting 'orthorhombic'
loop_
_space_group_symop_operation_xyz
x,y,z
1/2-x,-y,1/2+z
1/2+x,1/2-y,1/2-z
-x,1/2+y,-z
-x,-y,-z
1/2+x,y,1/2-z
1/2-x,1/2+y,1/2+z
x,1/2-y,z
loop_
_atom_site_type_symbol
_atom_site_label
_atom_site_fract_x
_atom_site_fract_y
_atom_site_fract_z
Si Si1 0.849349 0.497499 0.792943
Si Si2 0.099479 0.150410 0.708302
Si Si3 0.304816 0.507358 0.355368
Si Si4 0.968040 0.917218 0.589303
Si Si5 0.094773 0.847150 0.789179
Si Si6 0.950271 0.347617 0.868132
O O1 0.783388 0.500238 0.667357
O O2 0.915591 0.559683 0.735566
O O3 0.881122 0.400086 0.798083
O O4 0.821781 0.526092 0.963849
O O5 0.120160 0.250000 0.747100
O O6 0.080557 0.142096 0.526100
O O7 0.028855 0.115966 0.807271
O O8 0.167913 0.088785 0.752937
O O9 0.339900 0.417967 0.291208
O O10 0.038784 0.862805 0.647076
O O11 0.000000 0.000000 0.500000
O O12 0.129310 0.750000 0.773858
O O13 0.046873 0.855048 0.946305
O O14 0.939136 0.250000 0.807937
#
# Coordination Sequence:
#
# PCOD8254147 Si02
#       6
#     8   8   8   8   8   8
#     4  11  23  39  62  88 123 165 201 254 311 366
#     4  11  22  38  61  90 122 159 204 253 302 360
#     4  11  23  40  61  88 125 162 203 250 313 371
#     4  12  21  37  63  91 122 159 206 251 301 358
#     4  10  21  39  62  88 120 159 200 250 302 361
#     4   9  19  37  61  88 117 156 206 250 300 359
#
# _framework density 20.214259999999999
#
# number of rings (size 3 to 8) (size 9 to 14) (size 15 to 20)
#    0.000    1.333    3.333    2.500    0.000    3.333 
#    0.000    6.667    0.000    0.000    0.000    0.000 
#    0.000    0.000    0.000    0.000    0.000    0.000 
#
# Total GULP energy -595360.710202 kJ/mol
# GULP energy per Si atom -12403.348129 kJ/mol
# Density = 2.016825 g / cm^3
# Si number density = 20.214260 Si / 1000 Ang^3
#
#
#
# Elastic Constant Matrix: (Units=GPa)
#
#
# Indices 1 2 3 4 5 6 
#
# 1 71.8303 29.0058 12.6316 0.0000 0.0000 0.0000
# 2 29.0058 98.5568 23.7064 0.0000 0.0000 0.0000
# 3 12.6316 23.7064 64.5435 0.0000 0.0000 0.0000
# 4 0.0000 0.0000 0.0000 29.9129 0.0000 0.0000
# 5 0.0000 0.0000 0.0000 0.0000 42.3565 0.0000
# 6 0.0000 0.0000 0.0000 0.0000 0.0000 16.1745
#
#
#
# Elastic Compliance Matrix: (Units=1/GPa)
#
#
# Indices 1 2 3 4 5 6 
#
# 1 0.015936 -0.004322 -0.001531 0.000000 0.000000 0.000000
# 2 -0.004322 0.012302 -0.003673 0.000000 0.000000 0.000000
# 3 -0.001531 -0.003673 0.017142 0.000000 0.000000 0.000000
# 4 0.000000 0.000000 0.000000 0.033430 0.000000 0.000000
# 5 0.000000 0.000000 0.000000 0.000000 0.023609 0.000000
# 6 0.000000 0.000000 0.000000 0.000000 0.000000 0.061826
#
#
# Mechanical properties :
#
#
# Convention : Reuss Voigt Hill
#
# Bulk Modulus (GPa) = 37.98173 40.62424 39.30299
# Shear Modulus (GPa) = 26.03177 28.99456 27.51317
#
# Velocity S-wave (km/s) = 3.59248 3.79141 3.69328
# Velocity P-wave (km/s) = 6.00318 6.26951 6.13779
#
# Compressibility (1/GPa) = 0.02632845
#
# Stress axis : x y z
#
# Youngs Moduli (GPa) = 62.75032 81.28944 58.33608
#
# Poissons Ratio (x) = 0.35131 0.08934
# Poissons Ratio (y) = 0.27119 0.21424
# Poissons Ratio (z) = 0.09610 0.29854
#
# Static dielectric constant tensor:
#      x y z
#    x 3.510590 0.000000 0.000000 
#    y 0.000000 3.705910 0.000000 
#    z 0.000000 0.000000 3.778130 
# 
# 
# High freq. dielectric constant tensor:
#      x y z
#    x 1.775970 0.000000 0.000000 
#    y 0.000000 1.789470 0.000000 
#    z 0.000000 0.000000 1.797700 
# 
# From -- ./inp_files/6470.got.cif
#   From: 2010.03.12/outbox.cif.g09.slc.cpg/sg62_4_cif.got.tgz:6470.got - 2010.04.10 19:12:36.
