data_PCOD8254399
_publ_section_title
;
Structure prediction by ZEFSAII (Michael W. Deem and Ramdas Pophale) SiO2 
 PCOD8254399
Probable space group: P N M A
;
_chemical_formula_sum "Si O2"
_cell_formula_units_Z 52
_cell_length_a 14.404570
_cell_length_b 15.633316
_cell_length_c 11.058202
_cell_angle_alpha 90.000000
_cell_angle_beta 90.000000
_cell_angle_gamma 90.000000
_cell_volume 2490.209719
_symmetry_space_group_name_H-M "P N M A"
_symmetry_group_IT_number 62
_symmetry_cell_setting 'orthorhombic'
loop_
_space_group_symop_operation_xyz
x,y,z
1/2-x,-y,1/2+z
1/2+x,1/2-y,1/2-z
-x,1/2+y,-z
-x,-y,-z
1/2+x,y,1/2-z
1/2-x,1/2+y,1/2+z
x,1/2-y,z
loop_
_atom_site_type_symbol
_atom_site_label
_atom_site_fract_x
_atom_site_fract_y
_atom_site_fract_z
Si Si1 0.356207 0.567613 0.300400
Si Si2 0.591494 0.250000 0.085220
Si Si3 0.726255 0.750000 0.724755
Si Si4 0.352597 0.398301 0.434397
Si Si5 0.656290 0.424991 0.975384
Si Si6 0.146383 0.910662 0.371521
Si Si7 0.036039 0.654160 0.154881
Si Si8 0.615458 0.750000 0.958128
O O1 0.388842 0.482604 0.368783
O O2 0.369621 0.548440 0.159326
O O3 0.253841 0.597079 0.336348
O O4 0.425414 0.642789 0.340260
O O5 0.661449 0.250000 0.201539
O O6 0.481932 0.250000 0.118193
O O7 0.610363 0.333997 0.005310
O O8 0.680086 0.833226 0.667989
O O9 0.703253 0.750000 0.867039
O O10 0.267048 0.418305 0.522232
O O11 0.434409 0.361930 0.516746
O O12 0.621913 0.498643 0.066896
O O13 0.086350 0.908719 0.249244
O O14 0.119256 0.834120 0.460194
O O15 0.062733 0.750000 0.192366
#
# Coordination Sequence:
#
# PCOD8254399 Si02
#       8
#     8   4   4   8   8   8   8   4
#     4  11  24  40  67  96 132 175 217 269 334 391
#     4  10  24  43  68 101 123 180 224 260 341 392
#     4  10  22  43  68  87 133 173 216 271 334 392
#     4  10  21  43  64  94 128 172 215 267 331 391
#     4  10  22  42  69  93 133 170 219 273 320 395
#     4  11  25  42  65 101 134 172 222 277 327 380
#     4  12  24  41  67  98 131 173 221 271 326 396
#     4  12  24  42  64  96 136 167 222 279 323 394
#
# _framework density 20.881775999999999
#
# number of rings (size 3 to 8) (size 9 to 14) (size 15 to 20)
#    0.000    1.231    3.077    2.308    2.154    3.692 
#    2.769    0.000    0.000    0.000    0.000    0.000 
#    0.000    0.000    0.000    0.000    0.000    0.000 
#
# Total GULP energy -644954.007065 kJ/mol
# GULP energy per Si atom -12402.961674 kJ/mol
# Density = 2.083425 g / cm^3
# Si number density = 20.881776 Si / 1000 Ang^3
#
#
#
# Elastic Constant Matrix: (Units=GPa)
#
#
# Indices 1 2 3 4 5 6 
#
# 1 97.6359 36.6333 26.0171 0.0000 0.0000 0.0000
# 2 36.6333 120.7254 46.1937 0.0000 0.0000 0.0000
# 3 26.0171 46.1937 66.4160 0.0000 0.0000 0.0000
# 4 0.0000 0.0000 0.0000 18.6991 0.0000 0.0000
# 5 0.0000 0.0000 0.0000 0.0000 21.1772 0.0000
# 6 0.0000 0.0000 0.0000 0.0000 0.0000 26.6565
#
#
#
# Elastic Compliance Matrix: (Units=1/GPa)
#
#
# Indices 1 2 3 4 5 6 
#
# 1 0.011967 -0.002504 -0.002946 0.000000 0.000000 0.000000
# 2 -0.002504 0.011811 -0.007234 0.000000 0.000000 0.000000
# 3 -0.002946 -0.007234 0.021242 0.000000 0.000000 0.000000
# 4 0.000000 0.000000 0.000000 0.053479 0.000000 0.000000
# 5 0.000000 0.000000 0.000000 0.000000 0.047221 0.000000
# 6 0.000000 0.000000 0.000000 0.000000 0.000000 0.037514
#
#
# Mechanical properties :
#
#
# Convention : Reuss Voigt Hill
#
# Bulk Modulus (GPa) = 50.88620 55.82952 53.35786
# Shear Modulus (GPa) = 23.23941 25.03544 24.13743
#
# Velocity S-wave (km/s) = 3.33964 3.46629 3.40355
# Velocity P-wave (km/s) = 6.26838 6.54326 6.40729
#
# Compressibility (1/GPa) = 0.01965169
#
# Stress axis : x y z
#
# Youngs Moduli (GPa) = 83.56539 84.66677 47.07640
#
# Poissons Ratio (x) = 0.21200 0.13870
# Poissons Ratio (y) = 0.20924 0.34055
# Poissons Ratio (z) = 0.24620 0.61248
#
# Static dielectric constant tensor:
#      x y z
#    x 3.855910 0.000000 0.000000 
#    y 0.000000 3.834610 0.000000 
#    z 0.000000 0.000000 3.638130 
# 
# 
# High freq. dielectric constant tensor:
#      x y z
#    x 1.820240 0.000000 0.000000 
#    y 0.000000 1.826620 0.000000 
#    z 0.000000 0.000000 1.815830 
# 
# From -- ./inp_files/13420.got.cif
#   From: 2010.03.12/outbox.cif.g09.slc.cpg/sg62_7_cif.got.tgz:13420.got - 2010.04.10 19:12:36.
