data_PCOD8254088
_publ_section_title
;
Structure prediction by ZEFSAII (Michael W. Deem and Ramdas Pophale) SiO2 
 PCOD8254088
Probable space group: P N M A
;
_chemical_formula_sum "Si O2"
_cell_formula_units_Z 64
_cell_length_a 9.701965
_cell_length_b 16.509685
_cell_length_c 20.477542
_cell_angle_alpha 90.000000
_cell_angle_beta 90.000000
_cell_angle_gamma 90.000000
_cell_volume 3280.018672
_symmetry_space_group_name_H-M "P N M A"
_symmetry_group_IT_number 62
_symmetry_cell_setting 'orthorhombic'
loop_
_space_group_symop_operation_xyz
x,y,z
1/2-x,-y,1/2+z
1/2+x,1/2-y,1/2-z
-x,1/2+y,-z
-x,-y,-z
1/2+x,y,1/2-z
1/2-x,1/2+y,1/2+z
x,1/2-y,z
loop_
_atom_site_type_symbol
_atom_site_label
_atom_site_fract_x
_atom_site_fract_y
_atom_site_fract_z
Si Si1 0.140885 0.562750 0.743298
Si Si2 0.296067 0.346211 0.371071
Si Si3 0.463383 0.341857 0.631581
Si Si4 0.518780 0.653846 0.878120
Si Si5 0.707176 0.846133 0.994738
Si Si6 0.287164 0.342271 0.859112
Si Si7 0.608984 0.952024 0.255955
Si Si8 0.512458 0.653570 0.513380
O O1 0.132264 0.618756 0.806979
O O2 0.295268 0.530229 0.735035
O O3 0.101099 0.617078 0.682053
O O4 0.045938 0.484181 0.750722
O O5 0.302955 0.250000 0.367282
O O6 0.138847 0.376538 0.378186
O O7 0.382007 0.380449 0.432726
O O8 0.410448 0.250000 0.638074
O O9 0.623715 0.347034 0.649582
O O10 0.373929 0.395285 0.680943
O O11 0.437556 0.374861 0.558269
O O12 0.526903 0.750000 0.872054
O O13 0.590439 0.622838 0.944867
O O14 0.715942 0.750000 0.994312
O O15 0.857828 0.879840 0.973227
O O16 0.670508 0.873308 0.068446
O O17 0.337869 0.250000 0.847380
O O18 0.360588 0.401561 0.808951
O O19 0.510149 0.750000 0.514727
#
# Coordination Sequence:
#
# PCOD8254088 Si02
#       8
#     8   8   8   8   8   8   8   8
#     4  12  25  40  55  80 119 153 189 234 281 332
#     4  10  21  39  60  84 113 146 187 237 284 334
#     4   9  18  37  62  87 113 147 191 234 276 334
#     4  10  21  39  60  84 112 146 188 235 285 338
#     4   8  16  33  60  87 110 140 185 234 280 333
#     4   9  18  37  62  87 114 148 189 233 279 333
#     4  12  23  40  57  80 119 155 191 231 278 334
#     4   8  16  33  60  87 109 139 187 236 277 329
#
# _framework density 19.512084999999999
#
# number of rings (size 3 to 8) (size 9 to 14) (size 15 to 20)
#    0.000    2.250    2.500    2.250    1.750    0.000 
#    2.250    2.500    0.000    0.000    0.000    0.000 
#    0.000    0.000    0.000    0.000    0.000    0.000 
#
# Total GULP energy -793601.564756 kJ/mol
# GULP energy per Si atom -12400.024449 kJ/mol
# Density = 1.946767 g / cm^3
# Si number density = 19.512085 Si / 1000 Ang^3
#
#
#
# Elastic Constant Matrix: (Units=GPa)
#
#
# Indices 1 2 3 4 5 6 
#
# 1 71.2128 22.8734 64.7321 0.0000 0.0000 0.0000
# 2 22.8734 35.9594 37.8450 0.0000 0.0000 0.0000
# 3 64.7321 37.8450 165.8915 0.0000 0.0000 0.0000
# 4 0.0000 0.0000 0.0000 -1.2163 0.0000 0.0000
# 5 0.0000 0.0000 0.0000 0.0000 35.4362 0.0000
# 6 0.0000 0.0000 0.0000 0.0000 0.0000 25.7801
#
#
#
# Elastic Compliance Matrix: (Units=1/GPa)
#
#
# Indices 1 2 3 4 5 6 
#
# 1 0.022963 -0.006812 -0.007406 0.000000 0.000000 0.000000
# 2 -0.006812 0.038616 -0.006152 0.000000 0.000000 0.000000
# 3 -0.007406 -0.006152 0.010321 0.000000 0.000000 0.000000
# 4 0.000000 0.000000 0.000000 -0.822197 0.000000 0.000000
# 5 0.000000 0.000000 0.000000 0.000000 0.028220 0.000000
# 6 0.000000 0.000000 0.000000 0.000000 0.000000 0.038790
#
#
# Mechanical properties :
#
#
# Convention : Reuss Voigt Hill
#
# Bulk Modulus (GPa) = 32.09128 58.21831 45.15480
# Shear Modulus (GPa) = -7.90937 21.84088 6.96575
#
# Velocity S-wave (km/s) = -2.01553 3.34930 1.89149
# Velocity P-wave (km/s) = 3.32657 6.69768 5.28796
#
# Compressibility (1/GPa) = 0.03116111
#
# Stress axis : x y z
#
# Youngs Moduli (GPa) = 43.54921 25.89589 96.88657
#
# Poissons Ratio (x) = 0.17640 0.71756
# Poissons Ratio (y) = 0.29664 0.59600
# Poissons Ratio (z) = 0.32253 0.15930
#
# Static dielectric constant tensor:
#      x y z
#    x 3.650410 0.000000 0.000000 
#    y 0.000000 3.284290 0.000000 
#    z 0.000000 0.000000 3.784970 
# 
# 
# High freq. dielectric constant tensor:
#      x y z
#    x 1.751840 0.000000 0.000000 
#    y 0.000000 1.739370 0.000000 
#    z 0.000000 0.000000 1.772520 
# 
# From -- ./inp_files/26160.got.cif
#   From: 2010.03.12/outbox.cif.g09.slc.cpg/sg62_14_cif.got.tgz:26160.got - 2010.04.10 19:12:36.
