data_PCOD8254852
_publ_section_title
;
Structure prediction by ZEFSAII (Michael W. Deem and Ramdas Pophale) SiO2 
 PCOD8254852
Probable space group: P N M A
;
_chemical_formula_sum "Si O2"
_cell_formula_units_Z 40
_cell_length_a 15.117206
_cell_length_b 8.417439
_cell_length_c 15.016632
_cell_angle_alpha 90.000000
_cell_angle_beta 90.000000
_cell_angle_gamma 90.000000
_cell_volume 1910.838782
_symmetry_space_group_name_H-M "P N M A"
_symmetry_group_IT_number 62
_symmetry_cell_setting 'orthorhombic'
loop_
_space_group_symop_operation_xyz
x,y,z
1/2-x,-y,1/2+z
1/2+x,1/2-y,1/2-z
-x,1/2+y,-z
-x,-y,-z
1/2+x,y,1/2-z
1/2-x,1/2+y,1/2+z
x,1/2-y,z
loop_
_atom_site_type_symbol
_atom_site_label
_atom_site_fract_x
_atom_site_fract_y
_atom_site_fract_z
Si Si1 0.535513 0.932816 0.746206
Si Si2 0.140016 0.934321 0.178366
Si Si3 0.714894 0.063362 0.677474
Si Si4 0.431917 0.933722 0.069917
Si Si5 0.252765 0.933403 0.524572
O O1 0.535981 0.750000 0.775347
O O2 0.450363 0.967688 0.685793
O O3 0.624074 0.970514 0.691974
O O4 0.527359 0.044427 0.832532
O O5 0.119269 0.750000 0.191921
O O6 0.211063 0.993693 0.252052
O O7 0.176448 0.963580 0.079131
O O8 0.697042 0.250000 0.689075
O O9 0.747865 0.018457 0.578941
O O10 0.411656 0.750000 0.051509
O O11 0.343037 0.034533 0.064968
O O12 0.500000 0.000000 0.000000
O O13 0.277076 0.750000 0.537151
#
# Coordination Sequence:
#
# PCOD8254852 Si02
#       5
#     8   8   8   8   8
#     4  12  25  41  66  96 130 172 220 273 328 391
#     4  11  23  42  67  94 131 176 220 271 331 393
#     4  10  23  43  66  93 130 173 216 269 331 393
#     4  12  24  41  65  96 132 170 219 272 332 393
#     4  11  23  41  66  97 131 170 218 272 330 392
#
# _framework density 20.933215000000001
#
# number of rings (size 3 to 8) (size 9 to 14) (size 15 to 20)
#    0.000    0.800    2.000    6.000    0.000    4.800 
#    0.000    0.000    0.000    0.000    0.000    0.000 
#    0.000    0.000    0.000    0.000    0.000    0.000 
#
# Total GULP energy -496327.675460 kJ/mol
# GULP energy per Si atom -12408.191887 kJ/mol
# Density = 2.088557 g / cm^3
# Si number density = 20.933215 Si / 1000 Ang^3
#
#
#
# Elastic Constant Matrix: (Units=GPa)
#
#
# Indices 1 2 3 4 5 6 
#
# 1 98.8142 38.3502 -6.7086 0.0000 0.0000 0.0000
# 2 38.3502 70.3490 34.9191 0.0000 0.0000 0.0000
# 3 -6.7086 34.9191 62.2567 0.0000 0.0000 0.0000
# 4 0.0000 0.0000 0.0000 34.8560 0.0000 0.0000
# 5 0.0000 0.0000 0.0000 0.0000 39.7624 0.0000
# 6 0.0000 0.0000 0.0000 0.0000 0.0000 30.3451
#
#
#
# Elastic Compliance Matrix: (Units=1/GPa)
#
#
# Indices 1 2 3 4 5 6 
#
# 1 0.015834 -0.013136 0.009074 0.000000 0.000000 0.000000
# 2 -0.013136 0.030597 -0.018577 0.000000 0.000000 0.000000
# 3 0.009074 -0.018577 0.027460 0.000000 0.000000 0.000000
# 4 0.000000 0.000000 0.000000 0.028689 0.000000 0.000000
# 5 0.000000 0.000000 0.000000 0.000000 0.025149 0.000000
# 6 0.000000 0.000000 0.000000 0.000000 0.000000 0.032954
#
#
# Mechanical properties :
#
#
# Convention : Reuss Voigt Hill
#
# Bulk Modulus (GPa) = 34.94881 40.50461 37.72671
# Shear Modulus (GPa) = 23.20190 31.98331 27.59261
#
# Velocity S-wave (km/s) = 3.33284 3.91304 3.63454
# Velocity P-wave (km/s) = 5.61623 6.30930 5.97283
#
# Compressibility (1/GPa) = 0.02861328
#
# Stress axis : x y z
#
# Youngs Moduli (GPa) = 63.15450 32.68309 36.41666
#
# Poissons Ratio (x) = 0.42932 -0.33045
# Poissons Ratio (y) = 0.82960 0.67651
# Poissons Ratio (z) = -0.57307 0.60715
#
# Static dielectric constant tensor:
#      x y z
#    x 4.097200 0.000000 0.000000 
#    y 0.000000 3.706760 0.000000 
#    z 0.000000 0.000000 3.830900 
# 
# 
# High freq. dielectric constant tensor:
#      x y z
#    x 1.827150 0.000000 0.000000 
#    y 0.000000 1.823110 0.000000 
#    z 0.000000 0.000000 1.826160 
# 
# From -- ./inp_files/18610.got.cif
#   From: 2010.03.12/outbox.cif.g09.slc.cpg/sg62_10_cif.got.tgz:18610.got - 2010.04.10 19:12:36.
