data_PCOD8254908
_publ_section_title
;
Structure prediction by ZEFSAII (Michael W. Deem and Ramdas Pophale) SiO2 
 PCOD8254908
Probable space group: P N M A
;
_chemical_formula_sum "Si O2"
_cell_formula_units_Z 40
_cell_length_a 10.544929
_cell_length_b 18.870146
_cell_length_c 9.123947
_cell_angle_alpha 90.000000
_cell_angle_beta 90.000000
_cell_angle_gamma 90.000000
_cell_volume 1815.522661
_symmetry_space_group_name_H-M "P N M A"
_symmetry_group_IT_number 62
_symmetry_cell_setting 'orthorhombic'
loop_
_space_group_symop_operation_xyz
x,y,z
1/2-x,-y,1/2+z
1/2+x,1/2-y,1/2-z
-x,1/2+y,-z
-x,-y,-z
1/2+x,y,1/2-z
1/2-x,1/2+y,1/2+z
x,1/2-y,z
loop_
_atom_site_type_symbol
_atom_site_label
_atom_site_fract_x
_atom_site_fract_y
_atom_site_fract_z
Si Si1 0.306877 0.058515 0.617653
Si Si2 0.733867 0.398475 0.441918
Si Si3 0.526847 0.673138 0.032645
Si Si4 0.074476 0.392143 0.801952
Si Si5 0.774491 0.667726 0.623107
O O1 0.447486 0.060436 0.687052
O O2 0.194116 0.064337 0.736145
O O3 0.301266 0.120133 0.494266
O O4 0.292771 0.981495 0.548764
O O5 0.868037 0.387075 0.521930
O O6 0.621167 0.362824 0.539605
O O7 0.744986 0.363310 0.284050
O O8 0.591647 0.750000 0.016140
O O9 0.423991 0.661781 0.905843
O O10 0.457247 0.671444 0.190639
O O11 0.728667 0.750000 0.613470
#
# Coordination Sequence:
#
# PCOD8254908 Si02
#       5
#     8   8   8   8   8
#     4  11  25  44  72 103 139 181 229 285 341 414
#     4  12  24  42  72 102 135 178 234 283 346 404
#     4  10  24  44  65  96 135 180 229 283 344 407
#     4  11  24  45  67 101 133 181 230 280 339 408
#     4  10  25  44  66 100 143 181 224 285 353 412
#
# _framework density 22.032222000000001
#
# number of rings (size 3 to 8) (size 9 to 14) (size 15 to 20)
#    0.000    1.200    2.000    2.400    5.600    4.000 
#    0.000    0.000    0.000    0.000    0.000    0.000 
#    0.000    0.000    0.000    0.000    0.000    0.000 
#
# Total GULP energy -495800.758197 kJ/mol
# GULP energy per Si atom -12395.018955 kJ/mol
# Density = 2.198208 g / cm^3
# Si number density = 22.032222 Si / 1000 Ang^3
#
#
#
# Elastic Constant Matrix: (Units=GPa)
#
#
# Indices 1 2 3 4 5 6 
#
# 1 140.3510 31.6838 56.0526 0.0000 0.0000 0.0000
# 2 31.6838 101.6289 49.4922 0.0000 0.0000 0.0000
# 3 56.0526 49.4922 118.5160 0.0000 0.0000 0.0000
# 4 0.0000 0.0000 0.0000 27.0025 0.0000 0.0000
# 5 0.0000 0.0000 0.0000 0.0000 38.0046 0.0000
# 6 0.0000 0.0000 0.0000 0.0000 0.0000 26.3359
#
#
#
# Elastic Compliance Matrix: (Units=1/GPa)
#
#
# Indices 1 2 3 4 5 6 
#
# 1 0.008850 -0.000905 -0.003808 0.000000 0.000000 0.000000
# 2 -0.000905 0.012444 -0.004769 0.000000 0.000000 0.000000
# 3 -0.003808 -0.004769 0.012230 0.000000 0.000000 0.000000
# 4 0.000000 0.000000 0.000000 0.037034 0.000000 0.000000
# 5 0.000000 0.000000 0.000000 0.000000 0.026313 0.000000
# 6 0.000000 0.000000 0.000000 0.000000 0.000000 0.037971
#
#
# Mechanical properties :
#
#
# Convention : Reuss Voigt Hill
#
# Bulk Modulus (GPa) = 68.67409 70.55036 69.61223
# Shear Modulus (GPa) = 31.51437 33.15308 32.33372
#
# Velocity S-wave (km/s) = 3.78613 3.88332 3.83504
# Velocity P-wave (km/s) = 7.09582 7.22481 7.16060
#
# Compressibility (1/GPa) = 0.01456153
#
# Stress axis : x y z
#
# Youngs Moduli (GPa) = 112.99469 80.35928 81.76585
#
# Poissons Ratio (x) = 0.07270 0.31135
# Poissons Ratio (y) = 0.10223 0.38992
# Poissons Ratio (z) = 0.43026 0.38322
#
# Static dielectric constant tensor:
#      x y z
#    x 4.023520 0.000000 0.000000 
#    y 0.000000 3.766910 0.000000 
#    z 0.000000 0.000000 4.161140 
# 
# 
# High freq. dielectric constant tensor:
#      x y z
#    x 1.875300 0.000000 0.000000 
#    y 0.000000 1.850730 0.000000 
#    z 0.000000 0.000000 1.883730 
# 
# From -- ./inp_files/5039.got.cif
#   From: 2010.03.12/outbox.cif.g09.slc.cpg/sg62_3_cif.got.tgz:5039.got - 2010.04.10 19:12:36.
