data_PCOD8254872
_publ_section_title
;
Structure prediction by ZEFSAII (Michael W. Deem and Ramdas Pophale) SiO2 
 PCOD8254872
Probable space group: P N M A
;
_chemical_formula_sum "Si O2"
_cell_formula_units_Z 40
_cell_length_a 13.304656
_cell_length_b 14.401062
_cell_length_c 8.984219
_cell_angle_alpha 90.000000
_cell_angle_beta 90.000000
_cell_angle_gamma 90.000000
_cell_volume 1721.386925
_symmetry_space_group_name_H-M "P N M A"
_symmetry_group_IT_number 62
_symmetry_cell_setting 'orthorhombic'
loop_
_space_group_symop_operation_xyz
x,y,z
1/2-x,-y,1/2+z
1/2+x,1/2-y,1/2-z
-x,1/2+y,-z
-x,-y,-z
1/2+x,y,1/2-z
1/2-x,1/2+y,1/2+z
x,1/2-y,z
loop_
_atom_site_type_symbol
_atom_site_label
_atom_site_fract_x
_atom_site_fract_y
_atom_site_fract_z
Si Si1 0.260090 0.494910 0.246418
Si Si2 0.108982 0.852208 0.266409
Si Si3 0.431352 0.583325 0.049497
Si Si4 0.104379 0.146102 0.227100
Si Si5 0.604816 0.856754 0.579700
O O1 0.188044 0.571242 0.327909
O O2 0.333791 0.548024 0.136656
O O3 0.186481 0.424015 0.157005
O O4 0.313215 0.431600 0.370167
O O5 0.156315 0.750000 0.290904
O O6 0.000865 0.853393 0.345963
O O7 0.087178 0.870849 0.093823
O O8 0.500000 0.500000 0.000000
O O9 0.394455 0.640783 0.906938
O O10 0.131578 0.250000 0.176289
O O11 0.995889 0.116797 0.167264
O O12 0.637573 0.750000 0.616747
#
# Coordination Sequence:
#
# PCOD8254872 Si02
#       5
#     8   8   8   8   8
#     4  12  23  40  73  98 137 175 236 281 341 405
#     4  11  26  45  68 100 139 182 232 286 349 413
#     4  12  24  46  68 102 141 184 225 286 349 408
#     4  11  24  45  71 101 138 183 230 285 347 415
#     4  10  23  44  68  98 139 183 227 283 343 410
#
# _framework density 23.237076999999999
#
# number of rings (size 3 to 8) (size 9 to 14) (size 15 to 20)
#    0.000    0.800    4.000    2.400    0.000    8.000 
#    0.000    0.000    0.000    0.000    0.000    0.000 
#    0.000    0.000    0.000    0.000    0.000    0.000 
#
# Total GULP energy -495993.893531 kJ/mol
# GULP energy per Si atom -12399.847338 kJ/mol
# Density = 2.318419 g / cm^3
# Si number density = 23.237077 Si / 1000 Ang^3
#
#
#
# Elastic Constant Matrix: (Units=GPa)
#
#
# Indices 1 2 3 4 5 6 
#
# 1 129.6471 56.5679 24.7705 0.0000 0.0000 0.0000
# 2 56.5679 125.0816 11.5290 0.0000 0.0000 0.0000
# 3 24.7705 11.5290 67.2011 0.0000 0.0000 0.0000
# 4 0.0000 0.0000 0.0000 30.0111 0.0000 0.0000
# 5 0.0000 0.0000 0.0000 0.0000 25.7809 0.0000
# 6 0.0000 0.0000 0.0000 0.0000 0.0000 40.0639
#
#
#
# Elastic Compliance Matrix: (Units=1/GPa)
#
#
# Indices 1 2 3 4 5 6 
#
# 1 0.010175 -0.004324 -0.003009 0.000000 0.000000 0.000000
# 2 -0.004324 0.009961 -0.000115 0.000000 0.000000 0.000000
# 3 -0.003009 -0.000115 0.016009 0.000000 0.000000 0.000000
# 4 0.000000 0.000000 0.000000 0.033321 0.000000 0.000000
# 5 0.000000 0.000000 0.000000 0.000000 0.038788 0.000000
# 6 0.000000 0.000000 0.000000 0.000000 0.000000 0.024960
#
#
# Mechanical properties :
#
#
# Convention : Reuss Voigt Hill
#
# Bulk Modulus (GPa) = 47.05971 56.40719 51.73345
# Shear Modulus (GPa) = 32.21782 34.44201 33.32992
#
# Velocity S-wave (km/s) = 3.72759 3.85411 3.79138
# Velocity P-wave (km/s) = 6.23077 6.64326 6.44032
#
# Compressibility (1/GPa) = 0.02124960
#
# Stress axis : x y z
#
# Youngs Moduli (GPa) = 98.28175 100.39149 62.46324
#
# Poissons Ratio (x) = 0.43412 0.18793
# Poissons Ratio (y) = 0.42499 0.00718
# Poissons Ratio (z) = 0.29569 0.01154
#
# Static dielectric constant tensor:
#      x y z
#    x 4.826640 0.000000 0.000000 
#    y 0.000000 4.430640 0.000000 
#    z 0.000000 0.000000 4.444320 
# 
# 
# High freq. dielectric constant tensor:
#      x y z
#    x 1.929310 0.000000 0.000000 
#    y 0.000000 1.935080 0.000000 
#    z 0.000000 0.000000 1.904960 
# 
# From -- ./inp_files/6086.got.cif
#   From: 2010.03.12/outbox.cif.g09.slc.cpg/sg62_4_cif.got.tgz:6086.got - 2010.04.10 19:12:36.
