data_PCOD8254780
_publ_section_title
;
Structure prediction by ZEFSAII (Michael W. Deem and Ramdas Pophale) SiO2 
 PCOD8254780
Probable space group: P N M A
;
_chemical_formula_sum "Si O2"
_cell_formula_units_Z 44
_cell_length_a 5.260628
_cell_length_b 24.715126
_cell_length_c 14.079861
_cell_angle_alpha 90.000000
_cell_angle_beta 90.000000
_cell_angle_gamma 90.000000
_cell_volume 1830.622468
_symmetry_space_group_name_H-M "P N M A"
_symmetry_group_IT_number 62
_symmetry_cell_setting 'orthorhombic'
loop_
_space_group_symop_operation_xyz
x,y,z
1/2-x,-y,1/2+z
1/2+x,1/2-y,1/2-z
-x,1/2+y,-z
-x,-y,-z
1/2+x,y,1/2-z
1/2-x,1/2+y,1/2+z
x,1/2-y,z
loop_
_atom_site_type_symbol
_atom_site_label
_atom_site_fract_x
_atom_site_fract_y
_atom_site_fract_z
Si Si1 0.957247 0.625263 0.969754
Si Si2 0.454101 0.636718 0.087385
Si Si3 0.085649 0.971806 0.346122
Si Si4 0.912115 0.984019 0.864786
Si Si5 0.074595 0.250000 0.689712
Si Si6 0.050784 0.812869 0.796403
O O1 0.973250 0.577132 0.892371
O O2 0.023586 0.678678 0.909182
O O3 0.671875 0.630876 0.008187
O O4 0.173455 0.621435 0.050118
O O5 0.523070 0.592056 0.168652
O O6 0.463015 0.696886 0.127130
O O7 0.857917 0.997764 0.409332
O O8 0.125109 0.004275 0.247996
O O9 0.353324 0.978678 0.403670
O O10 0.359952 0.250000 0.729600
O O11 0.310440 0.839944 0.757773
O O12 0.061652 0.750000 0.772915
#
# Coordination Sequence:
#
# PCOD8254780 Si02
#       6
#     8   8   8   8   4   8
#     4  12  26  43  73 108 147 180 236 300 373 411
#     4  12  28  46  74 110 142 182 240 314 356 412
#     4  10  23  42  68  97 144 185 237 284 351 429
#     4  10  23  40  70  98 136 192 224 284 354 439
#     4  12  30  52  84 106 142 198 254 284 368 444
#     4  10  23  41  67  96 136 189 235 279 346 429
#
# _framework density 24.035540000000001
#
# number of rings (size 3 to 8) (size 9 to 14) (size 15 to 20)
#    0.000    1.091    0.000    4.364   12.727    4.364 
#    0.000    0.000    0.000    0.000    0.000    0.000 
#    0.000    0.000    0.000    0.000    0.000    0.000 
#
# Total GULP energy -545367.928759 kJ/mol
# GULP energy per Si atom -12394.725654 kJ/mol
# Density = 2.398083 g / cm^3
# Si number density = 24.035540 Si / 1000 Ang^3
#
#
#
# Elastic Constant Matrix: (Units=GPa)
#
#
# Indices 1 2 3 4 5 6 
#
# 1 190.0223 32.9840 10.2666 0.0000 0.0000 0.0000
# 2 32.9840 121.1480 30.6665 0.0000 0.0000 0.0000
# 3 10.2666 30.6665 55.0315 0.0000 0.0000 0.0000
# 4 0.0000 0.0000 0.0000 36.0721 0.0000 0.0000
# 5 0.0000 0.0000 0.0000 0.0000 12.3768 0.0000
# 6 0.0000 0.0000 0.0000 0.0000 0.0000 28.1675
#
#
#
# Elastic Compliance Matrix: (Units=1/GPa)
#
#
# Indices 1 2 3 4 5 6 
#
# 1 0.005526 -0.001448 -0.000224 0.000000 0.000000 0.000000
# 2 -0.001448 0.009989 -0.005296 0.000000 0.000000 0.000000
# 3 -0.000224 -0.005296 0.021165 0.000000 0.000000 0.000000
# 4 0.000000 0.000000 0.000000 0.027722 0.000000 0.000000
# 5 0.000000 0.000000 0.000000 0.000000 0.080797 0.000000
# 6 0.000000 0.000000 0.000000 0.000000 0.000000 0.035502
#
#
# Mechanical properties :
#
#
# Convention : Reuss Voigt Hill
#
# Bulk Modulus (GPa) = 43.96925 57.11513 50.54219
# Shear Modulus (GPa) = 24.72573 34.80891 29.76732
#
# Velocity S-wave (km/s) = 3.21084 3.80969 3.52301
# Velocity P-wave (km/s) = 5.66384 6.57008 6.13372
#
# Compressibility (1/GPa) = 0.02274317
#
# Stress axis : x y z
#
# Youngs Moduli (GPa) = 180.96425 100.10763 47.24847
#
# Poissons Ratio (x) = 0.14493 0.01059
# Poissons Ratio (y) = 0.26199 0.25025
# Poissons Ratio (z) = 0.04056 0.53022
#
# Static dielectric constant tensor:
#      x y z
#    x 5.582490 0.000000 0.000000 
#    y 0.000000 4.280450 0.000000 
#    z 0.000000 0.000000 3.932000 
# 
# 
# High freq. dielectric constant tensor:
#      x y z
#    x 1.996860 0.000000 0.000000 
#    y 0.000000 1.950640 0.000000 
#    z 0.000000 0.000000 1.932540 
# 
# From -- ./inp_files/16213.got.cif
#   From: 2010.03.12/outbox.cif.g09.slc.cpg/sg62_9_cif.got.tgz:16213.got - 2010.04.10 19:12:36.
