data_PCOD8254958
_publ_section_title
;
Structure prediction by ZEFSAII (Michael W. Deem and Ramdas Pophale) SiO2 
 PCOD8254958
Probable space group: P N M A
;
_chemical_formula_sum "Si O2"
_cell_formula_units_Z 40
_cell_length_a 8.287902
_cell_length_b 19.002017
_cell_length_c 11.947250
_cell_angle_alpha 90.000000
_cell_angle_beta 90.000000
_cell_angle_gamma 90.000000
_cell_volume 1881.534825
_symmetry_space_group_name_H-M "P N M A"
_symmetry_group_IT_number 62
_symmetry_cell_setting 'orthorhombic'
loop_
_space_group_symop_operation_xyz
x,y,z
1/2-x,-y,1/2+z
1/2+x,1/2-y,1/2-z
-x,1/2+y,-z
-x,-y,-z
1/2+x,y,1/2-z
1/2-x,1/2+y,1/2+z
x,1/2-y,z
loop_
_atom_site_type_symbol
_atom_site_label
_atom_site_fract_x
_atom_site_fract_y
_atom_site_fract_z
Si Si1 0.317799 0.430167 0.913953
Si Si2 0.135481 0.452011 0.704120
Si Si3 0.603582 0.612479 0.852020
Si Si4 0.748247 0.830244 0.639939
Si Si5 0.152193 0.948307 0.006824
O O1 0.166652 0.419757 0.828412
O O2 0.484990 0.412743 0.852225
O O3 0.302008 0.385379 0.028372
O O4 0.309313 0.512230 0.952206
O O5 0.102876 0.535836 0.707737
O O6 0.300670 0.435164 0.636113
O O7 0.426853 0.640950 0.874817
O O8 0.696201 0.664937 0.769284
O O9 0.737601 0.750000 0.600136
O O10 0.627305 0.875538 0.560271
O O11 0.000000 0.000000 0.000000
#
# Coordination Sequence:
#
# PCOD8254958 Si02
#       5
#     8   8   8   8   8
#     4  11  21  37  64  94 132 165 212 281 329 380
#     4  11  19  37  62  95 131 163 214 274 334 371
#     4  11  22  41  59  96 134 170 218 264 331 395
#     4  12  25  43  65  93 136 180 218 270 342 410
#     4  11  22  37  63  98 133 172 220 281 327 395
#
# _framework density 21.259240999999999
#
# number of rings (size 3 to 8) (size 9 to 14) (size 15 to 20)
#    0.000    0.800    6.000    3.000    5.600    0.000 
#    0.000    0.000    0.000    2.400    0.000    0.000 
#    0.000    0.000    0.000    0.000    0.000    0.000 
#
# Total GULP energy -495825.132319 kJ/mol
# GULP energy per Si atom -12395.628308 kJ/mol
# Density = 2.121085 g / cm^3
# Si number density = 21.259241 Si / 1000 Ang^3
#
#
#
# Elastic Constant Matrix: (Units=GPa)
#
#
# Indices 1 2 3 4 5 6 
#
# 1 73.4220 42.7930 24.4121 0.0000 0.0000 0.0000
# 2 42.7930 109.3443 54.7666 0.0000 0.0000 0.0000
# 3 24.4121 54.7666 109.2513 0.0000 0.0000 0.0000
# 4 0.0000 0.0000 0.0000 25.3602 0.0000 0.0000
# 5 0.0000 0.0000 0.0000 0.0000 39.3328 0.0000
# 6 0.0000 0.0000 0.0000 0.0000 0.0000 15.1930
#
#
#
# Elastic Compliance Matrix: (Units=1/GPa)
#
#
# Indices 1 2 3 4 5 6 
#
# 1 0.017678 -0.006596 -0.000644 0.000000 0.000000 0.000000
# 2 -0.006596 0.014673 -0.005881 0.000000 0.000000 0.000000
# 3 -0.000644 -0.005881 0.012245 0.000000 0.000000 0.000000
# 4 0.000000 0.000000 0.000000 0.039432 0.000000 0.000000
# 5 0.000000 0.000000 0.000000 0.000000 0.025424 0.000000
# 6 0.000000 0.000000 0.000000 0.000000 0.000000 0.065820
#
#
# Mechanical properties :
#
#
# Convention : Reuss Voigt Hill
#
# Bulk Modulus (GPa) = 54.48409 59.55125 57.01767
# Shear Modulus (GPa) = 24.08098 27.31359 25.69729
#
# Velocity S-wave (km/s) = 3.36926 3.58828 3.48049
# Velocity P-wave (km/s) = 6.38905 6.72610 6.55974
#
# Compressibility (1/GPa) = 0.01835398
#
# Stress axis : x y z
#
# Youngs Moduli (GPa) = 56.56611 68.15378 81.66418
#
# Poissons Ratio (x) = 0.44956 0.05256
# Poissons Ratio (y) = 0.37313 0.48029
# Poissons Ratio (z) = 0.03640 0.40084
#
# Static dielectric constant tensor:
#      x y z
#    x 3.833220 0.000000 0.000000 
#    y 0.000000 3.369660 0.000000 
#    z 0.000000 0.000000 4.291850 
# 
# 
# High freq. dielectric constant tensor:
#      x y z
#    x 1.841250 0.000000 0.000000 
#    y 0.000000 1.761410 0.000000 
#    z 0.000000 0.000000 1.856530 
# 
# From -- ./inp_files/11051.got.cif
#   From: 2010.03.12/outbox.cif.g09.slc.cpg/sg62_6_cif.got.tgz:11051.got - 2010.04.10 19:12:36.
