data_PCOD8254907
_publ_section_title
;
Structure prediction by ZEFSAII (Michael W. Deem and Ramdas Pophale) SiO2 
 PCOD8254907
Probable space group: P N M A
;
_chemical_formula_sum "Si O2"
_cell_formula_units_Z 48
_cell_length_a 28.039900
_cell_length_b 8.741704
_cell_length_c 9.429238
_cell_angle_alpha 90.000000
_cell_angle_beta 90.000000
_cell_angle_gamma 90.000000
_cell_volume 2311.261873
_symmetry_space_group_name_H-M "P N M A"
_symmetry_group_IT_number 62
_symmetry_cell_setting 'orthorhombic'
loop_
_space_group_symop_operation_xyz
x,y,z
1/2-x,-y,1/2+z
1/2+x,1/2-y,1/2-z
-x,1/2+y,-z
-x,-y,-z
1/2+x,y,1/2-z
1/2-x,1/2+y,1/2+z
x,1/2-y,z
loop_
_atom_site_type_symbol
_atom_site_label
_atom_site_fract_x
_atom_site_fract_y
_atom_site_fract_z
Si Si1 0.121166 0.069564 0.298722
Si Si2 0.867514 0.073672 0.992678
Si Si3 0.722027 0.926551 0.694914
Si Si4 0.803489 0.429970 0.512935
Si Si5 0.012424 0.070015 0.352400
Si Si6 0.461709 0.570333 0.397292
O O1 0.127716 0.250000 0.283032
O O2 0.065563 0.023085 0.303780
O O3 0.145539 0.986116 0.164284
O O4 0.147298 0.012430 0.441650
O O5 0.883458 0.250000 0.985209
O O6 0.823462 0.050619 0.096311
O O7 0.909077 0.969603 0.054014
O O8 0.738491 0.750000 0.697972
O O9 0.763771 0.027775 0.628763
O O10 0.710892 0.984936 0.854622
O O11 0.812313 0.250000 0.513314
O O12 0.006920 0.250000 0.355629
O O13 0.000000 0.000000 0.500000
O O14 0.971464 0.999351 0.255387
O O15 0.500000 0.500000 0.500000
O O16 0.468049 0.750000 0.395489
#
# Coordination Sequence:
#
# PCOD8254907 Si02
#       6
#     8   8   8   8   8   8
#     4  11  24  42  64  93 128 168 212 263 319 380
#     4  11  23  41  67  96 128 169 214 264 320 380
#     4  10  24  44  65  95 128 162 207 259 314 379
#     4  11  24  42  66  94 126 165 207 259 318 376
#     4  11  25  43  64  93 130 172 217 270 324 380
#     4  12  24  41  65  95 130 172 219 266 317 379
#
# _framework density 20.767878
#
# number of rings (size 3 to 8) (size 9 to 14) (size 15 to 20)
#    0.000    1.000    1.667    4.500    2.333    7.333 
#    0.000    0.000    0.000    0.000    0.000    0.000 
#    0.000    0.000    0.000    0.000    0.000    0.000 
#
# Total GULP energy -595441.428446 kJ/mol
# GULP energy per Si atom -12405.029759 kJ/mol
# Density = 2.072061 g / cm^3
# Si number density = 20.767878 Si / 1000 Ang^3
#
#
#
# Elastic Constant Matrix: (Units=GPa)
#
#
# Indices 1 2 3 4 5 6 
#
# 1 62.0434 34.3287 21.9466 0.0000 0.0000 0.0000
# 2 34.3287 87.6489 45.0103 0.0000 0.0000 0.0000
# 3 21.9466 45.0103 136.8655 0.0000 0.0000 0.0000
# 4 0.0000 0.0000 0.0000 38.2681 0.0000 0.0000
# 5 0.0000 0.0000 0.0000 0.0000 36.6456 0.0000
# 6 0.0000 0.0000 0.0000 0.0000 0.0000 35.8037
#
#
#
# Elastic Compliance Matrix: (Units=1/GPa)
#
#
# Indices 1 2 3 4 5 6 
#
# 1 0.020647 -0.007684 -0.000784 0.000000 0.000000 0.000000
# 2 -0.007684 0.016587 -0.004223 0.000000 0.000000 0.000000
# 3 -0.000784 -0.004223 0.008821 0.000000 0.000000 0.000000
# 4 0.000000 0.000000 0.000000 0.026131 0.000000 0.000000
# 5 0.000000 0.000000 0.000000 0.000000 0.027288 0.000000
# 6 0.000000 0.000000 0.000000 0.000000 0.000000 0.027930
#
#
# Mechanical properties :
#
#
# Convention : Reuss Voigt Hill
#
# Bulk Modulus (GPa) = 48.37094 54.34765 51.35930
# Shear Modulus (GPa) = 31.31327 34.49497 32.90412
#
# Velocity S-wave (km/s) = 3.88722 4.07993 3.98474
# Velocity P-wave (km/s) = 6.59463 6.95847 6.77899
#
# Compressibility (1/GPa) = 0.02067357
#
# Stress axis : x y z
#
# Youngs Moduli (GPa) = 48.43426 60.28739 113.36781
#
# Poissons Ratio (x) = 0.46325 0.08885
# Poissons Ratio (y) = 0.37217 0.47873
# Poissons Ratio (z) = 0.03796 0.25458
#
# Static dielectric constant tensor:
#      x y z
#    x 3.420860 0.000000 0.000000 
#    y 0.000000 3.654250 0.000000 
#    z 0.000000 0.000000 4.135400 
# 
# 
# High freq. dielectric constant tensor:
#      x y z
#    x 1.819210 0.000000 0.000000 
#    y 0.000000 1.821480 0.000000 
#    z 0.000000 0.000000 1.830380 
# 
# From -- ./inp_files/10278.got.cif
#   From: 2010.03.12/outbox.cif.g09.slc.cpg/sg62_6_cif.got.tgz:10278.got - 2010.04.10 19:12:36.
