data_PCOD8254620
_publ_section_title
;
Structure prediction by ZEFSAII (Michael W. Deem and Ramdas Pophale) SiO2 
 PCOD8254620
Probable space group: P N M A
;
_chemical_formula_sum "Si O2"
_cell_formula_units_Z 48
_cell_length_a 14.971867
_cell_length_b 16.347842
_cell_length_c 9.239408
_cell_angle_alpha 90.000000
_cell_angle_beta 90.000000
_cell_angle_gamma 90.000000
_cell_volume 2261.416401
_symmetry_space_group_name_H-M "P N M A"
_symmetry_group_IT_number 62
_symmetry_cell_setting 'orthorhombic'
loop_
_space_group_symop_operation_xyz
x,y,z
1/2-x,-y,1/2+z
1/2+x,1/2-y,1/2-z
-x,1/2+y,-z
-x,-y,-z
1/2+x,y,1/2-z
1/2-x,1/2+y,1/2+z
x,1/2-y,z
loop_
_atom_site_type_symbol
_atom_site_label
_atom_site_fract_x
_atom_site_fract_y
_atom_site_fract_z
Si Si1 0.772444 0.347534 0.067845
Si Si2 0.603228 0.412097 0.911967
Si Si3 0.754652 0.158069 0.387133
Si Si4 0.536173 0.584969 0.564912
Si Si5 0.940598 0.094674 0.399827
Si Si6 0.611618 0.157253 0.603441
O O1 0.790782 0.250000 0.069140
O O2 0.741600 0.379835 0.226739
O O3 0.861468 0.396427 0.021505
O O4 0.695750 0.370275 0.955745
O O5 0.600807 0.507876 0.949363
O O6 0.593422 0.399800 0.741042
O O7 0.519972 0.372467 0.997865
O O8 0.718793 0.250000 0.383346
O O9 0.859846 0.157752 0.422752
O O10 0.693881 0.116309 0.511655
O O11 0.500000 0.500000 0.500000
O O12 0.523092 0.589058 0.737085
O O13 0.476002 0.656614 0.496858
O O14 0.631667 0.250000 0.654237
#
# Coordination Sequence:
#
# PCOD8254620 Si02
#       6
#     8   8   8   8   8   8
#     4  10  22  41  63  89 122 164 209 257 314 376
#     4  11  23  39  60  92 128 161 205 258 311 376
#     4   9  21  39  62  88 118 160 210 256 306 372
#     4  11  22  41  63  93 123 165 210 258 310 371
#     4  10  23  41  62  92 124 165 208 255 314 375
#     4  11  23  40  62  93 127 163 206 259 317 373
#
# _framework density 21.225635
#
# number of rings (size 3 to 8) (size 9 to 14) (size 15 to 20)
#    0.000    1.667    1.667    2.000    2.333    3.333 
#    0.000    1.667    0.000    0.000    0.000    0.000 
#    0.000    0.000    0.000    0.000    0.000    0.000 
#
# Total GULP energy -595149.702068 kJ/mol
# GULP energy per Si atom -12398.952126 kJ/mol
# Density = 2.117732 g / cm^3
# Si number density = 21.225635 Si / 1000 Ang^3
#
#
#
# Elastic Constant Matrix: (Units=GPa)
#
#
# Indices 1 2 3 4 5 6 
#
# 1 142.7974 26.4024 81.2520 0.0000 0.0000 0.0000
# 2 26.4024 55.9891 14.7861 0.0000 0.0000 0.0000
# 3 81.2520 14.7861 127.5081 0.0000 0.0000 0.0000
# 4 0.0000 0.0000 0.0000 24.5089 0.0000 0.0000
# 5 0.0000 0.0000 0.0000 0.0000 34.7965 0.0000
# 6 0.0000 0.0000 0.0000 0.0000 0.0000 36.6309
#
#
#
# Elastic Compliance Matrix: (Units=1/GPa)
#
#
# Indices 1 2 3 4 5 6 
#
# 1 0.011667 -0.003650 -0.007012 0.000000 0.000000 0.000000
# 2 -0.003650 0.019567 0.000057 0.000000 0.000000 0.000000
# 3 -0.007012 0.000057 0.012304 0.000000 0.000000 0.000000
# 4 0.000000 0.000000 0.000000 0.040802 0.000000 0.000000
# 5 0.000000 0.000000 0.000000 0.000000 0.028739 0.000000
# 6 0.000000 0.000000 0.000000 0.000000 0.000000 0.027299
#
#
# Mechanical properties :
#
#
# Convention : Reuss Voigt Hill
#
# Bulk Modulus (GPa) = 44.78525 63.46395 54.12460
# Shear Modulus (GPa) = 29.58052 32.77753 31.17902
#
# Velocity S-wave (km/s) = 3.73718 3.93395 3.83682
# Velocity P-wave (km/s) = 6.30614 7.11331 6.72185
#
# Compressibility (1/GPa) = 0.02232878
#
# Stress axis : x y z
#
# Youngs Moduli (GPa) = 85.70867 51.10677 81.27442
#
# Poissons Ratio (x) = 0.18655 0.56986
# Poissons Ratio (y) = 0.31286 -0.00464
# Poissons Ratio (z) = 0.60095 -0.00292
#
# Static dielectric constant tensor:
#      x y z
#    x 3.920880 0.000000 0.000000 
#    y 0.000000 3.617070 0.000000 
#    z 0.000000 0.000000 3.888650 
# 
# 
# High freq. dielectric constant tensor:
#      x y z
#    x 1.839500 0.000000 0.000000 
#    y 0.000000 1.821010 0.000000 
#    z 0.000000 0.000000 1.835340 
# 
# From -- ./inp_files/6427.got.cif
#   From: 2010.03.12/outbox.cif.g09.slc.cpg/sg62_4_cif.got.tgz:6427.got - 2010.04.10 19:12:36.
