data_PCOD8254518
_publ_section_title
;
Structure prediction by ZEFSAII (Michael W. Deem and Ramdas Pophale) SiO2 
 PCOD8254518
Probable space group: P N M A
;
_chemical_formula_sum "Si O2"
_cell_formula_units_Z 56
_cell_length_a 14.527566
_cell_length_b 8.566374
_cell_length_c 21.479575
_cell_angle_alpha 90.000000
_cell_angle_beta 90.000000
_cell_angle_gamma 90.000000
_cell_volume 2673.102257
_symmetry_space_group_name_H-M "P N M A"
_symmetry_group_IT_number 62
_symmetry_cell_setting 'orthorhombic'
loop_
_space_group_symop_operation_xyz
x,y,z
1/2-x,-y,1/2+z
1/2+x,1/2-y,1/2-z
-x,1/2+y,-z
-x,-y,-z
1/2+x,y,1/2-z
1/2-x,1/2+y,1/2+z
x,1/2-y,z
loop_
_atom_site_type_symbol
_atom_site_label
_atom_site_fract_x
_atom_site_fract_y
_atom_site_fract_z
Si Si1 0.587166 0.564286 0.963996
Si Si2 0.803314 0.567778 0.221739
Si Si3 0.411069 0.932908 0.614981
Si Si4 0.896200 0.567579 0.093706
Si Si5 0.387798 0.565537 0.757315
Si Si6 0.280706 0.432756 0.516336
Si Si7 0.429071 0.434067 0.176926
O O1 0.590406 0.750000 0.968209
O O2 0.581221 0.503485 0.893015
O O3 0.500000 0.500000 0.000000
O O4 0.677590 0.492461 0.995719
O O5 0.808540 0.750000 0.232721
O O6 0.863326 0.517222 0.162288
O O7 0.698969 0.515367 0.210269
O O8 0.841231 0.485301 0.283339
O O9 0.432444 0.750000 0.610374
O O10 0.393742 0.985188 0.685562
O O11 0.496536 0.027807 0.586575
O O12 0.320985 0.975024 0.575581
O O13 0.879892 0.750000 0.080474
O O14 0.839495 0.466948 0.044808
O O15 0.377833 0.750000 0.764484
O O16 0.477441 0.499321 0.792631
O O17 0.281443 0.250000 0.530501
O O18 0.433044 0.250000 0.177313
#
# Coordination Sequence:
#
# PCOD8254518 Si02
#       7
#     8   8   8   8   8   8   8
#     4  11  25  45  68  96 130 169 217 267 316 376
#     4  11  24  39  62  96 130 165 207 265 321 371
#     4  11  22  41  67  96 128 167 210 261 318 381
#     4  11  24  42  63  94 130 166 211 264 321 381
#     4  10  22  39  64  93 125 166 208 252 308 380
#     4  12  26  43  65  92 127 172 215 263 318 378
#     4  10  22  43  67  93 125 167 211 255 310 379
#
# _framework density 20.949442999999999
#
# number of rings (size 3 to 8) (size 9 to 14) (size 15 to 20)
#    0.000    1.143    1.429    4.286    2.000    8.000 
#    0.000    0.000    0.000    0.000    0.000    0.000 
#    0.000    0.000    0.000    0.000    0.000    0.000 
#
# Total GULP energy -694868.354834 kJ/mol
# GULP energy per Si atom -12408.363479 kJ/mol
# Density = 2.090176 g / cm^3
# Si number density = 20.949443 Si / 1000 Ang^3
#
#
#
# Elastic Constant Matrix: (Units=GPa)
#
#
# Indices 1 2 3 4 5 6 
#
# 1 116.9764 12.2588 14.8400 0.0000 0.0000 0.0000
# 2 12.2588 39.3679 26.8374 0.0000 0.0000 0.0000
# 3 14.8400 26.8374 74.4087 0.0000 0.0000 0.0000
# 4 0.0000 0.0000 0.0000 25.4131 0.0000 0.0000
# 5 0.0000 0.0000 0.0000 0.0000 34.7620 0.0000
# 6 0.0000 0.0000 0.0000 0.0000 0.0000 39.5041
#
#
#
# Elastic Compliance Matrix: (Units=1/GPa)
#
#
# Indices 1 2 3 4 5 6 
#
# 1 0.008896 -0.002069 -0.001028 0.000000 0.000000 0.000000
# 2 -0.002069 0.034165 -0.011910 0.000000 0.000000 0.000000
# 3 -0.001028 -0.011910 0.017940 0.000000 0.000000 0.000000
# 4 0.000000 0.000000 0.000000 0.039350 0.000000 0.000000
# 5 0.000000 0.000000 0.000000 0.000000 0.028767 0.000000
# 6 0.000000 0.000000 0.000000 0.000000 0.000000 0.025314
#
#
# Mechanical properties :
#
#
# Convention : Reuss Voigt Hill
#
# Bulk Modulus (GPa) = 32.27194 37.62504 34.94849
# Shear Modulus (GPa) = 25.67078 31.72363 28.69720
#
# Velocity S-wave (km/s) = 3.50432 3.89562 3.70514
# Velocity P-wave (km/s) = 5.64020 6.18331 5.91799
#
# Compressibility (1/GPa) = 0.03098667
#
# Stress axis : x y z
#
# Youngs Moduli (GPa) = 112.41015 29.26993 55.74195
#
# Poissons Ratio (x) = 0.06057 0.05729
# Poissons Ratio (y) = 0.23263 0.66387
# Poissons Ratio (z) = 0.11554 0.34860
#
# Static dielectric constant tensor:
#      x y z
#    x 3.912810 0.000000 0.000000 
#    y 0.000000 3.662900 0.000000 
#    z 0.000000 0.000000 3.932340 
# 
# 
# High freq. dielectric constant tensor:
#      x y z
#    x 1.835930 0.000000 0.000000 
#    y 0.000000 1.818760 0.000000 
#    z 0.000000 0.000000 1.828240 
# 
# From -- ./inp_files/27105.got.cif
#   From: 2010.03.12/outbox.cif.g09.slc.cpg/sg62_14_cif.got.tgz:27105.got - 2010.04.10 19:12:36.
