data_PCOD8254951
_publ_section_title
;
Structure prediction by ZEFSAII (Michael W. Deem and Ramdas Pophale) SiO2 
 PCOD8254951
Probable space group: P N M A
;
_chemical_formula_sum "Si O2"
_cell_formula_units_Z 64
_cell_length_a 23.172696
_cell_length_b 8.516836
_cell_length_c 19.139984
_cell_angle_alpha 90.000000
_cell_angle_beta 90.000000
_cell_angle_gamma 90.000000
_cell_volume 3777.429948
_symmetry_space_group_name_H-M "P N M A"
_symmetry_group_IT_number 62
_symmetry_cell_setting 'orthorhombic'
loop_
_space_group_symop_operation_xyz
x,y,z
1/2-x,-y,1/2+z
1/2+x,1/2-y,1/2-z
-x,1/2+y,-z
-x,-y,-z
1/2+x,y,1/2-z
1/2-x,1/2+y,1/2+z
x,1/2-y,z
loop_
_atom_site_type_symbol
_atom_site_label
_atom_site_fract_x
_atom_site_fract_y
_atom_site_fract_z
Si Si1 0.740713 0.932203 0.004415
Si Si2 0.730809 0.064812 0.655205
Si Si3 0.723049 0.930073 0.367535
Si Si4 0.340388 0.436311 0.765549
Si Si5 0.056022 0.566779 0.356525
Si Si6 0.115783 0.068921 0.488954
Si Si7 0.066181 0.930333 0.626063
Si Si8 0.339694 0.930715 0.218325
O O1 0.723549 0.750000 0.007185
O O2 0.776691 0.980861 0.073945
O O3 0.682772 0.032884 0.999046
O O4 0.780845 0.967100 0.937772
O O5 0.733300 0.250000 0.666268
O O6 0.791538 0.993144 0.682560
O O7 0.677816 0.006214 0.703981
O O8 0.712643 0.750000 0.388118
O O9 0.673223 0.990361 0.314016
O O10 0.785164 0.952014 0.332258
O O11 0.336188 0.250000 0.768902
O O12 0.403058 0.490575 0.792436
O O13 0.040814 0.750000 0.350561
O O14 0.089255 0.539667 0.429051
O O15 0.998807 0.464493 0.350487
O O16 0.107792 0.250000 0.468354
O O17 0.081791 0.038978 0.560613
O O18 0.072395 0.750000 0.603759
O O19 0.107748 0.964462 0.691393
O O20 0.359826 0.750000 0.219746
#
# Coordination Sequence:
#
# PCOD8254951 Si02
#       8
#     8   8   8   8   8   8   8   8
#     4  11  19  30  50  76 102 132 164 198 245 292
#     4   8  15  29  50  73  97 126 160 199 242 292
#     4   9  17  30  50  73  99 128 161 198 241 290
#     4   8  15  30  51  72  94 127 163 199 240 289
#     4  11  21  36  55  72  94 130 172 206 241 288
#     4  12  23  35  48  69 100 135 171 204 237 281
#     4  12  24  36  49  70 100 132 167 206 245 284
#     4   9  17  32  52  71  94 128 167 201 238 286
#
# _framework density 16.942736
#
# number of rings (size 3 to 8) (size 9 to 14) (size 15 to 20)
#    0.000    2.000    2.500    4.875    0.000    0.000 
#    0.000    2.500    0.000    0.000    0.000    0.875 
#    0.000    0.000    0.000    0.000    0.000    0.000 
#
# Total GULP energy -793456.217398 kJ/mol
# GULP energy per Si atom -12397.753397 kJ/mol
# Density = 1.690417 g / cm^3
# Si number density = 16.942736 Si / 1000 Ang^3
#
#
#
# Elastic Constant Matrix: (Units=GPa)
#
#
# Indices 1 2 3 4 5 6 
#
# 1 63.1506 11.7811 44.9302 0.0000 0.0000 0.0000
# 2 11.7811 46.6260 17.7120 0.0000 0.0000 0.0000
# 3 44.9302 17.7120 116.9093 0.0000 0.0000 0.0000
# 4 0.0000 0.0000 0.0000 22.9843 0.0000 0.0000
# 5 0.0000 0.0000 0.0000 0.0000 24.1920 0.0000
# 6 0.0000 0.0000 0.0000 0.0000 0.0000 19.7785
#
#
#
# Elastic Compliance Matrix: (Units=1/GPa)
#
#
# Indices 1 2 3 4 5 6 
#
# 1 0.022065 -0.002498 -0.008102 0.000000 0.000000 0.000000
# 2 -0.002498 0.023040 -0.002531 0.000000 0.000000 0.000000
# 3 -0.008102 -0.002531 0.012051 0.000000 0.000000 0.000000
# 4 0.000000 0.000000 0.000000 0.043508 0.000000 0.000000
# 5 0.000000 0.000000 0.000000 0.000000 0.041336 0.000000
# 6 0.000000 0.000000 0.000000 0.000000 0.000000 0.050560
#
#
# Mechanical properties :
#
#
# Convention : Reuss Voigt Hill
#
# Bulk Modulus (GPa) = 32.36707 41.72584 37.04645
# Shear Modulus (GPa) = 21.82281 23.54179 22.68230
#
# Velocity S-wave (km/s) = 3.59281 3.73163 3.66288
# Velocity P-wave (km/s) = 6.02962 6.57631 6.30889
#
# Compressibility (1/GPa) = 0.03089560
#
# Stress axis : x y z
#
# Youngs Moduli (GPa) = 45.32006 43.40340 82.98311
#
# Poissons Ratio (x) = 0.10841 0.67230
# Poissons Ratio (y) = 0.11320 0.21000
# Poissons Ratio (z) = 0.36717 0.10984
#
# Static dielectric constant tensor:
#      x y z
#    x 3.096780 0.000000 0.000000 
#    y 0.000000 2.949220 0.000000 
#    z 0.000000 0.000000 3.400450 
# 
# 
# High freq. dielectric constant tensor:
#      x y z
#    x 1.623390 0.000000 0.000000 
#    y 0.000000 1.639030 0.000000 
#    z 0.000000 0.000000 1.651900 
# 
# From -- ./inp_files/27871.got.cif
#   From: 2010.03.12/outbox.cif.g09.slc.cpg/sg62_14_cif.got.tgz:27871.got - 2010.04.10 19:12:36.
