data_PCOD8254322
_publ_section_title
;
Structure prediction by ZEFSAII (Michael W. Deem and Ramdas Pophale) SiO2 
 PCOD8254322
Probable space group: P N M A
;
_chemical_formula_sum "Si O2"
_cell_formula_units_Z 48
_cell_length_a 27.732911
_cell_length_b 8.821832
_cell_length_c 9.693597
_cell_angle_alpha 90.000000
_cell_angle_beta 90.000000
_cell_angle_gamma 90.000000
_cell_volume 2371.587766
_symmetry_space_group_name_H-M "P N M A"
_symmetry_group_IT_number 62
_symmetry_cell_setting 'orthorhombic'
loop_
_space_group_symop_operation_xyz
x,y,z
1/2-x,-y,1/2+z
1/2+x,1/2-y,1/2-z
-x,1/2+y,-z
-x,-y,-z
1/2+x,y,1/2-z
1/2-x,1/2+y,1/2+z
x,1/2-y,z
loop_
_atom_site_type_symbol
_atom_site_label
_atom_site_fract_x
_atom_site_fract_y
_atom_site_fract_z
Si Si1 0.794001 0.072966 0.844437
Si Si2 0.890367 0.430402 0.202586
Si Si3 0.292582 0.928339 0.356924
Si Si4 0.550615 0.072404 0.467957
Si Si5 0.449939 0.075993 0.039457
Si Si6 0.398195 0.423843 0.763665
O O1 0.792807 0.250000 0.879998
O O2 0.753876 0.027928 0.732899
O O3 0.844101 0.026105 0.772309
O O4 0.785862 0.984676 0.986732
O O5 0.888993 0.250000 0.200935
O O6 0.836674 0.492362 0.223004
O O7 0.926592 0.491882 0.320927
O O8 0.907974 0.493723 0.057107
O O9 0.301645 0.750000 0.361183
O O10 0.548660 0.250000 0.495617
O O11 0.500000 0.000000 0.500000
O O12 0.563953 0.035079 0.310880
O O13 0.462595 0.250000 0.062839
O O14 0.408469 0.054393 0.925110
O O15 0.500000 0.000000 0.000000
O O16 0.407655 0.250000 0.718770
#
# Coordination Sequence:
#
# PCOD8254322 Si02
#       6
#     8   8   8   8   8   8
#     4  10  23  42  65  92 126 164 206 257 313 371
#     4  11  23  41  64  91 126 166 205 254 313 371
#     4  11  24  41  65  97 126 161 209 258 310 372
#     4  12  24  39  62  92 123 161 206 256 309 372
#     4  10  23  40  62  90 122 164 208 252 307 365
#     4  10  21  41  64  88 122 164 206 255 310 368
#
# _framework density 20.239605999999998
#
# number of rings (size 3 to 8) (size 9 to 14) (size 15 to 20)
#    0.000    1.333    1.667    3.500    2.333    6.000 
#    0.000    0.000    0.000    0.000    0.000    0.000 
#    0.000    0.000    0.000    0.000    0.000    0.000 
#
# Total GULP energy -595360.814826 kJ/mol
# GULP energy per Si atom -12403.350309 kJ/mol
# Density = 2.019354 g / cm^3
# Si number density = 20.239606 Si / 1000 Ang^3
#
#
#
# Elastic Constant Matrix: (Units=GPa)
#
#
# Indices 1 2 3 4 5 6 
#
# 1 115.4558 46.3925 30.2096 0.0000 0.0000 0.0000
# 2 46.3925 85.6504 33.8047 0.0000 0.0000 0.0000
# 3 30.2096 33.8047 89.6353 0.0000 0.0000 0.0000
# 4 0.0000 0.0000 0.0000 31.6730 0.0000 0.0000
# 5 0.0000 0.0000 0.0000 0.0000 42.3659 0.0000
# 6 0.0000 0.0000 0.0000 0.0000 0.0000 35.2485
#
#
#
# Elastic Compliance Matrix: (Units=1/GPa)
#
#
# Indices 1 2 3 4 5 6 
#
# 1 0.011303 -0.005427 -0.001763 0.000000 0.000000 0.000000
# 2 -0.005427 0.016322 -0.004327 0.000000 0.000000 0.000000
# 3 -0.001763 -0.004327 0.013382 0.000000 0.000000 0.000000
# 4 0.000000 0.000000 0.000000 0.031573 0.000000 0.000000
# 5 0.000000 0.000000 0.000000 0.000000 0.023604 0.000000
# 6 0.000000 0.000000 0.000000 0.000000 0.000000 0.028370
#
#
# Mechanical properties :
#
#
# Convention : Reuss Voigt Hill
#
# Bulk Modulus (GPa) = 55.63238 56.83945 56.23592
# Shear Modulus (GPa) = 32.55662 33.87980 33.21821
#
# Velocity S-wave (km/s) = 4.01504 4.09581 4.05563
# Velocity P-wave (km/s) = 7.00290 7.10717 7.05523
#
# Compressibility (1/GPa) = 0.01797514
#
# Stress axis : x y z
#
# Youngs Moduli (GPa) = 88.47139 61.26557 74.72569
#
# Poissons Ratio (x) = 0.33246 0.13174
# Poissons Ratio (y) = 0.48009 0.32333
# Poissons Ratio (z) = 0.15597 0.26509
#
# Static dielectric constant tensor:
#      x y z
#    x 3.803580 0.000000 0.000000 
#    y 0.000000 3.636310 0.000000 
#    z 0.000000 0.000000 3.561830 
# 
# 
# High freq. dielectric constant tensor:
#      x y z
#    x 1.804850 0.000000 0.000000 
#    y 0.000000 1.787000 0.000000 
#    z 0.000000 0.000000 1.800400 
# 
# From -- ./inp_files/10171.got.cif
#   From: 2010.03.12/outbox.cif.g09.slc.cpg/sg62_6_cif.got.tgz:10171.got - 2010.04.10 19:12:36.
