data_PCOD8254496
_publ_section_title
;
Structure prediction by ZEFSAII (Michael W. Deem and Ramdas Pophale) SiO2 
 PCOD8254496
Probable space group: P N M A
;
_chemical_formula_sum "Si O2"
_cell_formula_units_Z 40
_cell_length_a 25.703582
_cell_length_b 8.329479
_cell_length_c 8.833565
_cell_angle_alpha 90.000000
_cell_angle_beta 90.000000
_cell_angle_gamma 90.000000
_cell_volume 1891.243710
_symmetry_space_group_name_H-M "P N M A"
_symmetry_group_IT_number 62
_symmetry_cell_setting 'orthorhombic'
loop_
_space_group_symop_operation_xyz
x,y,z
1/2-x,-y,1/2+z
1/2+x,1/2-y,1/2-z
-x,1/2+y,-z
-x,-y,-z
1/2+x,y,1/2-z
1/2-x,1/2+y,1/2+z
x,1/2-y,z
loop_
_atom_site_type_symbol
_atom_site_label
_atom_site_fract_x
_atom_site_fract_y
_atom_site_fract_z
Si Si1 0.295556 0.060613 0.333868
Si Si2 0.193480 0.438295 0.168822
Si Si3 0.990130 0.936269 0.166377
Si Si4 0.896622 0.064506 0.351163
Si Si5 0.089272 0.436239 0.324151
O O1 0.293321 0.250000 0.359574
O O2 0.243048 0.990180 0.258430
O O3 0.342565 0.012195 0.224265
O O4 0.303958 0.977734 0.493543
O O5 0.194338 0.250000 0.191933
O O6 0.140469 0.506897 0.241280
O O7 0.975040 0.750000 0.162518
O O8 0.942497 0.037000 0.232332
O O9 0.040701 0.960081 0.269305
O O10 0.000000 0.000000 0.000000
O O11 0.895684 0.250000 0.400368
O O12 0.905030 0.953693 0.496478
O O13 0.079994 0.250000 0.283805
#
# Coordination Sequence:
#
# PCOD8254496 Si02
#       5
#     8   8   8   8   8
#     4  10  22  39  60  88 120 155 196 242 293 350
#     4  10  22  39  60  88 120 155 196 242 293 350
#     4  12  25  42  63  88 120 156 198 246 297 352
#     4  11  23  40  62  89 121 157 199 244 295 352
#     4  11  23  40  62  89 121 157 199 244 295 352
#
# _framework density 21.150103999999999
#
# number of rings (size 3 to 8) (size 9 to 14) (size 15 to 20)
#    0.000    1.200    0.000    6.000    0.000    7.200 
#    0.000    0.000    0.000    0.000    0.000    0.000 
#    0.000    0.000    0.000    0.000    0.000    0.000 
#
# Total GULP energy -496295.082768 kJ/mol
# GULP energy per Si atom -12407.377069 kJ/mol
# Density = 2.110197 g / cm^3
# Si number density = 21.150104 Si / 1000 Ang^3
#
#
#
# Elastic Constant Matrix: (Units=GPa)
#
#
# Indices 1 2 3 4 5 6 
#
# 1 101.7812 24.9760 -8.3172 0.0000 0.0000 0.0000
# 2 24.9760 33.7241 16.7742 0.0000 0.0000 0.0000
# 3 -8.3172 16.7742 70.8792 0.0000 0.0000 0.0000
# 4 0.0000 0.0000 0.0000 39.0697 0.0000 0.0000
# 5 0.0000 0.0000 0.0000 0.0000 40.3925 0.0000
# 6 0.0000 0.0000 0.0000 0.0000 0.0000 12.4693
#
#
#
# Elastic Compliance Matrix: (Units=1/GPa)
#
#
# Indices 1 2 3 4 5 6 
#
# 1 0.013088 -0.011852 0.004341 0.000000 0.000000 0.000000
# 2 -0.011852 0.044341 -0.011885 0.000000 0.000000 0.000000
# 3 0.004341 -0.011885 0.017430 0.000000 0.000000 0.000000
# 4 0.000000 0.000000 0.000000 0.025595 0.000000 0.000000
# 5 0.000000 0.000000 0.000000 0.000000 0.024757 0.000000
# 6 0.000000 0.000000 0.000000 0.000000 0.000000 0.080197
#
#
# Mechanical properties :
#
#
# Convention : Reuss Voigt Hill
#
# Bulk Modulus (GPa) = 27.72537 30.36118 29.04328
# Shear Modulus (GPa) = 19.51417 29.91638 24.71527
#
# Velocity S-wave (km/s) = 3.04081 3.76504 3.42214
# Velocity P-wave (km/s) = 5.04639 5.76948 5.42001
#
# Compressibility (1/GPa) = 0.03606804
#
# Stress axis : x y z
#
# Youngs Moduli (GPa) = 76.40544 22.55230 57.37078
#
# Poissons Ratio (x) = 0.26729 -0.24903
# Poissons Ratio (y) = 0.90556 0.68183
# Poissons Ratio (z) = -0.33165 0.26802
#
# Static dielectric constant tensor:
#      x y z
#    x 4.246820 0.000000 0.000000 
#    y 0.000000 3.822010 0.000000 
#    z 0.000000 0.000000 2.838510 
# 
# 
# High freq. dielectric constant tensor:
#      x y z
#    x 1.850040 0.000000 0.000000 
#    y 0.000000 1.821400 0.000000 
#    z 0.000000 0.000000 1.842380 
# 
# From -- ./inp_files/4358.got.cif
#   From: 2010.03.12/outbox.cif.g09.slc.cpg/sg62_3_cif.got.tgz:4358.got - 2010.04.10 19:12:36.
