data_PCOD8254507
_publ_section_title
;
Structure prediction by ZEFSAII (Michael W. Deem and Ramdas Pophale) SiO2 
 PCOD8254507
Probable space group: P N M A
;
_chemical_formula_sum "Si O2"
_cell_formula_units_Z 40
_cell_length_a 8.181992
_cell_length_b 23.841796
_cell_length_c 9.862928
_cell_angle_alpha 90.000000
_cell_angle_beta 90.000000
_cell_angle_gamma 90.000000
_cell_volume 1923.994742
_symmetry_space_group_name_H-M "P N M A"
_symmetry_group_IT_number 62
_symmetry_cell_setting 'orthorhombic'
loop_
_space_group_symop_operation_xyz
x,y,z
1/2-x,-y,1/2+z
1/2+x,1/2-y,1/2-z
-x,1/2+y,-z
-x,-y,-z
1/2+x,y,1/2-z
1/2-x,1/2+y,1/2+z
x,1/2-y,z
loop_
_atom_site_type_symbol
_atom_site_label
_atom_site_fract_x
_atom_site_fract_y
_atom_site_fract_z
Si Si1 0.432488 0.371474 0.371190
Si Si2 0.260421 0.913088 0.133661
Si Si3 0.363813 0.528964 0.586965
Si Si4 0.245338 0.814201 0.631845
Si Si5 0.135099 0.891819 0.414972
O O1 0.343438 0.387104 0.510881
O O2 0.541312 0.425144 0.319626
O O3 0.560999 0.320936 0.395540
O O4 0.302361 0.353206 0.259603
O O5 0.216603 0.879169 0.269371
O O6 0.449328 0.909521 0.100168
O O7 0.222901 0.978719 0.168821
O O8 0.500000 0.500000 0.500000
O O9 0.232225 0.559497 0.492326
O O10 0.201709 0.750000 0.662055
O O11 0.144362 0.834180 0.500375
#
# Coordination Sequence:
#
# PCOD8254507 Si02
#       5
#     8   8   8   8   8
#     4  10  22  39  62  90 120 155 203 249 303 375
#     4  11  22  40  61  91 126 161 200 250 308 373
#     4   9  20  36  58  89 124 159 194 240 301 365
#     4  11  23  42  63  88 119 159 207 262 313 362
#     4  11  23  39  62  90 124 162 207 253 304 369
#
# _framework density 20.790077
#
# number of rings (size 3 to 8) (size 9 to 14) (size 15 to 20)
#    0.000    1.600    0.000    6.000    0.000   11.200 
#    0.000    6.000    0.000    0.000    0.000    0.000 
#    0.000    0.000    0.000    0.000    0.000    0.000 
#
# Total GULP energy -495829.896416 kJ/mol
# GULP energy per Si atom -12395.747410 kJ/mol
# Density = 2.074276 g / cm^3
# Si number density = 20.790077 Si / 1000 Ang^3
#
#
#
# Elastic Constant Matrix: (Units=GPa)
#
#
# Indices 1 2 3 4 5 6 
#
# 1 104.2023 39.7562 17.6083 0.0000 0.0000 0.0000
# 2 39.7562 111.9885 51.8287 0.0000 0.0000 0.0000
# 3 17.6083 51.8287 113.7973 0.0000 0.0000 0.0000
# 4 0.0000 0.0000 0.0000 21.7135 0.0000 0.0000
# 5 0.0000 0.0000 0.0000 0.0000 32.8556 0.0000
# 6 0.0000 0.0000 0.0000 0.0000 0.0000 26.2782
#
#
#
# Elastic Compliance Matrix: (Units=1/GPa)
#
#
# Indices 1 2 3 4 5 6 
#
# 1 0.011101 -0.003986 0.000098 0.000000 0.000000 0.000000
# 2 -0.003986 0.012746 -0.005188 0.000000 0.000000 0.000000
# 3 0.000098 -0.005188 0.011135 0.000000 0.000000 0.000000
# 4 0.000000 0.000000 0.000000 0.046054 0.000000 0.000000
# 5 0.000000 0.000000 0.000000 0.000000 0.030436 0.000000
# 6 0.000000 0.000000 0.000000 0.000000 0.000000 0.038054
#
#
# Mechanical properties :
#
#
# Convention : Reuss Voigt Hill
#
# Bulk Modulus (GPa) = 59.42139 60.93050 60.17594
# Shear Modulus (GPa) = 28.85339 30.88911 29.87125
#
# Velocity S-wave (km/s) = 3.72942 3.85874 3.79463
# Velocity P-wave (km/s) = 6.86938 7.01600 6.94308
#
# Compressibility (1/GPa) = 0.01682896
#
# Stress axis : x y z
#
# Youngs Moduli (GPa) = 90.08183 78.45779 89.80375
#
# Poissons Ratio (x) = 0.31274 -0.00878
# Poissons Ratio (y) = 0.35908 0.46592
# Poissons Ratio (z) = -0.00881 0.40706
#
# Static dielectric constant tensor:
#      x y z
#    x 4.000440 0.000000 0.000000 
#    y 0.000000 3.420500 0.000000 
#    z 0.000000 0.000000 3.675490 
# 
# 
# High freq. dielectric constant tensor:
#      x y z
#    x 1.838000 0.000000 0.000000 
#    y 0.000000 1.799160 0.000000 
#    z 0.000000 0.000000 1.804140 
# 
# From -- ./inp_files/4301.got.cif
#   From: 2010.03.12/outbox.cif.g09.slc.cpg/sg62_3_cif.got.tgz:4301.got - 2010.04.10 19:12:36.
