data_PCOD8254389
_publ_section_title
;
Structure prediction by ZEFSAII (Michael W. Deem and Ramdas Pophale) SiO2 
 PCOD8254389
Probable space group: P N M A
;
_chemical_formula_sum "Si O2"
_cell_formula_units_Z 64
_cell_length_a 9.380685
_cell_length_b 27.710099
_cell_length_c 11.553880
_cell_angle_alpha 90.000000
_cell_angle_beta 90.000000
_cell_angle_gamma 90.000000
_cell_volume 3003.312217
_symmetry_space_group_name_H-M "P N M A"
_symmetry_group_IT_number 62
_symmetry_cell_setting 'orthorhombic'
loop_
_space_group_symop_operation_xyz
x,y,z
1/2-x,-y,1/2+z
1/2+x,1/2-y,1/2-z
-x,1/2+y,-z
-x,-y,-z
1/2+x,y,1/2-z
1/2-x,1/2+y,1/2+z
x,1/2-y,z
loop_
_atom_site_type_symbol
_atom_site_label
_atom_site_fract_x
_atom_site_fract_y
_atom_site_fract_z
Si Si1 0.429606 0.341771 0.837978
Si Si2 0.674506 0.352877 0.523624
Si Si3 0.818850 0.039778 0.888554
Si Si4 0.733859 0.301846 0.844700
Si Si5 0.662658 0.909471 0.632154
Si Si6 0.849464 0.565482 0.843885
Si Si7 0.079608 0.079416 0.771247
Si Si8 0.595953 0.804201 0.568866
O O1 0.330913 0.330405 0.949983
O O2 0.563773 0.306485 0.836127
O O3 0.328949 0.339961 0.724003
O O4 0.490447 0.396371 0.834474
O O5 0.699363 0.389999 0.420878
O O6 0.624419 0.378187 0.641347
O O7 0.559817 0.312091 0.489083
O O8 0.714161 0.053528 0.784197
O O9 0.981165 0.042726 0.842691
O O10 0.794698 0.982770 0.909980
O O11 0.796659 0.073811 0.001049
O O12 0.771515 0.250000 0.789778
O O13 0.776637 0.303945 0.977747
O O14 0.519288 0.936428 0.669694
O O15 0.786922 0.927582 0.715613
O O16 0.635765 0.851203 0.646501
O O17 0.593192 0.750000 0.629015
#
# Coordination Sequence:
#
# PCOD8254389 Si02
#       8
#     8   8   8   8   8   8   8   8
#     4  12  20  35  56  88 127 169 203 260 331 389
#     4  11  23  40  63  90 130 170 223 272 326 394
#     4  12  24  41  68  96 136 174 218 271 344 408
#     4  11  21  33  55  90 124 161 209 263 329 395
#     4  11  24  46  65  96 136 176 227 283 334 398
#     4  11  26  43  67  93 131 176 225 277 337 399
#     4  12  21  38  64  94 126 174 213 261 339 400
#     4  10  21  42  67  90 123 173 223 278 339 388
#
# _framework density 21.309805000000001
#
# number of rings (size 3 to 8) (size 9 to 14) (size 15 to 20)
#    0.000    0.750    6.250    2.250    1.750    4.000 
#    0.000    4.375    0.000    0.000    0.000    0.000 
#    0.000    0.000    0.000    0.000    0.000    0.000 
#
# Total GULP energy -793067.502097 kJ/mol
# GULP energy per Si atom -12391.679720 kJ/mol
# Density = 2.126130 g / cm^3
# Si number density = 21.309805 Si / 1000 Ang^3
#
#
#
# Elastic Constant Matrix: (Units=GPa)
#
#
# Indices 1 2 3 4 5 6 
#
# 1 107.0384 18.6000 30.2107 0.0000 0.0000 0.0000
# 2 18.6000 108.6394 21.6472 0.0000 0.0000 0.0000
# 3 30.2107 21.6472 65.6098 0.0000 0.0000 0.0000
# 4 0.0000 0.0000 0.0000 19.6766 0.0000 0.0000
# 5 0.0000 0.0000 0.0000 0.0000 29.2831 0.0000
# 6 0.0000 0.0000 0.0000 0.0000 0.0000 27.3809
#
#
#
# Elastic Compliance Matrix: (Units=1/GPa)
#
#
# Indices 1 2 3 4 5 6 
#
# 1 0.010823 -0.000921 -0.004680 0.000000 0.000000 0.000000
# 2 -0.000921 0.009931 -0.002853 0.000000 0.000000 0.000000
# 3 -0.004680 -0.002853 0.018338 0.000000 0.000000 0.000000
# 4 0.000000 0.000000 0.000000 0.050822 0.000000 0.000000
# 5 0.000000 0.000000 0.000000 0.000000 0.034149 0.000000
# 6 0.000000 0.000000 0.000000 0.000000 0.000000 0.036522
#
#
# Mechanical properties :
#
#
# Convention : Reuss Voigt Hill
#
# Bulk Modulus (GPa) = 45.07454 46.91150 45.99302
# Shear Modulus (GPa) = 27.04364 29.32343 28.18354
#
# Velocity S-wave (km/s) = 3.56627 3.71354 3.64065
# Velocity P-wave (km/s) = 6.17702 6.35996 6.26916
#
# Compressibility (1/GPa) = 0.02218547
#
# Stress axis : x y z
#
# Youngs Moduli (GPa) = 92.39341 100.69697 54.53227
#
# Poissons Ratio (x) = 0.09269 0.25521
# Poissons Ratio (y) = 0.08505 0.15556
# Poissons Ratio (z) = 0.43240 0.28726
#
# Static dielectric constant tensor:
#      x y z
#    x 4.079370 0.000000 0.000000 
#    y 0.000000 4.065050 0.000000 
#    z 0.000000 0.000000 3.523330 
# 
# 
# High freq. dielectric constant tensor:
#      x y z
#    x 1.847420 0.000000 0.000000 
#    y 0.000000 1.841460 0.000000 
#    z 0.000000 0.000000 1.799340 
# 
# From -- ./inp_files/11564.got.cif
#   From: 2010.03.12/outbox.cif.g09.slc.cpg/sg62_6_cif.got.tgz:11564.got - 2010.04.10 19:12:36.
