data_PCOD8254980
_publ_section_title
;
Structure prediction by ZEFSAII (Michael W. Deem and Ramdas Pophale) SiO2 
 PCOD8254980
Probable space group: P N M A
;
_chemical_formula_sum "Si O2"
_cell_formula_units_Z 48
_cell_length_a 13.564395
_cell_length_b 18.676899
_cell_length_c 9.463529
_cell_angle_alpha 90.000000
_cell_angle_beta 90.000000
_cell_angle_gamma 90.000000
_cell_volume 2397.498343
_symmetry_space_group_name_H-M "P N M A"
_symmetry_group_IT_number 62
_symmetry_cell_setting 'orthorhombic'
loop_
_space_group_symop_operation_xyz
x,y,z
1/2-x,-y,1/2+z
1/2+x,1/2-y,1/2-z
-x,1/2+y,-z
-x,-y,-z
1/2+x,y,1/2-z
1/2-x,1/2+y,1/2+z
x,1/2-y,z
loop_
_atom_site_type_symbol
_atom_site_label
_atom_site_fract_x
_atom_site_fract_y
_atom_site_fract_z
Si Si1 0.115761 0.926511 0.260539
Si Si2 0.335899 0.830656 0.642490
Si Si3 0.821263 0.959932 0.343571
Si Si4 0.922411 0.915564 0.617664
Si Si5 0.140964 0.886819 0.561177
Si Si6 0.054860 0.434356 0.924414
O O1 0.212583 0.926865 0.163418
O O2 0.131630 0.874936 0.393445
O O3 0.029103 0.893137 0.164975
O O4 0.082507 0.005149 0.316517
O O5 0.376224 0.750000 0.630806
O O6 0.352593 0.861030 0.799483
O O7 0.217585 0.827864 0.617793
O O8 0.394901 0.880028 0.532345
O O9 0.890383 0.915885 0.452719
O O10 0.863536 0.963179 0.185043
O O11 0.805527 0.038493 0.405335
O O12 0.033571 0.885347 0.632933
O O13 0.000000 0.500000 0.000000
#
# Coordination Sequence:
#
# PCOD8254980 Si02
#       6
#     8   8   8   8   8   8
#     4  11  20  35  66 102 124 158 207 269 322 365
#     4  12  27  43  62  91 131 173 214 270 334 393
#     4  11  20  35  65  98 125 157 208 266 317 374
#     4  11  22  39  62  95 130 164 214 262 319 385
#     4  11  20  39  63  92 128 163 208 262 322 384
#     4  12  21  39  65 101 127 162 217 272 322 377
#
# _framework density 20.020869999999999
#
# number of rings (size 3 to 8) (size 9 to 14) (size 15 to 20)
#    0.000    0.667    8.333    1.000    2.333    2.000 
#    0.000    1.667    0.000    0.000    0.000    0.000 
#    0.000    0.000    0.000    0.000    0.000    0.000 
#
# Total GULP energy -595138.721787 kJ/mol
# GULP energy per Si atom -12398.723371 kJ/mol
# Density = 1.997530 g / cm^3
# Si number density = 20.020870 Si / 1000 Ang^3
#
#
#
# Elastic Constant Matrix: (Units=GPa)
#
#
# Indices 1 2 3 4 5 6 
#
# 1 107.3356 9.3795 23.6261 0.0000 0.0000 0.0000
# 2 9.3795 62.5667 32.6972 0.0000 0.0000 0.0000
# 3 23.6261 32.6972 102.0785 0.0000 0.0000 0.0000
# 4 0.0000 0.0000 0.0000 8.4978 0.0000 0.0000
# 5 0.0000 0.0000 0.0000 0.0000 38.9716 0.0000
# 6 0.0000 0.0000 0.0000 0.0000 0.0000 17.6351
#
#
#
# Elastic Compliance Matrix: (Units=1/GPa)
#
#
# Indices 1 2 3 4 5 6 
#
# 1 0.009823 -0.000342 -0.002164 0.000000 0.000000 0.000000
# 2 -0.000342 0.019208 -0.006074 0.000000 0.000000 0.000000
# 3 -0.002164 -0.006074 0.012243 0.000000 0.000000 0.000000
# 4 0.000000 0.000000 0.000000 0.117678 0.000000 0.000000
# 5 0.000000 0.000000 0.000000 0.000000 0.025660 0.000000
# 6 0.000000 0.000000 0.000000 0.000000 0.000000 0.056705
#
#
# Mechanical properties :
#
#
# Convention : Reuss Voigt Hill
#
# Bulk Modulus (GPa) = 41.46772 44.82070 43.14421
# Shear Modulus (GPa) = 18.76078 26.77276 22.76677
#
# Velocity S-wave (km/s) = 3.06447 3.66080 3.37583
# Velocity P-wave (km/s) = 5.76875 6.34856 6.06559
#
# Compressibility (1/GPa) = 0.02411514
#
# Stress axis : x y z
#
# Youngs Moduli (GPa) = 101.80430 52.06114 81.68127
#
# Poissons Ratio (x) = 0.01778 0.17676
# Poissons Ratio (y) = 0.03478 0.49610
# Poissons Ratio (z) = 0.22031 0.31620
#
# Static dielectric constant tensor:
#      x y z
#    x 3.932370 0.000000 0.000000 
#    y 0.000000 3.114800 0.000000 
#    z 0.000000 0.000000 4.007080 
# 
# 
# High freq. dielectric constant tensor:
#      x y z
#    x 1.806550 0.000000 0.000000 
#    y 0.000000 1.711390 0.000000 
#    z 0.000000 0.000000 1.798490 
# 
# From -- ./inp_files/6423.got.cif
#   From: 2010.03.12/outbox.cif.g09.slc.cpg/sg62_4_cif.got.tgz:6423.got - 2010.04.10 19:12:36.
