data_PCOD8254268
_publ_section_title
;
Structure prediction by ZEFSAII (Michael W. Deem and Ramdas Pophale) SiO2 
 PCOD8254268
Probable space group: P N M A
;
_chemical_formula_sum "Si O2"
_cell_formula_units_Z 56
_cell_length_a 15.310295
_cell_length_b 15.008250
_cell_length_c 11.868917
_cell_angle_alpha 90.000000
_cell_angle_beta 90.000000
_cell_angle_gamma 90.000000
_cell_volume 2727.248471
_symmetry_space_group_name_H-M "P N M A"
_symmetry_group_IT_number 62
_symmetry_cell_setting 'orthorhombic'
loop_
_space_group_symop_operation_xyz
x,y,z
1/2-x,-y,1/2+z
1/2+x,1/2-y,1/2-z
-x,1/2+y,-z
-x,-y,-z
1/2+x,y,1/2-z
1/2-x,1/2+y,1/2+z
x,1/2-y,z
loop_
_atom_site_type_symbol
_atom_site_label
_atom_site_fract_x
_atom_site_fract_y
_atom_site_fract_z
Si Si1 0.617439 0.562136 0.275011
Si Si2 0.784686 0.480931 0.350398
Si Si3 0.889318 0.150774 0.009626
Si Si4 0.475962 0.851181 0.907516
Si Si5 0.356964 0.143059 0.965157
Si Si6 0.302509 0.851713 0.009245
Si Si7 0.953006 0.445603 0.211484
O O1 0.685451 0.481239 0.301419
O O2 0.611980 0.631425 0.377411
O O3 0.518296 0.526912 0.263405
O O4 0.650783 0.614626 0.164652
O O5 0.788137 0.410201 0.454603
O O6 0.802065 0.583284 0.384384
O O7 0.854924 0.462291 0.253620
O O8 0.926252 0.250000 0.028258
O O9 0.789758 0.143961 0.056424
O O10 0.948783 0.081301 0.079862
O O11 0.468355 0.750000 0.938519
O O12 0.547988 0.891228 0.992936
O O13 0.506753 0.862705 0.779769
O O14 0.379209 0.891040 0.928193
O O15 0.342563 0.250000 0.978796
O O16 0.319651 0.750000 0.050468
#
# Coordination Sequence:
#
# PCOD8254268 Si02
#       7
#     8   8   8   8   8   8   8
#     4  11  23  38  64  84 121 161 207 244 312 364
#     4  10  23  38  62  89 125 154 205 255 308 356
#     4  10  22  39  57  82 121 163 202 243 298 371
#     4   9  18  34  59  89 115 147 197 254 308 350
#     4  10  21  40  64  91 122 157 206 265 309 356
#     4   9  18  35  59  85 116 155 203 249 296 354
#     4  11  22  36  59  88 121 157 195 249 303 370
#
# _framework density 20.533517
#
# number of rings (size 3 to 8) (size 9 to 14) (size 15 to 20)
#    0.000    2.000    0.000    3.000    6.000    3.429 
#    0.000    2.143    0.000    0.000    0.000    0.000 
#    0.000    0.000    0.000    0.000    0.000    0.000 
#
# Total GULP energy -693894.766577 kJ/mol
# GULP energy per Si atom -12390.977975 kJ/mol
# Density = 2.048678 g / cm^3
# Si number density = 20.533517 Si / 1000 Ang^3
#
#
#
# Elastic Constant Matrix: (Units=GPa)
#
#
# Indices 1 2 3 4 5 6 
#
# 1 62.5852 21.7060 30.9729 0.0000 0.0000 0.0000
# 2 21.7060 83.3417 38.9178 0.0000 0.0000 0.0000
# 3 30.9729 38.9178 110.9715 0.0000 0.0000 0.0000
# 4 0.0000 0.0000 0.0000 27.0326 0.0000 0.0000
# 5 0.0000 0.0000 0.0000 0.0000 19.5383 0.0000
# 6 0.0000 0.0000 0.0000 0.0000 0.0000 25.5579
#
#
#
# Elastic Compliance Matrix: (Units=1/GPa)
#
#
# Indices 1 2 3 4 5 6 
#
# 1 0.019138 -0.002978 -0.004297 0.000000 0.000000 0.000000
# 2 -0.002978 0.014812 -0.004363 0.000000 0.000000 0.000000
# 3 -0.004297 -0.004363 0.011741 0.000000 0.000000 0.000000
# 4 0.000000 0.000000 0.000000 0.036992 0.000000 0.000000
# 5 0.000000 0.000000 0.000000 0.000000 0.051182 0.000000
# 6 0.000000 0.000000 0.000000 0.000000 0.000000 0.039127
#
#
# Mechanical properties :
#
#
# Convention : Reuss Voigt Hill
#
# Bulk Modulus (GPa) = 44.61523 48.89909 46.75716
# Shear Modulus (GPa) = 24.54119 25.44586 24.99353
#
# Velocity S-wave (km/s) = 3.46088 3.52410 3.49263
# Velocity P-wave (km/s) = 6.14373 6.35806 6.25182
#
# Compressibility (1/GPa) = 0.02241387
#
# Stress axis : x y z
#
# Youngs Moduli (GPa) = 52.25321 67.51321 85.17190
#
# Poissons Ratio (x) = 0.20103 0.36600
# Poissons Ratio (y) = 0.15559 0.37164
# Poissons Ratio (z) = 0.22454 0.29459
#
# Static dielectric constant tensor:
#      x y z
#    x 4.205540 0.000000 0.000000 
#    y 0.000000 3.638880 0.000000 
#    z 0.000000 0.000000 3.567570 
# 
# 
# High freq. dielectric constant tensor:
#      x y z
#    x 1.804380 0.000000 0.000000 
#    y 0.000000 1.797640 0.000000 
#    z 0.000000 0.000000 1.793850 
# 
# From -- ./inp_files/13400.got.cif
#   From: 2010.03.12/outbox.cif.g09.slc.cpg/sg62_7_cif.got.tgz:13400.got - 2010.04.10 19:12:36.
