data_PCOD8254238
_publ_section_title
;
Structure prediction by ZEFSAII (Michael W. Deem and Ramdas Pophale) SiO2 
 PCOD8254238
Probable space group: P N M A
;
_chemical_formula_sum "Si O2"
_cell_formula_units_Z 64
_cell_length_a 15.276511
_cell_length_b 8.999014
_cell_length_c 23.625205
_cell_angle_alpha 90.000000
_cell_angle_beta 90.000000
_cell_angle_gamma 90.000000
_cell_volume 3247.840479
_symmetry_space_group_name_H-M "P N M A"
_symmetry_group_IT_number 62
_symmetry_cell_setting 'orthorhombic'
loop_
_space_group_symop_operation_xyz
x,y,z
1/2-x,-y,1/2+z
1/2+x,1/2-y,1/2-z
-x,1/2+y,-z
-x,-y,-z
1/2+x,y,1/2-z
1/2-x,1/2+y,1/2+z
x,1/2-y,z
loop_
_atom_site_type_symbol
_atom_site_label
_atom_site_fract_x
_atom_site_fract_y
_atom_site_fract_z
Si Si1 0.346967 0.579998 0.777456
Si Si2 0.108603 0.424940 0.615160
Si Si3 0.984136 0.423963 0.205209
Si Si4 0.367879 0.921652 0.499232
Si Si5 0.309340 0.575686 0.998861
Si Si6 0.980594 0.421802 0.911337
Si Si7 0.323921 0.925641 0.235530
Si Si8 0.926981 0.580374 0.606157
O O1 0.321424 0.750000 0.763771
O O2 0.440340 0.539136 0.750178
O O3 0.273108 0.473445 0.752735
O O4 0.355366 0.552962 0.844667
O O5 0.104659 0.250000 0.612290
O O6 0.159063 0.484234 0.559860
O O7 0.159451 0.479265 0.671152
O O8 0.009871 0.479014 0.616679
O O9 0.965793 0.250000 0.200415
O O10 0.014993 0.484690 0.145320
O O11 0.894328 0.501653 0.222990
O O12 0.363842 0.750000 0.517152
O O13 0.430344 0.945446 0.445729
O O14 0.274203 0.981464 0.480069
O O15 0.399211 0.017367 0.552717
O O16 0.285965 0.750000 0.999182
O O17 0.384981 0.539951 0.953918
O O18 0.963206 0.250000 0.897150
O O19 0.332528 0.750000 0.241450
O O20 0.959297 0.750000 0.607791
#
# Coordination Sequence:
#
# PCOD8254238 Si02
#       8
#     8   8   8   8   8   8   8   8
#     4  10  23  41  61  90 122 159 205 254 304 362
#     4  10  22  40  60  87 120 155 197 245 303 360
#     4  11  23  41  65  92 124 161 206 254 307 366
#     4  10  22  40  60  89 120 156 200 245 297 356
#     4  10  22  38  60  89 120 155 197 248 303 358
#     4  10  22  40  62  87 122 158 198 246 300 358
#     4  11  24  40  61  90 124 164 205 251 308 366
#     4  10  21  40  63  87 117 156 200 247 305 359
#
# _framework density 19.705400000000001
#
# number of rings (size 3 to 8) (size 9 to 14) (size 15 to 20)
#    0.000    1.750    1.250    1.875    3.500    4.500 
#    0.000    0.000    0.000    0.000    0.000    0.000 
#    0.000    0.000    0.000    0.000    0.000    0.000 
#
# Total GULP energy -793954.149898 kJ/mol
# GULP energy per Si atom -12405.533592 kJ/mol
# Density = 1.966055 g / cm^3
# Si number density = 19.705400 Si / 1000 Ang^3
#
#
#
# Elastic Constant Matrix: (Units=GPa)
#
#
# Indices 1 2 3 4 5 6 
#
# 1 64.3060 24.1098 3.4765 0.0000 0.0000 0.0000
# 2 24.1098 44.0846 14.9492 0.0000 0.0000 0.0000
# 3 3.4765 14.9492 81.8244 0.0000 0.0000 0.0000
# 4 0.0000 0.0000 0.0000 29.0593 0.0000 0.0000
# 5 0.0000 0.0000 0.0000 0.0000 19.5583 0.0000
# 6 0.0000 0.0000 0.0000 0.0000 0.0000 38.5298
#
#
#
# Elastic Compliance Matrix: (Units=1/GPa)
#
#
# Indices 1 2 3 4 5 6 
#
# 1 0.019672 -0.011167 0.001204 0.000000 0.000000 0.000000
# 2 -0.011167 0.030521 -0.005102 0.000000 0.000000 0.000000
# 3 0.001204 -0.005102 0.013102 0.000000 0.000000 0.000000
# 4 0.000000 0.000000 0.000000 0.034412 0.000000 0.000000
# 5 0.000000 0.000000 0.000000 0.000000 0.051129 0.000000
# 6 0.000000 0.000000 0.000000 0.000000 0.000000 0.025954
#
#
# Mechanical properties :
#
#
# Convention : Reuss Voigt Hill
#
# Bulk Modulus (GPa) = 30.15085 30.58735 30.36910
# Shear Modulus (GPa) = 23.15074 27.27476 25.21275
#
# Velocity S-wave (km/s) = 3.43132 3.72442 3.58087
# Velocity P-wave (km/s) = 5.57069 5.83533 5.70455
#
# Compressibility (1/GPa) = 0.03316657
#
# Stress axis : x y z
#
# Youngs Moduli (GPa) = 50.83263 32.76433 76.32309
#
# Poissons Ratio (x) = 0.36589 -0.09192
# Poissons Ratio (y) = 0.56766 0.38938
# Poissons Ratio (z) = -0.06122 0.16715
#
# Static dielectric constant tensor:
#      x y z
#    x 3.465100 0.000000 0.000000 
#    y 0.000000 3.577610 0.000000 
#    z 0.000000 0.000000 3.841140 
# 
# 
# High freq. dielectric constant tensor:
#      x y z
#    x 1.769560 0.000000 0.000000 
#    y 0.000000 1.768950 0.000000 
#    z 0.000000 0.000000 1.781440 
# 
# From -- ./inp_files/29905.got.cif
#   From: 2010.03.12/outbox.cif.g09.slc.cpg/sg62_15_cif.got.tgz:29905.got - 2010.04.10 19:12:36.
