data_PCOD8254097
_publ_section_title
;
Structure prediction by ZEFSAII (Michael W. Deem and Ramdas Pophale) SiO2 
 PCOD8254097
Probable space group: P N M A
;
_chemical_formula_sum "Si O2"
_cell_formula_units_Z 64
_cell_length_a 12.073704
_cell_length_b 9.091430
_cell_length_c 29.365494
_cell_angle_alpha 90.000000
_cell_angle_beta 90.000000
_cell_angle_gamma 90.000000
_cell_volume 3223.369074
_symmetry_space_group_name_H-M "P N M A"
_symmetry_group_IT_number 62
_symmetry_cell_setting 'orthorhombic'
loop_
_space_group_symop_operation_xyz
x,y,z
1/2-x,-y,1/2+z
1/2+x,1/2-y,1/2-z
-x,1/2+y,-z
-x,-y,-z
1/2+x,y,1/2-z
1/2-x,1/2+y,1/2+z
x,1/2-y,z
loop_
_atom_site_type_symbol
_atom_site_label
_atom_site_fract_x
_atom_site_fract_y
_atom_site_fract_z
Si Si1 0.992187 0.078975 0.821180
Si Si2 0.741606 0.420874 0.659767
Si Si3 0.559800 0.575236 0.221526
Si Si4 0.293967 0.580313 0.931614
Si Si5 0.668852 0.424112 0.384512
Si Si6 0.627403 0.085099 0.842311
Si Si7 0.250965 0.920189 0.030535
Si Si8 0.513278 0.413282 0.935833
O O1 0.967091 0.250000 0.830625
O O2 0.935807 0.024737 0.774029
O O3 0.123159 0.050703 0.817410
O O4 0.944071 0.982617 0.862302
O O5 0.764965 0.250000 0.651794
O O6 0.834804 0.488892 0.693627
O O7 0.741975 0.492892 0.610038
O O8 0.562476 0.750000 0.218819
O O9 0.442248 0.521921 0.200427
O O10 0.298648 0.750000 0.918101
O O11 0.416928 0.528965 0.944480
O O12 0.219476 0.556459 0.977415
O O13 0.668293 0.250000 0.385846
O O14 0.770992 0.479235 0.353796
O O15 0.673880 0.483511 0.436380
O O16 0.674342 0.250000 0.832732
O O17 0.538059 0.091269 0.882368
O O18 0.238931 0.750000 0.045539
O O19 0.378562 0.968836 0.037275
O O20 0.477255 0.250000 0.952210
#
# Coordination Sequence:
#
# PCOD8254097 Si02
#       8
#     8   8   8   8   8   8   8   8
#     4  10  22  39  64  87 110 151 199 245 286 338
#     4  10  21  39  60  87 118 150 194 241 288 342
#     4   9  18  35  62  90 112 144 194 241 279 333
#     4  11  21  33  54  84 118 155 191 238 295 349
#     4  11  23  38  57  84 119 153 190 240 296 350
#     4   9  17  33  58  84 114 151 190 236 279 329
#     4   9  20  37  56  80 112 154 203 242 282 341
#     4   9  16  30  52  79 115 152 185 235 285 333
#
# _framework density 19.855001000000001
#
# number of rings (size 3 to 8) (size 9 to 14) (size 15 to 20)
#    0.000    2.250    1.250    2.625    1.750    3.500 
#    0.000    1.875    0.000    0.000    0.000    0.000 
#    0.000    0.000    0.000    0.000    0.000    0.000 
#
# Total GULP energy -793492.087822 kJ/mol
# GULP energy per Si atom -12398.313872 kJ/mol
# Density = 1.980981 g / cm^3
# Si number density = 19.855001 Si / 1000 Ang^3
#
#
#
# Elastic Constant Matrix: (Units=GPa)
#
#
# Indices 1 2 3 4 5 6 
#
# 1 57.3557 32.1254 40.0780 0.0000 0.0000 0.0000
# 2 32.1254 79.3783 43.2290 0.0000 0.0000 0.0000
# 3 40.0780 43.2290 120.9374 0.0000 0.0000 0.0000
# 4 0.0000 0.0000 0.0000 23.4224 0.0000 0.0000
# 5 0.0000 0.0000 0.0000 0.0000 19.1782 0.0000
# 6 0.0000 0.0000 0.0000 0.0000 0.0000 20.2246
#
#
#
# Elastic Compliance Matrix: (Units=1/GPa)
#
#
# Indices 1 2 3 4 5 6 
#
# 1 0.025564 -0.007118 -0.005927 0.000000 0.000000 0.000000
# 2 -0.007118 0.017625 -0.003941 0.000000 0.000000 0.000000
# 3 -0.005927 -0.003941 0.011642 0.000000 0.000000 0.000000
# 4 0.000000 0.000000 0.000000 0.042694 0.000000 0.000000
# 5 0.000000 0.000000 0.000000 0.000000 0.052143 0.000000
# 6 0.000000 0.000000 0.000000 0.000000 0.000000 0.049445
#
#
# Mechanical properties :
#
#
# Convention : Reuss Voigt Hill
#
# Bulk Modulus (GPa) = 47.94441 54.28179 51.11310
# Shear Modulus (GPa) = 20.83010 22.04765 21.43888
#
# Velocity S-wave (km/s) = 3.24251 3.33593 3.28955
# Velocity P-wave (km/s) = 6.18209 6.49895 6.34250
#
# Compressibility (1/GPa) = 0.02085749
#
# Stress axis : x y z
#
# Youngs Moduli (GPa) = 39.11804 56.73776 85.89726
#
# Poissons Ratio (x) = 0.40385 0.50914
# Poissons Ratio (y) = 0.27844 0.33854
# Poissons Ratio (z) = 0.23187 0.22361
#
# Static dielectric constant tensor:
#      x y z
#    x 3.428150 0.000000 0.000000 
#    y 0.000000 3.315470 0.000000 
#    z 0.000000 0.000000 3.796210 
# 
# 
# High freq. dielectric constant tensor:
#      x y z
#    x 1.756100 0.000000 0.000000 
#    y 0.000000 1.744310 0.000000 
#    z 0.000000 0.000000 1.785040 
# 
# From -- ./inp_files/32471.got.cif
#   From: 2010.03.12/outbox.cif.g09.slc.cpg/sg62_17_cif.got.tgz:32471.got - 2010.04.10 19:12:36.
