data_PCOD8254208
_publ_section_title
;
Structure prediction by ZEFSAII (Michael W. Deem and Ramdas Pophale) SiO2 
 PCOD8254208
Probable space group: P N M A
;
_chemical_formula_sum "Si O2"
_cell_formula_units_Z 32
_cell_length_a 18.784610
_cell_length_b 12.371815
_cell_length_c 7.377483
_cell_angle_alpha 90.000000
_cell_angle_beta 90.000000
_cell_angle_gamma 90.000000
_cell_volume 1714.524982
_symmetry_space_group_name_H-M "P N M A"
_symmetry_group_IT_number 62
_symmetry_cell_setting 'orthorhombic'
loop_
_space_group_symop_operation_xyz
x,y,z
1/2-x,-y,1/2+z
1/2+x,1/2-y,1/2-z
-x,1/2+y,-z
-x,-y,-z
1/2+x,y,1/2-z
1/2-x,1/2+y,1/2+z
x,1/2-y,z
loop_
_atom_site_type_symbol
_atom_site_label
_atom_site_fract_x
_atom_site_fract_y
_atom_site_fract_z
Si Si1 0.440692 0.130607 0.547422
Si Si2 0.089646 0.066655 0.841270
Si Si3 0.693084 0.376494 0.957939
Si Si4 0.674100 0.014161 0.334310
O O1 0.412405 0.250000 0.502793
O O2 0.520843 0.140024 0.621168
O O3 0.435629 0.059473 0.361386
O O4 0.389179 0.074060 0.697422
O O5 0.151861 0.088005 0.991688
O O6 0.119407 0.095853 0.644316
O O7 0.711935 0.250000 0.941205
O O8 0.753624 0.449799 0.869835
O O9 0.682981 0.405990 0.166980
#
# Coordination Sequence:
#
# PCOD8254208 Si02
#       4
#     8   8   8   8
#     4   9  18  39  62  83 120 155 184 236 290 331
#     4   9  21  39  59  86 118 147 196 236 273 349
#     4  12  23  38  61  85 116 153 191 238 289 337
#     4  10  21  40  56  86 115 149 196 236 279 349
#
# _framework density 18.664062000000001
#
# number of rings (size 3 to 8) (size 9 to 14) (size 15 to 20)
#    1.500    0.500    2.500    1.500    0.000    3.000 
#    0.000    2.500    0.000    0.000    0.000    0.000 
#    0.000    0.000    0.000    0.000    0.000    0.000 
#
# Total GULP energy -396444.302260 kJ/mol
# GULP energy per Si atom -12388.884446 kJ/mol
# Density = 1.862158 g / cm^3
# Si number density = 18.664062 Si / 1000 Ang^3
#
#
#
# Elastic Constant Matrix: (Units=GPa)
#
#
# Indices 1 2 3 4 5 6 
#
# 1 68.7638 12.9231 12.0595 0.0000 0.0000 0.0000
# 2 12.9231 68.4076 18.3056 0.0000 0.0000 0.0000
# 3 12.0595 18.3056 66.7962 0.0000 0.0000 0.0000
# 4 0.0000 0.0000 0.0000 23.9139 0.0000 0.0000
# 5 0.0000 0.0000 0.0000 0.0000 26.9050 0.0000
# 6 0.0000 0.0000 0.0000 0.0000 0.0000 13.2126
#
#
#
# Elastic Compliance Matrix: (Units=1/GPa)
#
#
# Indices 1 2 3 4 5 6 
#
# 1 0.015355 -0.002330 -0.002134 0.000000 0.000000 0.000000
# 2 -0.002330 0.016129 -0.003999 0.000000 0.000000 0.000000
# 3 -0.002134 -0.003999 0.016452 0.000000 0.000000 0.000000
# 4 0.000000 0.000000 0.000000 0.041817 0.000000 0.000000
# 5 0.000000 0.000000 0.000000 0.000000 0.037168 0.000000
# 6 0.000000 0.000000 0.000000 0.000000 0.000000 0.075685
#
#
# Mechanical properties :
#
#
# Convention : Reuss Voigt Hill
#
# Bulk Modulus (GPa) = 32.24802 32.28267 32.26534
# Shear Modulus (GPa) = 21.75166 23.51826 22.63496
#
# Velocity S-wave (km/s) = 3.41754 3.55362 3.48624
# Velocity P-wave (km/s) = 5.73484 5.84567 5.79052
#
# Compressibility (1/GPa) = 0.03100966
#
# Stress axis : x y z
#
# Youngs Moduli (GPa) = 65.12724 62.00160 60.78219
#
# Poissons Ratio (x) = 0.14445 0.12969
# Poissons Ratio (y) = 0.15173 0.24310
# Poissons Ratio (z) = 0.13896 0.24797
#
# Static dielectric constant tensor:
#      x y z
#    x 3.483250 0.000000 0.000000 
#    y 0.000000 3.241800 0.000000 
#    z 0.000000 0.000000 3.105930 
# 
# 
# High freq. dielectric constant tensor:
#      x y z
#    x 1.738030 0.000000 0.000000 
#    y 0.000000 1.720180 0.000000 
#    z 0.000000 0.000000 1.689510 
# 
# From -- ./inp_files/1445.got.cif
#   From: 2010.03.12/outbox.cif.g09.slc.cpg/sg62_1_cif.got.tgz:1445.got - 2010.04.10 19:12:36.
