data_PCOD8254826
_publ_section_title
;
Structure prediction by ZEFSAII (Michael W. Deem and Ramdas Pophale) SiO2 
 PCOD8254826
Probable space group: P N M A
;
_chemical_formula_sum "Si O2"
_cell_formula_units_Z 48
_cell_length_a 14.806833
_cell_length_b 8.601839
_cell_length_c 18.447623
_cell_angle_alpha 90.000000
_cell_angle_beta 90.000000
_cell_angle_gamma 90.000000
_cell_volume 2349.599832
_symmetry_space_group_name_H-M "P N M A"
_symmetry_group_IT_number 62
_symmetry_cell_setting 'orthorhombic'
loop_
_space_group_symop_operation_xyz
x,y,z
1/2-x,-y,1/2+z
1/2+x,1/2-y,1/2-z
-x,1/2+y,-z
-x,-y,-z
1/2+x,y,1/2-z
1/2-x,1/2+y,1/2+z
x,1/2-y,z
loop_
_atom_site_type_symbol
_atom_site_label
_atom_site_fract_x
_atom_site_fract_y
_atom_site_fract_z
Si Si1 0.404133 0.932362 0.519823
Si Si2 0.063320 0.568321 0.438614
Si Si3 0.756238 0.431295 0.083462
Si Si4 0.694570 0.069274 0.733857
Si Si5 0.507809 0.570423 0.223124
Si Si6 0.844515 0.568103 0.823547
O O1 0.414605 0.750000 0.522747
O O2 0.374081 0.996005 0.598139
O O3 0.500000 0.000000 0.500000
O O4 0.332116 0.976539 0.459556
O O5 0.079110 0.750000 0.451534
O O6 0.158685 0.482713 0.444160
O O7 0.000000 0.500000 0.500000
O O8 0.016039 0.535259 0.361858
O O9 0.768920 0.250000 0.069567
O O10 0.767580 0.468021 0.167972
O O11 0.705871 0.250000 0.714764
O O12 0.591963 0.025790 0.751038
O O13 0.754378 0.026235 0.803495
O O14 0.530436 0.750000 0.239707
O O15 0.576475 0.462112 0.266060
O O16 0.822202 0.750000 0.825201
#
# Coordination Sequence:
#
# PCOD8254826 Si02
#       6
#     8   8   8   8   8   8
#     4  11  25  44  66  97 132 172 217 268 324 385
#     4  11  24  43  65  95 130 171 218 268 323 388
#     4  12  25  43  67  97 131 174 218 266 324 386
#     4  11  23  41  66  95 127 167 213 264 323 385
#     4  10  23  42  66  93 126 168 213 261 319 383
#     4  11  24  41  64  96 129 164 212 263 317 381
#
# _framework density 20.429010999999999
#
# number of rings (size 3 to 8) (size 9 to 14) (size 15 to 20)
#    0.000    1.000    1.667    4.500    2.333    7.333 
#    0.000    0.000    0.000    0.000    0.000    0.000 
#    0.000    0.000    0.000    0.000    0.000    0.000 
#
# Total GULP energy -595573.484190 kJ/mol
# GULP energy per Si atom -12407.780921 kJ/mol
# Density = 2.038251 g / cm^3
# Si number density = 20.429011 Si / 1000 Ang^3
#
#
#
# Elastic Constant Matrix: (Units=GPa)
#
#
# Indices 1 2 3 4 5 6 
#
# 1 107.7028 9.3021 13.7438 0.0000 0.0000 0.0000
# 2 9.3021 43.9556 14.2633 0.0000 0.0000 0.0000
# 3 13.7438 14.2633 83.1935 0.0000 0.0000 0.0000
# 4 0.0000 0.0000 0.0000 31.9001 0.0000 0.0000
# 5 0.0000 0.0000 0.0000 0.0000 42.4537 0.0000
# 6 0.0000 0.0000 0.0000 0.0000 0.0000 35.4319
#
#
#
# Elastic Compliance Matrix: (Units=1/GPa)
#
#
# Indices 1 2 3 4 5 6 
#
# 1 0.009590 -0.001605 -0.001309 0.000000 0.000000 0.000000
# 2 -0.001605 0.024359 -0.003911 0.000000 0.000000 0.000000
# 3 -0.001309 -0.003911 0.012907 0.000000 0.000000 0.000000
# 4 0.000000 0.000000 0.000000 0.031348 0.000000 0.000000
# 5 0.000000 0.000000 0.000000 0.000000 0.023555 0.000000
# 6 0.000000 0.000000 0.000000 0.000000 0.000000 0.028223
#
#
# Mechanical properties :
#
#
# Convention : Reuss Voigt Hill
#
# Bulk Modulus (GPa) = 30.11488 34.38559 32.25023
# Shear Modulus (GPa) = 32.32029 35.12667 33.72348
#
# Velocity S-wave (km/s) = 3.98185 4.15112 4.06737
# Velocity P-wave (km/s) = 5.99278 6.31222 6.15457
#
# Compressibility (1/GPa) = 0.03320618
#
# Stress axis : x y z
#
# Youngs Moduli (GPa) = 104.27012 41.05259 77.47724
#
# Poissons Ratio (x) = 0.06588 0.10144
# Poissons Ratio (y) = 0.16733 0.30303
# Poissons Ratio (z) = 0.13652 0.16056
#
# Static dielectric constant tensor:
#      x y z
#    x 3.782700 0.000000 0.000000 
#    y 0.000000 3.724890 0.000000 
#    z 0.000000 0.000000 4.036860 
# 
# 
# High freq. dielectric constant tensor:
#      x y z
#    x 1.815520 0.000000 0.000000 
#    y 0.000000 1.805420 0.000000 
#    z 0.000000 0.000000 1.809860 
# 
# From -- ./inp_files/23662.got.cif
#   From: 2010.03.12/outbox.cif.g09.slc.cpg/sg62_12_cif.got.tgz:23662.got - 2010.04.10 19:12:36.
