data_PCOD8254917
_publ_section_title
;
Structure prediction by ZEFSAII (Michael W. Deem and Ramdas Pophale) SiO2 
 PCOD8254917
Probable space group: P N M A
;
_chemical_formula_sum "Si O2"
_cell_formula_units_Z 24
_cell_length_a 21.582841
_cell_length_b 7.953154
_cell_length_c 4.637226
_cell_angle_alpha 90.000000
_cell_angle_beta 90.000000
_cell_angle_gamma 90.000000
_cell_volume 795.987532
_symmetry_space_group_name_H-M "P N M A"
_symmetry_group_IT_number 62
_symmetry_cell_setting 'orthorhombic'
loop_
_space_group_symop_operation_xyz
x,y,z
1/2-x,-y,1/2+z
1/2+x,1/2-y,1/2-z
-x,1/2+y,-z
-x,-y,-z
1/2+x,y,1/2-z
1/2-x,1/2+y,1/2+z
x,1/2-y,z
loop_
_atom_site_type_symbol
_atom_site_label
_atom_site_fract_x
_atom_site_fract_y
_atom_site_fract_z
Si Si1 0.211915 0.554700 0.266822
Si Si2 0.381453 0.931095 0.311447
Si Si3 0.994279 0.750000 0.999914
Si Si4 0.580797 0.750000 0.001287
O O1 0.276652 0.528493 0.084626
O O2 0.193657 0.750000 0.293328
O O3 0.159482 0.457221 0.095299
O O4 0.363369 0.750000 0.170254
O O5 0.452794 0.916360 0.428766
O O6 0.378251 0.082917 0.075592
O O7 0.061278 0.750000 0.164618
O O8 0.015077 0.750000 0.666602
#
# Coordination Sequence:
#
# PCOD8254917 Si02
#       4
#     8   8   4   4
#     4  12  26  48  73 104 142 182 235 293 353 420
#     4  10  24  44  69 102 133 181 226 279 341 410
#     4  10  26  40  72  92 144 174 230 274 338 404
#     4  12  22  48  60 104 134 184 220 282 330 404
#
# _framework density 30.151225
#
# number of rings (size 3 to 8) (size 9 to 14) (size 15 to 20)
#    1.000    0.000    1.667    5.000    0.000    5.333 
#    0.000    0.000    0.000    0.000    0.000    0.000 
#    0.000    0.000    0.000    0.000    0.000    0.000 
#
# Total GULP energy -297831.988347 kJ/mol
# GULP energy per Si atom -12409.666181 kJ/mol
# Density = 3.008260 g / cm^3
# Si number density = 30.151225 Si / 1000 Ang^3
#
#
#
# Elastic Constant Matrix: (Units=GPa)
#
#
# Indices 1 2 3 4 5 6 
#
# 1 88.5709 50.6439 14.9065 0.0000 0.0000 0.0000
# 2 50.6439 220.1172 39.8345 0.0000 0.0000 0.0000
# 3 14.9065 39.8345 129.9598 0.0000 0.0000 0.0000
# 4 0.0000 0.0000 0.0000 33.3613 0.0000 0.0000
# 5 0.0000 0.0000 0.0000 0.0000 41.5392 0.0000
# 6 0.0000 0.0000 0.0000 0.0000 0.0000 64.7476
#
#
#
# Elastic Compliance Matrix: (Units=1/GPa)
#
#
# Indices 1 2 3 4 5 6 
#
# 1 0.013046 -0.002891 -0.000610 0.000000 0.000000 0.000000
# 2 -0.002891 0.005451 -0.001339 0.000000 0.000000 0.000000
# 3 -0.000610 -0.001339 0.008175 0.000000 0.000000 0.000000
# 4 0.000000 0.000000 0.000000 0.029975 0.000000 0.000000
# 5 0.000000 0.000000 0.000000 0.000000 0.024074 0.000000
# 6 0.000000 0.000000 0.000000 0.000000 0.000000 0.015445
#
#
# Mechanical properties :
#
#
# Convention : Reuss Voigt Hill
#
# Bulk Modulus (GPa) = 58.85479 72.15753 65.50616
# Shear Modulus (GPa) = 44.83916 50.14715 47.49316
#
# Velocity S-wave (km/s) = 3.86053 4.08264 3.97314
# Velocity P-wave (km/s) = 6.27964 6.79763 6.54376
#
# Compressibility (1/GPa) = 0.01699097
#
# Stress axis : x y z
#
# Youngs Moduli (GPa) = 76.65035 183.46735 122.32244
#
# Poissons Ratio (x) = 0.53044 0.07464
# Poissons Ratio (y) = 0.22161 0.16380
# Poissons Ratio (z) = 0.04677 0.24567
#
# Static dielectric constant tensor:
#      x y z
#    x 6.131470 0.000000 0.000000 
#    y 0.000000 5.440160 0.000000 
#    z 0.000000 0.000000 5.362390 
# 
# 
# High freq. dielectric constant tensor:
#      x y z
#    x 2.299850 0.000000 0.000000 
#    y 0.000000 2.240540 0.000000 
#    z 0.000000 0.000000 2.232720 
# 
# From -- ./inp_files/2479.got.cif
#   From: 2010.03.12/outbox.cif.g09.slc.cpg/sg62_2_cif.got.tgz:2479.got - 2010.04.10 19:12:36.
