data_PCOD8254065
_publ_section_title
;
Structure prediction by ZEFSAII (Michael W. Deem and Ramdas Pophale) SiO2 
 PCOD8254065
Probable space group: P N M A
;
_chemical_formula_sum "Si O2"
_cell_formula_units_Z 56
_cell_length_a 32.931276
_cell_length_b 16.170511
_cell_length_c 5.141406
_cell_angle_alpha 90.000000
_cell_angle_beta 90.000000
_cell_angle_gamma 90.000000
_cell_volume 2737.878699
_symmetry_space_group_name_H-M "P N M A"
_symmetry_group_IT_number 62
_symmetry_cell_setting 'orthorhombic'
loop_
_space_group_symop_operation_xyz
x,y,z
1/2-x,-y,1/2+z
1/2+x,1/2-y,1/2-z
-x,1/2+y,-z
-x,-y,-z
1/2+x,y,1/2-z
1/2-x,1/2+y,1/2+z
x,1/2-y,z
loop_
_atom_site_type_symbol
_atom_site_label
_atom_site_fract_x
_atom_site_fract_y
_atom_site_fract_z
Si Si1 0.499745 0.901409 0.000695
Si Si2 0.646492 0.750000 0.953229
Si Si3 0.758904 0.897276 0.482350
Si Si4 0.703484 0.443845 0.482215
Si Si5 0.409034 0.407591 0.029285
Si Si6 0.951104 0.845680 0.999259
Si Si7 0.301666 0.250000 0.546205
Si Si8 0.610763 0.011248 0.470829
O O1 0.546045 0.870550 0.002851
O O2 0.477782 0.865665 0.750466
O O3 0.477941 0.866130 0.252014
O O4 0.500000 0.000000 0.000000
O O5 0.621329 0.832173 0.006150
O O6 0.661097 0.750000 0.655392
O O7 0.683511 0.750000 0.156419
O O8 0.790564 0.890776 0.720975
O O9 0.724789 0.829412 0.509692
O O10 0.736371 0.984075 0.479783
O O11 0.786463 0.885039 0.226533
O O12 0.658651 0.479876 0.504606
O O13 0.405615 0.448450 0.312640
O O14 0.399522 0.476350 0.813130
O O15 0.938009 0.750000 0.000251
O O16 0.910161 0.899604 0.001526
#
# Coordination Sequence:
#
# PCOD8254065 Si02
#       8
#     8   4   8   8   8   8   4   8
#     4  12  23  46  67  93 128 177 227 268 322 401
#     4  12  26  40  62 104 129 170 207 274 326 386
#     4  10  21  39  61  91 118 163 205 246 314 377
#     4  10  21  38  65  89 118 161 211 251 300 383
#     4  12  25  40  67  96 131 171 218 262 335 383
#     4  12  26  43  67  98 131 176 224 277 330 378
#     4  12  24  44  64  92 137 164 203 268 330 384
#     4  12  23  44  66  94 131 173 215 273 325 384
#
# _framework density 20.453793000000001
#
# number of rings (size 3 to 8) (size 9 to 14) (size 15 to 20)
#    0.000    0.571    2.857    6.000    2.000    2.286 
#    2.571    0.000    0.000    0.000    0.000    0.000 
#    0.000    0.000    0.000    0.000    0.000    0.000 
#
# Total GULP energy -694689.736306 kJ/mol
# GULP energy per Si atom -12405.173863 kJ/mol
# Density = 2.040724 g / cm^3
# Si number density = 20.453793 Si / 1000 Ang^3
#
#
#
# Elastic Constant Matrix: (Units=GPa)
#
#
# Indices 1 2 3 4 5 6 
#
# 1 81.1638 -0.0632 37.0478 0.0000 0.0000 0.0000
# 2 -0.0632 96.9330 28.3139 0.0000 0.0000 0.0000
# 3 37.0478 28.3139 141.5470 0.0000 0.0000 0.0000
# 4 0.0000 0.0000 0.0000 22.8635 0.0000 0.0000
# 5 0.0000 0.0000 0.0000 0.0000 39.1973 0.0000
# 6 0.0000 0.0000 0.0000 0.0000 0.0000 15.9425
#
#
#
# Elastic Compliance Matrix: (Units=1/GPa)
#
#
# Indices 1 2 3 4 5 6 
#
# 1 0.014113 0.001156 -0.003925 0.000000 0.000000 0.000000
# 2 0.001156 0.011051 -0.002513 0.000000 0.000000 0.000000
# 3 -0.003925 -0.002513 0.008595 0.000000 0.000000 0.000000
# 4 0.000000 0.000000 0.000000 0.043738 0.000000 0.000000
# 5 0.000000 0.000000 0.000000 0.000000 0.025512 0.000000
# 6 0.000000 0.000000 0.000000 0.000000 0.000000 0.062725
#
#
# Mechanical properties :
#
#
# Convention : Reuss Voigt Hill
#
# Bulk Modulus (GPa) = 43.11389 50.02674 46.57031
# Shear Modulus (GPa) = 27.16936 32.55703 29.86319
#
# Velocity S-wave (km/s) = 3.64858 3.99398 3.82518
# Velocity P-wave (km/s) = 6.23490 6.76615 6.50595
#
# Compressibility (1/GPa) = 0.02319438
#
# Stress axis : x y z
#
# Youngs Moduli (GPa) = 70.85511 90.48772 116.34908
#
# Poissons Ratio (x) = -0.10458 0.45668
# Poissons Ratio (y) = -0.08189 0.29239
# Poissons Ratio (z) = 0.27811 0.22740
#
# Static dielectric constant tensor:
#      x y z
#    x 3.787920 0.000000 0.000000 
#    y 0.000000 3.609640 0.000000 
#    z 0.000000 0.000000 4.141680 
# 
# 
# High freq. dielectric constant tensor:
#      x y z
#    x 1.806210 0.000000 0.000000 
#    y 0.000000 1.792830 0.000000 
#    z 0.000000 0.000000 1.825460 
# 
# From -- ./inp_files/3626.got.cif
#   From: 2010.03.12/outbox.cif.g09.slc.cpg/sg62_2_cif.got.tgz:3626.got - 2010.04.10 19:12:36.
