data_PCOD8254387
_publ_section_title
;
Structure prediction by ZEFSAII (Michael W. Deem and Ramdas Pophale) SiO2 
 PCOD8254387
Probable space group: P N M A
;
_chemical_formula_sum "Si O2"
_cell_formula_units_Z 64
_cell_length_a 28.381459
_cell_length_b 18.761029
_cell_length_c 5.058018
_cell_angle_alpha 90.000000
_cell_angle_beta 90.000000
_cell_angle_gamma 90.000000
_cell_volume 2693.219453
_symmetry_space_group_name_H-M "P N M A"
_symmetry_group_IT_number 62
_symmetry_cell_setting 'orthorhombic'
loop_
_space_group_symop_operation_xyz
x,y,z
1/2-x,-y,1/2+z
1/2+x,1/2-y,1/2-z
-x,1/2+y,-z
-x,-y,-z
1/2+x,y,1/2-z
1/2-x,1/2+y,1/2+z
x,1/2-y,z
loop_
_atom_site_type_symbol
_atom_site_label
_atom_site_fract_x
_atom_site_fract_y
_atom_site_fract_z
Si Si1 0.680216 0.170066 0.705520
Si Si2 0.424384 0.169604 0.910584
Si Si3 0.150227 0.410333 0.312541
Si Si4 0.497867 0.063028 0.802333
Si Si5 0.277451 0.476835 0.976401
Si Si6 0.712590 0.832016 0.259938
Si Si7 0.129301 0.618456 0.905885
Si Si8 0.577950 0.017168 0.500803
O O1 0.665014 0.250000 0.633538
O O2 0.645781 0.141008 0.934196
O O3 0.732276 0.167949 0.835710
O O4 0.677216 0.124950 0.436353
O O5 0.438171 0.250000 0.952494
O O6 0.474964 0.130831 0.948394
O O7 0.403510 0.156074 0.622300
O O8 0.383882 0.147943 0.118081
O O9 0.175841 0.482418 0.393729
O O10 0.097283 0.433169 0.234215
O O11 0.551696 0.073078 0.698208
O O12 0.461470 0.040832 0.572466
O O13 0.500000 0.000000 0.000000
O O14 0.263728 0.503222 0.268495
O O15 0.291570 0.392152 0.973404
O O16 0.697745 0.750000 0.175830
O O17 0.682974 0.860095 0.514154
O O18 0.121242 0.531905 0.888413
#
# Coordination Sequence:
#
# PCOD8254387 Si02
#       8
#     8   8   8   8   8   8   8   8
#     4  11  26  44  65  94 133 178 222 275 327 375
#     4  11  23  40  62  90 129 166 203 257 322 388
#     4  12  23  43  70  93 128 173 220 271 322 387
#     4  10  21  42  66  94 127 163 210 264 327 391
#     4  12  23  42  61  94 128 168 217 267 317 381
#     4  11  23  41  64  95 134 173 215 266 327 386
#     4  11  23  40  63  95 130 164 209 259 316 392
#     4  10  23  39  68  98 124 166 214 268 323 387
#
# _framework density 23.763380000000002
#
# number of rings (size 3 to 8) (size 9 to 14) (size 15 to 20)
#    0.000    1.000    5.000    1.500    1.750    2.000 
#    0.000    4.375    0.000    0.000    0.000    0.000 
#    0.000    0.000    0.000    0.000    0.000    0.000 
#
# Total GULP energy -793099.335165 kJ/mol
# GULP energy per Si atom -12392.177112 kJ/mol
# Density = 2.370929 g / cm^3
# Si number density = 23.763380 Si / 1000 Ang^3
#
#
#
# Elastic Constant Matrix: (Units=GPa)
#
#
# Indices 1 2 3 4 5 6 
#
# 1 37.9289 29.2709 2.1563 0.0000 0.0000 0.0000
# 2 29.2709 133.9002 19.4059 0.0000 0.0000 0.0000
# 3 2.1563 19.4059 68.2537 0.0000 0.0000 0.0000
# 4 0.0000 0.0000 0.0000 26.2120 0.0000 0.0000
# 5 0.0000 0.0000 0.0000 0.0000 17.2223 0.0000
# 6 0.0000 0.0000 0.0000 0.0000 0.0000 33.4324
#
#
#
# Elastic Compliance Matrix: (Units=1/GPa)
#
#
# Indices 1 2 3 4 5 6 
#
# 1 0.031783 -0.007095 0.001013 0.000000 0.000000 0.000000
# 2 -0.007095 0.009373 -0.002441 0.000000 0.000000 0.000000
# 3 0.001013 -0.002441 0.015313 0.000000 0.000000 0.000000
# 4 0.000000 0.000000 0.000000 0.038151 0.000000 0.000000
# 5 0.000000 0.000000 0.000000 0.000000 0.058064 0.000000
# 6 0.000000 0.000000 0.000000 0.000000 0.000000 0.029911
#
#
# Mechanical properties :
#
#
# Convention : Reuss Voigt Hill
#
# Bulk Modulus (GPa) = 25.36523 37.97212 31.66868
# Shear Modulus (GPa) = 23.49839 27.98998 25.74419
#
# Velocity S-wave (km/s) = 3.14801 3.43572 3.29501
# Velocity P-wave (km/s) = 4.88984 5.63497 5.27558
#
# Compressibility (1/GPa) = 0.03942404
#
# Stress axis : x y z
#
# Youngs Moduli (GPa) = 31.46373 106.69086 65.30327
#
# Poissons Ratio (x) = 0.75693 -0.06615
# Poissons Ratio (y) = 0.22322 0.15939
# Poissons Ratio (z) = -0.03187 0.26041
#
# Static dielectric constant tensor:
#      x y z
#    x 3.842380 0.000000 0.000000 
#    y 0.000000 4.586590 0.000000 
#    z 0.000000 0.000000 3.898780 
# 
# 
# High freq. dielectric constant tensor:
#      x y z
#    x 1.937490 0.000000 0.000000 
#    y 0.000000 1.938660 0.000000 
#    z 0.000000 0.000000 1.937390 
# 
# From -- ./inp_files/3676.got.cif
#   From: 2010.03.12/outbox.cif.g09.slc.cpg/sg62_2_cif.got.tgz:3676.got - 2010.04.10 19:12:36.
