data_PCOD8254851
_publ_section_title
;
Structure prediction by ZEFSAII (Michael W. Deem and Ramdas Pophale) SiO2 
 PCOD8254851
Probable space group: P N M A
;
_chemical_formula_sum "Si O2"
_cell_formula_units_Z 48
_cell_length_a 14.640876
_cell_length_b 8.654655
_cell_length_c 18.502579
_cell_angle_alpha 90.000000
_cell_angle_beta 90.000000
_cell_angle_gamma 90.000000
_cell_volume 2344.493807
_symmetry_space_group_name_H-M "P N M A"
_symmetry_group_IT_number 62
_symmetry_cell_setting 'orthorhombic'
loop_
_space_group_symop_operation_xyz
x,y,z
1/2-x,-y,1/2+z
1/2+x,1/2-y,1/2-z
-x,1/2+y,-z
-x,-y,-z
1/2+x,y,1/2-z
1/2-x,1/2+y,1/2+z
x,1/2-y,z
loop_
_atom_site_type_symbol
_atom_site_label
_atom_site_fract_x
_atom_site_fract_y
_atom_site_fract_z
Si Si1 0.490920 0.429967 0.279808
Si Si2 0.953364 0.929225 0.069511
Si Si3 0.595808 0.568607 0.977044
Si Si4 0.805135 0.928908 0.741464
Si Si5 0.650753 0.429400 0.826552
Si Si6 0.755889 0.428301 0.592022
O O1 0.466487 0.250000 0.271410
O O2 0.492541 0.476099 0.363185
O O3 0.588333 0.469222 0.244742
O O4 0.415784 0.532091 0.239731
O O5 0.979332 0.750000 0.078147
O O6 0.845076 0.951191 0.060965
O O7 0.000000 0.000000 0.000000
O O8 0.587129 0.750000 0.980756
O O9 0.620667 0.522803 0.896310
O O10 0.500000 0.500000 0.000000
O O11 0.674214 0.510115 0.031471
O O12 0.786900 0.750000 0.757377
O O13 0.753076 0.025409 0.803258
O O14 0.767379 0.969117 0.662826
O O15 0.645941 0.250000 0.844768
O O16 0.774692 0.250000 0.612364
#
# Coordination Sequence:
#
# PCOD8254851 Si02
#       6
#     8   8   8   8   8   8
#     4  11  24  43  67  96 128 167 214 266 322 381
#     4  11  24  42  64  94 128 170 215 264 321 381
#     4  11  24  43  66  95 131 170 214 265 320 381
#     4  11  24  41  66  95 127 166 211 262 318 380
#     4  12  25  42  65  96 131 168 214 263 317 382
#     4  10  23  43  66  93 129 169 212 262 318 378
#
# _framework density 20.473503000000001
#
# number of rings (size 3 to 8) (size 9 to 14) (size 15 to 20)
#    0.000    1.000    1.667    4.500    2.333    7.333 
#    0.000    0.000    0.000    0.000    0.000    0.000 
#    0.000    0.000    0.000    0.000    0.000    0.000 
#
# Total GULP energy -595580.206921 kJ/mol
# GULP energy per Si atom -12407.920978 kJ/mol
# Density = 2.042690 g / cm^3
# Si number density = 20.473503 Si / 1000 Ang^3
#
#
#
# Elastic Constant Matrix: (Units=GPa)
#
#
# Indices 1 2 3 4 5 6 
#
# 1 95.9254 37.1444 22.0967 0.0000 0.0000 0.0000
# 2 37.1444 61.9249 9.5478 0.0000 0.0000 0.0000
# 3 22.0967 9.5478 100.9158 0.0000 0.0000 0.0000
# 4 0.0000 0.0000 0.0000 39.4016 0.0000 0.0000
# 5 0.0000 0.0000 0.0000 0.0000 42.6996 0.0000
# 6 0.0000 0.0000 0.0000 0.0000 0.0000 33.2848
#
#
#
# Elastic Compliance Matrix: (Units=1/GPa)
#
#
# Indices 1 2 3 4 5 6 
#
# 1 0.014094 -0.008096 -0.002320 0.000000 0.000000 0.000000
# 2 -0.008096 0.021039 -0.000218 0.000000 0.000000 0.000000
# 3 -0.002320 -0.000218 0.010438 0.000000 0.000000 0.000000
# 4 0.000000 0.000000 0.000000 0.025380 0.000000 0.000000
# 5 0.000000 0.000000 0.000000 0.000000 0.023419 0.000000
# 6 0.000000 0.000000 0.000000 0.000000 0.000000 0.030044
#
#
# Mechanical properties :
#
#
# Convention : Reuss Voigt Hill
#
# Bulk Modulus (GPa) = 41.14830 44.03821 42.59325
# Shear Modulus (GPa) = 32.51333 35.74234 34.12783
#
# Velocity S-wave (km/s) = 3.98938 4.18279 4.08723
# Velocity P-wave (km/s) = 6.43134 6.69957 6.56683
#
# Compressibility (1/GPa) = 0.02430234
#
# Stress axis : x y z
#
# Youngs Moduli (GPa) = 70.95042 47.53150 95.80507
#
# Poissons Ratio (x) = 0.38484 0.22228
# Poissons Ratio (y) = 0.57445 0.02085
# Poissons Ratio (z) = 0.16461 0.01035
#
# Static dielectric constant tensor:
#      x y z
#    x 3.913960 0.000000 0.000000 
#    y 0.000000 3.770450 0.000000 
#    z 0.000000 0.000000 3.671850 
# 
# 
# High freq. dielectric constant tensor:
#      x y z
#    x 1.816470 0.000000 0.000000 
#    y 0.000000 1.808840 0.000000 
#    z 0.000000 0.000000 1.809360 
# 
# From -- ./inp_files/23749.got.cif
#   From: 2010.03.12/outbox.cif.g09.slc.cpg/sg62_12_cif.got.tgz:23749.got - 2010.04.10 19:12:36.
