data_PCOD8254247
_publ_section_title
;
Structure prediction by ZEFSAII (Michael W. Deem and Ramdas Pophale) SiO2 
 PCOD8254247
Probable space group: P N M A
;
_chemical_formula_sum "Si O2"
_cell_formula_units_Z 64
_cell_length_a 19.328515
_cell_length_b 8.636267
_cell_length_c 19.609187
_cell_angle_alpha 90.000000
_cell_angle_beta 90.000000
_cell_angle_gamma 90.000000
_cell_volume 3273.287390
_symmetry_space_group_name_H-M "P N M A"
_symmetry_group_IT_number 62
_symmetry_cell_setting 'orthorhombic'
loop_
_space_group_symop_operation_xyz
x,y,z
1/2-x,-y,1/2+z
1/2+x,1/2-y,1/2-z
-x,1/2+y,-z
-x,-y,-z
1/2+x,y,1/2-z
1/2-x,1/2+y,1/2+z
x,1/2-y,z
loop_
_atom_site_type_symbol
_atom_site_label
_atom_site_fract_x
_atom_site_fract_y
_atom_site_fract_z
Si Si1 0.097875 0.428306 0.177006
Si Si2 0.247554 0.072522 0.220357
Si Si3 0.064242 0.930347 0.039295
Si Si4 0.714655 0.567547 0.507708
Si Si5 0.723461 0.569361 0.140703
Si Si6 0.076836 0.069613 0.330270
Si Si7 0.527968 0.430468 0.930937
Si Si8 0.171994 0.572206 0.588846
O O1 0.089749 0.250000 0.156566
O O2 0.178158 0.477841 0.180674
O O3 0.059959 0.527363 0.119242
O O4 0.063838 0.463442 0.250448
O O5 0.238852 0.250000 0.245088
O O6 0.311066 0.051540 0.168909
O O7 0.258953 0.966618 0.286518
O O8 0.058224 0.750000 0.031059
O O9 0.136297 0.988824 0.006385
O O10 0.000000 0.000000 0.000000
O O11 0.723285 0.750000 0.494749
O O12 0.734514 0.526917 0.584849
O O13 0.763084 0.473214 0.456718
O O14 0.729132 0.750000 0.124187
O O15 0.643031 0.521386 0.140777
O O16 0.090316 0.250000 0.343747
O O17 0.008021 0.014455 0.367635
O O18 0.511927 0.250000 0.928172
O O19 0.609488 0.459080 0.928364
O O20 0.500000 0.500000 0.000000
O O21 0.152045 0.750000 0.573185
#
# Coordination Sequence:
#
# PCOD8254247 Si02
#       8
#     8   8   8   8   8   8   8   8
#     4   9  18  37  64  89 116 153 195 240 293 353
#     4   9  19  37  61  87 117 154 192 238 292 355
#     4  11  24  40  62  88 118 155 197 247 300 355
#     4  11  23  40  61  89 121 157 198 246 299 355
#     4  11  22  36  60  91 122 158 199 248 295 348
#     4  10  21  40  63  89 122 163 204 246 298 359
#     4  12  25  41  60  87 123 161 203 251 300 356
#     4  11  22  39  64  90 119 158 199 245 300 358
#
# _framework density 19.552211
#
# number of rings (size 3 to 8) (size 9 to 14) (size 15 to 20)
#    0.000    1.500    1.250    5.250    0.000    5.000 
#    2.250    0.000    0.000    0.000    0.000    0.000 
#    0.000    0.000    0.000    0.000    0.000    0.000 
#
# Total GULP energy -793879.169490 kJ/mol
# GULP energy per Si atom -12404.362023 kJ/mol
# Density = 1.950771 g / cm^3
# Si number density = 19.552211 Si / 1000 Ang^3
#
#
#
# Elastic Constant Matrix: (Units=GPa)
#
#
# Indices 1 2 3 4 5 6 
#
# 1 102.1973 25.5690 55.6109 0.0000 0.0000 0.0000
# 2 25.5690 62.8595 31.8216 0.0000 0.0000 0.0000
# 3 55.6109 31.8216 113.7966 0.0000 0.0000 0.0000
# 4 0.0000 0.0000 0.0000 35.7268 0.0000 0.0000
# 5 0.0000 0.0000 0.0000 0.0000 33.0586 0.0000
# 6 0.0000 0.0000 0.0000 0.0000 0.0000 32.2053
#
#
#
# Elastic Compliance Matrix: (Units=1/GPa)
#
#
# Indices 1 2 3 4 5 6 
#
# 1 0.013668 -0.002538 -0.005970 0.000000 0.000000 0.000000
# 2 -0.002538 0.019003 -0.004074 0.000000 0.000000 0.000000
# 3 -0.005970 -0.004074 0.012844 0.000000 0.000000 0.000000
# 4 0.000000 0.000000 0.000000 0.027990 0.000000 0.000000
# 5 0.000000 0.000000 0.000000 0.000000 0.030249 0.000000
# 6 0.000000 0.000000 0.000000 0.000000 0.000000 0.031051
#
#
# Mechanical properties :
#
#
# Convention : Reuss Voigt Hill
#
# Bulk Modulus (GPa) = 49.13315 56.09516 52.61415
# Shear Modulus (GPa) = 29.98444 31.25494 30.61969
#
# Velocity S-wave (km/s) = 3.92031 4.00251 3.96162
# Velocity P-wave (km/s) = 6.75837 7.07901 6.92055
#
# Compressibility (1/GPa) = 0.02035286
#
# Stress axis : x y z
#
# Youngs Moduli (GPa) = 73.16104 52.62329 77.85586
#
# Poissons Ratio (x) = 0.13354 0.46480
# Poissons Ratio (y) = 0.18566 0.31717
# Poissons Ratio (z) = 0.43677 0.21438
#
# Static dielectric constant tensor:
#      x y z
#    x 3.582350 0.000000 0.000000 
#    y 0.000000 3.576070 0.000000 
#    z 0.000000 0.000000 3.702340 
# 
# 
# High freq. dielectric constant tensor:
#      x y z
#    x 1.749450 0.000000 0.000000 
#    y 0.000000 1.768160 0.000000 
#    z 0.000000 0.000000 1.773630 
# 
# From -- ./inp_files/24707.got.cif
#   From: 2010.03.12/outbox.cif.g09.slc.cpg/sg62_13_cif.got.tgz:24707.got - 2010.04.10 19:12:36.
