data_PCOD8254103
_publ_section_title
;
Structure prediction by ZEFSAII (Michael W. Deem and Ramdas Pophale) SiO2 
 PCOD8254103
Probable space group: P N M A
;
_chemical_formula_sum "Si O2"
_cell_formula_units_Z 64
_cell_length_a 22.478346
_cell_length_b 13.827670
_cell_length_c 9.560815
_cell_angle_alpha 90.000000
_cell_angle_beta 90.000000
_cell_angle_gamma 90.000000
_cell_volume 2971.722641
_symmetry_space_group_name_H-M "P N M A"
_symmetry_group_IT_number 62
_symmetry_cell_setting 'orthorhombic'
loop_
_space_group_symop_operation_xyz
x,y,z
1/2-x,-y,1/2+z
1/2+x,1/2-y,1/2-z
-x,1/2+y,-z
-x,-y,-z
1/2+x,y,1/2-z
1/2-x,1/2+y,1/2+z
x,1/2-y,z
loop_
_atom_site_type_symbol
_atom_site_label
_atom_site_fract_x
_atom_site_fract_y
_atom_site_fract_z
Si Si1 0.609943 0.643749 0.640429
Si Si2 0.703668 0.365674 0.101718
Si Si3 0.694271 0.865096 0.403688
Si Si4 0.518923 0.863611 0.113274
Si Si5 0.430001 0.864213 0.864575
Si Si6 0.718855 0.856293 0.844592
Si Si7 0.154421 0.634377 0.394120
Si Si8 0.001753 0.515616 0.834964
O O1 0.581270 0.750000 0.613202
O O2 0.638272 0.601066 0.497675
O O3 0.660358 0.655602 0.753747
O O4 0.561385 0.572600 0.702493
O O5 0.709051 0.250000 0.107956
O O6 0.635595 0.399585 0.085795
O O7 0.730330 0.407701 0.249685
O O8 0.743163 0.402890 0.969434
O O9 0.695070 0.750000 0.401100
O O10 0.682484 0.906203 0.249251
O O11 0.515427 0.750000 0.140803
O O12 0.586269 0.899978 0.084394
O O13 0.495822 0.913236 0.255479
O O14 0.477622 0.894099 0.982965
O O15 0.430219 0.750000 0.836165
O O16 0.446622 0.919768 0.721634
O O17 0.742468 0.750000 0.887955
O O18 0.698302 0.911004 0.987056
O O19 0.154727 0.750000 0.401651
O O20 0.000000 0.500000 0.000000
#
# Coordination Sequence:
#
# PCOD8254103 Si02
#       8
#     8   8   8   8   8   8   8   8
#     4   9  17  32  54  80 109 143 185 227 273 332
#     4   8  15  30  52  79 109 144 183 220 273 346
#     4   8  14  26  49  78 108 143 183 230 278 326
#     4  10  22  39  59  84 115 153 196 241 285 339
#     4  10  21  39  61  83 115 157 192 226 283 357
#     4   8  14  26  50  80 106 137 181 230 274 325
#     4   9  15  26  48  78 106 134 181 241 287 317
#     4  12  24  36  56  84 116 149 188 239 290 338
#
# _framework density 21.536328999999999
#
# number of rings (size 3 to 8) (size 9 to 14) (size 15 to 20)
#    0.000    2.750    0.000    3.750    0.000    4.000 
#    0.000    1.250    0.000   18.000    0.000    0.000 
#    0.000    0.000    0.000    0.000    0.000    0.000 
#
# Total GULP energy -793153.142945 kJ/mol
# GULP energy per Si atom -12393.017859 kJ/mol
# Density = 2.148731 g / cm^3
# Si number density = 21.536329 Si / 1000 Ang^3
#
#
#
# Elastic Constant Matrix: (Units=GPa)
#
#
# Indices 1 2 3 4 5 6 
#
# 1 152.0834 39.1548 74.9746 0.0000 0.0000 0.0000
# 2 39.1548 33.5464 19.1317 0.0000 0.0000 0.0000
# 3 74.9746 19.1317 173.1735 0.0000 0.0000 0.0000
# 4 0.0000 0.0000 0.0000 14.8878 0.0000 0.0000
# 5 0.0000 0.0000 0.0000 0.0000 19.9976 0.0000
# 6 0.0000 0.0000 0.0000 0.0000 0.0000 15.7546
#
#
#
# Elastic Compliance Matrix: (Units=1/GPa)
#
#
# Indices 1 2 3 4 5 6 
#
# 1 0.011198 -0.010998 -0.003633 0.000000 0.000000 0.000000
# 2 -0.010998 0.042616 0.000053 0.000000 0.000000 0.000000
# 3 -0.003633 0.000053 0.007342 0.000000 0.000000 0.000000
# 4 0.000000 0.000000 0.000000 0.067169 0.000000 0.000000
# 5 0.000000 0.000000 0.000000 0.000000 0.050006 0.000000
# 6 0.000000 0.000000 0.000000 0.000000 0.000000 0.063474
#
#
# Mechanical properties :
#
#
# Convention : Reuss Voigt Hill
#
# Bulk Modulus (GPa) = 31.25006 69.48060 50.36533
# Shear Modulus (GPa) = 17.75407 25.16415 21.45911
#
# Velocity S-wave (km/s) = 2.87431 3.42197 3.16003
# Velocity P-wave (km/s) = 5.05544 6.92425 6.06229
#
# Compressibility (1/GPa) = 0.03199994
#
# Stress axis : x y z
#
# Youngs Moduli (GPa) = 89.30268 23.46557 136.21095
#
# Poissons Ratio (x) = 0.25807 0.49486
# Poissons Ratio (y) = 0.98215 -0.00729
# Poissons Ratio (z) = 0.32444 -0.00126
#
# Static dielectric constant tensor:
#      x y z
#    x 4.037640 0.000000 0.000000 
#    y 0.000000 3.699380 0.000000 
#    z 0.000000 0.000000 4.269570 
# 
# 
# High freq. dielectric constant tensor:
#      x y z
#    x 1.840900 0.000000 0.000000 
#    y 0.000000 1.832960 0.000000 
#    z 0.000000 0.000000 1.844730 
# 
# From -- ./inp_files/9487.got.cif
#   From: 2010.03.12/outbox.cif.g09.slc.cpg/sg62_5_cif.got.tgz:9487.got - 2010.04.10 19:12:36.
