data_PCOD8254092
_publ_section_title
;
Structure prediction by ZEFSAII (Michael W. Deem and Ramdas Pophale) SiO2 
 PCOD8254092
Probable space group: P N M A
;
_chemical_formula_sum "Si O2"
_cell_formula_units_Z 56
_cell_length_a 10.369469
_cell_length_b 13.484326
_cell_length_c 19.508114
_cell_angle_alpha 90.000000
_cell_angle_beta 90.000000
_cell_angle_gamma 90.000000
_cell_volume 2727.727901
_symmetry_space_group_name_H-M "P N M A"
_symmetry_group_IT_number 62
_symmetry_cell_setting 'orthorhombic'
loop_
_space_group_symop_operation_xyz
x,y,z
1/2-x,-y,1/2+z
1/2+x,1/2-y,1/2-z
-x,1/2+y,-z
-x,-y,-z
1/2+x,y,1/2-z
1/2-x,1/2+y,1/2+z
x,1/2-y,z
loop_
_atom_site_type_symbol
_atom_site_label
_atom_site_fract_x
_atom_site_fract_y
_atom_site_fract_z
Si Si1 0.659439 0.991646 0.935938
Si Si2 0.952798 0.632771 0.192722
Si Si3 0.352396 0.366170 0.196789
Si Si4 0.559145 0.135750 0.307512
Si Si5 0.426479 0.132376 0.943197
Si Si6 0.947707 0.013703 0.924460
Si Si7 0.668669 0.632778 0.206189
O O1 0.614228 0.929137 0.870359
O O2 0.797817 0.042146 0.926760
O O3 0.567135 0.084340 0.950578
O O4 0.665621 0.914795 0.999317
O O5 0.952882 0.750000 0.195228
O O6 0.814114 0.594727 0.221378
O O7 0.974681 0.600941 0.114162
O O8 0.067539 0.585602 0.239345
O O9 0.375214 0.250000 0.180489
O O10 0.451729 0.404190 0.254629
O O11 0.204180 0.384499 0.220711
O O12 0.535899 0.250000 0.321389
O O13 0.534882 0.086569 0.381108
O O14 0.437216 0.250000 0.953065
O O15 0.368113 0.102031 0.870276
O O16 0.000000 0.000000 0.000000
O O17 0.660585 0.750000 0.214398
#
# Coordination Sequence:
#
# PCOD8254092 Si02
#       7
#     8   8   8   8   8   8   8
#     4  10  22  38  58  89 114 157 199 238 297 353
#     4  10  22  38  60  88 119 154 194 240 296 354
#     4   9  18  37  61  86 114 148 191 238 288 347
#     4   9  20  38  60  85 113 151 194 238 291 344
#     4  10  21  39  60  84 120 156 196 243 293 354
#     4  11  24  39  58  85 116 156 200 246 296 352
#     4   9  20  37  59  85 115 156 194 234 289 352
#
# _framework density 20.529907000000001
#
# number of rings (size 3 to 8) (size 9 to 14) (size 15 to 20)
#    0.000    2.286    0.000    1.286    4.000    2.857 
#    5.143    0.000    0.000    0.000    0.000    0.000 
#    0.000    0.000    0.000    0.000    0.000    0.000 
#
# Total GULP energy -694429.715073 kJ/mol
# GULP energy per Si atom -12400.530626 kJ/mol
# Density = 2.048318 g / cm^3
# Si number density = 20.529907 Si / 1000 Ang^3
#
#
#
# Elastic Constant Matrix: (Units=GPa)
#
#
# Indices 1 2 3 4 5 6 
#
# 1 128.7576 37.8707 68.4253 0.0000 0.0000 0.0000
# 2 37.8707 41.6331 16.5594 0.0000 0.0000 0.0000
# 3 68.4253 16.5594 138.4595 0.0000 0.0000 0.0000
# 4 0.0000 0.0000 0.0000 30.1092 0.0000 0.0000
# 5 0.0000 0.0000 0.0000 0.0000 38.0712 0.0000
# 6 0.0000 0.0000 0.0000 0.0000 0.0000 22.2277
#
#
#
# Elastic Compliance Matrix: (Units=1/GPa)
#
#
# Indices 1 2 3 4 5 6 
#
# 1 0.013752 -0.010296 -0.005565 0.000000 0.000000 0.000000
# 2 -0.010296 0.032927 0.001150 0.000000 0.000000 0.000000
# 3 -0.005565 0.001150 0.009835 0.000000 0.000000 0.000000
# 4 0.000000 0.000000 0.000000 0.033212 0.000000 0.000000
# 5 0.000000 0.000000 0.000000 0.000000 0.026267 0.000000
# 6 0.000000 0.000000 0.000000 0.000000 0.000000 0.044989
#
#
# Mechanical properties :
#
#
# Convention : Reuss Voigt Hill
#
# Bulk Modulus (GPa) = 36.90979 61.61790 49.26384
# Shear Modulus (GPa) = 25.07090 30.48126 27.77608
#
# Velocity S-wave (km/s) = 3.49834 3.85739 3.68225
# Velocity P-wave (km/s) = 5.85965 7.06528 6.49052
#
# Compressibility (1/GPa) = 0.02709308
#
# Stress axis : x y z
#
# Youngs Moduli (GPa) = 72.71633 30.36993 101.67934
#
# Poissons Ratio (x) = 0.31269 0.56582
# Poissons Ratio (y) = 0.74868 -0.11694
# Poissons Ratio (z) = 0.40465 -0.03493
#
# Static dielectric constant tensor:
#      x y z
#    x 4.010790 0.000000 0.000000 
#    y 0.000000 3.604260 0.000000 
#    z 0.000000 0.000000 3.738790 
# 
# 
# High freq. dielectric constant tensor:
#      x y z
#    x 1.813800 0.000000 0.000000 
#    y 0.000000 1.805280 0.000000 
#    z 0.000000 0.000000 1.799520 
# 
# From -- ./inp_files/25972.got.cif
#   From: 2010.03.12/outbox.cif.g09.slc.cpg/sg62_13_cif.got.tgz:25972.got - 2010.04.10 19:12:36.
