data_PCOD8254853
_publ_section_title
;
Structure prediction by ZEFSAII (Michael W. Deem and Ramdas Pophale) SiO2 
 PCOD8254853
Probable space group: P N M A
;
_chemical_formula_sum "Si O2"
_cell_formula_units_Z 44
_cell_length_a 11.374064
_cell_length_b 19.016436
_cell_length_c 8.192950
_cell_angle_alpha 90.000000
_cell_angle_beta 90.000000
_cell_angle_gamma 90.000000
_cell_volume 1772.087239
_symmetry_space_group_name_H-M "P N M A"
_symmetry_group_IT_number 62
_symmetry_cell_setting 'orthorhombic'
loop_
_space_group_symop_operation_xyz
x,y,z
1/2-x,-y,1/2+z
1/2+x,1/2-y,1/2-z
-x,1/2+y,-z
-x,-y,-z
1/2+x,y,1/2-z
1/2-x,1/2+y,1/2+z
x,1/2-y,z
loop_
_atom_site_type_symbol
_atom_site_label
_atom_site_fract_x
_atom_site_fract_y
_atom_site_fract_z
Si Si1 0.354317 0.250000 0.212619
Si Si2 0.206266 0.465691 0.203592
Si Si3 0.672654 0.250000 0.985319
Si Si4 0.573042 0.599776 0.189973
Si Si5 0.519364 0.367582 0.124961
Si Si6 0.105230 0.026162 0.887626
Si Si7 0.823108 0.250000 0.670764
O O1 0.263322 0.250000 0.361038
O O2 0.434521 0.319565 0.237055
O O3 0.295172 0.250000 0.027281
O O4 0.169698 0.547366 0.232889
O O5 0.107728 0.414234 0.271982
O O6 0.337586 0.461012 0.281515
O O7 0.209619 0.448015 0.009952
O O8 0.592804 0.318300 0.002970
O O9 0.715613 0.250000 0.798063
O O10 0.444808 0.587004 0.273355
O O11 0.604944 0.680668 0.219415
O O12 0.558325 0.583937 0.996241
O O13 0.000000 0.000000 0.000000
#
# Coordination Sequence:
#
# PCOD8254853 Si02
#       7
#     4   8   4   8   8   8   4
#     4   9  23  47  64 106 134 176 237 279 357 409
#     4  11  23  40  68  96 139 181 227 290 353 418
#     4  11  25  41  74  93 140 177 234 285 347 419
#     4  10  23  44  65  99 133 181 230 288 354 420
#     4  10  23  43  66  99 134 177 226 292 343 420
#     4  10  24  40  64  98 134 177 232 281 354 421
#     4  10  24  42  72  93 138 181 225 288 342 422
#
# _framework density 24.829477000000001
#
# number of rings (size 3 to 8) (size 9 to 14) (size 15 to 20)
#    0.000    1.818    0.000    2.182   10.182    5.818 
#    0.000    1.818    0.000    0.000    0.000    0.000 
#    0.000    0.000    0.000    0.000    0.000    0.000 
#
# Total GULP energy -545079.342118 kJ/mol
# GULP energy per Si atom -12388.166866 kJ/mol
# Density = 2.477296 g / cm^3
# Si number density = 24.829477 Si / 1000 Ang^3
#
#
#
# Elastic Constant Matrix: (Units=GPa)
#
#
# Indices 1 2 3 4 5 6 
#
# 1 50.9020 -23.3231 -6.2186 0.0000 0.0000 0.0000
# 2 -23.3231 85.0631 -6.5613 0.0000 0.0000 0.0000
# 3 -6.2186 -6.5613 58.7415 0.0000 0.0000 0.0000
# 4 0.0000 0.0000 0.0000 20.2587 0.0000 0.0000
# 5 0.0000 0.0000 0.0000 0.0000 37.9564 0.0000
# 6 0.0000 0.0000 0.0000 0.0000 0.0000 55.7213
#
#
#
# Elastic Compliance Matrix: (Units=1/GPa)
#
#
# Indices 1 2 3 4 5 6 
#
# 1 0.023040 0.006562 0.003172 0.000000 0.000000 0.000000
# 2 0.006562 0.013727 0.002228 0.000000 0.000000 0.000000
# 3 0.003172 0.002228 0.017608 0.000000 0.000000 0.000000
# 4 0.000000 0.000000 0.000000 0.049361 0.000000 0.000000
# 5 0.000000 0.000000 0.000000 0.000000 0.026346 0.000000
# 6 0.000000 0.000000 0.000000 0.000000 0.000000 0.017946
#
#
# Mechanical properties :
#
#
# Convention : Reuss Voigt Hill
#
# Bulk Modulus (GPa) = 12.77158 13.61116 13.19137
# Shear Modulus (GPa) = 33.28784 38.17459 35.73122
#
# Velocity S-wave (km/s) = 3.66547 3.92531 3.79762
# Velocity P-wave (km/s) = 4.80303 5.10273 4.95515
#
# Compressibility (1/GPa) = 0.07829883
#
# Stress axis : x y z
#
# Youngs Moduli (GPa) = 43.40324 72.84916 56.79105
#
# Poissons Ratio (x) = -0.47803 -0.18014
# Poissons Ratio (y) = -0.28481 -0.12653
# Poissons Ratio (z) = -0.13768 -0.16230
#
# Static dielectric constant tensor:
#      x y z
#    x 5.071730 0.000000 0.000000 
#    y 0.000000 4.710840 0.000000 
#    z 0.000000 0.000000 5.300030 
# 
# 
# High freq. dielectric constant tensor:
#      x y z
#    x 2.001510 0.000000 0.000000 
#    y 0.000000 1.981270 0.000000 
#    z 0.000000 0.000000 2.002910 
# 
# From -- ./inp_files/5255.got.cif
#   From: 2010.03.12/outbox.cif.g09.slc.cpg/sg62_3_cif.got.tgz:5255.got - 2010.04.10 19:12:36.
