data_PCOD8254447
_publ_section_title
;
Structure prediction by ZEFSAII (Michael W. Deem and Ramdas Pophale) SiO2 
 PCOD8254447
Probable space group: P N M A
;
_chemical_formula_sum "Si O2"
_cell_formula_units_Z 64
_cell_length_a 8.850022
_cell_length_b 23.059333
_cell_length_c 13.941444
_cell_angle_alpha 90.000000
_cell_angle_beta 90.000000
_cell_angle_gamma 90.000000
_cell_volume 2845.108610
_symmetry_space_group_name_H-M "P N M A"
_symmetry_group_IT_number 62
_symmetry_cell_setting 'orthorhombic'
loop_
_space_group_symop_operation_xyz
x,y,z
1/2-x,-y,1/2+z
1/2+x,1/2-y,1/2-z
-x,1/2+y,-z
-x,-y,-z
1/2+x,y,1/2-z
1/2-x,1/2+y,1/2+z
x,1/2-y,z
loop_
_atom_site_type_symbol
_atom_site_label
_atom_site_fract_x
_atom_site_fract_y
_atom_site_fract_z
Si Si1 0.204306 0.588114 0.904709
Si Si2 0.848384 0.315858 0.788274
Si Si3 0.896230 0.598416 0.975467
Si Si4 0.976939 0.925904 0.172794
Si Si5 0.761819 0.003853 0.750292
Si Si6 0.357224 0.818169 0.026765
Si Si7 0.835965 0.498817 0.453227
Si Si8 0.308716 0.184555 0.927620
O O1 0.260421 0.558509 0.804552
O O2 0.291439 0.647437 0.934019
O O3 0.232329 0.543870 0.991271
O O4 0.023596 0.602452 0.891789
O O5 0.913790 0.250000 0.798730
O O6 0.984382 0.362270 0.787200
O O7 0.735589 0.330824 0.875356
O O8 0.767515 0.321757 0.685008
O O9 0.830193 0.659555 0.011112
O O10 0.000250 0.571635 0.059314
O O11 0.747789 0.562834 0.949627
O O12 0.070010 0.979890 0.217243
O O13 0.799529 0.943052 0.184479
O O14 0.647785 0.011272 0.840603
O O15 0.351719 0.750000 0.002336
O O16 0.526115 0.842102 0.047240
O O17 0.000000 0.500000 0.500000
O O18 0.318190 0.250000 0.960507
#
# Coordination Sequence:
#
# PCOD8254447 Si02
#       8
#     8   8   8   8   8   8   8   8
#     4  12  24  43  67  97 133 177 230 281 347 409
#     4  10  22  37  60  94 135 179 223 275 343 423
#     4  12  24  41  64  92 137 174 220 279 337 401
#     4  12  24  41  61  94 133 178 221 271 334 408
#     4  12  26  42  65  94 137 176 229 282 334 409
#     4  10  22  42  65  94 132 178 231 286 347 419
#     4  12  25  43  65  96 134 181 224 275 344 411
#     4  10  24  40  62  97 137 180 228 281 347 424
#
# _framework density 22.494748000000001
#
# number of rings (size 3 to 8) (size 9 to 14) (size 15 to 20)
#    0.000    0.750    3.750    3.375    7.000    1.000 
#    0.000    0.000    0.000    0.750    0.000    4.375 
#    0.000    0.000    0.000    0.000    0.000    0.000 
#
# Total GULP energy -792909.823399 kJ/mol
# GULP energy per Si atom -12389.215991 kJ/mol
# Density = 2.244355 g / cm^3
# Si number density = 22.494748 Si / 1000 Ang^3
#
#
#
# Elastic Constant Matrix: (Units=GPa)
#
#
# Indices 1 2 3 4 5 6 
#
# 1 110.4075 28.1786 9.0136 0.0000 0.0000 0.0000
# 2 28.1786 73.8984 17.1657 0.0000 0.0000 0.0000
# 3 9.0136 17.1657 46.3335 0.0000 0.0000 0.0000
# 4 0.0000 0.0000 0.0000 32.3877 0.0000 0.0000
# 5 0.0000 0.0000 0.0000 0.0000 36.1182 0.0000
# 6 0.0000 0.0000 0.0000 0.0000 0.0000 33.8451
#
#
#
# Elastic Compliance Matrix: (Units=1/GPa)
#
#
# Indices 1 2 3 4 5 6 
#
# 1 0.010048 -0.003696 -0.000586 0.000000 0.000000 0.000000
# 2 -0.003696 0.016165 -0.005270 0.000000 0.000000 0.000000
# 3 -0.000586 -0.005270 0.023649 0.000000 0.000000 0.000000
# 4 0.000000 0.000000 0.000000 0.030876 0.000000 0.000000
# 5 0.000000 0.000000 0.000000 0.000000 0.027687 0.000000
# 6 0.000000 0.000000 0.000000 0.000000 0.000000 0.029546
#
#
# Mechanical properties :
#
#
# Convention : Reuss Voigt Hill
#
# Bulk Modulus (GPa) = 32.50943 37.70613 35.10778
# Shear Modulus (GPa) = 29.88144 32.22230 31.05187
#
# Velocity S-wave (km/s) = 3.64864 3.78886 3.71941
# Velocity P-wave (km/s) = 5.67745 5.99493 5.83835
#
# Compressibility (1/GPa) = 0.03076031
#
# Stress axis : x y z
#
# Youngs Moduli (GPa) = 99.51865 61.86037 42.28502
#
# Poissons Ratio (x) = 0.22861 0.02476
# Poissons Ratio (y) = 0.36778 0.22284
# Poissons Ratio (z) = 0.05828 0.32601
#
# Static dielectric constant tensor:
#      x y z
#    x 4.059180 0.000000 0.000000 
#    y 0.000000 4.064670 0.000000 
#    z 0.000000 0.000000 4.111210 
# 
# 
# High freq. dielectric constant tensor:
#      x y z
#    x 1.903760 0.000000 0.000000 
#    y 0.000000 1.878470 0.000000 
#    z 0.000000 0.000000 1.858600 
# 
# From -- ./inp_files/17339.got.cif
#   From: 2010.03.12/outbox.cif.g09.slc.cpg/sg62_9_cif.got.tgz:17339.got - 2010.04.10 19:12:36.
