data_PCOD8254563
_publ_section_title
;
Structure prediction by ZEFSAII (Michael W. Deem and Ramdas Pophale) SiO2 
 PCOD8254563
Probable space group: P N M A
;
_chemical_formula_sum "Si O2"
_cell_formula_units_Z 56
_cell_length_a 21.368981
_cell_length_b 9.070042
_cell_length_c 14.360592
_cell_angle_alpha 90.000000
_cell_angle_beta 90.000000
_cell_angle_gamma 90.000000
_cell_volume 2783.334832
_symmetry_space_group_name_H-M "P N M A"
_symmetry_group_IT_number 62
_symmetry_cell_setting 'orthorhombic'
loop_
_space_group_symop_operation_xyz
x,y,z
1/2-x,-y,1/2+z
1/2+x,1/2-y,1/2-z
-x,1/2+y,-z
-x,-y,-z
1/2+x,y,1/2-z
1/2-x,1/2+y,1/2+z
x,1/2-y,z
loop_
_atom_site_type_symbol
_atom_site_label
_atom_site_fract_x
_atom_site_fract_y
_atom_site_fract_z
Si Si1 0.379193 0.419135 0.603677
Si Si2 0.671359 0.919317 0.066493
Si Si3 0.483346 0.919575 0.714253
Si Si4 0.541526 0.419651 0.075747
Si Si5 0.752571 0.075957 0.384295
Si Si6 0.216586 0.079530 0.798838
Si Si7 0.893519 0.081209 0.107110
O O1 0.364607 0.250000 0.628487
O O2 0.426707 0.480613 0.679634
O O3 0.315472 0.507706 0.608753
O O4 0.409674 0.435440 0.501733
O O5 0.650187 0.750000 0.057239
O O6 0.715253 0.942834 0.156031
O O7 0.611337 0.019400 0.079576
O O8 0.708044 0.969940 0.974497
O O9 0.469060 0.750000 0.688246
O O10 0.491339 0.940952 0.824490
O O11 0.547069 0.973372 0.665983
O O12 0.545385 0.250000 0.047524
O O13 0.500000 0.500000 0.000000
O O14 0.745806 0.250000 0.375078
O O15 0.789089 0.013039 0.295437
O O16 0.203704 0.250000 0.777561
O O17 0.164845 0.022522 0.870654
O O18 0.876443 0.250000 0.131933
#
# Coordination Sequence:
#
# PCOD8254563 Si02
#       7
#     8   8   8   8   8   8   8
#     4  11  22  38  63  96 127 160 206 259 307 366
#     4  10  23  43  64  88 124 164 203 251 309 368
#     4  10  23  42  63  88 123 169 210 251 313 377
#     4  11  25  43  65  91 123 163 211 260 310 370
#     4  11  23  40  63  89 123 166 203 250 313 373
#     4  11  23  40  63  95 127 161 208 260 310 368
#     4  10  22  40  62  91 127 165 207 254 309 375
#
# _framework density 20.119748999999999
#
# number of rings (size 3 to 8) (size 9 to 14) (size 15 to 20)
#    0.000    1.429    1.429    3.000    2.000    6.857 
#    0.000    0.000    0.000    0.000    0.000    0.000 
#    0.000    0.000    0.000    0.000    0.000    0.000 
#
# Total GULP energy -694794.231626 kJ/mol
# GULP energy per Si atom -12407.039850 kJ/mol
# Density = 2.007396 g / cm^3
# Si number density = 20.119749 Si / 1000 Ang^3
#
#
#
# Elastic Constant Matrix: (Units=GPa)
#
#
# Indices 1 2 3 4 5 6 
#
# 1 76.2959 34.9747 6.9505 0.0000 0.0000 0.0000
# 2 34.9747 89.7312 30.2202 0.0000 0.0000 0.0000
# 3 6.9505 30.2202 80.9605 0.0000 0.0000 0.0000
# 4 0.0000 0.0000 0.0000 34.4142 0.0000 0.0000
# 5 0.0000 0.0000 0.0000 0.0000 29.3375 0.0000
# 6 0.0000 0.0000 0.0000 0.0000 0.0000 25.9691
#
#
#
# Elastic Compliance Matrix: (Units=1/GPa)
#
#
# Indices 1 2 3 4 5 6 
#
# 1 0.016043 -0.006621 0.001094 0.000000 0.000000 0.000000
# 2 -0.006621 0.015480 -0.005210 0.000000 0.000000 0.000000
# 3 0.001094 -0.005210 0.014202 0.000000 0.000000 0.000000
# 4 0.000000 0.000000 0.000000 0.029058 0.000000 0.000000
# 5 0.000000 0.000000 0.000000 0.000000 0.034086 0.000000
# 6 0.000000 0.000000 0.000000 0.000000 0.000000 0.038507
#
#
# Mechanical properties :
#
#
# Convention : Reuss Voigt Hill
#
# Bulk Modulus (GPa) = 41.23533 43.47535 42.35534
# Shear Modulus (GPa) = 28.25927 29.60033 28.92980
#
# Velocity S-wave (km/s) = 3.75180 3.83979 3.79605
# Velocity P-wave (km/s) = 6.26957 6.42759 6.34907
#
# Compressibility (1/GPa) = 0.02425105
#
# Stress axis : x y z
#
# Youngs Moduli (GPa) = 62.33437 64.60029 70.41078
#
# Poissons Ratio (x) = 0.42775 -0.07705
# Poissons Ratio (y) = 0.41275 0.36682
# Poissons Ratio (z) = -0.06822 0.33655
#
# Static dielectric constant tensor:
#      x y z
#    x 3.599400 0.000000 0.000000 
#    y 0.000000 3.785160 0.000000 
#    z 0.000000 0.000000 3.870940 
# 
# 
# High freq. dielectric constant tensor:
#      x y z
#    x 1.786600 0.000000 0.000000 
#    y 0.000000 1.791250 0.000000 
#    z 0.000000 0.000000 1.801530 
# 
# From -- ./inp_files/20263.got.cif
#   From: 2010.03.12/outbox.cif.g09.slc.cpg/sg62_11_cif.got.tgz:20263.got - 2010.04.10 19:12:36.
