data_PCOD8254241
_publ_section_title
;
Structure prediction by ZEFSAII (Michael W. Deem and Ramdas Pophale) SiO2 
 PCOD8254241
Probable space group: P N M A
;
_chemical_formula_sum "Si O2"
_cell_formula_units_Z 40
_cell_length_a 15.152987
_cell_length_b 8.648692
_cell_length_c 15.214793
_cell_angle_alpha 90.000000
_cell_angle_beta 90.000000
_cell_angle_gamma 90.000000
_cell_volume 1993.952140
_symmetry_space_group_name_H-M "P N M A"
_symmetry_group_IT_number 62
_symmetry_cell_setting 'orthorhombic'
loop_
_space_group_symop_operation_xyz
x,y,z
1/2-x,-y,1/2+z
1/2+x,1/2-y,1/2-z
-x,1/2+y,-z
-x,-y,-z
1/2+x,y,1/2-z
1/2-x,1/2+y,1/2+z
x,1/2-y,z
loop_
_atom_site_type_symbol
_atom_site_label
_atom_site_fract_x
_atom_site_fract_y
_atom_site_fract_z
Si Si1 0.444059 0.933119 0.922143
Si Si2 0.769353 0.066012 0.821941
Si Si3 0.246976 0.067582 0.481341
Si Si4 0.037759 0.932351 0.237525
Si Si5 0.362135 0.433076 0.321721
O O1 0.454540 0.750000 0.914424
O O2 0.343992 0.985853 0.937492
O O3 0.481349 0.013867 0.835881
O O4 0.500000 0.000000 0.000000
O O5 0.762359 0.250000 0.819176
O O6 0.865838 0.008652 0.791518
O O7 0.693654 0.999845 0.759455
O O8 0.756585 0.998556 0.920602
O O9 0.250287 0.250000 0.490475
O O10 0.323054 0.009245 0.415209
O O11 0.029697 0.750000 0.229193
O O12 0.962566 0.008604 0.177393
O O13 0.358383 0.250000 0.313999
#
# Coordination Sequence:
#
# PCOD8254241 Si02
#       5
#     8   8   8   8   8
#     4  11  21  37  61  90 123 158 205 256 308 362
#     4  10  21  40  63  87 121 161 202 252 309 368
#     4   9  20  38  60  85 118 157 198 251 308 357
#     4  11  23  38  59  88 123 162 203 249 308 370
#     4  11  22  39  62  88 120 159 205 255 309 364
#
# _framework density 20.060663999999999
#
# number of rings (size 3 to 8) (size 9 to 14) (size 15 to 20)
#    0.000    1.600    2.000    3.000    0.000    3.200 
#    0.000    3.000    0.000    0.000    0.000    0.000 
#    0.000    0.000    0.000    0.000    0.000    0.000 
#
# Total GULP energy -496076.510845 kJ/mol
# GULP energy per Si atom -12401.912771 kJ/mol
# Density = 2.001500 g / cm^3
# Si number density = 20.060664 Si / 1000 Ang^3
#
#
#
# Elastic Constant Matrix: (Units=GPa)
#
#
# Indices 1 2 3 4 5 6 
#
# 1 79.4756 18.1908 2.1246 0.0000 0.0000 0.0000
# 2 18.1908 34.2782 16.2953 0.0000 0.0000 0.0000
# 3 2.1246 16.2953 89.5121 0.0000 0.0000 0.0000
# 4 0.0000 0.0000 0.0000 26.5619 0.0000 0.0000
# 5 0.0000 0.0000 0.0000 0.0000 41.3624 0.0000
# 6 0.0000 0.0000 0.0000 0.0000 0.0000 31.1238
#
#
#
# Elastic Compliance Matrix: (Units=1/GPa)
#
#
# Indices 1 2 3 4 5 6 
#
# 1 0.014430 -0.008205 0.001151 0.000000 0.000000 0.000000
# 2 -0.008205 0.036602 -0.006469 0.000000 0.000000 0.000000
# 3 0.001151 -0.006469 0.012322 0.000000 0.000000 0.000000
# 4 0.000000 0.000000 0.000000 0.037648 0.000000 0.000000
# 5 0.000000 0.000000 0.000000 0.000000 0.024177 0.000000
# 6 0.000000 0.000000 0.000000 0.000000 0.000000 0.032130
#
#
# Mechanical properties :
#
#
# Convention : Reuss Voigt Hill
#
# Bulk Modulus (GPa) = 27.54104 30.72080 29.13092
# Shear Modulus (GPa) = 25.45105 30.91996 28.18550
#
# Velocity S-wave (km/s) = 3.56575 3.93023 3.75242
# Velocity P-wave (km/s) = 5.54179 5.99523 5.77296
#
# Compressibility (1/GPa) = 0.03630945
#
# Stress axis : x y z
#
# Youngs Moduli (GPa) = 69.30169 27.32075 81.15609
#
# Poissons Ratio (x) = 0.22416 -0.09342
# Poissons Ratio (y) = 0.56861 0.52496
# Poissons Ratio (z) = -0.07978 0.17673
#
# Static dielectric constant tensor:
#      x y z
#    x 3.417530 0.000000 0.000000 
#    y 0.000000 3.529900 0.000000 
#    z 0.000000 0.000000 3.914670 
# 
# 
# High freq. dielectric constant tensor:
#      x y z
#    x 1.796030 0.000000 0.000000 
#    y 0.000000 1.766940 0.000000 
#    z 0.000000 0.000000 1.794520 
# 
# From -- ./inp_files/18599.got.cif
#   From: 2010.03.12/outbox.cif.g09.slc.cpg/sg62_10_cif.got.tgz:18599.got - 2010.04.10 19:12:36.
