data_PCOD8254705
_publ_section_title
;
Structure prediction by ZEFSAII (Michael W. Deem and Ramdas Pophale) SiO2 
 PCOD8254705
Probable space group: P N M A
;
_chemical_formula_sum "Si O2"
_cell_formula_units_Z 40
_cell_length_a 21.123598
_cell_length_b 14.270154
_cell_length_c 5.287227
_cell_angle_alpha 90.000000
_cell_angle_beta 90.000000
_cell_angle_gamma 90.000000
_cell_volume 1593.765827
_symmetry_space_group_name_H-M "P N M A"
_symmetry_group_IT_number 62
_symmetry_cell_setting 'orthorhombic'
loop_
_space_group_symop_operation_xyz
x,y,z
1/2-x,-y,1/2+z
1/2+x,1/2-y,1/2-z
-x,1/2+y,-z
-x,-y,-z
1/2+x,y,1/2-z
1/2-x,1/2+y,1/2+z
x,1/2-y,z
loop_
_atom_site_type_symbol
_atom_site_label
_atom_site_fract_x
_atom_site_fract_y
_atom_site_fract_z
Si Si1 0.058353 0.556531 0.390301
Si Si2 0.120786 0.144988 0.048794
Si Si3 0.479506 0.354425 0.368725
Si Si4 0.328987 0.509909 0.149313
Si Si5 0.752521 0.855574 0.628745
O O1 0.047418 0.585208 0.102121
O O2 0.126870 0.504176 0.399720
O O3 0.000000 0.500000 0.500000
O O4 0.061662 0.636520 0.611124
O O5 0.115310 0.250000 0.923665
O O6 0.053983 0.121216 0.189501
O O7 0.126370 0.061679 0.848615
O O8 0.181146 0.148305 0.228109
O O9 0.473414 0.250000 0.469088
O O10 0.304053 0.406625 0.224211
O O11 0.267979 0.578022 0.111909
O O12 0.731093 0.750000 0.551576
#
# Coordination Sequence:
#
# PCOD8254705 Si02
#       5
#     8   8   8   8   8
#     4  12  25  42  72 103 143 183 238 287 361 428
#     4  10  22  42  69  98 133 182 236 286 347 426
#     4  11  25  45  69 103 143 187 236 295 353 429
#     4  12  24  42  72  95 140 183 232 295 365 414
#     4  11  25  44  67 100 134 179 240 294 356 426
#
# _framework density 25.097791999999998
#
# number of rings (size 3 to 8) (size 9 to 14) (size 15 to 20)
#    0.000    0.800    4.000    3.000    2.800    1.600 
#    0.000    0.000    0.000    0.000    0.000    0.000 
#    0.000    0.000    0.000    0.000    0.000    0.000 
#
# Total GULP energy -495630.923053 kJ/mol
# GULP energy per Si atom -12390.773076 kJ/mol
# Density = 2.504067 g / cm^3
# Si number density = 25.097792 Si / 1000 Ang^3
#
#
#
# Elastic Constant Matrix: (Units=GPa)
#
#
# Indices 1 2 3 4 5 6 
#
# 1 93.3314 46.0407 8.4298 0.0000 0.0000 0.0000
# 2 46.0407 134.7737 7.6604 0.0000 0.0000 0.0000
# 3 8.4298 7.6604 67.2979 0.0000 0.0000 0.0000
# 4 0.0000 0.0000 0.0000 30.0387 0.0000 0.0000
# 5 0.0000 0.0000 0.0000 0.0000 42.2734 0.0000
# 6 0.0000 0.0000 0.0000 0.0000 0.0000 32.0844
#
#
#
# Elastic Compliance Matrix: (Units=1/GPa)
#
#
# Indices 1 2 3 4 5 6 
#
# 1 0.012971 -0.004367 -0.001128 0.000000 0.000000 0.000000
# 2 -0.004367 0.008938 -0.000470 0.000000 0.000000 0.000000
# 3 -0.001128 -0.000470 0.015054 0.000000 0.000000 0.000000
# 4 0.000000 0.000000 0.000000 0.033290 0.000000 0.000000
# 5 0.000000 0.000000 0.000000 0.000000 0.023656 0.000000
# 6 0.000000 0.000000 0.000000 0.000000 0.000000 0.031168
#
#
# Mechanical properties :
#
#
# Convention : Reuss Voigt Hill
#
# Bulk Modulus (GPa) = 39.94701 46.62943 43.28822
# Shear Modulus (GPa) = 34.39949 36.43076 35.41512
#
# Velocity S-wave (km/s) = 3.70620 3.81406 3.76052
# Velocity P-wave (km/s) = 5.85369 6.16567 6.01170
#
# Compressibility (1/GPa) = 0.02503316
#
# Stress axis : x y z
#
# Youngs Moduli (GPa) = 77.09787 111.87742 66.42710
#
# Poissons Ratio (x) = 0.48855 0.07491
# Poissons Ratio (y) = 0.33667 0.03125
# Poissons Ratio (z) = 0.08694 0.05263
#
# Static dielectric constant tensor:
#      x y z
#    x 4.613780 0.000000 0.000000 
#    y 0.000000 5.643250 0.000000 
#    z 0.000000 0.000000 4.885240 
# 
# 
# High freq. dielectric constant tensor:
#      x y z
#    x 2.009510 0.000000 0.000000 
#    y 0.000000 2.024900 0.000000 
#    z 0.000000 0.000000 1.978330 
# 
# From -- ./inp_files/2663.got.cif
#   From: 2010.03.12/outbox.cif.g09.slc.cpg/sg62_2_cif.got.tgz:2663.got - 2010.04.10 19:12:36.
