data_PCOD8254821
_publ_section_title
;
Structure prediction by ZEFSAII (Michael W. Deem and Ramdas Pophale) SiO2 
 PCOD8254821
Probable space group: P N M A
;
_chemical_formula_sum "Si O2"
_cell_formula_units_Z 36
_cell_length_a 5.310587
_cell_length_b 10.622757
_cell_length_c 25.313660
_cell_angle_alpha 90.000000
_cell_angle_beta 90.000000
_cell_angle_gamma 90.000000
_cell_volume 1428.021406
_symmetry_space_group_name_H-M "P N M A"
_symmetry_group_IT_number 62
_symmetry_cell_setting 'orthorhombic'
loop_
_space_group_symop_operation_xyz
x,y,z
1/2-x,-y,1/2+z
1/2+x,1/2-y,1/2-z
-x,1/2+y,-z
-x,-y,-z
1/2+x,y,1/2-z
1/2-x,1/2+y,1/2+z
x,1/2-y,z
loop_
_atom_site_type_symbol
_atom_site_label
_atom_site_fract_x
_atom_site_fract_y
_atom_site_fract_z
Si Si1 0.836649 0.250000 0.284719
Si Si2 0.759322 0.112308 0.045443
Si Si3 0.237369 0.395362 0.782083
Si Si4 0.535963 0.535931 0.860823
Si Si5 0.863701 0.390608 0.930898
O O1 0.606680 0.250000 0.244252
O O2 0.816508 0.373200 0.321006
O O3 0.892100 0.250000 0.053723
O O4 0.520278 0.109749 0.084565
O O5 0.684205 0.101867 0.983376
O O6 0.924861 0.994733 0.062511
O O7 0.469607 0.430447 0.742990
O O8 0.249541 0.250000 0.797985
O O9 0.281058 0.480064 0.834184
O O10 0.711712 0.418008 0.877002
O O11 0.979763 0.250000 0.925300
#
# Coordination Sequence:
#
# PCOD8254821 Si02
#       5
#     4   8   8   8   8
#     4  12  30  48  74 114 152 202 262 324 380 468
#     4  10  23  44  69 104 145 195 249 312 384 461
#     4  10  23  42  64  95 135 181 234 302 367 436
#     4  12  24  41  71  99 140 193 246 312 374 459
#     4  10  24  43  69 106 148 191 250 313 385 465
#
# _framework density 25.209703999999999
#
# number of rings (size 3 to 8) (size 9 to 14) (size 15 to 20)
#    0.000    1.333    1.111    2.667    7.778    1.778 
#    0.000    0.000    0.000    0.000    0.000    0.000 
#    0.000    0.000    0.000    0.000    0.000    0.000 
#
# Total GULP energy -446194.895052 kJ/mol
# GULP energy per Si atom -12394.302640 kJ/mol
# Density = 2.515233 g / cm^3
# Si number density = 25.209704 Si / 1000 Ang^3
#
#
#
# Elastic Constant Matrix: (Units=GPa)
#
#
# Indices 1 2 3 4 5 6 
#
# 1 58.2834 16.5671 25.0701 0.0000 0.0000 0.0000
# 2 16.5671 170.5746 54.3604 0.0000 0.0000 0.0000
# 3 25.0701 54.3604 124.1559 0.0000 0.0000 0.0000
# 4 0.0000 0.0000 0.0000 35.9324 0.0000 0.0000
# 5 0.0000 0.0000 0.0000 0.0000 30.4378 0.0000
# 6 0.0000 0.0000 0.0000 0.0000 0.0000 22.9157
#
#
#
# Elastic Compliance Matrix: (Units=1/GPa)
#
#
# Indices 1 2 3 4 5 6 
#
# 1 0.018865 -0.000719 -0.003495 0.000000 0.000000 0.000000
# 2 -0.000719 0.006841 -0.002850 0.000000 0.000000 0.000000
# 3 -0.003495 -0.002850 0.010008 0.000000 0.000000 0.000000
# 4 0.000000 0.000000 0.000000 0.027830 0.000000 0.000000
# 5 0.000000 0.000000 0.000000 0.000000 0.032854 0.000000
# 6 0.000000 0.000000 0.000000 0.000000 0.000000 0.043638
#
#
# Mechanical properties :
#
#
# Convention : Reuss Voigt Hill
#
# Bulk Modulus (GPa) = 46.32409 60.55654 53.44031
# Shear Modulus (GPa) = 30.98704 34.99159 32.98932
#
# Velocity S-wave (km/s) = 3.50976 3.72966 3.62138
# Velocity P-wave (km/s) = 5.90253 6.52843 6.22336
#
# Compressibility (1/GPa) = 0.02158704
#
# Stress axis : x y z
#
# Youngs Moduli (GPa) = 53.00818 146.18623 99.92113
#
# Poissons Ratio (x) = 0.10504 0.34919
# Poissons Ratio (y) = 0.03809 0.28477
# Poissons Ratio (z) = 0.18525 0.41663
#
# Static dielectric constant tensor:
#      x y z
#    x 3.994100 0.000000 0.000000 
#    y 0.000000 4.881980 0.000000 
#    z 0.000000 0.000000 4.995010 
# 
# 
# High freq. dielectric constant tensor:
#      x y z
#    x 1.964350 0.000000 0.000000 
#    y 0.000000 2.027680 0.000000 
#    z 0.000000 0.000000 2.027610 
# 
# From -- ./inp_files/28154.got.cif
#   From: 2010.03.12/outbox.cif.g09.slc.cpg/sg62_15_cif.got.tgz:28154.got - 2010.04.10 19:12:36.
