data_PCOD8254642
_publ_section_title
;
Structure prediction by ZEFSAII (Michael W. Deem and Ramdas Pophale) SiO2 
 PCOD8254642
Probable space group: P N M A
;
_chemical_formula_sum "Si O2"
_cell_formula_units_Z 40
_cell_length_a 17.071842
_cell_length_b 9.718927
_cell_length_c 10.877332
_cell_angle_alpha 90.000000
_cell_angle_beta 90.000000
_cell_angle_gamma 90.000000
_cell_volume 1804.766775
_symmetry_space_group_name_H-M "P N M A"
_symmetry_group_IT_number 62
_symmetry_cell_setting 'orthorhombic'
loop_
_space_group_symop_operation_xyz
x,y,z
1/2-x,-y,1/2+z
1/2+x,1/2-y,1/2-z
-x,1/2+y,-z
-x,-y,-z
1/2+x,y,1/2-z
1/2-x,1/2+y,1/2+z
x,1/2-y,z
loop_
_atom_site_type_symbol
_atom_site_label
_atom_site_fract_x
_atom_site_fract_y
_atom_site_fract_z
Si Si1 0.675503 0.750000 0.615127
Si Si2 0.724961 0.250000 0.739833
Si Si3 0.717857 0.750000 0.894062
Si Si4 0.062202 0.250000 0.894087
Si Si5 0.288765 0.039974 0.584394
Si Si6 0.006597 0.250000 0.161985
Si Si7 0.950035 0.460131 0.774543
Si Si8 0.387180 0.250000 0.899923
O O1 0.712721 0.750000 0.748676
O O2 0.707644 0.613742 0.547884
O O3 0.582130 0.750000 0.617526
O O4 0.650129 0.250000 0.653652
O O5 0.725701 0.384952 0.827455
O O6 0.800109 0.250000 0.653779
O O7 0.765128 0.616452 0.938801
O O8 0.629409 0.750000 0.953218
O O9 0.020517 0.387399 0.846239
O O10 0.062392 0.250000 0.042051
O O11 0.374060 0.055933 0.642123
O O12 0.026748 0.381602 0.246589
O O13 0.934636 0.385924 0.643305
#
# Coordination Sequence:
#
# PCOD8254642 Si02
#       8
#     4   4   4   4   8   4   8   4
#     4  11  26  45  65 105 140 167 233 297 329 406
#     4   9  22  40  68  93 135 175 219 279 345 405
#     4  12  27  39  76  94 130 197 233 263 355 416
#     4  11  21  37  68 103 134 179 224 279 353 405
#     4  10  23  46  63 102 140 171 224 294 337 401
#     4  12  23  37  68 107 134 169 231 297 334 391
#     4  10  22  41  65  93 142 173 210 288 355 383
#     4   9  23  46  59  90 133 179 222 267 330 425
#
# _framework density 22.163526999999998
#
# number of rings (size 3 to 8) (size 9 to 14) (size 15 to 20)
#    0.000    1.600    2.000    2.400   11.200    0.000 
#    0.000    1.000    0.000    0.000    0.000    0.000 
#    0.000    0.000    0.000    0.000    0.000    0.000 
#
# Total GULP energy -496080.928518 kJ/mol
# GULP energy per Si atom -12402.023213 kJ/mol
# Density = 2.211308 g / cm^3
# Si number density = 22.163527 Si / 1000 Ang^3
#
#
#
# Elastic Constant Matrix: (Units=GPa)
#
#
# Indices 1 2 3 4 5 6 
#
# 1 87.5366 46.6295 22.9384 0.0000 0.0000 0.0000
# 2 46.6295 193.9607 44.5546 0.0000 0.0000 0.0000
# 3 22.9384 44.5546 83.2617 0.0000 0.0000 0.0000
# 4 0.0000 0.0000 0.0000 16.8957 0.0000 0.0000
# 5 0.0000 0.0000 0.0000 0.0000 36.2586 0.0000
# 6 0.0000 0.0000 0.0000 0.0000 0.0000 23.6414
#
#
#
# Elastic Compliance Matrix: (Units=1/GPa)
#
#
# Indices 1 2 3 4 5 6 
#
# 1 0.013463 -0.002719 -0.002254 0.000000 0.000000 0.000000
# 2 -0.002719 0.006427 -0.002690 0.000000 0.000000 0.000000
# 3 -0.002254 -0.002690 0.014071 0.000000 0.000000 0.000000
# 4 0.000000 0.000000 0.000000 0.059187 0.000000 0.000000
# 5 0.000000 0.000000 0.000000 0.000000 0.027580 0.000000
# 6 0.000000 0.000000 0.000000 0.000000 0.000000 0.042299
#
#
# Mechanical properties :
#
#
# Convention : Reuss Voigt Hill
#
# Bulk Modulus (GPa) = 53.66361 65.88933 59.77647
# Shear Modulus (GPa) = 27.09089 32.06824 29.57957
#
# Velocity S-wave (km/s) = 3.49996 3.80793 3.65719
# Velocity P-wave (km/s) = 6.37166 7.00907 6.69795
#
# Compressibility (1/GPa) = 0.01863460
#
# Stress axis : x y z
#
# Youngs Moduli (GPa) = 74.27931 155.58673 71.06836
#
# Poissons Ratio (x) = 0.42300 0.16020
# Poissons Ratio (y) = 0.20195 0.19120
# Poissons Ratio (z) = 0.16743 0.41858
#
# Static dielectric constant tensor:
#      x y z
#    x 3.861500 0.000000 0.000000 
#    y 0.000000 4.300750 0.000000 
#    z 0.000000 0.000000 4.070820 
# 
# 
# High freq. dielectric constant tensor:
#      x y z
#    x 1.863750 0.000000 0.000000 
#    y 0.000000 1.887720 0.000000 
#    z 0.000000 0.000000 1.858370 
# 
# From -- ./inp_files/13947.got.cif
#   From: 2010.03.12/outbox.cif.g09.slc.cpg/sg62_7_cif.got.tgz:13947.got - 2010.04.10 19:12:36.
