data_PCOD8254845
_publ_section_title
;
Structure prediction by ZEFSAII (Michael W. Deem and Ramdas Pophale) SiO2 
 PCOD8254845
Probable space group: P N M A
;
_chemical_formula_sum "Si O2"
_cell_formula_units_Z 56
_cell_length_a 15.544808
_cell_length_b 21.627030
_cell_length_c 7.883513
_cell_angle_alpha 90.000000
_cell_angle_beta 90.000000
_cell_angle_gamma 90.000000
_cell_volume 2650.342697
_symmetry_space_group_name_H-M "P N M A"
_symmetry_group_IT_number 62
_symmetry_cell_setting 'orthorhombic'
loop_
_space_group_symop_operation_xyz
x,y,z
1/2-x,-y,1/2+z
1/2+x,1/2-y,1/2-z
-x,1/2+y,-z
-x,-y,-z
1/2+x,y,1/2-z
1/2-x,1/2+y,1/2+z
x,1/2-y,z
loop_
_atom_site_type_symbol
_atom_site_label
_atom_site_fract_x
_atom_site_fract_y
_atom_site_fract_z
Si Si1 0.296495 0.433832 0.365876
Si Si2 0.362946 0.869147 0.298572
Si Si3 0.295995 0.457692 0.736731
Si Si4 0.076040 0.179831 0.139941
Si Si5 0.975839 0.069761 0.288670
Si Si6 0.023851 0.565691 0.323633
Si Si7 0.801853 0.816968 0.543906
O O1 0.321775 0.465523 0.541646
O O2 0.213129 0.471197 0.297775
O O3 0.372697 0.435608 0.229163
O O4 0.273223 0.364111 0.413058
O O5 0.294411 0.924920 0.283438
O O6 0.360170 0.834928 0.481011
O O7 0.461956 0.891690 0.288076
O O8 0.343108 0.823840 0.142769
O O9 0.374352 0.418800 0.818840
O O10 0.037815 0.250000 0.115073
O O11 0.125815 0.177453 0.315255
O O12 0.004834 0.125664 0.164148
O O13 0.004522 0.078220 0.483451
O O14 0.016134 0.003242 0.244569
O O15 0.757781 0.750000 0.550143
#
# Coordination Sequence:
#
# PCOD8254845 Si02
#       7
#     8   8   8   8   8   8   8
#     4  11  23  38  61  94 129 171 214 271 324 398
#     4  11  23  43  67  99 128 172 217 276 334 396
#     4  11  24  37  63  99 129 169 215 267 344 391
#     4  11  24  41  67  93 124 177 221 261 325 394
#     4  11  23  40  64  94 133 171 222 270 331 398
#     4  11  23  40  63  98 135 170 211 283 338 390
#     4  10  23  43  63  90 129 171 215 268 322 387
#
# _framework density 21.129342000000001
#
# number of rings (size 3 to 8) (size 9 to 14) (size 15 to 20)
#    0.000    1.143    2.857    3.000   10.000    1.714 
#    0.000    0.000    0.000    3.429    0.000    0.000 
#    0.000    0.000    0.000    0.000    0.000    0.000 
#
# Total GULP energy -693979.057447 kJ/mol
# GULP energy per Si atom -12392.483169 kJ/mol
# Density = 2.108125 g / cm^3
# Si number density = 21.129342 Si / 1000 Ang^3
#
#
#
# Elastic Constant Matrix: (Units=GPa)
#
#
# Indices 1 2 3 4 5 6 
#
# 1 88.9070 23.2838 17.1245 0.0000 0.0000 0.0000
# 2 23.2838 98.1333 53.4008 0.0000 0.0000 0.0000
# 3 17.1245 53.4008 70.5597 0.0000 0.0000 0.0000
# 4 0.0000 0.0000 0.0000 19.0187 0.0000 0.0000
# 5 0.0000 0.0000 0.0000 0.0000 31.8140 0.0000
# 6 0.0000 0.0000 0.0000 0.0000 0.0000 16.2478
#
#
#
# Elastic Compliance Matrix: (Units=1/GPa)
#
#
# Indices 1 2 3 4 5 6 
#
# 1 0.012062 -0.002157 -0.001295 0.000000 0.000000 0.000000
# 2 -0.002157 0.017711 -0.012881 0.000000 0.000000 0.000000
# 3 -0.001295 -0.012881 0.024235 0.000000 0.000000 0.000000
# 4 0.000000 0.000000 0.000000 0.052580 0.000000 0.000000
# 5 0.000000 0.000000 0.000000 0.000000 0.031433 0.000000
# 6 0.000000 0.000000 0.000000 0.000000 0.000000 0.061547
#
#
# Mechanical properties :
#
#
# Convention : Reuss Voigt Hill
#
# Bulk Modulus (GPa) = 46.85401 49.46868 48.16134
# Shear Modulus (GPa) = 20.89016 24.33550 22.61283
#
# Velocity S-wave (km/s) = 3.14774 3.39741 3.27495
# Velocity P-wave (km/s) = 5.95265 6.23322 6.09455
#
# Compressibility (1/GPa) = 0.02134289
#
# Stress axis : x y z
#
# Youngs Moduli (GPa) = 82.90449 56.46102 41.26279
#
# Poissons Ratio (x) = 0.12181 0.05342
# Poissons Ratio (y) = 0.17886 0.53149
# Poissons Ratio (z) = 0.10733 0.72725
#
# Static dielectric constant tensor:
#      x y z
#    x 3.582940 0.000000 0.000000 
#    y 0.000000 3.998490 0.000000 
#    z 0.000000 0.000000 3.920540 
# 
# 
# High freq. dielectric constant tensor:
#      x y z
#    x 1.812890 0.000000 0.000000 
#    y 0.000000 1.820040 0.000000 
#    z 0.000000 0.000000 1.845330 
# 
# From -- ./inp_files/6780.got.cif
#   From: 2010.03.12/outbox.cif.g09.slc.cpg/sg62_4_cif.got.tgz:6780.got - 2010.04.10 19:12:36.
