data_PCOD8254264
_publ_section_title
;
Structure prediction by ZEFSAII (Michael W. Deem and Ramdas Pophale) SiO2 
 PCOD8254264
Probable space group: P N M A
;
_chemical_formula_sum "Si O2"
_cell_formula_units_Z 56
_cell_length_a 21.162865
_cell_length_b 8.837151
_cell_length_c 14.984534
_cell_angle_alpha 90.000000
_cell_angle_beta 90.000000
_cell_angle_gamma 90.000000
_cell_volume 2802.399061
_symmetry_space_group_name_H-M "P N M A"
_symmetry_group_IT_number 62
_symmetry_cell_setting 'orthorhombic'
loop_
_space_group_symop_operation_xyz
x,y,z
1/2-x,-y,1/2+z
1/2+x,1/2-y,1/2-z
-x,1/2+y,-z
-x,-y,-z
1/2+x,y,1/2-z
1/2-x,1/2+y,1/2+z
x,1/2-y,z
loop_
_atom_site_type_symbol
_atom_site_label
_atom_site_fract_x
_atom_site_fract_y
_atom_site_fract_z
Si Si1 0.769027 0.071175 0.684937
Si Si2 0.532997 0.576416 0.743299
Si Si3 0.242410 0.575241 0.519287
Si Si4 0.166204 0.922376 0.685804
Si Si5 0.448046 0.926762 0.438177
Si Si6 0.863498 0.072956 0.935948
Si Si7 0.894003 0.924734 0.760050
O O1 0.768329 0.250000 0.691876
O O2 0.764705 0.017335 0.581896
O O3 0.710886 0.013551 0.745295
O O4 0.838085 0.016991 0.714605
O O5 0.537494 0.750000 0.708890
O O6 0.591579 0.537281 0.808209
O O7 0.539594 0.458238 0.664045
O O8 0.463052 0.553111 0.787733
O O9 0.264783 0.750000 0.520406
O O10 0.180249 0.552501 0.580463
O O11 0.290314 0.467916 0.573762
O O12 0.178733 0.750000 0.713212
O O13 0.444429 0.750000 0.455503
O O14 0.500000 0.000000 0.500000
O O15 0.382648 0.006679 0.467235
O O16 0.876437 0.250000 0.927934
O O17 0.903658 0.986972 0.860268
O O18 0.873890 0.750000 0.761913
#
# Coordination Sequence:
#
# PCOD8254264 Si02
#       7
#     8   8   8   8   8   8   8
#     4  11  23  39  61  91 122 158 206 254 303 358
#     4  10  22  39  60  87 119 159 205 251 304 366
#     4  10  22  40  62  88 121 159 200 253 307 359
#     4  10  21  40  64  88 119 160 202 250 309 365
#     4  12  23  35  54  82 118 157 195 241 299 363
#     4  12  23  36  58  87 119 155 197 247 301 365
#     4  11  22  38  60  85 120 160 199 247 303 361
#
# _framework density 19.982880000000002
#
# number of rings (size 3 to 8) (size 9 to 14) (size 15 to 20)
#    0.000    1.143    2.857    4.286    0.000    4.571 
#    0.000    0.714    0.000    0.000    0.000    0.000 
#    0.000    0.000    0.000    0.000    0.000    0.000 
#
# Total GULP energy -694074.219662 kJ/mol
# GULP energy per Si atom -12394.182494 kJ/mol
# Density = 1.993740 g / cm^3
# Si number density = 19.982880 Si / 1000 Ang^3
#
#
#
# Elastic Constant Matrix: (Units=GPa)
#
#
# Indices 1 2 3 4 5 6 
#
# 1 126.2542 25.5127 25.3897 0.0000 0.0000 0.0000
# 2 25.5127 74.4349 16.5840 0.0000 0.0000 0.0000
# 3 25.3897 16.5840 71.6406 0.0000 0.0000 0.0000
# 4 0.0000 0.0000 0.0000 24.4567 0.0000 0.0000
# 5 0.0000 0.0000 0.0000 0.0000 32.7329 0.0000
# 6 0.0000 0.0000 0.0000 0.0000 0.0000 24.3150
#
#
#
# Elastic Compliance Matrix: (Units=1/GPa)
#
#
# Indices 1 2 3 4 5 6 
#
# 1 0.008945 -0.002488 -0.002594 0.000000 0.000000 0.000000
# 2 -0.002488 0.014857 -0.002558 0.000000 0.000000 0.000000
# 3 -0.002594 -0.002558 0.015470 0.000000 0.000000 0.000000
# 4 0.000000 0.000000 0.000000 0.040889 0.000000 0.000000
# 5 0.000000 0.000000 0.000000 0.000000 0.030550 0.000000
# 6 0.000000 0.000000 0.000000 0.000000 0.000000 0.041127
#
#
# Mechanical properties :
#
#
# Convention : Reuss Voigt Hill
#
# Bulk Modulus (GPa) = 41.67922 45.25584 43.46753
# Shear Modulus (GPa) = 28.55272 29.95715 29.25494
#
# Velocity S-wave (km/s) = 3.78413 3.87607 3.83038
# Velocity P-wave (km/s) = 6.32420 6.53670 6.43133
#
# Compressibility (1/GPa) = 0.02399277
#
# Stress axis : x y z
#
# Youngs Moduli (GPa) = 111.79476 67.30782 64.64130
#
# Poissons Ratio (x) = 0.16746 0.16769
# Poissons Ratio (y) = 0.27814 0.16532
# Poissons Ratio (z) = 0.29002 0.17214
#
# Static dielectric constant tensor:
#      x y z
#    x 3.928960 0.000000 0.000000 
#    y 0.000000 3.600600 0.000000 
#    z 0.000000 0.000000 3.759010 
# 
# 
# High freq. dielectric constant tensor:
#      x y z
#    x 1.793270 0.000000 0.000000 
#    y 0.000000 1.782560 0.000000 
#    z 0.000000 0.000000 1.756290 
# 
# From -- ./inp_files/20429.got.cif
#   From: 2010.03.12/outbox.cif.g09.slc.cpg/sg62_11_cif.got.tgz:20429.got - 2010.04.10 19:12:36.
