data_PCOD8254193
_publ_section_title
;
Structure prediction by ZEFSAII (Michael W. Deem and Ramdas Pophale) SiO2 
 PCOD8254193
Probable space group: P N M A
;
_chemical_formula_sum "Si O2"
_cell_formula_units_Z 40
_cell_length_a 12.282842
_cell_length_b 8.557544
_cell_length_c 18.439596
_cell_angle_alpha 90.000000
_cell_angle_beta 90.000000
_cell_angle_gamma 90.000000
_cell_volume 1938.203653
_symmetry_space_group_name_H-M "P N M A"
_symmetry_group_IT_number 62
_symmetry_cell_setting 'orthorhombic'
loop_
_space_group_symop_operation_xyz
x,y,z
1/2-x,-y,1/2+z
1/2+x,1/2-y,1/2-z
-x,1/2+y,-z
-x,-y,-z
1/2+x,y,1/2-z
1/2-x,1/2+y,1/2+z
x,1/2-y,z
loop_
_atom_site_type_symbol
_atom_site_label
_atom_site_fract_x
_atom_site_fract_y
_atom_site_fract_z
Si Si1 0.600295 0.567008 0.693206
Si Si2 0.560180 0.066285 0.430847
Si Si3 0.695935 0.567414 0.952357
Si Si4 0.967398 0.930852 0.340508
Si Si5 0.182325 0.431309 0.391850
O O1 0.594701 0.750000 0.711032
O O2 0.500249 0.512687 0.642352
O O3 0.596445 0.471388 0.767279
O O4 0.712358 0.522548 0.654241
O O5 0.554988 0.250000 0.438988
O O6 0.684548 0.008315 0.428194
O O7 0.500000 0.000000 0.500000
O O8 0.679661 0.750000 0.935654
O O9 0.608125 0.468444 0.908835
O O10 0.678333 0.537798 0.037075
O O11 0.998687 0.750000 0.342323
O O12 0.076940 0.033264 0.343298
O O13 0.185573 0.250000 0.414289
#
# Coordination Sequence:
#
# PCOD8254193 Si02
#       5
#     8   8   8   8   8
#     4  10  23  43  65  93 127 167 210 257 318 377
#     4  10  21  39  65  95 126 162 207 256 311 374
#     4  11  23  41  67  97 129 166 212 261 314 377
#     4  12  27  43  63  93 130 169 213 264 317 374
#     4  11  23  43  69  93 126 167 211 262 315 378
#
# _framework density 20.637665999999999
#
# number of rings (size 3 to 8) (size 9 to 14) (size 15 to 20)
#    0.000    1.200    2.000    3.600    2.800    3.200 
#    0.000    0.000    0.000    0.000    0.000    0.000 
#    0.000    0.000    0.000    0.000    0.000    0.000 
#
# Total GULP energy -496295.715716 kJ/mol
# GULP energy per Si atom -12407.392893 kJ/mol
# Density = 2.059069 g / cm^3
# Si number density = 20.637666 Si / 1000 Ang^3
#
#
#
# Elastic Constant Matrix: (Units=GPa)
#
#
# Indices 1 2 3 4 5 6 
#
# 1 113.0511 26.3587 43.0075 0.0000 0.0000 0.0000
# 2 26.3587 44.8029 21.0528 0.0000 0.0000 0.0000
# 3 43.0075 21.0528 110.6477 0.0000 0.0000 0.0000
# 4 0.0000 0.0000 0.0000 36.8814 0.0000 0.0000
# 5 0.0000 0.0000 0.0000 0.0000 34.5668 0.0000
# 6 0.0000 0.0000 0.0000 0.0000 0.0000 27.5648
#
#
#
# Elastic Compliance Matrix: (Units=1/GPa)
#
#
# Indices 1 2 3 4 5 6 
#
# 1 0.011333 -0.005049 -0.003444 0.000000 0.000000 0.000000
# 2 -0.005049 0.026761 -0.003129 0.000000 0.000000 0.000000
# 3 -0.003444 -0.003129 0.010972 0.000000 0.000000 0.000000
# 4 0.000000 0.000000 0.000000 0.027114 0.000000 0.000000
# 5 0.000000 0.000000 0.000000 0.000000 0.028929 0.000000
# 6 0.000000 0.000000 0.000000 0.000000 0.000000 0.036278
#
#
# Mechanical properties :
#
#
# Convention : Reuss Voigt Hill
#
# Bulk Modulus (GPa) = 38.72888 49.92665 44.32776
# Shear Modulus (GPa) = 28.86174 31.67478 30.26826
#
# Velocity S-wave (km/s) = 3.74371 3.92191 3.83384
# Velocity P-wave (km/s) = 6.12323 6.68977 6.41276
#
# Compressibility (1/GPa) = 0.02582052
#
# Stress axis : x y z
#
# Youngs Moduli (GPa) = 88.23699 37.36795 91.14206
#
# Poissons Ratio (x) = 0.18867 0.31393
# Poissons Ratio (y) = 0.44551 0.28521
# Poissons Ratio (z) = 0.30392 0.11693
#
# Static dielectric constant tensor:
#      x y z
#    x 4.068610 0.000000 0.000000 
#    y 0.000000 3.592410 0.000000 
#    z 0.000000 0.000000 3.717780 
# 
# 
# High freq. dielectric constant tensor:
#      x y z
#    x 1.824970 0.000000 0.000000 
#    y 0.000000 1.802670 0.000000 
#    z 0.000000 0.000000 1.812610 
# 
# From -- ./inp_files/22771.got.cif
#   From: 2010.03.12/outbox.cif.g09.slc.cpg/sg62_12_cif.got.tgz:22771.got - 2010.04.10 19:12:36.
