data_PCOD8254342
_publ_section_title
;
Structure prediction by ZEFSAII (Michael W. Deem and Ramdas Pophale) SiO2 
 PCOD8254342
Probable space group: P N M A
;
_chemical_formula_sum "Si O2"
_cell_formula_units_Z 40
_cell_length_a 16.102147
_cell_length_b 16.927719
_cell_length_c 6.685747
_cell_angle_alpha 90.000000
_cell_angle_beta 90.000000
_cell_angle_gamma 90.000000
_cell_volume 1822.351575
_symmetry_space_group_name_H-M "P N M A"
_symmetry_group_IT_number 62
_symmetry_cell_setting 'orthorhombic'
loop_
_space_group_symop_operation_xyz
x,y,z
1/2-x,-y,1/2+z
1/2+x,1/2-y,1/2-z
-x,1/2+y,-z
-x,-y,-z
1/2+x,y,1/2-z
1/2-x,1/2+y,1/2+z
x,1/2-y,z
loop_
_atom_site_type_symbol
_atom_site_label
_atom_site_fract_x
_atom_site_fract_y
_atom_site_fract_z
Si Si1 0.802708 0.665420 0.123974
Si Si2 0.196542 0.657207 0.019715
Si Si3 0.844983 0.912094 0.729225
Si Si4 0.953236 0.836682 0.419906
Si Si5 0.058904 0.946560 0.141779
O O1 0.794629 0.750000 0.012572
O O2 0.718189 0.647180 0.244383
O O3 0.869774 0.670920 0.296732
O O4 0.829041 0.602152 0.962955
O O5 0.195550 0.750000 0.954817
O O6 0.259569 0.605616 0.885354
O O7 0.105536 0.617462 0.998757
O O8 0.923411 0.863043 0.641631
O O9 0.872932 0.003183 0.733371
O O10 0.996865 0.750000 0.434007
O O11 0.010485 0.901142 0.316132
O O12 0.000000 0.000000 0.000000
#
# Coordination Sequence:
#
# PCOD8254342 Si02
#       5
#     8   8   8   8   8
#     4   9  18  38  65  90 121 168 217 260 317 385
#     4  10  24  44  65  92 129 174 220 267 323 399
#     4  11  22  40  69  94 127 167 224 265 323 382
#     4  10  21  41  65  92 131 172 211 264 325 390
#     4  12  25  42  65  98 137 172 212 277 339 384
#
# _framework density 21.949663000000001
#
# number of rings (size 3 to 8) (size 9 to 14) (size 15 to 20)
#    0.000    1.600    2.000    4.200    2.800    0.000 
#    3.600    0.000    0.000    0.000    0.000    0.000 
#    0.000    0.000    0.000    0.000    0.000    0.000 
#
# Total GULP energy -495637.725124 kJ/mol
# GULP energy per Si atom -12390.943128 kJ/mol
# Density = 2.189971 g / cm^3
# Si number density = 21.949663 Si / 1000 Ang^3
#
#
#
# Elastic Constant Matrix: (Units=GPa)
#
#
# Indices 1 2 3 4 5 6 
#
# 1 84.0109 52.1563 13.6634 0.0000 0.0000 0.0000
# 2 52.1563 123.1231 28.2077 0.0000 0.0000 0.0000
# 3 13.6634 28.2077 68.5003 0.0000 0.0000 0.0000
# 4 0.0000 0.0000 0.0000 30.2133 0.0000 0.0000
# 5 0.0000 0.0000 0.0000 0.0000 25.1320 0.0000
# 6 0.0000 0.0000 0.0000 0.0000 0.0000 43.0127
#
#
#
# Elastic Compliance Matrix: (Units=1/GPa)
#
#
# Indices 1 2 3 4 5 6 
#
# 1 0.016163 -0.006745 -0.000447 0.000000 0.000000 0.000000
# 2 -0.006745 0.011782 -0.003507 0.000000 0.000000 0.000000
# 3 -0.000447 -0.003507 0.016132 0.000000 0.000000 0.000000
# 4 0.000000 0.000000 0.000000 0.033098 0.000000 0.000000
# 5 0.000000 0.000000 0.000000 0.000000 0.039790 0.000000
# 6 0.000000 0.000000 0.000000 0.000000 0.000000 0.023249
#
#
# Mechanical properties :
#
#
# Convention : Reuss Voigt Hill
#
# Bulk Modulus (GPa) = 44.08877 51.52100 47.80488
# Shear Modulus (GPa) = 29.55613 31.77873 30.66743
#
# Velocity S-wave (km/s) = 3.67351 3.80913 3.74193
# Velocity P-wave (km/s) = 6.17436 6.54746 6.36365
#
# Compressibility (1/GPa) = 0.02268151
#
# Stress axis : x y z
#
# Youngs Moduli (GPa) = 61.86961 84.87266 61.99043
#
# Poissons Ratio (x) = 0.57242 0.02769
# Poissons Ratio (y) = 0.41728 0.21737
# Poissons Ratio (z) = 0.02763 0.29761
#
# Static dielectric constant tensor:
#      x y z
#    x 3.917630 0.000000 0.000000 
#    y 0.000000 4.254680 0.000000 
#    z 0.000000 0.000000 3.814830 
# 
# 
# High freq. dielectric constant tensor:
#      x y z
#    x 1.853570 0.000000 0.000000 
#    y 0.000000 1.877110 0.000000 
#    z 0.000000 0.000000 1.849330 
# 
# From -- ./inp_files/1568.got.cif
#   From: 2010.03.12/outbox.cif.g09.slc.cpg/sg62_1_cif.got.tgz:1568.got - 2010.04.10 19:12:36.
