data_PCOD8254122
_publ_section_title
;
Structure prediction by ZEFSAII (Michael W. Deem and Ramdas Pophale) SiO2 
 PCOD8254122
Probable space group: P N M A
;
_chemical_formula_sum "Si O2"
_cell_formula_units_Z 48
_cell_length_a 14.813330
_cell_length_b 8.705882
_cell_length_c 18.772040
_cell_angle_alpha 90.000000
_cell_angle_beta 90.000000
_cell_angle_gamma 90.000000
_cell_volume 2420.900528
_symmetry_space_group_name_H-M "P N M A"
_symmetry_group_IT_number 62
_symmetry_cell_setting 'orthorhombic'
loop_
_space_group_symop_operation_xyz
x,y,z
1/2-x,-y,1/2+z
1/2+x,1/2-y,1/2-z
-x,1/2+y,-z
-x,-y,-z
1/2+x,y,1/2-z
1/2-x,1/2+y,1/2+z
x,1/2-y,z
loop_
_atom_site_type_symbol
_atom_site_label
_atom_site_fract_x
_atom_site_fract_y
_atom_site_fract_z
Si Si1 0.125530 0.927402 0.812799
Si Si2 0.293714 0.069985 0.740116
Si Si3 0.756023 0.067545 0.918567
Si Si4 0.592916 0.931383 0.526146
Si Si5 0.054516 0.430703 0.564786
Si Si6 0.528727 0.426356 0.202463
O O1 0.157032 0.750000 0.808919
O O2 0.111609 0.983040 0.893396
O O3 0.031355 0.952105 0.772438
O O4 0.199323 0.037092 0.778133
O O5 0.315494 0.250000 0.743855
O O6 0.287834 0.010397 0.658958
O O7 0.370085 0.975483 0.780358
O O8 0.752216 0.250000 0.919192
O O9 0.656442 0.001962 0.935832
O O10 0.825820 0.004136 0.977239
O O11 0.586208 0.750000 0.519692
O O12 0.500000 0.000000 0.500000
O O13 0.056115 0.250000 0.555467
O O14 0.000000 0.500000 0.500000
O O15 0.007782 0.470553 0.638855
O O16 0.528215 0.250000 0.177599
#
# Coordination Sequence:
#
# PCOD8254122 Si02
#       6
#     8   8   8   8   8   8
#     4  10  22  39  61  89 122 158 200 251 306 365
#     4  11  22  38  62  90 119 158 205 255 306 365
#     4   9  20  39  62  87 122 161 198 245 307 362
#     4  10  21  39  61  88 120 157 197 245 303 362
#     4  11  23  41  62  90 123 163 208 255 309 370
#     4  11  23  40  61  89 123 162 203 254 310 368
#
# _framework density 19.827332999999999
#
# number of rings (size 3 to 8) (size 9 to 14) (size 15 to 20)
#    0.000    1.667    1.667    2.500    2.333    1.333 
#    0.000    2.500    0.000    0.000    0.000    0.000 
#    0.000    0.000    0.000    0.000    0.000    0.000 
#
# Total GULP energy -595435.346325 kJ/mol
# GULP energy per Si atom -12404.903048 kJ/mol
# Density = 1.978220 g / cm^3
# Si number density = 19.827333 Si / 1000 Ang^3
#
#
#
# Elastic Constant Matrix: (Units=GPa)
#
#
# Indices 1 2 3 4 5 6 
#
# 1 99.7791 22.8293 30.8332 0.0000 0.0000 0.0000
# 2 22.8293 40.2738 23.6996 0.0000 0.0000 0.0000
# 3 30.8332 23.6996 135.2790 0.0000 0.0000 0.0000
# 4 0.0000 0.0000 0.0000 28.1207 0.0000 0.0000
# 5 0.0000 0.0000 0.0000 0.0000 42.0948 0.0000
# 6 0.0000 0.0000 0.0000 0.0000 0.0000 33.0748
#
#
#
# Elastic Compliance Matrix: (Units=1/GPa)
#
#
# Indices 1 2 3 4 5 6 
#
# 1 0.011856 -0.005720 -0.001700 0.000000 0.000000 0.000000
# 2 -0.005720 0.030444 -0.004030 0.000000 0.000000 0.000000
# 3 -0.001700 -0.004030 0.008486 0.000000 0.000000 0.000000
# 4 0.000000 0.000000 0.000000 0.035561 0.000000 0.000000
# 5 0.000000 0.000000 0.000000 0.000000 0.023756 0.000000
# 6 0.000000 0.000000 0.000000 0.000000 0.000000 0.030234
#
#
# Mechanical properties :
#
#
# Convention : Reuss Voigt Hill
#
# Bulk Modulus (GPa) = 35.86091 47.78401 41.82246
# Shear Modulus (GPa) = 28.97999 33.85604 31.41801
#
# Velocity S-wave (km/s) = 3.82726 4.13673 3.98500
# Velocity P-wave (km/s) = 6.13648 6.85340 6.50482
#
# Compressibility (1/GPa) = 0.02788552
#
# Stress axis : x y z
#
# Youngs Moduli (GPa) = 84.34329 32.84723 117.84658
#
# Poissons Ratio (x) = 0.18790 0.20036
# Poissons Ratio (y) = 0.48247 0.47489
# Poissons Ratio (z) = 0.14340 0.13236
#
# Static dielectric constant tensor:
#      x y z
#    x 3.757710 0.000000 0.000000 
#    y 0.000000 3.406920 0.000000 
#    z 0.000000 0.000000 2.829500 
# 
# 
# High freq. dielectric constant tensor:
#      x y z
#    x 1.787730 0.000000 0.000000 
#    y 0.000000 1.757620 0.000000 
#    z 0.000000 0.000000 1.787340 
# 
# From -- ./inp_files/23647.got.cif
#   From: 2010.03.12/outbox.cif.g09.slc.cpg/sg62_12_cif.got.tgz:23647.got - 2010.04.10 19:12:36.
