data_PCOD8254949
_publ_section_title
;
Structure prediction by ZEFSAII (Michael W. Deem and Ramdas Pophale) SiO2 
 PCOD8254949
Probable space group: P N M A
;
_chemical_formula_sum "Si O2"
_cell_formula_units_Z 48
_cell_length_a 23.290199
_cell_length_b 10.771176
_cell_length_c 10.248072
_cell_angle_alpha 90.000000
_cell_angle_beta 90.000000
_cell_angle_gamma 90.000000
_cell_volume 2570.860370
_symmetry_space_group_name_H-M "P N M A"
_symmetry_group_IT_number 62
_symmetry_cell_setting 'orthorhombic'
loop_
_space_group_symop_operation_xyz
x,y,z
1/2-x,-y,1/2+z
1/2+x,1/2-y,1/2-z
-x,1/2+y,-z
-x,-y,-z
1/2+x,y,1/2-z
1/2-x,1/2+y,1/2+z
x,1/2-y,z
loop_
_atom_site_type_symbol
_atom_site_label
_atom_site_fract_x
_atom_site_fract_y
_atom_site_fract_z
Si Si1 0.077352 0.250000 0.839061
Si Si2 0.846654 0.385519 0.929451
Si Si3 0.427784 0.750000 0.031104
Si Si4 0.837899 0.958353 0.176932
Si Si5 0.056786 0.750000 0.459760
Si Si6 0.550673 0.750000 0.350529
Si Si7 0.370236 0.490097 0.031179
Si Si8 0.790391 0.391274 0.675869
O O1 0.071598 0.250000 0.685437
O O2 0.112787 0.370288 0.882117
O O3 0.014359 0.250000 0.904506
O O4 0.817285 0.250000 0.929040
O O5 0.915773 0.372329 0.904967
O O6 0.817251 0.455767 0.806471
O O7 0.831491 0.436037 0.070341
O O8 0.492856 0.750000 0.978146
O O9 0.396194 0.623179 0.985669
O O10 0.777952 0.886897 0.187106
O O11 0.854808 0.013559 0.316418
O O12 0.053354 0.750000 0.304637
O O13 0.086290 0.623215 0.507311
O O14 0.312112 0.469851 0.948255
O O15 0.813693 0.250000 0.659473
#
# Coordination Sequence:
#
# PCOD8254949 Si02
#       8
#     4   8   4   8   4   4   8   8
#     4   9  20  36  57  82 111 162 186 236 280 365
#     4   9  20  37  57  81 113 151 190 230 288 352
#     4   9  22  36  58  93 121 150 194 250 294 337
#     4  11  22  36  58  86 120 140 200 242 298 322
#     4  11  18  38  66  85 117 157 200 240 286 365
#     4   9  18  38  61  78 113 157 200 214 298 355
#     4  11  21  38  62  91 116 154 200 240 296 346
#     4  11  20  40  62  82 115 162 193 234 291 368
#
# _framework density 18.670793
#
# number of rings (size 3 to 8) (size 9 to 14) (size 15 to 20)
#    0.500    1.333    3.333    1.500    1.167    0.667 
#    1.500    0.833    3.667    0.000    0.000    0.000 
#    0.000    0.000    0.000    0.000    0.000    0.000 
#
# Total GULP energy -594837.858588 kJ/mol
# GULP energy per Si atom -12392.455387 kJ/mol
# Density = 1.862830 g / cm^3
# Si number density = 18.670793 Si / 1000 Ang^3
#
#
#
# Elastic Constant Matrix: (Units=GPa)
#
#
# Indices 1 2 3 4 5 6 
#
# 1 122.4230 31.7692 26.5788 0.0000 0.0000 0.0000
# 2 31.7692 93.5588 33.5667 0.0000 0.0000 0.0000
# 3 26.5788 33.5667 99.1582 0.0000 0.0000 0.0000
# 4 0.0000 0.0000 0.0000 10.9171 0.0000 0.0000
# 5 0.0000 0.0000 0.0000 0.0000 22.9932 0.0000
# 6 0.0000 0.0000 0.0000 0.0000 0.0000 21.1000
#
#
#
# Elastic Compliance Matrix: (Units=1/GPa)
#
#
# Indices 1 2 3 4 5 6 
#
# 1 0.009175 -0.002542 -0.001599 0.000000 0.000000 0.000000
# 2 -0.002542 0.012870 -0.003675 0.000000 0.000000 0.000000
# 3 -0.001599 -0.003675 0.011758 0.000000 0.000000 0.000000
# 4 0.000000 0.000000 0.000000 0.091600 0.000000 0.000000
# 5 0.000000 0.000000 0.000000 0.000000 0.043491 0.000000
# 6 0.000000 0.000000 0.000000 0.000000 0.000000 0.047393
#
#
# Mechanical properties :
#
#
# Convention : Reuss Voigt Hill
#
# Bulk Modulus (GPa) = 55.03390 55.44105 55.23747
# Shear Modulus (GPa) = 21.01048 25.88375 23.44711
#
# Velocity S-wave (km/s) = 3.35821 3.72737 3.54760
# Velocity P-wave (km/s) = 6.67658 6.94859 6.81394
#
# Compressibility (1/GPa) = 0.01817062
#
# Stress axis : x y z
#
# Youngs Moduli (GPa) = 108.98992 77.69836 85.05093
#
# Poissons Ratio (x) = 0.19750 0.13598
# Poissons Ratio (y) = 0.27704 0.31260
# Poissons Ratio (z) = 0.17426 0.28558
#
# Static dielectric constant tensor:
#      x y z
#    x 3.694770 0.000000 0.000000 
#    y 0.000000 3.326510 0.000000 
#    z 0.000000 0.000000 3.237280 
# 
# 
# High freq. dielectric constant tensor:
#      x y z
#    x 1.736360 0.000000 0.000000 
#    y 0.000000 1.709080 0.000000 
#    z 0.000000 0.000000 1.713960 
# 
# From -- ./inp_files/9363.got.cif
#   From: 2010.03.12/outbox.cif.g09.slc.cpg/sg62_5_cif.got.tgz:9363.got - 2010.04.10 19:12:36.
