data_PCOD8254767
_publ_section_title
;
Structure prediction by ZEFSAII (Michael W. Deem and Ramdas Pophale) SiO2 
 PCOD8254767
Probable space group: P N M A
;
_chemical_formula_sum "Si O2"
_cell_formula_units_Z 48
_cell_length_a 14.826163
_cell_length_b 27.426347
_cell_length_c 5.287559
_cell_angle_alpha 90.000000
_cell_angle_beta 90.000000
_cell_angle_gamma 90.000000
_cell_volume 2150.066850
_symmetry_space_group_name_H-M "P N M A"
_symmetry_group_IT_number 62
_symmetry_cell_setting 'orthorhombic'
loop_
_space_group_symop_operation_xyz
x,y,z
1/2-x,-y,1/2+z
1/2+x,1/2-y,1/2-z
-x,1/2+y,-z
-x,-y,-z
1/2+x,y,1/2-z
1/2-x,1/2+y,1/2+z
x,1/2-y,z
loop_
_atom_site_type_symbol
_atom_site_label
_atom_site_fract_x
_atom_site_fract_y
_atom_site_fract_z
Si Si1 0.571644 0.834584 0.298490
Si Si2 0.818600 0.168272 0.280231
Si Si3 0.065152 0.250000 0.770069
Si Si4 0.712792 0.934922 0.887808
Si Si5 0.452433 0.443985 0.753713
Si Si6 0.634405 0.481268 0.633032
Si Si7 0.175520 0.250000 0.266975
O O1 0.616603 0.813552 0.555115
O O2 0.490240 0.799437 0.225024
O O3 0.539607 0.889638 0.366017
O O4 0.639365 0.832320 0.060815
O O5 0.786037 0.113201 0.214427
O O6 0.732317 0.201969 0.286009
O O7 0.142184 0.250000 0.556408
O O8 0.097154 0.250000 0.059462
O O9 0.715413 0.985644 0.739922
O O10 0.612999 0.937752 0.010581
O O11 0.806701 0.934329 0.044039
O O12 0.555636 0.460999 0.821359
O O13 0.412990 0.485729 0.576807
#
# Coordination Sequence:
#
# PCOD8254767 Si02
#       7
#     8   8   4   8   8   8   4
#     4  11  23  46  68  98 131 182 222 276 337 417
#     4  11  24  44  73  95 136 179 229 270 349 406
#     4  12  26  44  70 102 138 166 226 284 350 400
#     4  11  22  40  64  96 132 181 226 279 340 404
#     4  10  23  39  63  91 132 175 229 269 336 400
#     4  11  21  40  61  94 133 175 224 280 327 400
#     4  12  26  46  68 106 132 170 222 290 340 410
#
# _framework density 22.324888999999999
#
# number of rings (size 3 to 8) (size 9 to 14) (size 15 to 20)
#    0.000    1.000    3.333    3.500    2.333    0.000 
#    3.000    0.000    0.000    0.000    0.000    0.000 
#    0.000    0.000    0.000    0.000    0.000    0.000 
#
# Total GULP energy -594681.917943 kJ/mol
# GULP energy per Si atom -12389.206624 kJ/mol
# Density = 2.227408 g / cm^3
# Si number density = 22.324889 Si / 1000 Ang^3
#
#
#
# Elastic Constant Matrix: (Units=GPa)
#
#
# Indices 1 2 3 4 5 6 
#
# 1 112.3627 54.0014 17.7356 0.0000 0.0000 0.0000
# 2 54.0014 112.1789 11.9120 0.0000 0.0000 0.0000
# 3 17.7356 11.9120 80.5327 0.0000 0.0000 0.0000
# 4 0.0000 0.0000 0.0000 24.0784 0.0000 0.0000
# 5 0.0000 0.0000 0.0000 0.0000 40.1419 0.0000
# 6 0.0000 0.0000 0.0000 0.0000 0.0000 69.8972
#
#
#
# Elastic Compliance Matrix: (Units=1/GPa)
#
#
# Indices 1 2 3 4 5 6 
#
# 1 0.011827 -0.005503 -0.001791 0.000000 0.000000 0.000000
# 2 -0.005503 0.011617 -0.000506 0.000000 0.000000 0.000000
# 3 -0.001791 -0.000506 0.012887 0.000000 0.000000 0.000000
# 4 0.000000 0.000000 0.000000 0.041531 0.000000 0.000000
# 5 0.000000 0.000000 0.000000 0.000000 0.024912 0.000000
# 6 0.000000 0.000000 0.000000 0.000000 0.000000 0.014307
#
#
# Mechanical properties :
#
#
# Convention : Reuss Voigt Hill
#
# Bulk Modulus (GPa) = 48.23839 52.48583 50.36211
# Shear Modulus (GPa) = 35.81881 41.58519 38.70200
#
# Velocity S-wave (km/s) = 4.00988 4.32062 4.16815
# Velocity P-wave (km/s) = 6.56454 6.96070 6.76552
#
# Compressibility (1/GPa) = 0.02073038
#
# Stress axis : x y z
#
# Youngs Moduli (GPa) = 84.55015 86.07826 77.60007
#
# Poissons Ratio (x) = 0.47372 0.13896
# Poissons Ratio (y) = 0.46531 0.03930
# Poissons Ratio (z) = 0.15140 0.04359
#
# Static dielectric constant tensor:
#      x y z
#    x 4.126450 0.000000 0.000000 
#    y 0.000000 4.511030 0.000000 
#    z 0.000000 0.000000 3.870270 
# 
# 
# High freq. dielectric constant tensor:
#      x y z
#    x 1.885390 0.000000 0.000000 
#    y 0.000000 1.896300 0.000000 
#    z 0.000000 0.000000 1.864890 
# 
# From -- ./inp_files/1206.got.cif
#   From: 2010.03.12/outbox.cif.g09.slc.cpg/sg62_1_cif.got.tgz:1206.got - 2010.04.10 19:12:36.
