data_PCOD8254445
_publ_section_title
;
Structure prediction by ZEFSAII (Michael W. Deem and Ramdas Pophale) SiO2 
 PCOD8254445
Probable space group: P N M A
;
_chemical_formula_sum "Si O2"
_cell_formula_units_Z 64
_cell_length_a 23.500478
_cell_length_b 15.677395
_cell_length_c 8.613443
_cell_angle_alpha 90.000000
_cell_angle_beta 90.000000
_cell_angle_gamma 90.000000
_cell_volume 3173.418731
_symmetry_space_group_name_H-M "P N M A"
_symmetry_group_IT_number 62
_symmetry_cell_setting 'orthorhombic'
loop_
_space_group_symop_operation_xyz
x,y,z
1/2-x,-y,1/2+z
1/2+x,1/2-y,1/2-z
-x,1/2+y,-z
-x,-y,-z
1/2+x,y,1/2-z
1/2-x,1/2+y,1/2+z
x,1/2-y,z
loop_
_atom_site_type_symbol
_atom_site_label
_atom_site_fract_x
_atom_site_fract_y
_atom_site_fract_z
Si Si1 0.363652 0.462863 0.663748
Si Si2 0.675107 0.051946 0.644088
Si Si3 0.980982 0.345478 0.242746
Si Si4 0.291858 0.149821 0.871627
Si Si5 0.081004 0.438524 0.411185
Si Si6 0.373786 0.077155 0.118065
Si Si7 0.581275 0.153376 0.784355
Si Si8 0.014590 0.912415 0.080027
O O1 0.341818 0.497146 0.502838
O O2 0.321613 0.388848 0.720151
O O3 0.370127 0.544832 0.780460
O O4 0.423174 0.414182 0.651379
O O5 0.736166 0.091827 0.612016
O O6 0.633565 0.131708 0.671663
O O7 0.667953 0.988217 0.790814
O O8 0.993218 0.250000 0.306423
O O9 0.914502 0.368770 0.268720
O O10 0.021967 0.414152 0.327222
O O11 0.991548 0.342825 0.057070
O O12 0.277860 0.250000 0.848559
O O13 0.332477 0.139110 0.021226
O O14 0.081093 0.527382 0.507344
O O15 0.096627 0.365104 0.535353
O O16 0.564891 0.250000 0.764744
O O17 0.526790 0.100748 0.726164
O O18 0.000000 0.000000 0.000000
#
# Coordination Sequence:
#
# PCOD8254445 Si02
#       8
#     8   8   8   8   8   8   8   8
#     4  11  23  41  68  89 122 166 213 253 305 381
#     4  11  21  44  68  88 118 168 216 252 305 380
#     4  12  22  35  57  90 127 157 197 255 306 358
#     4  11  25  42  63  93 123 156 208 271 320 357
#     4  10  22  37  60  90 124 166 202 242 300 377
#     4  10  22  40  63  85 121 165 208 244 304 376
#     4  11  23  37  60  94 130 163 204 261 316 362
#     4  12  21  39  61  88 124 166 208 247 306 382
#
# _framework density 20.167525000000001
#
# number of rings (size 3 to 8) (size 9 to 14) (size 15 to 20)
#    0.000    1.000    3.750    3.375    3.500    1.000 
#    0.000    1.875    0.000    0.000    0.000    0.000 
#    0.000    0.000    0.000    0.000    0.000    0.000 
#
# Total GULP energy -793226.626417 kJ/mol
# GULP energy per Si atom -12394.166038 kJ/mol
# Density = 2.012162 g / cm^3
# Si number density = 20.167525 Si / 1000 Ang^3
#
#
#
# Elastic Constant Matrix: (Units=GPa)
#
#
# Indices 1 2 3 4 5 6 
#
# 1 80.8812 16.7053 23.5758 0.0000 0.0000 0.0000
# 2 16.7053 87.5229 25.5935 0.0000 0.0000 0.0000
# 3 23.5758 25.5935 100.8453 0.0000 0.0000 0.0000
# 4 0.0000 0.0000 0.0000 19.1780 0.0000 0.0000
# 5 0.0000 0.0000 0.0000 0.0000 21.2003 0.0000
# 6 0.0000 0.0000 0.0000 0.0000 0.0000 19.2346
#
#
#
# Elastic Compliance Matrix: (Units=1/GPa)
#
#
# Indices 1 2 3 4 5 6 
#
# 1 0.013523 -0.001789 -0.002707 0.000000 0.000000 0.000000
# 2 -0.001789 0.012578 -0.002774 0.000000 0.000000 0.000000
# 3 -0.002707 -0.002774 0.011253 0.000000 0.000000 0.000000
# 4 0.000000 0.000000 0.000000 0.052143 0.000000 0.000000
# 5 0.000000 0.000000 0.000000 0.000000 0.047169 0.000000
# 6 0.000000 0.000000 0.000000 0.000000 0.000000 0.051990
#
#
# Mechanical properties :
#
#
# Convention : Reuss Voigt Hill
#
# Bulk Modulus (GPa) = 43.83487 44.55538 44.19513
# Shear Modulus (GPa) = 23.71909 25.48092 24.60000
#
# Velocity S-wave (km/s) = 3.43316 3.55838 3.49633
# Velocity P-wave (km/s) = 6.12356 6.24687 6.18552
#
# Compressibility (1/GPa) = 0.02281289
#
# Stress axis : x y z
#
# Youngs Moduli (GPa) = 73.95077 79.50228 88.86471
#
# Poissons Ratio (x) = 0.14226 0.24057
# Poissons Ratio (y) = 0.13233 0.24650
# Poissons Ratio (z) = 0.20020 0.22053
#
# Static dielectric constant tensor:
#      x y z
#    x 3.292260 0.000000 0.000000 
#    y 0.000000 3.551190 0.000000 
#    z 0.000000 0.000000 4.022510 
# 
# 
# High freq. dielectric constant tensor:
#      x y z
#    x 1.778030 0.000000 0.000000 
#    y 0.000000 1.778930 0.000000 
#    z 0.000000 0.000000 1.802290 
# 
# From -- ./inp_files/9521.got.cif
#   From: 2010.03.12/outbox.cif.g09.slc.cpg/sg62_5_cif.got.tgz:9521.got - 2010.04.10 19:12:36.
