data_PCOD8254243
_publ_section_title
;
Structure prediction by ZEFSAII (Michael W. Deem and Ramdas Pophale) SiO2 
 PCOD8254243
Probable space group: P N M A
;
_chemical_formula_sum "Si O2"
_cell_formula_units_Z 52
_cell_length_a 14.078585
_cell_length_b 19.424695
_cell_length_c 9.433325
_cell_angle_alpha 90.000000
_cell_angle_beta 90.000000
_cell_angle_gamma 90.000000
_cell_volume 2579.752326
_symmetry_space_group_name_H-M "P N M A"
_symmetry_group_IT_number 62
_symmetry_cell_setting 'orthorhombic'
loop_
_space_group_symop_operation_xyz
x,y,z
1/2-x,-y,1/2+z
1/2+x,1/2-y,1/2-z
-x,1/2+y,-z
-x,-y,-z
1/2+x,y,1/2-z
1/2-x,1/2+y,1/2+z
x,1/2-y,z
loop_
_atom_site_type_symbol
_atom_site_label
_atom_site_fract_x
_atom_site_fract_y
_atom_site_fract_z
Si Si1 0.150298 0.250000 0.818850
Si Si2 0.797950 0.526832 0.492336
Si Si3 0.931291 0.105191 0.507882
Si Si4 0.407637 0.889159 0.790704
Si Si5 0.858790 0.750000 0.860182
Si Si6 0.399911 0.966085 0.506872
Si Si7 0.826709 0.250000 0.512402
Si Si8 0.901368 0.607057 0.275183
O O1 0.263890 0.250000 0.843989
O O2 0.122837 0.187263 0.716149
O O3 0.099614 0.250000 0.976916
O O4 0.850945 0.453564 0.515247
O O5 0.830450 0.589166 0.593181
O O6 0.686316 0.518693 0.519077
O O7 0.819792 0.556232 0.335580
O O8 0.888902 0.181385 0.513946
O O9 0.988331 0.099432 0.359537
O O10 0.000357 0.092362 0.642019
O O11 0.395002 0.812522 0.734915
O O12 0.386253 0.938808 0.662622
O O13 0.743449 0.750000 0.874696
O O14 0.403825 0.905679 0.392382
O O15 0.500000 0.000000 0.500000
#
# Coordination Sequence:
#
# PCOD8254243 Si02
#       8
#     4   8   8   8   4   8   4   8
#     4  10  21  40  63  88 123 165 209 257 315 364
#     4  11  24  41  62  92 131 165 212 261 314 390
#     4  11  22  41  65  97 122 168 218 250 307 391
#     4  11  22  40  64  91 125 167 211 261 314 372
#     4  10  21  40  63  88 123 165 209 257 315 364
#     4  12  23  38  61  93 127 164 203 268 326 364
#     4  10  22  40  64  88 126 178 206 246 312 378
#     4  11  22  40  64  91 125 167 211 261 314 372
#
# _framework density 20.156974000000002
#
# number of rings (size 3 to 8) (size 9 to 14) (size 15 to 20)
#    0.462    0.615    1.538    7.385    0.000    4.308 
#    0.000    0.000    0.000    3.692    0.000    0.000 
#    0.000    0.000    0.000    0.000    0.000    0.000 
#
# Total GULP energy -644535.170110 kJ/mol
# GULP energy per Si atom -12394.907117 kJ/mol
# Density = 2.011110 g / cm^3
# Si number density = 20.156974 Si / 1000 Ang^3
#
#
#
# Elastic Constant Matrix: (Units=GPa)
#
#
# Indices 1 2 3 4 5 6 
#
# 1 115.9892 36.1208 21.2325 0.0000 0.0000 0.0000
# 2 36.1208 113.0138 13.1718 0.0000 0.0000 0.0000
# 3 21.2325 13.1718 74.4932 0.0000 0.0000 0.0000
# 4 0.0000 0.0000 0.0000 41.3958 0.0000 0.0000
# 5 0.0000 0.0000 0.0000 0.0000 16.8120 0.0000
# 6 0.0000 0.0000 0.0000 0.0000 0.0000 26.7194
#
#
#
# Elastic Compliance Matrix: (Units=1/GPa)
#
#
# Indices 1 2 3 4 5 6 
#
# 1 0.009953 -0.002910 -0.002322 0.000000 0.000000 0.000000
# 2 -0.002910 0.009886 -0.000918 0.000000 0.000000 0.000000
# 3 -0.002322 -0.000918 0.014248 0.000000 0.000000 0.000000
# 4 0.000000 0.000000 0.000000 0.024157 0.000000 0.000000
# 5 0.000000 0.000000 0.000000 0.000000 0.059481 0.000000
# 6 0.000000 0.000000 0.000000 0.000000 0.000000 0.037426
#
#
# Mechanical properties :
#
#
# Convention : Reuss Voigt Hill
#
# Bulk Modulus (GPa) = 45.90354 49.39404 47.64879
# Shear Modulus (GPa) = 28.61801 32.51685 30.56743
#
# Velocity S-wave (km/s) = 3.77205 4.02080 3.89841
# Velocity P-wave (km/s) = 6.46480 6.79070 6.62976
#
# Compressibility (1/GPa) = 0.02178481
#
# Stress axis : x y z
#
# Youngs Moduli (GPa) = 100.47273 101.15577 70.18368
#
# Poissons Ratio (x) = 0.29441 0.16298
# Poissons Ratio (y) = 0.29242 0.06446
# Poissons Ratio (z) = 0.23332 0.09290
#
# Static dielectric constant tensor:
#      x y z
#    x 3.628570 0.000000 0.000000 
#    y 0.000000 3.921310 0.000000 
#    z 0.000000 0.000000 3.738330 
# 
# 
# High freq. dielectric constant tensor:
#      x y z
#    x 1.778650 0.000000 0.000000 
#    y 0.000000 1.798650 0.000000 
#    z 0.000000 0.000000 1.794760 
# 
# From -- ./inp_files/6730.got.cif
#   From: 2010.03.12/outbox.cif.g09.slc.cpg/sg62_4_cif.got.tgz:6730.got - 2010.04.10 19:12:36.
