data_PCOD8254751
_publ_section_title
;
Structure prediction by ZEFSAII (Michael W. Deem and Ramdas Pophale) SiO2 
 PCOD8254751
Probable space group: P N M A
;
_chemical_formula_sum "Si O2"
_cell_formula_units_Z 64
_cell_length_a 9.883954
_cell_length_b 26.198010
_cell_length_c 10.788804
_cell_angle_alpha 90.000000
_cell_angle_beta 90.000000
_cell_angle_gamma 90.000000
_cell_volume 2793.652106
_symmetry_space_group_name_H-M "P N M A"
_symmetry_group_IT_number 62
_symmetry_cell_setting 'orthorhombic'
loop_
_space_group_symop_operation_xyz
x,y,z
1/2-x,-y,1/2+z
1/2+x,1/2-y,1/2-z
-x,1/2+y,-z
-x,-y,-z
1/2+x,y,1/2-z
1/2-x,1/2+y,1/2+z
x,1/2-y,z
loop_
_atom_site_type_symbol
_atom_site_label
_atom_site_fract_x
_atom_site_fract_y
_atom_site_fract_z
Si Si1 0.708614 0.648490 0.053684
Si Si2 0.180876 0.882654 0.837165
Si Si3 0.511917 0.191654 0.474379
Si Si4 0.083666 0.024786 0.611734
Si Si5 0.031961 0.977223 0.867142
Si Si6 0.406399 0.639082 0.019822
Si Si7 0.801464 0.308048 0.816583
Si Si8 0.733033 0.433597 0.391394
O O1 0.827065 0.682443 0.990441
O O2 0.558828 0.658834 0.996627
O O3 0.697138 0.654934 0.199745
O O4 0.749725 0.588877 0.030784
O O5 0.165520 0.942178 0.881814
O O6 0.185923 0.890459 0.688507
O O7 0.324005 0.863281 0.890903
O O8 0.057813 0.844875 0.872533
O O9 0.489811 0.250000 0.431824
O O10 0.437701 0.181321 0.605490
O O11 0.100061 0.084592 0.589840
O O12 0.026823 0.016925 0.752435
O O13 0.221984 0.992475 0.611911
O O14 0.000000 0.000000 0.500000
O O15 0.918680 0.934025 0.840869
O O16 0.000000 0.000000 0.000000
O O17 0.332205 0.680773 0.104505
O O18 0.794991 0.250000 0.769651
#
# Coordination Sequence:
#
# PCOD8254751 Si02
#       8
#     8   8   8   8   8   8   8   8
#     4  12  23  37  67  98 132 175 225 276 341 409
#     4  10  23  45  66  92 137 179 221 282 351 408
#     4  10  22  44  70  96 132 174 223 285 349 415
#     4  11  23  42  62  98 144 183 227 284 338 408
#     4  11  24  40  66  99 137 185 236 283 342 411
#     4  11  24  41  70 100 136 181 231 278 346 417
#     4  10  24  45  68  99 139 178 221 288 355 413
#     4  11  24  41  66  93 138 185 228 279 344 417
#
# _framework density 22.909079999999999
#
# number of rings (size 3 to 8) (size 9 to 14) (size 15 to 20)
#    0.000    1.250    2.500    2.625    3.500    6.000 
#    0.000    1.250    0.000    1.500    0.000    0.000 
#    0.000    0.000    0.000    0.000    0.000    0.000 
#
# Total GULP energy -792906.026241 kJ/mol
# GULP energy per Si atom -12389.156660 kJ/mol
# Density = 2.285694 g / cm^3
# Si number density = 22.909080 Si / 1000 Ang^3
#
#
#
# Elastic Constant Matrix: (Units=GPa)
#
#
# Indices 1 2 3 4 5 6 
#
# 1 128.4235 32.7622 20.4552 0.0000 0.0000 0.0000
# 2 32.7622 95.2800 46.2512 0.0000 0.0000 0.0000
# 3 20.4552 46.2512 94.8165 0.0000 0.0000 0.0000
# 4 0.0000 0.0000 0.0000 29.9262 0.0000 0.0000
# 5 0.0000 0.0000 0.0000 0.0000 22.3286 0.0000
# 6 0.0000 0.0000 0.0000 0.0000 0.0000 29.9676
#
#
#
# Elastic Compliance Matrix: (Units=1/GPa)
#
#
# Indices 1 2 3 4 5 6 
#
# 1 0.008556 -0.002681 -0.000538 0.000000 0.000000 0.000000
# 2 -0.002681 0.014592 -0.006539 0.000000 0.000000 0.000000
# 3 -0.000538 -0.006539 0.013853 0.000000 0.000000 0.000000
# 4 0.000000 0.000000 0.000000 0.033415 0.000000 0.000000
# 5 0.000000 0.000000 0.000000 0.000000 0.044786 0.000000
# 6 0.000000 0.000000 0.000000 0.000000 0.000000 0.033369
#
#
# Mechanical properties :
#
#
# Convention : Reuss Voigt Hill
#
# Bulk Modulus (GPa) = 57.19589 57.49524 57.34556
# Shear Modulus (GPa) = 28.74951 31.04790 29.89871
#
# Velocity S-wave (km/s) = 3.54636 3.68539 3.61654
# Velocity P-wave (km/s) = 6.46448 6.57731 6.52114
#
# Compressibility (1/GPa) = 0.01748377
#
# Stress axis : x y z
#
# Youngs Moduli (GPa) = 116.87182 68.53268 72.18827
#
# Poissons Ratio (x) = 0.18373 0.03885
# Poissons Ratio (y) = 0.31332 0.47207
# Poissons Ratio (z) = 0.06290 0.44816
#
# Static dielectric constant tensor:
#      x y z
#    x 4.586150 0.000000 0.000000 
#    y 0.000000 4.108880 0.000000 
#    z 0.000000 0.000000 4.070070 
# 
# 
# High freq. dielectric constant tensor:
#      x y z
#    x 1.917600 0.000000 0.000000 
#    y 0.000000 1.893350 0.000000 
#    z 0.000000 0.000000 1.901060 
# 
# From -- ./inp_files/11568.got.cif
#   From: 2010.03.12/outbox.cif.g09.slc.cpg/sg62_6_cif.got.tgz:11568.got - 2010.04.10 19:12:36.
