data_PCOD8254198
_publ_section_title
;
Structure prediction by ZEFSAII (Michael W. Deem and Ramdas Pophale) SiO2 
 PCOD8254198
Probable space group: P N M A
;
_chemical_formula_sum "Si O2"
_cell_formula_units_Z 64
_cell_length_a 15.726983
_cell_length_b 17.657032
_cell_length_c 11.319800
_cell_angle_alpha 90.000000
_cell_angle_beta 90.000000
_cell_angle_gamma 90.000000
_cell_volume 3143.416114
_symmetry_space_group_name_H-M "P N M A"
_symmetry_group_IT_number 62
_symmetry_cell_setting 'orthorhombic'
loop_
_space_group_symop_operation_xyz
x,y,z
1/2-x,-y,1/2+z
1/2+x,1/2-y,1/2-z
-x,1/2+y,-z
-x,-y,-z
1/2+x,y,1/2-z
1/2-x,1/2+y,1/2+z
x,1/2-y,z
loop_
_atom_site_type_symbol
_atom_site_label
_atom_site_fract_x
_atom_site_fract_y
_atom_site_fract_z
Si Si1 0.589293 0.013560 0.440942
Si Si2 0.171354 0.335814 0.032960
Si Si3 0.727859 0.570075 0.601225
Si Si4 0.538331 0.916260 0.995047
Si Si5 0.867038 0.664735 0.464098
Si Si6 0.283737 0.665473 0.270624
Si Si7 0.841170 0.161623 0.315263
Si Si8 0.349513 0.051391 0.786904
O O1 0.603206 0.103607 0.420211
O O2 0.500000 0.000000 0.500000
O O3 0.664138 0.976229 0.517774
O O4 0.584211 0.978401 0.309928
O O5 0.134922 0.250000 0.042185
O O6 0.185420 0.361413 0.898266
O O7 0.257293 0.343294 0.105977
O O8 0.794685 0.614603 0.522128
O O9 0.676087 0.627798 0.685309
O O10 0.782931 0.513599 0.679858
O O11 0.602595 0.910280 0.103714
O O12 0.461629 0.857917 0.002302
O O13 0.587837 0.892479 0.875724
O O14 0.500000 0.000000 0.000000
O O15 0.851876 0.750000 0.508030
O O16 0.860639 0.657756 0.322155
O O17 0.248850 0.750000 0.279232
O O18 0.204519 0.617075 0.224896
O O19 0.870528 0.250000 0.305512
#
# Coordination Sequence:
#
# PCOD8254198 Si02
#       8
#     8   8   8   8   8   8   8   8
#     4  12  27  43  66 100 135 176 217 278 333 394
#     4  10  21  42  67  95 128 173 224 267 329 398
#     4  12  24  43  72  94 132 175 225 270 331 406
#     4  12  26  40  67 104 133 170 217 283 331 393
#     4  11  25  44  66  97 134 175 220 273 337 400
#     4  10  21  39  66  93 125 170 218 269 321 388
#     4  11  24  44  70  97 132 176 225 275 335 400
#     4  12  24  42  68  98 130 172 225 270 331 399
#
# _framework density 20.360015000000001
#
# number of rings (size 3 to 8) (size 9 to 14) (size 15 to 20)
#    0.000    0.750    6.250    0.750    5.250    0.500 
#    0.000    1.875    0.000    0.000    0.000    0.000 
#    0.000    0.000    0.000    0.000    0.000    0.000 
#
# Total GULP energy -793561.449125 kJ/mol
# GULP energy per Si atom -12399.397643 kJ/mol
# Density = 2.031368 g / cm^3
# Si number density = 20.360015 Si / 1000 Ang^3
#
#
#
# Elastic Constant Matrix: (Units=GPa)
#
#
# Indices 1 2 3 4 5 6 
#
# 1 75.4940 27.7927 5.3417 0.0000 0.0000 0.0000
# 2 27.7927 91.1982 14.0851 0.0000 0.0000 0.0000
# 3 5.3417 14.0851 72.2514 0.0000 0.0000 0.0000
# 4 0.0000 0.0000 0.0000 18.0379 0.0000 0.0000
# 5 0.0000 0.0000 0.0000 0.0000 30.0203 0.0000
# 6 0.0000 0.0000 0.0000 0.0000 0.0000 29.5623
#
#
#
# Elastic Compliance Matrix: (Units=1/GPa)
#
#
# Indices 1 2 3 4 5 6 
#
# 1 0.014923 -0.004513 -0.000223 0.000000 0.000000 0.000000
# 2 -0.004513 0.012671 -0.002136 0.000000 0.000000 0.000000
# 3 -0.000223 -0.002136 0.014274 0.000000 0.000000 0.000000
# 4 0.000000 0.000000 0.000000 0.055439 0.000000 0.000000
# 5 0.000000 0.000000 0.000000 0.000000 0.033311 0.000000
# 6 0.000000 0.000000 0.000000 0.000000 0.000000 0.033827
#
#
# Mechanical properties :
#
#
# Convention : Reuss Voigt Hill
#
# Bulk Modulus (GPa) = 35.56052 37.04251 36.30151
# Shear Modulus (GPa) = 26.65754 28.30572 27.48163
#
# Velocity S-wave (km/s) = 3.62236 3.73266 3.67793
# Velocity P-wave (km/s) = 5.91601 6.06715 5.99205
#
# Compressibility (1/GPa) = 0.02812107
#
# Stress axis : x y z
#
# Youngs Moduli (GPa) = 67.00848 78.92322 70.05964
#
# Poissons Ratio (x) = 0.35621 0.01566
# Poissons Ratio (y) = 0.30244 0.14967
# Poissons Ratio (z) = 0.01497 0.16861
#
# Static dielectric constant tensor:
#      x y z
#    x 3.570530 0.000000 0.000000 
#    y 0.000000 4.056870 0.000000 
#    z 0.000000 0.000000 3.867640 
# 
# 
# High freq. dielectric constant tensor:
#      x y z
#    x 1.781320 0.000000 0.000000 
#    y 0.000000 1.814830 0.000000 
#    z 0.000000 0.000000 1.803210 
# 
# From -- ./inp_files/13609.got.cif
#   From: 2010.03.12/outbox.cif.g09.slc.cpg/sg62_7_cif.got.tgz:13609.got - 2010.04.10 19:12:36.
