data_PCOD8254374
_publ_section_title
;
Structure prediction by ZEFSAII (Michael W. Deem and Ramdas Pophale) SiO2 
 PCOD8254374
Probable space group: P N M A
;
_chemical_formula_sum "Si O2"
_cell_formula_units_Z 56
_cell_length_a 9.537938
_cell_length_b 13.962394
_cell_length_c 20.099151
_cell_angle_alpha 90.000000
_cell_angle_beta 90.000000
_cell_angle_gamma 90.000000
_cell_volume 2676.653147
_symmetry_space_group_name_H-M "P N M A"
_symmetry_group_IT_number 62
_symmetry_cell_setting 'orthorhombic'
loop_
_space_group_symop_operation_xyz
x,y,z
1/2-x,-y,1/2+z
1/2+x,1/2-y,1/2-z
-x,1/2+y,-z
-x,-y,-z
1/2+x,y,1/2-z
1/2-x,1/2+y,1/2+z
x,1/2-y,z
loop_
_atom_site_type_symbol
_atom_site_label
_atom_site_fract_x
_atom_site_fract_y
_atom_site_fract_z
Si Si1 0.284749 0.857628 0.540993
Si Si2 0.004351 0.610384 0.485427
Si Si3 0.913395 0.364424 0.005334
Si Si4 0.811229 0.646000 0.601838
Si Si5 0.274634 0.858851 0.117016
Si Si6 0.743266 0.550500 0.820834
Si Si7 0.035567 0.365286 0.270566
O O1 0.318210 0.750000 0.564586
O O2 0.427978 0.904165 0.511371
O O3 0.224272 0.916046 0.603208
O O4 0.167175 0.857413 0.483062
O O5 0.929171 0.663992 0.546021
O O6 0.929109 0.637255 0.416296
O O7 0.000000 0.500000 0.500000
O O8 0.906560 0.250000 0.009113
O O9 0.821324 0.407476 0.067250
O O10 0.842905 0.394702 0.935851
O O11 0.761655 0.750000 0.627646
O O12 0.877239 0.593267 0.665819
O O13 0.246617 0.750000 0.142323
O O14 0.265390 0.933961 0.178464
O O15 0.622117 0.594875 0.774435
O O16 0.892263 0.589433 0.794447
O O17 0.030591 0.250000 0.267242
#
# Coordination Sequence:
#
# PCOD8254374 Si02
#       7
#     8   8   8   8   8   8   8
#     4  11  20  34  56  88 124 153 192 243 301 368
#     4  11  18  33  56  89 120 155 197 240 298 369
#     4   8  18  33  57  90 121 155 190 236 303 360
#     4   9  17  33  54  77 114 158 190 228 293 362
#     4  10  21  42  63  86 123 164 205 251 302 363
#     4  12  25  40  60  89 118 163 209 246 306 366
#     4  11  23  40  59  86 123 158 201 256 309 365
#
# _framework density 20.921648999999999
#
# number of rings (size 3 to 8) (size 9 to 14) (size 15 to 20)
#    0.000    1.714    2.857    3.429    2.000    0.571 
#    0.000    2.143    0.000    0.000    0.000    0.000 
#    0.000    0.000    0.000    0.000    0.000    0.000 
#
# Total GULP energy -694138.383788 kJ/mol
# GULP energy per Si atom -12395.328282 kJ/mol
# Density = 2.087403 g / cm^3
# Si number density = 20.921649 Si / 1000 Ang^3
#
#
#
# Elastic Constant Matrix: (Units=GPa)
#
#
# Indices 1 2 3 4 5 6 
#
# 1 151.4973 22.6996 24.6711 0.0000 0.0000 0.0000
# 2 22.6996 106.6058 26.4465 0.0000 0.0000 0.0000
# 3 24.6711 26.4465 41.3452 0.0000 0.0000 0.0000
# 4 0.0000 0.0000 0.0000 26.6226 0.0000 0.0000
# 5 0.0000 0.0000 0.0000 0.0000 26.7970 0.0000
# 6 0.0000 0.0000 0.0000 0.0000 0.0000 24.9627
#
#
#
# Elastic Compliance Matrix: (Units=1/GPa)
#
#
# Indices 1 2 3 4 5 6 
#
# 1 0.007340 -0.000566 -0.004018 0.000000 0.000000 0.000000
# 2 -0.000566 0.011193 -0.006822 0.000000 0.000000 0.000000
# 3 -0.004018 -0.006822 0.030948 0.000000 0.000000 0.000000
# 4 0.000000 0.000000 0.000000 0.037562 0.000000 0.000000
# 5 0.000000 0.000000 0.000000 0.000000 0.037318 0.000000
# 6 0.000000 0.000000 0.000000 0.000000 0.000000 0.040060
#
#
# Mechanical properties :
#
#
# Convention : Reuss Voigt Hill
#
# Bulk Modulus (GPa) = 37.49634 49.67585 43.58609
# Shear Modulus (GPa) = 25.49441 30.71853 28.10647
#
# Velocity S-wave (km/s) = 3.49458 3.83595 3.66924
# Velocity P-wave (km/s) = 5.85184 6.58898 6.23132
#
# Compressibility (1/GPa) = 0.02666927
#
# Stress axis : x y z
#
# Youngs Moduli (GPa) = 136.24205 89.33927 32.31269
#
# Poissons Ratio (x) = 0.05058 0.12982
# Poissons Ratio (y) = 0.07714 0.22044
# Poissons Ratio (z) = 0.54737 0.60947
#
# Static dielectric constant tensor:
#      x y z
#    x 4.219100 0.000000 0.000000 
#    y 0.000000 5.155470 0.000000 
#    z 0.000000 0.000000 3.438490 
# 
# 
# High freq. dielectric constant tensor:
#      x y z
#    x 1.829090 0.000000 0.000000 
#    y 0.000000 1.813530 0.000000 
#    z 0.000000 0.000000 1.771020 
# 
# From -- ./inp_files/26027.got.cif
#   From: 2010.03.12/outbox.cif.g09.slc.cpg/sg62_14_cif.got.tgz:26027.got - 2010.04.10 19:12:36.
