data_PCOD8254362
_publ_section_title
;
Structure prediction by ZEFSAII (Michael W. Deem and Ramdas Pophale) SiO2 
 PCOD8254362
Probable space group: P N M A
;
_chemical_formula_sum "Si O2"
_cell_formula_units_Z 64
_cell_length_a 19.630826
_cell_length_b 13.888431
_cell_length_c 11.099792
_cell_angle_alpha 90.000000
_cell_angle_beta 90.000000
_cell_angle_gamma 90.000000
_cell_volume 3026.262524
_symmetry_space_group_name_H-M "P N M A"
_symmetry_group_IT_number 62
_symmetry_cell_setting 'orthorhombic'
loop_
_space_group_symop_operation_xyz
x,y,z
1/2-x,-y,1/2+z
1/2+x,1/2-y,1/2-z
-x,1/2+y,-z
-x,-y,-z
1/2+x,y,1/2-z
1/2-x,1/2+y,1/2+z
x,1/2-y,z
loop_
_atom_site_type_symbol
_atom_site_label
_atom_site_fract_x
_atom_site_fract_y
_atom_site_fract_z
Si Si1 0.686757 0.034498 0.364057
Si Si2 0.163909 0.507898 0.713860
Si Si3 0.499786 0.606763 0.447811
Si Si4 0.061676 0.853567 0.818089
Si Si5 0.919176 0.860868 0.713843
Si Si6 0.894497 0.137234 0.754575
Si Si7 0.654182 0.359253 0.593360
Si Si8 0.920948 0.011828 0.528568
O O1 0.635278 0.115850 0.316521
O O2 0.692267 0.063358 0.505441
O O3 0.760294 0.046407 0.304541
O O4 0.659608 0.926904 0.331950
O O5 0.125155 0.575107 0.809965
O O6 0.164146 0.400547 0.770656
O O7 0.122800 0.518542 0.590947
O O8 0.500000 0.500000 0.500000
O O9 0.544490 0.667021 0.542332
O O10 0.532458 0.619058 0.316208
O O11 0.424660 0.648271 0.440196
O O12 0.080679 0.750000 0.759886
O O13 0.994318 0.897183 0.753455
O O14 0.919465 0.750000 0.684529
O O15 0.896180 0.915230 0.594037
O O16 0.873016 0.250000 0.755409
O O17 0.903268 0.102169 0.616249
O O18 0.684699 0.250000 0.587441
O O19 0.000000 0.000000 0.500000
#
# Coordination Sequence:
#
# PCOD8254362 Si02
#       8
#     8   8   8   8   8   8   8   8
#     4  11  25  44  67  95 136 177 221 281 342 399
#     4  12  27  43  66  97 137 178 223 281 337 399
#     4  12  19  40  72 101 134 166 215 291 349 389
#     4  11  21  38  66  99 130 171 225 278 331 393
#     4  10  21  41  67  92 126 175 223 272 332 395
#     4  11  24  42  68 100 136 181 225 272 342 413
#     4  12  25  43  72 103 132 173 227 282 343 407
#     4  11  23  42  66  93 133 176 219 277 334 402
#
# _framework density 21.148198000000001
#
# number of rings (size 3 to 8) (size 9 to 14) (size 15 to 20)
#    0.000    0.750    5.000    3.000    3.500    3.000 
#    0.000    0.000    0.000    0.000    0.000    0.000 
#    0.000    0.000    0.000    0.000    0.000    0.000 
#
# Total GULP energy -793316.806281 kJ/mol
# GULP energy per Si atom -12395.575098 kJ/mol
# Density = 2.110006 g / cm^3
# Si number density = 21.148198 Si / 1000 Ang^3
#
#
#
# Elastic Constant Matrix: (Units=GPa)
#
#
# Indices 1 2 3 4 5 6 
#
# 1 109.3850 36.9948 18.8439 0.0000 0.0000 0.0000
# 2 36.9948 139.5211 42.6971 0.0000 0.0000 0.0000
# 3 18.8439 42.6971 105.5286 0.0000 0.0000 0.0000
# 4 0.0000 0.0000 0.0000 21.3890 0.0000 0.0000
# 5 0.0000 0.0000 0.0000 0.0000 30.8514 0.0000
# 6 0.0000 0.0000 0.0000 0.0000 0.0000 8.2941
#
#
#
# Elastic Compliance Matrix: (Units=1/GPa)
#
#
# Indices 1 2 3 4 5 6 
#
# 1 0.010105 -0.002428 -0.000822 0.000000 0.000000 0.000000
# 2 -0.002428 0.008764 -0.003112 0.000000 0.000000 0.000000
# 3 -0.000822 -0.003112 0.010882 0.000000 0.000000 0.000000
# 4 0.000000 0.000000 0.000000 0.046753 0.000000 0.000000
# 5 0.000000 0.000000 0.000000 0.000000 0.032413 0.000000
# 6 0.000000 0.000000 0.000000 0.000000 0.000000 0.120568
#
#
# Mechanical properties :
#
#
# Convention : Reuss Voigt Hill
#
# Bulk Modulus (GPa) = 58.73287 61.27847 60.00567
# Shear Modulus (GPa) = 20.17071 29.16682 24.66876
#
# Velocity S-wave (km/s) = 3.09168 3.71774 3.41907
# Velocity P-wave (km/s) = 6.37001 6.88966 6.63492
#
# Compressibility (1/GPa) = 0.01702624
#
# Stress axis : x y z
#
# Youngs Moduli (GPa) = 98.96359 114.10932 91.89381
#
# Poissons Ratio (x) = 0.27703 0.07555
# Poissons Ratio (y) = 0.24026 0.28600
# Poissons Ratio (z) = 0.08136 0.35513
#
# Static dielectric constant tensor:
#      x y z
#    x 3.829890 0.000000 0.000000 
#    y 0.000000 3.902110 0.000000 
#    z 0.000000 0.000000 4.197720 
# 
# 
# High freq. dielectric constant tensor:
#      x y z
#    x 1.813720 0.000000 0.000000 
#    y 0.000000 1.834100 0.000000 
#    z 0.000000 0.000000 1.833080 
# 
# From -- ./inp_files/14354.got.cif
#   From: 2010.03.12/outbox.cif.g09.slc.cpg/sg62_8_cif.got.tgz:14354.got - 2010.04.10 19:12:36.
