data_PCOD8254464
_publ_section_title
;
Structure prediction by ZEFSAII (Michael W. Deem and Ramdas Pophale) SiO2 
 PCOD8254464
Probable space group: P N M A
;
_chemical_formula_sum "Si O2"
_cell_formula_units_Z 64
_cell_length_a 8.718422
_cell_length_b 22.471369
_cell_length_c 16.118864
_cell_angle_alpha 90.000000
_cell_angle_beta 90.000000
_cell_angle_gamma 90.000000
_cell_volume 3157.925272
_symmetry_space_group_name_H-M "P N M A"
_symmetry_group_IT_number 62
_symmetry_cell_setting 'orthorhombic'
loop_
_space_group_symop_operation_xyz
x,y,z
1/2-x,-y,1/2+z
1/2+x,1/2-y,1/2-z
-x,1/2+y,-z
-x,-y,-z
1/2+x,y,1/2-z
1/2-x,1/2+y,1/2+z
x,1/2-y,z
loop_
_atom_site_type_symbol
_atom_site_label
_atom_site_fract_x
_atom_site_fract_y
_atom_site_fract_z
Si Si1 0.408023 0.684370 0.679138
Si Si2 0.096392 0.074935 0.979545
Si Si3 0.933261 0.510582 0.860686
Si Si4 0.594789 0.991204 0.808807
Si Si5 0.444718 0.442990 0.945984
Si Si6 0.061863 0.685971 0.994029
Si Si7 0.084460 0.181007 0.492328
Si Si8 0.067066 0.860497 0.664527
O O1 0.380541 0.750000 0.716941
O O2 0.519479 0.689595 0.601722
O O3 0.497401 0.643808 0.744208
O O4 0.243750 0.657045 0.657917
O O5 0.262176 0.056083 0.949158
O O6 0.969072 0.039159 0.928905
O O7 0.055815 0.142989 0.958233
O O8 0.075935 0.069433 0.080605
O O9 0.774558 0.495288 0.815853
O O10 0.061043 0.514826 0.789264
O O11 0.499521 0.044351 0.851798
O O12 0.555646 0.930304 0.858624
O O13 0.500000 0.500000 0.000000
O O14 0.496418 0.374972 0.965738
O O15 0.041341 0.750000 0.036928
O O16 0.237489 0.665291 0.001451
O O17 0.050099 0.250000 0.524402
O O18 0.033481 0.179852 0.396586
#
# Coordination Sequence:
#
# PCOD8254464 Si02
#       8
#     8   8   8   8   8   8   8   8
#     4  11  22  35  51  78 117 164 210 254 303 367
#     4  11  23  41  63  91 124 169 206 262 320 372
#     4  11  24  38  61  89 125 165 210 258 318 372
#     4  12  23  40  59  92 126 166 211 264 315 377
#     4  12  23  42  64  93 127 164 208 265 313 377
#     4  10  22  38  58  85 118 159 207 254 307 377
#     4  11  23  39  61  87 119 162 207 256 313 377
#     4  12  22  35  55  80 120 161 211 253 309 365
#
# _framework density 20.266470999999999
#
# number of rings (size 3 to 8) (size 9 to 14) (size 15 to 20)
#    0.000    0.750    2.500    6.375    1.750    3.500 
#    0.000    0.000    0.000    0.750    0.000    0.000 
#    0.000    0.000    0.000    0.000    0.000    0.000 
#
# Total GULP energy -793181.162322 kJ/mol
# GULP energy per Si atom -12393.455661 kJ/mol
# Density = 2.022034 g / cm^3
# Si number density = 20.266471 Si / 1000 Ang^3
#
#
#
# Elastic Constant Matrix: (Units=GPa)
#
#
# Indices 1 2 3 4 5 6 
#
# 1 105.9575 38.1774 30.2250 0.0000 0.0000 0.0000
# 2 38.1774 115.6935 21.4891 0.0000 0.0000 0.0000
# 3 30.2250 21.4891 59.3932 0.0000 0.0000 0.0000
# 4 0.0000 0.0000 0.0000 27.1896 0.0000 0.0000
# 5 0.0000 0.0000 0.0000 0.0000 36.4644 0.0000
# 6 0.0000 0.0000 0.0000 0.0000 0.0000 34.3249
#
#
#
# Elastic Compliance Matrix: (Units=1/GPa)
#
#
# Indices 1 2 3 4 5 6 
#
# 1 0.011948 -0.003016 -0.004989 0.000000 0.000000 0.000000
# 2 -0.003016 0.010028 -0.002093 0.000000 0.000000 0.000000
# 3 -0.004989 -0.002093 0.020133 0.000000 0.000000 0.000000
# 4 0.000000 0.000000 0.000000 0.036779 0.000000 0.000000
# 5 0.000000 0.000000 0.000000 0.000000 0.027424 0.000000
# 6 0.000000 0.000000 0.000000 0.000000 0.000000 0.029133
#
#
# Mechanical properties :
#
#
# Convention : Reuss Voigt Hill
#
# Bulk Modulus (GPa) = 45.63690 51.20302 48.41996
# Shear Modulus (GPa) = 30.68531 32.33930 31.51230
#
# Velocity S-wave (km/s) = 3.89536 3.99896 3.94750
# Velocity P-wave (km/s) = 6.54210 6.82949 6.68734
#
# Compressibility (1/GPa) = 0.02191209
#
# Stress axis : x y z
#
# Youngs Moduli (GPa) = 83.69950 99.72533 49.66934
#
# Poissons Ratio (x) = 0.30076 0.24779
# Poissons Ratio (y) = 0.25243 0.10397
# Poissons Ratio (z) = 0.41757 0.20875
#
# Static dielectric constant tensor:
#      x y z
#    x 3.713080 0.000000 0.000000 
#    y 0.000000 4.082540 0.000000 
#    z 0.000000 0.000000 3.287940 
# 
# 
# High freq. dielectric constant tensor:
#      x y z
#    x 1.804690 0.000000 0.000000 
#    y 0.000000 1.805410 0.000000 
#    z 0.000000 0.000000 1.758890 
# 
# From -- ./inp_files/22563.got.cif
#   From: 2010.03.12/outbox.cif.g09.slc.cpg/sg62_12_cif.got.tgz:22563.got - 2010.04.10 19:12:36.
