data_PCOD8254461
_publ_section_title
;
Structure prediction by ZEFSAII (Michael W. Deem and Ramdas Pophale) SiO2 
 PCOD8254461
Probable space group: P N M A
;
_chemical_formula_sum "Si O2"
_cell_formula_units_Z 48
_cell_length_a 9.837820
_cell_length_b 28.640374
_cell_length_c 9.165254
_cell_angle_alpha 90.000000
_cell_angle_beta 90.000000
_cell_angle_gamma 90.000000
_cell_volume 2582.391373
_symmetry_space_group_name_H-M "P N M A"
_symmetry_group_IT_number 62
_symmetry_cell_setting 'orthorhombic'
loop_
_space_group_symop_operation_xyz
x,y,z
1/2-x,-y,1/2+z
1/2+x,1/2-y,1/2-z
-x,1/2+y,-z
-x,-y,-z
1/2+x,y,1/2-z
1/2-x,1/2+y,1/2+z
x,1/2-y,z
loop_
_atom_site_type_symbol
_atom_site_label
_atom_site_fract_x
_atom_site_fract_y
_atom_site_fract_z
Si Si1 0.747229 0.303739 0.654367
Si Si2 0.049167 0.302740 0.594404
Si Si3 0.615402 0.026581 0.085310
Si Si4 0.361375 0.515577 0.572169
Si Si5 0.989739 0.625427 0.651973
Si Si6 0.297740 0.620510 0.588297
O O1 0.710967 0.250000 0.609539
O O2 0.672182 0.318349 0.802391
O O3 0.697968 0.340033 0.533727
O O4 0.907809 0.309313 0.681698
O O5 0.068996 0.250000 0.543171
O O6 0.049997 0.331365 0.447044
O O7 0.631377 0.009789 0.252796
O O8 0.575878 0.080385 0.077854
O O9 0.500000 0.000000 0.000000
O O10 0.752876 0.019806 0.995491
O O11 0.500000 0.500000 0.500000
O O12 0.323509 0.568549 0.525440
O O13 0.922222 0.634123 0.807766
O O14 0.152328 0.620245 0.671238
#
# Coordination Sequence:
#
# PCOD8254461 Si02
#       6
#     8   8   8   8   8   8
#     4   9  19  37  59  84 115 147 186 234 282 337
#     4   9  19  37  58  84 115 147 186 234 284 335
#     4  11  22  41  59  84 119 152 195 240 288 341
#     4  11  24  39  61  86 115 157 195 243 290 343
#     4  10  22  38  58  82 115 151 186 236 282 339
#     4  10  22  39  57  83 115 149 190 232 284 338
#
# _framework density 18.587423999999999
#
# number of rings (size 3 to 8) (size 9 to 14) (size 15 to 20)
#    0.000    2.000    1.667    1.000    7.000    4.667 
#    0.000    0.000    0.000    0.000    0.000    0.000 
#    0.000    0.000    0.000    0.000    0.000    0.000 
#
# Total GULP energy -595168.705980 kJ/mol
# GULP energy per Si atom -12399.348041 kJ/mol
# Density = 1.854512 g / cm^3
# Si number density = 18.587424 Si / 1000 Ang^3
#
#
#
# Elastic Constant Matrix: (Units=GPa)
#
#
# Indices 1 2 3 4 5 6 
#
# 1 82.2145 23.4353 18.6694 0.0000 0.0000 0.0000
# 2 23.4353 64.7787 26.8798 0.0000 0.0000 0.0000
# 3 18.6694 26.8798 56.9414 0.0000 0.0000 0.0000
# 4 0.0000 0.0000 0.0000 31.4042 0.0000 0.0000
# 5 0.0000 0.0000 0.0000 0.0000 42.3693 0.0000
# 6 0.0000 0.0000 0.0000 0.0000 0.0000 29.4509
#
#
#
# Elastic Compliance Matrix: (Units=1/GPa)
#
#
# Indices 1 2 3 4 5 6 
#
# 1 0.013891 -0.003899 -0.002714 0.000000 0.000000 0.000000
# 2 -0.003899 0.020292 -0.008301 0.000000 0.000000 0.000000
# 3 -0.002714 -0.008301 0.022370 0.000000 0.000000 0.000000
# 4 0.000000 0.000000 0.000000 0.031843 0.000000 0.000000
# 5 0.000000 0.000000 0.000000 0.000000 0.023602 0.000000
# 6 0.000000 0.000000 0.000000 0.000000 0.000000 0.033955
#
#
# Mechanical properties :
#
#
# Convention : Reuss Voigt Hill
#
# Bulk Modulus (GPa) = 37.41700 37.98929 37.70314
# Shear Modulus (GPa) = 27.07252 29.64156 28.35704
#
# Velocity S-wave (km/s) = 3.82055 3.99771 3.91013
# Velocity P-wave (km/s) = 6.29572 6.46463 6.38074
#
# Compressibility (1/GPa) = 0.02672582
#
# Stress axis : x y z
#
# Youngs Moduli (GPa) = 71.98872 49.28001 44.70263
#
# Poissons Ratio (x) = 0.19216 0.12131
# Poissons Ratio (y) = 0.28071 0.37106
# Poissons Ratio (z) = 0.19536 0.40906
#
# Static dielectric constant tensor:
#      x y z
#    x 3.527650 0.000000 0.000000 
#    y 0.000000 3.396800 0.000000 
#    z 0.000000 0.000000 3.801760 
# 
# 
# High freq. dielectric constant tensor:
#      x y z
#    x 1.739330 0.000000 0.000000 
#    y 0.000000 1.730380 0.000000 
#    z 0.000000 0.000000 1.709890 
# 
# From -- ./inp_files/4510.got.cif
#   From: 2010.03.12/outbox.cif.g09.slc.cpg/sg62_3_cif.got.tgz:4510.got - 2010.04.10 19:12:36.
