data_PCOD8254338
_publ_section_title
;
Structure prediction by ZEFSAII (Michael W. Deem and Ramdas Pophale) SiO2 
 PCOD8254338
Probable space group: P N M A
;
_chemical_formula_sum "Si O2"
_cell_formula_units_Z 48
_cell_length_a 9.949489
_cell_length_b 8.505917
_cell_length_c 27.100754
_cell_angle_alpha 90.000000
_cell_angle_beta 90.000000
_cell_angle_gamma 90.000000
_cell_volume 2293.524009
_symmetry_space_group_name_H-M "P N M A"
_symmetry_group_IT_number 62
_symmetry_cell_setting 'orthorhombic'
loop_
_space_group_symop_operation_xyz
x,y,z
1/2-x,-y,1/2+z
1/2+x,1/2-y,1/2-z
-x,1/2+y,-z
-x,-y,-z
1/2+x,y,1/2-z
1/2-x,1/2+y,1/2+z
x,1/2-y,z
loop_
_atom_site_type_symbol
_atom_site_label
_atom_site_fract_x
_atom_site_fract_y
_atom_site_fract_z
Si Si1 0.505050 0.568162 0.601801
Si Si2 0.730701 0.066333 0.927429
Si Si3 0.367842 0.068665 0.782424
Si Si4 0.752551 0.563679 0.538622
Si Si5 0.469007 0.934219 0.883727
Si Si6 0.416449 0.070568 0.287102
O O1 0.466599 0.750000 0.593094
O O2 0.373893 0.461232 0.597870
O O3 0.611435 0.505779 0.561343
O O4 0.573819 0.543742 0.654560
O O5 0.694799 0.250000 0.926045
O O6 0.622763 0.968872 0.896557
O O7 0.732414 0.998751 0.983254
O O8 0.328088 0.250000 0.782629
O O9 0.431962 0.024389 0.834423
O O10 0.233904 0.971190 0.770389
O O11 0.475623 0.038012 0.739763
O O12 0.753592 0.750000 0.538420
O O13 0.876144 0.501629 0.571674
O O14 0.446838 0.750000 0.874673
O O15 0.445504 0.250000 0.272167
#
# Coordination Sequence:
#
# PCOD8254338 Si02
#       6
#     8   8   8   8   8   8
#     4  10  21  41  65  90 123 167 212 253 304 377
#     4  11  23  37  59  95 132 164 206 263 318 365
#     4  12  26  44  67  98 131 160 205 267 324 370
#     4   9  19  39  64  90 123 163 212 263 310 370
#     4  11  22  42  66  89 124 170 216 256 309 381
#     4  11  24  45  71  94 124 169 214 253 311 385
#
# _framework density 20.928494000000001
#
# number of rings (size 3 to 8) (size 9 to 14) (size 15 to 20)
#    0.000    1.333    1.667    4.000    2.333    1.333 
#    0.000    3.333    0.000    0.000    0.000    0.000 
#    0.000    0.000    0.000    0.000    0.000    0.000 
#
# Total GULP energy -595533.455714 kJ/mol
# GULP energy per Si atom -12406.946994 kJ/mol
# Density = 2.088086 g / cm^3
# Si number density = 20.928494 Si / 1000 Ang^3
#
#
#
# Elastic Constant Matrix: (Units=GPa)
#
#
# Indices 1 2 3 4 5 6 
#
# 1 106.0912 7.7192 13.2716 0.0000 0.0000 0.0000
# 2 7.7192 56.6305 22.8432 0.0000 0.0000 0.0000
# 3 13.2716 22.8432 61.7085 0.0000 0.0000 0.0000
# 4 0.0000 0.0000 0.0000 18.7608 0.0000 0.0000
# 5 0.0000 0.0000 0.0000 0.0000 42.4265 0.0000
# 6 0.0000 0.0000 0.0000 0.0000 0.0000 26.4340
#
#
#
# Elastic Compliance Matrix: (Units=1/GPa)
#
#
# Indices 1 2 3 4 5 6 
#
# 1 0.009702 -0.000565 -0.001877 0.000000 0.000000 0.000000
# 2 -0.000565 0.020791 -0.007575 0.000000 0.000000 0.000000
# 3 -0.001877 -0.007575 0.019413 0.000000 0.000000 0.000000
# 4 0.000000 0.000000 0.000000 0.053303 0.000000 0.000000
# 5 0.000000 0.000000 0.000000 0.000000 0.023570 0.000000
# 6 0.000000 0.000000 0.000000 0.000000 0.000000 0.037830
#
#
# Mechanical properties :
#
#
# Convention : Reuss Voigt Hill
#
# Bulk Modulus (GPa) = 33.47719 34.67756 34.07738
# Shear Modulus (GPa) = 25.69371 29.56401 27.62886
#
# Velocity S-wave (km/s) = 3.50764 3.76256 3.63734
# Velocity P-wave (km/s) = 5.69521 5.95662 5.82738
#
# Compressibility (1/GPa) = 0.02987108
#
# Stress axis : x y z
#
# Youngs Moduli (GPa) = 103.07339 48.09810 51.51182
#
# Poissons Ratio (x) = 0.02718 0.09671
# Poissons Ratio (y) = 0.05825 0.39019
# Poissons Ratio (z) = 0.19351 0.36433
#
# Static dielectric constant tensor:
#      x y z
#    x 3.799370 0.000000 0.000000 
#    y 0.000000 3.686820 0.000000 
#    z 0.000000 0.000000 3.926490 
# 
# 
# High freq. dielectric constant tensor:
#      x y z
#    x 1.833460 0.000000 0.000000 
#    y 0.000000 1.805250 0.000000 
#    z 0.000000 0.000000 1.827790 
# 
# From -- ./inp_files/31915.got.cif
#   From: 2010.03.12/outbox.cif.g09.slc.cpg/sg62_16_cif.got.tgz:31915.got - 2010.04.10 19:12:36.
