data_PCOD8254823
_publ_section_title
;
Structure prediction by ZEFSAII (Michael W. Deem and Ramdas Pophale) SiO2 
 PCOD8254823
Probable space group: P N M A
;
_chemical_formula_sum "Si O2"
_cell_formula_units_Z 64
_cell_length_a 30.454813
_cell_length_b 8.529597
_cell_length_c 11.804474
_cell_angle_alpha 90.000000
_cell_angle_beta 90.000000
_cell_angle_gamma 90.000000
_cell_volume 3066.416122
_symmetry_space_group_name_H-M "P N M A"
_symmetry_group_IT_number 62
_symmetry_cell_setting 'orthorhombic'
loop_
_space_group_symop_operation_xyz
x,y,z
1/2-x,-y,1/2+z
1/2+x,1/2-y,1/2-z
-x,1/2+y,-z
-x,-y,-z
1/2+x,y,1/2-z
1/2-x,1/2+y,1/2+z
x,1/2-y,z
loop_
_atom_site_type_symbol
_atom_site_label
_atom_site_fract_x
_atom_site_fract_y
_atom_site_fract_z
Si Si1 0.661485 0.568760 0.000505
Si Si2 0.069663 0.070219 0.508446
Si Si3 0.299740 0.067942 0.240014
Si Si4 0.544504 0.068949 0.237560
Si Si5 0.446359 0.070565 0.244940
Si Si6 0.628207 0.069369 0.605817
Si Si7 0.374174 0.430699 0.637775
Si Si8 0.299102 0.568289 0.787032
O O1 0.647227 0.750000 0.000456
O O2 0.620254 0.457781 0.022925
O O3 0.683197 0.519657 0.882895
O O4 0.695297 0.536769 0.101453
O O5 0.062230 0.250000 0.543730
O O6 0.042546 0.025200 0.395774
O O7 0.055495 0.959129 0.610758
O O8 0.307971 0.250000 0.265482
O O9 0.248644 0.024562 0.239725
O O10 0.325860 0.970201 0.334139
O O11 0.558465 0.250000 0.251470
O O12 0.495919 0.038154 0.288079
O O13 0.578995 0.963850 0.304580
O O14 0.432711 0.250000 0.266590
O O15 0.412465 0.960560 0.310135
O O16 0.628182 0.250000 0.570303
O O17 0.622169 0.965601 0.494682
O O18 0.362660 0.250000 0.656713
O O19 0.335382 0.532233 0.692174
O O20 0.302202 0.750000 0.819823
#
# Coordination Sequence:
#
# PCOD8254823 Si02
#       8
#     8   8   8   8   8   8   8   8
#     4  11  22  39  65  96 130 170 211 259 316 372
#     4  11  21  37  63  96 131 168 209 258 316 373
#     4  10  24  44  66  94 130 168 211 261 313 372
#     4  10  23  42  65  93 128 169 212 261 315 373
#     4  11  23  41  65  94 129 167 211 262 315 378
#     4  12  26  44  67  92 126 167 211 264 319 377
#     4  12  26  44  67  93 126 168 213 261 316 379
#     4  11  24  43  66  96 131 167 211 263 316 374
#
# _framework density 20.871272000000001
#
# number of rings (size 3 to 8) (size 9 to 14) (size 15 to 20)
#    0.000    1.000    2.500    4.125    1.750    3.500 
#    0.000    0.000    0.000    0.000    0.000    0.000 
#    0.000    0.000    0.000    0.000    0.000    0.000 
#
# Total GULP energy -794007.142544 kJ/mol
# GULP energy per Si atom -12406.361602 kJ/mol
# Density = 2.082377 g / cm^3
# Si number density = 20.871272 Si / 1000 Ang^3
#
#
#
# Elastic Constant Matrix: (Units=GPa)
#
#
# Indices 1 2 3 4 5 6 
#
# 1 107.6737 25.8109 20.5561 0.0000 0.0000 0.0000
# 2 25.8109 56.3277 16.2533 0.0000 0.0000 0.0000
# 3 20.5561 16.2533 94.4131 0.0000 0.0000 0.0000
# 4 0.0000 0.0000 0.0000 35.7214 0.0000 0.0000
# 5 0.0000 0.0000 0.0000 0.0000 20.0859 0.0000
# 6 0.0000 0.0000 0.0000 0.0000 0.0000 23.8470
#
#
#
# Elastic Compliance Matrix: (Units=1/GPa)
#
#
# Indices 1 2 3 4 5 6 
#
# 1 0.010646 -0.004430 -0.001555 0.000000 0.000000 0.000000
# 2 -0.004430 0.020524 -0.002569 0.000000 0.000000 0.000000
# 3 -0.001555 -0.002569 0.011373 0.000000 0.000000 0.000000
# 4 0.000000 0.000000 0.000000 0.027994 0.000000 0.000000
# 5 0.000000 0.000000 0.000000 0.000000 0.049786 0.000000
# 6 0.000000 0.000000 0.000000 0.000000 0.000000 0.041934
#
#
# Mechanical properties :
#
#
# Convention : Reuss Voigt Hill
#
# Bulk Modulus (GPa) = 39.31523 42.62835 40.97179
# Shear Modulus (GPa) = 26.61790 28.98380 27.80085
#
# Velocity S-wave (km/s) = 3.57506 3.73056 3.65364
# Velocity P-wave (km/s) = 5.99327 6.24699 6.12144
#
# Compressibility (1/GPa) = 0.02543543
#
# Stress axis : x y z
#
# Youngs Moduli (GPa) = 93.93130 48.72290 87.93046
#
# Poissons Ratio (x) = 0.21582 0.13676
# Poissons Ratio (y) = 0.41607 0.22588
# Poissons Ratio (z) = 0.14610 0.12516
#
# Static dielectric constant tensor:
#      x y z
#    x 3.862170 0.000000 0.000000 
#    y 0.000000 3.670220 0.000000 
#    z 0.000000 0.000000 3.731490 
# 
# 
# High freq. dielectric constant tensor:
#      x y z
#    x 1.827710 0.000000 0.000000 
#    y 0.000000 1.818650 0.000000 
#    z 0.000000 0.000000 1.818780 
# 
# From -- ./inp_files/15857.got.cif
#   From: 2010.03.12/outbox.cif.g09.slc.cpg/sg62_8_cif.got.tgz:15857.got - 2010.04.10 19:12:36.
