data_PCOD8254585
_publ_section_title
;
Structure prediction by ZEFSAII (Michael W. Deem and Ramdas Pophale) SiO2 
 PCOD8254585
Probable space group: P N M A
;
_chemical_formula_sum "Si O2"
_cell_formula_units_Z 48
_cell_length_a 14.593222
_cell_length_b 8.871376
_cell_length_c 18.625518
_cell_angle_alpha 90.000000
_cell_angle_beta 90.000000
_cell_angle_gamma 90.000000
_cell_volume 2411.296055
_symmetry_space_group_name_H-M "P N M A"
_symmetry_group_IT_number 62
_symmetry_cell_setting 'orthorhombic'
loop_
_space_group_symop_operation_xyz
x,y,z
1/2-x,-y,1/2+z
1/2+x,1/2-y,1/2-z
-x,1/2+y,-z
-x,-y,-z
1/2+x,y,1/2-z
1/2-x,1/2+y,1/2+z
x,1/2-y,z
loop_
_atom_site_type_symbol
_atom_site_label
_atom_site_fract_x
_atom_site_fract_y
_atom_site_fract_z
Si Si1 0.748281 0.574592 0.579999
Si Si2 0.711091 0.076735 0.241073
Si Si3 0.908297 0.573150 0.471082
Si Si4 0.898490 0.424946 0.320197
Si Si5 0.465857 0.427106 0.714197
Si Si6 0.945341 0.572277 0.064867
O O1 0.720997 0.750000 0.576536
O O2 0.788822 0.532651 0.657555
O O3 0.825061 0.530068 0.522948
O O4 0.659559 0.477378 0.562018
O O5 0.682511 0.250000 0.252795
O O6 0.811861 0.044419 0.270225
O O7 0.640993 0.971044 0.284325
O O8 0.923828 0.750000 0.467413
O O9 0.882331 0.511977 0.393540
O O10 0.000000 0.500000 0.500000
O O11 0.914225 0.250000 0.336976
O O12 0.987563 0.486863 0.280178
O O13 0.478531 0.250000 0.724755
O O14 0.509053 0.481953 0.639282
O O15 0.951401 0.750000 0.056879
O O16 0.000000 0.500000 0.000000
#
# Coordination Sequence:
#
# PCOD8254585 Si02
#       6
#     8   8   8   8   8   8
#     4  10  22  43  66  92 125 165 210 259 312 369
#     4  10  22  40  65  93 123 164 208 256 315 376
#     4  11  24  41  65  95 129 166 211 264 318 376
#     4  11  23  41  65  93 127 166 210 257 312 378
#     4  11  24  41  64  94 126 163 209 263 316 371
#     4  11  25  42  63  92 126 167 211 258 315 375
#
# _framework density 19.906307000000002
#
# number of rings (size 3 to 8) (size 9 to 14) (size 15 to 20)
#    0.000    1.333    1.667    3.000    2.333    6.667 
#    0.000    0.000    0.000    0.000    0.000    0.000 
#    0.000    0.000    0.000    0.000    0.000    0.000 
#
# Total GULP energy -595564.153746 kJ/mol
# GULP energy per Si atom -12407.586536 kJ/mol
# Density = 1.986100 g / cm^3
# Si number density = 19.906307 Si / 1000 Ang^3
#
#
#
# Elastic Constant Matrix: (Units=GPa)
#
#
# Indices 1 2 3 4 5 6 
#
# 1 89.8569 43.1722 29.4990 0.0000 0.0000 0.0000
# 2 43.1722 67.5406 39.8590 0.0000 0.0000 0.0000
# 3 29.4990 39.8590 120.2233 0.0000 0.0000 0.0000
# 4 0.0000 0.0000 0.0000 36.0072 0.0000 0.0000
# 5 0.0000 0.0000 0.0000 0.0000 30.9869 0.0000
# 6 0.0000 0.0000 0.0000 0.0000 0.0000 40.3409
#
#
#
# Elastic Compliance Matrix: (Units=1/GPa)
#
#
# Indices 1 2 3 4 5 6 
#
# 1 0.016105 -0.009899 -0.000670 0.000000 0.000000 0.000000
# 2 -0.009899 0.024492 -0.005691 0.000000 0.000000 0.000000
# 3 -0.000670 -0.005691 0.010369 0.000000 0.000000 0.000000
# 4 0.000000 0.000000 0.000000 0.027772 0.000000 0.000000
# 5 0.000000 0.000000 0.000000 0.000000 0.032272 0.000000
# 6 0.000000 0.000000 0.000000 0.000000 0.000000 0.024789
#
#
# Mechanical properties :
#
#
# Convention : Reuss Voigt Hill
#
# Bulk Modulus (GPa) = 54.21219 55.85348 55.03283
# Shear Modulus (GPa) = 28.65875 32.47303 30.56589
#
# Velocity S-wave (km/s) = 3.79843 4.04331 3.92278
# Velocity P-wave (km/s) = 6.82131 7.06519 6.94432
#
# Compressibility (1/GPa) = 0.01844604
#
# Stress axis : x y z
#
# Youngs Moduli (GPa) = 62.09388 40.82958 96.44081
#
# Poissons Ratio (x) = 0.40417 0.06458
# Poissons Ratio (y) = 0.61466 0.54887
# Poissons Ratio (z) = 0.04158 0.23237
#
# Static dielectric constant tensor:
#      x y z
#    x 3.795090 0.000000 0.000000 
#    y 0.000000 3.969680 0.000000 
#    z 0.000000 0.000000 3.779330 
# 
# 
# High freq. dielectric constant tensor:
#      x y z
#    x 1.789380 0.000000 0.000000 
#    y 0.000000 1.780990 0.000000 
#    z 0.000000 0.000000 1.790600 
# 
# From -- ./inp_files/23679.got.cif
#   From: 2010.03.12/outbox.cif.g09.slc.cpg/sg62_12_cif.got.tgz:23679.got - 2010.04.10 19:12:36.
