data_PCOD8254465
_publ_section_title
;
Structure prediction by ZEFSAII (Michael W. Deem and Ramdas Pophale) SiO2 
 PCOD8254465
Probable space group: P N M A
;
_chemical_formula_sum "Si O2"
_cell_formula_units_Z 40
_cell_length_a 8.690673
_cell_length_b 23.532567
_cell_length_c 9.421322
_cell_angle_alpha 90.000000
_cell_angle_beta 90.000000
_cell_angle_gamma 90.000000
_cell_volume 1926.790784
_symmetry_space_group_name_H-M "P N M A"
_symmetry_group_IT_number 62
_symmetry_cell_setting 'orthorhombic'
loop_
_space_group_symop_operation_xyz
x,y,z
1/2-x,-y,1/2+z
1/2+x,1/2-y,1/2-z
-x,1/2+y,-z
-x,-y,-z
1/2+x,y,1/2-z
1/2-x,1/2+y,1/2+z
x,1/2-y,z
loop_
_atom_site_type_symbol
_atom_site_label
_atom_site_fract_x
_atom_site_fract_y
_atom_site_fract_z
Si Si1 0.278813 0.091596 0.393501
Si Si2 0.866134 0.622594 0.890228
Si Si3 0.868774 0.528754 0.092277
Si Si4 0.791310 0.185434 0.614468
Si Si5 0.595593 0.119588 0.827119
O O1 0.184987 0.124055 0.272190
O O2 0.450283 0.116786 0.399597
O O3 0.202365 0.101653 0.543757
O O4 0.265134 0.024139 0.355951
O O5 0.784768 0.572065 0.983447
O O6 0.804315 0.679570 0.966666
O O7 0.932247 0.564312 0.227106
O O8 0.000000 0.500000 0.000000
O O9 0.847677 0.250000 0.629756
O O10 0.678642 0.170273 0.743629
O O11 0.934694 0.142552 0.615723
#
# Coordination Sequence:
#
# PCOD8254465 Si02
#       5
#     8   8   8   8   8
#     4  11  21  38  59  89 124 157 194 242 301 364
#     4  10  22  38  58  85 120 155 196 243 294 361
#     4   9  19  36  58  89 125 159 192 238 298 362
#     4  11  23  42  62  85 115 155 203 257 305 350
#     4  11  22  38  64  92 120 158 206 250 299 369
#
# _framework density 20.759907999999999
#
# number of rings (size 3 to 8) (size 9 to 14) (size 15 to 20)
#    0.000    1.600    0.000    6.600    0.000    4.800 
#    0.000   16.000    0.000    0.000    0.000    0.000 
#    0.000    0.000    0.000    0.000    0.000    0.000 
#
# Total GULP energy -495819.831474 kJ/mol
# GULP energy per Si atom -12395.495787 kJ/mol
# Density = 2.071266 g / cm^3
# Si number density = 20.759908 Si / 1000 Ang^3
#
#
#
# Elastic Constant Matrix: (Units=GPa)
#
#
# Indices 1 2 3 4 5 6 
#
# 1 108.4223 31.2268 52.6500 0.0000 0.0000 0.0000
# 2 31.2268 94.7889 55.2521 0.0000 0.0000 0.0000
# 3 52.6500 55.2521 151.5686 0.0000 0.0000 0.0000
# 4 0.0000 0.0000 0.0000 20.3941 0.0000 0.0000
# 5 0.0000 0.0000 0.0000 0.0000 39.7901 0.0000
# 6 0.0000 0.0000 0.0000 0.0000 0.0000 22.1393
#
#
#
# Elastic Compliance Matrix: (Units=1/GPa)
#
#
# Indices 1 2 3 4 5 6 
#
# 1 0.011339 -0.001828 -0.003272 0.000000 0.000000 0.000000
# 2 -0.001828 0.013691 -0.004356 0.000000 0.000000 0.000000
# 3 -0.003272 -0.004356 0.009322 0.000000 0.000000 0.000000
# 4 0.000000 0.000000 0.000000 0.049034 0.000000 0.000000
# 5 0.000000 0.000000 0.000000 0.000000 0.025132 0.000000
# 6 0.000000 0.000000 0.000000 0.000000 0.000000 0.045169
#
#
# Mechanical properties :
#
#
# Convention : Reuss Voigt Hill
#
# Bulk Modulus (GPa) = 64.76846 70.33750 67.55298
# Shear Modulus (GPa) = 28.13018 30.84143 29.48580
#
# Velocity S-wave (km/s) = 3.68506 3.85856 3.77281
# Velocity P-wave (km/s) = 7.02658 7.33528 7.18259
#
# Compressibility (1/GPa) = 0.01543961
#
# Stress axis : x y z
#
# Youngs Moduli (GPa) = 88.19337 73.04087 107.27025
#
# Poissons Ratio (x) = 0.13351 0.35103
# Poissons Ratio (y) = 0.16121 0.46726
# Poissons Ratio (z) = 0.28860 0.31816
#
# Static dielectric constant tensor:
#      x y z
#    x 3.692610 0.000000 0.000000 
#    y 0.000000 4.171510 0.000000 
#    z 0.000000 0.000000 3.880060 
# 
# 
# High freq. dielectric constant tensor:
#      x y z
#    x 1.807030 0.000000 0.000000 
#    y 0.000000 1.799550 0.000000 
#    z 0.000000 0.000000 1.824550 
# 
# From -- ./inp_files/4265.got.cif
#   From: 2010.03.12/outbox.cif.g09.slc.cpg/sg62_3_cif.got.tgz:4265.got - 2010.04.10 19:12:36.
