data_PCOD8254332
_publ_section_title
;
Structure prediction by ZEFSAII (Michael W. Deem and Ramdas Pophale) SiO2 
 PCOD8254332
Probable space group: P N M A
;
_chemical_formula_sum "Si O2"
_cell_formula_units_Z 40
_cell_length_a 18.740327
_cell_length_b 8.756041
_cell_length_c 12.280470
_cell_angle_alpha 90.000000
_cell_angle_beta 90.000000
_cell_angle_gamma 90.000000
_cell_volume 2015.115482
_symmetry_space_group_name_H-M "P N M A"
_symmetry_group_IT_number 62
_symmetry_cell_setting 'orthorhombic'
loop_
_space_group_symop_operation_xyz
x,y,z
1/2-x,-y,1/2+z
1/2+x,1/2-y,1/2-z
-x,1/2+y,-z
-x,-y,-z
1/2+x,y,1/2-z
1/2-x,1/2+y,1/2+z
x,1/2-y,z
loop_
_atom_site_type_symbol
_atom_site_label
_atom_site_fract_x
_atom_site_fract_y
_atom_site_fract_z
Si Si1 0.165959 0.070429 0.549778
Si Si2 0.070655 0.573610 0.951863
Si Si3 0.389328 0.930909 0.818228
Si Si4 0.685083 0.069240 0.399093
Si Si5 0.050557 0.572766 0.699927
O O1 0.181455 0.250000 0.552624
O O2 0.149730 0.012981 0.427417
O O3 0.233358 0.979946 0.594726
O O4 0.098741 0.032464 0.624373
O O5 0.069123 0.750000 0.983302
O O6 0.074795 0.549157 0.823401
O O7 0.141444 0.498258 0.000155
O O8 0.000000 0.500000 0.000000
O O9 0.390791 0.750000 0.812614
O O10 0.347035 0.995692 0.713938
O O11 0.470430 0.990103 0.815192
O O12 0.679302 0.250000 0.403542
O O13 0.057406 0.750000 0.665433
#
# Coordination Sequence:
#
# PCOD8254332 Si02
#       5
#     8   8   8   8   8
#     4  11  24  40  61  93 125 159 206 256 305 366
#     4  11  22  39  64  92 123 160 205 255 305 364
#     4   9  20  41  64  85 120 163 201 246 306 367
#     4  11  23  42  63  88 124 167 206 249 310 368
#     4  10  21  41  65  89 120 163 204 247 311 370
#
# _framework density 19.849978
#
# number of rings (size 3 to 8) (size 9 to 14) (size 15 to 20)
#    0.000    1.600    2.000    2.400    2.800    1.600 
#    0.000    4.000    0.000    0.000    0.000    0.000 
#    0.000    0.000    0.000    0.000    0.000    0.000 
#
# Total GULP energy -496195.730308 kJ/mol
# GULP energy per Si atom -12404.893258 kJ/mol
# Density = 1.980480 g / cm^3
# Si number density = 19.849978 Si / 1000 Ang^3
#
#
#
# Elastic Constant Matrix: (Units=GPa)
#
#
# Indices 1 2 3 4 5 6 
#
# 1 140.8726 25.4251 62.5463 0.0000 0.0000 0.0000
# 2 25.4251 66.6839 40.2822 0.0000 0.0000 0.0000
# 3 62.5463 40.2822 111.7468 0.0000 0.0000 0.0000
# 4 0.0000 0.0000 0.0000 28.2701 0.0000 0.0000
# 5 0.0000 0.0000 0.0000 0.0000 38.3184 0.0000
# 6 0.0000 0.0000 0.0000 0.0000 0.0000 38.0893
#
#
#
# Elastic Compliance Matrix: (Units=1/GPa)
#
#
# Indices 1 2 3 4 5 6 
#
# 1 0.009460 -0.000522 -0.005107 0.000000 0.000000 0.000000
# 2 -0.000522 0.019199 -0.006629 0.000000 0.000000 0.000000
# 3 -0.005107 -0.006629 0.014197 0.000000 0.000000 0.000000
# 4 0.000000 0.000000 0.000000 0.035373 0.000000 0.000000
# 5 0.000000 0.000000 0.000000 0.000000 0.026097 0.000000
# 6 0.000000 0.000000 0.000000 0.000000 0.000000 0.026254
#
#
# Mechanical properties :
#
#
# Convention : Reuss Voigt Hill
#
# Bulk Modulus (GPa) = 54.52248 63.97894 59.25071
# Shear Modulus (GPa) = 31.01551 33.67221 32.34386
#
# Velocity S-wave (km/s) = 3.95713 4.12313 4.04098
# Velocity P-wave (km/s) = 6.95740 7.41405 7.18935
#
# Compressibility (1/GPa) = 0.01834106
#
# Stress axis : x y z
#
# Youngs Moduli (GPa) = 105.70566 52.08483 70.43889
#
# Poissons Ratio (x) = 0.02719 0.35972
# Poissons Ratio (y) = 0.05518 0.46692
# Poissons Ratio (z) = 0.53982 0.34526
#
# Static dielectric constant tensor:
#      x y z
#    x 3.659960 0.000000 0.000000 
#    y 0.000000 3.461740 0.000000 
#    z 0.000000 0.000000 3.915640 
# 
# 
# High freq. dielectric constant tensor:
#      x y z
#    x 1.786760 0.000000 0.000000 
#    y 0.000000 1.761140 0.000000 
#    z 0.000000 0.000000 1.788610 
# 
# From -- ./inp_files/13855.got.cif
#   From: 2010.03.12/outbox.cif.g09.slc.cpg/sg62_7_cif.got.tgz:13855.got - 2010.04.10 19:12:36.
