data_PCOD8254287
_publ_section_title
;
Structure prediction by ZEFSAII (Michael W. Deem and Ramdas Pophale) SiO2 
 PCOD8254287
Probable space group: P N M A
;
_chemical_formula_sum "Si O2"
_cell_formula_units_Z 64
_cell_length_a 11.836432
_cell_length_b 8.815244
_cell_length_c 30.368633
_cell_angle_alpha 90.000000
_cell_angle_beta 90.000000
_cell_angle_gamma 90.000000
_cell_volume 3168.694634
_symmetry_space_group_name_H-M "P N M A"
_symmetry_group_IT_number 62
_symmetry_cell_setting 'orthorhombic'
loop_
_space_group_symop_operation_xyz
x,y,z
1/2-x,-y,1/2+z
1/2+x,1/2-y,1/2-z
-x,1/2+y,-z
-x,-y,-z
1/2+x,y,1/2-z
1/2-x,1/2+y,1/2+z
x,1/2-y,z
loop_
_atom_site_type_symbol
_atom_site_label
_atom_site_fract_x
_atom_site_fract_y
_atom_site_fract_z
Si Si1 0.783548 0.572612 0.038995
Si Si2 0.995474 0.574111 0.931566
Si Si3 0.901809 0.071561 0.379056
Si Si4 0.208113 0.072230 0.792108
Si Si5 0.356007 0.071596 0.873929
Si Si6 0.755312 0.926632 0.799781
Si Si7 0.000607 0.077199 0.169371
Si Si8 0.755268 0.070616 0.950833
O O1 0.782316 0.750000 0.028805
O O2 0.720995 0.533256 0.084148
O O3 0.913589 0.516885 0.039551
O O4 0.720109 0.483978 0.999740
O O5 0.995502 0.750000 0.945492
O O6 0.032011 0.553005 0.881138
O O7 0.871741 0.508243 0.937797
O O8 0.887512 0.250000 0.388202
O O9 0.846038 0.026931 0.332339
O O10 0.031618 0.026186 0.377374
O O11 0.843156 0.979488 0.418059
O O12 0.210103 0.250000 0.792344
O O13 0.290394 0.012507 0.830684
O O14 0.250118 0.015924 0.745397
O O15 0.080024 0.021296 0.799941
O O16 0.384677 0.250000 0.871540
O O17 0.751133 0.750000 0.788648
O O18 0.870818 0.974392 0.823710
O O19 0.984475 0.250000 0.184066
O O20 0.769102 0.250000 0.949228
#
# Coordination Sequence:
#
# PCOD8254287 Si02
#       8
#     8   8   8   8   8   8   8   8
#     4  11  23  42  65  91 127 166 208 256 310 371
#     4  11  21  39  65  95 128 162 208 257 310 367
#     4  11  24  44  67  91 122 164 212 259 308 369
#     4  11  24  41  63  95 129 162 207 257 310 366
#     4  10  24  44  63  90 126 164 207 257 310 368
#     4  10  23  43  64  92 125 164 210 254 308 369
#     4  10  21  40  66  92 125 163 206 255 305 367
#     4  12  25  41  64  94 127 163 206 255 314 373
#
# _framework density 20.197593000000001
#
# number of rings (size 3 to 8) (size 9 to 14) (size 15 to 20)
#    0.000    1.250    2.500    3.000    1.750    4.500 
#    0.000    0.000    0.000    0.000    0.000    0.000 
#    0.000    0.000    0.000    0.000    0.000    0.000 
#
# Total GULP energy -793961.482423 kJ/mol
# GULP energy per Si atom -12405.648163 kJ/mol
# Density = 2.015162 g / cm^3
# Si number density = 20.197593 Si / 1000 Ang^3
#
#
#
# Elastic Constant Matrix: (Units=GPa)
#
#
# Indices 1 2 3 4 5 6 
#
# 1 98.5833 27.6895 23.1283 0.0000 0.0000 0.0000
# 2 27.6895 62.6548 29.8680 0.0000 0.0000 0.0000
# 3 23.1283 29.8680 94.7328 0.0000 0.0000 0.0000
# 4 0.0000 0.0000 0.0000 35.8237 0.0000 0.0000
# 5 0.0000 0.0000 0.0000 0.0000 -171.5808 0.0000
# 6 0.0000 0.0000 0.0000 0.0000 0.0000 36.9825
#
#
#
# Elastic Compliance Matrix: (Units=1/GPa)
#
#
# Indices 1 2 3 4 5 6 
#
# 1 0.011748 -0.004501 -0.001449 0.000000 0.000000 0.000000
# 2 -0.004501 0.020508 -0.005367 0.000000 0.000000 0.000000
# 3 -0.001449 -0.005367 0.012602 0.000000 0.000000 0.000000
# 4 0.000000 0.000000 0.000000 0.027915 0.000000 0.000000
# 5 0.000000 0.000000 0.000000 0.000000 -0.005828 0.000000
# 6 0.000000 0.000000 0.000000 0.000000 0.000000 0.027040
#
#
# Mechanical properties :
#
#
# Convention : Reuss Voigt Hill
#
# Bulk Modulus (GPa) = 44.99701 46.37138 45.68419
# Shear Modulus (GPa) = 40.31399 -8.06926 16.12236
#
# Velocity S-wave (km/s) = 4.47249 -2.00096 2.82836
# Velocity P-wave (km/s) = 6.99983 4.20360 5.77355
#
# Compressibility (1/GPa) = 0.02222370
#
# Stress axis : x y z
#
# Youngs Moduli (GPa) = 85.12161 48.76100 79.35288
#
# Poissons Ratio (x) = 0.21948 0.11498
# Poissons Ratio (y) = 0.38314 0.42589
# Poissons Ratio (z) = 0.12334 0.26170
#
# Static dielectric constant tensor:
#      x y z
#    x 3.611550 0.000000 0.000000 
#    y 0.000000 3.643210 0.000000 
#    z 0.000000 0.000000 3.946680 
# 
# 
# High freq. dielectric constant tensor:
#      x y z
#    x 1.791240 0.000000 0.000000 
#    y 0.000000 1.790890 0.000000 
#    z 0.000000 0.000000 1.803840 
# 
# From -- ./inp_files/32618.got.cif
#   From: 2010.03.12/outbox.cif.g09.slc.cpg/sg62_17_cif.got.tgz:32618.got - 2010.04.10 19:12:36.
