data_PCOD8254848
_publ_section_title
;
Structure prediction by ZEFSAII (Michael W. Deem and Ramdas Pophale) SiO2 
 PCOD8254848
Probable space group: P N M A
;
_chemical_formula_sum "Si O2"
_cell_formula_units_Z 48
_cell_length_a 9.745834
_cell_length_b 26.962227
_cell_length_c 8.989501
_cell_angle_alpha 90.000000
_cell_angle_beta 90.000000
_cell_angle_gamma 90.000000
_cell_volume 2362.165682
_symmetry_space_group_name_H-M "P N M A"
_symmetry_group_IT_number 62
_symmetry_cell_setting 'orthorhombic'
loop_
_space_group_symop_operation_xyz
x,y,z
1/2-x,-y,1/2+z
1/2+x,1/2-y,1/2-z
-x,1/2+y,-z
-x,-y,-z
1/2+x,y,1/2-z
1/2-x,1/2+y,1/2+z
x,1/2-y,z
loop_
_atom_site_type_symbol
_atom_site_label
_atom_site_fract_x
_atom_site_fract_y
_atom_site_fract_z
Si Si1 0.641171 0.037472 0.144828
Si Si2 0.667824 0.546475 0.906042
Si Si3 0.729641 0.154412 0.425928
Si Si4 0.523739 0.805607 0.080314
Si Si5 0.712694 0.144836 0.082782
Si Si6 0.464477 0.308929 0.577459
O O1 0.481040 0.050480 0.174166
O O2 0.716305 0.024147 0.298273
O O3 0.719996 0.085146 0.076309
O O4 0.655785 0.989608 0.044533
O O5 0.717793 0.599522 0.965817
O O6 0.821110 0.193219 0.518471
O O7 0.737719 0.164422 0.249718
O O8 0.574525 0.162144 0.478368
O O9 0.466651 0.750000 0.069190
O O10 0.516395 0.823407 0.250548
O O11 0.437784 0.840932 0.973305
O O12 0.817994 0.170381 0.971456
O O13 0.471548 0.250000 0.551832
#
# Coordination Sequence:
#
# PCOD8254848 Si02
#       6
#     8   8   8   8   8   8
#     4  10  23  43  65  95 128 163 207 257 312 373
#     4  10  23  43  65  95 128 163 207 257 312 373
#     4  11  23  41  64  93 125 166 209 263 312 372
#     4  11  23  41  62  89 128 165 210 263 314 375
#     4  11  23  41  64  93 125 166 209 263 312 372
#     4  11  25  41  62  93 128 167 214 261 316 375
#
# _framework density 20.320336999999999
#
# number of rings (size 3 to 8) (size 9 to 14) (size 15 to 20)
#    0.000    1.333    1.667    3.000    7.000   10.000 
#    0.000    0.000    0.000    0.000    0.000    0.000 
#    0.000    0.000    0.000    0.000    0.000    0.000 
#
# Total GULP energy -595383.298879 kJ/mol
# GULP energy per Si atom -12403.818727 kJ/mol
# Density = 2.027409 g / cm^3
# Si number density = 20.320337 Si / 1000 Ang^3
#
#
#
# Elastic Constant Matrix: (Units=GPa)
#
#
# Indices 1 2 3 4 5 6 
#
# 1 91.6048 25.2077 17.2000 0.0000 0.0000 0.0000
# 2 25.2077 60.0018 38.0531 0.0000 0.0000 0.0000
# 3 17.2000 38.0531 78.2435 0.0000 0.0000 0.0000
# 4 0.0000 0.0000 0.0000 29.0427 0.0000 0.0000
# 5 0.0000 0.0000 0.0000 0.0000 41.9913 0.0000
# 6 0.0000 0.0000 0.0000 0.0000 0.0000 34.3028
#
#
#
# Elastic Compliance Matrix: (Units=1/GPa)
#
#
# Indices 1 2 3 4 5 6 
#
# 1 0.012348 -0.005012 -0.000277 0.000000 0.000000 0.000000
# 2 -0.005012 0.026134 -0.011608 0.000000 0.000000 0.000000
# 3 -0.000277 -0.011608 0.018487 0.000000 0.000000 0.000000
# 4 0.000000 0.000000 0.000000 0.034432 0.000000 0.000000
# 5 0.000000 0.000000 0.000000 0.000000 0.023814 0.000000
# 6 0.000000 0.000000 0.000000 0.000000 0.000000 0.029152
#
#
# Mechanical properties :
#
#
# Convention : Reuss Voigt Hill
#
# Bulk Modulus (GPa) = 43.15085 43.41910 43.28497
# Shear Modulus (GPa) = 26.89830 31.02665 28.96248
#
# Velocity S-wave (km/s) = 3.64223 3.91177 3.77940
# Velocity P-wave (km/s) = 6.24253 6.46655 6.35553
#
# Compressibility (1/GPa) = 0.02317452
#
# Stress axis : x y z
#
# Youngs Moduli (GPa) = 80.98746 38.26493 54.09202
#
# Poissons Ratio (x) = 0.19178 0.01498
# Poissons Ratio (y) = 0.40590 0.62791
# Poissons Ratio (z) = 0.02242 0.44418
#
# Static dielectric constant tensor:
#      x y z
#    x 3.834750 0.000000 0.000000 
#    y 0.000000 3.591370 0.000000 
#    z 0.000000 0.000000 3.591450 
# 
# 
# High freq. dielectric constant tensor:
#      x y z
#    x 1.809320 0.000000 0.000000 
#    y 0.000000 1.797120 0.000000 
#    z 0.000000 0.000000 1.793200 
# 
# From -- ./inp_files/4529.got.cif
#   From: 2010.03.12/outbox.cif.g09.slc.cpg/sg62_3_cif.got.tgz:4529.got - 2010.04.10 19:12:36.
