data_PCOD8254316
_publ_section_title
;
Structure prediction by ZEFSAII (Michael W. Deem and Ramdas Pophale) SiO2 
 PCOD8254316
Probable space group: P N M A
;
_chemical_formula_sum "Si O2"
_cell_formula_units_Z 64
_cell_length_a 30.701862
_cell_length_b 8.935297
_cell_length_c 11.987652
_cell_angle_alpha 90.000000
_cell_angle_beta 90.000000
_cell_angle_gamma 90.000000
_cell_volume 3288.575635
_symmetry_space_group_name_H-M "P N M A"
_symmetry_group_IT_number 62
_symmetry_cell_setting 'orthorhombic'
loop_
_space_group_symop_operation_xyz
x,y,z
1/2-x,-y,1/2+z
1/2+x,1/2-y,1/2-z
-x,1/2+y,-z
-x,-y,-z
1/2+x,y,1/2-z
1/2-x,1/2+y,1/2+z
x,1/2-y,z
loop_
_atom_site_type_symbol
_atom_site_label
_atom_site_fract_x
_atom_site_fract_y
_atom_site_fract_z
Si Si1 0.047000 0.926847 0.500353
Si Si2 0.584137 0.919535 0.239864
Si Si3 0.373302 0.427808 0.393127
Si Si4 0.695593 0.427383 0.010011
Si Si5 0.670274 0.074793 0.251431
Si Si6 0.456537 0.419340 0.533222
Si Si7 0.791670 0.426929 0.958546
Si Si8 0.880713 0.571324 0.348169
O O1 0.043507 0.750000 0.521331
O O2 0.066664 0.965757 0.380171
O O3 0.076450 0.000380 0.596057
O O4 0.000000 0.000000 0.500000
O O5 0.602682 0.750000 0.239581
O O6 0.546838 0.934726 0.333042
O O7 0.620887 0.033914 0.279505
O O8 0.373426 0.250000 0.372967
O O9 0.413642 0.481443 0.470111
O O10 0.328658 0.479098 0.454055
O O11 0.376358 0.513686 0.276995
O O12 0.695473 0.250000 0.010323
O O13 0.679798 0.489531 0.128597
O O14 0.744448 0.488074 0.994468
O O15 0.662301 0.484103 0.914836
O O16 0.678016 0.250000 0.259795
O O17 0.702042 0.995322 0.337133
O O18 0.500000 0.500000 0.500000
O O19 0.462160 0.250000 0.495475
O O20 0.792686 0.250000 0.947397
O O21 0.885477 0.750000 0.349799
#
# Coordination Sequence:
#
# PCOD8254316 Si02
#       8
#     8   8   8   8   8   8   8   8
#     4  11  24  41  64  92 121 158 203 246 297 356
#     4  10  21  41  64  86 116 157 199 241 295 360
#     4  10  22  40  61  85 118 159 200 244 296 358
#     4   9  21  39  60  87 120 159 196 243 303 352
#     4  11  21  37  62  91 119 150 199 253 298 350
#     4  10  22  40  60  87 117 152 196 242 297 353
#     4  10  21  41  63  84 120 163 199 245 304 360
#     4  11  23  41  61  86 124 161 198 247 299 356
#
# _framework density 19.461313000000001
#
# number of rings (size 3 to 8) (size 9 to 14) (size 15 to 20)
#    0.000    1.750    2.500    1.125    3.500    2.000 
#    0.000    1.875    0.000    0.000    0.000    0.000 
#    0.000    0.000    0.000    0.000    0.000    0.000 
#
# Total GULP energy -793641.634996 kJ/mol
# GULP energy per Si atom -12400.650547 kJ/mol
# Density = 1.941702 g / cm^3
# Si number density = 19.461313 Si / 1000 Ang^3
#
#
#
# Elastic Constant Matrix: (Units=GPa)
#
#
# Indices 1 2 3 4 5 6 
#
# 1 134.9127 35.8179 37.7414 0.0000 0.0000 0.0000
# 2 35.8179 44.4890 34.2452 0.0000 0.0000 0.0000
# 3 37.7414 34.2452 120.6035 0.0000 0.0000 0.0000
# 4 0.0000 0.0000 0.0000 33.9326 0.0000 0.0000
# 5 0.0000 0.0000 0.0000 0.0000 28.5674 0.0000
# 6 0.0000 0.0000 0.0000 0.0000 0.0000 26.9942
#
#
#
# Elastic Compliance Matrix: (Units=1/GPa)
#
#
# Indices 1 2 3 4 5 6 
#
# 1 0.009526 -0.006878 -0.001028 0.000000 0.000000 0.000000
# 2 -0.006878 0.033730 -0.007425 0.000000 0.000000 0.000000
# 3 -0.001028 -0.007425 0.010722 0.000000 0.000000 0.000000
# 4 0.000000 0.000000 0.000000 0.029470 0.000000 0.000000
# 5 0.000000 0.000000 0.000000 0.000000 0.035005 0.000000
# 6 0.000000 0.000000 0.000000 0.000000 0.000000 0.037045
#
#
# Mechanical properties :
#
#
# Convention : Reuss Voigt Hill
#
# Bulk Modulus (GPa) = 42.88993 57.29046 50.09020
# Shear Modulus (GPa) = 25.78217 30.71220 28.24719
#
# Velocity S-wave (km/s) = 3.64372 3.97686 3.81393
# Velocity P-wave (km/s) = 6.30782 7.11261 6.72227
#
# Compressibility (1/GPa) = 0.02331549
#
# Stress axis : x y z
#
# Youngs Moduli (GPa) = 104.97818 29.64684 93.26825
#
# Poissons Ratio (x) = 0.20391 0.09588
# Poissons Ratio (y) = 0.72202 0.69255
# Poissons Ratio (z) = 0.10792 0.22014
#
# Static dielectric constant tensor:
#      x y z
#    x 3.841220 0.000000 0.000000 
#    y 0.000000 3.402230 0.000000 
#    z 0.000000 0.000000 3.881490 
# 
# 
# High freq. dielectric constant tensor:
#      x y z
#    x 1.765990 0.000000 0.000000 
#    y 0.000000 1.743650 0.000000 
#    z 0.000000 0.000000 1.772460 
# 
# From -- ./inp_files/15923.got.cif
#   From: 2010.03.12/outbox.cif.g09.slc.cpg/sg62_8_cif.got.tgz:15923.got - 2010.04.10 19:12:36.
