data_PCOD8254217
_publ_section_title
;
Structure prediction by ZEFSAII (Michael W. Deem and Ramdas Pophale) SiO2 
 PCOD8254217
Probable space group: P N M A
;
_chemical_formula_sum "Si O2"
_cell_formula_units_Z 48
_cell_length_a 10.270414
_cell_length_b 8.817390
_cell_length_c 28.734243
_cell_angle_alpha 90.000000
_cell_angle_beta 90.000000
_cell_angle_gamma 90.000000
_cell_volume 2602.122638
_symmetry_space_group_name_H-M "P N M A"
_symmetry_group_IT_number 62
_symmetry_cell_setting 'orthorhombic'
loop_
_space_group_symop_operation_xyz
x,y,z
1/2-x,-y,1/2+z
1/2+x,1/2-y,1/2-z
-x,1/2+y,-z
-x,-y,-z
1/2+x,y,1/2-z
1/2-x,1/2+y,1/2+z
x,1/2-y,z
loop_
_atom_site_type_symbol
_atom_site_label
_atom_site_fract_x
_atom_site_fract_y
_atom_site_fract_z
Si Si1 0.226890 0.928675 0.284505
Si Si2 0.225402 0.422991 0.380790
Si Si3 0.626828 0.428393 0.021028
Si Si4 0.383893 0.071905 0.528515
Si Si5 0.996019 0.570243 0.777697
Si Si6 0.024584 0.421359 0.116345
O O1 0.243533 0.750000 0.278016
O O2 0.195821 0.965585 0.338218
O O3 0.358331 0.011077 0.267317
O O4 0.105159 0.987050 0.255217
O O5 0.197126 0.250000 0.364743
O O6 0.137188 0.472308 0.424455
O O7 0.373878 0.435991 0.397726
O O8 0.619099 0.250000 0.015437
O O9 0.500000 0.500000 0.000000
O O10 0.749344 0.491883 0.992181
O O11 0.393439 0.250000 0.522496
O O12 0.500000 0.000000 0.500000
O O13 0.390883 0.028629 0.583016
O O14 0.994508 0.750000 0.769249
O O15 0.956000 0.528305 0.830350
O O16 0.073312 0.250000 0.109184
#
# Coordination Sequence:
#
# PCOD8254217 Si02
#       6
#     8   8   8   8   8   8
#     4  11  22  37  60  91 118 144 189 246 291 332
#     4   9  18  37  59  79 112 154 191 226 276 349
#     4  10  22  39  56  80 114 151 189 232 280 337
#     4  11  21  35  57  84 113 145 185 233 279 328
#     4  10  21  40  62  83 115 157 193 229 284 354
#     4   9  18  35  59  85 110 142 189 233 275 334
#
# _framework density 18.446479
#
# number of rings (size 3 to 8) (size 9 to 14) (size 15 to 20)
#    0.000    2.000    1.667    3.500    0.000    5.333 
#    3.000    0.000    0.000    0.000    0.000    0.000 
#    0.000    0.000    0.000    0.000    0.000    0.000 
#
# Total GULP energy -595273.724534 kJ/mol
# GULP energy per Si atom -12401.535928 kJ/mol
# Density = 1.840449 g / cm^3
# Si number density = 18.446479 Si / 1000 Ang^3
#
#
#
# Elastic Constant Matrix: (Units=GPa)
#
#
# Indices 1 2 3 4 5 6 
#
# 1 115.3121 37.2293 66.7977 0.0000 0.0000 0.0000
# 2 37.2293 74.8338 39.3109 0.0000 0.0000 0.0000
# 3 66.7977 39.3109 98.7803 0.0000 0.0000 0.0000
# 4 0.0000 0.0000 0.0000 35.8676 0.0000 0.0000
# 5 0.0000 0.0000 0.0000 0.0000 36.8878 0.0000
# 6 0.0000 0.0000 0.0000 0.0000 0.0000 32.1167
#
#
#
# Elastic Compliance Matrix: (Units=1/GPa)
#
#
# Indices 1 2 3 4 5 6 
#
# 1 0.014657 -0.002636 -0.008862 0.000000 0.000000 0.000000
# 2 -0.002636 0.017369 -0.005130 0.000000 0.000000 0.000000
# 3 -0.008862 -0.005130 0.018158 0.000000 0.000000 0.000000
# 4 0.000000 0.000000 0.000000 0.027880 0.000000 0.000000
# 5 0.000000 0.000000 0.000000 0.000000 0.027109 0.000000
# 6 0.000000 0.000000 0.000000 0.000000 0.000000 0.031136
#
#
# Mechanical properties :
#
#
# Convention : Reuss Voigt Hill
#
# Bulk Modulus (GPa) = 59.07512 63.95578 61.51545
# Shear Modulus (GPa) = 28.53744 30.68031 29.60887
#
# Velocity S-wave (km/s) = 3.93751 4.08267 4.01075
# Velocity P-wave (km/s) = 7.26407 7.54788 7.40733
#
# Compressibility (1/GPa) = 0.01692760
#
# Stress axis : x y z
#
# Youngs Moduli (GPa) = 68.22690 57.57356 55.07305
#
# Poissons Ratio (x) = 0.15178 0.48807
# Poissons Ratio (y) = 0.17987 0.28250
# Poissons Ratio (z) = 0.60464 0.29532
#
# Static dielectric constant tensor:
#      x y z
#    x 3.338630 0.000000 0.000000 
#    y 0.000000 3.373430 0.000000 
#    z 0.000000 0.000000 3.610680 
# 
# 
# High freq. dielectric constant tensor:
#      x y z
#    x 1.703230 0.000000 0.000000 
#    y 0.000000 1.715090 0.000000 
#    z 0.000000 0.000000 1.724900 
# 
# From -- ./inp_files/31995.got.cif
#   From: 2010.03.12/outbox.cif.g09.slc.cpg/sg62_16_cif.got.tgz:31995.got - 2010.04.10 19:12:36.
