data_PCOD8254899
_publ_section_title
;
Structure prediction by ZEFSAII (Michael W. Deem and Ramdas Pophale) SiO2 
 PCOD8254899
Probable space group: P N M A
;
_chemical_formula_sum "Si O2"
_cell_formula_units_Z 64
_cell_length_a 23.642338
_cell_length_b 8.366255
_cell_length_c 15.380900
_cell_angle_alpha 90.000000
_cell_angle_beta 90.000000
_cell_angle_gamma 90.000000
_cell_volume 3042.308620
_symmetry_space_group_name_H-M "P N M A"
_symmetry_group_IT_number 62
_symmetry_cell_setting 'orthorhombic'
loop_
_space_group_symop_operation_xyz
x,y,z
1/2-x,-y,1/2+z
1/2+x,1/2-y,1/2-z
-x,1/2+y,-z
-x,-y,-z
1/2+x,y,1/2-z
1/2-x,1/2+y,1/2+z
x,1/2-y,z
loop_
_atom_site_type_symbol
_atom_site_label
_atom_site_fract_x
_atom_site_fract_y
_atom_site_fract_z
Si Si1 0.437383 0.564757 0.507767
Si Si2 0.131258 0.063979 0.667641
Si Si3 0.246926 0.063290 0.901571
Si Si4 0.863410 0.560505 0.660281
Si Si5 0.744415 0.564507 0.899459
Si Si6 0.129425 0.566839 0.851094
Si Si7 0.063192 0.061042 0.501213
Si Si8 0.637807 0.563802 0.341455
O O1 0.500000 0.500000 0.500000
O O2 0.437344 0.750000 0.533589
O O3 0.405108 0.544145 0.416903
O O4 0.406685 0.464812 0.582413
O O5 0.120180 0.250000 0.682296
O O6 0.095291 0.995511 0.586535
O O7 0.197657 0.037232 0.651115
O O8 0.110206 0.971544 0.753071
O O9 0.232639 0.250000 0.895099
O O10 0.302591 0.021917 0.847953
O O11 0.196006 0.964829 0.859626
O O12 0.254931 0.008112 0.000757
O O13 0.856793 0.750000 0.656892
O O14 0.904403 0.497128 0.584079
O O15 0.889278 0.501452 0.751737
O O16 0.728725 0.750000 0.891151
O O17 0.805155 0.534216 0.857946
O O18 0.115740 0.750000 0.872636
O O19 0.063667 0.250000 0.501850
O O20 0.000000 0.000000 0.500000
O O21 0.651912 0.750000 0.335450
#
# Coordination Sequence:
#
# PCOD8254899 Si02
#       8
#     8   8   8   8   8   8   8   8
#     4  12  26  47  70  95 126 167 215 267 319 376
#     4  11  23  42  65  94 130 169 213 264 320 382
#     4  11  22  38  64  96 130 169 210 260 320 385
#     4  11  23  42  65  94 130 169 213 264 320 382
#     4  11  22  38  64  96 130 169 210 260 320 385
#     4  12  25  42  66  97 131 170 211 260 318 382
#     4  10  24  43  66  91 122 165 211 263 315 368
#     4  12  25  42  66  97 131 170 211 260 318 382
#
# _framework density 21.036657000000002
#
# number of rings (size 3 to 8) (size 9 to 14) (size 15 to 20)
#    0.000    0.750    2.500    5.625    0.000    4.000 
#    0.000    2.500    0.000    0.000    0.000    0.000 
#    0.000    0.000    0.000    0.000    0.000    0.000 
#
# Total GULP energy -794146.376039 kJ/mol
# GULP energy per Si atom -12408.537126 kJ/mol
# Density = 2.098878 g / cm^3
# Si number density = 21.036657 Si / 1000 Ang^3
#
#
#
# Elastic Constant Matrix: (Units=GPa)
#
#
# Indices 1 2 3 4 5 6 
#
# 1 124.3353 4.4608 44.9584 0.0000 0.0000 0.0000
# 2 4.4608 70.1327 17.8101 0.0000 0.0000 0.0000
# 3 44.9584 17.8101 154.5221 0.0000 0.0000 0.0000
# 4 0.0000 0.0000 0.0000 32.9286 0.0000 0.0000
# 5 0.0000 0.0000 0.0000 0.0000 7.5582 0.0000
# 6 0.0000 0.0000 0.0000 0.0000 0.0000 35.5813
#
#
#
# Elastic Compliance Matrix: (Units=1/GPa)
#
#
# Indices 1 2 3 4 5 6 
#
# 1 0.008989 0.000095 -0.002626 0.000000 0.000000 0.000000
# 2 0.000095 0.014690 -0.001721 0.000000 0.000000 0.000000
# 3 -0.002626 -0.001721 0.007434 0.000000 0.000000 0.000000
# 4 0.000000 0.000000 0.000000 0.030369 0.000000 0.000000
# 5 0.000000 0.000000 0.000000 0.000000 0.132307 0.000000
# 6 0.000000 0.000000 0.000000 0.000000 0.000000 0.028105
#
#
# Mechanical properties :
#
#
# Convention : Reuss Voigt Hill
#
# Bulk Modulus (GPa) = 44.23057 53.71651 48.97354
# Shear Modulus (GPa) = 21.01429 33.99766 27.50598
#
# Velocity S-wave (km/s) = 3.16403 4.02445 3.61990
# Velocity P-wave (km/s) = 5.86679 6.86914 6.38766
#
# Compressibility (1/GPa) = 0.02260879
#
# Stress axis : x y z
#
# Youngs Moduli (GPa) = 111.24693 68.07523 134.51630
#
# Poissons Ratio (x) = -0.00648 0.35329
# Poissons Ratio (y) = -0.01059 0.23148
# Poissons Ratio (z) = 0.29217 0.11715
#
# Static dielectric constant tensor:
#      x y z
#    x 3.618740 0.000000 0.000000 
#    y 0.000000 3.929170 0.000000 
#    z 0.000000 0.000000 4.168810 
# 
# 
# High freq. dielectric constant tensor:
#      x y z
#    x 1.815730 0.000000 0.000000 
#    y 0.000000 1.829510 0.000000 
#    z 0.000000 0.000000 1.844350 
# 
# From -- ./inp_files/20828.got.cif
#   From: 2010.03.12/outbox.cif.g09.slc.cpg/sg62_11_cif.got.tgz:20828.got - 2010.04.10 19:12:36.
