data_PCOD8254743
_publ_section_title
;
Structure prediction by ZEFSAII (Michael W. Deem and Ramdas Pophale) SiO2 
 PCOD8254743
Probable space group: P N M A
;
_chemical_formula_sum "Si O2"
_cell_formula_units_Z 64
_cell_length_a 9.449185
_cell_length_b 22.612796
_cell_length_c 14.638803
_cell_angle_alpha 90.000000
_cell_angle_beta 90.000000
_cell_angle_gamma 90.000000
_cell_volume 3127.909528
_symmetry_space_group_name_H-M "P N M A"
_symmetry_group_IT_number 62
_symmetry_cell_setting 'orthorhombic'
loop_
_space_group_symop_operation_xyz
x,y,z
1/2-x,-y,1/2+z
1/2+x,1/2-y,1/2-z
-x,1/2+y,-z
-x,-y,-z
1/2+x,y,1/2-z
1/2-x,1/2+y,1/2+z
x,1/2-y,z
loop_
_atom_site_type_symbol
_atom_site_label
_atom_site_fract_x
_atom_site_fract_y
_atom_site_fract_z
Si Si1 0.473331 0.884586 0.168357
Si Si2 0.178475 0.410451 0.357898
Si Si3 0.827507 0.918599 0.845964
Si Si4 0.076870 0.509878 0.905234
Si Si5 0.545932 0.182679 0.016312
Si Si6 0.194577 0.115277 0.841918
Si Si7 0.567064 0.510426 0.901299
Si Si8 0.284171 0.682309 0.525569
O O1 0.431982 0.842997 0.084405
O O2 0.395392 0.858609 0.257526
O O3 0.640950 0.888932 0.184835
O O4 0.408805 0.949175 0.150287
O O5 0.232983 0.401109 0.253946
O O6 0.292001 0.445642 0.418845
O O7 0.144225 0.349456 0.409256
O O8 0.037444 0.448327 0.345185
O O9 0.715738 0.955379 0.907598
O O10 0.864037 0.857969 0.899729
O O11 0.966844 0.959088 0.836170
O O12 0.134421 0.449209 0.864367
O O13 0.000000 0.500000 0.000000
O O14 0.595518 0.250000 0.015266
O O15 0.382712 0.175729 0.044134
O O16 0.173579 0.160423 0.924963
O O17 0.500000 0.500000 0.000000
O O18 0.333963 0.750000 0.536375
#
# Coordination Sequence:
#
# PCOD8254743 Si02
#       8
#     8   8   8   8   8   8   8   8
#     4  11  23  39  66  94 130 163 215 264 328 387
#     4  12  23  40  65  95 129 167 213 267 317 386
#     4  12  24  40  64  97 130 167 214 264 323 387
#     4  12  25  39  61  97 140 165 203 267 335 387
#     4  10  23  43  67  90 120 172 225 264 310 382
#     4  11  23  41  63  98 126 169 209 269 329 389
#     4  12  21  40  65  93 125 171 213 255 323 397
#     4  10  22  44  67  88 122 174 224 263 318 382
#
# _framework density 20.460948999999999
#
# number of rings (size 3 to 8) (size 9 to 14) (size 15 to 20)
#    0.000    0.750    5.000    3.750    1.750    1.000 
#    0.000    0.625    0.000    0.000    0.000    0.000 
#    0.000    0.000    0.000    0.000    0.000    0.000 
#
# Total GULP energy -793786.484185 kJ/mol
# GULP energy per Si atom -12402.913815 kJ/mol
# Density = 2.041438 g / cm^3
# Si number density = 20.460949 Si / 1000 Ang^3
#
#
#
# Elastic Constant Matrix: (Units=GPa)
#
#
# Indices 1 2 3 4 5 6 
#
# 1 80.8380 44.5862 26.9843 0.0000 0.0000 0.0000
# 2 44.5862 139.9163 47.8523 0.0000 0.0000 0.0000
# 3 26.9843 47.8523 111.6978 0.0000 0.0000 0.0000
# 4 0.0000 0.0000 0.0000 13.4454 0.0000 0.0000
# 5 0.0000 0.0000 0.0000 0.0000 32.6884 0.0000
# 6 0.0000 0.0000 0.0000 0.0000 0.0000 25.1073
#
#
#
# Elastic Compliance Matrix: (Units=1/GPa)
#
#
# Indices 1 2 3 4 5 6 
#
# 1 0.015341 -0.004243 -0.001888 0.000000 0.000000 0.000000
# 2 -0.004243 0.009547 -0.003065 0.000000 0.000000 0.000000
# 3 -0.001888 -0.003065 0.010722 0.000000 0.000000 0.000000
# 4 0.000000 0.000000 0.000000 0.074375 0.000000 0.000000
# 5 0.000000 0.000000 0.000000 0.000000 0.030592 0.000000
# 6 0.000000 0.000000 0.000000 0.000000 0.000000 0.039829
#
#
# Mechanical properties :
#
#
# Convention : Reuss Voigt Hill
#
# Bulk Modulus (GPa) = 58.08014 63.47753 60.77883
# Shear Modulus (GPa) = 24.44529 28.45018 26.44773
#
# Velocity S-wave (km/s) = 3.46024 3.73294 3.59917
# Velocity P-wave (km/s) = 6.66422 7.04775 6.85867
#
# Compressibility (1/GPa) = 0.01721759
#
# Stress axis : x y z
#
# Youngs Moduli (GPa) = 65.18537 104.74000 93.26501
#
# Poissons Ratio (x) = 0.44438 0.17613
# Poissons Ratio (y) = 0.27656 0.28588
# Poissons Ratio (z) = 0.12310 0.32105
#
# Static dielectric constant tensor:
#      x y z
#    x 3.790280 0.000000 0.000000 
#    y 0.000000 3.731900 0.000000 
#    z 0.000000 0.000000 4.178980 
# 
# 
# High freq. dielectric constant tensor:
#      x y z
#    x 1.794360 0.000000 0.000000 
#    y 0.000000 1.790450 0.000000 
#    z 0.000000 0.000000 1.810440 
# 
# From -- ./inp_files/17358.got.cif
#   From: 2010.03.12/outbox.cif.g09.slc.cpg/sg62_9_cif.got.tgz:17358.got - 2010.04.10 19:12:36.
