data_PCOD8254355
_publ_section_title
;
Structure prediction by ZEFSAII (Michael W. Deem and Ramdas Pophale) SiO2 
 PCOD8254355
Probable space group: P N M A
;
_chemical_formula_sum "Si O2"
_cell_formula_units_Z 64
_cell_length_a 22.678511
_cell_length_b 14.912790
_cell_length_c 8.804778
_cell_angle_alpha 90.000000
_cell_angle_beta 90.000000
_cell_angle_gamma 90.000000
_cell_volume 2977.774793
_symmetry_space_group_name_H-M "P N M A"
_symmetry_group_IT_number 62
_symmetry_cell_setting 'orthorhombic'
loop_
_space_group_symop_operation_xyz
x,y,z
1/2-x,-y,1/2+z
1/2+x,1/2-y,1/2-z
-x,1/2+y,-z
-x,-y,-z
1/2+x,y,1/2-z
1/2-x,1/2+y,1/2+z
x,1/2-y,z
loop_
_atom_site_type_symbol
_atom_site_label
_atom_site_fract_x
_atom_site_fract_y
_atom_site_fract_z
Si Si1 0.083783 0.005561 0.051827
Si Si2 0.994666 0.858062 0.115358
Si Si3 0.900502 0.597706 0.640723
Si Si4 0.278856 0.653287 0.778213
Si Si5 0.630175 0.942275 0.948625
Si Si6 0.240948 0.647699 0.439957
Si Si7 0.513206 0.848966 0.033109
Si Si8 0.308420 0.014155 0.358851
O O1 0.151533 0.986466 0.009499
O O2 0.048296 0.911381 0.032110
O O3 0.062997 0.089939 0.947119
O O4 0.077171 0.032096 0.226849
O O5 0.994538 0.750000 0.076426
O O6 0.996274 0.875016 0.295401
O O7 0.849233 0.662535 0.700422
O O8 0.867553 0.542052 0.510890
O O9 0.955491 0.650815 0.572410
O O10 0.250533 0.750000 0.813593
O O11 0.268476 0.627998 0.603821
O O12 0.246173 0.581880 0.886350
O O13 0.650958 0.947925 0.775659
O O14 0.671591 0.877488 0.050750
O O15 0.562064 0.912848 0.959953
O O16 0.247831 0.750000 0.384601
O O17 0.278278 0.583208 0.327035
O O18 0.540287 0.750000 0.031083
#
# Coordination Sequence:
#
# PCOD8254355 Si02
#       8
#     8   8   8   8   8   8   8   8
#     4  11  24  41  67  97 128 176 213 266 335 384
#     4  10  24  44  64  94 133 170 219 270 321 388
#     4  12  22  40  68  90 133 169 217 264 327 393
#     4  10  22  41  65  95 129 169 215 266 323 384
#     4  11  23  40  67  93 129 169 215 269 327 386
#     4  10  21  41  66  92 126 173 218 263 319 385
#     4  11  24  42  64  96 130 172 220 270 325 386
#     4  11  23  41  66  96 131 167 216 273 323 392
#
# _framework density 21.492557999999999
#
# number of rings (size 3 to 8) (size 9 to 14) (size 15 to 20)
#    0.000    1.250    3.750    1.875    3.500    2.500 
#    0.000    1.250    0.000    0.000    0.000    0.000 
#    0.000    0.000    0.000    0.000    0.000    0.000 
#
# Total GULP energy -793312.158480 kJ/mol
# GULP energy per Si atom -12395.502476 kJ/mol
# Density = 2.144364 g / cm^3
# Si number density = 21.492558 Si / 1000 Ang^3
#
#
#
# Elastic Constant Matrix: (Units=GPa)
#
#
# Indices 1 2 3 4 5 6 
#
# 1 117.5721 36.4573 26.6137 0.0000 0.0000 0.0000
# 2 36.4573 129.8778 22.6016 0.0000 0.0000 0.0000
# 3 26.6137 22.6016 53.5703 0.0000 0.0000 0.0000
# 4 0.0000 0.0000 0.0000 29.1873 0.0000 0.0000
# 5 0.0000 0.0000 0.0000 0.0000 21.2196 0.0000
# 6 0.0000 0.0000 0.0000 0.0000 0.0000 23.9384
#
#
#
# Elastic Compliance Matrix: (Units=1/GPa)
#
#
# Indices 1 2 3 4 5 6 
#
# 1 0.010095 -0.002116 -0.004122 0.000000 0.000000 0.000000
# 2 -0.002116 0.008753 -0.002642 0.000000 0.000000 0.000000
# 3 -0.004122 -0.002642 0.021830 0.000000 0.000000 0.000000
# 4 0.000000 0.000000 0.000000 0.034261 0.000000 0.000000
# 5 0.000000 0.000000 0.000000 0.000000 0.047126 0.000000
# 6 0.000000 0.000000 0.000000 0.000000 0.000000 0.041774
#
#
# Mechanical properties :
#
#
# Convention : Reuss Voigt Hill
#
# Bulk Modulus (GPa) = 43.63535 52.48507 48.06021
# Shear Modulus (GPa) = 26.42168 29.22557 27.82363
#
# Velocity S-wave (km/s) = 3.51000 3.69155 3.60192
# Velocity P-wave (km/s) = 6.06411 6.53017 6.30145
#
# Compressibility (1/GPa) = 0.02291720
#
# Stress axis : x y z
#
# Youngs Moduli (GPa) = 99.06138 114.24241 45.80954
#
# Poissons Ratio (x) = 0.24177 0.18884
# Poissons Ratio (y) = 0.20964 0.12102
# Poissons Ratio (z) = 0.40835 0.30179
#
# Static dielectric constant tensor:
#      x y z
#    x 3.939940 0.000000 0.000000 
#    y 0.000000 3.909870 0.000000 
#    z 0.000000 0.000000 3.634300 
# 
# 
# High freq. dielectric constant tensor:
#      x y z
#    x 1.853650 0.000000 0.000000 
#    y 0.000000 1.848880 0.000000 
#    z 0.000000 0.000000 1.824410 
# 
# From -- ./inp_files/9510.got.cif
#   From: 2010.03.12/outbox.cif.g09.slc.cpg/sg62_5_cif.got.tgz:9510.got - 2010.04.10 19:12:36.
