data_PCOD8254400
_publ_section_title
;
Structure prediction by ZEFSAII (Michael W. Deem and Ramdas Pophale) SiO2 
 PCOD8254400
Probable space group: P N M A
;
_chemical_formula_sum "Si O2"
_cell_formula_units_Z 48
_cell_length_a 11.659292
_cell_length_b 17.853196
_cell_length_c 11.265553
_cell_angle_alpha 90.000000
_cell_angle_beta 90.000000
_cell_angle_gamma 90.000000
_cell_volume 2344.988229
_symmetry_space_group_name_H-M "P N M A"
_symmetry_group_IT_number 62
_symmetry_cell_setting 'orthorhombic'
loop_
_space_group_symop_operation_xyz
x,y,z
1/2-x,-y,1/2+z
1/2+x,1/2-y,1/2-z
-x,1/2+y,-z
-x,-y,-z
1/2+x,y,1/2-z
1/2-x,1/2+y,1/2+z
x,1/2-y,z
loop_
_atom_site_type_symbol
_atom_site_label
_atom_site_fract_x
_atom_site_fract_y
_atom_site_fract_z
Si Si1 0.778263 0.662168 0.561402
Si Si2 0.134742 0.836447 0.166132
Si Si3 0.986018 0.073551 0.423059
Si Si4 0.585201 0.561485 0.656956
Si Si5 0.191619 0.664214 0.428168
Si Si6 0.422576 0.907574 0.454167
O O1 0.787295 0.750000 0.593810
O O2 0.739441 0.650532 0.424950
O O3 0.683713 0.624517 0.647163
O O4 0.899790 0.623149 0.579975
O O5 0.098186 0.750000 0.167169
O O6 0.173532 0.865403 0.294440
O O7 0.024515 0.884389 0.132924
O O8 0.948709 0.049000 0.292286
O O9 0.883987 0.120817 0.478147
O O10 0.000000 0.000000 0.500000
O O11 0.630957 0.484971 0.595904
O O12 0.469996 0.585529 0.587602
O O13 0.156577 0.750000 0.437670
O O14 0.324714 0.654657 0.459754
#
# Coordination Sequence:
#
# PCOD8254400 Si02
#       6
#     8   8   8   8   8   8
#     4  10  23  44  65  90 127 169 211 261 319 378
#     4   9  20  38  64  93 123 165 210 260 318 368
#     4  12  26  42  63  97 131 167 212 262 320 377
#     4  10  24  42  66  92 122 168 210 255 319 380
#     4  11  24  39  65  98 125 163 213 262 314 373
#     4  10  21  43  65  91 125 163 213 261 313 373
#
# _framework density 20.469185
#
# number of rings (size 3 to 8) (size 9 to 14) (size 15 to 20)
#    0.000    1.667    0.000    3.000    7.000    2.000 
#    0.000    0.000    0.000    0.000    0.000    0.000 
#    0.000    0.000    0.000    0.000    0.000    0.000 
#
# Total GULP energy -595394.072940 kJ/mol
# GULP energy per Si atom -12404.043186 kJ/mol
# Density = 2.042260 g / cm^3
# Si number density = 20.469185 Si / 1000 Ang^3
#
#
#
# Elastic Constant Matrix: (Units=GPa)
#
#
# Indices 1 2 3 4 5 6 
#
# 1 91.2304 31.3700 37.7716 0.0000 0.0000 0.0000
# 2 31.3700 71.2167 19.7449 0.0000 0.0000 0.0000
# 3 37.7716 19.7449 128.9772 0.0000 0.0000 0.0000
# 4 0.0000 0.0000 0.0000 28.6477 0.0000 0.0000
# 5 0.0000 0.0000 0.0000 0.0000 21.1668 0.0000
# 6 0.0000 0.0000 0.0000 0.0000 0.0000 41.8289
#
#
#
# Elastic Compliance Matrix: (Units=1/GPa)
#
#
# Indices 1 2 3 4 5 6 
#
# 1 0.014171 -0.005317 -0.003336 0.000000 0.000000 0.000000
# 2 -0.005317 0.016659 -0.000993 0.000000 0.000000 0.000000
# 3 -0.003336 -0.000993 0.008882 0.000000 0.000000 0.000000
# 4 0.000000 0.000000 0.000000 0.034907 0.000000 0.000000
# 5 0.000000 0.000000 0.000000 0.000000 0.047244 0.000000
# 6 0.000000 0.000000 0.000000 0.000000 0.000000 0.023907
#
#
# Mechanical properties :
#
#
# Convention : Reuss Voigt Hill
#
# Bulk Modulus (GPa) = 48.97249 52.13304 50.55277
# Shear Modulus (GPa) = 29.09196 31.83121 30.46158
#
# Velocity S-wave (km/s) = 3.77405 3.94773 3.86186
# Velocity P-wave (km/s) = 6.55501 6.80468 6.68101
#
# Compressibility (1/GPa) = 0.02041963
#
# Stress axis : x y z
#
# Youngs Moduli (GPa) = 70.56791 60.02720 112.58335
#
# Poissons Ratio (x) = 0.31917 0.37558
# Poissons Ratio (y) = 0.37522 0.11182
# Poissons Ratio (z) = 0.23541 0.05962
#
# Static dielectric constant tensor:
#      x y z
#    x 3.638150 0.000000 0.000000 
#    y 0.000000 3.715760 0.000000 
#    z 0.000000 0.000000 3.790240 
# 
# 
# High freq. dielectric constant tensor:
#      x y z
#    x 1.802270 0.000000 0.000000 
#    y 0.000000 1.810730 0.000000 
#    z 0.000000 0.000000 1.803410 
# 
# From -- ./inp_files/12253.got.cif
#   From: 2010.03.12/outbox.cif.g09.slc.cpg/sg62_7_cif.got.tgz:12253.got - 2010.04.10 19:12:36.
