data_PCOD8254995
_publ_section_title
;
Structure prediction by ZEFSAII (Michael W. Deem and Ramdas Pophale) SiO2 
 PCOD8254995
Probable space group: P N M A
;
_chemical_formula_sum "Si O2"
_cell_formula_units_Z 48
_cell_length_a 8.980473
_cell_length_b 15.397541
_cell_length_c 17.047173
_cell_angle_alpha 90.000000
_cell_angle_beta 90.000000
_cell_angle_gamma 90.000000
_cell_volume 2357.235371
_symmetry_space_group_name_H-M "P N M A"
_symmetry_group_IT_number 62
_symmetry_cell_setting 'orthorhombic'
loop_
_space_group_symop_operation_xyz
x,y,z
1/2-x,-y,1/2+z
1/2+x,1/2-y,1/2-z
-x,1/2+y,-z
-x,-y,-z
1/2+x,y,1/2-z
1/2-x,1/2+y,1/2+z
x,1/2-y,z
loop_
_atom_site_type_symbol
_atom_site_label
_atom_site_fract_x
_atom_site_fract_y
_atom_site_fract_z
Si Si1 0.208924 0.750000 0.137942
Si Si2 0.348910 0.651700 0.575213
Si Si3 0.749439 0.568116 0.195865
Si Si4 0.159137 0.971583 0.470750
Si Si5 0.882132 0.396098 0.972806
Si Si6 0.605254 0.250000 0.720076
Si Si7 0.450756 0.995900 0.670739
O O1 0.210719 0.833188 0.083047
O O2 0.364056 0.750000 0.186320
O O3 0.069444 0.750000 0.199323
O O4 0.300783 0.750000 0.596001
O O5 0.216762 0.605740 0.526909
O O6 0.497688 0.656306 0.522731
O O7 0.383305 0.600742 0.657532
O O8 0.646034 0.556091 0.119896
O O9 0.819616 0.663589 0.185348
O O10 0.650939 0.556455 0.273696
O O11 0.881481 0.496601 0.203671
O O12 0.266853 0.054849 0.471581
O O13 0.000000 0.000000 0.500000
O O14 0.965033 0.466020 0.917542
#
# Coordination Sequence:
#
# PCOD8254995 Si02
#       7
#     4   8   8   8   8   4   8
#     4  12  22  36  64  98 132 160 211 261 319 390
#     4  11  22  44  72  90 120 173 228 267 313 382
#     4  12  23  39  63  92 131 167 209 257 327 392
#     4  11  25  41  64  95 133 169 211 270 326 381
#     4  11  20  42  65  92 125 172 215 255 319 389
#     4  12  22  36  60 102 130 164 201 261 323 394
#     4  11  23  39  63  92 125 169 207 261 324 391
#
# _framework density 20.362836999999999
#
# number of rings (size 3 to 8) (size 9 to 14) (size 15 to 20)
#    0.000    0.667    7.500    1.000    5.833    1.333 
#    1.500    0.833    1.833    0.000    0.000    0.000 
#    0.000    0.000    0.000    0.000    0.000    0.000 
#
# Total GULP energy -595193.573538 kJ/mol
# GULP energy per Si atom -12399.866115 kJ/mol
# Density = 2.031649 g / cm^3
# Si number density = 20.362837 Si / 1000 Ang^3
#
#
#
# Elastic Constant Matrix: (Units=GPa)
#
#
# Indices 1 2 3 4 5 6 
#
# 1 75.4726 24.0726 24.5650 0.0000 0.0000 0.0000
# 2 24.0726 118.3310 23.1178 0.0000 0.0000 0.0000
# 3 24.5650 23.1178 74.0165 0.0000 0.0000 0.0000
# 4 0.0000 0.0000 0.0000 32.9263 0.0000 0.0000
# 5 0.0000 0.0000 0.0000 0.0000 27.0635 0.0000
# 6 0.0000 0.0000 0.0000 0.0000 0.0000 19.2640
#
#
#
# Elastic Compliance Matrix: (Units=1/GPa)
#
#
# Indices 1 2 3 4 5 6 
#
# 1 0.015409 -0.002274 -0.004404 0.000000 0.000000 0.000000
# 2 -0.002274 0.009336 -0.002161 0.000000 0.000000 0.000000
# 3 -0.004404 -0.002161 0.015647 0.000000 0.000000 0.000000
# 4 0.000000 0.000000 0.000000 0.030371 0.000000 0.000000
# 5 0.000000 0.000000 0.000000 0.000000 0.036950 0.000000
# 6 0.000000 0.000000 0.000000 0.000000 0.000000 0.051910
#
#
# Mechanical properties :
#
#
# Convention : Reuss Voigt Hill
#
# Bulk Modulus (GPa) = 44.02686 45.70345 44.86516
# Shear Modulus (GPa) = 27.04581 28.92172 27.98377
#
# Velocity S-wave (km/s) = 3.64839 3.77280 3.71112
# Velocity P-wave (km/s) = 6.27820 6.43987 6.35955
#
# Compressibility (1/GPa) = 0.02271341
#
# Stress axis : x y z
#
# Youngs Moduli (GPa) = 64.89908 107.11519 63.91023
#
# Poissons Ratio (x) = 0.24362 0.28143
# Poissons Ratio (y) = 0.14760 0.13811
# Poissons Ratio (z) = 0.28579 0.23148
#
# Static dielectric constant tensor:
#      x y z
#    x 3.669310 0.000000 0.000000 
#    y 0.000000 3.857100 0.000000 
#    z 0.000000 0.000000 3.672770 
# 
# 
# High freq. dielectric constant tensor:
#      x y z
#    x 1.787620 0.000000 0.000000 
#    y 0.000000 1.793630 0.000000 
#    z 0.000000 0.000000 1.788230 
# 
# From -- ./inp_files/17009.got.cif
#   From: 2010.03.12/outbox.cif.g09.slc.cpg/sg62_9_cif.got.tgz:17009.got - 2010.04.10 19:12:36.
