data_PCOD8254932
_publ_section_title
;
Structure prediction by ZEFSAII (Michael W. Deem and Ramdas Pophale) SiO2 
 PCOD8254932
Probable space group: P N M A
;
_chemical_formula_sum "Si O2"
_cell_formula_units_Z 48
_cell_length_a 13.462955
_cell_length_b 18.006750
_cell_length_c 9.384010
_cell_angle_alpha 90.000000
_cell_angle_beta 90.000000
_cell_angle_gamma 90.000000
_cell_volume 2274.909850
_symmetry_space_group_name_H-M "P N M A"
_symmetry_group_IT_number 62
_symmetry_cell_setting 'orthorhombic'
loop_
_space_group_symop_operation_xyz
x,y,z
1/2-x,-y,1/2+z
1/2+x,1/2-y,1/2-z
-x,1/2+y,-z
-x,-y,-z
1/2+x,y,1/2-z
1/2-x,1/2+y,1/2+z
x,1/2-y,z
loop_
_atom_site_type_symbol
_atom_site_label
_atom_site_fract_x
_atom_site_fract_y
_atom_site_fract_z
Si Si1 0.592844 0.334552 0.210271
Si Si2 0.979582 0.418944 0.061472
Si Si3 0.524285 0.665614 0.076208
Si Si4 0.280974 0.073039 0.951789
Si Si5 0.090622 0.335866 0.848118
Si Si6 0.229450 0.571660 0.789618
O O1 0.587722 0.250000 0.268179
O O2 0.563673 0.396032 0.326030
O O3 0.706864 0.354400 0.175670
O O4 0.519560 0.344752 0.079349
O O5 0.874509 0.412937 0.135787
O O6 0.990933 0.359464 0.933995
O O7 0.000000 0.500000 0.000000
O O8 0.558166 0.750000 0.103942
O O9 0.620469 0.615471 0.096580
O O10 0.435299 0.644509 0.184681
O O11 0.183919 0.117939 0.904170
O O12 0.283819 0.996950 0.864652
O O13 0.282733 0.057898 0.120845
O O14 0.115186 0.250000 0.870746
#
# Coordination Sequence:
#
# PCOD8254932 Si02
#       6
#     8   8   8   8   8   8
#     4  11  25  45  69 102 138 182 240 291 348 426
#     4  12  24  45  69 104 140 182 236 286 354 422
#     4  10  25  45  70  99 136 185 230 283 354 419
#     4  12  26  45  68 100 138 180 232 287 355 420
#     4  11  25  45  71 100 139 183 231 292 345 417
#     4  12  27  42  71 102 136 187 230 291 357 417
#
# _framework density 21.099736
#
# number of rings (size 3 to 8) (size 9 to 14) (size 15 to 20)
#    0.000    0.667    5.000    1.000    7.000    2.667 
#    0.000    3.333    0.000    0.000    0.000    0.000 
#    0.000    0.000    0.000    0.000    0.000    0.000 
#
# Total GULP energy -595186.208081 kJ/mol
# GULP energy per Si atom -12399.712668 kJ/mol
# Density = 2.105171 g / cm^3
# Si number density = 21.099736 Si / 1000 Ang^3
#
#
#
# Elastic Constant Matrix: (Units=GPa)
#
#
# Indices 1 2 3 4 5 6 
#
# 1 115.8666 59.0605 32.3469 0.0000 0.0000 0.0000
# 2 59.0605 100.4253 58.1454 0.0000 0.0000 0.0000
# 3 32.3469 58.1454 91.2299 0.0000 0.0000 0.0000
# 4 0.0000 0.0000 0.0000 37.8680 0.0000 0.0000
# 5 0.0000 0.0000 0.0000 0.0000 35.1336 0.0000
# 6 0.0000 0.0000 0.0000 0.0000 0.0000 41.9799
#
#
#
# Elastic Compliance Matrix: (Units=1/GPa)
#
#
# Indices 1 2 3 4 5 6 
#
# 1 0.012334 -0.007483 0.000396 0.000000 0.000000 0.000000
# 2 -0.007483 0.020321 -0.010298 0.000000 0.000000 0.000000
# 3 0.000396 -0.010298 0.017385 0.000000 0.000000 0.000000
# 4 0.000000 0.000000 0.000000 0.026408 0.000000 0.000000
# 5 0.000000 0.000000 0.000000 0.000000 0.028463 0.000000
# 6 0.000000 0.000000 0.000000 0.000000 0.000000 0.023821
#
#
# Mechanical properties :
#
#
# Convention : Reuss Voigt Hill
#
# Bulk Modulus (GPa) = 65.49187 67.40304 66.44745
# Shear Modulus (GPa) = 29.65726 33.52756 31.59241
#
# Velocity S-wave (km/s) = 3.75317 3.99056 3.87368
# Velocity P-wave (km/s) = 7.06316 7.29706 7.18106
#
# Compressibility (1/GPa) = 0.01526907
#
# Stress axis : x y z
#
# Youngs Moduli (GPa) = 81.07350 49.20933 57.52212
#
# Poissons Ratio (x) = 0.36825 -0.02278
# Poissons Ratio (y) = 0.60670 0.59239
# Poissons Ratio (z) = -0.03211 0.50678
#
# Static dielectric constant tensor:
#      x y z
#    x 3.901400 0.000000 0.000000 
#    y 0.000000 3.956510 0.000000 
#    z 0.000000 0.000000 4.164830 
# 
# 
# High freq. dielectric constant tensor:
#      x y z
#    x 1.833190 0.000000 0.000000 
#    y 0.000000 1.833270 0.000000 
#    z 0.000000 0.000000 1.845420 
# 
# From -- ./inp_files/6484.got.cif
#   From: 2010.03.12/outbox.cif.g09.slc.cpg/sg62_4_cif.got.tgz:6484.got - 2010.04.10 19:12:36.
