data_PCOD8254046
_publ_section_title
;
Structure prediction by ZEFSAII (Michael W. Deem and Ramdas Pophale) SiO2 
 PCOD8254046
Probable space group: P N M A
;
_chemical_formula_sum "Si O2"
_cell_formula_units_Z 64
_cell_length_a 12.742927
_cell_length_b 8.878072
_cell_length_c 29.438506
_cell_angle_alpha 90.000000
_cell_angle_beta 90.000000
_cell_angle_gamma 90.000000
_cell_volume 3330.455413
_symmetry_space_group_name_H-M "P N M A"
_symmetry_group_IT_number 62
_symmetry_cell_setting 'orthorhombic'
loop_
_space_group_symop_operation_xyz
x,y,z
1/2-x,-y,1/2+z
1/2+x,1/2-y,1/2-z
-x,1/2+y,-z
-x,-y,-z
1/2+x,y,1/2-z
1/2-x,1/2+y,1/2+z
x,1/2-y,z
loop_
_atom_site_type_symbol
_atom_site_label
_atom_site_fract_x
_atom_site_fract_y
_atom_site_fract_z
Si Si1 0.726154 0.928256 0.375847
Si Si2 0.493950 0.570798 0.354758
Si Si3 0.620534 0.924899 0.050468
Si Si4 0.217503 0.574129 0.881796
Si Si5 0.858210 0.574973 0.291817
Si Si6 0.260678 0.918479 0.781466
Si Si7 0.882635 0.926307 0.454482
Si Si8 0.516987 0.419500 0.258489
O O1 0.727762 0.750000 0.372131
O O2 0.605012 0.983611 0.377380
O O3 0.784436 0.993746 0.331101
O O4 0.793362 0.981075 0.419257
O O5 0.486374 0.750000 0.354778
O O6 0.397314 0.504004 0.383910
O O7 0.488232 0.513123 0.303343
O O8 0.647026 0.750000 0.054636
O O9 0.499685 0.957144 0.065618
O O10 0.703850 0.013878 0.080377
O O11 0.636071 0.975389 0.998823
O O12 0.200084 0.750000 0.890224
O O13 0.274723 0.538095 0.834023
O O14 0.877299 0.750000 0.299486
O O15 0.814778 0.540554 0.241306
O O16 0.969256 0.489628 0.288361
O O17 0.212579 0.750000 0.778772
O O18 0.361617 0.925928 0.750521
O O19 0.870867 0.750000 0.466320
O O20 0.476994 0.250000 0.265945
#
# Coordination Sequence:
#
# PCOD8254046 Si02
#       8
#     8   8   8   8   8   8   8   8
#     4   9  20  37  58  86 115 147 189 235 285 340
#     4  11  21  37  58  82 113 151 195 239 281 331
#     4  10  21  38  63  92 117 144 185 234 286 347
#     4  11  23  39  58  83 116 155 195 235 288 342
#     4  11  21  34  55  82 112 149 195 238 283 333
#     4  10  22  37  53  76 113 155 195 236 280 336
#     4   9  19  40  65  87 117 150 180 229 292 347
#     4  11  22  36  51  75 113 155 193 234 286 336
#
# _framework density 19.216591999999999
#
# number of rings (size 3 to 8) (size 9 to 14) (size 15 to 20)
#    0.000    1.750    2.500    1.875    1.750    1.500 
#    0.000    3.125    0.000    0.000    0.000    0.000 
#    0.000    0.000    0.000    0.000    0.000    0.000 
#
# Total GULP energy -793189.025615 kJ/mol
# GULP energy per Si atom -12393.578525 kJ/mol
# Density = 1.917285 g / cm^3
# Si number density = 19.216592 Si / 1000 Ang^3
#
#
#
# Elastic Constant Matrix: (Units=GPa)
#
#
# Indices 1 2 3 4 5 6 
#
# 1 112.8337 30.1885 45.5665 0.0000 0.0000 0.0000
# 2 30.1885 71.6571 22.5657 0.0000 0.0000 0.0000
# 3 45.5665 22.5657 71.0373 0.0000 0.0000 0.0000
# 4 0.0000 0.0000 0.0000 26.4862 0.0000 0.0000
# 5 0.0000 0.0000 0.0000 0.0000 17.5073 0.0000
# 6 0.0000 0.0000 0.0000 0.0000 0.0000 33.2945
#
#
#
# Elastic Compliance Matrix: (Units=1/GPa)
#
#
# Indices 1 2 3 4 5 6 
#
# 1 0.012535 -0.003054 -0.007070 0.000000 0.000000 0.000000
# 2 -0.003054 0.016251 -0.003203 0.000000 0.000000 0.000000
# 3 -0.007070 -0.003203 0.019630 0.000000 0.000000 0.000000
# 4 0.000000 0.000000 0.000000 0.037755 0.000000 0.000000
# 5 0.000000 0.000000 0.000000 0.000000 0.057119 0.000000
# 6 0.000000 0.000000 0.000000 0.000000 0.000000 0.030035
#
#
# Mechanical properties :
#
#
# Convention : Reuss Voigt Hill
#
# Bulk Modulus (GPa) = 45.95531 50.24105 48.09818
# Shear Modulus (GPa) = 24.12734 25.93811 25.03272
#
# Velocity S-wave (km/s) = 3.54721 3.67792 3.61316
# Velocity P-wave (km/s) = 6.38305 6.65113 6.51846
#
# Compressibility (1/GPa) = 0.02176027
#
# Stress axis : x y z
#
# Youngs Moduli (GPa) = 79.77637 61.53539 50.94303
#
# Poissons Ratio (x) = 0.18795 0.36018
# Poissons Ratio (y) = 0.24367 0.16317
# Poissons Ratio (z) = 0.56404 0.19710
#
# Static dielectric constant tensor:
#      x y z
#    x 3.917820 0.000000 0.000000 
#    y 0.000000 3.470770 0.000000 
#    z 0.000000 0.000000 3.365630 
# 
# 
# High freq. dielectric constant tensor:
#      x y z
#    x 1.765480 0.000000 0.000000 
#    y 0.000000 1.741640 0.000000 
#    z 0.000000 0.000000 1.729510 
# 
# From -- ./inp_files/32528.got.cif
#   From: 2010.03.12/outbox.cif.g09.slc.cpg/sg62_17_cif.got.tgz:32528.got - 2010.04.10 19:12:36.
