data_PCOD8254305
_publ_section_title
;
Structure prediction by ZEFSAII (Michael W. Deem and Ramdas Pophale) SiO2 
 PCOD8254305
Probable space group: P N M A
;
_chemical_formula_sum "Si O2"
_cell_formula_units_Z 48
_cell_length_a 18.089908
_cell_length_b 17.105676
_cell_length_c 7.328402
_cell_angle_alpha 90.000000
_cell_angle_beta 90.000000
_cell_angle_gamma 90.000000
_cell_volume 2267.701485
_symmetry_space_group_name_H-M "P N M A"
_symmetry_group_IT_number 62
_symmetry_cell_setting 'orthorhombic'
loop_
_space_group_symop_operation_xyz
x,y,z
1/2-x,-y,1/2+z
1/2+x,1/2-y,1/2-z
-x,1/2+y,-z
-x,-y,-z
1/2+x,y,1/2-z
1/2-x,1/2+y,1/2+z
x,1/2-y,z
loop_
_atom_site_type_symbol
_atom_site_label
_atom_site_fract_x
_atom_site_fract_y
_atom_site_fract_z
Si Si1 0.766363 0.159535 0.417783
Si Si2 0.116641 0.840213 0.270827
Si Si3 0.041215 0.157709 0.600594
Si Si4 0.860950 0.402553 0.109396
Si Si5 0.982184 0.840943 0.806793
Si Si6 0.123201 0.084205 0.910316
O O1 0.743760 0.250000 0.396768
O O2 0.835283 0.147409 0.550027
O O3 0.788571 0.124444 0.221334
O O4 0.698109 0.112138 0.497371
O O5 0.112214 0.750000 0.214176
O O6 0.035213 0.874282 0.312529
O O7 0.153467 0.886581 0.103876
O O8 0.040237 0.250000 0.610093
O O9 0.047906 0.131582 0.390252
O O10 0.110628 0.125598 0.714599
O O11 0.875261 0.493522 0.134961
O O12 0.930022 0.352460 0.182885
O O13 0.963770 0.750000 0.844127
O O14 0.944564 0.895060 0.957511
#
# Coordination Sequence:
#
# PCOD8254305 Si02
#       6
#     8   8   8   8   8   8
#     4  11  25  46  67  93 132 183 227 272 331 406
#     4  10  21  40  69  95 125 171 227 269 322 402
#     4  10  21  40  68  98 129 174 223 270 324 398
#     4  12  25  41  68  99 133 175 223 274 342 400
#     4  11  22  42  69  98 131 175 228 272 328 405
#     4  12  27  41  65 101 142 169 216 291 344 384
#
# _framework density 21.166806999999999
#
# number of rings (size 3 to 8) (size 9 to 14) (size 15 to 20)
#    0.000    1.000    3.333    3.500    2.333    3.333 
#    0.000    1.667    0.000    0.000    0.000    0.000 
#    0.000    0.000    0.000    0.000    0.000    0.000 
#
# Total GULP energy -595467.175929 kJ/mol
# GULP energy per Si atom -12405.566165 kJ/mol
# Density = 2.111863 g / cm^3
# Si number density = 21.166807 Si / 1000 Ang^3
#
#
#
# Elastic Constant Matrix: (Units=GPa)
#
#
# Indices 1 2 3 4 5 6 
#
# 1 56.5095 17.4111 -1.5752 0.0000 0.0000 0.0000
# 2 17.4111 50.8891 40.2838 0.0000 0.0000 0.0000
# 3 -1.5752 40.2838 98.4109 0.0000 0.0000 0.0000
# 4 0.0000 0.0000 0.0000 10.6582 0.0000 0.0000
# 5 0.0000 0.0000 0.0000 0.0000 32.6262 0.0000
# 6 0.0000 0.0000 0.0000 0.0000 0.0000 13.4928
#
#
#
# Elastic Compliance Matrix: (Units=1/GPa)
#
#
# Indices 1 2 3 4 5 6 
#
# 1 0.021273 -0.011166 0.004911 0.000000 0.000000 0.000000
# 2 -0.011166 0.034931 -0.014478 0.000000 0.000000 0.000000
# 3 0.004911 -0.014478 0.016166 0.000000 0.000000 0.000000
# 4 0.000000 0.000000 0.000000 0.093825 0.000000 0.000000
# 5 0.000000 0.000000 0.000000 0.000000 0.030650 0.000000
# 6 0.000000 0.000000 0.000000 0.000000 0.000000 0.074113
#
#
# Mechanical properties :
#
#
# Convention : Reuss Voigt Hill
#
# Bulk Modulus (GPa) = 32.35602 35.33876 33.84739
# Shear Modulus (GPa) = 15.49297 21.33477 18.41387
#
# Velocity S-wave (km/s) = 2.70839 3.17824 2.95268
# Velocity P-wave (km/s) = 5.00998 5.49545 5.25832
#
# Compressibility (1/GPa) = 0.03090615
#
# Stress axis : x y z
#
# Youngs Moduli (GPa) = 47.00695 28.62747 61.85668
#
# Poissons Ratio (x) = 0.31966 -0.30380
# Poissons Ratio (y) = 0.52489 0.89554
# Poissons Ratio (z) = -0.23087 0.41446
#
# Static dielectric constant tensor:
#      x y z
#    x 3.817620 0.000000 0.000000 
#    y 0.000000 3.668780 0.000000 
#    z 0.000000 0.000000 4.073360 
# 
# 
# High freq. dielectric constant tensor:
#      x y z
#    x 1.820570 0.000000 0.000000 
#    y 0.000000 1.822590 0.000000 
#    z 0.000000 0.000000 1.848780 
# 
# From -- ./inp_files/7831.got.cif
#   From: 2010.03.12/outbox.cif.g09.slc.cpg/sg62_4_cif.got.tgz:7831.got - 2010.04.10 19:12:36.
