data_PCOD8254256
_publ_section_title
;
Structure prediction by ZEFSAII (Michael W. Deem and Ramdas Pophale) SiO2 
 PCOD8254256
Probable space group: P N M A
;
_chemical_formula_sum "Si O2"
_cell_formula_units_Z 64
_cell_length_a 30.833838
_cell_length_b 8.693797
_cell_length_c 12.010034
_cell_angle_alpha 90.000000
_cell_angle_beta 90.000000
_cell_angle_gamma 90.000000
_cell_volume 3219.447285
_symmetry_space_group_name_H-M "P N M A"
_symmetry_group_IT_number 62
_symmetry_cell_setting 'orthorhombic'
loop_
_space_group_symop_operation_xyz
x,y,z
1/2-x,-y,1/2+z
1/2+x,1/2-y,1/2-z
-x,1/2+y,-z
-x,-y,-z
1/2+x,y,1/2-z
1/2-x,1/2+y,1/2+z
x,1/2-y,z
loop_
_atom_site_type_symbol
_atom_site_label
_atom_site_fract_x
_atom_site_fract_y
_atom_site_fract_z
Si Si1 0.703506 0.069534 0.706755
Si Si2 0.835556 0.070111 0.000815
Si Si3 0.074052 0.070365 0.009413
Si Si4 0.875680 0.567051 0.360050
Si Si5 0.871837 0.568877 0.610083
Si Si6 0.800632 0.071561 0.760730
Si Si7 0.053334 0.570033 0.242922
Si Si8 0.542752 0.068411 0.725139
O O1 0.698803 0.250000 0.681176
O O2 0.667159 0.013265 0.794277
O O3 0.750221 0.028391 0.756562
O O4 0.699786 0.972523 0.593510
O O5 0.847337 0.250000 0.005481
O O6 0.876763 0.963886 0.025789
O O7 0.817058 0.022285 0.881505
O O8 0.068275 0.250000 0.037537
O O9 0.045275 0.015933 0.904016
O O10 0.061692 0.968452 0.114647
O O11 0.878045 0.750000 0.362913
O O12 0.873687 0.500258 0.485227
O O13 0.918649 0.496906 0.300037
O O14 0.872212 0.750000 0.605624
O O15 0.827381 0.517655 0.667195
O O16 0.914099 0.517289 0.677092
O O17 0.808635 0.250000 0.738707
O O18 0.060833 0.750000 0.259225
O O19 0.004125 0.520031 0.273875
O O20 0.548414 0.250000 0.726351
#
# Coordination Sequence:
#
# PCOD8254256 Si02
#       8
#     8   8   8   8   8   8   8   8
#     4  10  21  40  64  86 115 156 196 239 290 346
#     4  11  22  37  60  90 123 154 189 240 295 343
#     4  11  20  36  62  88 116 152 197 238 283 351
#     4   9  19  38  61  84 111 149 197 241 285 342
#     4  11  23  38  61  85 113 155 201 244 285 346
#     4  10  23  40  60  86 120 156 191 238 296 344
#     4  11  22  37  58  85 120 154 187 240 301 350
#     4   9  19  36  60  86 114 151 191 239 297 348
#
# _framework density 19.879187999999999
#
# number of rings (size 3 to 8) (size 9 to 14) (size 15 to 20)
#    0.000    1.750    2.500    1.875    1.750    1.500 
#    0.000    3.125    0.000    0.000    0.000    0.000 
#    0.000    0.000    0.000    0.000    0.000    0.000 
#
# Total GULP energy -793710.237127 kJ/mol
# GULP energy per Si atom -12401.722455 kJ/mol
# Density = 1.983394 g / cm^3
# Si number density = 19.879188 Si / 1000 Ang^3
#
#
#
# Elastic Constant Matrix: (Units=GPa)
#
#
# Indices 1 2 3 4 5 6 
#
# 1 130.2738 17.3387 48.0201 0.0000 0.0000 0.0000
# 2 17.3387 25.7005 18.1097 0.0000 0.0000 0.0000
# 3 48.0201 18.1097 130.5651 0.0000 0.0000 0.0000
# 4 0.0000 0.0000 0.0000 12.4194 0.0000 0.0000
# 5 0.0000 0.0000 0.0000 0.0000 24.2206 0.0000
# 6 0.0000 0.0000 0.0000 0.0000 0.0000 18.2271
#
#
#
# Elastic Compliance Matrix: (Units=1/GPa)
#
#
# Indices 1 2 3 4 5 6 
#
# 1 0.009285 -0.004276 -0.002822 0.000000 0.000000 0.000000
# 2 -0.004276 0.045094 -0.004682 0.000000 0.000000 0.000000
# 3 -0.002822 -0.004682 0.009346 0.000000 0.000000 0.000000
# 4 0.000000 0.000000 0.000000 0.080519 0.000000 0.000000
# 5 0.000000 0.000000 0.000000 0.000000 0.041287 0.000000
# 6 0.000000 0.000000 0.000000 0.000000 0.000000 0.054863
#
#
# Mechanical properties :
#
#
# Convention : Reuss Voigt Hill
#
# Bulk Modulus (GPa) = 24.89689 50.38626 37.64158
# Shear Modulus (GPa) = 18.02820 24.51149 21.26985
#
# Velocity S-wave (km/s) = 3.01473 3.51525 3.27457
# Velocity P-wave (km/s) = 4.96683 6.47126 5.76830
#
# Compressibility (1/GPa) = 0.04016566
#
# Stress axis : x y z
#
# Youngs Moduli (GPa) = 107.69549 22.17609 106.99415
#
# Poissons Ratio (x) = 0.09482 0.30194
# Poissons Ratio (y) = 0.46049 0.50095
# Poissons Ratio (z) = 0.30391 0.10383
#
# Static dielectric constant tensor:
#      x y z
#    x 3.845150 0.000000 0.000000 
#    y 0.000000 3.311930 0.000000 
#    z 0.000000 0.000000 3.782420 
# 
# 
# High freq. dielectric constant tensor:
#      x y z
#    x 1.788950 0.000000 0.000000 
#    y 0.000000 1.751170 0.000000 
#    z 0.000000 0.000000 1.781570 
# 
# From -- ./inp_files/15824.got.cif
#   From: 2010.03.12/outbox.cif.g09.slc.cpg/sg62_8_cif.got.tgz:15824.got - 2010.04.10 19:12:36.
