data_PCOD8254731
_publ_section_title
;
Structure prediction by ZEFSAII (Michael W. Deem and Ramdas Pophale) SiO2 
 PCOD8254731
Probable space group: P N M A
;
_chemical_formula_sum "Si O2"
_cell_formula_units_Z 40
_cell_length_a 15.274442
_cell_length_b 11.746869
_cell_length_c 11.150491
_cell_angle_alpha 90.000000
_cell_angle_beta 90.000000
_cell_angle_gamma 90.000000
_cell_volume 2000.697690
_symmetry_space_group_name_H-M "P N M A"
_symmetry_group_IT_number 62
_symmetry_cell_setting 'orthorhombic'
loop_
_space_group_symop_operation_xyz
x,y,z
1/2-x,-y,1/2+z
1/2+x,1/2-y,1/2-z
-x,1/2+y,-z
-x,-y,-z
1/2+x,y,1/2-z
1/2-x,1/2+y,1/2+z
x,1/2-y,z
loop_
_atom_site_type_symbol
_atom_site_label
_atom_site_fract_x
_atom_site_fract_y
_atom_site_fract_z
Si Si1 0.054513 0.750000 0.017560
Si Si2 0.935838 0.750000 0.662732
Si Si3 0.367235 0.750000 0.571802
Si Si4 0.374875 0.250000 0.248244
Si Si5 0.590382 0.010542 0.067238
Si Si6 0.354079 0.123675 0.711195
Si Si7 0.267224 0.434963 0.119215
O O1 0.086929 0.862353 0.090496
O O2 0.097527 0.750000 0.886450
O O3 0.948987 0.750000 0.019083
O O4 0.907382 0.750000 0.797963
O O5 0.894017 0.858240 0.598414
O O6 0.041632 0.750000 0.659073
O O7 0.309480 0.636892 0.554936
O O8 0.317229 0.361374 0.220081
O O9 0.586135 0.934047 0.186939
O O10 0.500000 0.000000 0.000000
O O11 0.669574 0.970773 0.986435
O O12 0.322498 0.250000 0.754011
O O13 0.269821 0.046188 0.685230
#
# Coordination Sequence:
#
# PCOD8254731 Si02
#       7
#     4   4   4   4   8   8   8
#     4   9  24  45  70  94 141 177 228 281 344 414
#     4  11  22  45  69  95 134 184 235 277 339 428
#     4  10  22  45  66  98 131 181 227 284 343 405
#     4  10  22  43  69 101 130 192 232 270 356 407
#     4  12  26  46  70  98 143 183 229 284 348 415
#     4  10  26  45  63 102 140 173 232 284 339 408
#     4  11  24  41  70 101 137 178 232 289 335 413
#
# _framework density 19.993026
#
# number of rings (size 3 to 8) (size 9 to 14) (size 15 to 20)
#    0.600    0.800    4.000    0.000    8.400    0.800 
#    3.600    0.000    0.000    0.000    0.000    0.000 
#    0.000    0.000    0.000    0.000    0.000    0.000 
#
# Total GULP energy -496004.888279 kJ/mol
# GULP energy per Si atom -12400.122207 kJ/mol
# Density = 1.994752 g / cm^3
# Si number density = 19.993026 Si / 1000 Ang^3
#
#
#
# Elastic Constant Matrix: (Units=GPa)
#
#
# Indices 1 2 3 4 5 6 
#
# 1 141.5068 64.8609 60.9552 0.0000 0.0000 0.0000
# 2 64.8609 167.4683 58.0374 0.0000 0.0000 0.0000
# 3 60.9552 58.0374 120.8309 0.0000 0.0000 0.0000
# 4 0.0000 0.0000 0.0000 42.8898 0.0000 0.0000
# 5 0.0000 0.0000 0.0000 0.0000 33.4105 0.0000
# 6 0.0000 0.0000 0.0000 0.0000 0.0000 37.2451
#
#
#
# Elastic Compliance Matrix: (Units=1/GPa)
#
#
# Indices 1 2 3 4 5 6 
#
# 1 0.009834 -0.002507 -0.003757 0.000000 0.000000 0.000000
# 2 -0.002507 0.007803 -0.002483 0.000000 0.000000 0.000000
# 3 -0.003757 -0.002483 0.011364 0.000000 0.000000 0.000000
# 4 0.000000 0.000000 0.000000 0.023316 0.000000 0.000000
# 5 0.000000 0.000000 0.000000 0.000000 0.029931 0.000000
# 6 0.000000 0.000000 0.000000 0.000000 0.000000 0.026849
#
#
# Mechanical properties :
#
#
# Convention : Reuss Voigt Hill
#
# Bulk Modulus (GPa) = 86.90355 88.61256 87.75806
# Shear Modulus (GPa) = 38.33595 39.10592 38.72094
#
# Velocity S-wave (km/s) = 4.38364 4.42744 4.40559
# Velocity P-wave (km/s) = 8.31763 8.39966 8.35875
#
# Compressibility (1/GPa) = 0.01150701
#
# Stress axis : x y z
#
# Youngs Moduli (GPa) = 101.68661 128.16007 87.99709
#
# Poissons Ratio (x) = 0.32127 0.33060
# Poissons Ratio (y) = 0.25491 0.21852
# Poissons Ratio (z) = 0.38203 0.31825
#
# Static dielectric constant tensor:
#      x y z
#    x 3.521440 0.000000 0.000000 
#    y 0.000000 3.736300 0.000000 
#    z 0.000000 0.000000 3.476930 
# 
# 
# High freq. dielectric constant tensor:
#      x y z
#    x 1.785160 0.000000 0.000000 
#    y 0.000000 1.789800 0.000000 
#    z 0.000000 0.000000 1.777120 
# 
# From -- ./inp_files/13056.got.cif
#   From: 2010.03.12/outbox.cif.g09.slc.cpg/sg62_7_cif.got.tgz:13056.got - 2010.04.10 19:12:36.
