data_PCOD8254404
_publ_section_title
;
Structure prediction by ZEFSAII (Michael W. Deem and Ramdas Pophale) SiO2 
 PCOD8254404
Probable space group: P N M A
;
_chemical_formula_sum "Si O2"
_cell_formula_units_Z 40
_cell_length_a 11.185258
_cell_length_b 14.359937
_cell_length_c 11.829237
_cell_angle_alpha 90.000000
_cell_angle_beta 90.000000
_cell_angle_gamma 90.000000
_cell_volume 1900.007318
_symmetry_space_group_name_H-M "P N M A"
_symmetry_group_IT_number 62
_symmetry_cell_setting 'orthorhombic'
loop_
_space_group_symop_operation_xyz
x,y,z
1/2-x,-y,1/2+z
1/2+x,1/2-y,1/2-z
-x,1/2+y,-z
-x,-y,-z
1/2+x,y,1/2-z
1/2-x,1/2+y,1/2+z
x,1/2-y,z
loop_
_atom_site_type_symbol
_atom_site_label
_atom_site_fract_x
_atom_site_fract_y
_atom_site_fract_z
Si Si1 0.592752 0.947978 0.080074
Si Si2 0.042093 0.354421 0.786022
Si Si3 0.989165 0.106647 0.023577
Si Si4 0.304593 0.463967 0.315014
Si Si5 0.251554 0.353071 0.098430
O O1 0.533669 0.889480 0.180383
O O2 0.673186 0.030978 0.131215
O O3 0.676838 0.875481 0.015082
O O4 0.500000 0.000000 0.000000
O O5 0.092812 0.250000 0.760015
O O6 0.144958 0.430229 0.811522
O O7 0.962706 0.345293 0.901937
O O8 0.109570 0.145916 0.078737
O O9 0.880604 0.112742 0.113580
O O10 0.000000 0.000000 0.000000
O O11 0.294015 0.428655 0.188195
O O12 0.286203 0.250000 0.139725
#
# Coordination Sequence:
#
# PCOD8254404 Si02
#       5
#     8   8   8   8   8
#     4  12  25  43  69  99 141 178 220 281 345 402
#     4  11  23  40  68 100 130 177 231 275 330 398
#     4  10  21  43  69  94 130 177 228 273 338 398
#     4  11  24  45  70  96 141 179 221 281 341 406
#     4  12  25  43  70 101 134 180 228 282 338 401
#
# _framework density 21.052551000000001
#
# number of rings (size 3 to 8) (size 9 to 14) (size 15 to 20)
#    0.000    0.800    6.000    3.600    0.000    2.400 
#    0.000    1.000    0.000    0.000    0.000    0.000 
#    0.000    0.000    0.000    0.000    0.000    0.000 
#
# Total GULP energy -495741.386265 kJ/mol
# GULP energy per Si atom -12393.534657 kJ/mol
# Density = 2.100463 g / cm^3
# Si number density = 21.052551 Si / 1000 Ang^3
#
#
#
# Elastic Constant Matrix: (Units=GPa)
#
#
# Indices 1 2 3 4 5 6 
#
# 1 73.2508 32.9511 51.8004 0.0000 0.0000 0.0000
# 2 32.9511 113.6769 44.5642 0.0000 0.0000 0.0000
# 3 51.8004 44.5642 154.0250 0.0000 0.0000 0.0000
# 4 0.0000 0.0000 0.0000 9.1759 0.0000 0.0000
# 5 0.0000 0.0000 0.0000 0.0000 36.0816 0.0000
# 6 0.0000 0.0000 0.0000 0.0000 0.0000 22.5801
#
#
#
# Elastic Compliance Matrix: (Units=1/GPa)
#
#
# Indices 1 2 3 4 5 6 
#
# 1 0.019001 -0.003387 -0.005410 0.000000 0.000000 0.000000
# 2 -0.003387 0.010526 -0.001906 0.000000 0.000000 0.000000
# 3 -0.005410 -0.001906 0.008864 0.000000 0.000000 0.000000
# 4 0.000000 0.000000 0.000000 0.108981 0.000000 0.000000
# 5 0.000000 0.000000 0.000000 0.000000 0.027715 0.000000
# 6 0.000000 0.000000 0.000000 0.000000 0.000000 0.044287
#
#
# Mechanical properties :
#
#
# Convention : Reuss Voigt Hill
#
# Bulk Modulus (GPa) = 58.88075 66.62046 62.75060
# Shear Modulus (GPa) = 20.28869 27.67666 23.98267
#
# Velocity S-wave (km/s) = 3.10775 3.62974 3.37884
# Velocity P-wave (km/s) = 6.39583 7.01999 6.71516
#
# Compressibility (1/GPa) = 0.01698348
#
# Stress axis : x y z
#
# Youngs Moduli (GPa) = 52.62790 95.00319 112.82031
#
# Poissons Ratio (x) = 0.32176 0.61041
# Poissons Ratio (y) = 0.17824 0.21509
# Poissons Ratio (z) = 0.28474 0.18112
#
# Static dielectric constant tensor:
#      x y z
#    x 4.137380 0.000000 0.000000 
#    y 0.000000 27.273920 0.000000 
#    z 0.000000 0.000000 4.477920 
# 
# 
# High freq. dielectric constant tensor:
#      x y z
#    x 1.812790 0.000000 0.000000 
#    y 0.000000 1.819010 0.000000 
#    z 0.000000 0.000000 1.847050 
# 
# From -- ./inp_files/12045.got.cif
#   From: 2010.03.12/outbox.cif.g09.slc.cpg/sg62_7_cif.got.tgz:12045.got - 2010.04.10 19:12:36.
