data_PCOD8254835
_publ_section_title
;
Structure prediction by ZEFSAII (Michael W. Deem and Ramdas Pophale) SiO2 
 PCOD8254835
Probable space group: P N M A
;
_chemical_formula_sum "Si O2"
_cell_formula_units_Z 48
_cell_length_a 21.429997
_cell_length_b 17.842992
_cell_length_c 5.505244
_cell_angle_alpha 90.000000
_cell_angle_beta 90.000000
_cell_angle_gamma 90.000000
_cell_volume 2105.069134
_symmetry_space_group_name_H-M "P N M A"
_symmetry_group_IT_number 62
_symmetry_cell_setting 'orthorhombic'
loop_
_space_group_symop_operation_xyz
x,y,z
1/2-x,-y,1/2+z
1/2+x,1/2-y,1/2-z
-x,1/2+y,-z
-x,-y,-z
1/2+x,y,1/2-z
1/2-x,1/2+y,1/2+z
x,1/2-y,z
loop_
_atom_site_type_symbol
_atom_site_label
_atom_site_fract_x
_atom_site_fract_y
_atom_site_fract_z
Si Si1 0.651294 0.063586 0.171196
Si Si2 0.720125 0.169240 0.475451
Si Si3 0.338544 0.111157 0.821992
Si Si4 0.897759 0.668189 0.278273
Si Si5 0.023146 0.082504 0.051431
Si Si6 0.903585 0.162183 0.180721
O O1 0.713918 0.102297 0.280006
O O2 0.588755 0.075160 0.320929
O O3 0.665334 0.977067 0.135325
O O4 0.638726 0.104974 0.922465
O O5 0.742447 0.250000 0.363127
O O6 0.768597 0.144552 0.686188
O O7 0.650087 0.183864 0.562755
O O8 0.371886 0.129266 0.566015
O O9 0.368672 0.145437 0.067436
O O10 0.910900 0.750000 0.406041
O O11 0.963819 0.632894 0.189304
O O12 0.971852 0.125401 0.211730
O O13 0.000000 0.000000 0.000000
O O14 0.910211 0.250000 0.143030
#
# Coordination Sequence:
#
# PCOD8254835 Si02
#       6
#     8   8   8   8   8   8
#     4  11  25  42  73 101 138 183 240 296 358 418
#     4  10  24  45  68 100 140 183 233 290 350 422
#     4  12  28  46  74 106 147 188 239 294 360 427
#     4  10  23  42  68 100 136 182 236 292 357 420
#     4  11  23  45  67  98 140 183 238 298 352 422
#     4  12  27  47  72 106 145 193 240 291 360 432
#
# _framework density 22.802102999999999
#
# number of rings (size 3 to 8) (size 9 to 14) (size 15 to 20)
#    0.000    1.000    1.667    3.500    9.333    3.333 
#    0.000    0.000    0.000    0.000    0.000    0.000 
#    0.000    0.000    0.000    0.000    0.000    0.000 
#
# Total GULP energy -594627.820853 kJ/mol
# GULP energy per Si atom -12388.079601 kJ/mol
# Density = 2.275020 g / cm^3
# Si number density = 22.802103 Si / 1000 Ang^3
#
#
#
# Elastic Constant Matrix: (Units=GPa)
#
#
# Indices 1 2 3 4 5 6 
#
# 1 86.4997 33.4058 11.0971 0.0000 0.0000 0.0000
# 2 33.4058 205.0192 20.2765 0.0000 0.0000 0.0000
# 3 11.0971 20.2765 78.7332 0.0000 0.0000 0.0000
# 4 0.0000 0.0000 0.0000 34.7256 0.0000 0.0000
# 5 0.0000 0.0000 0.0000 0.0000 19.3822 0.0000
# 6 0.0000 0.0000 0.0000 0.0000 0.0000 27.8075
#
#
#
# Elastic Compliance Matrix: (Units=1/GPa)
#
#
# Indices 1 2 3 4 5 6 
#
# 1 0.012459 -0.001905 -0.001265 0.000000 0.000000 0.000000
# 2 -0.001905 0.005296 -0.001095 0.000000 0.000000 0.000000
# 3 -0.001265 -0.001095 0.013162 0.000000 0.000000 0.000000
# 4 0.000000 0.000000 0.000000 0.028797 0.000000 0.000000
# 5 0.000000 0.000000 0.000000 0.000000 0.051594 0.000000
# 6 0.000000 0.000000 0.000000 0.000000 0.000000 0.035962
#
#
# Mechanical properties :
#
#
# Convention : Reuss Voigt Hill
#
# Bulk Modulus (GPa) = 44.67270 55.53456 50.10363
# Shear Modulus (GPa) = 30.62554 36.74791 33.68672
#
# Velocity S-wave (km/s) = 3.66881 4.01883 3.84780
# Velocity P-wave (km/s) = 6.13033 6.77809 6.46233
#
# Compressibility (1/GPa) = 0.02238503
#
# Stress axis : x y z
#
# Youngs Moduli (GPa) = 80.26500 188.81043 75.97859
#
# Poissons Ratio (x) = 0.35966 0.09615
# Poissons Ratio (y) = 0.15289 0.08323
# Poissons Ratio (z) = 0.10157 0.20684
#
# Static dielectric constant tensor:
#      x y z
#    x 4.262660 0.000000 0.000000 
#    y 0.000000 4.971920 0.000000 
#    z 0.000000 0.000000 3.942090 
# 
# 
# High freq. dielectric constant tensor:
#      x y z
#    x 1.908250 0.000000 0.000000 
#    y 0.000000 1.932700 0.000000 
#    z 0.000000 0.000000 1.879440 
# 
# From -- ./inp_files/2737.got.cif
#   From: 2010.03.12/outbox.cif.g09.slc.cpg/sg62_2_cif.got.tgz:2737.got - 2010.04.10 19:12:36.
