data_PCOD8254286
_publ_section_title
;
Structure prediction by ZEFSAII (Michael W. Deem and Ramdas Pophale) SiO2 
 PCOD8254286
Probable space group: P N M A
;
_chemical_formula_sum "Si O2"
_cell_formula_units_Z 56
_cell_length_a 18.686372
_cell_length_b 8.525782
_cell_length_c 17.142374
_cell_angle_alpha 90.000000
_cell_angle_beta 90.000000
_cell_angle_gamma 90.000000
_cell_volume 2731.053326
_symmetry_space_group_name_H-M "P N M A"
_symmetry_group_IT_number 62
_symmetry_cell_setting 'orthorhombic'
loop_
_space_group_symop_operation_xyz
x,y,z
1/2-x,-y,1/2+z
1/2+x,1/2-y,1/2-z
-x,1/2+y,-z
-x,-y,-z
1/2+x,y,1/2-z
1/2-x,1/2+y,1/2+z
x,1/2-y,z
loop_
_atom_site_type_symbol
_atom_site_label
_atom_site_fract_x
_atom_site_fract_y
_atom_site_fract_z
Si Si1 0.648133 0.931123 0.031430
Si Si2 0.303501 0.933233 0.411226
Si Si3 0.905998 0.932965 0.375661
Si Si4 0.280316 0.936030 0.236903
Si Si5 0.943628 0.567487 0.666052
Si Si6 0.374895 0.063066 0.686590
Si Si7 0.922985 0.066418 0.981854
O O1 0.635018 0.750000 0.009893
O O2 0.731982 0.967813 0.039878
O O3 0.609649 0.966727 0.112789
O O4 0.615940 0.041937 0.965129
O O5 0.321225 0.750000 0.409185
O O6 0.294722 0.999982 0.323718
O O7 0.369072 0.022405 0.449642
O O8 0.922296 0.750000 0.362018
O O9 0.842556 0.995590 0.320366
O O10 0.975059 0.034517 0.356735
O O11 0.277513 0.750000 0.237418
O O12 0.204475 0.000296 0.206219
O O13 0.927155 0.750000 0.654862
O O14 0.931603 0.514791 0.754880
O O15 0.380002 0.250000 0.693564
O O16 0.394345 0.001037 0.600578
O O17 0.929718 0.250000 0.976486
O O18 0.000000 0.000000 0.000000
#
# Coordination Sequence:
#
# PCOD8254286 Si02
#       7
#     8   8   8   8   8   8   8
#     4  11  22  41  66  91 125 164 204 251 310 374
#     4  10  21  40  66  92 123 163 208 258 312 371
#     4  11  23  39  63  92 126 162 205 253 305 371
#     4   9  19  39  66  92 119 160 209 254 307 371
#     4  12  25  40  61  93 128 161 204 257 311 366
#     4  10  21  43  67  88 120 166 211 252 312 376
#     4  11  25  42  65  94 130 171 214 263 314 376
#
# _framework density 20.504908
#
# number of rings (size 3 to 8) (size 9 to 14) (size 15 to 20)
#    0.000    1.429    1.429    3.857    2.000    3.429 
#    0.000    2.143    0.000    0.000    0.000    0.000 
#    0.000    0.000    0.000    0.000    0.000    0.000 
#
# Total GULP energy -694754.617335 kJ/mol
# GULP energy per Si atom -12406.332452 kJ/mol
# Density = 2.045824 g / cm^3
# Si number density = 20.504908 Si / 1000 Ang^3
#
#
#
# Elastic Constant Matrix: (Units=GPa)
#
#
# Indices 1 2 3 4 5 6 
#
# 1 133.1228 30.8779 64.3705 0.0000 0.0000 0.0000
# 2 30.8779 41.2309 21.6150 0.0000 0.0000 0.0000
# 3 64.3705 21.6150 139.5788 0.0000 0.0000 0.0000
# 4 0.0000 0.0000 0.0000 29.8941 0.0000 0.0000
# 5 0.0000 0.0000 0.0000 0.0000 34.6377 0.0000
# 6 0.0000 0.0000 0.0000 0.0000 0.0000 30.5528
#
#
#
# Elastic Compliance Matrix: (Units=1/GPa)
#
#
# Indices 1 2 3 4 5 6 
#
# 1 0.010882 -0.006006 -0.004088 0.000000 0.000000 0.000000
# 2 -0.006006 0.029712 -0.001831 0.000000 0.000000 0.000000
# 3 -0.004088 -0.001831 0.009333 0.000000 0.000000 0.000000
# 4 0.000000 0.000000 0.000000 0.033451 0.000000 0.000000
# 5 0.000000 0.000000 0.000000 0.000000 0.028870 0.000000
# 6 0.000000 0.000000 0.000000 0.000000 0.000000 0.032730
#
#
# Mechanical properties :
#
#
# Convention : Reuss Voigt Hill
#
# Bulk Modulus (GPa) = 38.35012 60.85103 49.60057
# Shear Modulus (GPa) = 28.16547 32.15486 30.16016
#
# Velocity S-wave (km/s) = 3.71023 3.96429 3.83936
# Velocity P-wave (km/s) = 6.09080 7.12003 6.62543
#
# Compressibility (1/GPa) = 0.02607554
#
# Stress axis : x y z
#
# Youngs Moduli (GPa) = 91.89575 33.65677 107.14154
#
# Poissons Ratio (x) = 0.20215 0.43803
# Poissons Ratio (y) = 0.55194 0.19620
# Poissons Ratio (z) = 0.37570 0.06163
#
# Static dielectric constant tensor:
#      x y z
#    x 3.818760 0.000000 0.000000 
#    y 0.000000 3.460070 0.000000 
#    z 0.000000 0.000000 3.933830 
# 
# 
# High freq. dielectric constant tensor:
#      x y z
#    x 1.814160 0.000000 0.000000 
#    y 0.000000 1.785150 0.000000 
#    z 0.000000 0.000000 1.815280 
# 
# From -- ./inp_files/20292.got.cif
#   From: 2010.03.12/outbox.cif.g09.slc.cpg/sg62_11_cif.got.tgz:20292.got - 2010.04.10 19:12:36.
