data_PCOD8254892
_publ_section_title
;
Structure prediction by ZEFSAII (Michael W. Deem and Ramdas Pophale) SiO2 
 PCOD8254892
Probable space group: P N M A
;
_chemical_formula_sum "Si O2"
_cell_formula_units_Z 48
_cell_length_a 14.729023
_cell_length_b 8.451693
_cell_length_c 18.571107
_cell_angle_alpha 90.000000
_cell_angle_beta 90.000000
_cell_angle_gamma 90.000000
_cell_volume 2311.827609
_symmetry_space_group_name_H-M "P N M A"
_symmetry_group_IT_number 62
_symmetry_cell_setting 'orthorhombic'
loop_
_space_group_symop_operation_xyz
x,y,z
1/2-x,-y,1/2+z
1/2+x,1/2-y,1/2-z
-x,1/2+y,-z
-x,-y,-z
1/2+x,y,1/2-z
1/2-x,1/2+y,1/2+z
x,1/2-y,z
loop_
_atom_site_type_symbol
_atom_site_label
_atom_site_fract_x
_atom_site_fract_y
_atom_site_fract_z
Si Si1 0.258998 0.064677 0.085069
Si Si2 0.970371 0.065449 0.215522
Si Si3 0.391626 0.433540 0.822583
Si Si4 0.788534 0.933432 0.260942
Si Si5 0.054442 0.063734 0.067150
Si Si6 0.403007 0.934334 0.977461
O O1 0.259846 0.250000 0.103022
O O2 0.158514 0.006375 0.063100
O O3 0.292380 0.971216 0.154840
O O4 0.325475 0.028244 0.019623
O O5 0.991979 0.250000 0.224686
O O6 0.009283 0.998900 0.140373
O O7 0.863108 0.034400 0.217929
O O8 0.015553 0.970142 0.280976
O O9 0.389058 0.250000 0.844635
O O10 0.308841 0.481932 0.770758
O O11 0.386377 0.539881 0.893313
O O12 0.809229 0.750000 0.248599
O O13 0.048064 0.250000 0.065510
O O14 0.000000 0.000000 0.000000
O O15 0.397206 0.750000 0.996188
O O16 0.500000 0.000000 0.000000
#
# Coordination Sequence:
#
# PCOD8254892 Si02
#       6
#     8   8   8   8   8   8
#     4  11  23  44  68  95 131 170 213 264 316 379
#     4  11  23  42  66  95 128 168 212 261 319 380
#     4  11  24  43  66  95 129 166 213 264 316 376
#     4  11  24  41  65  96 127 167 211 261 318 376
#     4  10  24  42  64  93 128 169 214 260 317 378
#     4  12  26  44  67  95 129 169 213 263 321 382
#
# _framework density 20.762794
#
# number of rings (size 3 to 8) (size 9 to 14) (size 15 to 20)
#    0.000    1.000    1.667    4.500    2.333    4.667 
#    0.000    0.000    0.000    0.000    0.000    0.000 
#    0.000    0.000    0.000    0.000    0.000    0.000 
#
# Total GULP energy -595604.536920 kJ/mol
# GULP energy per Si atom -12408.427853 kJ/mol
# Density = 2.071554 g / cm^3
# Si number density = 20.762794 Si / 1000 Ang^3
#
#
#
# Elastic Constant Matrix: (Units=GPa)
#
#
# Indices 1 2 3 4 5 6 
#
# 1 122.8899 28.9778 40.6022 0.0000 0.0000 0.0000
# 2 28.9778 55.7642 18.6216 0.0000 0.0000 0.0000
# 3 40.6022 18.6216 123.2665 0.0000 0.0000 0.0000
# 4 0.0000 0.0000 0.0000 38.3060 0.0000 0.0000
# 5 0.0000 0.0000 0.0000 0.0000 44.7364 0.0000
# 6 0.0000 0.0000 0.0000 0.0000 0.0000 35.1516
#
#
#
# Elastic Compliance Matrix: (Units=1/GPa)
#
#
# Indices 1 2 3 4 5 6 
#
# 1 0.010034 -0.004329 -0.002651 0.000000 0.000000 0.000000
# 2 -0.004329 0.020753 -0.001709 0.000000 0.000000 0.000000
# 3 -0.002651 -0.001709 0.009244 0.000000 0.000000 0.000000
# 4 0.000000 0.000000 0.000000 0.026106 0.000000 0.000000
# 5 0.000000 0.000000 0.000000 0.000000 0.022353 0.000000
# 6 0.000000 0.000000 0.000000 0.000000 0.000000 0.028448
#
#
# Mechanical properties :
#
#
# Convention : Reuss Voigt Hill
#
# Bulk Modulus (GPa) = 44.14531 53.14710 48.64621
# Shear Modulus (GPa) = 35.24426 37.88674 36.56550
#
# Velocity S-wave (km/s) = 4.12451 4.27633 4.20111
# Velocity P-wave (km/s) = 6.63250 7.07358 6.85659
#
# Compressibility (1/GPa) = 0.02265246
#
# Stress axis : x y z
#
# Youngs Moduli (GPa) = 99.66072 48.18604 108.17878
#
# Poissons Ratio (x) = 0.20859 0.28679
# Poissons Ratio (y) = 0.43142 0.18490
# Poissons Ratio (z) = 0.26421 0.08236
#
# Static dielectric constant tensor:
#      x y z
#    x 3.796130 0.000000 0.000000 
#    y 0.000000 3.618510 0.000000 
#    z 0.000000 0.000000 3.705690 
# 
# 
# High freq. dielectric constant tensor:
#      x y z
#    x 1.828630 0.000000 0.000000 
#    y 0.000000 1.815760 0.000000 
#    z 0.000000 0.000000 1.821310 
# 
# From -- ./inp_files/23769.got.cif
#   From: 2010.03.12/outbox.cif.g09.slc.cpg/sg62_12_cif.got.tgz:23769.got - 2010.04.10 19:12:36.
