data_PCOD8254056
_publ_section_title
;
Structure prediction by ZEFSAII (Michael W. Deem and Ramdas Pophale) SiO2 
 PCOD8254056
Probable space group: P N M A
;
_chemical_formula_sum "Si O2"
_cell_formula_units_Z 64
_cell_length_a 11.654221
_cell_length_b 17.146858
_cell_length_c 15.705711
_cell_angle_alpha 90.000000
_cell_angle_beta 90.000000
_cell_angle_gamma 90.000000
_cell_volume 3138.523627
_symmetry_space_group_name_H-M "P N M A"
_symmetry_group_IT_number 62
_symmetry_cell_setting 'orthorhombic'
loop_
_space_group_symop_operation_xyz
x,y,z
1/2-x,-y,1/2+z
1/2+x,1/2-y,1/2-z
-x,1/2+y,-z
-x,-y,-z
1/2+x,y,1/2-z
1/2-x,1/2+y,1/2+z
x,1/2-y,z
loop_
_atom_site_type_symbol
_atom_site_label
_atom_site_fract_x
_atom_site_fract_y
_atom_site_fract_z
Si Si1 0.559409 0.046910 0.880214
Si Si2 0.473284 0.162178 0.357509
Si Si3 0.431561 0.963903 0.742728
Si Si4 0.768598 0.657999 0.453775
Si Si5 0.545279 0.943043 0.426057
Si Si6 0.742666 0.424649 0.111532
Si Si7 0.839588 0.437113 0.514578
Si Si8 0.631163 0.336555 0.523199
O O1 0.650802 0.117849 0.881966
O O2 0.532050 0.015756 0.785908
O O3 0.605533 0.969995 0.928130
O O4 0.442402 0.080712 0.920531
O O5 0.431826 0.250000 0.337924
O O6 0.537047 0.126092 0.275924
O O7 0.368044 0.103121 0.365308
O O8 0.555620 0.159737 0.438027
O O9 0.323754 0.952362 0.804515
O O10 0.405035 0.008352 0.653966
O O11 0.758991 0.750000 0.435744
O O12 0.643283 0.618262 0.454978
O O13 0.818722 0.641194 0.550033
O O14 0.433393 0.889192 0.405339
O O15 0.500000 0.000000 0.500000
O O16 0.750775 0.499839 0.050652
O O17 0.761452 0.361369 0.499797
O O18 0.638944 0.250000 0.560179
#
# Coordination Sequence:
#
# PCOD8254056 Si02
#       8
#     8   8   8   8   8   8   8   8
#     4   9  21  40  62  90 126 165 217 255 319 386
#     4  11  23  37  57  91 130 161 205 262 323 382
#     4  11  24  39  63  92 125 168 216 265 316 386
#     4  11  22  40  67  93 127 169 215 265 329 394
#     4  12  22  40  66  94 122 171 222 268 310 384
#     4  10  21  38  64  89 121 162 207 263 322 384
#     4   9  19  39  63  91 120 163 212 262 305 393
#     4  11  22  38  62  93 124 165 215 262 320 379
#
# _framework density 20.391753000000001
#
# number of rings (size 3 to 8) (size 9 to 14) (size 15 to 20)
#    0.000    1.500    2.500    3.750    1.750    1.500 
#    0.000    3.125    0.000    0.750    0.000    0.000 
#    0.000    0.000    0.000    0.000    0.000    0.000 
#
# Total GULP energy -792859.175037 kJ/mol
# GULP energy per Si atom -12388.424610 kJ/mol
# Density = 2.034534 g / cm^3
# Si number density = 20.391753 Si / 1000 Ang^3
#
#
#
# Elastic Constant Matrix: (Units=GPa)
#
#
# Indices 1 2 3 4 5 6 
#
# 1 90.6758 42.6660 10.6672 0.0000 0.0000 0.0000
# 2 42.6660 111.5986 26.3050 0.0000 0.0000 0.0000
# 3 10.6672 26.3050 84.1194 0.0000 0.0000 0.0000
# 4 0.0000 0.0000 0.0000 23.0831 0.0000 0.0000
# 5 0.0000 0.0000 0.0000 0.0000 17.3745 0.0000
# 6 0.0000 0.0000 0.0000 0.0000 0.0000 27.3607
#
#
#
# Elastic Compliance Matrix: (Units=1/GPa)
#
#
# Indices 1 2 3 4 5 6 
#
# 1 0.013448 -0.005117 -0.000105 0.000000 0.000000 0.000000
# 2 -0.005117 0.011620 -0.002985 0.000000 0.000000 0.000000
# 3 -0.000105 -0.002985 0.012835 0.000000 0.000000 0.000000
# 4 0.000000 0.000000 0.000000 0.043322 0.000000 0.000000
# 5 0.000000 0.000000 0.000000 0.000000 0.057556 0.000000
# 6 0.000000 0.000000 0.000000 0.000000 0.000000 0.036549
#
#
# Mechanical properties :
#
#
# Convention : Reuss Voigt Hill
#
# Bulk Modulus (GPa) = 46.53458 49.51889 48.02673
# Shear Modulus (GPa) = 25.13744 27.34739 26.24241
#
# Velocity S-wave (km/s) = 3.51483 3.66608 3.59125
# Velocity P-wave (km/s) = 6.27231 6.50051 6.38743
#
# Compressibility (1/GPa) = 0.02148939
#
# Stress axis : x y z
#
# Youngs Moduli (GPa) = 74.35915 86.05507 77.91400
#
# Poissons Ratio (x) = 0.44031 0.00821
# Poissons Ratio (y) = 0.38047 0.23257
# Poissons Ratio (z) = 0.00783 0.25687
#
# Static dielectric constant tensor:
#      x y z
#    x 3.805740 0.000000 0.000000 
#    y 0.000000 3.976250 0.000000 
#    z 0.000000 0.000000 3.640720 
# 
# 
# High freq. dielectric constant tensor:
#      x y z
#    x 1.804830 0.000000 0.000000 
#    y 0.000000 1.792820 0.000000 
#    z 0.000000 0.000000 1.774090 
# 
# From -- ./inp_files/18297.got.cif
#   From: 2010.03.12/outbox.cif.g09.slc.cpg/sg62_10_cif.got.tgz:18297.got - 2010.04.10 19:12:36.
