data_PCOD8254843
_publ_section_title
;
Structure prediction by ZEFSAII (Michael W. Deem and Ramdas Pophale) SiO2 
 PCOD8254843
Probable space group: P N M A
;
_chemical_formula_sum "Si O2"
_cell_formula_units_Z 64
_cell_length_a 23.679473
_cell_length_b 8.729002
_cell_length_c 15.390231
_cell_angle_alpha 90.000000
_cell_angle_beta 90.000000
_cell_angle_gamma 90.000000
_cell_volume 3181.132540
_symmetry_space_group_name_H-M "P N M A"
_symmetry_group_IT_number 62
_symmetry_cell_setting 'orthorhombic'
loop_
_space_group_symop_operation_xyz
x,y,z
1/2-x,-y,1/2+z
1/2+x,1/2-y,1/2-z
-x,1/2+y,-z
-x,-y,-z
1/2+x,y,1/2-z
1/2-x,1/2+y,1/2+z
x,1/2-y,z
loop_
_atom_site_type_symbol
_atom_site_label
_atom_site_fract_x
_atom_site_fract_y
_atom_site_fract_z
Si Si1 0.616050 0.429840 0.909444
Si Si2 0.885918 0.569177 0.913748
Si Si3 0.884961 0.428528 0.089509
Si Si4 0.497553 0.431900 0.842866
Si Si5 0.815905 0.928783 0.746245
Si Si6 0.314569 0.073476 0.241637
Si Si7 0.500667 0.931028 0.354254
Si Si8 0.620816 0.569360 0.088693
O O1 0.614938 0.250000 0.923408
O O2 0.552976 0.495242 0.891729
O O3 0.655239 0.467304 0.828211
O O4 0.640900 0.506494 0.995916
O O5 0.880999 0.750000 0.926164
O O6 0.851178 0.513614 0.829479
O O7 0.950958 0.519287 0.906541
O O8 0.859163 0.484955 0.997757
O O9 0.900661 0.250000 0.086179
O O10 0.838651 0.463185 0.163024
O O11 0.940668 0.527849 0.105592
O O12 0.498496 0.250000 0.841974
O O13 0.497831 0.491973 0.744386
O O14 0.441748 0.496245 0.890041
O O15 0.825624 0.750000 0.729839
O O16 0.750916 0.968780 0.761114
O O17 0.835391 0.018339 0.661383
O O18 0.324982 0.250000 0.216710
O O19 0.511134 0.750000 0.361101
O O20 0.619839 0.750000 0.085419
#
# Coordination Sequence:
#
# PCOD8254843 Si02
#       8
#     8   8   8   8   8   8   8   8
#     4  11  22  39  62  91 123 158 198 241 296 353
#     4  11  23  39  61  89 120 156 197 242 297 354
#     4  11  23  39  61  89 120 156 197 242 297 354
#     4   9  19  35  59  89 121 155 191 238 292 353
#     4  10  23  43  63  86 118 156 202 252 297 347
#     4  10  23  43  63  86 118 156 202 252 297 347
#     4  11  20  37  62  89 122 154 194 241 294 357
#     4  11  22  39  62  91 123 158 198 241 296 353
#
# _framework density 20.118621999999998
#
# number of rings (size 3 to 8) (size 9 to 14) (size 15 to 20)
#    0.000    1.500    2.500    2.625    0.000    2.500 
#    0.000    4.375    0.000    0.000    0.000    0.000 
#    0.000    0.000    0.000    0.000    0.000    0.000 
#
# Total GULP energy -793946.937893 kJ/mol
# GULP energy per Si atom -12405.420905 kJ/mol
# Density = 2.007283 g / cm^3
# Si number density = 20.118622 Si / 1000 Ang^3
#
#
#
# Elastic Constant Matrix: (Units=GPa)
#
#
# Indices 1 2 3 4 5 6 
#
# 1 83.6395 21.3661 13.6145 0.0000 0.0000 0.0000
# 2 21.3661 53.5832 31.8908 0.0000 0.0000 0.0000
# 3 13.6145 31.8908 117.9425 0.0000 0.0000 0.0000
# 4 0.0000 0.0000 0.0000 34.7000 0.0000 0.0000
# 5 0.0000 0.0000 0.0000 0.0000 12.6420 0.0000
# 6 0.0000 0.0000 0.0000 0.0000 0.0000 20.6640
#
#
#
# Elastic Compliance Matrix: (Units=1/GPa)
#
#
# Indices 1 2 3 4 5 6 
#
# 1 0.013314 -0.005237 -0.000121 0.000000 0.000000 0.000000
# 2 -0.005237 0.024302 -0.005967 0.000000 0.000000 0.000000
# 3 -0.000121 -0.005967 0.010106 0.000000 0.000000 0.000000
# 4 0.000000 0.000000 0.000000 0.028818 0.000000 0.000000
# 5 0.000000 0.000000 0.000000 0.000000 0.079101 0.000000
# 6 0.000000 0.000000 0.000000 0.000000 0.000000 0.048393
#
#
# Mechanical properties :
#
#
# Convention : Reuss Voigt Hill
#
# Bulk Modulus (GPa) = 39.88365 43.21202 41.54784
# Shear Modulus (GPa) = 21.27295 26.15413 23.71354
#
# Velocity S-wave (km/s) = 3.25526 3.60946 3.43692
# Velocity P-wave (km/s) = 5.83063 6.23668 6.03707
#
# Compressibility (1/GPa) = 0.02507293
#
# Stress axis : x y z
#
# Youngs Moduli (GPa) = 75.11172 41.14928 98.95147
#
# Poissons Ratio (x) = 0.21549 0.01196
# Poissons Ratio (y) = 0.39334 0.59040
# Poissons Ratio (z) = 0.00908 0.24552
#
# Static dielectric constant tensor:
#      x y z
#    x 3.639170 0.000000 0.000000 
#    y 0.000000 3.479500 0.000000 
#    z 0.000000 0.000000 3.858280 
# 
# 
# High freq. dielectric constant tensor:
#      x y z
#    x 1.779150 0.000000 0.000000 
#    y 0.000000 1.777380 0.000000 
#    z 0.000000 0.000000 1.802940 
# 
# From -- ./inp_files/20899.got.cif
#   From: 2010.03.12/outbox.cif.g09.slc.cpg/sg62_11_cif.got.tgz:20899.got - 2010.04.10 19:12:36.
