data_PCOD8254597
_publ_section_title
;
Structure prediction by ZEFSAII (Michael W. Deem and Ramdas Pophale) SiO2 
 PCOD8254597
Probable space group: P N M A
;
_chemical_formula_sum "Si O2"
_cell_formula_units_Z 40
_cell_length_a 14.022243
_cell_length_b 9.990885
_cell_length_c 13.598124
_cell_angle_alpha 90.000000
_cell_angle_beta 90.000000
_cell_angle_gamma 90.000000
_cell_volume 1905.023977
_symmetry_space_group_name_H-M "P N M A"
_symmetry_group_IT_number 62
_symmetry_cell_setting 'orthorhombic'
loop_
_space_group_symop_operation_xyz
x,y,z
1/2-x,-y,1/2+z
1/2+x,1/2-y,1/2-z
-x,1/2+y,-z
-x,-y,-z
1/2+x,y,1/2-z
1/2-x,1/2+y,1/2+z
x,1/2-y,z
loop_
_atom_site_type_symbol
_atom_site_label
_atom_site_fract_x
_atom_site_fract_y
_atom_site_fract_z
Si Si1 0.558178 0.750000 0.119525
Si Si2 0.042733 0.250000 0.311457
Si Si3 0.156731 0.750000 0.587740
Si Si4 0.225310 0.503423 0.064435
Si Si5 0.067221 0.403939 0.938837
Si Si6 0.565841 0.967832 0.278791
Si Si7 0.358204 0.750000 0.017591
O O1 0.582908 0.882897 0.180697
O O2 0.447903 0.750000 0.089984
O O3 0.625864 0.750000 0.025706
O O4 0.065267 0.376405 0.244273
O O5 0.110173 0.250000 0.405358
O O6 0.932885 0.250000 0.340750
O O7 0.217356 0.618675 0.612961
O O8 0.149796 0.560913 0.143145
O O9 0.297747 0.618514 0.036252
O O10 0.174622 0.451215 0.963655
O O11 0.054467 0.250000 0.971605
O O12 0.036621 0.422160 0.824912
O O13 0.000000 0.500000 0.000000
#
# Coordination Sequence:
#
# PCOD8254597 Si02
#       7
#     4   4   4   8   8   8   4
#     4  11  23  45  68  89 132 179 218 263 333 392
#     4  11  25  45  64  93 134 179 216 263 333 394
#     4  11  23  45  66  89 134 181 210 269 331 394
#     4  11  23  43  67  98 133 165 219 277 325 386
#     4  10  22  40  68  96 133 173 203 264 338 381
#     4  11  23  43  67  98 132 165 219 278 324 387
#     4  11  25  45  66  93 132 179 222 257 333 396
#
# _framework density 20.997109999999999
#
# number of rings (size 3 to 8) (size 9 to 14) (size 15 to 20)
#    0.000    1.200    2.000    3.600    8.400    3.200 
#   21.600    0.000    0.000    0.000    0.000    0.000 
#    0.000    0.000    0.000    0.000    0.000    0.000 
#
# Total GULP energy -496084.252522 kJ/mol
# GULP energy per Si atom -12402.106313 kJ/mol
# Density = 2.094932 g / cm^3
# Si number density = 20.997110 Si / 1000 Ang^3
#
#
#
# Elastic Constant Matrix: (Units=GPa)
#
#
# Indices 1 2 3 4 5 6 
#
# 1 104.5071 35.4779 27.1614 0.0000 0.0000 0.0000
# 2 35.4779 148.9301 11.2417 0.0000 0.0000 0.0000
# 3 27.1614 11.2417 65.7495 0.0000 0.0000 0.0000
# 4 0.0000 0.0000 0.0000 46.2807 0.0000 0.0000
# 5 0.0000 0.0000 0.0000 0.0000 17.7332 0.0000
# 6 0.0000 0.0000 0.0000 0.0000 0.0000 42.2973
#
#
#
# Elastic Compliance Matrix: (Units=1/GPa)
#
#
# Indices 1 2 3 4 5 6 
#
# 1 0.011518 -0.002416 -0.004345 0.000000 0.000000 0.000000
# 2 -0.002416 0.007309 -0.000252 0.000000 0.000000 0.000000
# 3 -0.004345 -0.000252 0.017047 0.000000 0.000000 0.000000
# 4 0.000000 0.000000 0.000000 0.021607 0.000000 0.000000
# 5 0.000000 0.000000 0.000000 0.000000 0.056391 0.000000
# 6 0.000000 0.000000 0.000000 0.000000 0.000000 0.023642
#
#
# Mechanical properties :
#
#
# Convention : Reuss Voigt Hill
#
# Bulk Modulus (GPa) = 45.76845 51.88321 48.82583
# Shear Modulus (GPa) = 31.48147 37.61597 34.54872
#
# Velocity S-wave (km/s) = 3.87631 4.23718 4.06076
# Velocity P-wave (km/s) = 6.47141 6.97866 6.72982
#
# Compressibility (1/GPa) = 0.02184911
#
# Stress axis : x y z
#
# Youngs Moduli (GPa) = 86.81940 136.81654 58.66041
#
# Poissons Ratio (x) = 0.33053 0.25489
# Poissons Ratio (y) = 0.20974 0.01476
# Poissons Ratio (z) = 0.37724 0.03444
#
# Static dielectric constant tensor:
#      x y z
#    x 4.097440 0.000000 0.000000 
#    y 0.000000 3.754200 0.000000 
#    z 0.000000 0.000000 3.966000 
# 
# 
# High freq. dielectric constant tensor:
#      x y z
#    x 1.828290 0.000000 0.000000 
#    y 0.000000 1.843070 0.000000 
#    z 0.000000 0.000000 1.817330 
# 
# From -- ./inp_files/18677.got.cif
#   From: 2010.03.12/outbox.cif.g09.slc.cpg/sg62_10_cif.got.tgz:18677.got - 2010.04.10 19:12:36.
