data_PCOD8254744
_publ_section_title
;
Structure prediction by ZEFSAII (Michael W. Deem and Ramdas Pophale) SiO2 
 PCOD8254744
Probable space group: P N M A
;
_chemical_formula_sum "Si O2"
_cell_formula_units_Z 64
_cell_length_a 14.853361
_cell_length_b 23.693282
_cell_length_c 8.725634
_cell_angle_alpha 90.000000
_cell_angle_beta 90.000000
_cell_angle_gamma 90.000000
_cell_volume 3070.767618
_symmetry_space_group_name_H-M "P N M A"
_symmetry_group_IT_number 62
_symmetry_cell_setting 'orthorhombic'
loop_
_space_group_symop_operation_xyz
x,y,z
1/2-x,-y,1/2+z
1/2+x,1/2-y,1/2-z
-x,1/2+y,-z
-x,-y,-z
1/2+x,y,1/2-z
1/2-x,1/2+y,1/2+z
x,1/2-y,z
loop_
_atom_site_type_symbol
_atom_site_label
_atom_site_fract_x
_atom_site_fract_y
_atom_site_fract_z
Si Si1 0.071950 0.390064 0.575623
Si Si2 0.133711 0.485700 0.051492
Si Si3 0.904759 0.184532 0.046393
Si Si4 0.970134 0.998909 0.248328
Si Si5 0.918178 0.381536 0.354690
Si Si6 0.252349 0.611763 0.451244
Si Si7 0.225948 0.599761 0.099930
Si Si8 0.585128 0.315225 0.630461
O O1 0.032745 0.451984 0.618870
O O2 0.175744 0.393729 0.524310
O O3 0.060366 0.347077 0.714404
O O4 0.014358 0.367700 0.432140
O O5 0.178025 0.546318 0.024803
O O6 0.073131 0.484658 0.205831
O O7 0.073710 0.470909 0.902706
O O8 0.209430 0.437693 0.060940
O O9 0.879398 0.250000 0.048432
O O10 0.899512 0.160214 0.215952
O O11 0.832680 0.155131 0.934389
O O12 0.005286 0.173550 0.988258
O O13 0.914969 0.053634 0.300387
O O14 0.841242 0.368108 0.478463
O O15 0.235414 0.588667 0.280613
O O16 0.322486 0.663386 0.445721
O O17 0.596685 0.250000 0.670918
#
# Coordination Sequence:
#
# PCOD8254744 Si02
#       8
#     8   8   8   8   8   8   8   8
#     4  11  24  43  63  98 127 166 212 262 314 378
#     4  11  21  37  65  93 125 169 206 249 305 372
#     4  11  25  44  65  90 123 167 213 264 326 382
#     4  11  21  39  63  92 133 165 201 251 311 375
#     4  12  25  41  63  96 132 166 206 264 319 374
#     4  11  24  39  65  97 128 165 213 261 312 382
#     4  11  23  41  65  92 129 168 211 257 312 384
#     4  10  22  44  68  88 119 165 214 263 317 376
#
# _framework density 20.841694
#
# number of rings (size 3 to 8) (size 9 to 14) (size 15 to 20)
#    0.000    1.000    3.750    4.125    0.000    6.000 
#    0.000    1.250    0.000    0.000    0.000    0.000 
#    0.000    0.000    0.000    0.000    0.000    0.000 
#
# Total GULP energy -794020.227861 kJ/mol
# GULP energy per Si atom -12406.566060 kJ/mol
# Density = 2.079426 g / cm^3
# Si number density = 20.841694 Si / 1000 Ang^3
#
#
#
# Elastic Constant Matrix: (Units=GPa)
#
#
# Indices 1 2 3 4 5 6 
#
# 1 111.7975 37.6941 33.6024 0.0000 0.0000 0.0000
# 2 37.6941 111.0678 22.5778 0.0000 0.0000 0.0000
# 3 33.6024 22.5778 44.2522 0.0000 0.0000 0.0000
# 4 0.0000 0.0000 0.0000 18.4225 0.0000 0.0000
# 5 0.0000 0.0000 0.0000 0.0000 37.2533 0.0000
# 6 0.0000 0.0000 0.0000 0.0000 0.0000 26.1572
#
#
#
# Elastic Compliance Matrix: (Units=1/GPa)
#
#
# Indices 1 2 3 4 5 6 
#
# 1 0.012189 -0.002516 -0.007972 0.000000 0.000000 0.000000
# 2 -0.002516 0.010565 -0.003480 0.000000 0.000000 0.000000
# 3 -0.007972 -0.003480 0.030427 0.000000 0.000000 0.000000
# 4 0.000000 0.000000 0.000000 0.054281 0.000000 0.000000
# 5 0.000000 0.000000 0.000000 0.000000 0.026843 0.000000
# 6 0.000000 0.000000 0.000000 0.000000 0.000000 0.038230
#
#
# Mechanical properties :
#
#
# Convention : Reuss Voigt Hill
#
# Bulk Modulus (GPa) = 39.61182 50.54067 45.07625
# Shear Modulus (GPa) = 23.93649 27.91614 25.92631
#
# Velocity S-wave (km/s) = 3.39262 3.66380 3.53081
# Velocity P-wave (km/s) = 5.86462 6.49618 6.18846
#
# Compressibility (1/GPa) = 0.02524499
#
# Stress axis : x y z
#
# Youngs Moduli (GPa) = 82.03966 94.65405 32.86608
#
# Poissons Ratio (x) = 0.23817 0.26201
# Poissons Ratio (y) = 0.20643 0.11436
# Poissons Ratio (z) = 0.65402 0.32935
#
# Static dielectric constant tensor:
#      x y z
#    x 3.950920 0.000000 0.000000 
#    y 0.000000 3.648690 0.000000 
#    z 0.000000 0.000000 3.667370 
# 
# 
# High freq. dielectric constant tensor:
#      x y z
#    x 1.830000 0.000000 0.000000 
#    y 0.000000 1.808030 0.000000 
#    z 0.000000 0.000000 1.812230 
# 
# From -- ./inp_files/6971.got.cif
#   From: 2010.03.12/outbox.cif.g09.slc.cpg/sg62_4_cif.got.tgz:6971.got - 2010.04.10 19:12:36.
