data_PCOD8254283
_publ_section_title
;
Structure prediction by ZEFSAII (Michael W. Deem and Ramdas Pophale) SiO2 
 PCOD8254283
Probable space group: P N M A
;
_chemical_formula_sum "Si O2"
_cell_formula_units_Z 48
_cell_length_a 9.497232
_cell_length_b 20.582229
_cell_length_c 9.248375
_cell_angle_alpha 90.000000
_cell_angle_beta 90.000000
_cell_angle_gamma 90.000000
_cell_volume 1807.818740
_symmetry_space_group_name_H-M "P N M A"
_symmetry_group_IT_number 62
_symmetry_cell_setting 'orthorhombic'
loop_
_space_group_symop_operation_xyz
x,y,z
1/2-x,-y,1/2+z
1/2+x,1/2-y,1/2-z
-x,1/2+y,-z
-x,-y,-z
1/2+x,y,1/2-z
1/2-x,1/2+y,1/2+z
x,1/2-y,z
loop_
_atom_site_type_symbol
_atom_site_label
_atom_site_fract_x
_atom_site_fract_y
_atom_site_fract_z
Si Si1 0.027000 0.126861 0.593611
Si Si2 0.111264 0.037777 0.097534
Si Si3 0.024223 0.250000 0.414936
Si Si4 0.160977 0.021564 0.424920
Si Si5 0.215213 0.674501 0.229005
Si Si6 0.888354 0.135937 0.069974
Si Si7 0.222218 0.750000 0.745427
O O1 0.082881 0.185778 0.492387
O O2 0.028740 0.054986 0.516776
O O3 0.141811 0.131542 0.722328
O O4 0.869432 0.140750 0.641302
O O5 0.119611 0.004420 0.258891
O O6 0.047882 0.110712 0.106825
O O7 0.264520 0.036109 0.018535
O O8 0.000000 0.000000 0.000000
O O9 0.108938 0.250000 0.259229
O O10 0.852626 0.250000 0.412408
O O11 0.275577 0.078495 0.420702
O O12 0.245951 0.750000 0.262671
O O13 0.117393 0.668623 0.087294
O O14 0.851026 0.186519 0.191584
#
# Coordination Sequence:
#
# PCOD8254283 Si02
#       7
#     8   8   4   8   8   8   4
#     4  11  22  41  66  95 141 178 234 295 350 425
#     4  10  23  44  69  97 135 178 236 290 351 415
#     4  12  22  41  61  93 137 182 227 298 356 432
#     4  10  22  43  70  93 135 182 231 294 351 411
#     4  11  19  39  66  97 138 183 225 281 357 422
#     4  10  21  40  65  95 137 178 222 287 347 420
#     4  12  22  41  69  95 139 180 227 286 368 422
#
# _framework density 26.551335000000002
#
# number of rings (size 3 to 8) (size 9 to 14) (size 15 to 20)
#    0.000    1.333    5.833    1.000    2.333    0.000 
#    3.000    6.667    0.000    0.000    0.000    0.000 
#    0.000    0.000    0.000    0.000    0.000    0.000 
#
# Total GULP energy -594859.958900 kJ/mol
# GULP energy per Si atom -12392.915810 kJ/mol
# Density = 2.649090 g / cm^3
# Si number density = 26.551335 Si / 1000 Ang^3
#
#
#
# Elastic Constant Matrix: (Units=GPa)
#
#
# Indices 1 2 3 4 5 6 
#
# 1 89.9635 -10.6838 25.9622 0.0000 0.0000 0.0000
# 2 -10.6838 43.8439 0.7662 0.0000 0.0000 0.0000
# 3 25.9622 0.7662 98.9722 0.0000 0.0000 0.0000
# 4 0.0000 0.0000 0.0000 31.9403 0.0000 0.0000
# 5 0.0000 0.0000 0.0000 0.0000 57.4404 0.0000
# 6 0.0000 0.0000 0.0000 0.0000 0.0000 50.8319
#
#
#
# Elastic Compliance Matrix: (Units=1/GPa)
#
#
# Indices 1 2 3 4 5 6 
#
# 1 0.012430 0.003086 -0.003285 0.000000 0.000000 0.000000
# 2 0.003086 0.023578 -0.000992 0.000000 0.000000 0.000000
# 3 -0.003285 -0.000992 0.010973 0.000000 0.000000 0.000000
# 4 0.000000 0.000000 0.000000 0.031308 0.000000 0.000000
# 5 0.000000 0.000000 0.000000 0.000000 0.017409 0.000000
# 6 0.000000 0.000000 0.000000 0.000000 0.000000 0.019673
#
#
# Mechanical properties :
#
#
# Convention : Reuss Voigt Hill
#
# Bulk Modulus (GPa) = 22.42149 29.42987 25.92568
# Shear Modulus (GPa) = 37.70215 42.49153 40.09684
#
# Velocity S-wave (km/s) = 3.77234 4.00478 3.89030
# Velocity P-wave (km/s) = 5.23803 5.70023 5.47401
#
# Compressibility (1/GPa) = 0.04460007
#
# Stress axis : x y z
#
# Youngs Moduli (GPa) = 80.45051 42.41317 91.13186
#
# Poissons Ratio (x) = -0.13090 0.29932
# Poissons Ratio (y) = -0.24830 0.09041
# Poissons Ratio (z) = 0.26424 0.04208
#
# Static dielectric constant tensor:
#      x y z
#    x 5.154610 0.000000 0.000000 
#    y 0.000000 4.852910 0.000000 
#    z 0.000000 0.000000 4.795550 
# 
# 
# High freq. dielectric constant tensor:
#      x y z
#    x 2.080460 0.000000 0.000000 
#    y 0.000000 2.077210 0.000000 
#    z 0.000000 0.000000 2.047460 
# 
# From -- ./inp_files/5353.got.cif
#   From: 2010.03.12/outbox.cif.g09.slc.cpg/sg62_3_cif.got.tgz:5353.got - 2010.04.10 19:12:36.
