data_PCOD8254918
_publ_section_title
;
Structure prediction by ZEFSAII (Michael W. Deem and Ramdas Pophale) SiO2 
 PCOD8254918
Probable space group: P N M A
;
_chemical_formula_sum "Si O2"
_cell_formula_units_Z 32
_cell_length_a 10.247710
_cell_length_b 22.411513
_cell_length_c 4.888854
_cell_angle_alpha 90.000000
_cell_angle_beta 90.000000
_cell_angle_gamma 90.000000
_cell_volume 1122.806896
_symmetry_space_group_name_H-M "P N M A"
_symmetry_group_IT_number 62
_symmetry_cell_setting 'orthorhombic'
loop_
_space_group_symop_operation_xyz
x,y,z
1/2-x,-y,1/2+z
1/2+x,1/2-y,1/2-z
-x,1/2+y,-z
-x,-y,-z
1/2+x,y,1/2-z
1/2-x,1/2+y,1/2+z
x,1/2-y,z
loop_
_atom_site_type_symbol
_atom_site_label
_atom_site_fract_x
_atom_site_fract_y
_atom_site_fract_z
Si Si1 0.360158 0.250000 0.663497
Si Si2 0.372749 0.750000 0.549334
Si Si3 0.799383 0.849718 0.586502
Si Si4 0.380667 0.054973 0.201825
Si Si5 0.448881 0.572468 0.303221
O O1 0.518243 0.250000 0.694561
O O2 0.324323 0.309785 0.497955
O O3 0.277008 0.250000 0.942252
O O4 0.395414 0.690927 0.731953
O O5 0.752525 0.907478 0.761210
O O6 0.871999 0.869823 0.307454
O O7 0.497225 0.082680 0.390714
O O8 0.355557 0.986278 0.291406
O O9 0.424796 0.060038 0.888320
#
# Coordination Sequence:
#
# PCOD8254918 Si02
#       5
#     4   4   8   8   8
#     4  11  28  48  79 108 158 206 280 336 412 485
#     4  11  28  52  75 122 154 226 272 354 412 497
#     4  11  26  46  78 108 159 210 273 336 416 492
#     4  10  24  44  72 111 156 201 259 324 399 488
#     4  10  24  44  71 110 154 201 257 325 401 481
#
# _framework density 28.500001000000001
#
# number of rings (size 3 to 8) (size 9 to 14) (size 15 to 20)
#    0.000    1.500    0.000    1.500   10.500   10.000 
#    0.000    0.000    0.000    0.000    0.000    0.000 
#    0.000    0.000    0.000    0.000    0.000    0.000 
#
# Total GULP energy -396958.379354 kJ/mol
# GULP energy per Si atom -12404.949355 kJ/mol
# Density = 2.843513 g / cm^3
# Si number density = 28.500001 Si / 1000 Ang^3
#
#
#
# Elastic Constant Matrix: (Units=GPa)
#
#
# Indices 1 2 3 4 5 6 
#
# 1 99.6419 40.0544 13.9094 0.0000 0.0000 0.0000
# 2 40.0544 147.7945 19.5458 0.0000 0.0000 0.0000
# 3 13.9094 19.5458 85.0969 0.0000 0.0000 0.0000
# 4 0.0000 0.0000 0.0000 50.9867 0.0000 0.0000
# 5 0.0000 0.0000 0.0000 0.0000 33.4739 0.0000
# 6 0.0000 0.0000 0.0000 0.0000 0.0000 21.9418
#
#
#
# Elastic Compliance Matrix: (Units=1/GPa)
#
#
# Indices 1 2 3 4 5 6 
#
# 1 0.011378 -0.002927 -0.001188 0.000000 0.000000 0.000000
# 2 -0.002927 0.007731 -0.001297 0.000000 0.000000 0.000000
# 3 -0.001188 -0.001297 0.012243 0.000000 0.000000 0.000000
# 4 0.000000 0.000000 0.000000 0.019613 0.000000 0.000000
# 5 0.000000 0.000000 0.000000 0.000000 0.029874 0.000000
# 6 0.000000 0.000000 0.000000 0.000000 0.000000 0.045575
#
#
# Mechanical properties :
#
#
# Convention : Reuss Voigt Hill
#
# Bulk Modulus (GPa) = 48.71062 53.28363 50.99713
# Shear Modulus (GPa) = 34.70279 38.54873 36.62576
#
# Velocity S-wave (km/s) = 3.49326 3.68174 3.58874
# Velocity P-wave (km/s) = 5.77919 6.06714 5.92492
#
# Compressibility (1/GPa) = 0.02052940
#
# Stress axis : x y z
#
# Youngs Moduli (GPa) = 87.88771 129.35159 81.67658
#
# Poissons Ratio (x) = 0.37856 0.09700
# Poissons Ratio (y) = 0.25721 0.10596
# Poissons Ratio (z) = 0.10438 0.16781
#
# Static dielectric constant tensor:
#      x y z
#    x 4.572840 0.000000 0.000000 
#    y 0.000000 5.465440 0.000000 
#    z 0.000000 0.000000 5.027030 
# 
# 
# High freq. dielectric constant tensor:
#      x y z
#    x 2.134490 0.000000 0.000000 
#    y 0.000000 2.177060 0.000000 
#    z 0.000000 0.000000 2.153480 
# 
# From -- ./inp_files/474.got.cif
#   From: 2010.03.12/outbox.cif.g09.slc.cpg/sg62_1_cif.got.tgz:474.got - 2010.04.10 19:12:36.
