data_PCOD8254043
_publ_section_title
;
Structure prediction by ZEFSAII (Michael W. Deem and Ramdas Pophale) SiO2 
 PCOD8254043
Probable space group: P N M A
;
_chemical_formula_sum "Si O2"
_cell_formula_units_Z 56
_cell_length_a 14.615806
_cell_length_b 8.910704
_cell_length_c 20.892528
_cell_angle_alpha 90.000000
_cell_angle_beta 90.000000
_cell_angle_gamma 90.000000
_cell_volume 2720.982697
_symmetry_space_group_name_H-M "P N M A"
_symmetry_group_IT_number 62
_symmetry_cell_setting 'orthorhombic'
loop_
_space_group_symop_operation_xyz
x,y,z
1/2-x,-y,1/2+z
1/2+x,1/2-y,1/2-z
-x,1/2+y,-z
-x,-y,-z
1/2+x,y,1/2-z
1/2-x,1/2+y,1/2+z
x,1/2-y,z
loop_
_atom_site_type_symbol
_atom_site_label
_atom_site_fract_x
_atom_site_fract_y
_atom_site_fract_z
Si Si1 0.016722 0.427011 0.734630
Si Si2 0.942920 0.078057 0.144338
Si Si3 0.319228 0.572385 0.762454
Si Si4 0.564603 0.926378 0.448643
Si Si5 0.747499 0.079276 0.097687
Si Si6 0.749332 0.578140 0.973042
Si Si7 0.335630 0.422285 0.162094
O O1 0.009717 0.250000 0.734798
O O2 0.082403 0.490625 0.790814
O O3 0.070957 0.482997 0.671777
O O4 0.916618 0.494305 0.745050
O O5 0.966100 0.250000 0.160008
O O6 0.858249 0.067369 0.095024
O O7 0.033882 0.997288 0.118546
O O8 0.332066 0.750000 0.758234
O O9 0.283266 0.523426 0.832483
O O10 0.249846 0.519105 0.705818
O O11 0.549837 0.750000 0.448544
O O12 0.500000 0.000000 0.500000
O O13 0.668915 0.964729 0.459912
O O14 0.715652 0.250000 0.085987
O O15 0.705337 0.975288 0.041022
O O16 0.782886 0.750000 0.979427
O O17 0.681062 0.560693 0.913745
O O18 0.354359 0.250000 0.180612
#
# Coordination Sequence:
#
# PCOD8254043 Si02
#       7
#     8   8   8   8   8   8   8
#     4  12  25  39  62  96 127 159 202 263 319 367
#     4  11  21  38  61  86 119 161 204 250 306 371
#     4  10  21  42  68  90 119 165 216 259 307 372
#     4  12  23  35  54  85 123 161 202 246 303 371
#     4  10  21  38  63  89 118 161 206 254 307 363
#     4  11  23  38  61  90 125 166 205 257 315 370
#     4  10  22  43  66  90 122 167 213 253 309 374
#
# _framework density 20.5808
#
# number of rings (size 3 to 8) (size 9 to 14) (size 15 to 20)
#    0.000    1.143    2.857    4.286    0.000    4.000 
#    0.000    0.714    0.000    0.000    0.000    0.000 
#    0.000    0.000    0.000    0.000    0.000    0.000 
#
# Total GULP energy -694323.054257 kJ/mol
# GULP energy per Si atom -12398.625969 kJ/mol
# Density = 2.053396 g / cm^3
# Si number density = 20.580800 Si / 1000 Ang^3
#
#
#
# Elastic Constant Matrix: (Units=GPa)
#
#
# Indices 1 2 3 4 5 6 
#
# 1 54.2801 27.6447 11.1181 0.0000 0.0000 0.0000
# 2 27.6447 84.4220 41.6512 0.0000 0.0000 0.0000
# 3 11.1181 41.6512 113.7458 0.0000 0.0000 0.0000
# 4 0.0000 0.0000 0.0000 37.0252 0.0000 0.0000
# 5 0.0000 0.0000 0.0000 0.0000 25.9072 0.0000
# 6 0.0000 0.0000 0.0000 0.0000 0.0000 27.3912
#
#
#
# Elastic Compliance Matrix: (Units=1/GPa)
#
#
# Indices 1 2 3 4 5 6 
#
# 1 0.022144 -0.007547 0.000599 0.000000 0.000000 0.000000
# 2 -0.007547 0.017029 -0.005498 0.000000 0.000000 0.000000
# 3 0.000599 -0.005498 0.010746 0.000000 0.000000 0.000000
# 4 0.000000 0.000000 0.000000 0.027009 0.000000 0.000000
# 5 0.000000 0.000000 0.000000 0.000000 0.038599 0.000000
# 6 0.000000 0.000000 0.000000 0.000000 0.000000 0.036508
#
#
# Mechanical properties :
#
#
# Convention : Reuss Voigt Hill
#
# Bulk Modulus (GPa) = 39.95586 45.91956 42.93771
# Shear Modulus (GPa) = 26.98780 29.53367 28.26073
#
# Velocity S-wave (km/s) = 3.62513 3.79226 3.70964
# Velocity P-wave (km/s) = 6.08098 6.44479 6.26553
#
# Compressibility (1/GPa) = 0.02502762
#
# Stress axis : x y z
#
# Youngs Moduli (GPa) = 45.15942 58.72328 93.05589
#
# Poissons Ratio (x) = 0.44317 -0.05574
# Poissons Ratio (y) = 0.34080 0.51162
# Poissons Ratio (z) = -0.02705 0.32286
#
# Static dielectric constant tensor:
#      x y z
#    x 3.584790 0.000000 0.000000 
#    y 0.000000 3.899810 0.000000 
#    z 0.000000 0.000000 4.057770 
# 
# 
# High freq. dielectric constant tensor:
#      x y z
#    x 1.781520 0.000000 0.000000 
#    y 0.000000 1.800350 0.000000 
#    z 0.000000 0.000000 1.819370 
# 
# From -- ./inp_files/27253.got.cif
#   From: 2010.03.12/outbox.cif.g09.slc.cpg/sg62_14_cif.got.tgz:27253.got - 2010.04.10 19:12:36.
