data_PCOD8254613
_publ_section_title
;
Structure prediction by ZEFSAII (Michael W. Deem and Ramdas Pophale) SiO2 
 PCOD8254613
Probable space group: P N M A
;
_chemical_formula_sum "Si O2"
_cell_formula_units_Z 64
_cell_length_a 27.804554
_cell_length_b 17.435625
_cell_length_c 6.692278
_cell_angle_alpha 90.000000
_cell_angle_beta 90.000000
_cell_angle_gamma 90.000000
_cell_volume 3244.347958
_symmetry_space_group_name_H-M "P N M A"
_symmetry_group_IT_number 62
_symmetry_cell_setting 'orthorhombic'
loop_
_space_group_symop_operation_xyz
x,y,z
1/2-x,-y,1/2+z
1/2+x,1/2-y,1/2-z
-x,1/2+y,-z
-x,-y,-z
1/2+x,y,1/2-z
1/2-x,1/2+y,1/2+z
x,1/2-y,z
loop_
_atom_site_type_symbol
_atom_site_label
_atom_site_fract_x
_atom_site_fract_y
_atom_site_fract_z
Si Si1 0.840992 0.836662 0.924097
Si Si2 0.915140 0.907986 0.204888
Si Si3 0.482691 0.339363 0.754646
Si Si4 0.662359 0.432210 0.031309
Si Si5 0.231868 0.338952 0.742355
Si Si6 0.591424 0.663716 0.913969
Si Si7 0.834646 0.405757 0.697911
Si Si8 0.586742 0.931611 0.522374
O O1 0.841648 0.750000 0.844012
O O2 0.848742 0.892712 0.740879
O O3 0.884239 0.846987 0.080512
O O4 0.790920 0.854787 0.038978
O O5 0.886246 0.933649 0.401967
O O6 0.962758 0.865532 0.277865
O O7 0.927668 0.980715 0.065918
O O8 0.478958 0.250000 0.694804
O O9 0.457448 0.389245 0.583144
O O10 0.457983 0.354609 0.968657
O O11 0.705717 0.389140 0.924487
O O12 0.678680 0.519225 0.069945
O O13 0.225882 0.250000 0.684283
O O14 0.287107 0.362022 0.736112
O O15 0.591546 0.750000 0.831989
O O16 0.598183 0.607531 0.731322
O O17 0.635347 0.653964 0.066559
O O18 0.864779 0.429904 0.892848
#
# Coordination Sequence:
#
# PCOD8254613 Si02
#       8
#     8   8   8   8   8   8   8   8
#     4  10  22  41  62  89 125 159 203 254 300 361
#     4  11  22  40  63  91 124 161 204 247 306 362
#     4  10  23  40  61  89 122 160 204 253 304 359
#     4  11  23  39  63  92 123 161 204 251 303 360
#     4  10  24  41  62  90 123 161 204 253 304 359
#     4  10  22  41  62  89 125 160 204 254 300 359
#     4  11  23  40  64  91 124 162 204 248 306 360
#     4  11  22  40  62  92 123 160 203 252 302 361
#
# _framework density 19.726616
#
# number of rings (size 3 to 8) (size 9 to 14) (size 15 to 20)
#    0.000    1.500    2.500    1.875    1.750    5.500 
#    0.000    1.250    0.000    0.000    0.000    0.000 
#    0.000    0.000    0.000    0.000    0.000    0.000 
#
# Total GULP energy -793920.738601 kJ/mol
# GULP energy per Si atom -12405.011541 kJ/mol
# Density = 1.968172 g / cm^3
# Si number density = 19.726616 Si / 1000 Ang^3
#
#
#
# Elastic Constant Matrix: (Units=GPa)
#
#
# Indices 1 2 3 4 5 6 
#
# 1 111.6576 20.0352 22.6928 0.0000 0.0000 0.0000
# 2 20.0352 65.4760 15.9737 0.0000 0.0000 0.0000
# 3 22.6928 15.9737 73.5803 0.0000 0.0000 0.0000
# 4 0.0000 0.0000 0.0000 35.6749 0.0000 0.0000
# 5 0.0000 0.0000 0.0000 0.0000 19.3271 0.0000
# 6 0.0000 0.0000 0.0000 0.0000 0.0000 31.3906
#
#
#
# Elastic Compliance Matrix: (Units=1/GPa)
#
#
# Indices 1 2 3 4 5 6 
#
# 1 0.009903 -0.002413 -0.002530 0.000000 0.000000 0.000000
# 2 -0.002413 0.016715 -0.002884 0.000000 0.000000 0.000000
# 3 -0.002530 -0.002884 0.014997 0.000000 0.000000 0.000000
# 4 0.000000 0.000000 0.000000 0.028031 0.000000 0.000000
# 5 0.000000 0.000000 0.000000 0.000000 0.051741 0.000000
# 6 0.000000 0.000000 0.000000 0.000000 0.000000 0.031857
#
#
# Mechanical properties :
#
#
# Convention : Reuss Voigt Hill
#
# Bulk Modulus (GPa) = 38.52153 40.90192 39.71172
# Shear Modulus (GPa) = 28.16069 30.07934 29.12002
#
# Velocity S-wave (km/s) = 3.78239 3.90912 3.84628
# Velocity P-wave (km/s) = 6.21654 6.41516 6.31663
#
# Compressibility (1/GPa) = 0.02595951
#
# Stress axis : x y z
#
# Youngs Moduli (GPa) = 100.97760 59.82703 66.67916
#
# Poissons Ratio (x) = 0.14436 0.16872
# Poissons Ratio (y) = 0.24366 0.19233
# Poissons Ratio (z) = 0.25551 0.17257
#
# Static dielectric constant tensor:
#      x y z
#    x 3.502640 0.000000 0.000000 
#    y 0.000000 3.736800 0.000000 
#    z 0.000000 0.000000 3.557900 
# 
# 
# High freq. dielectric constant tensor:
#      x y z
#    x 1.766090 0.000000 0.000000 
#    y 0.000000 1.786120 0.000000 
#    z 0.000000 0.000000 1.770640 
# 
# From -- ./inp_files/3707.got.cif
#   From: 2010.03.12/outbox.cif.g09.slc.cpg/sg62_2_cif.got.tgz:3707.got - 2010.04.10 19:12:36.
