data_PCOD8254808
_publ_section_title
;
Structure prediction by ZEFSAII (Michael W. Deem and Ramdas Pophale) SiO2 
 PCOD8254808
Probable space group: P N M A
;
_chemical_formula_sum "Si O2"
_cell_formula_units_Z 40
_cell_length_a 10.000692
_cell_length_b 18.049032
_cell_length_c 10.092237
_cell_angle_alpha 90.000000
_cell_angle_beta 90.000000
_cell_angle_gamma 90.000000
_cell_volume 1821.677137
_symmetry_space_group_name_H-M "P N M A"
_symmetry_group_IT_number 62
_symmetry_cell_setting 'orthorhombic'
loop_
_space_group_symop_operation_xyz
x,y,z
1/2-x,-y,1/2+z
1/2+x,1/2-y,1/2-z
-x,1/2+y,-z
-x,-y,-z
1/2+x,y,1/2-z
1/2-x,1/2+y,1/2+z
x,1/2-y,z
loop_
_atom_site_type_symbol
_atom_site_label
_atom_site_fract_x
_atom_site_fract_y
_atom_site_fract_z
Si Si1 0.048162 0.108974 0.648983
Si Si2 0.324866 0.033233 0.214583
Si Si3 0.038944 0.168097 0.931031
Si Si4 0.669829 0.665296 0.959219
Si Si5 0.795252 0.434215 0.988799
O O1 0.171865 0.121493 0.546110
O O2 0.908167 0.130546 0.583743
O O3 0.047643 0.021982 0.694158
O O4 0.071714 0.160032 0.776061
O O5 0.363822 0.116713 0.171143
O O6 0.275688 0.031981 0.365434
O O7 0.206516 0.001610 0.118258
O O8 0.979329 0.250000 0.954332
O O9 0.173987 0.159240 0.013129
O O10 0.935369 0.107491 0.982159
O O11 0.624764 0.750000 0.933658
#
# Coordination Sequence:
#
# PCOD8254808 Si02
#       5
#     8   8   8   8   8
#     4  10  23  41  70  99 135 182 231 285 338 414
#     4  10  24  45  70 101 137 181 240 287 338 413
#     4  11  24  43  68 103 142 183 229 285 350 414
#     4  11  24  42  66  99 142 183 228 293 353 407
#     4  10  25  44  71  98 139 180 235 282 345 406
#
# _framework density 21.957788000000001
#
# number of rings (size 3 to 8) (size 9 to 14) (size 15 to 20)
#    1.200    0.400    0.000    3.600    2.800    8.800 
#    0.000    2.000    0.000    0.000    0.000    0.000 
#    0.000    0.000    0.000    0.000    0.000    0.000 
#
# Total GULP energy -495830.051967 kJ/mol
# GULP energy per Si atom -12395.751299 kJ/mol
# Density = 2.190781 g / cm^3
# Si number density = 21.957788 Si / 1000 Ang^3
#
#
#
# Elastic Constant Matrix: (Units=GPa)
#
#
# Indices 1 2 3 4 5 6 
#
# 1 62.4525 41.1444 22.9174 0.0000 0.0000 0.0000
# 2 41.1444 134.8461 49.8384 0.0000 0.0000 0.0000
# 3 22.9174 49.8384 131.0002 0.0000 0.0000 0.0000
# 4 0.0000 0.0000 0.0000 21.7064 0.0000 0.0000
# 5 0.0000 0.0000 0.0000 0.0000 23.8461 0.0000
# 6 0.0000 0.0000 0.0000 0.0000 0.0000 33.6936
#
#
#
# Elastic Compliance Matrix: (Units=1/GPa)
#
#
# Indices 1 2 3 4 5 6 
#
# 1 0.020255 -0.005668 -0.001387 0.000000 0.000000 0.000000
# 2 -0.005668 0.010215 -0.002895 0.000000 0.000000 0.000000
# 3 -0.001387 -0.002895 0.008978 0.000000 0.000000 0.000000
# 4 0.000000 0.000000 0.000000 0.046069 0.000000 0.000000
# 5 0.000000 0.000000 0.000000 0.000000 0.041936 0.000000
# 6 0.000000 0.000000 0.000000 0.000000 0.000000 0.029679
#
#
# Mechanical properties :
#
#
# Convention : Reuss Voigt Hill
#
# Bulk Modulus (GPa) = 51.15474 61.78882 56.47178
# Shear Modulus (GPa) = 27.24095 30.14246 28.69170
#
# Velocity S-wave (km/s) = 3.52604 3.70908 3.61872
# Velocity P-wave (km/s) = 6.31860 6.82231 6.57528
#
# Compressibility (1/GPa) = 0.01954853
#
# Stress axis : x y z
#
# Youngs Moduli (GPa) = 49.37031 97.89486 111.38868
#
# Poissons Ratio (x) = 0.55482 0.15453
# Poissons Ratio (y) = 0.27981 0.32245
# Poissons Ratio (z) = 0.06849 0.28338
#
# Static dielectric constant tensor:
#      x y z
#    x 3.650860 0.000000 0.000000 
#    y 0.000000 4.082410 0.000000 
#    z 0.000000 0.000000 3.780710 
# 
# 
# High freq. dielectric constant tensor:
#      x y z
#    x 1.851600 0.000000 0.000000 
#    y 0.000000 1.864330 0.000000 
#    z 0.000000 0.000000 1.858750 
# 
# From -- ./inp_files/5022.got.cif
#   From: 2010.03.12/outbox.cif.g09.slc.cpg/sg62_3_cif.got.tgz:5022.got - 2010.04.10 19:12:36.
