data_PCOD8254435
_publ_section_title
;
Structure prediction by ZEFSAII (Michael W. Deem and Ramdas Pophale) SiO2 
 PCOD8254435
Probable space group: P N M A
;
_chemical_formula_sum "Si O2"
_cell_formula_units_Z 64
_cell_length_a 32.621983
_cell_length_b 8.669077
_cell_length_c 11.117512
_cell_angle_alpha 90.000000
_cell_angle_beta 90.000000
_cell_angle_gamma 90.000000
_cell_volume 3144.059993
_symmetry_space_group_name_H-M "P N M A"
_symmetry_group_IT_number 62
_symmetry_cell_setting 'orthorhombic'
loop_
_space_group_symop_operation_xyz
x,y,z
1/2-x,-y,1/2+z
1/2+x,1/2-y,1/2-z
-x,1/2+y,-z
-x,-y,-z
1/2+x,y,1/2-z
1/2-x,1/2+y,1/2+z
x,1/2-y,z
loop_
_atom_site_type_symbol
_atom_site_label
_atom_site_fract_x
_atom_site_fract_y
_atom_site_fract_z
Si Si1 0.813047 0.570860 0.240651
Si Si2 0.723066 0.933403 0.208142
Si Si3 0.849077 0.077063 0.863560
Si Si4 0.524161 0.567455 0.615911
Si Si5 0.094446 0.918530 0.366927
Si Si6 0.987849 0.572524 0.628623
Si Si7 0.829476 0.072101 0.485245
Si Si8 0.387161 0.569956 0.416686
O O1 0.811174 0.750000 0.210094
O O2 0.768864 0.494953 0.208573
O O3 0.821239 0.544154 0.378890
O O4 0.850926 0.499612 0.166386
O O5 0.724432 0.750000 0.208440
O O6 0.696655 0.982237 0.326790
O O7 0.700146 0.991029 0.089442
O O8 0.847609 0.250000 0.920322
O O9 0.875415 0.082029 0.744108
O O10 0.871022 0.954671 0.948857
O O11 0.500000 0.500000 0.500000
O O12 0.518324 0.750000 0.609489
O O13 0.508496 0.505267 0.747547
O O14 0.571689 0.524589 0.606683
O O15 0.072784 0.750000 0.376967
O O16 0.122567 0.946742 0.483438
O O17 0.060672 0.050539 0.355918
O O18 0.999400 0.750000 0.619807
O O19 0.000000 0.500000 0.500000
O O20 0.819685 0.250000 0.452080
O O21 0.395973 0.750000 0.393766
#
# Coordination Sequence:
#
# PCOD8254435 Si02
#       8
#     8   8   8   8   8   8   8   8
#     4  10  22  37  54  81 119 156 191 240 293 342
#     4   8  17  36  58  81 113 153 195 241 294 343
#     4   9  18  36  62  86 112 154 200 243 290 347
#     4  11  25  45  68  94 124 160 203 252 307 369
#     4   9  19  37  60  86 114 148 190 238 291 345
#     4  11  25  41  62  91 121 156 197 245 299 360
#     4   9  19  36  59  82 110 149 193 237 285 345
#     4  11  24  38  57  88 125 159 193 241 299 353
#
# _framework density 20.355846
#
# number of rings (size 3 to 8) (size 9 to 14) (size 15 to 20)
#    0.000    2.250    0.000    3.375    3.500    6.000 
#    0.000    2.500    0.000    0.000    0.000    0.000 
#    0.000    0.000    0.000    0.000    0.000    0.000 
#
# Total GULP energy -793154.456913 kJ/mol
# GULP energy per Si atom -12393.038389 kJ/mol
# Density = 2.030951 g / cm^3
# Si number density = 20.355846 Si / 1000 Ang^3
#
#
#
# Elastic Constant Matrix: (Units=GPa)
#
#
# Indices 1 2 3 4 5 6 
#
# 1 149.1531 23.4481 50.9625 0.0000 0.0000 0.0000
# 2 23.4481 34.6518 24.8634 0.0000 0.0000 0.0000
# 3 50.9625 24.8634 99.3990 0.0000 0.0000 0.0000
# 4 0.0000 0.0000 0.0000 31.7682 0.0000 0.0000
# 5 0.0000 0.0000 0.0000 0.0000 25.6543 0.0000
# 6 0.0000 0.0000 0.0000 0.0000 0.0000 13.2256
#
#
#
# Elastic Compliance Matrix: (Units=1/GPa)
#
#
# Indices 1 2 3 4 5 6 
#
# 1 0.008404 -0.003163 -0.003517 0.000000 0.000000 0.000000
# 2 -0.003163 0.036361 -0.007474 0.000000 0.000000 0.000000
# 3 -0.003517 -0.007474 0.013733 0.000000 0.000000 0.000000
# 4 0.000000 0.000000 0.000000 0.031478 0.000000 0.000000
# 5 0.000000 0.000000 0.000000 0.000000 0.038980 0.000000
# 6 0.000000 0.000000 0.000000 0.000000 0.000000 0.075611
#
#
# Mechanical properties :
#
#
# Convention : Reuss Voigt Hill
#
# Bulk Modulus (GPa) = 33.12315 53.52798 43.32556
# Shear Modulus (GPa) = 20.58140 26.39164 23.48652
#
# Velocity S-wave (km/s) = 3.18320 3.60462 3.40044
# Velocity P-wave (km/s) = 5.46056 6.60890 6.06198
#
# Compressibility (1/GPa) = 0.03019037
#
# Stress axis : x y z
#
# Youngs Moduli (GPa) = 118.99731 27.50182 72.81542
#
# Poissons Ratio (x) = 0.08698 0.25613
# Poissons Ratio (y) = 0.37635 0.54421
# Poissons Ratio (z) = 0.41857 0.20554
#
# Static dielectric constant tensor:
#      x y z
#    x 4.126700 0.000000 0.000000 
#    y 0.000000 3.653590 0.000000 
#    z 0.000000 0.000000 3.802780 
# 
# 
# High freq. dielectric constant tensor:
#      x y z
#    x 1.809620 0.000000 0.000000 
#    y 0.000000 1.769240 0.000000 
#    z 0.000000 0.000000 1.799450 
# 
# From -- ./inp_files/15898.got.cif
#   From: 2010.03.12/outbox.cif.g09.slc.cpg/sg62_8_cif.got.tgz:15898.got - 2010.04.10 19:12:36.
