data_PCOD8254177
_publ_section_title
;
Structure prediction by ZEFSAII (Michael W. Deem and Ramdas Pophale) SiO2 
 PCOD8254177
Probable space group: P N M A
;
_chemical_formula_sum "Si O2"
_cell_formula_units_Z 40
_cell_length_a 7.628429
_cell_length_b 8.716440
_cell_length_c 29.799090
_cell_angle_alpha 90.000000
_cell_angle_beta 90.000000
_cell_angle_gamma 90.000000
_cell_volume 1981.423253
_symmetry_space_group_name_H-M "P N M A"
_symmetry_group_IT_number 62
_symmetry_cell_setting 'orthorhombic'
loop_
_space_group_symop_operation_xyz
x,y,z
1/2-x,-y,1/2+z
1/2+x,1/2-y,1/2-z
-x,1/2+y,-z
-x,-y,-z
1/2+x,y,1/2-z
1/2-x,1/2+y,1/2+z
x,1/2-y,z
loop_
_atom_site_type_symbol
_atom_site_label
_atom_site_fract_x
_atom_site_fract_y
_atom_site_fract_z
Si Si1 0.170885 0.566378 0.393686
Si Si2 0.695502 0.581890 0.202536
Si Si3 0.291614 0.070247 0.112680
Si Si4 0.786643 0.579854 0.296675
Si Si5 0.973549 0.431105 0.048557
O O1 0.171198 0.750000 0.394238
O O2 0.248888 0.505254 0.345196
O O3 0.294552 0.500878 0.432063
O O4 0.971884 0.511483 0.401771
O O5 0.784745 0.750000 0.206460
O O6 0.745240 0.494006 0.248812
O O7 0.490352 0.599126 0.198126
O O8 0.327028 0.250000 0.112947
O O9 0.141824 0.021544 0.077811
O O10 0.218652 0.020582 0.161730
O O11 0.697323 0.750000 0.298011
O O12 0.951722 0.250000 0.045916
O O13 0.000000 0.500000 0.000000
#
# Coordination Sequence:
#
# PCOD8254177 Si02
#       5
#     8   8   8   8   8
#     4  10  21  39  64  90 119 157 200 248 299 352
#     4   8  16  29  50  81 112 148 195 240 283 336
#     4  10  22  40  59  85 123 159 194 243 300 360
#     4   9  17  31  52  80 113 153 200 242 283 340
#     4  11  25  43  64  90 119 155 202 251 305 363
#
# _framework density 20.18751
#
# number of rings (size 3 to 8) (size 9 to 14) (size 15 to 20)
#    0.000    2.400    0.000    3.000    2.800    4.000 
#    0.000    5.000    0.000    0.000    0.000    0.000 
#    0.000    0.000    0.000    0.000    0.000    0.000 
#
# Total GULP energy -495623.545574 kJ/mol
# GULP energy per Si atom -12390.588639 kJ/mol
# Density = 2.014156 g / cm^3
# Si number density = 20.187510 Si / 1000 Ang^3
#
#
#
# Elastic Constant Matrix: (Units=GPa)
#
#
# Indices 1 2 3 4 5 6 
#
# 1 58.0554 17.1377 22.4273 0.0000 0.0000 0.0000
# 2 17.1377 52.0464 15.5433 0.0000 0.0000 0.0000
# 3 22.4273 15.5433 118.6027 0.0000 0.0000 0.0000
# 4 0.0000 0.0000 0.0000 23.5565 0.0000 0.0000
# 5 0.0000 0.0000 0.0000 0.0000 37.3624 0.0000
# 6 0.0000 0.0000 0.0000 0.0000 0.0000 25.6296
#
#
#
# Elastic Compliance Matrix: (Units=1/GPa)
#
#
# Indices 1 2 3 4 5 6 
#
# 1 0.020087 -0.005703 -0.003051 0.000000 0.000000 0.000000
# 2 -0.005703 0.021615 -0.001754 0.000000 0.000000 0.000000
# 3 -0.003051 -0.001754 0.009238 0.000000 0.000000 0.000000
# 4 0.000000 0.000000 0.000000 0.042451 0.000000 0.000000
# 5 0.000000 0.000000 0.000000 0.000000 0.026765 0.000000
# 6 0.000000 0.000000 0.000000 0.000000 0.000000 0.039017
#
#
# Mechanical properties :
#
#
# Convention : Reuss Voigt Hill
#
# Bulk Modulus (GPa) = 33.41790 37.65789 35.53790
# Shear Modulus (GPa) = 26.29287 28.88280 27.58783
#
# Velocity S-wave (km/s) = 3.61284 3.78660 3.70074
# Velocity P-wave (km/s) = 5.83036 6.14917 5.99189
#
# Compressibility (1/GPa) = 0.02992408
#
# Stress axis : x y z
#
# Youngs Moduli (GPa) = 49.78328 46.26322 108.24445
#
# Poissons Ratio (x) = 0.26384 0.33025
# Poissons Ratio (y) = 0.28392 0.18990
# Poissons Ratio (z) = 0.15189 0.08116
#
# Static dielectric constant tensor:
#      x y z
#    x 3.543450 0.000000 0.000000 
#    y 0.000000 3.575670 0.000000 
#    z 0.000000 0.000000 4.171580 
# 
# 
# High freq. dielectric constant tensor:
#      x y z
#    x 1.786270 0.000000 0.000000 
#    y 0.000000 1.760270 0.000000 
#    z 0.000000 0.000000 1.804610 
# 
# From -- ./inp_files/30666.got.cif
#   From: 2010.03.12/outbox.cif.g09.slc.cpg/sg62_16_cif.got.tgz:30666.got - 2010.04.10 19:12:36.
