data_PCOD8254805
_publ_section_title
;
Structure prediction by ZEFSAII (Michael W. Deem and Ramdas Pophale) SiO2 
 PCOD8254805
Probable space group: P N M A
;
_chemical_formula_sum "Si O2"
_cell_formula_units_Z 28
_cell_length_a 12.053313
_cell_length_b 13.731501
_cell_length_c 7.695379
_cell_angle_alpha 90.000000
_cell_angle_beta 90.000000
_cell_angle_gamma 90.000000
_cell_volume 1273.662790
_symmetry_space_group_name_H-M "P N M A"
_symmetry_group_IT_number 62
_symmetry_cell_setting 'orthorhombic'
loop_
_space_group_symop_operation_xyz
x,y,z
1/2-x,-y,1/2+z
1/2+x,1/2-y,1/2-z
-x,1/2+y,-z
-x,-y,-z
1/2+x,y,1/2-z
1/2-x,1/2+y,1/2+z
x,1/2-y,z
loop_
_atom_site_type_symbol
_atom_site_label
_atom_site_fract_x
_atom_site_fract_y
_atom_site_fract_z
Si Si1 0.882097 0.750000 0.763855
Si Si2 0.951490 0.750000 0.388369
Si Si3 0.390350 0.534652 0.094494
Si Si4 0.570443 0.750000 0.455255
Si Si5 0.786001 0.405202 0.137066
O O1 0.970658 0.750000 0.599408
O O2 0.800050 0.657278 0.754055
O O3 0.952405 0.750000 0.941604
O O4 0.886809 0.850961 0.349503
O O5 0.055085 0.750000 0.255104
O O6 0.377086 0.464246 0.256694
O O7 0.500000 0.500000 0.000000
O O8 0.285956 0.516488 0.969105
O O9 0.642350 0.656721 0.502254
#
# Coordination Sequence:
#
# PCOD8254805 Si02
#       5
#     4   4   8   4   8
#     4   9  21  45  62 102 137 175 226 283 336 400
#     4  10  24  42  66  97 138 173 225 287 330 400
#     4  11  25  45  67 102 139 179 235 287 340 415
#     4  11  23  43  72  97 135 178 227 284 346 406
#     4  10  23  41  67  99 135 181 229 276 349 411
#
# _framework density 21.983841000000002
#
# number of rings (size 3 to 8) (size 9 to 14) (size 15 to 20)
#    0.000    1.714    0.000    4.286    8.000    2.286 
#    0.000    2.857    0.000    0.000    0.000    0.000 
#    0.000    0.000    0.000    0.000    0.000    0.000 
#
# Total GULP energy -346933.232026 kJ/mol
# GULP energy per Si atom -12390.472572 kJ/mol
# Density = 2.193380 g / cm^3
# Si number density = 21.983841 Si / 1000 Ang^3
#
#
#
# Elastic Constant Matrix: (Units=GPa)
#
#
# Indices 1 2 3 4 5 6 
#
# 1 114.9194 43.4333 53.3191 0.0000 0.0000 0.0000
# 2 43.4333 120.4920 50.8790 0.0000 0.0000 0.0000
# 3 53.3191 50.8790 90.5257 0.0000 0.0000 0.0000
# 4 0.0000 0.0000 0.0000 22.7140 0.0000 0.0000
# 5 0.0000 0.0000 0.0000 0.0000 54.6104 0.0000
# 6 0.0000 0.0000 0.0000 0.0000 0.0000 24.1754
#
#
#
# Elastic Compliance Matrix: (Units=1/GPa)
#
#
# Indices 1 2 3 4 5 6 
#
# 1 0.012264 -0.001797 -0.006213 0.000000 0.000000 0.000000
# 2 -0.001797 0.011145 -0.005206 0.000000 0.000000 0.000000
# 3 -0.006213 -0.005206 0.017632 0.000000 0.000000 0.000000
# 4 0.000000 0.000000 0.000000 0.044026 0.000000 0.000000
# 5 0.000000 0.000000 0.000000 0.000000 0.018312 0.000000
# 6 0.000000 0.000000 0.000000 0.000000 0.000000 0.041364
#
#
# Mechanical properties :
#
#
# Convention : Reuss Voigt Hill
#
# Bulk Modulus (GPa) = 68.45075 69.02221 68.73648
# Shear Modulus (GPa) = 28.40202 32.18701 30.29452
#
# Velocity S-wave (km/s) = 3.59827 3.83053 3.71622
# Velocity P-wave (km/s) = 6.96188 7.14346 7.05325
#
# Compressibility (1/GPa) = 0.01460904
#
# Stress axis : x y z
#
# Youngs Moduli (GPa) = 81.54151 89.72476 56.71539
#
# Poissons Ratio (x) = 0.16124 0.35239
# Poissons Ratio (y) = 0.14653 0.29524
# Poissons Ratio (z) = 0.50664 0.46707
#
# Static dielectric constant tensor:
#      x y z
#    x 3.965780 0.000000 0.000000 
#    y 0.000000 4.147240 0.000000 
#    z 0.000000 0.000000 3.914570 
# 
# 
# High freq. dielectric constant tensor:
#      x y z
#    x 1.862430 0.000000 0.000000 
#    y 0.000000 1.874090 0.000000 
#    z 0.000000 0.000000 1.849870 
# 
# From -- ./inp_files/4794.got.cif
#   From: 2010.03.12/outbox.cif.g09.slc.cpg/sg62_3_cif.got.tgz:4794.got - 2010.04.10 19:12:36.
