data_PCOD8254548
_publ_section_title
;
Structure prediction by ZEFSAII (Michael W. Deem and Ramdas Pophale) SiO2 
 PCOD8254548
Probable space group: P N M A
;
_chemical_formula_sum "Si O2"
_cell_formula_units_Z 48
_cell_length_a 9.990442
_cell_length_b 26.169699
_cell_length_c 8.973315
_cell_angle_alpha 90.000000
_cell_angle_beta 90.000000
_cell_angle_gamma 90.000000
_cell_volume 2346.045031
_symmetry_space_group_name_H-M "P N M A"
_symmetry_group_IT_number 62
_symmetry_cell_setting 'orthorhombic'
loop_
_space_group_symop_operation_xyz
x,y,z
1/2-x,-y,1/2+z
1/2+x,1/2-y,1/2-z
-x,1/2+y,-z
-x,-y,-z
1/2+x,y,1/2-z
1/2-x,1/2+y,1/2+z
x,1/2-y,z
loop_
_atom_site_type_symbol
_atom_site_label
_atom_site_fract_x
_atom_site_fract_y
_atom_site_fract_z
Si Si1 0.857390 0.470511 0.664930
Si Si2 0.631850 0.308499 0.681207
Si Si3 0.851926 0.808407 0.838545
Si Si4 0.120300 0.634534 0.825112
Si Si5 0.874337 0.470980 0.319271
Si Si6 0.638203 0.634483 0.329796
O O1 0.832358 0.465190 0.490086
O O2 0.754295 0.512000 0.726510
O O3 0.829443 0.416363 0.739289
O O4 0.007779 0.488017 0.701356
O O5 0.590664 0.250000 0.710061
O O6 0.681440 0.316232 0.512177
O O7 0.750414 0.323346 0.792456
O O8 0.505261 0.343791 0.717680
O O9 0.832859 0.750000 0.788887
O O10 0.756132 0.844026 0.743264
O O11 0.004729 0.823605 0.805452
O O12 0.075293 0.583257 0.741572
O O13 0.145592 0.621394 0.996785
#
# Coordination Sequence:
#
# PCOD8254548 Si02
#       6
#     8   8   8   8   8   8
#     4  11  24  41  62  89 119 154 197 242 292 350
#     4  10  22  40  61  87 120 157 197 242 292 346
#     4  10  22  40  61  87 120 157 197 242 292 346
#     4  11  23  39  61  89 120 155 196 242 293 349
#     4  11  24  41  62  89 119 154 197 242 292 350
#     4  11  23  39  61  89 120 155 196 242 293 349
#
# _framework density 20.459963999999999
#
# number of rings (size 3 to 8) (size 9 to 14) (size 15 to 20)
#    0.000    1.333    0.000    5.000    0.000   12.667 
#    0.000    0.000    0.000    0.000    0.000    0.000 
#    0.000    0.000    0.000    0.000    0.000    0.000 
#
# Total GULP energy -595620.060391 kJ/mol
# GULP energy per Si atom -12408.751258 kJ/mol
# Density = 2.041340 g / cm^3
# Si number density = 20.459964 Si / 1000 Ang^3
#
#
#
# Elastic Constant Matrix: (Units=GPa)
#
#
# Indices 1 2 3 4 5 6 
#
# 1 78.4559 11.4142 44.1819 0.0000 0.0000 0.0000
# 2 11.4142 95.4267 34.9996 0.0000 0.0000 0.0000
# 3 44.1819 34.9996 100.3287 0.0000 0.0000 0.0000
# 4 0.0000 0.0000 0.0000 32.6539 0.0000 0.0000
# 5 0.0000 0.0000 0.0000 0.0000 30.1178 0.0000
# 6 0.0000 0.0000 0.0000 0.0000 0.0000 34.4630
#
#
#
# Elastic Compliance Matrix: (Units=1/GPa)
#
#
# Indices 1 2 3 4 5 6 
#
# 1 0.017005 0.000817 -0.007773 0.000000 0.000000 0.000000
# 2 0.000817 0.012056 -0.004566 0.000000 0.000000 0.000000
# 3 -0.007773 -0.004566 0.014983 0.000000 0.000000 0.000000
# 4 0.000000 0.000000 0.000000 0.030624 0.000000 0.000000
# 5 0.000000 0.000000 0.000000 0.000000 0.033203 0.000000
# 6 0.000000 0.000000 0.000000 0.000000 0.000000 0.029017
#
#
# Mechanical properties :
#
#
# Convention : Reuss Voigt Hill
#
# Bulk Modulus (GPa) = 47.61893 50.60030 49.10961
# Shear Modulus (GPa) = 29.95242 31.68798 30.82020
#
# Velocity S-wave (km/s) = 3.83031 3.93972 3.88540
# Velocity P-wave (km/s) = 6.54878 6.74391 6.64706
#
# Compressibility (1/GPa) = 0.02100005
#
# Stress axis : x y z
#
# Youngs Moduli (GPa) = 58.80733 82.94610 66.74180
#
# Poissons Ratio (x) = -0.06777 0.51881
# Poissons Ratio (y) = -0.04805 0.30471
# Poissons Ratio (z) = 0.45713 0.37869
#
# Static dielectric constant tensor:
#      x y z
#    x 3.616830 0.000000 0.000000 
#    y 0.000000 3.719650 0.000000 
#    z 0.000000 0.000000 3.773240 
# 
# 
# High freq. dielectric constant tensor:
#      x y z
#    x 1.807370 0.000000 0.000000 
#    y 0.000000 1.813600 0.000000 
#    z 0.000000 0.000000 1.805830 
# 
# From -- ./inp_files/4495.got.cif
#   From: 2010.03.12/outbox.cif.g09.slc.cpg/sg62_3_cif.got.tgz:4495.got - 2010.04.10 19:12:36.
