data_PCOD8254822
_publ_section_title
;
Structure prediction by ZEFSAII (Michael W. Deem and Ramdas Pophale) SiO2 
 PCOD8254822
Probable space group: P N M A
;
_chemical_formula_sum "Si O2"
_cell_formula_units_Z 40
_cell_length_a 22.650095
_cell_length_b 8.400384
_cell_length_c 10.188550
_cell_angle_alpha 90.000000
_cell_angle_beta 90.000000
_cell_angle_gamma 90.000000
_cell_volume 1938.570270
_symmetry_space_group_name_H-M "P N M A"
_symmetry_group_IT_number 62
_symmetry_cell_setting 'orthorhombic'
loop_
_space_group_symop_operation_xyz
x,y,z
1/2-x,-y,1/2+z
1/2+x,1/2-y,1/2-z
-x,1/2+y,-z
-x,-y,-z
1/2+x,y,1/2-z
1/2-x,1/2+y,1/2+z
x,1/2-y,z
loop_
_atom_site_type_symbol
_atom_site_label
_atom_site_fract_x
_atom_site_fract_y
_atom_site_fract_z
Si Si1 0.624021 0.432983 0.740044
Si Si2 0.994215 0.064653 0.354049
Si Si3 0.614567 0.563206 0.230672
Si Si4 0.190885 0.566230 0.519848
Si Si5 0.817774 0.066200 0.991483
O O1 0.628173 0.250000 0.698333
O O2 0.557931 0.473047 0.781845
O O3 0.640386 0.540771 0.615996
O O4 0.669730 0.462498 0.857761
O O5 0.978766 0.250000 0.359028
O O6 0.000000 0.000000 0.500000
O O7 0.053958 0.034467 0.274069
O O8 0.600163 0.750000 0.229660
O O9 0.654877 0.513042 0.108197
O O10 0.647888 0.510423 0.361929
O O11 0.179104 0.750000 0.552120
O O12 0.259522 0.539105 0.492241
O O13 0.799513 0.250000 0.980671
#
# Coordination Sequence:
#
# PCOD8254822 Si02
#       5
#     8   8   8   8   8
#     4  12  25  42  65  94 129 171 215 261 315 377
#     4  12  24  41  67  95 124 162 210 264 320 380
#     4  10  23  42  65  93 127 167 211 262 317 376
#     4  11  22  40  67  96 129 167 213 264 316 379
#     4  11  24  42  64  95 133 169 211 263 320 377
#
# _framework density 20.633762999999998
#
# number of rings (size 3 to 8) (size 9 to 14) (size 15 to 20)
#    0.000    0.800    2.000    6.000    0.000    4.800 
#    0.000    0.000    0.000    0.000    0.000    0.000 
#    0.000    0.000    0.000    0.000    0.000    0.000 
#
# Total GULP energy -496378.299811 kJ/mol
# GULP energy per Si atom -12409.457495 kJ/mol
# Density = 2.058680 g / cm^3
# Si number density = 20.633763 Si / 1000 Ang^3
#
#
#
# Elastic Constant Matrix: (Units=GPa)
#
#
# Indices 1 2 3 4 5 6 
#
# 1 118.3517 20.2373 31.9913 0.0000 0.0000 0.0000
# 2 20.2373 60.9747 21.8274 0.0000 0.0000 0.0000
# 3 31.9913 21.8274 115.1703 0.0000 0.0000 0.0000
# 4 0.0000 0.0000 0.0000 23.0575 0.0000 0.0000
# 5 0.0000 0.0000 0.0000 0.0000 20.5912 0.0000
# 6 0.0000 0.0000 0.0000 0.0000 0.0000 32.5317
#
#
#
# Elastic Compliance Matrix: (Units=1/GPa)
#
#
# Indices 1 2 3 4 5 6 
#
# 1 0.009440 -0.002354 -0.002176 0.000000 0.000000 0.000000
# 2 -0.002354 0.018181 -0.002792 0.000000 0.000000 0.000000
# 3 -0.002176 -0.002792 0.009816 0.000000 0.000000 0.000000
# 4 0.000000 0.000000 0.000000 0.043370 0.000000 0.000000
# 5 0.000000 0.000000 0.000000 0.000000 0.048564 0.000000
# 6 0.000000 0.000000 0.000000 0.000000 0.000000 0.030739
#
#
# Mechanical properties :
#
#
# Convention : Reuss Voigt Hill
#
# Bulk Modulus (GPa) = 43.87226 49.17875 46.52550
# Shear Modulus (GPa) = 27.41939 29.93213 28.67576
#
# Velocity S-wave (km/s) = 3.64931 3.81286 3.73198
# Velocity P-wave (km/s) = 6.25021 6.57797 6.41618
#
# Compressibility (1/GPa) = 0.02279345
#
# Stress axis : x y z
#
# Youngs Moduli (GPa) = 105.93056 55.00250 101.87084
#
# Poissons Ratio (x) = 0.12949 0.22168
# Poissons Ratio (y) = 0.24938 0.28440
# Poissons Ratio (z) = 0.23051 0.15355
#
# Static dielectric constant tensor:
#      x y z
#    x 3.763510 0.000000 0.000000 
#    y 0.000000 3.682510 0.000000 
#    z 0.000000 0.000000 3.781950 
# 
# 
# High freq. dielectric constant tensor:
#      x y z
#    x 1.820800 0.000000 0.000000 
#    y 0.000000 1.812050 0.000000 
#    z 0.000000 0.000000 1.813770 
# 
# From -- ./inp_files/9116.got.cif
#   From: 2010.03.12/outbox.cif.g09.slc.cpg/sg62_5_cif.got.tgz:9116.got - 2010.04.10 19:12:36.
