data_PCOD8254233
_publ_section_title
;
Structure prediction by ZEFSAII (Michael W. Deem and Ramdas Pophale) SiO2 
 PCOD8254233
Probable space group: P N M A
;
_chemical_formula_sum "Si O2"
_cell_formula_units_Z 48
_cell_length_a 21.615831
_cell_length_b 8.962087
_cell_length_c 12.307606
_cell_angle_alpha 90.000000
_cell_angle_beta 90.000000
_cell_angle_gamma 90.000000
_cell_volume 2384.265840
_symmetry_space_group_name_H-M "P N M A"
_symmetry_group_IT_number 62
_symmetry_cell_setting 'orthorhombic'
loop_
_space_group_symop_operation_xyz
x,y,z
1/2-x,-y,1/2+z
1/2+x,1/2-y,1/2-z
-x,1/2+y,-z
-x,-y,-z
1/2+x,y,1/2-z
1/2-x,1/2+y,1/2+z
x,1/2-y,z
loop_
_atom_site_type_symbol
_atom_site_label
_atom_site_fract_x
_atom_site_fract_y
_atom_site_fract_z
Si Si1 0.933051 0.925413 0.506745
Si Si2 0.303065 0.926537 0.584642
Si Si3 0.853734 0.918823 0.143820
Si Si4 0.503983 0.417615 0.613134
Si Si5 0.167981 0.573942 0.640982
Si Si6 0.596081 0.424576 0.249347
O O1 0.941485 0.750000 0.488065
O O2 0.899812 0.960680 0.621600
O O3 0.889046 0.989852 0.413837
O O4 0.000000 0.000000 0.500000
O O5 0.305014 0.750000 0.589505
O O6 0.333827 0.984021 0.473334
O O7 0.232343 0.981305 0.587930
O O8 0.343072 0.986438 0.687671
O O9 0.828200 0.750000 0.159660
O O10 0.926848 0.919078 0.156259
O O11 0.826221 0.029495 0.233188
O O12 0.500000 0.500000 0.500000
O O13 0.479748 0.250000 0.596250
O O14 0.464570 0.497037 0.705219
O O15 0.157869 0.750000 0.629463
O O16 0.587609 0.250000 0.270673
#
# Coordination Sequence:
#
# PCOD8254233 Si02
#       6
#     8   8   8   8   8   8
#     4  11  24  42  67  93 125 163 208 258 311 372
#     4   9  20  40  61  86 121 161 200 248 307 361
#     4  10  21  40  63  85 119 160 201 248 302 360
#     4  11  21  35  59  89 121 157 196 246 302 359
#     4  11  24  40  63  91 124 162 206 253 306 368
#     4  10  21  40  63  87 120 162 204 251 305 361
#
# _framework density 20.131983000000002
#
# number of rings (size 3 to 8) (size 9 to 14) (size 15 to 20)
#    0.000    1.667    1.667    2.500    2.333    5.333 
#    0.000    2.500    0.000    0.000    0.000    0.000 
#    0.000    0.000    0.000    0.000    0.000    0.000 
#
# Total GULP energy -595293.887527 kJ/mol
# GULP energy per Si atom -12401.955990 kJ/mol
# Density = 2.008616 g / cm^3
# Si number density = 20.131983 Si / 1000 Ang^3
#
#
#
# Elastic Constant Matrix: (Units=GPa)
#
#
# Indices 1 2 3 4 5 6 
#
# 1 125.2996 32.4445 51.8978 0.0000 0.0000 0.0000
# 2 32.4445 71.5922 42.3869 0.0000 0.0000 0.0000
# 3 51.8978 42.3869 119.1758 0.0000 0.0000 0.0000
# 4 0.0000 0.0000 0.0000 30.9936 0.0000 0.0000
# 5 0.0000 0.0000 0.0000 0.0000 29.4232 0.0000
# 6 0.0000 0.0000 0.0000 0.0000 0.0000 26.5531
#
#
#
# Elastic Compliance Matrix: (Units=1/GPa)
#
#
# Indices 1 2 3 4 5 6 
#
# 1 0.010077 -0.002494 -0.003501 0.000000 0.000000 0.000000
# 2 -0.002494 0.018311 -0.005427 0.000000 0.000000 0.000000
# 3 -0.003501 -0.005427 0.011846 0.000000 0.000000 0.000000
# 4 0.000000 0.000000 0.000000 0.032265 0.000000 0.000000
# 5 0.000000 0.000000 0.000000 0.000000 0.033987 0.000000
# 6 0.000000 0.000000 0.000000 0.000000 0.000000 0.037660
#
#
# Mechanical properties :
#
#
# Convention : Reuss Voigt Hill
#
# Bulk Modulus (GPa) = 57.50327 63.28066 60.39197
# Shear Modulus (GPa) = 28.93762 30.01654 29.47708
#
# Velocity S-wave (km/s) = 3.79541 3.86552 3.83063
# Velocity P-wave (km/s) = 6.91607 7.17106 7.04472
#
# Compressibility (1/GPa) = 0.01739031
#
# Stress axis : x y z
#
# Youngs Moduli (GPa) = 99.23835 54.61185 84.41847
#
# Poissons Ratio (x) = 0.13618 0.29557
# Poissons Ratio (y) = 0.24747 0.45811
# Poissons Ratio (z) = 0.34746 0.29636
#
# Static dielectric constant tensor:
#      x y z
#    x 3.667390 0.000000 0.000000 
#    y 0.000000 3.545010 0.000000 
#    z 0.000000 0.000000 3.709770 
# 
# 
# High freq. dielectric constant tensor:
#      x y z
#    x 1.791120 0.000000 0.000000 
#    y 0.000000 1.772680 0.000000 
#    z 0.000000 0.000000 1.798390 
# 
# From -- ./inp_files/15126.got.cif
#   From: 2010.03.12/outbox.cif.g09.slc.cpg/sg62_8_cif.got.tgz:15126.got - 2010.04.10 19:12:36.
