data_PCOD8254410
_publ_section_title
;
Structure prediction by ZEFSAII (Michael W. Deem and Ramdas Pophale) SiO2 
 PCOD8254410
Probable space group: P N M A
;
_chemical_formula_sum "Si O2"
_cell_formula_units_Z 40
_cell_length_a 13.911951
_cell_length_b 14.238861
_cell_length_c 9.195082
_cell_angle_alpha 90.000000
_cell_angle_beta 90.000000
_cell_angle_gamma 90.000000
_cell_volume 1821.456888
_symmetry_space_group_name_H-M "P N M A"
_symmetry_group_IT_number 62
_symmetry_cell_setting 'orthorhombic'
loop_
_space_group_symop_operation_xyz
x,y,z
1/2-x,-y,1/2+z
1/2+x,1/2-y,1/2-z
-x,1/2+y,-z
-x,-y,-z
1/2+x,y,1/2-z
1/2-x,1/2+y,1/2+z
x,1/2-y,z
loop_
_atom_site_type_symbol
_atom_site_label
_atom_site_fract_x
_atom_site_fract_y
_atom_site_fract_z
Si Si1 0.547303 0.750000 0.732311
Si Si2 0.498022 0.408174 0.806290
Si Si3 0.029726 0.750000 0.095446
Si Si4 0.565700 0.250000 0.997437
Si Si5 0.785038 0.434019 0.634508
Si Si6 0.751915 0.250000 0.806577
Si Si7 0.343085 0.064286 0.191274
O O1 0.504179 0.750000 0.572141
O O2 0.616978 0.662873 0.757603
O O3 0.449617 0.750000 0.829137
O O4 0.518206 0.343399 0.664594
O O5 0.507392 0.341563 0.946359
O O6 0.391294 0.448803 0.802617
O O7 0.569096 0.493433 0.823764
O O8 0.143656 0.750000 0.122411
O O9 0.675031 0.250000 0.939215
O O10 0.736499 0.341400 0.705834
O O11 0.785018 0.426999 0.459958
O O12 0.727029 0.526328 0.682576
#
# Coordination Sequence:
#
# PCOD8254410 Si02
#       7
#     4   8   4   4   8   4   8
#     4  12  27  44  65 108 147 167 241 305 338 401
#     4  10  22  46  74  94 139 191 230 275 368 424
#     4   9  24  45  67 107 142 181 227 295 333 421
#     4  11  20  43  75 103 134 188 230 287 356 430
#     4  11  24  43  71 103 137 186 236 288 353 420
#     4  10  21  44  75  94 139 188 228 279 365 418
#     4  12  26  45  70 105 141 184 235 292 349 420
#
# _framework density 21.960442
#
# number of rings (size 3 to 8) (size 9 to 14) (size 15 to 20)
#    0.000    1.200    4.000    1.800    5.600    0.800 
#    0.000    1.000    0.000    0.000    0.000    0.000 
#    0.000    0.000    0.000    0.000    0.000    0.000 
#
# Total GULP energy -496080.828485 kJ/mol
# GULP energy per Si atom -12402.020712 kJ/mol
# Density = 2.191046 g / cm^3
# Si number density = 21.960442 Si / 1000 Ang^3
#
#
#
# Elastic Constant Matrix: (Units=GPa)
#
#
# Indices 1 2 3 4 5 6 
#
# 1 53.7071 24.4629 -0.2221 0.0000 0.0000 0.0000
# 2 24.4629 131.9984 28.7284 0.0000 0.0000 0.0000
# 3 -0.2221 28.7284 146.9421 0.0000 0.0000 0.0000
# 4 0.0000 0.0000 0.0000 25.4343 0.0000 0.0000
# 5 0.0000 0.0000 0.0000 0.0000 35.8136 0.0000
# 6 0.0000 0.0000 0.0000 0.0000 0.0000 33.1225
#
#
#
# Elastic Compliance Matrix: (Units=1/GPa)
#
#
# Indices 1 2 3 4 5 6 
#
# 1 0.020427 -0.003961 0.000805 0.000000 0.000000 0.000000
# 2 -0.003961 0.008681 -0.001703 0.000000 0.000000 0.000000
# 3 0.000805 -0.001703 0.007140 0.000000 0.000000 0.000000
# 4 0.000000 0.000000 0.000000 0.039317 0.000000 0.000000
# 5 0.000000 0.000000 0.000000 0.000000 0.027922 0.000000
# 6 0.000000 0.000000 0.000000 0.000000 0.000000 0.030191
#
#
# Mechanical properties :
#
#
# Convention : Reuss Voigt Hill
#
# Bulk Modulus (GPa) = 37.69370 48.73177 43.21273
# Shear Modulus (GPa) = 32.84325 37.51930 35.18128
#
# Velocity S-wave (km/s) = 3.87145 4.13788 4.00688
# Velocity P-wave (km/s) = 6.09801 6.71329 6.41303
#
# Compressibility (1/GPa) = 0.02652963
#
# Stress axis : x y z
#
# Youngs Moduli (GPa) = 48.95474 115.19945 140.06401
#
# Poissons Ratio (x) = 0.45630 -0.11279
# Poissons Ratio (y) = 0.19391 0.23855
# Poissons Ratio (z) = -0.03942 0.19620
#
# Static dielectric constant tensor:
#      x y z
#    x 3.889890 0.000000 0.000000 
#    y 0.000000 4.053930 0.000000 
#    z 0.000000 0.000000 3.972950 
# 
# 
# High freq. dielectric constant tensor:
#      x y z
#    x 1.865220 0.000000 0.000000 
#    y 0.000000 1.875030 0.000000 
#    z 0.000000 0.000000 1.857770 
# 
# From -- ./inp_files/6156.got.cif
#   From: 2010.03.12/outbox.cif.g09.slc.cpg/sg62_4_cif.got.tgz:6156.got - 2010.04.10 19:12:36.
