data_PCOD8254282
_publ_section_title
;
Structure prediction by ZEFSAII (Michael W. Deem and Ramdas Pophale) SiO2 
 PCOD8254282
Probable space group: P N M A
;
_chemical_formula_sum "Si O2"
_cell_formula_units_Z 40
_cell_length_a 14.883210
_cell_length_b 10.007810
_cell_length_c 11.806664
_cell_angle_alpha 90.000000
_cell_angle_beta 90.000000
_cell_angle_gamma 90.000000
_cell_volume 1758.582979
_symmetry_space_group_name_H-M "P N M A"
_symmetry_group_IT_number 62
_symmetry_cell_setting 'orthorhombic'
loop_
_space_group_symop_operation_xyz
x,y,z
1/2-x,-y,1/2+z
1/2+x,1/2-y,1/2-z
-x,1/2+y,-z
-x,-y,-z
1/2+x,y,1/2-z
1/2-x,1/2+y,1/2+z
x,1/2-y,z
loop_
_atom_site_type_symbol
_atom_site_label
_atom_site_fract_x
_atom_site_fract_y
_atom_site_fract_z
Si Si1 0.087423 0.970458 0.356721
Si Si2 0.393438 0.602414 0.092972
Si Si3 0.435415 0.604094 0.638132
Si Si4 0.723955 0.101864 0.696601
Si Si5 0.129579 0.903802 0.962251
O O1 0.168111 0.882893 0.303634
O O2 0.992763 0.892809 0.351452
O O3 0.110016 0.004902 0.486251
O O4 0.076689 0.098160 0.273823
O O5 0.368778 0.750000 0.050614
O O6 0.317971 0.555226 0.183182
O O7 0.400499 0.750000 0.596687
O O8 0.540009 0.590445 0.611064
O O9 0.382341 0.481817 0.580567
O O10 0.683695 0.250000 0.667108
O O11 0.704165 0.985729 0.606209
O O12 0.160052 0.750000 0.984838
#
# Coordination Sequence:
#
# PCOD8254282 Si02
#       5
#     8   8   8   8   8
#     4  11  23  41  68  99 131 183 227 277 336 409
#     4  10  23  44  67  95 136 178 222 278 339 407
#     4  10  21  40  65  95 131 173 221 277 336 398
#     4  11  24  43  66  98 133 173 226 279 337 402
#     4  10  22  40  64  95 130 174 224 277 337 398
#
# _framework density 22.745585999999999
#
# number of rings (size 3 to 8) (size 9 to 14) (size 15 to 20)
#    0.000    1.600    2.000    1.800    2.800    4.000 
#    0.000    1.000    0.000    0.000    0.000    0.000 
#    0.000    0.000    0.000    0.000    0.000    0.000 
#
# Total GULP energy -495723.236178 kJ/mol
# GULP energy per Si atom -12393.080904 kJ/mol
# Density = 2.269382 g / cm^3
# Si number density = 22.745586 Si / 1000 Ang^3
#
#
#
# Elastic Constant Matrix: (Units=GPa)
#
#
# Indices 1 2 3 4 5 6 
#
# 1 114.9626 24.4476 53.1316 0.0000 0.0000 0.0000
# 2 24.4476 131.5826 38.2316 0.0000 0.0000 0.0000
# 3 53.1316 38.2316 106.0862 0.0000 0.0000 0.0000
# 4 0.0000 0.0000 0.0000 21.9102 0.0000 0.0000
# 5 0.0000 0.0000 0.0000 0.0000 26.2245 0.0000
# 6 0.0000 0.0000 0.0000 0.0000 0.0000 13.1378
#
#
#
# Elastic Compliance Matrix: (Units=1/GPa)
#
#
# Indices 1 2 3 4 5 6 
#
# 1 0.011349 -0.000511 -0.005500 0.000000 0.000000 0.000000
# 2 -0.000511 0.008512 -0.002812 0.000000 0.000000 0.000000
# 3 -0.005500 -0.002812 0.013194 0.000000 0.000000 0.000000
# 4 0.000000 0.000000 0.000000 0.045641 0.000000 0.000000
# 5 0.000000 0.000000 0.000000 0.000000 0.038132 0.000000
# 6 0.000000 0.000000 0.000000 0.000000 0.000000 0.076117
#
#
# Mechanical properties :
#
#
# Convention : Reuss Voigt Hill
#
# Bulk Modulus (GPa) = 64.89196 64.91699 64.90447
# Shear Modulus (GPa) = 23.17760 28.04253 25.61007
#
# Velocity S-wave (km/s) = 3.19563 3.51505 3.35914
# Velocity P-wave (km/s) = 6.49673 6.71390 6.60621
#
# Compressibility (1/GPa) = 0.01541023
#
# Stress axis : x y z
#
# Youngs Moduli (GPa) = 88.11404 117.48667 75.79116
#
# Poissons Ratio (x) = 0.05999 0.41685
# Poissons Ratio (y) = 0.04499 0.21310
# Poissons Ratio (z) = 0.48462 0.33034
#
# Static dielectric constant tensor:
#      x y z
#    x 4.147080 0.000000 0.000000 
#    y 0.000000 3.941950 0.000000 
#    z 0.000000 0.000000 3.922190 
# 
# 
# High freq. dielectric constant tensor:
#      x y z
#    x 1.901770 0.000000 0.000000 
#    y 0.000000 1.887570 0.000000 
#    z 0.000000 0.000000 1.896640 
# 
# From -- ./inp_files/13008.got.cif
#   From: 2010.03.12/outbox.cif.g09.slc.cpg/sg62_7_cif.got.tgz:13008.got - 2010.04.10 19:12:36.
