data_PCOD8254490
_publ_section_title
;
Structure prediction by ZEFSAII (Michael W. Deem and Ramdas Pophale) SiO2 
 PCOD8254490
Probable space group: P N M A
;
_chemical_formula_sum "Si O2"
_cell_formula_units_Z 48
_cell_length_a 15.366965
_cell_length_b 8.676737
_cell_length_c 17.741193
_cell_angle_alpha 90.000000
_cell_angle_beta 90.000000
_cell_angle_gamma 90.000000
_cell_volume 2365.523987
_symmetry_space_group_name_H-M "P N M A"
_symmetry_group_IT_number 62
_symmetry_cell_setting 'orthorhombic'
loop_
_space_group_symop_operation_xyz
x,y,z
1/2-x,-y,1/2+z
1/2+x,1/2-y,1/2-z
-x,1/2+y,-z
-x,-y,-z
1/2+x,y,1/2-z
1/2-x,1/2+y,1/2+z
x,1/2-y,z
loop_
_atom_site_type_symbol
_atom_site_label
_atom_site_fract_x
_atom_site_fract_y
_atom_site_fract_z
Si Si1 0.416364 0.069519 0.538000
Si Si2 0.937120 0.430367 0.284683
Si Si3 0.752376 0.569127 0.041173
Si Si4 0.741453 0.570099 0.701908
Si Si5 0.419242 0.431204 0.043358
Si Si6 0.896453 0.431567 0.791349
O O1 0.426745 0.250000 0.536208
O O2 0.409760 0.010686 0.623459
O O3 0.500000 0.000000 0.500000
O O4 0.333475 0.022616 0.490251
O O5 0.960289 0.250000 0.280616
O O6 0.853251 0.469906 0.234621
O O7 0.918184 0.483609 0.369916
O O8 0.017927 0.529127 0.255970
O O9 0.767389 0.750000 0.030079
O O10 0.740451 0.531698 0.128696
O O11 0.668448 0.508978 0.995992
O O12 0.749025 0.750000 0.682163
O O13 0.813716 0.525941 0.762704
O O14 0.425549 0.250000 0.036281
O O15 0.500000 0.500000 0.000000
O O16 0.877866 0.250000 0.785814
#
# Coordination Sequence:
#
# PCOD8254490 Si02
#       6
#     8   8   8   8   8   8
#     4  11  24  41  62  89 121 159 202 248 301 361
#     4  10  22  40  61  85 115 154 198 241 290 352
#     4  11  23  40  62  89 122 157 197 248 302 356
#     4  11  23  40  63  89 119 158 202 246 296 357
#     4  10  22  39  59  85 116 152 193 238 291 349
#     4  11  24  40  60  89 122 156 197 247 300 353
#
# _framework density 20.291485999999999
#
# number of rings (size 3 to 8) (size 9 to 14) (size 15 to 20)
#    0.000    1.333    0.000    5.000    0.000   12.667 
#    0.000    0.000    0.000    0.000    0.000    0.000 
#    0.000    0.000    0.000    0.000    0.000    0.000 
#
# Total GULP energy -595528.668982 kJ/mol
# GULP energy per Si atom -12406.847270 kJ/mol
# Density = 2.024530 g / cm^3
# Si number density = 20.291486 Si / 1000 Ang^3
#
#
#
# Elastic Constant Matrix: (Units=GPa)
#
#
# Indices 1 2 3 4 5 6 
#
# 1 105.0556 15.5025 15.2388 0.0000 0.0000 0.0000
# 2 15.5025 25.1255 18.1850 0.0000 0.0000 0.0000
# 3 15.2388 18.1850 106.5911 0.0000 0.0000 0.0000
# 4 0.0000 0.0000 0.0000 35.3936 0.0000 0.0000
# 5 0.0000 0.0000 0.0000 0.0000 44.0507 0.0000
# 6 0.0000 0.0000 0.0000 0.0000 0.0000 35.1503
#
#
#
# Elastic Compliance Matrix: (Units=1/GPa)
#
#
# Indices 1 2 3 4 5 6 
#
# 1 0.010491 -0.006147 -0.000451 0.000000 0.000000 0.000000
# 2 -0.006147 0.049008 -0.007482 0.000000 0.000000 0.000000
# 3 -0.000451 -0.007482 0.010723 0.000000 0.000000 0.000000
# 4 0.000000 0.000000 0.000000 0.028254 0.000000 0.000000
# 5 0.000000 0.000000 0.000000 0.000000 0.022701 0.000000
# 6 0.000000 0.000000 0.000000 0.000000 0.000000 0.028449
#
#
# Mechanical properties :
#
#
# Convention : Reuss Voigt Hill
#
# Bulk Modulus (GPa) = 23.77451 37.18055 30.47753
# Shear Modulus (GPa) = 26.06789 35.44199 30.75494
#
# Velocity S-wave (km/s) = 3.58812 4.18382 3.89737
# Velocity P-wave (km/s) = 5.37662 6.45772 5.94181
#
# Compressibility (1/GPa) = 0.04206185
#
# Stress axis : x y z
#
# Youngs Moduli (GPa) = 95.31768 20.40478 93.26029
#
# Poissons Ratio (x) = 0.12542 0.04208
# Poissons Ratio (y) = 0.58587 0.69780
# Poissons Ratio (z) = 0.04301 0.15267
#
# Static dielectric constant tensor:
#      x y z
#    x 3.768040 0.000000 0.000000 
#    y 0.000000 3.646950 0.000000 
#    z 0.000000 0.000000 3.931190 
# 
# 
# High freq. dielectric constant tensor:
#      x y z
#    x 1.810180 0.000000 0.000000 
#    y 0.000000 1.793540 0.000000 
#    z 0.000000 0.000000 1.812500 
# 
# From -- ./inp_files/23658.got.cif
#   From: 2010.03.12/outbox.cif.g09.slc.cpg/sg62_12_cif.got.tgz:23658.got - 2010.04.10 19:12:36.
