data_PCOD8254452
_publ_section_title
;
Structure prediction by ZEFSAII (Michael W. Deem and Ramdas Pophale) SiO2 
 PCOD8254452
Probable space group: P N M A
;
_chemical_formula_sum "Si O2"
_cell_formula_units_Z 48
_cell_length_a 17.352820
_cell_length_b 14.328477
_cell_length_c 9.736669
_cell_angle_alpha 90.000000
_cell_angle_beta 90.000000
_cell_angle_gamma 90.000000
_cell_volume 2420.920339
_symmetry_space_group_name_H-M "P N M A"
_symmetry_group_IT_number 62
_symmetry_cell_setting 'orthorhombic'
loop_
_space_group_symop_operation_xyz
x,y,z
1/2-x,-y,1/2+z
1/2+x,1/2-y,1/2-z
-x,1/2+y,-z
-x,-y,-z
1/2+x,y,1/2-z
1/2-x,1/2+y,1/2+z
x,1/2-y,z
loop_
_atom_site_type_symbol
_atom_site_label
_atom_site_fract_x
_atom_site_fract_y
_atom_site_fract_z
Si Si1 0.876057 0.250000 0.396114
Si Si2 0.036888 0.250000 0.546675
Si Si3 0.327153 0.938517 0.690334
Si Si4 0.792741 0.750000 0.946776
Si Si5 0.574512 0.046280 0.555496
Si Si6 0.653759 0.548291 0.801908
Si Si7 0.422280 0.750000 0.364512
Si Si8 0.080509 0.048806 0.460185
O O1 0.797556 0.250000 0.484185
O O2 0.874240 0.343261 0.301392
O O3 0.946915 0.250000 0.502892
O O4 0.049720 0.250000 0.709091
O O5 0.078158 0.158985 0.487614
O O6 0.319320 0.830768 0.654699
O O7 0.356073 0.982942 0.547021
O O8 0.242492 0.970984 0.739939
O O9 0.392837 0.962231 0.802671
O O10 0.830068 0.750000 0.100305
O O11 0.549792 0.155324 0.562255
O O12 0.500000 0.000000 0.500000
O O13 0.596990 0.009080 0.704582
O O14 0.645677 0.503333 0.952292
O O15 0.000000 0.000000 0.500000
#
# Coordination Sequence:
#
# PCOD8254452 Si02
#       8
#     4   4   8   4   8   8   4   8
#     4  10  22  37  66  89 121 159 212 260 300 363
#     4  12  23  38  63  94 128 162 201 259 309 370
#     4  10  22  39  64  89 121 162 209 252 305 369
#     4   8  19  42  61  88 117 167 206 252 309 366
#     4  11  23  40  63  90 125 162 202 254 314 363
#     4  11  22  42  62  90 122 164 207 255 306 367
#     4  10  22  41  60  87 128 162 199 251 310 375
#     4  12  23  39  64  94 124 163 210 255 311 371
#
# _framework density 19.827169999999999
#
# number of rings (size 3 to 8) (size 9 to 14) (size 15 to 20)
#    0.000    1.333    3.333    2.500    0.000    0.667 
#    0.000    0.000    0.000    0.000    0.000    0.000 
#    0.000    0.000    0.000    0.000    0.000    0.000 
#
# Total GULP energy -594661.409073 kJ/mol
# GULP energy per Si atom -12388.779356 kJ/mol
# Density = 1.978204 g / cm^3
# Si number density = 19.827170 Si / 1000 Ang^3
#
#
#
# Elastic Constant Matrix: (Units=GPa)
#
#
# Indices 1 2 3 4 5 6 
#
# 1 101.1057 35.4576 40.2105 0.0000 0.0000 0.0000
# 2 35.4576 122.2568 24.9029 0.0000 0.0000 0.0000
# 3 40.2105 24.9029 100.9354 0.0000 0.0000 0.0000
# 4 0.0000 0.0000 0.0000 20.7374 0.0000 0.0000
# 5 0.0000 0.0000 0.0000 0.0000 41.2232 0.0000
# 6 0.0000 0.0000 0.0000 0.0000 0.0000 29.8103
#
#
#
# Elastic Compliance Matrix: (Units=1/GPa)
#
#
# Indices 1 2 3 4 5 6 
#
# 1 0.012583 -0.002767 -0.004330 0.000000 0.000000 0.000000
# 2 -0.002767 0.009221 -0.001173 0.000000 0.000000 0.000000
# 3 -0.004330 -0.001173 0.011922 0.000000 0.000000 0.000000
# 4 0.000000 0.000000 0.000000 0.048222 0.000000 0.000000
# 5 0.000000 0.000000 0.000000 0.000000 0.024258 0.000000
# 6 0.000000 0.000000 0.000000 0.000000 0.000000 0.033545
#
#
# Mechanical properties :
#
#
# Convention : Reuss Voigt Hill
#
# Bulk Modulus (GPa) = 58.18786 58.38221 58.28503
# Shear Modulus (GPa) = 30.86031 33.26931 32.06481
#
# Velocity S-wave (km/s) = 3.94949 4.10074 4.02582
# Velocity P-wave (km/s) = 7.08584 7.20631 7.14633
#
# Compressibility (1/GPa) = 0.01718572
#
# Stress axis : x y z
#
# Youngs Moduli (GPa) = 79.47036 108.44839 83.88115
#
# Poissons Ratio (x) = 0.30013 0.36322
# Poissons Ratio (y) = 0.21993 0.09835
# Poissons Ratio (z) = 0.34412 0.12716
#
# Static dielectric constant tensor:
#      x y z
#    x 3.779000 0.000000 0.000000 
#    y 0.000000 3.770360 0.000000 
#    z 0.000000 0.000000 3.320190 
# 
# 
# High freq. dielectric constant tensor:
#      x y z
#    x 1.776830 0.000000 0.000000 
#    y 0.000000 1.783670 0.000000 
#    z 0.000000 0.000000 1.765990 
# 
# From -- ./inp_files/7718.got.cif
#   From: 2010.03.12/outbox.cif.g09.slc.cpg/sg62_4_cif.got.tgz:7718.got - 2010.04.10 19:12:36.
