data_PCOD8254053
_publ_section_title
;
Structure prediction by ZEFSAII (Michael W. Deem and Ramdas Pophale) SiO2 
 PCOD8254053
Probable space group: P N M A
;
_chemical_formula_sum "Si O2"
_cell_formula_units_Z 40
_cell_length_a 18.994562
_cell_length_b 8.933742
_cell_length_c 10.595023
_cell_angle_alpha 90.000000
_cell_angle_beta 90.000000
_cell_angle_gamma 90.000000
_cell_volume 1797.896113
_symmetry_space_group_name_H-M "P N M A"
_symmetry_group_IT_number 62
_symmetry_cell_setting 'orthorhombic'
loop_
_space_group_symop_operation_xyz
x,y,z
1/2-x,-y,1/2+z
1/2+x,1/2-y,1/2-z
-x,1/2+y,-z
-x,-y,-z
1/2+x,y,1/2-z
1/2-x,1/2+y,1/2+z
x,1/2-y,z
loop_
_atom_site_type_symbol
_atom_site_label
_atom_site_fract_x
_atom_site_fract_y
_atom_site_fract_z
Si Si1 0.084395 0.926512 0.241637
Si Si2 0.707885 0.574390 0.634147
Si Si3 0.207570 0.072823 0.118093
Si Si4 0.579054 0.420959 0.732890
Si Si5 0.425978 0.577677 0.987204
O O1 0.095530 0.750000 0.242171
O O2 0.002553 0.970166 0.223319
O O3 0.129258 0.002832 0.130851
O O4 0.114834 0.993395 0.374373
O O5 0.715042 0.750000 0.613640
O O6 0.740955 0.494118 0.510653
O O7 0.747424 0.521279 0.760683
O O8 0.625793 0.527703 0.645177
O O9 0.203549 0.250000 0.106877
O O10 0.587140 0.250000 0.686963
O O11 0.609862 0.436965 0.875709
O O12 0.435304 0.750000 0.948291
O O13 0.500000 0.500000 0.000000
#
# Coordination Sequence:
#
# PCOD8254053 Si02
#       5
#     8   8   8   8   8
#     4  10  21  38  63  95 129 169 214 264 323 383
#     4  11  26  45  67  96 127 169 218 263 322 387
#     4  11  26  46  67  95 129 171 216 265 324 385
#     4   9  20  38  62  93 129 168 211 262 319 377
#     4   9  17  31  54  89 128 167 209 256 312 375
#
# _framework density 22.248225999999999
#
# number of rings (size 3 to 8) (size 9 to 14) (size 15 to 20)
#    0.000    2.000    0.000    3.600    2.800    8.800 
#    0.000    0.000    0.000    0.000    0.000    0.000 
#    0.000    0.000    0.000    0.000    0.000    0.000 
#
# Total GULP energy -495911.750081 kJ/mol
# GULP energy per Si atom -12397.793752 kJ/mol
# Density = 2.219759 g / cm^3
# Si number density = 22.248226 Si / 1000 Ang^3
#
#
#
# Elastic Constant Matrix: (Units=GPa)
#
#
# Indices 1 2 3 4 5 6 
#
# 1 70.7713 32.2863 49.9248 0.0000 0.0000 0.0000
# 2 32.2863 100.8337 65.7857 0.0000 0.0000 0.0000
# 3 49.9248 65.7857 145.8551 0.0000 0.0000 0.0000
# 4 0.0000 0.0000 0.0000 44.3046 0.0000 0.0000
# 5 0.0000 0.0000 0.0000 0.0000 34.4928 0.0000
# 6 0.0000 0.0000 0.0000 0.0000 0.0000 21.2399
#
#
#
# Elastic Compliance Matrix: (Units=1/GPa)
#
#
# Indices 1 2 3 4 5 6 
#
# 1 0.019105 -0.002623 -0.005357 0.000000 0.000000 0.000000
# 2 -0.002623 0.014412 -0.005603 0.000000 0.000000 0.000000
# 3 -0.005357 -0.005603 0.011217 0.000000 0.000000 0.000000
# 4 0.000000 0.000000 0.000000 0.022571 0.000000 0.000000
# 5 0.000000 0.000000 0.000000 0.000000 0.028992 0.000000
# 6 0.000000 0.000000 0.000000 0.000000 0.000000 0.047081
#
#
# Mechanical properties :
#
#
# Convention : Reuss Voigt Hill
#
# Bulk Modulus (GPa) = 56.91433 68.16150 62.53792
# Shear Modulus (GPa) = 28.34481 31.30501 29.82491
#
# Velocity S-wave (km/s) = 3.57322 3.75517 3.66533
# Velocity P-wave (km/s) = 6.53153 7.03599 6.78845
#
# Compressibility (1/GPa) = 0.01757027
#
# Stress axis : x y z
#
# Youngs Moduli (GPa) = 52.34157 69.38455 89.15268
#
# Poissons Ratio (x) = 0.18197 0.47756
# Poissons Ratio (y) = 0.13727 0.49951
# Poissons Ratio (z) = 0.28038 0.38875
#
# Static dielectric constant tensor:
#      x y z
#    x 3.810420 0.000000 0.000000 
#    y 0.000000 4.082310 0.000000 
#    z 0.000000 0.000000 4.499240 
# 
# 
# High freq. dielectric constant tensor:
#      x y z
#    x 1.864640 0.000000 0.000000 
#    y 0.000000 1.875210 0.000000 
#    z 0.000000 0.000000 1.884110 
# 
# From -- ./inp_files/13849.got.cif
#   From: 2010.03.12/outbox.cif.g09.slc.cpg/sg62_7_cif.got.tgz:13849.got - 2010.04.10 19:12:36.
