data_PCOD8254785
_publ_section_title
;
Structure prediction by ZEFSAII (Michael W. Deem and Ramdas Pophale) SiO2 
 PCOD8254785
Probable space group: P N M A
;
_chemical_formula_sum "Si O2"
_cell_formula_units_Z 64
_cell_length_a 12.347461
_cell_length_b 27.322343
_cell_length_c 9.234493
_cell_angle_alpha 90.000000
_cell_angle_beta 90.000000
_cell_angle_gamma 90.000000
_cell_volume 3115.363007
_symmetry_space_group_name_H-M "P N M A"
_symmetry_group_IT_number 62
_symmetry_cell_setting 'orthorhombic'
loop_
_space_group_symop_operation_xyz
x,y,z
1/2-x,-y,1/2+z
1/2+x,1/2-y,1/2-z
-x,1/2+y,-z
-x,-y,-z
1/2+x,y,1/2-z
1/2-x,1/2+y,1/2+z
x,1/2-y,z
loop_
_atom_site_type_symbol
_atom_site_label
_atom_site_fract_x
_atom_site_fract_y
_atom_site_fract_z
Si Si1 0.354316 0.472041 0.277239
Si Si2 0.063215 0.868622 0.706529
Si Si3 0.967655 0.305843 0.723101
Si Si4 0.547508 0.147101 0.500904
Si Si5 0.714680 0.807292 0.996780
Si Si6 0.014354 0.946233 0.163568
Si Si7 0.435827 0.889794 0.071690
Si Si8 0.247236 0.038777 0.555039
O O1 0.371649 0.414475 0.267683
O O2 0.457860 0.500624 0.342578
O O3 0.319851 0.494892 0.125900
O O4 0.255411 0.477859 0.389216
O O5 0.145418 0.829546 0.636335
O O6 0.979611 0.890435 0.590834
O O7 0.997347 0.844154 0.838962
O O8 0.002560 0.250000 0.712881
O O9 0.850997 0.315241 0.647340
O O10 0.968188 0.323033 0.890181
O O11 0.061372 0.334928 0.635719
O O12 0.670557 0.165915 0.510781
O O13 0.544684 0.090017 0.548303
O O14 0.732859 0.750000 0.965265
O O15 0.009737 0.923944 0.325136
O O16 0.138151 0.952959 0.127030
O O17 0.314027 0.909592 0.071552
#
# Coordination Sequence:
#
# PCOD8254785 Si02
#       8
#     8   8   8   8   8   8   8   8
#     4  11  26  38  63  92 128 174 215 268 325 391
#     4  11  25  41  65  94 139 168 217 273 331 392
#     4   9  20  43  68  94 125 162 218 274 328 395
#     4  11  23  40  69  97 130 172 218 272 333 392
#     4  10  24  45  69  97 131 175 219 272 345 403
#     4  10  23  41  60  91 129 166 221 272 313 387
#     4   9  23  39  62  92 124 172 210 261 326 390
#     4  11  24  40  63  91 130 169 222 262 326 388
#
# _framework density 20.543351999999999
#
# number of rings (size 3 to 8) (size 9 to 14) (size 15 to 20)
#    0.000    1.750    1.250    0.750    7.000   10.000 
#    0.000    0.000    0.000    0.750    0.000    0.000 
#    0.000    0.000    0.000    0.000    0.000    0.000 
#
# Total GULP energy -793566.946326 kJ/mol
# GULP energy per Si atom -12399.483536 kJ/mol
# Density = 2.049659 g / cm^3
# Si number density = 20.543352 Si / 1000 Ang^3
#
#
#
# Elastic Constant Matrix: (Units=GPa)
#
#
# Indices 1 2 3 4 5 6 
#
# 1 102.0817 34.2287 34.6962 0.0000 0.0000 0.0000
# 2 34.2287 86.9014 13.6662 0.0000 0.0000 0.0000
# 3 34.6962 13.6662 123.6507 0.0000 0.0000 0.0000
# 4 0.0000 0.0000 0.0000 18.7685 0.0000 0.0000
# 5 0.0000 0.0000 0.0000 0.0000 29.5463 0.0000
# 6 0.0000 0.0000 0.0000 0.0000 0.0000 27.8705
#
#
#
# Elastic Compliance Matrix: (Units=1/GPa)
#
#
# Indices 1 2 3 4 5 6 
#
# 1 0.012266 -0.004366 -0.002959 0.000000 0.000000 0.000000
# 2 -0.004366 0.013265 -0.000241 0.000000 0.000000 0.000000
# 3 -0.002959 -0.000241 0.008944 0.000000 0.000000 0.000000
# 4 0.000000 0.000000 0.000000 0.053281 0.000000 0.000000
# 5 0.000000 0.000000 0.000000 0.000000 0.033845 0.000000
# 6 0.000000 0.000000 0.000000 0.000000 0.000000 0.035880
#
#
# Mechanical properties :
#
#
# Convention : Reuss Voigt Hill
#
# Bulk Modulus (GPa) = 51.69916 53.09068 52.39492
# Shear Modulus (GPa) = 27.92348 30.57326 29.24837
#
# Velocity S-wave (km/s) = 3.69080 3.86195 3.77734
# Velocity P-wave (km/s) = 6.58659 6.76650 6.67715
#
# Compressibility (1/GPa) = 0.01934267
#
# Stress axis : x y z
#
# Youngs Moduli (GPa) = 81.52762 75.38737 111.80318
#
# Poissons Ratio (x) = 0.32913 0.33085
# Poissons Ratio (y) = 0.35594 0.02695
# Poissons Ratio (z) = 0.24126 0.01817
#
# Static dielectric constant tensor:
#      x y z
#    x 3.613600 0.000000 0.000000 
#    y 0.000000 3.812040 0.000000 
#    z 0.000000 0.000000 4.024180 
# 
# 
# High freq. dielectric constant tensor:
#      x y z
#    x 1.794210 0.000000 0.000000 
#    y 0.000000 1.806400 0.000000 
#    z 0.000000 0.000000 1.816120 
# 
# From -- ./inp_files/5521.got.cif
#   From: 2010.03.12/outbox.cif.g09.slc.cpg/sg62_3_cif.got.tgz:5521.got - 2010.04.10 19:12:36.
