data_PCOD8254652
_publ_section_title
;
Structure prediction by ZEFSAII (Michael W. Deem and Ramdas Pophale) SiO2 
 PCOD8254652
Probable space group: P N M A
;
_chemical_formula_sum "Si O2"
_cell_formula_units_Z 48
_cell_length_a 18.460300
_cell_length_b 8.644674
_cell_length_c 14.781528
_cell_angle_alpha 90.000000
_cell_angle_beta 90.000000
_cell_angle_gamma 90.000000
_cell_volume 2358.884654
_symmetry_space_group_name_H-M "P N M A"
_symmetry_group_IT_number 62
_symmetry_cell_setting 'orthorhombic'
loop_
_space_group_symop_operation_xyz
x,y,z
1/2-x,-y,1/2+z
1/2+x,1/2-y,1/2-z
-x,1/2+y,-z
-x,-y,-z
1/2+x,y,1/2-z
1/2-x,1/2+y,1/2+z
x,1/2-y,z
loop_
_atom_site_type_symbol
_atom_site_label
_atom_site_fract_x
_atom_site_fract_y
_atom_site_fract_z
Si Si1 0.173483 0.073188 0.888288
Si Si2 0.758863 0.071004 0.794505
Si Si3 0.079750 0.567552 0.246035
Si Si4 0.295770 0.071447 0.028184
Si Si5 0.935719 0.568948 0.558266
Si Si6 0.478019 0.430675 0.404593
O O1 0.145312 0.250000 0.890217
O O2 0.221923 0.041694 0.801156
O O3 0.106786 0.956328 0.887930
O O4 0.221347 0.036251 0.976107
O O5 0.755775 0.250000 0.823408
O O6 0.841297 0.011994 0.786966
O O7 0.715853 0.970490 0.867489
O O8 0.079111 0.750000 0.259465
O O9 0.058631 0.493012 0.340585
O O10 0.021403 0.518029 0.172842
O O11 0.318140 0.250000 0.018343
O O12 0.359180 0.969925 0.986393
O O13 0.945987 0.750000 0.561159
O O14 0.000000 0.500000 0.500000
O O15 0.500000 0.500000 0.500000
O O16 0.496215 0.250000 0.402002
#
# Coordination Sequence:
#
# PCOD8254652 Si02
#       6
#     8   8   8   8   8   8
#     4  10  22  43  66  92 129 171 214 265 322 384
#     4  10  22  41  66  95 127 168 212 261 324 387
#     4  11  23  45  71  98 133 172 216 270 329 388
#     4  11  23  42  67  96 130 168 215 268 322 383
#     4  12  26  44  67  95 131 174 220 268 325 391
#     4  12  26  43  65  97 132 174 220 268 325 386
#
# _framework density 20.348600000000001
#
# number of rings (size 3 to 8) (size 9 to 14) (size 15 to 20)
#    0.000    1.000    1.667    5.000    2.333    6.000 
#    0.000    0.000    0.000    0.000    0.000    0.000 
#    0.000    0.000    0.000    0.000    0.000    0.000 
#
# Total GULP energy -595566.784883 kJ/mol
# GULP energy per Si atom -12407.641352 kJ/mol
# Density = 2.030229 g / cm^3
# Si number density = 20.348600 Si / 1000 Ang^3
#
#
#
# Elastic Constant Matrix: (Units=GPa)
#
#
# Indices 1 2 3 4 5 6 
#
# 1 89.0227 36.3028 22.7835 0.0000 0.0000 0.0000
# 2 36.3028 95.4388 41.6471 0.0000 0.0000 0.0000
# 3 22.7835 41.6471 108.2938 0.0000 0.0000 0.0000
# 4 0.0000 0.0000 0.0000 36.9761 0.0000 0.0000
# 5 0.0000 0.0000 0.0000 0.0000 36.0150 0.0000
# 6 0.0000 0.0000 0.0000 0.0000 0.0000 34.9096
#
#
#
# Elastic Compliance Matrix: (Units=1/GPa)
#
#
# Indices 1 2 3 4 5 6 
#
# 1 0.013391 -0.004643 -0.001031 0.000000 0.000000 0.000000
# 2 -0.004643 0.014201 -0.004484 0.000000 0.000000 0.000000
# 3 -0.001031 -0.004484 0.011176 0.000000 0.000000 0.000000
# 4 0.000000 0.000000 0.000000 0.027045 0.000000 0.000000
# 5 0.000000 0.000000 0.000000 0.000000 0.027766 0.000000
# 6 0.000000 0.000000 0.000000 0.000000 0.000000 0.028645
#
#
# Mechanical properties :
#
#
# Convention : Reuss Voigt Hill
#
# Bulk Modulus (GPa) = 54.20408 54.91355 54.55882
# Shear Modulus (GPa) = 33.62659 34.38160 34.00410
#
# Velocity S-wave (km/s) = 4.06954 4.11497 4.09232
# Velocity P-wave (km/s) = 6.98406 7.04431 7.01425
#
# Compressibility (1/GPa) = 0.01844880
#
# Stress axis : x y z
#
# Youngs Moduli (GPa) = 74.67915 70.41715 89.47932
#
# Poissons Ratio (x) = 0.32697 0.09229
# Poissons Ratio (y) = 0.34676 0.40127
# Poissons Ratio (z) = 0.07703 0.31578
#
# Static dielectric constant tensor:
#      x y z
#    x 4.088170 0.000000 0.000000 
#    y 0.000000 3.861110 0.000000 
#    z 0.000000 0.000000 3.751400 
# 
# 
# High freq. dielectric constant tensor:
#      x y z
#    x 1.807170 0.000000 0.000000 
#    y 0.000000 1.799710 0.000000 
#    z 0.000000 0.000000 1.813240 
# 
# From -- ./inp_files/19628.got.cif
#   From: 2010.03.12/outbox.cif.g09.slc.cpg/sg62_10_cif.got.tgz:19628.got - 2010.04.10 19:12:36.
