data_PCOD8254405
_publ_section_title
;
Structure prediction by ZEFSAII (Michael W. Deem and Ramdas Pophale) SiO2 
 PCOD8254405
Probable space group: P N M A
;
_chemical_formula_sum "Si O2"
_cell_formula_units_Z 40
_cell_length_a 12.838412
_cell_length_b 15.271472
_cell_length_c 9.254418
_cell_angle_alpha 90.000000
_cell_angle_beta 90.000000
_cell_angle_gamma 90.000000
_cell_volume 1814.434606
_symmetry_space_group_name_H-M "P N M A"
_symmetry_group_IT_number 62
_symmetry_cell_setting 'orthorhombic'
loop_
_space_group_symop_operation_xyz
x,y,z
1/2-x,-y,1/2+z
1/2+x,1/2-y,1/2-z
-x,1/2+y,-z
-x,-y,-z
1/2+x,y,1/2-z
1/2-x,1/2+y,1/2+z
x,1/2-y,z
loop_
_atom_site_type_symbol
_atom_site_label
_atom_site_fract_x
_atom_site_fract_y
_atom_site_fract_z
Si Si1 0.829303 0.437363 0.700198
Si Si2 0.059013 0.750000 0.614951
Si Si3 0.637008 0.750000 0.572418
Si Si4 0.235791 0.750000 0.404175
Si Si5 0.467796 0.610945 0.085927
Si Si6 0.740879 0.571523 0.502137
Si Si7 0.464320 0.750000 0.332853
O O1 0.800973 0.334778 0.685808
O O2 0.940227 0.459933 0.620638
O O3 0.740286 0.498095 0.627124
O O4 0.836190 0.457287 0.871887
O O5 0.063324 0.750000 0.787175
O O6 0.178582 0.750000 0.558532
O O7 0.997777 0.834926 0.557582
O O8 0.710690 0.664708 0.570979
O O9 0.562878 0.750000 0.435663
O O10 0.359142 0.750000 0.428510
O O11 0.354618 0.571489 0.069659
O O12 0.467871 0.666415 0.231969
#
# Coordination Sequence:
#
# PCOD8254405 Si02
#       7
#     8   4   4   4   8   8   4
#     4  11  24  43  68 100 131 176 223 273 332 406
#     4   9  23  39  67  98 131 175 220 275 336 384
#     4  12  25  44  67  99 138 174 228 278 332 404
#     4  10  21  43  71  89 135 174 219 267 339 391
#     4  10  21  43  69  96 130 177 224 275 330 404
#     4  12  25  43  70 100 135 178 224 277 339 404
#     4  11  19  40  75  98 120 179 233 264 327 407
#
# _framework density 22.045435999999999
#
# number of rings (size 3 to 8) (size 9 to 14) (size 15 to 20)
#    0.000    1.200    4.000    3.000    5.600    1.600 
#    0.000    2.000    0.000    0.000    0.000    0.000 
#    0.000    0.000    0.000    0.000    0.000    0.000 
#
# Total GULP energy -495962.790805 kJ/mol
# GULP energy per Si atom -12399.069770 kJ/mol
# Density = 2.199526 g / cm^3
# Si number density = 22.045436 Si / 1000 Ang^3
#
#
#
# Elastic Constant Matrix: (Units=GPa)
#
#
# Indices 1 2 3 4 5 6 
#
# 1 83.1551 2.6890 1.4526 0.0000 0.0000 0.0000
# 2 2.6890 56.9434 22.2446 0.0000 0.0000 0.0000
# 3 1.4526 22.2446 104.3512 0.0000 0.0000 0.0000
# 4 0.0000 0.0000 0.0000 13.1957 0.0000 0.0000
# 5 0.0000 0.0000 0.0000 0.0000 27.2406 0.0000
# 6 0.0000 0.0000 0.0000 0.0000 0.0000 25.4527
#
#
#
# Elastic Compliance Matrix: (Units=1/GPa)
#
#
# Indices 1 2 3 4 5 6 
#
# 1 0.012044 -0.000549 -0.000051 0.000000 0.000000 0.000000
# 2 -0.000549 0.019182 -0.004081 0.000000 0.000000 0.000000
# 3 -0.000051 -0.004081 0.010454 0.000000 0.000000 0.000000
# 4 0.000000 0.000000 0.000000 0.075782 0.000000 0.000000
# 5 0.000000 0.000000 0.000000 0.000000 0.036710 0.000000
# 6 0.000000 0.000000 0.000000 0.000000 0.000000 0.039289
#
#
# Mechanical properties :
#
#
# Convention : Reuss Voigt Hill
#
# Bulk Modulus (GPa) = 30.94268 33.02467 31.98368
# Shear Modulus (GPa) = 23.40881 27.71538 25.56210
#
# Velocity S-wave (km/s) = 3.26213 3.54954 3.40886
# Velocity P-wave (km/s) = 5.31554 5.64019 5.48027
#
# Compressibility (1/GPa) = 0.03231782
#
# Stress axis : x y z
#
# Youngs Moduli (GPa) = 83.02644 52.13344 95.65951
#
# Poissons Ratio (x) = 0.02862 0.00484
# Poissons Ratio (y) = 0.04558 0.39041
# Poissons Ratio (z) = 0.00420 0.21277
#
# Static dielectric constant tensor:
#      x y z
#    x 4.242920 0.000000 0.000000 
#    y 0.000000 4.035290 0.000000 
#    z 0.000000 0.000000 3.867580 
# 
# 
# High freq. dielectric constant tensor:
#      x y z
#    x 1.870340 0.000000 0.000000 
#    y 0.000000 1.859070 0.000000 
#    z 0.000000 0.000000 1.863120 
# 
# From -- ./inp_files/5091.got.cif
#   From: 2010.03.12/outbox.cif.g09.slc.cpg/sg62_3_cif.got.tgz:5091.got - 2010.04.10 19:12:36.
