data_PCOD8254436
_publ_section_title
;
Structure prediction by ZEFSAII (Michael W. Deem and Ramdas Pophale) SiO2 
 PCOD8254436
Probable space group: P N M A
;
_chemical_formula_sum "Si O2"
_cell_formula_units_Z 64
_cell_length_a 9.439540
_cell_length_b 28.363400
_cell_length_c 14.037755
_cell_angle_alpha 90.000000
_cell_angle_beta 90.000000
_cell_angle_gamma 90.000000
_cell_volume 3758.432711
_symmetry_space_group_name_H-M "P N M A"
_symmetry_group_IT_number 62
_symmetry_cell_setting 'orthorhombic'
loop_
_space_group_symop_operation_xyz
x,y,z
1/2-x,-y,1/2+z
1/2+x,1/2-y,1/2-z
-x,1/2+y,-z
-x,-y,-z
1/2+x,y,1/2-z
1/2-x,1/2+y,1/2+z
x,1/2-y,z
loop_
_atom_site_type_symbol
_atom_site_label
_atom_site_fract_x
_atom_site_fract_y
_atom_site_fract_z
Si Si1 0.537148 0.196345 0.149571
Si Si2 0.708664 0.118230 0.078417
Si Si3 0.388417 0.533021 0.449095
Si Si4 0.139888 0.475289 0.532619
Si Si5 0.460447 0.883507 0.566683
Si Si6 0.209244 0.196405 0.155284
Si Si7 0.407295 0.998258 0.235559
Si Si8 0.346050 0.561443 0.742442
O O1 0.542390 0.250000 0.113539
O O2 0.612073 0.165239 0.065634
O O3 0.373722 0.181073 0.168113
O O4 0.626667 0.190612 0.246098
O O5 0.661368 0.103749 0.183951
O O6 0.874257 0.130401 0.068304
O O7 0.667369 0.076538 0.007564
O O8 0.500000 0.500000 0.500000
O O9 0.245922 0.515064 0.496248
O O10 0.420555 0.588280 0.470072
O O11 0.387106 0.528805 0.334843
O O12 0.139946 0.466076 0.646540
O O13 0.000000 0.500000 0.500000
O O14 0.365020 0.836714 0.576114
O O15 0.425245 0.920817 0.649010
O O16 0.198864 0.250000 0.118218
O O17 0.568948 0.015383 0.220678
O O18 0.315099 0.045857 0.228004
#
# Coordination Sequence:
#
# PCOD8254436 Si02
#       8
#     8   8   8   8   8   8   8   8
#     4  10  22  37  55  79 109 140 180 230 279 335
#     4  12  23  35  51  81 108 146 190 221 275 325
#     4  12  21  38  52  75 110 151 187 222 273 322
#     4  12  23  34  52  81 110 145 191 231 270 325
#     4  12  23  34  55  76 108 150 186 224 269 331
#     4  10  22  37  55  80 107 141 182 229 280 335
#     4  12  22  36  52  72 112 150 188 226 264 312
#     4  12  20  32  51  74 104 148 181 217 261 317
#
# _framework density 17.028373999999999
#
# number of rings (size 3 to 8) (size 9 to 14) (size 15 to 20)
#    0.000    0.500    8.750    0.750    3.500    1.500 
#    0.000    0.000    0.000    0.000    0.000    0.875 
#    0.000    0.000    0.000    0.000    0.000    0.000 
#
# Total GULP energy -793271.310819 kJ/mol
# GULP energy per Si atom -12394.864232 kJ/mol
# Density = 1.698962 g / cm^3
# Si number density = 17.028374 Si / 1000 Ang^3
#
#
#
# Elastic Constant Matrix: (Units=GPa)
#
#
# Indices 1 2 3 4 5 6 
#
# 1 132.7459 50.9234 38.7776 0.0000 0.0000 0.0000
# 2 50.9234 101.8653 34.1712 0.0000 0.0000 0.0000
# 3 38.7776 34.1712 80.8105 0.0000 0.0000 0.0000
# 4 0.0000 0.0000 0.0000 24.9071 0.0000 0.0000
# 5 0.0000 0.0000 0.0000 0.0000 17.7413 0.0000
# 6 0.0000 0.0000 0.0000 0.0000 0.0000 31.5716
#
#
#
# Elastic Compliance Matrix: (Units=1/GPa)
#
#
# Indices 1 2 3 4 5 6 
#
# 1 0.009950 -0.003930 -0.003113 0.000000 0.000000 0.000000
# 2 -0.003930 0.012992 -0.003608 0.000000 0.000000 0.000000
# 3 -0.003113 -0.003608 0.015394 0.000000 0.000000 0.000000
# 4 0.000000 0.000000 0.000000 0.040149 0.000000 0.000000
# 5 0.000000 0.000000 0.000000 0.000000 0.056366 0.000000
# 6 0.000000 0.000000 0.000000 0.000000 0.000000 0.031674
#
#
# Mechanical properties :
#
#
# Convention : Reuss Voigt Hill
#
# Bulk Modulus (GPa) = 58.70407 62.57400 60.63903
# Shear Modulus (GPa) = 25.83924 27.61396 26.72660
#
# Velocity S-wave (km/s) = 3.89964 4.03133 3.96603
# Velocity P-wave (km/s) = 7.40441 7.64824 7.52731
#
# Compressibility (1/GPa) = 0.01703459
#
# Stress axis : x y z
#
# Youngs Moduli (GPa) = 100.50159 76.97190 64.96062
#
# Poissons Ratio (x) = 0.30249 0.20221
# Poissons Ratio (y) = 0.39496 0.23437
# Poissons Ratio (z) = 0.31285 0.27770
#
# Static dielectric constant tensor:
#      x y z
#    x 3.401760 0.000000 0.000000 
#    y 0.000000 3.222290 0.000000 
#    z 0.000000 0.000000 3.702950 
# 
# 
# High freq. dielectric constant tensor:
#      x y z
#    x 1.685710 0.000000 0.000000 
#    y 0.000000 1.642570 0.000000 
#    z 0.000000 0.000000 1.622390 
# 
# From -- ./inp_files/17438.got.cif
#   From: 2010.03.12/outbox.cif.g09.slc.cpg/sg62_9_cif.got.tgz:17438.got - 2010.04.10 19:12:36.
