data_PCOD8254761
_publ_section_title
;
Structure prediction by ZEFSAII (Michael W. Deem and Ramdas Pophale) SiO2 
 PCOD8254761
Probable space group: P N M A
;
_chemical_formula_sum "Si O2"
_cell_formula_units_Z 48
_cell_length_a 8.095743
_cell_length_b 15.275799
_cell_length_c 19.865689
_cell_angle_alpha 90.000000
_cell_angle_beta 90.000000
_cell_angle_gamma 90.000000
_cell_volume 2456.768757
_symmetry_space_group_name_H-M "P N M A"
_symmetry_group_IT_number 62
_symmetry_cell_setting 'orthorhombic'
loop_
_space_group_symop_operation_xyz
x,y,z
1/2-x,-y,1/2+z
1/2+x,1/2-y,1/2-z
-x,1/2+y,-z
-x,-y,-z
1/2+x,y,1/2-z
1/2-x,1/2+y,1/2+z
x,1/2-y,z
loop_
_atom_site_type_symbol
_atom_site_label
_atom_site_fract_x
_atom_site_fract_y
_atom_site_fract_z
Si Si1 0.133069 0.556451 0.269678
Si Si2 0.640996 0.149565 0.956504
Si Si3 0.009277 0.901450 0.023477
Si Si4 0.848732 0.001936 0.349169
Si Si5 0.923686 0.851598 0.167019
Si Si6 0.677464 0.848610 0.955550
O O1 0.217536 0.500768 0.211045
O O2 0.246571 0.604785 0.323609
O O3 0.025916 0.488377 0.313321
O O4 0.024252 0.632958 0.235585
O O5 0.625082 0.250000 0.932127
O O6 0.812350 0.138268 0.999566
O O7 0.651019 0.087371 0.891919
O O8 0.480215 0.122331 0.999849
O O9 0.011777 0.898609 0.104419
O O10 0.849792 0.849517 0.996534
O O11 0.000000 0.000000 0.000000
O O12 0.808223 0.086615 0.392982
O O13 0.906062 0.750000 0.151060
O O14 0.649569 0.750000 0.929213
#
# Coordination Sequence:
#
# PCOD8254761 Si02
#       6
#     8   8   8   8   8   8
#     4  10  23  36  59  83 116 164 201 243 304 359
#     4  11  23  39  64  96 126 160 201 250 311 371
#     4  12  23  38  63  91 127 162 197 253 311 363
#     4  11  22  42  60  86 123 158 203 254 301 364
#     4  11  21  36  55  86 121 156 201 245 297 368
#     4  11  24  42  65  92 121 161 207 256 310 363
#
# _framework density 19.537858
#
# number of rings (size 3 to 8) (size 9 to 14) (size 15 to 20)
#    0.000    1.000    3.333    3.500    2.333    4.667 
#    0.000    0.833    0.000    0.000    0.000    0.000 
#    0.000    0.000    0.000    0.000    0.000    0.000 
#
# Total GULP energy -595147.412050 kJ/mol
# GULP energy per Si atom -12398.904418 kJ/mol
# Density = 1.949339 g / cm^3
# Si number density = 19.537858 Si / 1000 Ang^3
#
#
#
# Elastic Constant Matrix: (Units=GPa)
#
#
# Indices 1 2 3 4 5 6 
#
# 1 146.4349 16.7853 35.1415 0.0000 0.0000 0.0000
# 2 16.7853 86.2137 35.4132 0.0000 0.0000 0.0000
# 3 35.1415 35.4132 72.1695 0.0000 0.0000 0.0000
# 4 0.0000 0.0000 0.0000 15.1858 0.0000 0.0000
# 5 0.0000 0.0000 0.0000 0.0000 56.3980 0.0000
# 6 0.0000 0.0000 0.0000 0.0000 0.0000 22.4419
#
#
#
# Elastic Compliance Matrix: (Units=1/GPa)
#
#
# Indices 1 2 3 4 5 6 
#
# 1 0.007733 0.000051 -0.003791 0.000000 0.000000 0.000000
# 2 0.000051 0.014527 -0.007154 0.000000 0.000000 0.000000
# 3 -0.003791 -0.007154 0.019212 0.000000 0.000000 0.000000
# 4 0.000000 0.000000 0.000000 0.065851 0.000000 0.000000
# 5 0.000000 0.000000 0.000000 0.000000 0.017731 0.000000
# 6 0.000000 0.000000 0.000000 0.000000 0.000000 0.044560
#
#
# Mechanical properties :
#
#
# Convention : Reuss Voigt Hill
#
# Bulk Modulus (GPa) = 50.79477 53.27757 52.03617
# Shear Modulus (GPa) = 25.25738 33.30367 29.28053
#
# Velocity S-wave (km/s) = 3.59937 4.13312 3.87545
# Velocity P-wave (km/s) = 6.58244 7.07849 6.83497
#
# Compressibility (1/GPa) = 0.01968707
#
# Stress axis : x y z
#
# Youngs Moduli (GPa) = 129.32038 68.83500 52.05006
#
# Poissons Ratio (x) = -0.00354 0.19730
# Poissons Ratio (y) = -0.00666 0.37235
# Poissons Ratio (z) = 0.49020 0.49242
#
# Static dielectric constant tensor:
#      x y z
#    x 3.941430 0.000000 0.000000 
#    y 0.000000 3.329280 0.000000 
#    z 0.000000 0.000000 3.242260 
# 
# 
# High freq. dielectric constant tensor:
#      x y z
#    x 1.792130 0.000000 0.000000 
#    y 0.000000 1.743000 0.000000 
#    z 0.000000 0.000000 1.749590 
# 
# From -- ./inp_files/22211.got.cif
#   From: 2010.03.12/outbox.cif.g09.slc.cpg/sg62_12_cif.got.tgz:22211.got - 2010.04.10 19:12:36.
