data_PCOD8254864
_publ_section_title
;
Structure prediction by ZEFSAII (Michael W. Deem and Ramdas Pophale) SiO2 
 PCOD8254864
Probable space group: P N M A
;
_chemical_formula_sum "Si O2"
_cell_formula_units_Z 56
_cell_length_a 23.863958
_cell_length_b 21.825017
_cell_length_c 4.982882
_cell_angle_alpha 90.000000
_cell_angle_beta 90.000000
_cell_angle_gamma 90.000000
_cell_volume 2595.240855
_symmetry_space_group_name_H-M "P N M A"
_symmetry_group_IT_number 62
_symmetry_cell_setting 'orthorhombic'
loop_
_space_group_symop_operation_xyz
x,y,z
1/2-x,-y,1/2+z
1/2+x,1/2-y,1/2-z
-x,1/2+y,-z
-x,-y,-z
1/2+x,y,1/2-z
1/2-x,1/2+y,1/2+z
x,1/2-y,z
loop_
_atom_site_type_symbol
_atom_site_label
_atom_site_fract_x
_atom_site_fract_y
_atom_site_fract_z
Si Si1 0.438465 0.250000 0.569928
Si Si2 0.491107 0.750000 0.933102
Si Si3 0.663951 0.321653 0.579353
Si Si4 0.187306 0.953888 0.073663
Si Si5 0.404815 0.851849 0.925559
Si Si6 0.497286 0.071781 0.990320
Si Si7 0.744812 0.077955 0.426951
Si Si8 0.427928 0.386731 0.492075
O O1 0.453649 0.250000 0.883619
O O2 0.406741 0.315094 0.511974
O O3 0.493471 0.250000 0.380816
O O4 0.454501 0.807514 0.015417
O O5 0.677016 0.250000 0.584210
O O6 0.647695 0.345365 0.875104
O O7 0.720236 0.355415 0.487615
O O8 0.614022 0.337328 0.375413
O O9 0.203913 0.935674 0.374483
O O10 0.124033 0.933048 0.023645
O O11 0.194837 0.027554 0.041186
O O12 0.230188 0.920844 0.871098
O O13 0.436448 0.916204 0.951859
O O14 0.455712 0.102865 0.203990
O O15 0.476060 0.096980 0.705245
O O16 0.500000 0.000000 0.000000
#
# Coordination Sequence:
#
# PCOD8254864 Si02
#       8
#     4   4   8   8   8   8   8   8
#     4  12  22  40  62  89 124 175 206 254 304 372
#     4  12  20  40  60  83 132 171 210 238 286 386
#     4  12  24  39  64  96 124 163 205 255 319 371
#     4  10  23  44  67  88 116 162 210 256 313 368
#     4  12  23  38  61  89 127 168 202 242 306 373
#     4  12  27  40  62  98 133 166 209 261 303 365
#     4  10  23  44  65  89 118 158 209 261 313 365
#     4  12  24  43  65  94 127 166 214 256 315 376
#
# _framework density 21.577959
#
# number of rings (size 3 to 8) (size 9 to 14) (size 15 to 20)
#    0.000    0.571    4.286    3.857    4.000    0.000 
#    2.571    0.000    0.000    0.000    0.000    0.000 
#    0.000    0.000    0.000    0.000    0.000    0.000 
#
# Total GULP energy -694391.964413 kJ/mol
# GULP energy per Si atom -12399.856507 kJ/mol
# Density = 2.152885 g / cm^3
# Si number density = 21.577959 Si / 1000 Ang^3
#
#
#
# Elastic Constant Matrix: (Units=GPa)
#
#
# Indices 1 2 3 4 5 6 
#
# 1 52.3453 11.6433 0.8830 0.0000 0.0000 0.0000
# 2 11.6433 116.4986 5.4981 0.0000 0.0000 0.0000
# 3 0.8830 5.4981 75.8104 0.0000 0.0000 0.0000
# 4 0.0000 0.0000 0.0000 29.0075 0.0000 0.0000
# 5 0.0000 0.0000 0.0000 0.0000 17.7561 0.0000
# 6 0.0000 0.0000 0.0000 0.0000 0.0000 1430.6676
#
#
#
# Elastic Compliance Matrix: (Units=1/GPa)
#
#
# Indices 1 2 3 4 5 6 
#
# 1 0.019539 -0.001949 -0.000086 0.000000 0.000000 0.000000
# 2 -0.001949 0.008808 -0.000616 0.000000 0.000000 0.000000
# 3 -0.000086 -0.000616 0.013236 0.000000 0.000000 0.000000
# 4 0.000000 0.000000 0.000000 0.034474 0.000000 0.000000
# 5 0.000000 0.000000 0.000000 0.000000 0.056319 0.000000
# 6 0.000000 0.000000 0.000000 0.000000 0.000000 0.000699
#
#
# Mechanical properties :
#
#
# Convention : Reuss Voigt Hill
#
# Bulk Modulus (GPa) = 27.56275 31.18925 29.37600
# Shear Modulus (GPa) = 33.22921 310.59491 171.91206
#
# Velocity S-wave (km/s) = 3.92849 12.01055 8.93550
# Velocity P-wave (km/s) = 5.77743 14.38135 10.95906
#
# Compressibility (1/GPa) = 0.03628085
#
# Stress axis : x y z
#
# Youngs Moduli (GPa) = 51.18016 113.53793 75.54880
#
# Poissons Ratio (x) = 0.22125 0.00652
# Poissons Ratio (y) = 0.09974 0.04654
# Poissons Ratio (z) = 0.00441 0.06995
#
# Static dielectric constant tensor:
#      x y z
#    x 3.522680 0.000000 0.000000 
#    y 0.000000 4.017610 0.000000 
#    z 0.000000 0.000000 4.100590 
# 
# 
# High freq. dielectric constant tensor:
#      x y z
#    x 1.819110 0.000000 0.000000 
#    y 0.000000 1.859580 0.000000 
#    z 0.000000 0.000000 1.866200 
# 
# From -- ./inp_files/2839.got.cif
#   From: 2010.03.12/outbox.cif.g09.slc.cpg/sg62_2_cif.got.tgz:2839.got - 2010.04.10 19:12:36.
