data_PCOD8254224
_publ_section_title
;
Structure prediction by ZEFSAII (Michael W. Deem and Ramdas Pophale) SiO2 
 PCOD8254224
Probable space group: P N M A
;
_chemical_formula_sum "Si O2"
_cell_formula_units_Z 48
_cell_length_a 14.636618
_cell_length_b 9.124915
_cell_length_c 18.534428
_cell_angle_alpha 90.000000
_cell_angle_beta 90.000000
_cell_angle_gamma 90.000000
_cell_volume 2475.419191
_symmetry_space_group_name_H-M "P N M A"
_symmetry_group_IT_number 62
_symmetry_cell_setting 'orthorhombic'
loop_
_space_group_symop_operation_xyz
x,y,z
1/2-x,-y,1/2+z
1/2+x,1/2-y,1/2-z
-x,1/2+y,-z
-x,-y,-z
1/2+x,y,1/2-z
1/2-x,1/2+y,1/2+z
x,1/2-y,z
loop_
_atom_site_type_symbol
_atom_site_label
_atom_site_fract_x
_atom_site_fract_y
_atom_site_fract_z
Si Si1 0.092466 0.578424 0.020629
Si Si2 0.340873 0.078868 0.676509
Si Si3 0.005868 0.419234 0.720085
Si Si4 0.745205 0.078877 0.085918
Si Si5 0.058329 0.578018 0.439171
Si Si6 0.812397 0.421992 0.244174
O O1 0.072946 0.750000 0.020323
O O2 0.123240 0.524772 0.099401
O O3 0.169783 0.534831 0.963705
O O4 0.000000 0.500000 0.000000
O O5 0.317343 0.250000 0.675504
O O6 0.414537 0.038834 0.737161
O O7 0.247661 0.993735 0.692919
O O8 0.031435 0.250000 0.732464
O O9 0.085500 0.518223 0.751878
O O10 0.990327 0.455295 0.636570
O O11 0.721153 0.250000 0.078386
O O12 0.769910 0.035650 0.167283
O O13 0.659979 0.984954 0.059601
O O14 0.063306 0.750000 0.454895
O O15 0.000000 0.500000 0.500000
O O16 0.815415 0.250000 0.256214
#
# Coordination Sequence:
#
# PCOD8254224 Si02
#       6
#     8   8   8   8   8   8
#     4  10  22  39  62  89 120 156 195 244 297 355
#     4  10  21  40  62  87 118 155 201 245 293 358
#     4  10  22  40  62  86 117 158 201 247 299 359
#     4  10  22  41  61  89 126 161 198 245 305 359
#     4  11  24  41  62  88 121 162 206 253 301 359
#     4  11  23  37  60  90 121 156 196 250 302 352
#
# _framework density 19.390656
#
# number of rings (size 3 to 8) (size 9 to 14) (size 15 to 20)
#    0.000    1.667    1.667    2.000    2.333    4.000 
#    0.000    0.000    0.000    0.000    0.000    0.000 
#    0.000    0.000    0.000    0.000    0.000    0.000 
#
# Total GULP energy -595512.010351 kJ/mol
# GULP energy per Si atom -12406.500216 kJ/mol
# Density = 1.934652 g / cm^3
# Si number density = 19.390656 Si / 1000 Ang^3
#
#
#
# Elastic Constant Matrix: (Units=GPa)
#
#
# Indices 1 2 3 4 5 6 
#
# 1 101.8088 54.3735 31.4096 0.0000 0.0000 0.0000
# 2 54.3735 69.1295 41.1269 0.0000 0.0000 0.0000
# 3 31.4096 41.1269 92.7276 0.0000 0.0000 0.0000
# 4 0.0000 0.0000 0.0000 29.2693 0.0000 0.0000
# 5 0.0000 0.0000 0.0000 0.0000 34.7366 0.0000
# 6 0.0000 0.0000 0.0000 0.0000 0.0000 43.4511
#
#
#
# Elastic Compliance Matrix: (Units=1/GPa)
#
#
# Indices 1 2 3 4 5 6 
#
# 1 0.016941 -0.013463 0.000233 0.000000 0.000000 0.000000
# 2 -0.013463 0.030350 -0.008901 0.000000 0.000000 0.000000
# 3 0.000233 -0.008901 0.014653 0.000000 0.000000 0.000000
# 4 0.000000 0.000000 0.000000 0.034166 0.000000 0.000000
# 5 0.000000 0.000000 0.000000 0.000000 0.028788 0.000000
# 6 0.000000 0.000000 0.000000 0.000000 0.000000 0.023014
#
#
# Mechanical properties :
#
#
# Convention : Reuss Voigt Hill
#
# Bulk Modulus (GPa) = 56.55431 57.49841 57.02636
# Shear Modulus (GPa) = 25.24378 30.60846 27.92612
#
# Velocity S-wave (km/s) = 3.61203 3.97736 3.79909
# Velocity P-wave (km/s) = 6.82824 7.12808 6.97977
#
# Compressibility (1/GPa) = 0.01768212
#
# Stress axis : x y z
#
# Youngs Moduli (GPa) = 59.02873 32.94850 68.24527
#
# Poissons Ratio (x) = 0.44360 -0.01590
# Poissons Ratio (y) = 0.79473 0.60743
# Poissons Ratio (z) = -0.01375 0.29326
#
# Static dielectric constant tensor:
#      x y z
#    x 3.485730 0.000000 0.000000 
#    y 0.000000 3.535390 0.000000 
#    z 0.000000 0.000000 3.897700 
# 
# 
# High freq. dielectric constant tensor:
#      x y z
#    x 1.766300 0.000000 0.000000 
#    y 0.000000 1.752320 0.000000 
#    z 0.000000 0.000000 1.769250 
# 
# From -- ./inp_files/23648.got.cif
#   From: 2010.03.12/outbox.cif.g09.slc.cpg/sg62_12_cif.got.tgz:23648.got - 2010.04.10 19:12:36.
