data_PCOD8254010
_publ_section_title
;
Structure prediction by ZEFSAII (Michael W. Deem and Ramdas Pophale) SiO2 
 PCOD8254010
Probable space group: P N M A
;
_chemical_formula_sum "Si O2"
_cell_formula_units_Z 48
_cell_length_a 14.936239
_cell_length_b 8.678293
_cell_length_c 18.470276
_cell_angle_alpha 90.000000
_cell_angle_beta 90.000000
_cell_angle_gamma 90.000000
_cell_volume 2394.136723
_symmetry_space_group_name_H-M "P N M A"
_symmetry_group_IT_number 62
_symmetry_cell_setting 'orthorhombic'
loop_
_space_group_symop_operation_xyz
x,y,z
1/2-x,-y,1/2+z
1/2+x,1/2-y,1/2-z
-x,1/2+y,-z
-x,-y,-z
1/2+x,y,1/2-z
1/2-x,1/2+y,1/2+z
x,1/2-y,z
loop_
_atom_site_type_symbol
_atom_site_label
_atom_site_fract_x
_atom_site_fract_y
_atom_site_fract_z
Si Si1 0.265847 0.571629 0.579945
Si Si2 0.398451 0.927739 0.152455
Si Si3 0.401735 0.071411 0.689324
Si Si4 0.238632 0.572621 0.927919
Si Si5 0.605877 0.426077 0.680143
Si Si6 0.413386 0.928408 0.839700
O O1 0.284732 0.750000 0.594271
O O2 0.164898 0.529936 0.602118
O O3 0.335235 0.470944 0.625337
O O4 0.280596 0.535542 0.495934
O O5 0.385712 0.750000 0.131418
O O6 0.373219 0.957586 0.235809
O O7 0.500709 0.972951 0.137239
O O8 0.391217 0.250000 0.709733
O O9 0.502471 0.036241 0.663446
O O10 0.377236 0.974999 0.760643
O O11 0.231055 0.750000 0.951436
O O12 0.165316 0.540657 0.866601
O O13 0.336824 0.535342 0.897667
O O14 0.628788 0.250000 0.660086
O O15 0.439858 0.750000 0.838610
#
# Coordination Sequence:
#
# PCOD8254010 Si02
#       6
#     8   8   8   8   8   8
#     4  12  25  39  58  84 116 154 194 239 289 344
#     4  10  21  39  63  88 116 151 191 237 289 343
#     4  10  21  39  62  87 117 152 191 237 289 343
#     4  11  24  39  57  83 117 155 191 234 287 342
#     4   9  20  38  61  87 113 147 189 233 282 338
#     4  10  21  38  61  89 117 149 194 240 284 338
#
# _framework density 20.048978999999999
#
# number of rings (size 3 to 8) (size 9 to 14) (size 15 to 20)
#    0.000    1.667    0.000    5.500    0.000   10.667 
#    0.000    0.000    0.000    0.000    0.000    0.000 
#    0.000    0.000    0.000    0.000    0.000    0.000 
#
# Total GULP energy -595532.260044 kJ/mol
# GULP energy per Si atom -12406.922084 kJ/mol
# Density = 2.000335 g / cm^3
# Si number density = 20.048979 Si / 1000 Ang^3
#
#
#
# Elastic Constant Matrix: (Units=GPa)
#
#
# Indices 1 2 3 4 5 6 
#
# 1 55.5825 28.3217 10.6756 0.0000 0.0000 0.0000
# 2 28.3217 54.1094 16.3312 0.0000 0.0000 0.0000
# 3 10.6756 16.3312 42.2955 0.0000 0.0000 0.0000
# 4 0.0000 0.0000 0.0000 34.8972 0.0000 0.0000
# 5 0.0000 0.0000 0.0000 0.0000 12.7480 0.0000
# 6 0.0000 0.0000 0.0000 0.0000 0.0000 32.1429
#
#
#
# Elastic Compliance Matrix: (Units=1/GPa)
#
#
# Indices 1 2 3 4 5 6 
#
# 1 0.024608 -0.012457 -0.001401 0.000000 0.000000 0.000000
# 2 -0.012457 0.027225 -0.007368 0.000000 0.000000 0.000000
# 3 -0.001401 -0.007368 0.026842 0.000000 0.000000 0.000000
# 4 0.000000 0.000000 0.000000 0.028656 0.000000 0.000000
# 5 0.000000 0.000000 0.000000 0.000000 0.078444 0.000000
# 6 0.000000 0.000000 0.000000 0.000000 0.000000 0.031111
#
#
# Mechanical properties :
#
#
# Convention : Reuss Voigt Hill
#
# Bulk Modulus (GPa) = 27.60744 29.18272 28.39508
# Shear Modulus (GPa) = 18.42218 22.40156 20.41187
#
# Velocity S-wave (km/s) = 3.03456 3.34629 3.19423
# Velocity P-wave (km/s) = 5.10666 5.43301 5.27236
#
# Compressibility (1/GPa) = 0.03622211
#
# Stress axis : x y z
#
# Youngs Moduli (GPa) = 40.63734 36.73067 37.25539
#
# Poissons Ratio (x) = 0.45756 0.05220
# Poissons Ratio (y) = 0.50623 0.27450
# Poissons Ratio (z) = 0.05694 0.27063
#
# Static dielectric constant tensor:
#      x y z
#    x 3.682120 0.000000 0.000000 
#    y 0.000000 3.636320 0.000000 
#    z 0.000000 0.000000 3.526250 
# 
# 
# High freq. dielectric constant tensor:
#      x y z
#    x 1.791760 0.000000 0.000000 
#    y 0.000000 1.791050 0.000000 
#    z 0.000000 0.000000 1.776150 
# 
# From -- ./inp_files/23748.got.cif
#   From: 2010.03.12/outbox.cif.g09.slc.cpg/sg62_12_cif.got.tgz:23748.got - 2010.04.10 19:12:36.
