data_PCOD8254271
_publ_section_title
;
Structure prediction by ZEFSAII (Michael W. Deem and Ramdas Pophale) SiO2 
 PCOD8254271
Probable space group: P N M A
;
_chemical_formula_sum "Si O2"
_cell_formula_units_Z 48
_cell_length_a 23.482009
_cell_length_b 8.582607
_cell_length_c 11.817941
_cell_angle_alpha 90.000000
_cell_angle_beta 90.000000
_cell_angle_gamma 90.000000
_cell_volume 2381.750660
_symmetry_space_group_name_H-M "P N M A"
_symmetry_group_IT_number 62
_symmetry_cell_setting 'orthorhombic'
loop_
_space_group_symop_operation_xyz
x,y,z
1/2-x,-y,1/2+z
1/2+x,1/2-y,1/2-z
-x,1/2+y,-z
-x,-y,-z
1/2+x,y,1/2-z
1/2-x,1/2+y,1/2+z
x,1/2-y,z
loop_
_atom_site_type_symbol
_atom_site_label
_atom_site_fract_x
_atom_site_fract_y
_atom_site_fract_z
Si Si1 0.213159 0.928741 0.664546
Si Si2 0.168093 0.930517 0.122239
Si Si3 0.082621 0.070071 0.295045
Si Si4 0.634929 0.569103 0.629222
Si Si5 0.100695 0.929822 0.536158
Si Si6 0.534677 0.430408 0.763120
O O1 0.233646 0.750000 0.656948
O O2 0.187761 0.966492 0.788125
O O3 0.165791 0.965515 0.569669
O O4 0.265301 0.043203 0.642742
O O5 0.153642 0.750000 0.142356
O O6 0.132561 0.036179 0.207152
O O7 0.152745 0.982802 0.995480
O O8 0.084410 0.250000 0.329179
O O9 0.091910 0.966856 0.405873
O O10 0.022544 0.026901 0.238415
O O11 0.618455 0.750000 0.637160
O O12 0.579919 0.471729 0.666207
O O13 0.086338 0.750000 0.560563
O O14 0.058074 0.031407 0.611992
O O15 0.519428 0.250000 0.756239
#
# Coordination Sequence:
#
# PCOD8254271 Si02
#       6
#     8   8   8   8   8   8
#     4   9  20  39  62  88 119 156 196 247 302 358
#     4  11  24  40  60  89 122 160 204 251 300 357
#     4  12  25  40  60  88 124 162 203 250 303 358
#     4   9  21  42  63  85 119 161 202 247 301 359
#     4  10  21  40  64  92 124 159 201 250 302 355
#     4  11  22  39  64  92 121 157 202 250 303 361
#
# _framework density 20.153241000000001
#
# number of rings (size 3 to 8) (size 9 to 14) (size 15 to 20)
#    0.000    1.667    0.000    5.500    2.333    5.333 
#    0.000    0.000    0.000    0.000    0.000    0.000 
#    0.000    0.000    0.000    0.000    0.000    0.000 
#
# Total GULP energy -595521.670462 kJ/mol
# GULP energy per Si atom -12406.701468 kJ/mol
# Density = 2.010737 g / cm^3
# Si number density = 20.153241 Si / 1000 Ang^3
#
#
#
# Elastic Constant Matrix: (Units=GPa)
#
#
# Indices 1 2 3 4 5 6 
#
# 1 96.7325 27.6338 6.9412 0.0000 0.0000 0.0000
# 2 27.6338 63.9407 13.2109 0.0000 0.0000 0.0000
# 3 6.9412 13.2109 25.4507 0.0000 0.0000 0.0000
# 4 0.0000 0.0000 0.0000 27.9232 0.0000 0.0000
# 5 0.0000 0.0000 0.0000 0.0000 18.7325 0.0000
# 6 0.0000 0.0000 0.0000 0.0000 0.0000 37.5560
#
#
#
# Elastic Compliance Matrix: (Units=1/GPa)
#
#
# Indices 1 2 3 4 5 6 
#
# 1 0.011803 -0.004969 -0.000640 0.000000 0.000000 0.000000
# 2 -0.004969 0.019610 -0.008824 0.000000 0.000000 0.000000
# 3 -0.000640 -0.008824 0.044047 0.000000 0.000000 0.000000
# 4 0.000000 0.000000 0.000000 0.035813 0.000000 0.000000
# 5 0.000000 0.000000 0.000000 0.000000 0.053383 0.000000
# 6 0.000000 0.000000 0.000000 0.000000 0.000000 0.026627
#
#
# Mechanical properties :
#
#
# Convention : Reuss Voigt Hill
#
# Bulk Modulus (GPa) = 21.46183 31.29952 26.38068
# Shear Modulus (GPa) = 21.21527 26.06486 23.64007
#
# Velocity S-wave (km/s) = 3.24805 3.60020 3.42865
# Velocity P-wave (km/s) = 4.97382 5.73117 5.36588
#
# Compressibility (1/GPa) = 0.04659434
#
# Stress axis : x y z
#
# Youngs Moduli (GPa) = 84.72297 50.99424 22.70326
#
# Poissons Ratio (x) = 0.25338 0.01453
# Poissons Ratio (y) = 0.42098 0.20033
# Poissons Ratio (z) = 0.05421 0.44997
#
# Static dielectric constant tensor:
#      x y z
#    x 3.658920 0.000000 0.000000 
#    y 0.000000 3.561310 0.000000 
#    z 0.000000 0.000000 3.665320 
# 
# 
# High freq. dielectric constant tensor:
#      x y z
#    x 1.793500 0.000000 0.000000 
#    y 0.000000 1.789290 0.000000 
#    z 0.000000 0.000000 1.786660 
# 
# From -- ./inp_files/15099.got.cif
#   From: 2010.03.12/outbox.cif.g09.slc.cpg/sg62_8_cif.got.tgz:15099.got - 2010.04.10 19:12:36.
