data_PCOD8254546
_publ_section_title
;
Structure prediction by ZEFSAII (Michael W. Deem and Ramdas Pophale) SiO2 
 PCOD8254546
Probable space group: P N M A
;
_chemical_formula_sum "Si O2"
_cell_formula_units_Z 48
_cell_length_a 30.747578
_cell_length_b 8.783821
_cell_length_c 8.872797
_cell_angle_alpha 90.000000
_cell_angle_beta 90.000000
_cell_angle_gamma 90.000000
_cell_volume 2396.375850
_symmetry_space_group_name_H-M "P N M A"
_symmetry_group_IT_number 62
_symmetry_cell_setting 'orthorhombic'
loop_
_space_group_symop_operation_xyz
x,y,z
1/2-x,-y,1/2+z
1/2+x,1/2-y,1/2-z
-x,1/2+y,-z
-x,-y,-z
1/2+x,y,1/2-z
1/2-x,1/2+y,1/2+z
x,1/2-y,z
loop_
_atom_site_type_symbol
_atom_site_label
_atom_site_fract_x
_atom_site_fract_y
_atom_site_fract_z
Si Si1 0.123543 0.426842 0.924595
Si Si2 0.541323 0.928930 0.079331
Si Si3 0.541509 0.570534 0.421353
Si Si4 0.790950 0.925566 0.604875
Si Si5 0.877521 0.574271 0.424212
Si Si6 0.295433 0.074000 0.578483
O O1 0.113368 0.250000 0.950662
O O2 0.128892 0.466924 0.749857
O O3 0.084520 0.524327 0.990795
O O4 0.167742 0.468476 0.008272
O O5 0.535385 0.750000 0.076884
O O6 0.544466 0.989893 0.250209
O O7 0.500000 0.000000 0.000000
O O8 0.584711 0.971511 0.991335
O O9 0.500000 0.500000 0.500000
O O10 0.536528 0.750000 0.425423
O O11 0.791472 0.750000 0.657077
O O12 0.833066 0.966306 0.507448
O O13 0.749508 0.962563 0.503371
O O14 0.789661 0.035561 0.747017
O O15 0.890481 0.750000 0.445548
O O16 0.308784 0.250000 0.561708
#
# Coordination Sequence:
#
# PCOD8254546 Si02
#       6
#     8   8   8   8   8   8
#     4  11  23  40  62  88 120 158 198 243 295 351
#     4  11  24  40  60  87 118 152 193 241 292 348
#     4  11  24  41  61  89 121 155 198 245 295 352
#     4  10  22  40  61  86 119 158 196 240 295 349
#     4  10  22  40  61  86 117 154 197 241 289 348
#     4  11  23  39  61  90 121 155 199 246 292 350
#
# _framework density 20.030245000000001
#
# number of rings (size 3 to 8) (size 9 to 14) (size 15 to 20)
#    0.000    1.333    0.000    5.000    0.000   14.000 
#    0.000    0.000    0.000    0.000    0.000    0.000 
#    0.000    0.000    0.000    0.000    0.000    0.000 
#
# Total GULP energy -595541.236636 kJ/mol
# GULP energy per Si atom -12407.109097 kJ/mol
# Density = 1.998466 g / cm^3
# Si number density = 20.030245 Si / 1000 Ang^3
#
#
#
# Elastic Constant Matrix: (Units=GPa)
#
#
# Indices 1 2 3 4 5 6 
#
# 1 139.5707 29.7365 51.2893 0.0000 0.0000 0.0000
# 2 29.7365 54.3009 41.2555 0.0000 0.0000 0.0000
# 3 51.2893 41.2555 145.9797 0.0000 0.0000 0.0000
# 4 0.0000 0.0000 0.0000 35.6993 0.0000 0.0000
# 5 0.0000 0.0000 0.0000 0.0000 45.0306 0.0000
# 6 0.0000 0.0000 0.0000 0.0000 0.0000 38.8008
#
#
#
# Elastic Compliance Matrix: (Units=1/GPa)
#
#
# Indices 1 2 3 4 5 6 
#
# 1 0.008613 -0.003079 -0.002156 0.000000 0.000000 0.000000
# 2 -0.003079 0.024552 -0.005857 0.000000 0.000000 0.000000
# 3 -0.002156 -0.005857 0.009263 0.000000 0.000000 0.000000
# 4 0.000000 0.000000 0.000000 0.028012 0.000000 0.000000
# 5 0.000000 0.000000 0.000000 0.000000 0.022207 0.000000
# 6 0.000000 0.000000 0.000000 0.000000 0.000000 0.025773
#
#
# Mechanical properties :
#
#
# Convention : Reuss Voigt Hill
#
# Bulk Modulus (GPa) = 49.39618 64.93488 57.16553
# Shear Modulus (GPa) = 33.93265 38.41081 36.17173
#
# Velocity S-wave (km/s) = 4.12037 4.38384 4.25415
# Velocity P-wave (km/s) = 6.88120 7.62318 7.26167
#
# Compressibility (1/GPa) = 0.02024448
#
# Stress axis : x y z
#
# Youngs Moduli (GPa) = 116.10254 40.73049 107.95587
#
# Poissons Ratio (x) = 0.12539 0.23277
# Poissons Ratio (y) = 0.35743 0.63229
# Poissons Ratio (z) = 0.25033 0.23856
#
# Static dielectric constant tensor:
#      x y z
#    x 3.456130 0.000000 0.000000 
#    y 0.000000 3.724280 0.000000 
#    z 0.000000 0.000000 3.916220 
# 
# 
# High freq. dielectric constant tensor:
#      x y z
#    x 1.800270 0.000000 0.000000 
#    y 0.000000 1.785460 0.000000 
#    z 0.000000 0.000000 1.800820 
# 
# From -- ./inp_files/10230.got.cif
#   From: 2010.03.12/outbox.cif.g09.slc.cpg/sg62_6_cif.got.tgz:10230.got - 2010.04.10 19:12:36.
