data_PCOD8254112
_publ_section_title
;
Structure prediction by ZEFSAII (Michael W. Deem and Ramdas Pophale) SiO2 
 PCOD8254112
Probable space group: P N M A
;
_chemical_formula_sum "Si O2"
_cell_formula_units_Z 56
_cell_length_a 14.713155
_cell_length_b 8.579519
_cell_length_c 21.830804
_cell_angle_alpha 90.000000
_cell_angle_beta 90.000000
_cell_angle_gamma 90.000000
_cell_volume 2755.741529
_symmetry_space_group_name_H-M "P N M A"
_symmetry_group_IT_number 62
_symmetry_cell_setting 'orthorhombic'
loop_
_space_group_symop_operation_xyz
x,y,z
1/2-x,-y,1/2+z
1/2+x,1/2-y,1/2-z
-x,1/2+y,-z
-x,-y,-z
1/2+x,y,1/2-z
1/2-x,1/2+y,1/2+z
x,1/2-y,z
loop_
_atom_site_type_symbol
_atom_site_label
_atom_site_fract_x
_atom_site_fract_y
_atom_site_fract_z
Si Si1 0.201807 0.933261 0.276000
Si Si2 0.222410 0.566095 0.514634
Si Si3 0.887610 0.069597 0.257432
Si Si4 0.933854 0.568149 0.818061
Si Si5 0.889428 0.435178 0.599519
Si Si6 0.578115 0.434385 0.457505
Si Si7 0.908222 0.568241 0.388082
O O1 0.221631 0.750000 0.278913
O O2 0.147032 0.994532 0.335223
O O3 0.295566 0.026851 0.277407
O O4 0.144749 0.971528 0.215412
O O5 0.225646 0.750000 0.508829
O O6 0.172169 0.494062 0.455078
O O7 0.324771 0.500110 0.518933
O O8 0.168643 0.524183 0.575904
O O9 0.887756 0.250000 0.277134
O O10 0.969220 0.030789 0.211526
O O11 0.896530 0.961140 0.316401
O O12 0.908811 0.750000 0.813719
O O13 0.937598 0.509973 0.887961
O O14 0.887443 0.250000 0.598433
O O15 0.992745 0.493615 0.590688
O O16 0.500000 0.500000 0.500000
O O17 0.575719 0.250000 0.461194
O O18 0.896911 0.750000 0.401495
#
# Coordination Sequence:
#
# PCOD8254112 Si02
#       7
#     8   8   8   8   8   8   8
#     4  11  22  38  62  91 123 157 201 255 303 356
#     4  10  21  39  61  86 121 164 199 240 304 364
#     4  11  23  38  59  86 120 160 200 246 302 363
#     4  10  22  41  61  87 123 160 201 246 297 362
#     4   9  20  37  58  88 124 156 196 247 301 360
#     4  10  23  41  62  86 117 156 200 247 295 355
#     4  11  21  38  61  90 122 154 200 252 299 358
#
# _framework density 20.321210000000001
#
# number of rings (size 3 to 8) (size 9 to 14) (size 15 to 20)
#    0.000    1.714    1.429    2.571    2.000    2.857 
#    0.000    2.143    0.000    0.000    0.000    0.000 
#    0.000    0.000    0.000    0.000    0.000    0.000 
#
# Total GULP energy -694645.932681 kJ/mol
# GULP energy per Si atom -12404.391655 kJ/mol
# Density = 2.027496 g / cm^3
# Si number density = 20.321210 Si / 1000 Ang^3
#
#
#
# Elastic Constant Matrix: (Units=GPa)
#
#
# Indices 1 2 3 4 5 6 
#
# 1 157.6278 17.0797 53.0067 0.0000 0.0000 0.0000
# 2 17.0797 16.6361 10.4382 0.0000 0.0000 0.0000
# 3 53.0067 10.4382 121.9318 0.0000 0.0000 0.0000
# 4 0.0000 0.0000 0.0000 18.6027 0.0000 0.0000
# 5 0.0000 0.0000 0.0000 0.0000 38.4940 0.0000
# 6 0.0000 0.0000 0.0000 0.0000 0.0000 25.4173
#
#
#
# Elastic Compliance Matrix: (Units=1/GPa)
#
#
# Indices 1 2 3 4 5 6 
#
# 1 0.008026 -0.006394 -0.002942 0.000000 0.000000 0.000000
# 2 -0.006394 0.068617 -0.003094 0.000000 0.000000 0.000000
# 3 -0.002942 -0.003094 0.009745 0.000000 0.000000 0.000000
# 4 0.000000 0.000000 0.000000 0.053756 0.000000 0.000000
# 5 0.000000 0.000000 0.000000 0.000000 0.025978 0.000000
# 6 0.000000 0.000000 0.000000 0.000000 0.000000 0.039343
#
#
# Mechanical properties :
#
#
# Convention : Reuss Voigt Hill
#
# Bulk Modulus (GPa) = 16.25298 50.80497 33.52897
# Shear Modulus (GPa) = 19.93343 30.88088 25.40716
#
# Velocity S-wave (km/s) = 3.13536 3.90248 3.53976
# Velocity P-wave (km/s) = 4.59594 6.73506 5.76558
#
# Compressibility (1/GPa) = 0.06152719
#
# Stress axis : x y z
#
# Youngs Moduli (GPa) = 124.59234 14.57369 102.61621
#
# Poissons Ratio (x) = 0.09319 0.30187
# Poissons Ratio (y) = 0.79670 0.31752
# Poissons Ratio (z) = 0.36652 0.04509
#
# Static dielectric constant tensor:
#      x y z
#    x 4.076030 0.000000 0.000000 
#    y 0.000000 3.417700 0.000000 
#    z 0.000000 0.000000 3.822290 
# 
# 
# High freq. dielectric constant tensor:
#      x y z
#    x 1.811840 0.000000 0.000000 
#    y 0.000000 1.772630 0.000000 
#    z 0.000000 0.000000 1.802320 
# 
# From -- ./inp_files/27208.got.cif
#   From: 2010.03.12/outbox.cif.g09.slc.cpg/sg62_14_cif.got.tgz:27208.got - 2010.04.10 19:12:36.
