data_PCOD8254331
_publ_section_title
;
Structure prediction by ZEFSAII (Michael W. Deem and Ramdas Pophale) SiO2 
 PCOD8254331
Probable space group: P N M A
;
_chemical_formula_sum "Si O2"
_cell_formula_units_Z 64
_cell_length_a 30.242260
_cell_length_b 9.057096
_cell_length_c 11.845247
_cell_angle_alpha 90.000000
_cell_angle_beta 90.000000
_cell_angle_gamma 90.000000
_cell_volume 3244.496687
_symmetry_space_group_name_H-M "P N M A"
_symmetry_group_IT_number 62
_symmetry_cell_setting 'orthorhombic'
loop_
_space_group_symop_operation_xyz
x,y,z
1/2-x,-y,1/2+z
1/2+x,1/2-y,1/2-z
-x,1/2+y,-z
-x,-y,-z
1/2+x,y,1/2-z
1/2-x,1/2+y,1/2+z
x,1/2-y,z
loop_
_atom_site_type_symbol
_atom_site_label
_atom_site_fract_x
_atom_site_fract_y
_atom_site_fract_z
Si Si1 0.046649 0.078854 0.501408
Si Si2 0.578524 0.420496 0.245656
Si Si3 0.373456 0.421878 0.403400
Si Si4 0.696454 0.577598 0.987166
Si Si5 0.664784 0.916718 0.235093
Si Si6 0.458386 0.422656 0.553136
Si Si7 0.785964 0.416986 0.957390
Si Si8 0.875811 0.574365 0.335922
O O1 0.036811 0.250000 0.517055
O O2 0.070898 0.043889 0.384795
O O3 0.079280 0.021715 0.600469
O O4 0.000000 0.000000 0.500000
O O5 0.571771 0.250000 0.275166
O O6 0.627929 0.469165 0.275597
O O7 0.544786 0.515314 0.320107
O O8 0.374541 0.250000 0.370130
O O9 0.414426 0.462496 0.483517
O O10 0.328610 0.462511 0.469039
O O11 0.377476 0.518776 0.291511
O O12 0.692379 0.750000 0.960382
O O13 0.747238 0.530807 0.981400
O O14 0.667231 0.490235 0.897052
O O15 0.681433 0.537463 0.112604
O O16 0.645132 0.750000 0.235632
O O17 0.704417 0.927697 0.324074
O O18 0.500000 0.500000 0.500000
O O19 0.467045 0.250000 0.558492
O O20 0.771470 0.250000 0.988361
O O21 0.871844 0.750000 0.338689
#
# Coordination Sequence:
#
# PCOD8254331 Si02
#       8
#     8   8   8   8   8   8   8   8
#     4  10  24  42  62  91 123 161 206 252 306 363
#     4  11  22  40  65  93 123 158 206 257 307 364
#     4  10  23  43  64  89 124 164 205 253 307 364
#     4  11  24  40  63  95 124 160 209 253 308 368
#     4  10  21  41  65  89 120 161 205 254 308 365
#     4  11  24  43  65  93 127 163 207 254 309 367
#     4  10  22  42  64  89 124 163 202 252 312 363
#     4  11  24  43  63  89 126 165 206 252 306 367
#
# _framework density 19.725709999999999
#
# number of rings (size 3 to 8) (size 9 to 14) (size 15 to 20)
#    0.000    1.500    2.500    1.500    3.500    4.500 
#    0.000    0.000    0.000    0.000    0.000    0.000 
#    0.000    0.000    0.000    0.000    0.000    0.000 
#
# Total GULP energy -793830.248061 kJ/mol
# GULP energy per Si atom -12403.597626 kJ/mol
# Density = 1.968081 g / cm^3
# Si number density = 19.725710 Si / 1000 Ang^3
#
#
#
# Elastic Constant Matrix: (Units=GPa)
#
#
# Indices 1 2 3 4 5 6 
#
# 1 103.8431 45.7632 14.1765 0.0000 0.0000 0.0000
# 2 45.7632 81.4074 47.1273 0.0000 0.0000 0.0000
# 3 14.1765 47.1273 84.4613 0.0000 0.0000 0.0000
# 4 0.0000 0.0000 0.0000 35.1417 0.0000 0.0000
# 5 0.0000 0.0000 0.0000 0.0000 26.7253 0.0000
# 6 0.0000 0.0000 0.0000 0.0000 0.0000 41.1778
#
#
#
# Elastic Compliance Matrix: (Units=1/GPa)
#
#
# Indices 1 2 3 4 5 6 
#
# 1 0.013251 -0.009102 0.002854 0.000000 0.000000 0.000000
# 2 -0.009102 0.024396 -0.012085 0.000000 0.000000 0.000000
# 3 0.002854 -0.012085 0.018104 0.000000 0.000000 0.000000
# 4 0.000000 0.000000 0.000000 0.028456 0.000000 0.000000
# 5 0.000000 0.000000 0.000000 0.000000 0.037418 0.000000
# 6 0.000000 0.000000 0.000000 0.000000 0.000000 0.024285
#
#
# Mechanical properties :
#
#
# Convention : Reuss Voigt Hill
#
# Bulk Modulus (GPa) = 52.39170 53.76064 53.07617
# Shear Modulus (GPa) = 26.46384 31.45193 28.95788
#
# Velocity S-wave (km/s) = 3.66675 3.99741 3.83564
# Velocity P-wave (km/s) = 6.67417 6.97273 6.82508
#
# Compressibility (1/GPa) = 0.01908699
#
# Stress axis : x y z
#
# Youngs Moduli (GPa) = 75.46446 40.98969 55.23715
#
# Poissons Ratio (x) = 0.37307 -0.15766
# Poissons Ratio (y) = 0.68684 0.66754
# Poissons Ratio (z) = -0.21540 0.49536
#
# Static dielectric constant tensor:
#      x y z
#    x 3.618190 0.000000 0.000000 
#    y 0.000000 3.585530 0.000000 
#    z 0.000000 0.000000 3.858890 
# 
# 
# High freq. dielectric constant tensor:
#      x y z
#    x 1.772590 0.000000 0.000000 
#    y 0.000000 1.771010 0.000000 
#    z 0.000000 0.000000 1.782480 
# 
# From -- ./inp_files/15918.got.cif
#   From: 2010.03.12/outbox.cif.g09.slc.cpg/sg62_8_cif.got.tgz:15918.got - 2010.04.10 19:12:36.
