data_PCOD8254205
_publ_section_title
;
Structure prediction by ZEFSAII (Michael W. Deem and Ramdas Pophale) SiO2 
 PCOD8254205
Probable space group: P N M A
;
_chemical_formula_sum "Si O2"
_cell_formula_units_Z 64
_cell_length_a 13.234494
_cell_length_b 23.309481
_cell_length_c 8.693469
_cell_angle_alpha 90.000000
_cell_angle_beta 90.000000
_cell_angle_gamma 90.000000
_cell_volume 2681.841179
_symmetry_space_group_name_H-M "P N M A"
_symmetry_group_IT_number 62
_symmetry_cell_setting 'orthorhombic'
loop_
_space_group_symop_operation_xyz
x,y,z
1/2-x,-y,1/2+z
1/2+x,1/2-y,1/2-z
-x,1/2+y,-z
-x,-y,-z
1/2+x,y,1/2-z
1/2-x,1/2+y,1/2+z
x,1/2-y,z
loop_
_atom_site_type_symbol
_atom_site_label
_atom_site_fract_x
_atom_site_fract_y
_atom_site_fract_z
Si Si1 0.414446 0.816000 0.782315
Si Si2 0.483075 0.311401 0.910966
Si Si3 0.276407 0.314660 0.479102
Si Si4 0.466456 0.106394 0.427663
Si Si5 0.749827 0.187453 0.669714
Si Si6 0.776406 0.434458 0.582458
Si Si7 0.993584 0.422429 0.736960
Si Si8 0.359036 0.016486 0.223100
O O1 0.408595 0.750000 0.728098
O O2 0.308010 0.835521 0.857422
O O3 0.440123 0.856118 0.637235
O O4 0.503613 0.824914 0.907938
O O5 0.536553 0.250000 0.875439
O O6 0.367152 0.307752 0.868892
O O7 0.536617 0.359474 0.806791
O O8 0.309811 0.250000 0.440521
O O9 0.374303 0.353150 0.471507
O O10 0.229617 0.318851 0.648881
O O11 0.500698 0.071393 0.578727
O O12 0.432850 0.061525 0.301289
O O13 0.702559 0.250000 0.613463
O O14 0.715097 0.127050 0.589331
O O15 0.880451 0.428830 0.675234
O O16 0.794711 0.451577 0.406611
O O17 0.715112 0.486653 0.655832
O O18 0.066029 0.468296 0.653658
#
# Coordination Sequence:
#
# PCOD8254205 Si02
#       8
#     8   8   8   8   8   8   8   8
#     4  10  23  39  65 104 141 180 228 286 359 425
#     4   9  18  36  63  94 127 167 221 282 348 419
#     4  10  21  39  68  99 134 181 227 286 357 421
#     4  12  23  42  67  96 139 184 238 289 347 417
#     4   9  18  38  68  96 126 167 224 286 349 414
#     4  11  24  46  67 101 135 183 230 288 358 416
#     4  11  24  43  67  97 132 180 235 285 348 417
#     4  12  28  43  67  97 138 185 234 287 343 425
#
# _framework density 23.864201999999999
#
# number of rings (size 3 to 8) (size 9 to 14) (size 15 to 20)
#    0.000    1.500    2.500    3.375    1.750    2.500 
#    0.000    0.625    0.000    0.000    0.000    0.000 
#    0.000    0.000    0.000    0.000    0.000    0.000 
#
# Total GULP energy -793317.152198 kJ/mol
# GULP energy per Si atom -12395.580503 kJ/mol
# Density = 2.380989 g / cm^3
# Si number density = 23.864202 Si / 1000 Ang^3
#
#
#
# Elastic Constant Matrix: (Units=GPa)
#
#
# Indices 1 2 3 4 5 6 
#
# 1 41.0573 3.6934 6.9492 0.0000 0.0000 0.0000
# 2 3.6934 108.1230 30.7103 0.0000 0.0000 0.0000
# 3 6.9492 30.7103 80.8253 0.0000 0.0000 0.0000
# 4 0.0000 0.0000 0.0000 12.5137 0.0000 0.0000
# 5 0.0000 0.0000 0.0000 0.0000 38.2413 0.0000
# 6 0.0000 0.0000 0.0000 0.0000 0.0000 33.8177
#
#
#
# Elastic Compliance Matrix: (Units=1/GPa)
#
#
# Indices 1 2 3 4 5 6 
#
# 1 0.024723 -0.000270 -0.002023 0.000000 0.000000 0.000000
# 2 -0.000270 0.010371 -0.003917 0.000000 0.000000 0.000000
# 3 -0.002023 -0.003917 0.014035 0.000000 0.000000 0.000000
# 4 0.000000 0.000000 0.000000 0.079912 0.000000 0.000000
# 5 0.000000 0.000000 0.000000 0.000000 0.026150 0.000000
# 6 0.000000 0.000000 0.000000 0.000000 0.000000 0.029570
#
#
# Mechanical properties :
#
#
# Convention : Reuss Voigt Hill
#
# Bulk Modulus (GPa) = 27.24218 34.74572 30.99395
# Shear Modulus (GPa) = 23.87584 29.49139 26.68362
#
# Velocity S-wave (km/s) = 3.16648 3.51921 3.34749
# Velocity P-wave (km/s) = 4.98087 5.57714 5.28742
#
# Compressibility (1/GPa) = 0.03670778
#
# Stress axis : x y z
#
# Youngs Moduli (GPa) = 40.44837 96.42695 71.25211
#
# Poissons Ratio (x) = 0.02603 0.14415
# Poissons Ratio (y) = 0.01092 0.27911
# Poissons Ratio (z) = 0.08183 0.37772
#
# Static dielectric constant tensor:
#      x y z
#    x 4.078560 0.000000 0.000000 
#    y 0.000000 5.146970 0.000000 
#    z 0.000000 0.000000 4.163280 
# 
# 
# High freq. dielectric constant tensor:
#      x y z
#    x 1.940810 0.000000 0.000000 
#    y 0.000000 1.966320 0.000000 
#    z 0.000000 0.000000 1.932630 
# 
# From -- ./inp_files/6943.got.cif
#   From: 2010.03.12/outbox.cif.g09.slc.cpg/sg62_4_cif.got.tgz:6943.got - 2010.04.10 19:12:36.
