data_PCOD8254169
_publ_section_title
;
Structure prediction by ZEFSAII (Michael W. Deem and Ramdas Pophale) SiO2 
 PCOD8254169
Probable space group: P N M A
;
_chemical_formula_sum "Si O2"
_cell_formula_units_Z 32
_cell_length_a 9.219669
_cell_length_b 8.408486
_cell_length_c 19.802487
_cell_angle_alpha 90.000000
_cell_angle_beta 90.000000
_cell_angle_gamma 90.000000
_cell_volume 1535.157264
_symmetry_space_group_name_H-M "P N M A"
_symmetry_group_IT_number 62
_symmetry_cell_setting 'orthorhombic'
loop_
_space_group_symop_operation_xyz
x,y,z
1/2-x,-y,1/2+z
1/2+x,1/2-y,1/2-z
-x,1/2+y,-z
-x,-y,-z
1/2+x,y,1/2-z
1/2-x,1/2+y,1/2+z
x,1/2-y,z
loop_
_atom_site_type_symbol
_atom_site_label
_atom_site_fract_x
_atom_site_fract_y
_atom_site_fract_z
Si Si1 0.159167 0.436831 0.926705
Si Si2 0.349881 0.934666 0.582162
Si Si3 0.172935 0.432327 0.700504
Si Si4 0.360956 0.566061 0.816325
O O1 0.142480 0.250000 0.915105
O O2 0.295754 0.504739 0.886711
O O3 0.014397 0.520685 0.898859
O O4 0.183409 0.479512 0.004880
O O5 0.325246 0.750000 0.596846
O O6 0.239017 0.034847 0.626946
O O7 0.198522 0.250000 0.720829
O O8 0.246928 0.543599 0.756137
O O9 0.002896 0.465538 0.699966
O O10 0.402040 0.750000 0.823410
#
# Coordination Sequence:
#
# PCOD8254169 Si02
#       4
#     8   8   8   8
#     4  10  21  39  63  91 123 159 199 243 294 352
#     4  10  21  39  63  91 123 159 199 243 294 352
#     4  12  25  42  63  88 120 157 200 247 298 354
#     4  12  25  42  63  88 120 157 200 247 298 354
#
# _framework density 20.84477
#
# number of rings (size 3 to 8) (size 9 to 14) (size 15 to 20)
#    0.000    1.000    0.000    7.500    0.000    4.000 
#    0.000    0.000    0.000    0.000    0.000    0.000 
#    0.000    0.000    0.000    0.000    0.000    0.000 
#
# Total GULP energy -397104.935091 kJ/mol
# GULP energy per Si atom -12409.529222 kJ/mol
# Density = 2.079733 g / cm^3
# Si number density = 20.844770 Si / 1000 Ang^3
#
#
#
# Elastic Constant Matrix: (Units=GPa)
#
#
# Indices 1 2 3 4 5 6 
#
# 1 91.8330 5.6964 34.6287 0.0000 0.0000 0.0000
# 2 5.6964 67.0748 21.5432 0.0000 0.0000 0.0000
# 3 34.6287 21.5432 84.9210 0.0000 0.0000 0.0000
# 4 0.0000 0.0000 0.0000 37.0095 0.0000 0.0000
# 5 0.0000 0.0000 0.0000 0.0000 38.6994 0.0000
# 6 0.0000 0.0000 0.0000 0.0000 0.0000 36.9010
#
#
#
# Elastic Compliance Matrix: (Units=1/GPa)
#
#
# Indices 1 2 3 4 5 6 
#
# 1 0.012894 0.000646 -0.005422 0.000000 0.000000 0.000000
# 2 0.000646 0.016264 -0.004389 0.000000 0.000000 0.000000
# 3 -0.005422 -0.004389 0.015100 0.000000 0.000000 0.000000
# 4 0.000000 0.000000 0.000000 0.027020 0.000000 0.000000
# 5 0.000000 0.000000 0.000000 0.000000 0.025840 0.000000
# 6 0.000000 0.000000 0.000000 0.000000 0.000000 0.027100
#
#
# Mechanical properties :
#
#
# Convention : Reuss Voigt Hill
#
# Bulk Modulus (GPa) = 38.56862 40.84058 39.70460
# Shear Modulus (GPa) = 33.07113 34.65267 33.86190
#
# Velocity S-wave (km/s) = 3.98746 4.08170 4.03486
# Velocity P-wave (km/s) = 6.30419 6.46907 6.38716
#
# Compressibility (1/GPa) = 0.02592782
#
# Stress axis : x y z
#
# Youngs Moduli (GPa) = 77.55740 61.48687 66.22509
#
# Poissons Ratio (x) = -0.03974 0.35905
# Poissons Ratio (y) = -0.05013 0.29069
# Poissons Ratio (z) = 0.42049 0.26989
#
# Static dielectric constant tensor:
#      x y z
#    x 3.706110 0.000000 0.000000 
#    y 0.000000 3.797270 0.000000 
#    z 0.000000 0.000000 3.879620 
# 
# 
# High freq. dielectric constant tensor:
#      x y z
#    x 1.816680 0.000000 0.000000 
#    y 0.000000 1.830130 0.000000 
#    z 0.000000 0.000000 1.826760 
# 
# From -- ./inp_files/4118.got.cif
#   From: 2010.03.12/outbox.cif.g09.slc.cpg/sg62_3_cif.got.tgz:4118.got - 2010.04.10 19:12:36.
