data_PCOD8254901
_publ_section_title
;
Structure prediction by ZEFSAII (Michael W. Deem and Ramdas Pophale) SiO2 
 PCOD8254901
Probable space group: P N M A
;
_chemical_formula_sum "Si O2"
_cell_formula_units_Z 48
_cell_length_a 9.383832
_cell_length_b 16.652238
_cell_length_c 14.573109
_cell_angle_alpha 90.000000
_cell_angle_beta 90.000000
_cell_angle_gamma 90.000000
_cell_volume 2277.220300
_symmetry_space_group_name_H-M "P N M A"
_symmetry_group_IT_number 62
_symmetry_cell_setting 'orthorhombic'
loop_
_space_group_symop_operation_xyz
x,y,z
1/2-x,-y,1/2+z
1/2+x,1/2-y,1/2-z
-x,1/2+y,-z
-x,-y,-z
1/2+x,y,1/2-z
1/2-x,1/2+y,1/2+z
x,1/2-y,z
loop_
_atom_site_type_symbol
_atom_site_label
_atom_site_fract_x
_atom_site_fract_y
_atom_site_fract_z
Si Si1 0.504486 0.657583 0.063766
Si Si2 0.355221 0.444388 0.783758
Si Si3 0.989971 0.910571 0.960458
Si Si4 0.900449 0.053697 0.232217
Si Si5 0.186933 0.842017 0.107204
Si Si6 0.301813 0.156757 0.101739
O O1 0.515168 0.750000 0.092914
O O2 0.610866 0.609615 0.129048
O O3 0.342326 0.626331 0.074318
O O4 0.555309 0.645590 0.958985
O O5 0.195526 0.476711 0.792899
O O6 0.458303 0.520941 0.780918
O O7 0.371036 0.393628 0.691187
O O8 0.826059 0.884458 0.954201
O O9 0.060485 0.900728 0.860760
O O10 0.075056 0.849798 0.025150
O O11 0.000000 0.000000 0.000000
O O12 0.821757 0.115039 0.300107
O O13 0.196182 0.750000 0.138338
O O14 0.267260 0.250000 0.118965
#
# Coordination Sequence:
#
# PCOD8254901 Si02
#       6
#     8   8   8   8   8   8
#     4  10  24  43  67  96 134 175 215 272 336 400
#     4  12  23  44  65  98 132 169 222 272 334 394
#     4  12  24  45  68  99 133 172 227 276 334 397
#     4  12  25  43  68  96 129 174 221 271 327 395
#     4  11  24  42  66  98 131 172 221 273 333 394
#     4  11  26  46  65  96 134 177 223 272 336 401
#
# _framework density 21.078329
#
# number of rings (size 3 to 8) (size 9 to 14) (size 15 to 20)
#    0.000    0.667    5.000    2.000    2.333    2.000 
#    0.000    0.000    0.000    0.000    0.000    0.000 
#    0.000    0.000    0.000    0.000    0.000    0.000 
#
# Total GULP energy -595518.097603 kJ/mol
# GULP energy per Si atom -12406.627033 kJ/mol
# Density = 2.103035 g / cm^3
# Si number density = 21.078329 Si / 1000 Ang^3
#
#
#
# Elastic Constant Matrix: (Units=GPa)
#
#
# Indices 1 2 3 4 5 6 
#
# 1 83.6415 27.1014 28.1325 0.0000 0.0000 0.0000
# 2 27.1014 83.6541 29.8925 0.0000 0.0000 0.0000
# 3 28.1325 29.8925 85.7568 0.0000 0.0000 0.0000
# 4 0.0000 0.0000 0.0000 37.5820 0.0000 0.0000
# 5 0.0000 0.0000 0.0000 0.0000 41.0558 0.0000
# 6 0.0000 0.0000 0.0000 0.0000 0.0000 34.3193
#
#
#
# Elastic Compliance Matrix: (Units=1/GPa)
#
#
# Indices 1 2 3 4 5 6 
#
# 1 0.014219 -0.003358 -0.003494 0.000000 0.000000 0.000000
# 2 -0.003358 0.014448 -0.003935 0.000000 0.000000 0.000000
# 3 -0.003494 -0.003935 0.014179 0.000000 0.000000 0.000000
# 4 0.000000 0.000000 0.000000 0.026608 0.000000 0.000000
# 5 0.000000 0.000000 0.000000 0.000000 0.024357 0.000000
# 6 0.000000 0.000000 0.000000 0.000000 0.000000 0.029138
#
#
# Mechanical properties :
#
#
# Convention : Reuss Voigt Hill
#
# Bulk Modulus (GPa) = 47.00950 47.03391 47.02170
# Shear Modulus (GPa) = 32.97869 33.78649 33.38259
#
# Velocity S-wave (km/s) = 3.95977 4.00797 3.98394
# Velocity P-wave (km/s) = 6.57701 6.61670 6.59688
#
# Compressibility (1/GPa) = 0.02127230
#
# Stress axis : x y z
#
# Youngs Moduli (GPa) = 70.32816 69.21463 70.52903
#
# Poissons Ratio (x) = 0.23242 0.24643
# Poissons Ratio (y) = 0.23616 0.27750
# Poissons Ratio (z) = 0.24573 0.27233
#
# Static dielectric constant tensor:
#      x y z
#    x 3.927680 0.000000 0.000000 
#    y 0.000000 3.727900 0.000000 
#    z 0.000000 0.000000 3.770880 
# 
# 
# High freq. dielectric constant tensor:
#      x y z
#    x 1.838530 0.000000 0.000000 
#    y 0.000000 1.825370 0.000000 
#    z 0.000000 0.000000 1.830630 
# 
# From -- ./inp_files/16956.got.cif
#   From: 2010.03.12/outbox.cif.g09.slc.cpg/sg62_9_cif.got.tgz:16956.got - 2010.04.10 19:12:36.
