data_PCOD8254257
_publ_section_title
;
Structure prediction by ZEFSAII (Michael W. Deem and Ramdas Pophale) SiO2 
 PCOD8254257
Probable space group: P N M A
;
_chemical_formula_sum "Si O2"
_cell_formula_units_Z 64
_cell_length_a 23.208457
_cell_length_b 9.004528
_cell_length_c 15.306748
_cell_angle_alpha 90.000000
_cell_angle_beta 90.000000
_cell_angle_gamma 90.000000
_cell_volume 3198.822579
_symmetry_space_group_name_H-M "P N M A"
_symmetry_group_IT_number 62
_symmetry_cell_setting 'orthorhombic'
loop_
_space_group_symop_operation_xyz
x,y,z
1/2-x,-y,1/2+z
1/2+x,1/2-y,1/2-z
-x,1/2+y,-z
-x,-y,-z
1/2+x,y,1/2-z
1/2-x,1/2+y,1/2+z
x,1/2-y,z
loop_
_atom_site_type_symbol
_atom_site_label
_atom_site_fract_x
_atom_site_fract_y
_atom_site_fract_z
Si Si1 0.998011 0.923814 0.188884
Si Si2 0.121020 0.577118 0.113729
Si Si3 0.479520 0.423245 0.130453
Si Si4 0.236153 0.076777 0.150223
Si Si5 0.588886 0.423516 0.014525
Si Si6 0.905779 0.078816 0.080673
Si Si7 0.707168 0.574577 0.028570
Si Si8 0.286379 0.420080 0.334824
O O1 0.989101 0.750000 0.205047
O O2 0.063921 0.961988 0.167679
O O3 0.978335 0.014614 0.272688
O O4 0.959074 0.976334 0.108052
O O5 0.134684 0.750000 0.115234
O O6 0.173764 0.496381 0.160542
O O7 0.114937 0.522506 0.013995
O O8 0.465309 0.250000 0.132699
O O9 0.428914 0.502130 0.076669
O O10 0.541146 0.457464 0.087635
O O11 0.225460 0.250000 0.140788
O O12 0.274274 0.037217 0.234598
O O13 0.269328 0.016963 0.064794
O O14 0.597229 0.250000 0.998808
O O15 0.647257 0.494953 0.049749
O O16 0.926219 0.250000 0.075685
O O17 0.854196 0.058343 0.149661
O O18 0.697519 0.750000 0.029389
O O19 0.751808 0.530606 0.103241
O O20 0.267985 0.250000 0.354940
#
# Coordination Sequence:
#
# PCOD8254257 Si02
#       8
#     8   8   8   8   8   8   8   8
#     4  11  24  38  59  91 123 153 198 251 305 364
#     4  10  22  41  62  87 119 158 200 251 305 359
#     4  10  22  41  62  87 120 159 202 247 299 357
#     4  10  23  40  61  90 122 159 203 251 303 365
#     4  10  22  40  63  89 121 160 201 247 301 358
#     4  10  21  40  64  86 116 159 204 252 307 361
#     4  11  23  39  62  93 125 161 203 252 308 367
#     4  10  22  41  63  88 122 161 206 253 304 366
#
# _framework density 20.007362000000001
#
# number of rings (size 3 to 8) (size 9 to 14) (size 15 to 20)
#    0.000    1.750    1.250    1.875    3.500    4.500 
#    0.000    0.000    0.000    0.000    0.000    0.000 
#    0.000    0.000    0.000    0.000    0.000    0.000 
#
# Total GULP energy -794021.363441 kJ/mol
# GULP energy per Si atom -12406.583804 kJ/mol
# Density = 1.996182 g / cm^3
# Si number density = 20.007362 Si / 1000 Ang^3
#
#
#
# Elastic Constant Matrix: (Units=GPa)
#
#
# Indices 1 2 3 4 5 6 
#
# 1 48.5099 26.5993 -6.8972 0.0000 0.0000 0.0000
# 2 26.5993 60.6516 14.7160 0.0000 0.0000 0.0000
# 3 -6.8972 14.7160 67.3119 0.0000 0.0000 0.0000
# 4 0.0000 0.0000 0.0000 31.6006 0.0000 0.0000
# 5 0.0000 0.0000 0.0000 0.0000 23.0156 0.0000
# 6 0.0000 0.0000 0.0000 0.0000 0.0000 33.6571
#
#
#
# Elastic Compliance Matrix: (Units=1/GPa)
#
#
# Indices 1 2 3 4 5 6 
#
# 1 0.029370 -0.014373 0.006152 0.000000 0.000000 0.000000
# 2 -0.014373 0.024445 -0.006817 0.000000 0.000000 0.000000
# 3 0.006152 -0.006817 0.016977 0.000000 0.000000 0.000000
# 4 0.000000 0.000000 0.000000 0.031645 0.000000 0.000000
# 5 0.000000 0.000000 0.000000 0.000000 0.043449 0.000000
# 6 0.000000 0.000000 0.000000 0.000000 0.000000 0.029711
#
#
# Mechanical properties :
#
#
# Convention : Reuss Voigt Hill
#
# Bulk Modulus (GPa) = 24.56078 27.25663 25.90870
# Shear Modulus (GPa) = 22.80543 27.12502 24.96522
#
# Velocity S-wave (km/s) = 3.37983 3.68605 3.53626
# Velocity P-wave (km/s) = 5.24724 5.63638 5.44529
#
# Compressibility (1/GPa) = 0.04071532
#
# Stress axis : x y z
#
# Youngs Moduli (GPa) = 34.04813 40.90796 58.90351
#
# Poissons Ratio (x) = 0.58798 -0.36236
# Poissons Ratio (y) = 0.48938 0.40155
# Poissons Ratio (z) = -0.20946 0.27887
#
# Static dielectric constant tensor:
#      x y z
#    x 3.621390 0.000000 0.000000 
#    y 0.000000 3.577950 0.000000 
#    z 0.000000 0.000000 3.678700 
# 
# 
# High freq. dielectric constant tensor:
#      x y z
#    x 1.787350 0.000000 0.000000 
#    y 0.000000 1.779810 0.000000 
#    z 0.000000 0.000000 1.786900 
# 
# From -- ./inp_files/20777.got.cif
#   From: 2010.03.12/outbox.cif.g09.slc.cpg/sg62_11_cif.got.tgz:20777.got - 2010.04.10 19:12:36.
