data_PCOD8254636
_publ_section_title
;
Structure prediction by ZEFSAII (Michael W. Deem and Ramdas Pophale) SiO2 
 PCOD8254636
Probable space group: P N M A
;
_chemical_formula_sum "Si O2"
_cell_formula_units_Z 56
_cell_length_a 18.240954
_cell_length_b 9.012741
_cell_length_c 16.983138
_cell_angle_alpha 90.000000
_cell_angle_beta 90.000000
_cell_angle_gamma 90.000000
_cell_volume 2792.044768
_symmetry_space_group_name_H-M "P N M A"
_symmetry_group_IT_number 62
_symmetry_cell_setting 'orthorhombic'
loop_
_space_group_symop_operation_xyz
x,y,z
1/2-x,-y,1/2+z
1/2+x,1/2-y,1/2-z
-x,1/2+y,-z
-x,-y,-z
1/2+x,y,1/2-z
1/2-x,1/2+y,1/2+z
x,1/2-y,z
loop_
_atom_site_type_symbol
_atom_site_label
_atom_site_fract_x
_atom_site_fract_y
_atom_site_fract_z
Si Si1 0.650772 0.075766 0.046590
Si Si2 0.293903 0.920924 0.402069
Si Si3 0.890255 0.075799 0.389272
Si Si4 0.281064 0.920052 0.223744
Si Si5 0.956406 0.923182 0.686850
Si Si6 0.383758 0.079062 0.674526
Si Si7 0.923984 0.922225 0.982298
O O1 0.652619 0.250000 0.032013
O O2 0.605816 0.032782 0.124308
O O3 0.733481 0.018335 0.053610
O O4 0.610043 0.002272 0.973358
O O5 0.268697 0.750000 0.407248
O O6 0.302516 0.970364 0.311623
O O7 0.371759 0.947517 0.442910
O O8 0.884966 0.250000 0.403215
O O9 0.964898 0.029971 0.346240
O O10 0.821797 0.025114 0.337324
O O11 0.303725 0.750000 0.207599
O O12 0.194853 0.943258 0.213958
O O13 0.953018 0.750000 0.707153
O O14 0.944655 0.014853 0.766516
O O15 0.402187 0.250000 0.658007
O O16 0.384893 0.991812 0.593073
O O17 0.938207 0.750000 0.966299
O O18 0.000000 0.000000 0.000000
#
# Coordination Sequence:
#
# PCOD8254636 Si02
#       7
#     8   8   8   8   8   8   8
#     4  11  22  39  64  92 124 162 205 252 303 366
#     4  10  22  42  65  91 123 162 207 258 311 367
#     4  11  24  39  60  90 125 162 201 248 306 365
#     4  10  22  41  64  93 125 160 208 257 307 368
#     4  10  23  41  61  92 127 161 203 251 306 367
#     4  11  23  41  66  91 122 164 207 255 313 371
#     4  11  25  43  65  93 129 167 211 262 313 372
#
# _framework density 20.056985000000001
#
# number of rings (size 3 to 8) (size 9 to 14) (size 15 to 20)
#    0.000    1.429    1.429    3.000    2.000    6.857 
#    0.000    0.000    0.000    0.000    0.000    0.000 
#    0.000    0.000    0.000    0.000    0.000    0.000 
#
# Total GULP energy -694834.536519 kJ/mol
# GULP energy per Si atom -12407.759581 kJ/mol
# Density = 2.001133 g / cm^3
# Si number density = 20.056985 Si / 1000 Ang^3
#
#
#
# Elastic Constant Matrix: (Units=GPa)
#
#
# Indices 1 2 3 4 5 6 
#
# 1 64.9454 30.5588 13.9786 0.0000 0.0000 0.0000
# 2 30.5588 88.2862 43.8257 0.0000 0.0000 0.0000
# 3 13.9786 43.8257 104.1990 0.0000 0.0000 0.0000
# 4 0.0000 0.0000 0.0000 35.4562 0.0000 0.0000
# 5 0.0000 0.0000 0.0000 0.0000 27.4476 0.0000
# 6 0.0000 0.0000 0.0000 0.0000 0.0000 32.1639
#
#
#
# Elastic Compliance Matrix: (Units=1/GPa)
#
#
# Indices 1 2 3 4 5 6 
#
# 1 0.018399 -0.006500 0.000266 0.000000 0.000000 0.000000
# 2 -0.006500 0.016612 -0.006115 0.000000 0.000000 0.000000
# 3 0.000266 -0.006115 0.012133 0.000000 0.000000 0.000000
# 4 0.000000 0.000000 0.000000 0.028204 0.000000 0.000000
# 5 0.000000 0.000000 0.000000 0.000000 0.036433 0.000000
# 6 0.000000 0.000000 0.000000 0.000000 0.000000 0.031091
#
#
# Mechanical properties :
#
#
# Convention : Reuss Voigt Hill
#
# Bulk Modulus (GPa) = 44.55277 48.23963 46.39620
# Shear Modulus (GPa) = 28.56271 30.28471 29.42371
#
# Velocity S-wave (km/s) = 3.77779 3.89000 3.83431
# Velocity P-wave (km/s) = 6.42575 6.65430 6.54102
#
# Compressibility (1/GPa) = 0.02244529
#
# Stress axis : x y z
#
# Youngs Moduli (GPa) = 54.35076 60.19619 82.41762
#
# Poissons Ratio (x) = 0.39130 -0.02191
# Poissons Ratio (y) = 0.35330 0.50399
# Poissons Ratio (z) = -0.01445 0.36810
#
# Static dielectric constant tensor:
#      x y z
#    x 3.609160 0.000000 0.000000 
#    y 0.000000 3.703680 0.000000 
#    z 0.000000 0.000000 3.821070 
# 
# 
# High freq. dielectric constant tensor:
#      x y z
#    x 1.788730 0.000000 0.000000 
#    y 0.000000 1.787680 0.000000 
#    z 0.000000 0.000000 1.796770 
# 
# From -- ./inp_files/20293.got.cif
#   From: 2010.03.12/outbox.cif.g09.slc.cpg/sg62_11_cif.got.tgz:20293.got - 2010.04.10 19:12:36.
