data_PCOD8254454
_publ_section_title
;
Structure prediction by ZEFSAII (Michael W. Deem and Ramdas Pophale) SiO2 
 PCOD8254454
Probable space group: P N M A
;
_chemical_formula_sum "Si O2"
_cell_formula_units_Z 48
_cell_length_a 5.143891
_cell_length_b 27.080345
_cell_length_c 16.336002
_cell_angle_alpha 90.000000
_cell_angle_beta 90.000000
_cell_angle_gamma 90.000000
_cell_volume 2275.578009
_symmetry_space_group_name_H-M "P N M A"
_symmetry_group_IT_number 62
_symmetry_cell_setting 'orthorhombic'
loop_
_space_group_symop_operation_xyz
x,y,z
1/2-x,-y,1/2+z
1/2+x,1/2-y,1/2-z
-x,1/2+y,-z
-x,-y,-z
1/2+x,y,1/2-z
1/2-x,1/2+y,1/2+z
x,1/2-y,z
loop_
_atom_site_type_symbol
_atom_site_label
_atom_site_fract_x
_atom_site_fract_y
_atom_site_fract_z
Si Si1 0.164231 0.356007 0.058217
Si Si2 0.630000 0.250000 0.878942
Si Si3 0.673336 0.353875 0.801092
Si Si4 0.938838 0.417160 0.564349
Si Si5 0.871267 0.750000 0.010300
Si Si6 0.350807 0.591899 0.897987
Si Si7 0.850769 0.005357 0.697444
O O1 0.407129 0.370756 0.116886
O O2 0.907301 0.375580 0.101865
O O3 0.204430 0.381941 0.968769
O O4 0.154221 0.297369 0.047817
O O5 0.662602 0.296156 0.819542
O O6 0.845391 0.250000 0.949415
O O7 0.346325 0.250000 0.919504
O O8 0.947497 0.369038 0.762303
O O9 0.638768 0.384172 0.884006
O O10 0.819919 0.462145 0.615698
O O11 0.102608 0.436259 0.485299
O O12 0.332769 0.551986 0.826144
O O13 0.624690 0.018342 0.761081
#
# Coordination Sequence:
#
# PCOD8254454 Si02
#       7
#     8   4   8   8   4   8   8
#     4  10  22  37  67  89 125 155 210 260 303 358
#     4  12  22  37  54  76 126 171 212 243 305 343
#     4  12  24  36  52  80 121 168 212 251 296 348
#     4  10  24  39  64  87 125 165 208 254 300 359
#     4  12  20  39  62  96 114 163 210 261 297 359
#     4  10  23  42  64  92 121 168 203 257 314 358
#     4  12  26  42  64  94 127 163 206 256 311 377
#
# _framework density 21.093539
#
# number of rings (size 3 to 8) (size 9 to 14) (size 15 to 20)
#    1.000    0.000    1.667    6.000    4.667    0.667 
#    0.000    0.000    0.000    0.000    0.000   11.667 
#    0.000    0.000    0.000    0.000    0.000    0.000 
#
# Total GULP energy -595229.655187 kJ/mol
# GULP energy per Si atom -12400.617816 kJ/mol
# Density = 2.104553 g / cm^3
# Si number density = 21.093539 Si / 1000 Ang^3
#
#
#
# Elastic Constant Matrix: (Units=GPa)
#
#
# Indices 1 2 3 4 5 6 
#
# 1 110.5933 41.0200 9.3077 0.0000 0.0000 0.0000
# 2 41.0200 82.4890 9.5225 0.0000 0.0000 0.0000
# 3 9.3077 9.5225 22.6951 0.0000 0.0000 0.0000
# 4 0.0000 0.0000 0.0000 40.8893 0.0000 0.0000
# 5 0.0000 0.0000 0.0000 0.0000 12.2918 0.0000
# 6 0.0000 0.0000 0.0000 0.0000 0.0000 26.2932
#
#
#
# Elastic Compliance Matrix: (Units=1/GPa)
#
#
# Indices 1 2 3 4 5 6 
#
# 1 0.011207 -0.005299 -0.002373 0.000000 0.000000 0.000000
# 2 -0.005299 0.015246 -0.004223 0.000000 0.000000 0.000000
# 3 -0.002373 -0.004223 0.046808 0.000000 0.000000 0.000000
# 4 0.000000 0.000000 0.000000 0.024456 0.000000 0.000000
# 5 0.000000 0.000000 0.000000 0.000000 0.081355 0.000000
# 6 0.000000 0.000000 0.000000 0.000000 0.000000 0.038033
#
#
# Mechanical properties :
#
#
# Convention : Reuss Voigt Hill
#
# Bulk Modulus (GPa) = 20.21450 37.27530 28.74490
# Shear Modulus (GPa) = 19.42609 26.29000 22.85804
#
# Velocity S-wave (km/s) = 3.03801 3.53420 3.29546
# Velocity P-wave (km/s) = 4.68082 5.86207 5.30443
#
# Compressibility (1/GPa) = 0.04946945
#
# Stress axis : x y z
#
# Youngs Moduli (GPa) = 89.22683 65.59268 21.36400
#
# Poissons Ratio (x) = 0.34759 0.05069
# Poissons Ratio (y) = 0.47284 0.09023
# Poissons Ratio (z) = 0.21172 0.27703
#
# Static dielectric constant tensor:
#      x y z
#    x 3.818730 0.000000 0.000000 
#    y 0.000000 3.827380 0.000000 
#    z 0.000000 0.000000 3.500520 
# 
# 
# High freq. dielectric constant tensor:
#      x y z
#    x 1.836800 0.000000 0.000000 
#    y 0.000000 1.828670 0.000000 
#    z 0.000000 0.000000 1.797850 
# 
# From -- ./inp_files/21611.got.cif
#   From: 2010.03.12/outbox.cif.g09.slc.cpg/sg62_11_cif.got.tgz:21611.got - 2010.04.10 19:12:36.
