data_PCOD8254299
_publ_section_title
;
Structure prediction by ZEFSAII (Michael W. Deem and Ramdas Pophale) SiO2 
 PCOD8254299
Probable space group: P N M A
;
_chemical_formula_sum "Si O2"
_cell_formula_units_Z 64
_cell_length_a 8.834482
_cell_length_b 31.463283
_cell_length_c 11.243867
_cell_angle_alpha 90.000000
_cell_angle_beta 90.000000
_cell_angle_gamma 90.000000
_cell_volume 3125.365593
_symmetry_space_group_name_H-M "P N M A"
_symmetry_group_IT_number 62
_symmetry_cell_setting 'orthorhombic'
loop_
_space_group_symop_operation_xyz
x,y,z
1/2-x,-y,1/2+z
1/2+x,1/2-y,1/2-z
-x,1/2+y,-z
-x,-y,-z
1/2+x,y,1/2-z
1/2-x,1/2+y,1/2+z
x,1/2-y,z
loop_
_atom_site_type_symbol
_atom_site_label
_atom_site_fract_x
_atom_site_fract_y
_atom_site_fract_z
Si Si1 0.082990 0.699516 0.641440
Si Si2 0.908668 0.060377 0.317685
Si Si3 0.620512 0.910070 0.219232
Si Si4 0.091229 0.638159 0.041387
Si Si5 0.843554 0.535914 0.360310
Si Si6 0.734827 0.799377 0.611382
Si Si7 0.247250 0.374034 0.015331
Si Si8 0.770683 0.927735 0.594153
O O1 0.110299 0.750000 0.617312
O O2 0.139101 0.686118 0.772883
O O3 0.177844 0.671262 0.547806
O O4 0.908482 0.685842 0.627374
O O5 0.794994 0.087561 0.398381
O O6 0.867579 0.062262 0.180053
O O7 0.076043 0.079043 0.331973
O O8 0.906494 0.010771 0.345403
O O9 0.584383 0.874830 0.320414
O O10 0.469673 0.927918 0.158738
O O11 0.706384 0.951471 0.272445
O O12 0.714882 0.885599 0.120214
O O13 0.150045 0.685466 0.010329
O O14 0.229568 0.614217 0.977224
O O15 0.932793 0.629814 0.977077
O O16 0.789009 0.535152 0.497013
O O17 0.732925 0.750000 0.599303
#
# Coordination Sequence:
#
# PCOD8254299 Si02
#       8
#     8   8   8   8   8   8   8   8
#     4  10  22  40  67  99 137 174 210 264 326 387
#     4  12  24  39  65  90 127 165 218 276 326 386
#     4  11  24  43  64  89 124 176 215 272 324 390
#     4  11  24  41  64  92 127 170 218 264 324 392
#     4  11  24  43  64  87 126 168 221 267 336 381
#     4  10  21  40  66  98 133 169 209 262 324 385
#     4  12  24  40  65  94 128 169 218 266 326 387
#     4  11  24  40  60  91 123 164 211 268 323 384
#
# _framework density 20.477605000000001
#
# number of rings (size 3 to 8) (size 9 to 14) (size 15 to 20)
#    0.000    1.000    2.500    4.125    3.500    1.500 
#    0.000    3.750    0.000    0.000    0.000    0.000 
#    0.000    0.000    0.000    0.000    0.000    0.000 
#
# Total GULP energy -793426.476141 kJ/mol
# GULP energy per Si atom -12397.288690 kJ/mol
# Density = 2.043100 g / cm^3
# Si number density = 20.477605 Si / 1000 Ang^3
#
#
#
# Elastic Constant Matrix: (Units=GPa)
#
#
# Indices 1 2 3 4 5 6 
#
# 1 68.5715 35.9723 37.4179 0.0000 0.0000 0.0000
# 2 35.9723 57.6403 45.2202 0.0000 0.0000 0.0000
# 3 37.4179 45.2202 115.6531 0.0000 0.0000 0.0000
# 4 0.0000 0.0000 0.0000 20.4276 0.0000 0.0000
# 5 0.0000 0.0000 0.0000 0.0000 37.7920 0.0000
# 6 0.0000 0.0000 0.0000 0.0000 0.0000 26.1217
#
#
#
# Elastic Compliance Matrix: (Units=1/GPa)
#
#
# Indices 1 2 3 4 5 6 
#
# 1 0.022189 -0.011851 -0.002545 0.000000 0.000000 0.000000
# 2 -0.011851 0.031355 -0.008426 0.000000 0.000000 0.000000
# 3 -0.002545 -0.008426 0.012764 0.000000 0.000000 0.000000
# 4 0.000000 0.000000 0.000000 0.048953 0.000000 0.000000
# 5 0.000000 0.000000 0.000000 0.000000 0.026461 0.000000
# 6 0.000000 0.000000 0.000000 0.000000 0.000000 0.038282
#
#
# Mechanical properties :
#
#
# Convention : Reuss Voigt Hill
#
# Bulk Modulus (GPa) = 48.39114 53.23174 50.81144
# Shear Modulus (GPa) = 21.50194 25.08523 23.29359
#
# Velocity S-wave (km/s) = 3.24392 3.50381 3.37637
# Velocity P-wave (km/s) = 6.14111 6.51310 6.32984
#
# Compressibility (1/GPa) = 0.02066494
#
# Stress axis : x y z
#
# Youngs Moduli (GPa) = 45.06687 31.89276 78.34295
#
# Poissons Ratio (x) = 0.37796 0.19940
# Poissons Ratio (y) = 0.53409 0.66008
# Poissons Ratio (z) = 0.11471 0.26871
#
# Static dielectric constant tensor:
#      x y z
#    x 4.047250 0.000000 0.000000 
#    y 0.000000 3.726740 0.000000 
#    z 0.000000 0.000000 4.090330 
# 
# 
# High freq. dielectric constant tensor:
#      x y z
#    x 1.818350 0.000000 0.000000 
#    y 0.000000 1.795760 0.000000 
#    z 0.000000 0.000000 1.800440 
# 
# From -- ./inp_files/11571.got.cif
#   From: 2010.03.12/outbox.cif.g09.slc.cpg/sg62_6_cif.got.tgz:11571.got - 2010.04.10 19:12:36.
