data_PCOD8254186
_publ_section_title
;
Structure prediction by ZEFSAII (Michael W. Deem and Ramdas Pophale) SiO2 
 PCOD8254186
Probable space group: P N M A
;
_chemical_formula_sum "Si O2"
_cell_formula_units_Z 48
_cell_length_a 18.223187
_cell_length_b 18.175750
_cell_length_c 7.111607
_cell_angle_alpha 90.000000
_cell_angle_beta 90.000000
_cell_angle_gamma 90.000000
_cell_volume 2355.507119
_symmetry_space_group_name_H-M "P N M A"
_symmetry_group_IT_number 62
_symmetry_cell_setting 'orthorhombic'
loop_
_space_group_symop_operation_xyz
x,y,z
1/2-x,-y,1/2+z
1/2+x,1/2-y,1/2-z
-x,1/2+y,-z
-x,-y,-z
1/2+x,y,1/2-z
1/2-x,1/2+y,1/2+z
x,1/2-y,z
loop_
_atom_site_type_symbol
_atom_site_label
_atom_site_fract_x
_atom_site_fract_y
_atom_site_fract_z
Si Si1 0.956962 0.093424 0.876799
Si Si2 0.057747 0.071721 0.213527
Si Si3 0.703376 0.908231 0.531867
Si Si4 0.720623 0.071063 0.400747
Si Si5 0.194206 0.334386 0.739781
Si Si6 0.039285 0.334839 0.571869
O O1 0.881196 0.106037 0.985074
O O2 0.970783 0.153316 0.713457
O O3 0.961197 0.014436 0.774490
O O4 0.021850 0.104220 0.025962
O O5 0.144437 0.085034 0.205853
O O6 0.025606 0.114451 0.391487
O O7 0.714488 0.905613 0.757515
O O8 0.751268 0.844686 0.435668
O O9 0.731259 0.986387 0.454915
O O10 0.725879 0.119116 0.587579
O O11 0.192810 0.250000 0.801965
O O12 0.113283 0.360521 0.678303
O O13 0.043623 0.250000 0.508817
#
# Coordination Sequence:
#
# PCOD8254186 Si02
#       6
#     8   8   8   8   8   8
#     4  10  23  40  61  95 127 159 206 274 314 360
#     4  10  21  39  65  93 118 163 217 254 311 377
#     4  11  23  39  66  94 126 163 214 265 318 373
#     4  11  21  40  66  92 123 168 214 263 312 380
#     4  11  24  40  63  94 128 167 213 261 316 381
#     4  11  23  40  64  91 127 169 207 254 314 384
#
# _framework density 20.377777999999999
#
# number of rings (size 3 to 8) (size 9 to 14) (size 15 to 20)
#    0.000    1.333    5.000    0.500    0.000    4.000 
#    0.000    0.000    0.000    0.000    0.000    0.000 
#    0.000    0.000    0.000    0.000    0.000    0.000 
#
# Total GULP energy -595403.958906 kJ/mol
# GULP energy per Si atom -12404.249144 kJ/mol
# Density = 2.033140 g / cm^3
# Si number density = 20.377778 Si / 1000 Ang^3
#
#
#
# Elastic Constant Matrix: (Units=GPa)
#
#
# Indices 1 2 3 4 5 6 
#
# 1 72.3113 35.2745 39.7443 0.0000 0.0000 0.0000
# 2 35.2745 53.8546 40.7811 0.0000 0.0000 0.0000
# 3 39.7443 40.7811 103.0085 0.0000 0.0000 0.0000
# 4 0.0000 0.0000 0.0000 24.4672 0.0000 0.0000
# 5 0.0000 0.0000 0.0000 0.0000 38.4314 0.0000
# 6 0.0000 0.0000 0.0000 0.0000 0.0000 25.4000
#
#
#
# Elastic Compliance Matrix: (Units=1/GPa)
#
#
# Indices 1 2 3 4 5 6 
#
# 1 0.021344 -0.011060 -0.003857 0.000000 0.000000 0.000000
# 2 -0.011060 0.032249 -0.008500 0.000000 0.000000 0.000000
# 3 -0.003857 -0.008500 0.014561 0.000000 0.000000 0.000000
# 4 0.000000 0.000000 0.000000 0.040871 0.000000 0.000000
# 5 0.000000 0.000000 0.000000 0.000000 0.026020 0.000000
# 6 0.000000 0.000000 0.000000 0.000000 0.000000 0.039370
#
#
# Mechanical properties :
#
#
# Convention : Reuss Voigt Hill
#
# Bulk Modulus (GPa) = 46.90179 51.19712 49.04945
# Shear Modulus (GPa) = 21.89559 25.21802 23.55680
#
# Velocity S-wave (km/s) = 3.28149 3.52166 3.40370
# Velocity P-wave (km/s) = 6.11749 6.45869 6.29040
#
# Compressibility (1/GPa) = 0.02132115
#
# Stress axis : x y z
#
# Youngs Moduli (GPa) = 46.85173 31.00837 68.67534
#
# Poissons Ratio (x) = 0.34294 0.26486
# Poissons Ratio (y) = 0.51817 0.58376
# Poissons Ratio (z) = 0.18069 0.26358
#
# Static dielectric constant tensor:
#      x y z
#    x 3.619210 0.000000 0.000000 
#    y 0.000000 3.506820 0.000000 
#    z 0.000000 0.000000 3.648370 
# 
# 
# High freq. dielectric constant tensor:
#      x y z
#    x 1.792110 0.000000 0.000000 
#    y 0.000000 1.783050 0.000000 
#    z 0.000000 0.000000 1.805140 
# 
# From -- ./inp_files/2207.got.cif
#   From: 2010.03.12/outbox.cif.g09.slc.cpg/sg62_2_cif.got.tgz:2207.got - 2010.04.10 19:12:36.
