data_PCOD8254130
_publ_section_title
;
Structure prediction by ZEFSAII (Michael W. Deem and Ramdas Pophale) SiO2 
 PCOD8254130
Probable space group: P N M A
;
_chemical_formula_sum "Si O2"
_cell_formula_units_Z 48
_cell_length_a 11.261825
_cell_length_b 21.518633
_cell_length_c 9.047882
_cell_angle_alpha 90.000000
_cell_angle_beta 90.000000
_cell_angle_gamma 90.000000
_cell_volume 2192.655392
_symmetry_space_group_name_H-M "P N M A"
_symmetry_group_IT_number 62
_symmetry_cell_setting 'orthorhombic'
loop_
_space_group_symop_operation_xyz
x,y,z
1/2-x,-y,1/2+z
1/2+x,1/2-y,1/2-z
-x,1/2+y,-z
-x,-y,-z
1/2+x,y,1/2-z
1/2-x,1/2+y,1/2+z
x,1/2-y,z
loop_
_atom_site_type_symbol
_atom_site_label
_atom_site_fract_x
_atom_site_fract_y
_atom_site_fract_z
Si Si1 0.734530 0.600019 0.192538
Si Si2 0.960457 0.070828 0.471654
Si Si3 0.596243 0.119123 0.432313
Si Si4 0.820967 0.377333 0.009690
Si Si5 0.264046 0.038052 0.246645
Si Si6 0.619840 0.181916 0.142461
O O1 0.716880 0.638604 0.341894
O O2 0.784153 0.534692 0.251864
O O3 0.607074 0.591598 0.118591
O O4 0.827520 0.631713 0.080594
O O5 0.874539 0.072635 0.330139
O O6 0.058107 0.124238 0.443445
O O7 0.000000 0.000000 0.500000
O O8 0.461044 0.113746 0.480695
O O9 0.643658 0.057515 0.343268
O O10 0.608436 0.176616 0.319755
O O11 0.761198 0.439684 0.082035
O O12 0.761296 0.321380 0.104008
O O13 0.570126 0.250000 0.096115
#
# Coordination Sequence:
#
# PCOD8254130 Si02
#       6
#     8   8   8   8   8   8
#     4  11  24  37  65 102 142 176 223 291 352 416
#     4  11  22  41  68 105 145 181 230 289 350 418
#     4  10  23  44  62  96 136 180 231 283 345 411
#     4  11  23  41  65  95 134 180 230 282 348 406
#     4  10  21  39  62 101 139 188 229 273 346 421
#     4  11  25  48  72  96 129 185 246 289 345 433
#
# _framework density 21.891264
#
# number of rings (size 3 to 8) (size 9 to 14) (size 15 to 20)
#    0.000    1.333    1.667    5.000    4.667    2.000 
#    0.000    1.667    0.000    0.000    0.000    0.000 
#    0.000    0.000    0.000    0.000    0.000    0.000 
#
# Total GULP energy -594672.479794 kJ/mol
# GULP energy per Si atom -12389.009996 kJ/mol
# Density = 2.184144 g / cm^3
# Si number density = 21.891264 Si / 1000 Ang^3
#
#
#
# Elastic Constant Matrix: (Units=GPa)
#
#
# Indices 1 2 3 4 5 6 
#
# 1 125.9656 39.5705 54.3474 0.0000 0.0000 0.0000
# 2 39.5705 114.3378 21.7986 0.0000 0.0000 0.0000
# 3 54.3474 21.7986 151.7065 0.0000 0.0000 0.0000
# 4 0.0000 0.0000 0.0000 14.7833 0.0000 0.0000
# 5 0.0000 0.0000 0.0000 0.0000 30.6839 0.0000
# 6 0.0000 0.0000 0.0000 0.0000 0.0000 14.7075
#
#
#
# Elastic Compliance Matrix: (Units=1/GPa)
#
#
# Indices 1 2 3 4 5 6 
#
# 1 0.010264 -0.002932 -0.003256 0.000000 0.000000 0.000000
# 2 -0.002932 0.009830 -0.000362 0.000000 0.000000 0.000000
# 3 -0.003256 -0.000362 0.007810 0.000000 0.000000 0.000000
# 4 0.000000 0.000000 0.000000 0.067644 0.000000 0.000000
# 5 0.000000 0.000000 0.000000 0.000000 0.032590 0.000000
# 6 0.000000 0.000000 0.000000 0.000000 0.000000 0.067993
#
#
# Mechanical properties :
#
#
# Convention : Reuss Voigt Hill
#
# Bulk Modulus (GPa) = 67.54580 69.27145 68.40862
# Shear Modulus (GPa) = 23.34648 30.45451 26.90049
#
# Velocity S-wave (km/s) = 3.26924 3.73389 3.50926
# Velocity P-wave (km/s) = 6.72106 7.09234 6.90920
#
# Compressibility (1/GPa) = 0.01480477
#
# Stress axis : x y z
#
# Youngs Moduli (GPa) = 97.42481 101.73305 128.03937
#
# Poissons Ratio (x) = 0.29824 0.41688
# Poissons Ratio (y) = 0.28561 0.04638
# Poissons Ratio (z) = 0.31720 0.03685
#
# Static dielectric constant tensor:
#      x y z
#    x 4.075790 0.000000 0.000000 
#    y 0.000000 3.563130 0.000000 
#    z 0.000000 0.000000 4.245860 
# 
# 
# High freq. dielectric constant tensor:
#      x y z
#    x 1.871550 0.000000 0.000000 
#    y 0.000000 1.809150 0.000000 
#    z 0.000000 0.000000 1.878480 
# 
# From -- ./inp_files/5285.got.cif
#   From: 2010.03.12/outbox.cif.g09.slc.cpg/sg62_3_cif.got.tgz:5285.got - 2010.04.10 19:12:36.
