data_PCOD8254251
_publ_section_title
;
Structure prediction by ZEFSAII (Michael W. Deem and Ramdas Pophale) SiO2 
 PCOD8254251
Probable space group: P N M A
;
_chemical_formula_sum "Si O2"
_cell_formula_units_Z 56
_cell_length_a 16.569357
_cell_length_b 8.506900
_cell_length_c 19.623314
_cell_angle_alpha 90.000000
_cell_angle_beta 90.000000
_cell_angle_gamma 90.000000
_cell_volume 2765.981914
_symmetry_space_group_name_H-M "P N M A"
_symmetry_group_IT_number 62
_symmetry_cell_setting 'orthorhombic'
loop_
_space_group_symop_operation_xyz
x,y,z
1/2-x,-y,1/2+z
1/2+x,1/2-y,1/2-z
-x,1/2+y,-z
-x,-y,-z
1/2+x,y,1/2-z
1/2-x,1/2+y,1/2+z
x,1/2-y,z
loop_
_atom_site_type_symbol
_atom_site_label
_atom_site_fract_x
_atom_site_fract_y
_atom_site_fract_z
Si Si1 0.142401 0.931122 0.359053
Si Si2 0.560149 0.934596 0.555886
Si Si3 0.419858 0.565618 0.301683
Si Si4 0.022868 0.566217 0.665590
Si Si5 0.754922 0.433477 0.246556
Si Si6 0.244050 0.932547 0.971267
Si Si7 0.315191 0.565627 0.117105
O O1 0.118279 0.750000 0.359932
O O2 0.061514 0.031909 0.371592
O O3 0.179980 0.974780 0.286010
O O4 0.206131 0.965495 0.418060
O O5 0.548052 0.750000 0.563752
O O6 0.650570 0.978655 0.533359
O O7 0.500000 0.000000 0.500000
O O8 0.538546 0.016976 0.627554
O O9 0.402400 0.750000 0.299533
O O10 0.477751 0.518062 0.239298
O O11 0.335731 0.473290 0.295184
O O12 0.036859 0.750000 0.676141
O O13 0.093860 0.499503 0.617909
O O14 0.737580 0.250000 0.240350
O O15 0.762003 0.483081 0.324885
O O16 0.258087 0.750000 0.954482
O O17 0.274470 0.976966 0.046064
O O18 0.316955 0.750000 0.131810
#
# Coordination Sequence:
#
# PCOD8254251 Si02
#       7
#     8   8   8   8   8   8   8
#     4  12  24  39  63  92 123 162 211 259 309 373
#     4  11  23  40  62  90 126 166 209 258 315 373
#     4  11  21  38  62  89 119 156 203 254 309 367
#     4  11  23  40  62  90 123 162 205 257 314 368
#     4  11  21  37  61  88 120 161 206 254 310 371
#     4  10  23  42  64  89 124 166 207 256 313 373
#     4  10  21  40  63  90 124 163 209 259 312 368
#
# _framework density 20.245975000000001
#
# number of rings (size 3 to 8) (size 9 to 14) (size 15 to 20)
#    0.000    1.143    1.429    7.714    0.000    3.429 
#    0.000    4.286    0.000    0.000    0.000    0.000 
#    0.000    0.000    0.000    0.000    0.000    0.000 
#
# Total GULP energy -694776.262121 kJ/mol
# GULP energy per Si atom -12406.718966 kJ/mol
# Density = 2.019989 g / cm^3
# Si number density = 20.245975 Si / 1000 Ang^3
#
#
#
# Elastic Constant Matrix: (Units=GPa)
#
#
# Indices 1 2 3 4 5 6 
#
# 1 88.2510 21.6281 47.9460 0.0000 0.0000 0.0000
# 2 21.6281 85.0732 37.3965 0.0000 0.0000 0.0000
# 3 47.9460 37.3965 96.9165 0.0000 0.0000 0.0000
# 4 0.0000 0.0000 0.0000 35.2625 0.0000 0.0000
# 5 0.0000 0.0000 0.0000 0.0000 26.6984 0.0000
# 6 0.0000 0.0000 0.0000 0.0000 0.0000 30.7955
#
#
#
# Elastic Compliance Matrix: (Units=1/GPa)
#
#
# Indices 1 2 3 4 5 6 
#
# 1 0.015530 -0.000688 -0.007417 0.000000 0.000000 0.000000
# 2 -0.000688 0.014186 -0.005134 0.000000 0.000000 0.000000
# 3 -0.007417 -0.005134 0.015969 0.000000 0.000000 0.000000
# 4 0.000000 0.000000 0.000000 0.028359 0.000000 0.000000
# 5 0.000000 0.000000 0.000000 0.000000 0.037455 0.000000
# 6 0.000000 0.000000 0.000000 0.000000 0.000000 0.032472
#
#
# Mechanical properties :
#
#
# Convention : Reuss Voigt Hill
#
# Bulk Modulus (GPa) = 52.06469 53.79797 52.93133
# Shear Modulus (GPa) = 28.27248 29.43597 28.85422
#
# Velocity S-wave (km/s) = 3.74096 3.81716 3.77926
# Velocity P-wave (km/s) = 6.66571 6.78657 6.72641
#
# Compressibility (1/GPa) = 0.01920687
#
# Stress axis : x y z
#
# Youngs Moduli (GPa) = 64.39296 70.49166 62.62289
#
# Poissons Ratio (x) = 0.04846 0.46450
# Poissons Ratio (y) = 0.04427 0.32149
# Poissons Ratio (z) = 0.47763 0.36189
#
# Static dielectric constant tensor:
#      x y z
#    x 3.606530 0.000000 0.000000 
#    y 0.000000 3.718870 0.000000 
#    z 0.000000 0.000000 3.765060 
# 
# 
# High freq. dielectric constant tensor:
#      x y z
#    x 1.787360 0.000000 0.000000 
#    y 0.000000 1.804900 0.000000 
#    z 0.000000 0.000000 1.794990 
# 
# From -- ./inp_files/27072.got.cif
#   From: 2010.03.12/outbox.cif.g09.slc.cpg/sg62_14_cif.got.tgz:27072.got - 2010.04.10 19:12:36.
