data_PCOD8254736
_publ_section_title
;
Structure prediction by ZEFSAII (Michael W. Deem and Ramdas Pophale) SiO2 
 PCOD8254736
Probable space group: P N M A
;
_chemical_formula_sum "Si O2"
_cell_formula_units_Z 64
_cell_length_a 12.671836
_cell_length_b 8.534129
_cell_length_c 29.007012
_cell_angle_alpha 90.000000
_cell_angle_beta 90.000000
_cell_angle_gamma 90.000000
_cell_volume 3136.907709
_symmetry_space_group_name_H-M "P N M A"
_symmetry_group_IT_number 62
_symmetry_cell_setting 'orthorhombic'
loop_
_space_group_symop_operation_xyz
x,y,z
1/2-x,-y,1/2+z
1/2+x,1/2-y,1/2-z
-x,1/2+y,-z
-x,-y,-z
1/2+x,y,1/2-z
1/2-x,1/2+y,1/2+z
x,1/2-y,z
loop_
_atom_site_type_symbol
_atom_site_label
_atom_site_fract_x
_atom_site_fract_y
_atom_site_fract_z
Si Si1 0.493525 0.066450 0.859762
Si Si2 0.787338 0.434450 0.385293
Si Si3 0.526883 0.069805 0.240180
Si Si4 0.851450 0.577123 0.209487
Si Si5 0.290342 0.075758 0.708429
Si Si6 0.872498 0.067184 0.957753
Si Si7 0.109534 0.430824 0.943522
Si Si8 0.228745 0.066990 0.372254
O O1 0.509025 0.250000 0.866363
O O2 0.589766 0.981898 0.886255
O O3 0.496055 0.028170 0.805683
O O4 0.383259 0.014773 0.883277
O O5 0.776069 0.250000 0.391781
O O6 0.732801 0.486063 0.338202
O O7 0.724768 0.521359 0.425677
O O8 0.511966 0.250000 0.227062
O O9 0.456999 0.024035 0.284977
O O10 0.642287 0.033690 0.258211
O O11 0.874740 0.750000 0.188514
O O12 0.815333 0.595995 0.262309
O O13 0.767626 0.491054 0.177354
O O14 0.339012 0.250000 0.698752
O O15 0.867076 0.250000 0.970226
O O16 0.986031 0.028523 0.934152
O O17 0.860604 0.967985 0.004126
O O18 0.132841 0.250000 0.933363
O O19 0.182871 0.532480 0.910245
O O20 0.207127 0.250000 0.369548
#
# Coordination Sequence:
#
# PCOD8254736 Si02
#       8
#     8   8   8   8   8   8   8   8
#     4  12  24  42  63  87 124 169 213 256 313 373
#     4  12  25  41  64  94 127 164 212 261 313 370
#     4  12  24  38  58  85 120 161 208 262 314 365
#     4  11  23  39  60  85 121 166 211 255 308 368
#     4  11  23  39  60  85 121 166 211 255 308 368
#     4  10  22  43  70  98 129 163 203 252 313 374
#     4  10  22  43  70  98 129 163 203 252 313 374
#     4  12  25  41  64  94 127 164 212 261 313 370
#
# _framework density 20.402258
#
# number of rings (size 3 to 8) (size 9 to 14) (size 15 to 20)
#    0.000    0.750    2.500    6.000    1.750    2.500 
#    0.000    0.625    0.000    0.000    0.000    0.000 
#    0.000    0.000    0.000    0.000    0.000    0.000 
#
# Total GULP energy -793634.997340 kJ/mol
# GULP energy per Si atom -12400.546833 kJ/mol
# Density = 2.035582 g / cm^3
# Si number density = 20.402258 Si / 1000 Ang^3
#
#
#
# Elastic Constant Matrix: (Units=GPa)
#
#
# Indices 1 2 3 4 5 6 
#
# 1 100.6599 19.4568 33.7239 0.0000 0.0000 0.0000
# 2 19.4568 86.9385 12.0370 0.0000 0.0000 0.0000
# 3 33.7239 12.0370 56.7712 0.0000 0.0000 0.0000
# 4 0.0000 0.0000 0.0000 33.9741 0.0000 0.0000
# 5 0.0000 0.0000 0.0000 0.0000 32.3583 0.0000
# 6 0.0000 0.0000 0.0000 0.0000 0.0000 34.5387
#
#
#
# Elastic Compliance Matrix: (Units=1/GPa)
#
#
# Indices 1 2 3 4 5 6 
#
# 1 0.012685 -0.001850 -0.007143 0.000000 0.000000 0.000000
# 2 -0.001850 0.012120 -0.001471 0.000000 0.000000 0.000000
# 3 -0.007143 -0.001471 0.022170 0.000000 0.000000 0.000000
# 4 0.000000 0.000000 0.000000 0.029434 0.000000 0.000000
# 5 0.000000 0.000000 0.000000 0.000000 0.030904 0.000000
# 6 0.000000 0.000000 0.000000 0.000000 0.000000 0.028953
#
#
# Mechanical properties :
#
#
# Convention : Reuss Voigt Hill
#
# Bulk Modulus (GPa) = 38.39211 41.64499 40.01855
# Shear Modulus (GPa) = 30.14294 32.11769 31.13032
#
# Velocity S-wave (km/s) = 3.84791 3.97195 3.91042
# Velocity P-wave (km/s) = 6.21291 6.44139 6.32818
#
# Compressibility (1/GPa) = 0.02604702
#
# Stress axis : x y z
#
# Youngs Moduli (GPa) = 78.83209 82.50790 45.10661
#
# Poissons Ratio (x) = 0.15263 0.32220
# Poissons Ratio (y) = 0.14583 0.06635
# Poissons Ratio (z) = 0.56311 0.12136
#
# Static dielectric constant tensor:
#      x y z
#    x 3.858330 0.000000 0.000000 
#    y 0.000000 3.801090 0.000000 
#    z 0.000000 0.000000 3.510020 
# 
# 
# High freq. dielectric constant tensor:
#      x y z
#    x 1.807730 0.000000 0.000000 
#    y 0.000000 1.813960 0.000000 
#    z 0.000000 0.000000 1.778530 
# 
# From -- ./inp_files/32507.got.cif
#   From: 2010.03.12/outbox.cif.g09.slc.cpg/sg62_17_cif.got.tgz:32507.got - 2010.04.10 19:12:36.
