data_PCOD8254104
_publ_section_title
;
Structure prediction by ZEFSAII (Michael W. Deem and Ramdas Pophale) SiO2 
 PCOD8254104
Probable space group: P N M A
;
_chemical_formula_sum "Si O2"
_cell_formula_units_Z 48
_cell_length_a 9.342277
_cell_length_b 8.772558
_cell_length_c 30.249817
_cell_angle_alpha 90.000000
_cell_angle_beta 90.000000
_cell_angle_gamma 90.000000
_cell_volume 2479.143924
_symmetry_space_group_name_H-M "P N M A"
_symmetry_group_IT_number 62
_symmetry_cell_setting 'orthorhombic'
loop_
_space_group_symop_operation_xyz
x,y,z
1/2-x,-y,1/2+z
1/2+x,1/2-y,1/2-z
-x,1/2+y,-z
-x,-y,-z
1/2+x,y,1/2-z
1/2-x,1/2+y,1/2+z
x,1/2-y,z
loop_
_atom_site_type_symbol
_atom_site_label
_atom_site_fract_x
_atom_site_fract_y
_atom_site_fract_z
Si Si1 0.908592 0.928057 0.877019
Si Si2 0.583641 0.576637 0.886704
Si Si3 0.584035 0.575520 0.786041
Si Si4 0.405690 0.070333 0.461548
Si Si5 0.092520 0.929396 0.461078
Si Si6 0.609317 0.570353 0.286781
O O1 0.905935 0.750000 0.865622
O O2 0.748434 0.978439 0.891237
O O3 0.019581 0.970025 0.915207
O O4 0.959898 0.014997 0.832971
O O5 0.568684 0.750000 0.904311
O O6 0.529245 0.565582 0.836398
O O7 0.483503 0.465859 0.914806
O O8 0.600663 0.750000 0.770927
O O9 0.733413 0.493014 0.781806
O O10 0.475007 0.489469 0.755110
O O11 0.394336 0.250000 0.468705
O O12 0.500000 0.000000 0.500000
O O13 0.249752 0.998930 0.462040
O O14 0.104454 0.750000 0.467825
O O15 0.000000 0.000000 0.500000
O O16 0.610716 0.750000 0.286006
#
# Coordination Sequence:
#
# PCOD8254104 Si02
#       6
#     8   8   8   8   8   8
#     4   9  20  39  61  84 114 153 192 232 288 353
#     4   9  19  38  62  86 112 147 193 240 287 342
#     4  10  21  39  61  83 115 158 196 233 288 353
#     4  11  23  40  63  89 118 152 192 237 285 342
#     4  12  25  40  60  86 118 154 193 238 288 342
#     4  11  22  36  58  88 119 150 193 246 289 332
#
# _framework density 19.361522000000001
#
# number of rings (size 3 to 8) (size 9 to 14) (size 15 to 20)
#    0.000    1.667    0.000    6.000    0.000    7.333 
#    0.000    1.667    0.000    0.000    0.000    0.000 
#    0.000    0.000    0.000    0.000    0.000    0.000 
#
# Total GULP energy -595380.837754 kJ/mol
# GULP energy per Si atom -12403.767453 kJ/mol
# Density = 1.931745 g / cm^3
# Si number density = 19.361522 Si / 1000 Ang^3
#
#
#
# Elastic Constant Matrix: (Units=GPa)
#
#
# Indices 1 2 3 4 5 6 
#
# 1 117.9941 55.6625 74.3412 0.0000 0.0000 0.0000
# 2 55.6625 130.0903 69.1060 0.0000 0.0000 0.0000
# 3 74.3412 69.1060 121.9926 0.0000 0.0000 0.0000
# 4 0.0000 0.0000 0.0000 37.2485 0.0000 0.0000
# 5 0.0000 0.0000 0.0000 0.0000 37.1834 0.0000
# 6 0.0000 0.0000 0.0000 0.0000 0.0000 39.7360
#
#
#
# Elastic Compliance Matrix: (Units=1/GPa)
#
#
# Indices 1 2 3 4 5 6 
#
# 1 0.014150 -0.002108 -0.007428 0.000000 0.000000 0.000000
# 2 -0.002108 0.011310 -0.005122 0.000000 0.000000 0.000000
# 3 -0.007428 -0.005122 0.015626 0.000000 0.000000 0.000000
# 4 0.000000 0.000000 0.000000 0.026847 0.000000 0.000000
# 5 0.000000 0.000000 0.000000 0.000000 0.026894 0.000000
# 6 0.000000 0.000000 0.000000 0.000000 0.000000 0.025166
#
#
# Mechanical properties :
#
#
# Convention : Reuss Voigt Hill
#
# Bulk Modulus (GPa) = 84.97805 85.36626 85.17216
# Shear Modulus (GPa) = 32.63025 34.23143 33.43084
#
# Velocity S-wave (km/s) = 4.10971 4.20934 4.15982
# Velocity P-wave (km/s) = 8.15507 8.23475 8.19500
#
# Compressibility (1/GPa) = 0.01176775
#
# Stress axis : x y z
#
# Youngs Moduli (GPa) = 70.67246 88.41761 63.99750
#
# Poissons Ratio (x) = 0.18640 0.47540
# Poissons Ratio (y) = 0.14899 0.32780
# Poissons Ratio (z) = 0.52499 0.45288
#
# Static dielectric constant tensor:
#      x y z
#    x 3.434600 0.000000 0.000000 
#    y 0.000000 3.653290 0.000000 
#    z 0.000000 0.000000 3.906670 
# 
# 
# High freq. dielectric constant tensor:
#      x y z
#    x 1.754790 0.000000 0.000000 
#    y 0.000000 1.761740 0.000000 
#    z 0.000000 0.000000 1.767440 
# 
# From -- ./inp_files/31904.got.cif
#   From: 2010.03.12/outbox.cif.g09.slc.cpg/sg62_16_cif.got.tgz:31904.got - 2010.04.10 19:12:36.
