data_PCOD8254797
_publ_section_title
;
Structure prediction by ZEFSAII (Michael W. Deem and Ramdas Pophale) SiO2 
 PCOD8254797
Probable space group: P N M A
;
_chemical_formula_sum "Si O2"
_cell_formula_units_Z 56
_cell_length_a 14.642078
_cell_length_b 8.879155
_cell_length_c 20.868061
_cell_angle_alpha 90.000000
_cell_angle_beta 90.000000
_cell_angle_gamma 90.000000
_cell_volume 2713.041587
_symmetry_space_group_name_H-M "P N M A"
_symmetry_group_IT_number 62
_symmetry_cell_setting 'orthorhombic'
loop_
_space_group_symop_operation_xyz
x,y,z
1/2-x,-y,1/2+z
1/2+x,1/2-y,1/2-z
-x,1/2+y,-z
-x,-y,-z
1/2+x,y,1/2-z
1/2-x,1/2+y,1/2+z
x,1/2-y,z
loop_
_atom_site_type_symbol
_atom_site_label
_atom_site_fract_x
_atom_site_fract_y
_atom_site_fract_z
Si Si1 0.062269 0.418136 0.632171
Si Si2 0.726481 0.923838 0.525887
Si Si3 0.937036 0.577235 0.551865
Si Si4 0.187384 0.072425 0.240792
Si Si5 0.823981 0.571731 0.156039
Si Si6 0.502632 0.081721 0.731114
Si Si7 0.242716 0.927242 0.601603
O O1 0.072087 0.250000 0.602855
O O2 0.070763 0.414998 0.708185
O O3 0.138009 0.521010 0.598427
O O4 0.962415 0.488962 0.617220
O O5 0.696493 0.750000 0.526649
O O6 0.833044 0.946478 0.535883
O O7 0.678655 0.010369 0.583878
O O8 0.700719 0.994905 0.456532
O O9 0.963051 0.750000 0.560037
O O10 0.000000 0.500000 0.500000
O O11 0.197702 0.250000 0.249853
O O12 0.219526 0.019431 0.170386
O O13 0.246639 0.998568 0.297572
O O14 0.080800 0.030177 0.243256
O O15 0.808844 0.750000 0.157006
O O16 0.927652 0.527698 0.176109
O O17 0.464053 0.250000 0.717909
O O18 0.250082 0.750000 0.592421
#
# Coordination Sequence:
#
# PCOD8254797 Si02
#       7
#     8   8   8   8   8   8   8
#     4  11  21  36  58  86 119 157 201 248 306 369
#     4  11  24  40  60  89 124 164 208 257 314 371
#     4  11  22  34  52  82 119 156 198 244 302 370
#     4  11  24  41  65  96 127 164 211 260 313 371
#     4  11  23  42  66  93 127 166 209 258 315 375
#     4  10  23  41  64  92 122 162 209 258 312 370
#     4  11  23  39  61  89 122 162 204 251 308 367
#
# _framework density 20.64104
#
# number of rings (size 3 to 8) (size 9 to 14) (size 15 to 20)
#    0.000    1.143    2.857    3.429    0.000    8.000 
#    0.000    0.714    0.000    0.000    0.000    0.000 
#    0.000    0.000    0.000    0.000    0.000    0.000 
#
# Total GULP energy -694276.521492 kJ/mol
# GULP energy per Si atom -12397.795027 kJ/mol
# Density = 2.059406 g / cm^3
# Si number density = 20.641040 Si / 1000 Ang^3
#
#
#
# Elastic Constant Matrix: (Units=GPa)
#
#
# Indices 1 2 3 4 5 6 
#
# 1 50.7108 17.9210 11.4886 0.0000 0.0000 0.0000
# 2 17.9210 70.9397 29.1938 0.0000 0.0000 0.0000
# 3 11.4886 29.1938 106.2797 0.0000 0.0000 0.0000
# 4 0.0000 0.0000 0.0000 36.8891 0.0000 0.0000
# 5 0.0000 0.0000 0.0000 0.0000 31.3124 0.0000
# 6 0.0000 0.0000 0.0000 0.0000 0.0000 26.4103
#
#
#
# Elastic Compliance Matrix: (Units=1/GPa)
#
#
# Indices 1 2 3 4 5 6 
#
# 1 0.021737 -0.005101 -0.000949 0.000000 0.000000 0.000000
# 2 -0.005101 0.017090 -0.004143 0.000000 0.000000 0.000000
# 3 -0.000949 -0.004143 0.010650 0.000000 0.000000 0.000000
# 4 0.000000 0.000000 0.000000 0.027108 0.000000 0.000000
# 5 0.000000 0.000000 0.000000 0.000000 0.031936 0.000000
# 6 0.000000 0.000000 0.000000 0.000000 0.000000 0.037864
#
#
# Mechanical properties :
#
#
# Convention : Reuss Voigt Hill
#
# Bulk Modulus (GPa) = 34.37385 38.34856 36.36120
# Shear Modulus (GPa) = 28.33375 30.21082 29.27228
#
# Velocity S-wave (km/s) = 3.70900 3.82989 3.76993
# Velocity P-wave (km/s) = 5.91875 6.17872 6.05013
#
# Compressibility (1/GPa) = 0.02909188
#
# Stress axis : x y z
#
# Youngs Moduli (GPa) = 46.00398 58.51347 93.89925
#
# Poissons Ratio (x) = 0.29848 0.08907
# Poissons Ratio (y) = 0.23467 0.38903
# Poissons Ratio (z) = 0.04364 0.24242
#
# Static dielectric constant tensor:
#      x y z
#    x 3.959010 0.000000 0.000000 
#    y 0.000000 3.931820 0.000000 
#    z 0.000000 0.000000 4.368550 
# 
# 
# High freq. dielectric constant tensor:
#      x y z
#    x 1.784970 0.000000 0.000000 
#    y 0.000000 1.817000 0.000000 
#    z 0.000000 0.000000 1.824400 
# 
# From -- ./inp_files/27114.got.cif
#   From: 2010.03.12/outbox.cif.g09.slc.cpg/sg62_14_cif.got.tgz:27114.got - 2010.04.10 19:12:36.
