data_PCOD8254887
_publ_section_title
;
Structure prediction by ZEFSAII (Michael W. Deem and Ramdas Pophale) SiO2 
 PCOD8254887
Probable space group: P N M A
;
_chemical_formula_sum "Si O2"
_cell_formula_units_Z 40
_cell_length_a 8.576347
_cell_length_b 15.849851
_cell_length_c 13.687714
_cell_angle_alpha 90.000000
_cell_angle_beta 90.000000
_cell_angle_gamma 90.000000
_cell_volume 1860.623279
_symmetry_space_group_name_H-M "P N M A"
_symmetry_group_IT_number 62
_symmetry_cell_setting 'orthorhombic'
loop_
_space_group_symop_operation_xyz
x,y,z
1/2-x,-y,1/2+z
1/2+x,1/2-y,1/2-z
-x,1/2+y,-z
-x,-y,-z
1/2+x,y,1/2-z
1/2-x,1/2+y,1/2+z
x,1/2-y,z
loop_
_atom_site_type_symbol
_atom_site_label
_atom_site_fract_x
_atom_site_fract_y
_atom_site_fract_z
Si Si1 0.472240 0.250000 0.111479
Si Si2 0.934251 0.585090 0.124597
Si Si3 0.888129 0.151701 0.702999
Si Si4 0.551072 0.095883 0.982773
Si Si5 0.685579 0.750000 0.693599
Si Si6 0.109522 0.900184 0.934855
O O1 0.632399 0.250000 0.171441
O O2 0.332796 0.250000 0.189665
O O3 0.456530 0.164619 0.047549
O O4 0.783080 0.634160 0.161826
O O5 0.903082 0.485861 0.125904
O O6 0.081160 0.604917 0.194354
O O7 0.970641 0.612390 0.013052
O O8 0.909540 0.250000 0.720906
O O9 0.020448 0.118371 0.629431
O O10 0.732496 0.105066 0.003374
O O11 0.500000 0.000000 0.000000
O O12 0.599020 0.670010 0.647544
#
# Coordination Sequence:
#
# PCOD8254887 Si02
#       6
#     4   8   8   8   4   8
#     4  10  24  44  63  98 125 170 215 266 326 380
#     4  11  25  43  65  97 133 172 224 266 336 394
#     4  12  25  42  69  99 129 174 219 281 334 394
#     4  11  22  44  68  94 133 170 220 271 327 391
#     4  10  24  40  67  90 133 166 215 264 318 390
#     4  10  24  44  64  97 132 177 213 272 323 394
#
# _framework density 21.498170999999999
#
# number of rings (size 3 to 8) (size 9 to 14) (size 15 to 20)
#    0.000    1.200    3.000    1.800    5.600    1.600 
#    0.000    0.000    0.000    0.000    0.000    0.000 
#    0.000    0.000    0.000    0.000    0.000    0.000 
#
# Total GULP energy -496149.307029 kJ/mol
# GULP energy per Si atom -12403.732676 kJ/mol
# Density = 2.144924 g / cm^3
# Si number density = 21.498171 Si / 1000 Ang^3
#
#
#
# Elastic Constant Matrix: (Units=GPa)
#
#
# Indices 1 2 3 4 5 6 
#
# 1 55.0189 13.4844 4.9539 0.0000 0.0000 0.0000
# 2 13.4844 125.4551 44.4947 0.0000 0.0000 0.0000
# 3 4.9539 44.4947 85.4843 0.0000 0.0000 0.0000
# 4 0.0000 0.0000 0.0000 30.4687 0.0000 0.0000
# 5 0.0000 0.0000 0.0000 0.0000 40.4187 0.0000
# 6 0.0000 0.0000 0.0000 0.0000 0.0000 31.9102
#
#
#
# Elastic Compliance Matrix: (Units=1/GPa)
#
#
# Indices 1 2 3 4 5 6 
#
# 1 0.018667 -0.001990 -0.000046 0.000000 0.000000 0.000000
# 2 -0.001990 0.009988 -0.005083 0.000000 0.000000 0.000000
# 3 -0.000046 -0.005083 0.014347 0.000000 0.000000 0.000000
# 4 0.000000 0.000000 0.000000 0.032821 0.000000 0.000000
# 5 0.000000 0.000000 0.000000 0.000000 0.024741 0.000000
# 6 0.000000 0.000000 0.000000 0.000000 0.000000 0.031338
#
#
# Mechanical properties :
#
#
# Convention : Reuss Voigt Hill
#
# Bulk Modulus (GPa) = 34.76683 43.53603 39.15143
# Shear Modulus (GPa) = 32.10731 34.09456 33.10094
#
# Velocity S-wave (km/s) = 3.86876 3.98669 3.92817
# Velocity P-wave (km/s) = 6.01361 6.44101 6.23098
#
# Compressibility (1/GPa) = 0.02876305
#
# Stress axis : x y z
#
# Youngs Moduli (GPa) = 53.56909 100.12242 69.70300
#
# Poissons Ratio (x) = 0.19926 0.00320
# Poissons Ratio (y) = 0.10661 0.35432
# Poissons Ratio (z) = 0.00246 0.50895
#
# Static dielectric constant tensor:
#      x y z
#    x 3.743900 0.000000 0.000000 
#    y 0.000000 4.064370 0.000000 
#    z 0.000000 0.000000 3.931800 
# 
# 
# High freq. dielectric constant tensor:
#      x y z
#    x 1.840700 0.000000 0.000000 
#    y 0.000000 1.857400 0.000000 
#    z 0.000000 0.000000 1.851740 
# 
# From -- ./inp_files/11119.got.cif
#   From: 2010.03.12/outbox.cif.g09.slc.cpg/sg62_6_cif.got.tgz:11119.got - 2010.04.10 19:12:36.
