data_PCOD8254870
_publ_section_title
;
Structure prediction by ZEFSAII (Michael W. Deem and Ramdas Pophale) SiO2 
 PCOD8254870
Probable space group: P N M A
;
_chemical_formula_sum "Si O2"
_cell_formula_units_Z 48
_cell_length_a 12.999000
_cell_length_b 17.943144
_cell_length_c 9.547141
_cell_angle_alpha 90.000000
_cell_angle_beta 90.000000
_cell_angle_gamma 90.000000
_cell_volume 2226.803129
_symmetry_space_group_name_H-M "P N M A"
_symmetry_group_IT_number 62
_symmetry_cell_setting 'orthorhombic'
loop_
_space_group_symop_operation_xyz
x,y,z
1/2-x,-y,1/2+z
1/2+x,1/2-y,1/2-z
-x,1/2+y,-z
-x,-y,-z
1/2+x,y,1/2-z
1/2-x,1/2+y,1/2+z
x,1/2-y,z
loop_
_atom_site_type_symbol
_atom_site_label
_atom_site_fract_x
_atom_site_fract_y
_atom_site_fract_z
Si Si1 0.947275 0.070891 0.570010
Si Si2 0.275853 0.090047 0.141902
Si Si3 0.354212 0.336813 0.414921
Si Si4 0.292208 0.428264 0.685078
Si Si5 0.579313 0.167524 0.460032
Si Si6 0.103782 0.333828 0.728717
O O1 0.868688 0.110738 0.462812
O O2 0.886028 0.050556 0.712188
O O3 0.038411 0.127552 0.606656
O O4 0.000000 0.000000 0.500000
O O5 0.287295 0.136494 0.283899
O O6 0.164428 0.107651 0.078540
O O7 0.276825 0.001467 0.161430
O O8 0.329184 0.250000 0.451083
O O9 0.330531 0.392914 0.540773
O O10 0.474395 0.346188 0.374091
O O11 0.215744 0.369064 0.755178
O O12 0.624126 0.250000 0.429487
O O13 0.545465 0.161575 0.622937
O O14 0.119998 0.250000 0.677448
#
# Coordination Sequence:
#
# PCOD8254870 Si02
#       6
#     8   8   8   8   8   8
#     4  12  26  45  68 104 143 182 243 293 357 422
#     4  12  26  42  72 103 141 180 233 298 356 419
#     4  11  26  46  69 102 142 185 235 294 361 429
#     4  12  25  45  71  99 141 187 231 288 352 438
#     4  10  23  44  68  98 135 182 233 285 354 425
#     4  11  24  43  71 102 134 184 240 288 348 430
#
# _framework density 21.555562999999999
#
# number of rings (size 3 to 8) (size 9 to 14) (size 15 to 20)
#    0.000    0.667    5.000    2.000    2.333    2.667 
#    0.000    1.667    0.000    0.000    0.000    0.000 
#    0.000    0.000    0.000    0.000    0.000    0.000 
#
# Total GULP energy -595314.835962 kJ/mol
# GULP energy per Si atom -12402.392416 kJ/mol
# Density = 2.150650 g / cm^3
# Si number density = 21.555563 Si / 1000 Ang^3
#
#
#
# Elastic Constant Matrix: (Units=GPa)
#
#
# Indices 1 2 3 4 5 6 
#
# 1 94.6198 48.2062 34.3530 0.0000 0.0000 0.0000
# 2 48.2062 127.6580 42.1336 0.0000 0.0000 0.0000
# 3 34.3530 42.1336 108.6582 0.0000 0.0000 0.0000
# 4 0.0000 0.0000 0.0000 33.8246 0.0000 0.0000
# 5 0.0000 0.0000 0.0000 0.0000 44.7379 0.0000
# 6 0.0000 0.0000 0.0000 0.0000 0.0000 41.2885
#
#
#
# Elastic Compliance Matrix: (Units=1/GPa)
#
#
# Indices 1 2 3 4 5 6 
#
# 1 0.013731 -0.004303 -0.002673 0.000000 0.000000 0.000000
# 2 -0.004303 0.010332 -0.002646 0.000000 0.000000 0.000000
# 3 -0.002673 -0.002646 0.011074 0.000000 0.000000 0.000000
# 4 0.000000 0.000000 0.000000 0.029564 0.000000 0.000000
# 5 0.000000 0.000000 0.000000 0.000000 0.022352 0.000000
# 6 0.000000 0.000000 0.000000 0.000000 0.000000 0.024220
#
#
# Mechanical properties :
#
#
# Convention : Reuss Voigt Hill
#
# Bulk Modulus (GPa) = 62.91707 64.48017 63.69862
# Shear Modulus (GPa) = 36.81495 37.71975 37.26735
#
# Velocity S-wave (km/s) = 4.13717 4.18770 4.16251
# Velocity P-wave (km/s) = 7.21618 7.30485 7.26065
#
# Compressibility (1/GPa) = 0.01589394
#
# Stress axis : x y z
#
# Youngs Moduli (GPa) = 72.82648 96.79048 90.30100
#
# Poissons Ratio (x) = 0.41650 0.24134
# Poissons Ratio (y) = 0.31338 0.23891
# Poissons Ratio (z) = 0.19464 0.25608
#
# Static dielectric constant tensor:
#      x y z
#    x 3.877160 0.000000 0.000000 
#    y 0.000000 3.850480 0.000000 
#    z 0.000000 0.000000 3.854090 
# 
# 
# High freq. dielectric constant tensor:
#      x y z
#    x 1.857220 0.000000 0.000000 
#    y 0.000000 1.848990 0.000000 
#    z 0.000000 0.000000 1.845340 
# 
# From -- ./inp_files/6420.got.cif
#   From: 2010.03.12/outbox.cif.g09.slc.cpg/sg62_4_cif.got.tgz:6420.got - 2010.04.10 19:12:36.
