data_PCOD8254054
_publ_section_title
;
Structure prediction by ZEFSAII (Michael W. Deem and Ramdas Pophale) SiO2 
 PCOD8254054
Probable space group: P N M A
;
_chemical_formula_sum "Si O2"
_cell_formula_units_Z 48
_cell_length_a 19.135761
_cell_length_b 13.032253
_cell_length_c 8.708610
_cell_angle_alpha 90.000000
_cell_angle_beta 90.000000
_cell_angle_gamma 90.000000
_cell_volume 2171.771264
_symmetry_space_group_name_H-M "P N M A"
_symmetry_group_IT_number 62
_symmetry_cell_setting 'orthorhombic'
loop_
_space_group_symop_operation_xyz
x,y,z
1/2-x,-y,1/2+z
1/2+x,1/2-y,1/2-z
-x,1/2+y,-z
-x,-y,-z
1/2+x,y,1/2-z
1/2-x,1/2+y,1/2+z
x,1/2-y,z
loop_
_atom_site_type_symbol
_atom_site_label
_atom_site_fract_x
_atom_site_fract_y
_atom_site_fract_z
Si Si1 0.309042 0.508820 0.189078
Si Si2 0.037340 0.364283 0.264297
Si Si3 0.287610 0.369004 0.907894
Si Si4 0.583704 0.574457 0.269127
Si Si5 0.391945 0.135816 0.393149
Si Si6 0.444757 0.634061 0.113895
O O1 0.254217 0.589492 0.259273
O O2 0.332769 0.438577 0.330297
O O3 0.374453 0.568336 0.117575
O O4 0.272855 0.437939 0.058817
O O5 0.065203 0.250000 0.221125
O O6 0.094127 0.450445 0.215332
O O7 0.022070 0.372986 0.444987
O O8 0.966524 0.391438 0.177379
O O9 0.268170 0.250000 0.940168
O O10 0.369608 0.378046 0.866647
O O11 0.604750 0.629432 0.424589
O O12 0.502221 0.593456 0.232927
O O13 0.369939 0.250000 0.344814
O O14 0.424996 0.750000 0.158217
#
# Coordination Sequence:
#
# PCOD8254054 Si02
#       6
#     8   8   8   8   8   8
#     4  12  25  47  69  95 138 173 232 281 338 403
#     4  10  21  38  63  99 134 170 217 271 338 395
#     4  12  27  47  71  99 135 183 229 281 347 413
#     4  12  22  43  66 102 137 177 225 277 338 401
#     4  11  23  40  66  99 137 180 222 277 340 403
#     4  11  22  40  68  99 132 173 219 277 335 398
#
# _framework density 22.101773999999999
#
# number of rings (size 3 to 8) (size 9 to 14) (size 15 to 20)
#    0.000    0.667    3.333    5.500    0.000    1.333 
#    0.000    6.667    0.000    0.000    0.000    0.000 
#    0.000    0.000    0.000    0.000    0.000    0.000 
#
# Total GULP energy -595345.863143 kJ/mol
# GULP energy per Si atom -12403.038815 kJ/mol
# Density = 2.205147 g / cm^3
# Si number density = 22.101774 Si / 1000 Ang^3
#
#
#
# Elastic Constant Matrix: (Units=GPa)
#
#
# Indices 1 2 3 4 5 6 
#
# 1 55.2259 22.5161 21.4951 0.0000 0.0000 0.0000
# 2 22.5161 128.8868 28.2573 0.0000 0.0000 0.0000
# 3 21.4951 28.2573 89.0728 0.0000 0.0000 0.0000
# 4 0.0000 0.0000 0.0000 36.5730 0.0000 0.0000
# 5 0.0000 0.0000 0.0000 0.0000 26.0104 0.0000
# 6 0.0000 0.0000 0.0000 0.0000 0.0000 29.3955
#
#
#
# Elastic Compliance Matrix: (Units=1/GPa)
#
#
# Indices 1 2 3 4 5 6 
#
# 1 0.020840 -0.002728 -0.004164 0.000000 0.000000 0.000000
# 2 -0.002728 0.008696 -0.002100 0.000000 0.000000 0.000000
# 3 -0.004164 -0.002100 0.012898 0.000000 0.000000 0.000000
# 4 0.000000 0.000000 0.000000 0.027343 0.000000 0.000000
# 5 0.000000 0.000000 0.000000 0.000000 0.038446 0.000000
# 6 0.000000 0.000000 0.000000 0.000000 0.000000 0.034019
#
#
# Mechanical properties :
#
#
# Convention : Reuss Voigt Hill
#
# Bulk Modulus (GPa) = 40.89991 46.41362 43.65676
# Shear Modulus (GPa) = 29.69552 31.79022 30.74287
#
# Velocity S-wave (km/s) = 3.66947 3.79668 3.73361
# Velocity P-wave (km/s) = 6.04142 6.34549 6.19532
#
# Compressibility (1/GPa) = 0.02444993
#
# Stress axis : x y z
#
# Youngs Moduli (GPa) = 47.98402 114.99836 77.53199
#
# Poissons Ratio (x) = 0.31370 0.32283
# Poissons Ratio (y) = 0.13089 0.16284
# Poissons Ratio (z) = 0.19980 0.24154
#
# Static dielectric constant tensor:
#      x y z
#    x 3.673350 0.000000 0.000000 
#    y 0.000000 4.404730 0.000000 
#    z 0.000000 0.000000 3.869360 
# 
# 
# High freq. dielectric constant tensor:
#      x y z
#    x 1.844850 0.000000 0.000000 
#    y 0.000000 1.894370 0.000000 
#    z 0.000000 0.000000 1.871210 
# 
# From -- ./inp_files/8597.got.cif
#   From: 2010.03.12/outbox.cif.g09.slc.cpg/sg62_5_cif.got.tgz:8597.got - 2010.04.10 19:12:36.
