data_PCOD8254123
_publ_section_title
;
Structure prediction by ZEFSAII (Michael W. Deem and Ramdas Pophale) SiO2 
 PCOD8254123
Probable space group: P N M A
;
_chemical_formula_sum "Si O2"
_cell_formula_units_Z 40
_cell_length_a 13.494838
_cell_length_b 14.719324
_cell_length_c 9.550134
_cell_angle_alpha 90.000000
_cell_angle_beta 90.000000
_cell_angle_gamma 90.000000
_cell_volume 1896.989844
_symmetry_space_group_name_H-M "P N M A"
_symmetry_group_IT_number 62
_symmetry_cell_setting 'orthorhombic'
loop_
_space_group_symop_operation_xyz
x,y,z
1/2-x,-y,1/2+z
1/2+x,1/2-y,1/2-z
-x,1/2+y,-z
-x,-y,-z
1/2+x,y,1/2-z
1/2-x,1/2+y,1/2+z
x,1/2-y,z
loop_
_atom_site_type_symbol
_atom_site_label
_atom_site_fract_x
_atom_site_fract_y
_atom_site_fract_z
Si Si1 0.589443 0.856152 0.124868
Si Si2 0.089742 0.952409 0.080412
Si Si3 0.699845 0.650713 0.648159
Si Si4 0.208722 0.965366 0.595185
Si Si5 0.374895 0.649893 0.036653
O O1 0.621668 0.750000 0.145907
O O2 0.562084 0.905027 0.271780
O O3 0.493074 0.860735 0.023759
O O4 0.673750 0.916133 0.048264
O O5 0.135442 0.871914 0.987724
O O6 0.172264 0.031442 0.095898
O O7 0.000000 0.000000 0.000000
O O8 0.671719 0.750000 0.699677
O O9 0.667247 0.587515 0.773346
O O10 0.818012 0.643435 0.613070
O O11 0.167714 0.066587 0.625780
O O12 0.350733 0.750000 0.104080
#
# Coordination Sequence:
#
# PCOD8254123 Si02
#       5
#     8   8   8   8   8
#     4  11  23  41  65  93 123 162 208 256 310 373
#     4  11  23  40  61  90 124 164 206 253 306 364
#     4  10  21  39  61  89 123 160 202 255 311 366
#     4  11  22  40  63  90 122 162 204 253 308 369
#     4   9  20  38  62  88 119 158 203 253 309 368
#
# _framework density 21.086039
#
# number of rings (size 3 to 8) (size 9 to 14) (size 15 to 20)
#    0.000    1.600    0.000    5.400    0.000    4.000 
#    0.000   10.000    0.000    1.200    0.000    0.000 
#    0.000    0.000    0.000    0.000    0.000    0.000 
#
# Total GULP energy -495598.356029 kJ/mol
# GULP energy per Si atom -12389.958901 kJ/mol
# Density = 2.103805 g / cm^3
# Si number density = 21.086039 Si / 1000 Ang^3
#
#
#
# Elastic Constant Matrix: (Units=GPa)
#
#
# Indices 1 2 3 4 5 6 
#
# 1 94.3508 41.4900 22.0496 0.0000 0.0000 0.0000
# 2 41.4900 165.7758 61.9302 0.0000 0.0000 0.0000
# 3 22.0496 61.9302 102.2378 0.0000 0.0000 0.0000
# 4 0.0000 0.0000 0.0000 34.6655 0.0000 0.0000
# 5 0.0000 0.0000 0.0000 0.0000 25.9004 0.0000
# 6 0.0000 0.0000 0.0000 0.0000 0.0000 24.5733
#
#
#
# Elastic Compliance Matrix: (Units=1/GPa)
#
#
# Indices 1 2 3 4 5 6 
#
# 1 0.011987 -0.002629 -0.000993 0.000000 0.000000 0.000000
# 2 -0.002629 0.008373 -0.004505 0.000000 0.000000 0.000000
# 3 -0.000993 -0.004505 0.012724 0.000000 0.000000 0.000000
# 4 0.000000 0.000000 0.000000 0.028847 0.000000 0.000000
# 5 0.000000 0.000000 0.000000 0.000000 0.038609 0.000000
# 6 0.000000 0.000000 0.000000 0.000000 0.000000 0.040695
#
#
# Mechanical properties :
#
#
# Convention : Reuss Voigt Hill
#
# Bulk Modulus (GPa) = 59.41564 68.14488 63.78026
# Shear Modulus (GPa) = 30.65615 32.82079 31.73847
#
# Velocity S-wave (km/s) = 3.81709 3.94955 3.88389
# Velocity P-wave (km/s) = 6.90404 7.29289 7.10113
#
# Compressibility (1/GPa) = 0.01683059
#
# Stress axis : x y z
#
# Youngs Moduli (GPa) = 83.42436 119.42766 78.59112
#
# Poissons Ratio (x) = 0.31401 0.07801
# Poissons Ratio (y) = 0.21934 0.35405
# Poissons Ratio (z) = 0.08280 0.53802
#
# Static dielectric constant tensor:
#      x y z
#    x 3.907020 0.000000 0.000000 
#    y 0.000000 4.156700 0.000000 
#    z 0.000000 0.000000 3.624840 
# 
# 
# High freq. dielectric constant tensor:
#      x y z
#    x 1.821950 0.000000 0.000000 
#    y 0.000000 1.846770 0.000000 
#    z 0.000000 0.000000 1.808330 
# 
# From -- ./inp_files/6085.got.cif
#   From: 2010.03.12/outbox.cif.g09.slc.cpg/sg62_4_cif.got.tgz:6085.got - 2010.04.10 19:12:36.
