data_PCOD8254550
_publ_section_title
;
Structure prediction by ZEFSAII (Michael W. Deem and Ramdas Pophale) SiO2 
 PCOD8254550
Probable space group: P N M A
;
_chemical_formula_sum "Si O2"
_cell_formula_units_Z 40
_cell_length_a 4.983660
_cell_length_b 24.653207
_cell_length_c 14.703208
_cell_angle_alpha 90.000000
_cell_angle_beta 90.000000
_cell_angle_gamma 90.000000
_cell_volume 1806.483209
_symmetry_space_group_name_H-M "P N M A"
_symmetry_group_IT_number 62
_symmetry_cell_setting 'orthorhombic'
loop_
_space_group_symop_operation_xyz
x,y,z
1/2-x,-y,1/2+z
1/2+x,1/2-y,1/2-z
-x,1/2+y,-z
-x,-y,-z
1/2+x,y,1/2-z
1/2-x,1/2+y,1/2+z
x,1/2-y,z
loop_
_atom_site_type_symbol
_atom_site_label
_atom_site_fract_x
_atom_site_fract_y
_atom_site_fract_z
Si Si1 0.557785 0.069225 0.692525
Si Si2 0.884848 0.367324 0.986904
Si Si3 0.462329 0.533900 0.589973
Si Si4 0.610499 0.812681 0.946771
Si Si5 0.945970 0.403684 0.311607
O O1 0.855831 0.083687 0.725196
O O2 0.471927 0.103934 0.605665
O O3 0.556881 0.004559 0.672372
O O4 0.866123 0.410838 0.071135
O O5 0.598314 0.338302 0.980183
O O6 0.096954 0.320633 0.010975
O O7 0.500000 0.500000 0.500000
O O8 0.152728 0.553213 0.609855
O O9 0.551071 0.750000 0.930214
O O10 0.581265 0.842615 0.849702
O O11 0.744074 0.413341 0.226077
#
# Coordination Sequence:
#
# PCOD8254550 Si02
#       5
#     8   8   8   8   8
#     4  11  22  37  61  90 123 157 194 243 300 359
#     4  10  22  40  61  88 120 155 201 249 293 357
#     4   9  20  37  58  87 122 162 198 230 283 356
#     4  11  23  41  64  85 113 160 206 248 302 361
#     4  11  22  37  57  86 123 154 192 246 295 343
#
# _framework density 22.142472000000001
#
# number of rings (size 3 to 8) (size 9 to 14) (size 15 to 20)
#    0.000    1.600    0.000    5.400    0.000    4.000 
#    0.000   17.000    0.000   12.000    0.000    0.000 
#    0.000    0.000    0.000    0.000    0.000    0.000 
#
# Total GULP energy -495771.120514 kJ/mol
# GULP energy per Si atom -12394.278013 kJ/mol
# Density = 2.209207 g / cm^3
# Si number density = 22.142472 Si / 1000 Ang^3
#
#
#
# Elastic Constant Matrix: (Units=GPa)
#
#
# Indices 1 2 3 4 5 6 
#
# 1 62.3185 19.9608 12.2360 0.0000 0.0000 0.0000
# 2 19.9608 119.4765 38.7797 0.0000 0.0000 0.0000
# 3 12.2360 38.7797 98.8172 0.0000 0.0000 0.0000
# 4 0.0000 0.0000 0.0000 26.0887 0.0000 0.0000
# 5 0.0000 0.0000 0.0000 0.0000 42.4901 0.0000
# 6 0.0000 0.0000 0.0000 0.0000 0.0000 29.5535
#
#
#
# Elastic Compliance Matrix: (Units=1/GPa)
#
#
# Indices 1 2 3 4 5 6 
#
# 1 0.017065 -0.002481 -0.001139 0.000000 0.000000 0.000000
# 2 -0.002481 0.009952 -0.003598 0.000000 0.000000 0.000000
# 3 -0.001139 -0.003598 0.011673 0.000000 0.000000 0.000000
# 4 0.000000 0.000000 0.000000 0.038331 0.000000 0.000000
# 5 0.000000 0.000000 0.000000 0.000000 0.023535 0.000000
# 6 0.000000 0.000000 0.000000 0.000000 0.000000 0.033837
#
#
# Mechanical properties :
#
#
# Convention : Reuss Voigt Hill
#
# Bulk Modulus (GPa) = 41.23317 46.95168 44.09243
# Shear Modulus (GPa) = 31.86437 33.60218 32.73327
#
# Velocity S-wave (km/s) = 3.79761 3.89979 3.84904
# Velocity P-wave (km/s) = 6.15559 6.44424 6.30157
#
# Compressibility (1/GPa) = 0.02425232
#
# Stress axis : x y z
#
# Youngs Moduli (GPa) = 58.59929 100.47859 85.66813
#
# Poissons Ratio (x) = 0.24931 0.09761
# Poissons Ratio (y) = 0.14540 0.30827
# Poissons Ratio (z) = 0.06676 0.36157
#
# Static dielectric constant tensor:
#      x y z
#    x 4.040700 0.000000 0.000000 
#    y 0.000000 3.875900 0.000000 
#    z 0.000000 0.000000 4.025220 
# 
# 
# High freq. dielectric constant tensor:
#      x y z
#    x 1.882230 0.000000 0.000000 
#    y 0.000000 1.853540 0.000000 
#    z 0.000000 0.000000 1.875800 
# 
# From -- ./inp_files/16158.got.cif
#   From: 2010.03.12/outbox.cif.g09.slc.cpg/sg62_9_cif.got.tgz:16158.got - 2010.04.10 19:12:36.
