data_PCOD8254422
_publ_section_title
;
Structure prediction by ZEFSAII (Michael W. Deem and Ramdas Pophale) SiO2 
 PCOD8254422
Probable space group: P N M A
;
_chemical_formula_sum "Si O2"
_cell_formula_units_Z 48
_cell_length_a 9.527513
_cell_length_b 21.587399
_cell_length_c 11.896210
_cell_angle_alpha 90.000000
_cell_angle_beta 90.000000
_cell_angle_gamma 90.000000
_cell_volume 2446.743768
_symmetry_space_group_name_H-M "P N M A"
_symmetry_group_IT_number 62
_symmetry_cell_setting 'orthorhombic'
loop_
_space_group_symop_operation_xyz
x,y,z
1/2-x,-y,1/2+z
1/2+x,1/2-y,1/2-z
-x,1/2+y,-z
-x,-y,-z
1/2+x,y,1/2-z
1/2-x,1/2+y,1/2+z
x,1/2-y,z
loop_
_atom_site_type_symbol
_atom_site_label
_atom_site_fract_x
_atom_site_fract_y
_atom_site_fract_z
Si Si1 0.158204 0.920423 0.358936
Si Si2 0.818771 0.250000 0.121472
Si Si3 0.156221 0.423345 0.661574
Si Si4 0.748333 0.040714 0.238546
Si Si5 0.861778 0.750000 0.839784
Si Si6 0.656202 0.881647 0.537850
Si Si7 0.343014 0.619099 0.560866
O O1 0.256143 0.889090 0.261796
O O2 0.219903 0.904231 0.480175
O O3 0.999132 0.894765 0.351009
O O4 0.154353 0.995054 0.339975
O O5 0.701731 0.250000 0.216411
O O6 0.799805 0.190211 0.042498
O O7 0.971270 0.250000 0.179308
O O8 0.144529 0.496689 0.691187
O O9 0.243197 0.416825 0.547338
O O10 0.831791 0.088964 0.161648
O O11 0.653161 0.078949 0.325304
O O12 0.812551 0.809588 0.909931
O O13 0.493890 0.888805 0.500002
#
# Coordination Sequence:
#
# PCOD8254422 Si02
#       7
#     8   4   8   8   4   8   8
#     4  10  23  39  58  88 122 157 197 240 293 354
#     4  10  22  40  61  88 117 154 197 241 291 345
#     4  10  23  39  58  88 122 157 197 240 293 354
#     4  10  22  35  64  87 122 152 200 234 300 346
#     4  10  22  40  61  88 117 154 197 241 291 345
#     4  11  22  39  62  88 121 156 196 245 293 347
#     4  11  22  39  62  88 121 156 196 245 293 347
#
# _framework density 19.617909999999998
#
# number of rings (size 3 to 8) (size 9 to 14) (size 15 to 20)
#    1.000    0.667    1.667    3.000    0.000    6.667 
#    0.000    0.833    0.000    0.000    0.000    0.000 
#    0.000    0.000    0.000    0.000    0.000    0.000 
#
# Total GULP energy -594990.233484 kJ/mol
# GULP energy per Si atom -12395.629864 kJ/mol
# Density = 1.957326 g / cm^3
# Si number density = 19.617910 Si / 1000 Ang^3
#
#
#
# Elastic Constant Matrix: (Units=GPa)
#
#
# Indices 1 2 3 4 5 6 
#
# 1 89.9267 6.4361 22.0889 0.0000 0.0000 0.0000
# 2 6.4361 76.4721 25.1837 0.0000 0.0000 0.0000
# 3 22.0889 25.1837 73.2609 0.0000 0.0000 0.0000
# 4 0.0000 0.0000 0.0000 11.9149 0.0000 0.0000
# 5 0.0000 0.0000 0.0000 0.0000 34.1696 0.0000
# 6 0.0000 0.0000 0.0000 0.0000 0.0000 17.5754
#
#
#
# Elastic Compliance Matrix: (Units=1/GPa)
#
#
# Indices 1 2 3 4 5 6 
#
# 1 0.012012 0.000205 -0.003692 0.000000 0.000000 0.000000
# 2 0.000205 0.014749 -0.005132 0.000000 0.000000 0.000000
# 3 -0.003692 -0.005132 0.016527 0.000000 0.000000 0.000000
# 4 0.000000 0.000000 0.000000 0.083929 0.000000 0.000000
# 5 0.000000 0.000000 0.000000 0.000000 0.029266 0.000000
# 6 0.000000 0.000000 0.000000 0.000000 0.000000 0.056898
#
#
# Mechanical properties :
#
#
# Convention : Reuss Voigt Hill
#
# Bulk Modulus (GPa) = 38.38703 38.56413 38.47558
# Shear Modulus (GPa) = 20.89395 25.12870 23.01132
#
# Velocity S-wave (km/s) = 3.26704 3.58286 3.42859
# Velocity P-wave (km/s) = 5.81732 6.06763 5.94379
#
# Compressibility (1/GPa) = 0.02605046
#
# Stress axis : x y z
#
# Youngs Moduli (GPa) = 83.24691 67.79902 60.50606
#
# Poissons Ratio (x) = -0.01390 0.22341
# Poissons Ratio (y) = -0.01706 0.31052
# Poissons Ratio (z) = 0.30738 0.34794
#
# Static dielectric constant tensor:
#      x y z
#    x 3.408260 0.000000 0.000000 
#    y 0.000000 3.514610 0.000000 
#    z 0.000000 0.000000 3.363890 
# 
# 
# High freq. dielectric constant tensor:
#      x y z
#    x 1.763310 0.000000 0.000000 
#    y 0.000000 1.747220 0.000000 
#    z 0.000000 0.000000 1.759220 
# 
# From -- ./inp_files/11332.got.cif
#   From: 2010.03.12/outbox.cif.g09.slc.cpg/sg62_6_cif.got.tgz:11332.got - 2010.04.10 19:12:36.
