data_PCOD8254587
_publ_section_title
;
Structure prediction by ZEFSAII (Michael W. Deem and Ramdas Pophale) SiO2 
 PCOD8254587
Probable space group: P N M A
;
_chemical_formula_sum "Si O2"
_cell_formula_units_Z 64
_cell_length_a 19.867210
_cell_length_b 8.388424
_cell_length_c 18.923924
_cell_angle_alpha 90.000000
_cell_angle_beta 90.000000
_cell_angle_gamma 90.000000
_cell_volume 3153.758628
_symmetry_space_group_name_H-M "P N M A"
_symmetry_group_IT_number 62
_symmetry_cell_setting 'orthorhombic'
loop_
_space_group_symop_operation_xyz
x,y,z
1/2-x,-y,1/2+z
1/2+x,1/2-y,1/2-z
-x,1/2+y,-z
-x,-y,-z
1/2+x,y,1/2-z
1/2-x,1/2+y,1/2+z
x,1/2-y,z
loop_
_atom_site_type_symbol
_atom_site_label
_atom_site_fract_x
_atom_site_fract_y
_atom_site_fract_z
Si Si1 0.052104 0.561639 0.056841
Si Si2 0.912316 0.434758 0.304252
Si Si3 0.341798 0.936948 0.787112
Si Si4 0.028580 0.935921 0.215960
Si Si5 0.701427 0.939113 0.459071
Si Si6 0.317102 0.938449 0.944084
Si Si7 0.063444 0.439230 0.542094
Si Si8 0.267475 0.935511 0.184212
O O1 0.053300 0.750000 0.053209
O O2 0.031362 0.503820 0.135011
O O3 0.125996 0.490433 0.038137
O O4 0.000000 0.500000 0.000000
O O5 0.926087 0.250000 0.291928
O O6 0.937484 0.483491 0.381266
O O7 0.833913 0.470749 0.292674
O O8 0.954344 0.531443 0.245700
O O9 0.324870 0.750000 0.781970
O O10 0.332396 0.005118 0.866400
O O11 0.417854 0.966902 0.762573
O O12 0.290760 0.038588 0.740685
O O13 0.046482 0.750000 0.220438
O O14 0.697315 0.750000 0.452524
O O15 0.742835 0.991766 0.529007
O O16 0.740897 0.003681 0.390391
O O17 0.322796 0.750000 0.941676
O O18 0.371346 0.002418 0.000212
O O19 0.062783 0.250000 0.550131
O O20 0.000000 0.500000 0.500000
O O21 0.285958 0.750000 0.178147
#
# Coordination Sequence:
#
# PCOD8254587 Si02
#       8
#     8   8   8   8   8   8   8   8
#     4  10  22  40  65  94 122 161 211 260 315 376
#     4  12  25  40  60  92 127 163 210 265 320 373
#     4  11  22  37  61  96 130 162 205 261 317 375
#     4  11  23  42  64  89 125 172 218 258 311 384
#     4   9  17  37  64  86 114 159 207 249 303 371
#     4   9  19  35  59  88 119 157 202 251 309 370
#     4  11  21  37  60  87 123 166 207 253 309 375
#     4  11  21  40  66  88 119 167 212 253 310 380
#
# _framework density 20.293244999999999
#
# number of rings (size 3 to 8) (size 9 to 14) (size 15 to 20)
#    0.000    1.500    2.500    3.375    0.000    3.000 
#    0.000    3.125    0.000    0.000    0.000    0.000 
#    0.000    0.000    0.000    0.000    0.000    0.000 
#
# Total GULP energy -793775.411752 kJ/mol
# GULP energy per Si atom -12402.740809 kJ/mol
# Density = 2.024706 g / cm^3
# Si number density = 20.293245 Si / 1000 Ang^3
#
#
#
# Elastic Constant Matrix: (Units=GPa)
#
#
# Indices 1 2 3 4 5 6 
#
# 1 146.9581 8.0939 65.2750 0.0000 0.0000 0.0000
# 2 8.0939 42.0848 17.7695 0.0000 0.0000 0.0000
# 3 65.2750 17.7695 145.6070 0.0000 0.0000 0.0000
# 4 0.0000 0.0000 0.0000 26.1049 0.0000 0.0000
# 5 0.0000 0.0000 0.0000 0.0000 44.8733 0.0000
# 6 0.0000 0.0000 0.0000 0.0000 0.0000 31.5418
#
#
#
# Elastic Compliance Matrix: (Units=1/GPa)
#
#
# Indices 1 2 3 4 5 6 
#
# 1 0.008497 -0.000027 -0.003806 0.000000 0.000000 0.000000
# 2 -0.000027 0.025053 -0.003045 0.000000 0.000000 0.000000
# 3 -0.003806 -0.003045 0.008945 0.000000 0.000000 0.000000
# 4 0.000000 0.000000 0.000000 0.038307 0.000000 0.000000
# 5 0.000000 0.000000 0.000000 0.000000 0.022285 0.000000
# 6 0.000000 0.000000 0.000000 0.000000 0.000000 0.031704
#
#
# Mechanical properties :
#
#
# Convention : Reuss Voigt Hill
#
# Bulk Modulus (GPa) = 34.79651 57.43630 46.11641
# Shear Modulus (GPa) = 31.62037 36.73809 34.17923
#
# Velocity S-wave (km/s) = 3.95165 4.25945 4.10843
# Velocity P-wave (km/s) = 6.16480 7.24949 6.72904
#
# Compressibility (1/GPa) = 0.02873852
#
# Stress axis : x y z
#
# Youngs Moduli (GPa) = 117.69511 39.91615 111.78839
#
# Poissons Ratio (x) = 0.00109 0.42543
# Poissons Ratio (y) = 0.00321 0.34041
# Poissons Ratio (z) = 0.44790 0.12155
#
# Static dielectric constant tensor:
#      x y z
#    x 4.016640 0.000000 0.000000 
#    y 0.000000 3.419340 0.000000 
#    z 0.000000 0.000000 3.931220 
# 
# 
# High freq. dielectric constant tensor:
#      x y z
#    x 1.806450 0.000000 0.000000 
#    y 0.000000 1.771470 0.000000 
#    z 0.000000 0.000000 1.799360 
# 
# From -- ./inp_files/24717.got.cif
#   From: 2010.03.12/outbox.cif.g09.slc.cpg/sg62_13_cif.got.tgz:24717.got - 2010.04.10 19:12:36.
