data_PCOD8254948
_publ_section_title
;
Structure prediction by ZEFSAII (Michael W. Deem and Ramdas Pophale) SiO2 
 PCOD8254948
Probable space group: P N M A
;
_chemical_formula_sum "Si O2"
_cell_formula_units_Z 64
_cell_length_a 9.535325
_cell_length_b 31.210063
_cell_length_c 12.719704
_cell_angle_alpha 90.000000
_cell_angle_beta 90.000000
_cell_angle_gamma 90.000000
_cell_volume 3785.359666
_symmetry_space_group_name_H-M "P N M A"
_symmetry_group_IT_number 62
_symmetry_cell_setting 'orthorhombic'
loop_
_space_group_symop_operation_xyz
x,y,z
1/2-x,-y,1/2+z
1/2+x,1/2-y,1/2-z
-x,1/2+y,-z
-x,-y,-z
1/2+x,y,1/2-z
1/2-x,1/2+y,1/2+z
x,1/2-y,z
loop_
_atom_site_type_symbol
_atom_site_label
_atom_site_fract_x
_atom_site_fract_y
_atom_site_fract_z
Si Si1 0.137244 0.018538 0.356585
Si Si2 0.277990 0.071572 0.953228
Si Si3 0.964113 0.203392 0.880169
Si Si4 0.849724 0.703566 0.316619
Si Si5 0.778072 0.559010 0.435324
Si Si6 0.984990 0.112563 0.908941
Si Si7 0.316766 0.472844 0.162688
Si Si8 0.493824 0.619236 0.162084
O O1 0.138186 0.049581 0.457341
O O2 0.239077 0.039873 0.270119
O O3 0.978879 0.016061 0.314139
O O4 0.189589 0.971170 0.386701
O O5 0.119355 0.085455 0.938380
O O6 0.371779 0.110501 0.910239
O O7 0.305347 0.065060 0.077281
O O8 0.960917 0.250000 0.939716
O O9 0.097411 0.203484 0.803102
O O10 0.984613 0.161644 0.955599
O O11 0.818036 0.197029 0.816261
O O12 0.887126 0.750000 0.368523
O O13 0.928872 0.664776 0.375782
O O14 0.641691 0.586663 0.460773
O O15 0.734493 0.514313 0.381781
O O16 0.878155 0.582969 0.354384
O O17 0.963405 0.117902 0.783906
#
# Coordination Sequence:
#
# PCOD8254948 Si02
#       8
#     8   8   8   8   8   8   8   8
#     4  11  23  38  54  71 101 135 165 215 258 295
#     4  11  23  36  51  74 103 130 176 209 247 297
#     4   9  18  31  44  67 101 135 167 202 244 295
#     4   9  18  29  45  68  98 134 168 200 246 297
#     4  11  21  36  52  73 102 130 175 207 246 295
#     4  11  22  30  52  79  98 140 172 206 242 299
#     4  11  23  38  54  72 100 134 166 213 261 292
#     4  11  18  34  50  72 102 139 165 208 243 293
#
# _framework density 16.907243999999999
#
# number of rings (size 3 to 8) (size 9 to 14) (size 15 to 20)
#    0.000    1.500    3.750    3.000    8.750    1.000 
#    0.000    0.000    0.000    0.000    0.000    0.000 
#    0.000    6.000    0.000    0.000    0.000    0.000 
#
# Total GULP energy -793300.167212 kJ/mol
# GULP energy per Si atom -12395.315113 kJ/mol
# Density = 1.686876 g / cm^3
# Si number density = 16.907244 Si / 1000 Ang^3
#
#
#
# Elastic Constant Matrix: (Units=GPa)
#
#
# Indices 1 2 3 4 5 6 
#
# 1 82.0002 23.3238 5.8917 0.0000 0.0000 0.0000
# 2 23.3238 88.2700 17.8106 0.0000 0.0000 0.0000
# 3 5.8917 17.8106 43.6109 0.0000 0.0000 0.0000
# 4 0.0000 0.0000 0.0000 14.2470 0.0000 0.0000
# 5 0.0000 0.0000 0.0000 0.0000 23.5303 0.0000
# 6 0.0000 0.0000 0.0000 0.0000 0.0000 25.9913
#
#
#
# Elastic Compliance Matrix: (Units=1/GPa)
#
#
# Indices 1 2 3 4 5 6 
#
# 1 0.013192 -0.003407 -0.000391 0.000000 0.000000 0.000000
# 2 -0.003407 0.013226 -0.004941 0.000000 0.000000 0.000000
# 3 -0.000391 -0.004941 0.025001 0.000000 0.000000 0.000000
# 4 0.000000 0.000000 0.000000 0.070190 0.000000 0.000000
# 5 0.000000 0.000000 0.000000 0.000000 0.042498 0.000000
# 6 0.000000 0.000000 0.000000 0.000000 0.000000 0.038474
#
#
# Mechanical properties :
#
#
# Convention : Reuss Voigt Hill
#
# Bulk Modulus (GPa) = 29.46281 34.21482 31.83882
# Shear Modulus (GPa) = 21.61004 23.87739 22.74371
#
# Velocity S-wave (km/s) = 3.57900 3.76208 3.67168
# Velocity P-wave (km/s) = 5.87733 6.25713 6.07020
#
# Compressibility (1/GPa) = 0.03394109
#
# Stress axis : x y z
#
# Youngs Moduli (GPa) = 75.80217 75.60794 39.99863
#
# Poissons Ratio (x) = 0.25759 0.01563
# Poissons Ratio (y) = 0.25825 0.19764
# Poissons Ratio (z) = 0.02963 0.37360
#
# Static dielectric constant tensor:
#      x y z
#    x 3.328090 0.000000 0.000000 
#    y 0.000000 3.600350 0.000000 
#    z 0.000000 0.000000 2.850670 
# 
# 
# High freq. dielectric constant tensor:
#      x y z
#    x 1.671400 0.000000 0.000000 
#    y 0.000000 1.656510 0.000000 
#    z 0.000000 0.000000 1.593310 
# 
# From -- ./inp_files/17441.got.cif
#   From: 2010.03.12/outbox.cif.g09.slc.cpg/sg62_9_cif.got.tgz:17441.got - 2010.04.10 19:12:36.
