data_PCOD8254565
_publ_section_title
;
Structure prediction by ZEFSAII (Michael W. Deem and Ramdas Pophale) SiO2 
 PCOD8254565
Probable space group: P N M A
;
_chemical_formula_sum "Si O2"
_cell_formula_units_Z 64
_cell_length_a 11.306855
_cell_length_b 17.960397
_cell_length_c 15.772306
_cell_angle_alpha 90.000000
_cell_angle_beta 90.000000
_cell_angle_gamma 90.000000
_cell_volume 3202.970577
_symmetry_space_group_name_H-M "P N M A"
_symmetry_group_IT_number 62
_symmetry_cell_setting 'orthorhombic'
loop_
_space_group_symop_operation_xyz
x,y,z
1/2-x,-y,1/2+z
1/2+x,1/2-y,1/2-z
-x,1/2+y,-z
-x,-y,-z
1/2+x,y,1/2-z
1/2-x,1/2+y,1/2+z
x,1/2-y,z
loop_
_atom_site_type_symbol
_atom_site_label
_atom_site_fract_x
_atom_site_fract_y
_atom_site_fract_z
Si Si1 0.300238 0.944211 0.188069
Si Si2 0.035923 0.034061 0.322773
Si Si3 0.574921 0.560468 0.549459
Si Si4 0.245477 0.951632 0.376605
Si Si5 0.352632 0.923378 0.651268
Si Si6 0.753750 0.837087 0.455768
Si Si7 0.980303 0.668604 0.566866
Si Si8 0.732640 0.832572 0.983684
O O1 0.253548 0.920930 0.280691
O O2 0.301679 0.868763 0.133666
O O3 0.427118 0.982620 0.206159
O O4 0.213227 0.997845 0.132204
O O5 0.124327 0.068962 0.251674
O O6 0.983633 0.106626 0.366142
O O7 0.112290 0.983094 0.387593
O O8 0.500000 0.500000 0.500000
O O9 0.670237 0.521737 0.609327
O O10 0.478852 0.597041 0.610848
O O11 0.634919 0.622479 0.489284
O O12 0.281441 0.888340 0.444366
O O13 0.266936 0.859738 0.612129
O O14 0.725750 0.750000 0.444312
O O15 0.858941 0.852026 0.521253
O O16 0.967426 0.750000 0.610575
O O17 0.091366 0.670791 0.503123
O O18 0.786316 0.750000 0.997779
#
# Coordination Sequence:
#
# PCOD8254565 Si02
#       8
#     8   8   8   8   8   8   8   8
#     4  11  22  39  64  93 124 161 207 264 309 368
#     4  11  22  38  66  93 119 162 211 260 316 366
#     4  12  21  40  63  87 123 162 211 260 300 372
#     4  11  23  38  63  93 121 161 208 259 309 369
#     4  11  23  38  62  92 121 159 215 256 304 376
#     4  11  24  41  64  94 127 167 209 259 321 378
#     4  10  22  40  62  92 125 157 203 258 318 378
#     4  11  23  40  62  89 126 167 204 256 319 379
#
# _framework density 19.981451
#
# number of rings (size 3 to 8) (size 9 to 14) (size 15 to 20)
#    0.000    1.000    6.250    0.750    0.000    2.500 
#    0.000    0.000    0.000    0.750    0.000    0.000 
#    0.000    0.000    0.000    0.000    0.000    0.000 
#
# Total GULP energy -792943.959396 kJ/mol
# GULP energy per Si atom -12389.749366 kJ/mol
# Density = 1.993597 g / cm^3
# Si number density = 19.981451 Si / 1000 Ang^3
#
#
#
# Elastic Constant Matrix: (Units=GPa)
#
#
# Indices 1 2 3 4 5 6 
#
# 1 97.0301 34.1898 18.2168 0.0000 0.0000 0.0000
# 2 34.1898 118.6927 51.5622 0.0000 0.0000 0.0000
# 3 18.2168 51.5622 70.8143 0.0000 0.0000 0.0000
# 4 0.0000 0.0000 0.0000 17.7315 0.0000 0.0000
# 5 0.0000 0.0000 0.0000 0.0000 32.1879 0.0000
# 6 0.0000 0.0000 0.0000 0.0000 0.0000 29.6316
#
#
#
# Elastic Compliance Matrix: (Units=1/GPa)
#
#
# Indices 1 2 3 4 5 6 
#
# 1 0.011501 -0.002966 -0.000799 0.000000 0.000000 0.000000
# 2 -0.002966 0.013088 -0.008767 0.000000 0.000000 0.000000
# 3 -0.000799 -0.008767 0.020710 0.000000 0.000000 0.000000
# 4 0.000000 0.000000 0.000000 0.056397 0.000000 0.000000
# 5 0.000000 0.000000 0.000000 0.000000 0.031068 0.000000
# 6 0.000000 0.000000 0.000000 0.000000 0.000000 0.033748
#
#
# Mechanical properties :
#
#
# Convention : Reuss Voigt Hill
#
# Bulk Modulus (GPa) = 49.41689 54.94164 52.17926
# Shear Modulus (GPa) = 25.21177 28.08143 26.64660
#
# Velocity S-wave (km/s) = 3.55598 3.75290 3.65577
# Velocity P-wave (km/s) = 6.45330 6.80698 6.63250
#
# Compressibility (1/GPa) = 0.02023600
#
# Stress axis : x y z
#
# Youngs Moduli (GPa) = 86.94793 76.40671 48.28493
#
# Poissons Ratio (x) = 0.22660 0.03859
# Poissons Ratio (y) = 0.25787 0.42330
# Poissons Ratio (z) = 0.06949 0.66984
#
# Static dielectric constant tensor:
#      x y z
#    x 4.238210 0.000000 0.000000 
#    y 0.000000 3.583790 0.000000 
#    z 0.000000 0.000000 4.049480 
# 
# 
# High freq. dielectric constant tensor:
#      x y z
#    x 1.796450 0.000000 0.000000 
#    y 0.000000 1.767180 0.000000 
#    z 0.000000 0.000000 1.765460 
# 
# From -- ./inp_files/18289.got.cif
#   From: 2010.03.12/outbox.cif.g09.slc.cpg/sg62_10_cif.got.tgz:18289.got - 2010.04.10 19:12:36.
