data_PCOD8254824
_publ_section_title
;
Structure prediction by ZEFSAII (Michael W. Deem and Ramdas Pophale) SiO2 
 PCOD8254824
Probable space group: P N M A
;
_chemical_formula_sum "Si O2"
_cell_formula_units_Z 48
_cell_length_a 7.265412
_cell_length_b 29.126563
_cell_length_c 9.179978
_cell_angle_alpha 90.000000
_cell_angle_beta 90.000000
_cell_angle_gamma 90.000000
_cell_volume 1942.634634
_symmetry_space_group_name_H-M "P N M A"
_symmetry_group_IT_number 62
_symmetry_cell_setting 'orthorhombic'
loop_
_space_group_symop_operation_xyz
x,y,z
1/2-x,-y,1/2+z
1/2+x,1/2-y,1/2-z
-x,1/2+y,-z
-x,-y,-z
1/2+x,y,1/2-z
1/2-x,1/2+y,1/2+z
x,1/2-y,z
loop_
_atom_site_type_symbol
_atom_site_label
_atom_site_fract_x
_atom_site_fract_y
_atom_site_fract_z
Si Si1 0.061896 0.332339 0.532667
Si Si2 0.885589 0.032634 0.155715
Si Si3 0.424994 0.750000 0.529951
Si Si4 0.846108 0.563194 0.086790
Si Si5 0.485589 0.250000 0.146210
Si Si6 0.018798 0.429134 0.439798
Si Si7 0.846635 0.834776 0.148384
O O1 0.101168 0.293445 0.412678
O O2 0.177039 0.323212 0.680465
O O3 0.113808 0.379306 0.451761
O O4 0.849625 0.333479 0.575180
O O5 0.693396 0.036889 0.065576
O O6 0.890975 0.064630 0.297235
O O7 0.897312 0.978112 0.199203
O O8 0.061550 0.047824 0.063875
O O9 0.541024 0.750000 0.679496
O O10 0.470276 0.704007 0.434388
O O11 0.212864 0.750000 0.573876
O O12 0.927283 0.613038 0.134890
O O13 0.622903 0.564506 0.073472
#
# Coordination Sequence:
#
# PCOD8254824 Si02
#       7
#     8   8   4   8   4   8   8
#     4  10  24  41  66  96 131 169 219 268 329 394
#     4  11  23  40  65  91 135 171 223 274 325 382
#     4  10  23  42  68  94 130 164 213 270 324 397
#     4  10  24  42  62  94 127 178 220 268 326 394
#     4  10  23  42  66 100 126 168 217 266 328 399
#     4  11  23  42  66  95 131 175 222 275 325 396
#     4  10  23  43  63  94 131 168 214 267 326 393
#
# _framework density 24.708711999999998
#
# number of rings (size 3 to 8) (size 9 to 14) (size 15 to 20)
#    0.000    1.667    1.667    1.000    4.667    6.667 
#    0.000    0.000    0.000    0.000    0.000    0.000 
#    0.000    0.000    0.000    0.000    0.000    0.000 
#
# Total GULP energy -594872.134521 kJ/mol
# GULP energy per Si atom -12393.169469 kJ/mol
# Density = 2.465247 g / cm^3
# Si number density = 24.708712 Si / 1000 Ang^3
#
#
#
# Elastic Constant Matrix: (Units=GPa)
#
#
# Indices 1 2 3 4 5 6 
#
# 1 49.4090 14.4434 2.8606 0.0000 0.0000 0.0000
# 2 14.4434 198.1968 69.4982 0.0000 0.0000 0.0000
# 3 2.8606 69.4982 108.8084 0.0000 0.0000 0.0000
# 4 0.0000 0.0000 0.0000 41.0253 0.0000 0.0000
# 5 0.0000 0.0000 0.0000 0.0000 8.2997 0.0000
# 6 0.0000 0.0000 0.0000 0.0000 0.0000 17.9181
#
#
#
# Elastic Compliance Matrix: (Units=1/GPa)
#
#
# Indices 1 2 3 4 5 6 
#
# 1 0.020704 -0.001698 0.000540 0.000000 0.000000 0.000000
# 2 -0.001698 0.006641 -0.004197 0.000000 0.000000 0.000000
# 3 0.000540 -0.004197 0.011857 0.000000 0.000000 0.000000
# 4 0.000000 0.000000 0.000000 0.024375 0.000000 0.000000
# 5 0.000000 0.000000 0.000000 0.000000 0.120487 0.000000
# 6 0.000000 0.000000 0.000000 0.000000 0.000000 0.055810
#
#
# Mechanical properties :
#
#
# Convention : Reuss Voigt Hill
#
# Bulk Modulus (GPa) = 35.09701 58.89096 46.99399
# Shear Modulus (GPa) = 19.22476 31.42274 25.32375
#
# Velocity S-wave (km/s) = 2.79239 3.57000 3.20487
# Velocity P-wave (km/s) = 4.96304 6.39367 5.72323
#
# Compressibility (1/GPa) = 0.02849245
#
# Stress axis : x y z
#
# Youngs Moduli (GPa) = 48.29892 150.58043 84.33824
#
# Poissons Ratio (x) = 0.25573 -0.04558
# Poissons Ratio (y) = 0.08203 0.35397
# Poissons Ratio (z) = -0.02610 0.63200
#
# Static dielectric constant tensor:
#      x y z
#    x 4.102930 0.000000 0.000000 
#    y 0.000000 5.079620 0.000000 
#    z 0.000000 0.000000 4.268190 
# 
# 
# High freq. dielectric constant tensor:
#      x y z
#    x 1.978180 0.000000 0.000000 
#    y 0.000000 1.996380 0.000000 
#    z 0.000000 0.000000 1.966260 
# 
# From -- ./inp_files/4549.got.cif
#   From: 2010.03.12/outbox.cif.g09.slc.cpg/sg62_3_cif.got.tgz:4549.got - 2010.04.10 19:12:36.
