data_PCOD8254529
_publ_section_title
;
Structure prediction by ZEFSAII (Michael W. Deem and Ramdas Pophale) SiO2 
 PCOD8254529
Probable space group: P N M A
;
_chemical_formula_sum "Si O2"
_cell_formula_units_Z 48
_cell_length_a 7.782214
_cell_length_b 20.324956
_cell_length_c 14.916028
_cell_angle_alpha 90.000000
_cell_angle_beta 90.000000
_cell_angle_gamma 90.000000
_cell_volume 2359.315241
_symmetry_space_group_name_H-M "P N M A"
_symmetry_group_IT_number 62
_symmetry_cell_setting 'orthorhombic'
loop_
_space_group_symop_operation_xyz
x,y,z
1/2-x,-y,1/2+z
1/2+x,1/2-y,1/2-z
-x,1/2+y,-z
-x,-y,-z
1/2+x,y,1/2-z
1/2-x,1/2+y,1/2+z
x,1/2-y,z
loop_
_atom_site_type_symbol
_atom_site_label
_atom_site_fract_x
_atom_site_fract_y
_atom_site_fract_z
Si Si1 0.890459 0.523811 0.176178
Si Si2 0.919812 0.250000 0.196636
Si Si3 0.614035 0.374431 0.011276
Si Si4 0.975750 0.385851 0.109255
Si Si5 0.045716 0.250000 0.386412
Si Si6 0.773082 0.051546 0.494528
Si Si7 0.237879 0.565211 0.139333
O O1 0.971552 0.449961 0.174129
O O2 0.746644 0.538137 0.101222
O O3 0.824422 0.533131 0.275506
O O4 0.039520 0.578567 0.162017
O O5 0.011912 0.317425 0.162376
O O6 0.727364 0.250000 0.162544
O O7 0.909268 0.250000 0.305103
O O8 0.789029 0.384870 0.065126
O O9 0.520173 0.309706 0.045645
O O10 0.469525 0.430001 0.026531
O O11 0.664149 0.371380 0.903903
O O12 0.131960 0.394568 0.038498
O O13 0.735907 0.983541 0.445838
#
# Coordination Sequence:
#
# PCOD8254529 Si02
#       7
#     8   4   8   8   4   8   8
#     4  11  22  37  62  94 121 163 208 255 313 369
#     4  10  24  40  60  89 125 164 202 247 301 368
#     4  11  22  40  60  85 124 161 203 249 312 363
#     4  10  22  40  58  88 129 158 207 248 306 368
#     4  10  26  40  64  91 123 166 208 251 301 372
#     4  11  22  38  63  88 125 163 200 259 310 367
#     4  11  22  37  60  90 125 156 207 258 309 366
#
# _framework density 20.344887
#
# number of rings (size 3 to 8) (size 9 to 14) (size 15 to 20)
#    0.000    1.333    3.333    2.500    7.000    2.667 
#    0.000    0.000    0.000    5.000    0.000    0.000 
#    0.000    0.000    0.000    0.000    0.000    0.000 
#
# Total GULP energy -594704.322175 kJ/mol
# GULP energy per Si atom -12389.673379 kJ/mol
# Density = 2.029858 g / cm^3
# Si number density = 20.344887 Si / 1000 Ang^3
#
#
#
# Elastic Constant Matrix: (Units=GPa)
#
#
# Indices 1 2 3 4 5 6 
#
# 1 75.2389 5.9715 12.0527 0.0000 0.0000 0.0000
# 2 5.9715 80.7011 49.6284 0.0000 0.0000 0.0000
# 3 12.0527 49.6284 127.9154 0.0000 0.0000 0.0000
# 4 0.0000 0.0000 0.0000 32.9238 0.0000 0.0000
# 5 0.0000 0.0000 0.0000 0.0000 34.5771 0.0000
# 6 0.0000 0.0000 0.0000 0.0000 0.0000 19.8264
#
#
#
# Elastic Compliance Matrix: (Units=1/GPa)
#
#
# Indices 1 2 3 4 5 6 
#
# 1 0.013500 -0.000285 -0.001162 0.000000 0.000000 0.000000
# 2 -0.000285 0.016280 -0.006290 0.000000 0.000000 0.000000
# 3 -0.001162 -0.006290 0.010367 0.000000 0.000000 0.000000
# 4 0.000000 0.000000 0.000000 0.030373 0.000000 0.000000
# 5 0.000000 0.000000 0.000000 0.000000 0.028921 0.000000
# 6 0.000000 0.000000 0.000000 0.000000 0.000000 0.050438
#
#
# Mechanical properties :
#
#
# Convention : Reuss Voigt Hill
#
# Bulk Modulus (GPa) = 40.52549 46.57339 43.54944
# Shear Modulus (GPa) = 28.80580 31.87896 30.34238
#
# Velocity S-wave (km/s) = 3.76689 3.96274 3.86606
# Velocity P-wave (km/s) = 6.23553 6.62415 6.43277
#
# Compressibility (1/GPa) = 0.02467583
#
# Stress axis : x y z
#
# Youngs Moduli (GPa) = 74.07595 61.42369 96.45666
#
# Poissons Ratio (x) = 0.01748 0.11204
# Poissons Ratio (y) = 0.02108 0.60668
# Poissons Ratio (z) = 0.08605 0.38633
#
# Static dielectric constant tensor:
#      x y z
#    x 3.859190 0.000000 0.000000 
#    y 0.000000 3.893140 0.000000 
#    z 0.000000 0.000000 3.925040 
# 
# 
# High freq. dielectric constant tensor:
#      x y z
#    x 1.813370 0.000000 0.000000 
#    y 0.000000 1.762060 0.000000 
#    z 0.000000 0.000000 1.793230 
# 
# From -- ./inp_files/17105.got.cif
#   From: 2010.03.12/outbox.cif.g09.slc.cpg/sg62_9_cif.got.tgz:17105.got - 2010.04.10 19:12:36.
