data_PCOD8254862
_publ_section_title
;
Structure prediction by ZEFSAII (Michael W. Deem and Ramdas Pophale) SiO2 
 PCOD8254862
Probable space group: P N M A
;
_chemical_formula_sum "Si O2"
_cell_formula_units_Z 64
_cell_length_a 18.661216
_cell_length_b 17.207035
_cell_length_c 9.134912
_cell_angle_alpha 90.000000
_cell_angle_beta 90.000000
_cell_angle_gamma 90.000000
_cell_volume 2933.258581
_symmetry_space_group_name_H-M "P N M A"
_symmetry_group_IT_number 62
_symmetry_cell_setting 'orthorhombic'
loop_
_space_group_symop_operation_xyz
x,y,z
1/2-x,-y,1/2+z
1/2+x,1/2-y,1/2-z
-x,1/2+y,-z
-x,-y,-z
1/2+x,y,1/2-z
1/2-x,1/2+y,1/2+z
x,1/2-y,z
loop_
_atom_site_type_symbol
_atom_site_label
_atom_site_fract_x
_atom_site_fract_y
_atom_site_fract_z
Si Si1 0.018328 0.066512 0.311634
Si Si2 0.104983 0.435478 0.034911
Si Si3 0.880394 0.160189 0.289461
Si Si4 0.396534 0.661945 0.032251
Si Si5 0.259132 0.657825 0.533652
Si Si6 0.261469 0.661384 0.206267
Si Si7 0.622697 0.885717 0.455742
Si Si8 0.487801 0.899242 0.266670
O O1 0.035780 0.076407 0.138745
O O2 0.084214 0.102542 0.402264
O O3 0.945828 0.110927 0.355192
O O4 0.009853 0.973831 0.333967
O O5 0.167264 0.378735 0.093259
O O6 0.135024 0.522453 0.042383
O O7 0.079454 0.419883 0.870480
O O8 0.893647 0.250000 0.329031
O O9 0.807461 0.130008 0.366483
O O10 0.878619 0.149970 0.116298
O O11 0.385292 0.750000 0.972245
O O12 0.325177 0.625418 0.107402
O O13 0.460376 0.664801 0.152325
O O14 0.265644 0.750000 0.541742
O O15 0.251565 0.624567 0.367868
O O16 0.284040 0.750000 0.230506
O O17 0.187467 0.655795 0.123511
O O18 0.551845 0.864347 0.363180
#
# Coordination Sequence:
#
# PCOD8254862 Si02
#       8
#     8   8   8   8   8   8   8   8
#     4  11  23  43  65  97 133 164 213 279 323 387
#     4  11  22  44  68  91 126 170 217 263 321 390
#     4  11  23  40  64  96 133 170 211 270 331 385
#     4  11  25  42  65  96 129 170 219 269 326 389
#     4  10  24  42  62  91 129 170 214 265 320 387
#     4  10  23  44  62  88 130 168 212 265 314 385
#     4  11  23  41  64  94 128 165 214 268 324 387
#     4  11  22  45  68  92 128 173 216 268 325 388
#
# _framework density 21.818738
#
# number of rings (size 3 to 8) (size 9 to 14) (size 15 to 20)
#    0.000    1.250    3.750    1.875    3.500    4.000 
#    2.250    0.000    0.000    0.000    0.000    0.000 
#    0.000    0.000    0.000    0.000    0.000    0.000 
#
# Total GULP energy -793659.463037 kJ/mol
# GULP energy per Si atom -12400.929110 kJ/mol
# Density = 2.176908 g / cm^3
# Si number density = 21.818738 Si / 1000 Ang^3
#
#
#
# Elastic Constant Matrix: (Units=GPa)
#
#
# Indices 1 2 3 4 5 6 
#
# 1 105.0708 22.9799 12.0017 0.0000 0.0000 0.0000
# 2 22.9799 49.1112 10.1300 0.0000 0.0000 0.0000
# 3 12.0017 10.1300 48.0424 0.0000 0.0000 0.0000
# 4 0.0000 0.0000 0.0000 33.3530 0.0000 0.0000
# 5 0.0000 0.0000 0.0000 0.0000 47.0622 0.0000
# 6 0.0000 0.0000 0.0000 0.0000 0.0000 22.0902
#
#
#
# Elastic Compliance Matrix: (Units=1/GPa)
#
#
# Indices 1 2 3 4 5 6 
#
# 1 0.010733 -0.004672 -0.001696 0.000000 0.000000 0.000000
# 2 -0.004672 0.023322 -0.003750 0.000000 0.000000 0.000000
# 3 -0.001696 -0.003750 0.022029 0.000000 0.000000 0.000000
# 4 0.000000 0.000000 0.000000 0.029982 0.000000 0.000000
# 5 0.000000 0.000000 0.000000 0.000000 0.021248 0.000000
# 6 0.000000 0.000000 0.000000 0.000000 0.000000 0.045269
#
#
# Mechanical properties :
#
#
# Convention : Reuss Voigt Hill
#
# Bulk Modulus (GPa) = 27.89650 32.49419 30.19534
# Shear Modulus (GPa) = 27.06064 30.97527 29.01795
#
# Velocity S-wave (km/s) = 3.52554 3.77193 3.65081
# Velocity P-wave (km/s) = 5.42087 5.82195 5.62499
#
# Compressibility (1/GPa) = 0.03584680
#
# Stress axis : x y z
#
# Youngs Moduli (GPa) = 93.17059 42.87841 45.39381
#
# Poissons Ratio (x) = 0.20034 0.07699
# Poissons Ratio (y) = 0.43532 0.17024
# Poissons Ratio (z) = 0.15803 0.16081
#
# Static dielectric constant tensor:
#      x y z
#    x 3.958170 0.000000 0.000000 
#    y 0.000000 3.727660 0.000000 
#    z 0.000000 0.000000 4.009360 
# 
# 
# High freq. dielectric constant tensor:
#      x y z
#    x 1.863150 0.000000 0.000000 
#    y 0.000000 1.842560 0.000000 
#    z 0.000000 0.000000 1.866150 
# 
# From -- ./inp_files/8920.got.cif
#   From: 2010.03.12/outbox.cif.g09.slc.cpg/sg62_5_cif.got.tgz:8920.got - 2010.04.10 19:12:36.
