data_PCOD8254560
_publ_section_title
;
Structure prediction by ZEFSAII (Michael W. Deem and Ramdas Pophale) SiO2 
 PCOD8254560
Probable space group: P N M A
;
_chemical_formula_sum "Si O2"
_cell_formula_units_Z 48
_cell_length_a 16.604165
_cell_length_b 8.915102
_cell_length_c 16.883356
_cell_angle_alpha 90.000000
_cell_angle_beta 90.000000
_cell_angle_gamma 90.000000
_cell_volume 2499.206461
_symmetry_space_group_name_H-M "P N M A"
_symmetry_group_IT_number 62
_symmetry_cell_setting 'orthorhombic'
loop_
_space_group_symop_operation_xyz
x,y,z
1/2-x,-y,1/2+z
1/2+x,1/2-y,1/2-z
-x,1/2+y,-z
-x,-y,-z
1/2+x,y,1/2-z
1/2-x,1/2+y,1/2+z
x,1/2-y,z
loop_
_atom_site_type_symbol
_atom_site_label
_atom_site_fract_x
_atom_site_fract_y
_atom_site_fract_z
Si Si1 0.586367 0.073792 0.497694
Si Si2 0.649720 0.073115 0.188812
Si Si3 0.002138 0.574611 0.584872
Si Si4 0.674180 0.576697 0.353149
Si Si5 0.641165 0.079902 0.823430
Si Si6 0.810991 0.575594 0.149819
O O1 0.575765 0.250000 0.489296
O O2 0.632023 0.029764 0.577955
O O3 0.500000 0.000000 0.500000
O O4 0.637095 0.014340 0.424721
O O5 0.651530 0.250000 0.204377
O O6 0.575385 0.023202 0.134492
O O7 0.639570 0.988250 0.271670
O O8 0.730757 0.023577 0.143970
O O9 0.001809 0.750000 0.571174
O O10 0.000000 0.500000 0.500000
O O11 0.082454 0.531829 0.631785
O O12 0.648676 0.750000 0.358748
O O13 0.769851 0.556826 0.358056
O O14 0.611936 0.250000 0.837434
O O15 0.640671 0.040125 0.730349
O O16 0.785309 0.750000 0.148260
#
# Coordination Sequence:
#
# PCOD8254560 Si02
#       6
#     8   8   8   8   8   8
#     4  11  24  40  61  93 126 159 203 248 299 359
#     4  10  22  40  62  90 120 155 201 250 300 356
#     4  11  25  40  59  90 122 156 199 246 298 354
#     4  10  22  41  64  89 120 161 202 247 303 358
#     4   9  20  40  63  87 118 156 199 244 298 356
#     4   9  21  41  63  89 119 158 200 242 298 360
#
# _framework density 19.206095999999999
#
# number of rings (size 3 to 8) (size 9 to 14) (size 15 to 20)
#    0.000    2.000    0.000    3.000    4.667    7.333 
#    0.000    0.000    0.000    0.000    0.000    0.000 
#    0.000    0.000    0.000    0.000    0.000    0.000 
#
# Total GULP energy -595433.505156 kJ/mol
# GULP energy per Si atom -12404.864691 kJ/mol
# Density = 1.916238 g / cm^3
# Si number density = 19.206096 Si / 1000 Ang^3
#
#
#
# Elastic Constant Matrix: (Units=GPa)
#
#
# Indices 1 2 3 4 5 6 
#
# 1 109.5255 52.5591 89.0500 0.0000 0.0000 0.0000
# 2 52.5591 72.3308 56.9661 0.0000 0.0000 0.0000
# 3 89.0500 56.9661 149.9678 0.0000 0.0000 0.0000
# 4 0.0000 0.0000 0.0000 36.9956 0.0000 0.0000
# 5 0.0000 0.0000 0.0000 0.0000 28.9947 0.0000
# 6 0.0000 0.0000 0.0000 0.0000 0.0000 37.3602
#
#
#
# Elastic Compliance Matrix: (Units=1/GPa)
#
#
# Indices 1 2 3 4 5 6 
#
# 1 0.020110 -0.007432 -0.009118 0.000000 0.000000 0.000000
# 2 -0.007432 0.022473 -0.004124 0.000000 0.000000 0.000000
# 3 -0.009118 -0.004124 0.013649 0.000000 0.000000 0.000000
# 4 0.000000 0.000000 0.000000 0.027030 0.000000 0.000000
# 5 0.000000 0.000000 0.000000 0.000000 0.034489 0.000000
# 6 0.000000 0.000000 0.000000 0.000000 0.000000 0.026766
#
#
# Mechanical properties :
#
#
# Convention : Reuss Voigt Hill
#
# Bulk Modulus (GPa) = 67.18183 80.99716 74.08950
# Shear Modulus (GPa) = 26.20159 29.55335 27.87747
#
# Velocity S-wave (km/s) = 3.69756 3.92694 3.81398
# Velocity P-wave (km/s) = 7.29963 7.92625 7.61938
#
# Compressibility (1/GPa) = 0.01488498
#
# Stress axis : x y z
#
# Youngs Moduli (GPa) = 49.72544 44.49709 73.26547
#
# Poissons Ratio (x) = 0.33069 0.66807
# Poissons Ratio (y) = 0.36955 0.30213
# Poissons Ratio (z) = 0.45342 0.18349
#
# Static dielectric constant tensor:
#      x y z
#    x 3.398290 0.000000 0.000000 
#    y 0.000000 3.569900 0.000000 
#    z 0.000000 0.000000 3.637280 
# 
# 
# High freq. dielectric constant tensor:
#      x y z
#    x 1.752420 0.000000 0.000000 
#    y 0.000000 1.755620 0.000000 
#    z 0.000000 0.000000 1.759650 
# 
# From -- ./inp_files/23675.got.cif
#   From: 2010.03.12/outbox.cif.g09.slc.cpg/sg62_12_cif.got.tgz:23675.got - 2010.04.10 19:12:36.
