data_PCOD8254469
_publ_section_title
;
Structure prediction by ZEFSAII (Michael W. Deem and Ramdas Pophale) SiO2 
 PCOD8254469
Probable space group: P N M A
;
_chemical_formula_sum "Si O2"
_cell_formula_units_Z 48
_cell_length_a 22.979833
_cell_length_b 9.149095
_cell_length_c 11.844236
_cell_angle_alpha 90.000000
_cell_angle_beta 90.000000
_cell_angle_gamma 90.000000
_cell_volume 2490.187551
_symmetry_space_group_name_H-M "P N M A"
_symmetry_group_IT_number 62
_symmetry_cell_setting 'orthorhombic'
loop_
_space_group_symop_operation_xyz
x,y,z
1/2-x,-y,1/2+z
1/2+x,1/2-y,1/2-z
-x,1/2+y,-z
-x,-y,-z
1/2+x,y,1/2-z
1/2-x,1/2+y,1/2+z
x,1/2-y,z
loop_
_atom_site_type_symbol
_atom_site_label
_atom_site_fract_x
_atom_site_fract_y
_atom_site_fract_z
Si Si1 0.840520 0.079105 0.166059
Si Si2 0.937981 0.421045 0.995947
Si Si3 0.145077 0.913964 0.576767
Si Si4 0.389910 0.079375 0.748430
Si Si5 0.725515 0.912292 0.124015
Si Si6 0.946843 0.578115 0.557247
O O1 0.836329 0.250000 0.146234
O O2 0.844991 0.035326 0.296126
O O3 0.780747 0.015312 0.120816
O O4 0.897075 0.020607 0.097931
O O5 0.951013 0.250000 0.007085
O O6 0.901590 0.455000 0.882224
O O7 0.000000 0.500000 0.000000
O O8 0.116571 0.750000 0.573383
O O9 0.204362 0.910112 0.505732
O O10 0.107166 0.040352 0.521589
O O11 0.398689 0.250000 0.777841
O O12 0.324918 0.032320 0.788795
O O13 0.437405 0.986512 0.817685
O O14 0.744606 0.750000 0.161599
O O15 0.956953 0.750000 0.565865
O O16 0.000000 0.500000 0.500000
#
# Coordination Sequence:
#
# PCOD8254469 Si02
#       6
#     8   8   8   8   8   8
#     4  10  22  38  60  87 118 154 192 241 294 350
#     4  10  23  41  60  86 120 160 202 247 295 351
#     4   9  20  39  57  82 119 151 189 240 292 344
#     4   9  20  40  60  83 120 157 193 242 297 348
#     4   9  19  36  59  85 116 154 191 240 295 347
#     4  11  22  36  59  87 113 147 191 239 291 349
#
# _framework density 19.275655
#
# number of rings (size 3 to 8) (size 9 to 14) (size 15 to 20)
#    0.000    2.333    0.000    2.500    4.667    4.667 
#    0.000    0.000    0.000    0.000    0.000    0.000 
#    0.000    0.000    0.000    0.000    0.000    0.000 
#
# Total GULP energy -595038.304607 kJ/mol
# GULP energy per Si atom -12396.631346 kJ/mol
# Density = 1.923178 g / cm^3
# Si number density = 19.275655 Si / 1000 Ang^3
#
#
#
# Elastic Constant Matrix: (Units=GPa)
#
#
# Indices 1 2 3 4 5 6 
#
# 1 105.9818 32.8986 55.4275 0.0000 0.0000 0.0000
# 2 32.8986 66.6445 31.8970 0.0000 0.0000 0.0000
# 3 55.4275 31.8970 138.9699 0.0000 0.0000 0.0000
# 4 0.0000 0.0000 0.0000 25.7634 0.0000 0.0000
# 5 0.0000 0.0000 0.0000 0.0000 21.1486 0.0000
# 6 0.0000 0.0000 0.0000 0.0000 0.0000 38.5579
#
#
#
# Elastic Compliance Matrix: (Units=1/GPa)
#
#
# Indices 1 2 3 4 5 6 
#
# 1 0.012985 -0.004416 -0.004165 0.000000 0.000000 0.000000
# 2 -0.004416 0.018359 -0.002452 0.000000 0.000000 0.000000
# 3 -0.004165 -0.002452 0.009420 0.000000 0.000000 0.000000
# 4 0.000000 0.000000 0.000000 0.038815 0.000000 0.000000
# 5 0.000000 0.000000 0.000000 0.000000 0.047284 0.000000
# 6 0.000000 0.000000 0.000000 0.000000 0.000000 0.025935
#
#
# Mechanical properties :
#
#
# Convention : Reuss Voigt Hill
#
# Bulk Modulus (GPa) = 53.48824 61.33804 57.41314
# Shear Modulus (GPa) = 27.60937 29.85217 28.73077
#
# Velocity S-wave (km/s) = 3.78874 3.93962 3.86492
# Velocity P-wave (km/s) = 6.85191 7.25153 7.05455
#
# Compressibility (1/GPa) = 0.01869570
#
# Stress axis : x y z
#
# Youngs Moduli (GPa) = 77.01241 54.46969 106.15712
#
# Poissons Ratio (x) = 0.24056 0.44218
# Poissons Ratio (y) = 0.34011 0.26034
# Poissons Ratio (z) = 0.32078 0.13358
#
# Static dielectric constant tensor:
#      x y z
#    x 3.191610 0.000000 0.000000 
#    y 0.000000 3.458140 0.000000 
#    z 0.000000 0.000000 3.610710 
# 
# 
# High freq. dielectric constant tensor:
#      x y z
#    x 1.745440 0.000000 0.000000 
#    y 0.000000 1.740560 0.000000 
#    z 0.000000 0.000000 1.760210 
# 
# From -- ./inp_files/15103.got.cif
#   From: 2010.03.12/outbox.cif.g09.slc.cpg/sg62_8_cif.got.tgz:15103.got - 2010.04.10 19:12:36.
