data_PCOD8254311
_publ_section_title
;
Structure prediction by ZEFSAII (Michael W. Deem and Ramdas Pophale) SiO2 
 PCOD8254311
Probable space group: P N M A
;
_chemical_formula_sum "Si O2"
_cell_formula_units_Z 40
_cell_length_a 8.843622
_cell_length_b 11.436870
_cell_length_c 18.104654
_cell_angle_alpha 90.000000
_cell_angle_beta 90.000000
_cell_angle_gamma 90.000000
_cell_volume 1831.165449
_symmetry_space_group_name_H-M "P N M A"
_symmetry_group_IT_number 62
_symmetry_cell_setting 'orthorhombic'
loop_
_space_group_symop_operation_xyz
x,y,z
1/2-x,-y,1/2+z
1/2+x,1/2-y,1/2-z
-x,1/2+y,-z
-x,-y,-z
1/2+x,y,1/2-z
1/2-x,1/2+y,1/2+z
x,1/2-y,z
loop_
_atom_site_type_symbol
_atom_site_label
_atom_site_fract_x
_atom_site_fract_y
_atom_site_fract_z
Si Si1 0.049652 0.250000 0.204731
Si Si2 0.867640 0.993984 0.722251
Si Si3 0.799416 0.250000 0.083499
Si Si4 0.790645 0.250000 0.421065
Si Si5 0.537122 0.436075 0.075051
Si Si6 0.578963 0.121654 0.681965
Si Si7 0.055913 0.250000 0.959123
O O1 0.086943 0.361494 0.255915
O O2 0.159427 0.250000 0.136877
O O3 0.882250 0.250000 0.165020
O O4 0.948707 0.024764 0.643984
O O5 0.690169 0.017588 0.707835
O O6 0.918051 0.085763 0.784157
O O7 0.693961 0.363438 0.073433
O O8 0.919108 0.250000 0.016671
O O9 0.718999 0.250000 0.502310
O O10 0.890596 0.138061 0.407280
O O11 0.500000 0.500000 0.000000
O O12 0.630534 0.250000 0.711956
O O13 0.553187 0.133246 0.593098
#
# Coordination Sequence:
#
# PCOD8254311 Si02
#       7
#     4   8   4   4   8   8   4
#     4  11  24  40  72  97 130 172 216 277 334 396
#     4  12  23  43  65  99 131 167 219 273 331 393
#     4  10  23  45  65  96 135 171 223 266 324 404
#     4  10  21  41  59  94 129 165 221 262 328 398
#     4  11  24  40  64  93 129 175 213 273 331 387
#     4  10  24  42  66  95 130 170 215 269 327 385
#     4   9  22  42  66  91 130 178 220 267 322 396
#
# _framework density 21.844013
#
# number of rings (size 3 to 8) (size 9 to 14) (size 15 to 20)
#    0.600    0.800    0.000    5.400    0.000    5.600 
#    3.600    5.000    0.000    0.000    0.000    0.000 
#    0.000    0.000    0.000    0.000    0.000    0.000 
#
# Total GULP energy -495584.028021 kJ/mol
# GULP energy per Si atom -12389.600701 kJ/mol
# Density = 2.179429 g / cm^3
# Si number density = 21.844013 Si / 1000 Ang^3
#
#
#
# Elastic Constant Matrix: (Units=GPa)
#
#
# Indices 1 2 3 4 5 6 
#
# 1 91.9275 10.9182 27.1315 0.0000 0.0000 0.0000
# 2 10.9182 75.6794 22.0103 0.0000 0.0000 0.0000
# 3 27.1315 22.0103 106.4110 0.0000 0.0000 0.0000
# 4 0.0000 0.0000 0.0000 48.7157 0.0000 0.0000
# 5 0.0000 0.0000 0.0000 0.0000 35.0792 0.0000
# 6 0.0000 0.0000 0.0000 0.0000 0.0000 367.6301
#
#
#
# Elastic Compliance Matrix: (Units=1/GPa)
#
#
# Indices 1 2 3 4 5 6 
#
# 1 0.011818 -0.000882 -0.002831 0.000000 0.000000 0.000000
# 2 -0.000882 0.014125 -0.002697 0.000000 0.000000 0.000000
# 3 -0.002831 -0.002697 0.010677 0.000000 0.000000 0.000000
# 4 0.000000 0.000000 0.000000 0.020527 0.000000 0.000000
# 5 0.000000 0.000000 0.000000 0.000000 0.028507 0.000000
# 6 0.000000 0.000000 0.000000 0.000000 0.000000 0.002720
#
#
# Mechanical properties :
#
#
# Convention : Reuss Voigt Hill
#
# Bulk Modulus (GPa) = 42.01384 43.79311 42.90347
# Shear Modulus (GPa) = 45.81778 104.54888 75.18333
#
# Velocity S-wave (km/s) = 4.58481 6.92571 5.87307
# Velocity P-wave (km/s) = 6.87769 9.16764 8.10396
#
# Compressibility (1/GPa) = 0.02380168
#
# Stress axis : x y z
#
# Youngs Moduli (GPa) = 84.61398 70.79555 93.65792
#
# Poissons Ratio (x) = 0.06242 0.26514
# Poissons Ratio (y) = 0.07460 0.25258
# Poissons Ratio (z) = 0.23954 0.19093
#
# Static dielectric constant tensor:
#      x y z
#    x 4.115610 0.000000 0.000000 
#    y 0.000000 3.684070 0.000000 
#    z 0.000000 0.000000 4.233240 
# 
# 
# High freq. dielectric constant tensor:
#      x y z
#    x 1.868890 0.000000 0.000000 
#    y 0.000000 1.844420 0.000000 
#    z 0.000000 0.000000 1.873900 
# 
# From -- ./inp_files/21981.got.cif
#   From: 2010.03.12/outbox.cif.g09.slc.cpg/sg62_11_cif.got.tgz:21981.got - 2010.04.10 19:12:36.
