data_PCOD8254962
_publ_section_title
;
Structure prediction by ZEFSAII (Michael W. Deem and Ramdas Pophale) SiO2 
 PCOD8254962
Probable space group: P N M A
;
_chemical_formula_sum "Si O2"
_cell_formula_units_Z 56
_cell_length_a 22.153827
_cell_length_b 8.957545
_cell_length_c 17.734924
_cell_angle_alpha 90.000000
_cell_angle_beta 90.000000
_cell_angle_gamma 90.000000
_cell_volume 3519.387525
_symmetry_space_group_name_H-M "P N M A"
_symmetry_group_IT_number 62
_symmetry_cell_setting 'orthorhombic'
loop_
_space_group_symop_operation_xyz
x,y,z
1/2-x,-y,1/2+z
1/2+x,1/2-y,1/2-z
-x,1/2+y,-z
-x,-y,-z
1/2+x,y,1/2-z
1/2-x,1/2+y,1/2+z
x,1/2-y,z
loop_
_atom_site_type_symbol
_atom_site_label
_atom_site_fract_x
_atom_site_fract_y
_atom_site_fract_z
Si Si1 0.713882 0.077154 0.911642
Si Si2 0.225648 0.075042 0.421265
Si Si3 0.819970 0.081964 0.271172
Si Si4 0.434883 0.428760 0.494361
Si Si5 0.320332 0.584583 0.768307
Si Si6 0.348660 0.572420 0.376955
Si Si7 0.651550 0.575649 0.373493
O O1 0.707671 0.250000 0.890125
O O2 0.783303 0.024689 0.904054
O O3 0.670737 0.985251 0.855150
O O4 0.694310 0.045738 0.997991
O O5 0.244319 0.250000 0.412781
O O6 0.177211 0.030680 0.355944
O O7 0.285875 0.977848 0.414282
O O8 0.845684 0.250000 0.269059
O O9 0.749529 0.078480 0.253395
O O10 0.854216 0.981142 0.209758
O O11 0.500000 0.500000 0.500000
O O12 0.437735 0.250000 0.488481
O O13 0.403322 0.495056 0.420649
O O14 0.398587 0.483275 0.568591
O O15 0.346835 0.750000 0.760959
O O16 0.359715 0.485311 0.711293
O O17 0.354399 0.750000 0.380798
O O18 0.647082 0.750000 0.367261
#
# Coordination Sequence:
#
# PCOD8254962 Si02
#       7
#     8   8   8   8   8   8   8
#     4   9  15  26  43  63  88 118 148 177 217 264
#     4   9  16  28  43  63  91 121 147 182 222 259
#     4   9  17  28  41  60  86 115 146 182 220 260
#     4  11  22  36  49  65  86 115 152 194 234 268
#     4   8  15  25  40  60  84 113 146 178 214 259
#     4  11  20  30  45  63  84 116 153 186 223 268
#     4   9  17  29  44  58  82 115 145 180 223 261
#
# _framework density 15.911859
#
# number of rings (size 3 to 8) (size 9 to 14) (size 15 to 20)
#    0.000    2.571    1.429    3.000    0.000    5.143 
#    0.000    0.000    0.000    0.000    0.000    0.000 
#    0.000    1.143    0.000    3.429    0.000    5.286 
#
# Total GULP energy -694099.738499 kJ/mol
# GULP energy per Si atom -12394.638187 kJ/mol
# Density = 1.587564 g / cm^3
# Si number density = 15.911859 Si / 1000 Ang^3
#
#
#
# Elastic Constant Matrix: (Units=GPa)
#
#
# Indices 1 2 3 4 5 6 
#
# 1 44.0802 26.7575 39.0232 0.0000 0.0000 0.0000
# 2 26.7575 68.8994 47.5448 0.0000 0.0000 0.0000
# 3 39.0232 47.5448 153.9563 0.0000 0.0000 0.0000
# 4 0.0000 0.0000 0.0000 30.3879 0.0000 0.0000
# 5 0.0000 0.0000 0.0000 0.0000 15.9256 0.0000
# 6 0.0000 0.0000 0.0000 0.0000 0.0000 17.6811
#
#
#
# Elastic Compliance Matrix: (Units=1/GPa)
#
#
# Indices 1 2 3 4 5 6 
#
# 1 0.033113 -0.008982 -0.005619 0.000000 0.000000 0.000000
# 2 -0.008982 0.020881 -0.004172 0.000000 0.000000 0.000000
# 3 -0.005619 -0.004172 0.009208 0.000000 0.000000 0.000000
# 4 0.000000 0.000000 0.000000 0.032908 0.000000 0.000000
# 5 0.000000 0.000000 0.000000 0.000000 0.062792 0.000000
# 6 0.000000 0.000000 0.000000 0.000000 0.000000 0.056557
#
#
# Mechanical properties :
#
#
# Convention : Reuss Voigt Hill
#
# Bulk Modulus (GPa) = 38.97772 54.84298 46.91035
# Shear Modulus (GPa) = 19.11631 23.03962 21.07796
#
# Velocity S-wave (km/s) = 3.46986 3.80933 3.64355
# Velocity P-wave (km/s) = 6.37201 7.34095 6.87357
#
# Compressibility (1/GPa) = 0.02565568
#
# Stress axis : x y z
#
# Youngs Moduli (GPa) = 30.19992 47.89066 108.60125
#
# Poissons Ratio (x) = 0.43015 0.61026
# Poissons Ratio (y) = 0.27125 0.45306
# Poissons Ratio (z) = 0.16970 0.19979
#
# Static dielectric constant tensor:
#      x y z
#    x 2.546260 0.000000 0.000000 
#    y 0.000000 3.090430 0.000000 
#    z 0.000000 0.000000 3.507380 
# 
# 
# High freq. dielectric constant tensor:
#      x y z
#    x 1.535250 0.000000 0.000000 
#    y 0.000000 1.616350 0.000000 
#    z 0.000000 0.000000 1.631080 
# 
# From -- ./inp_files/24618.got.cif
#   From: 2010.03.12/outbox.cif.g09.slc.cpg/sg62_13_cif.got.tgz:24618.got - 2010.04.10 19:12:36.
