data_PCOD8254409
_publ_section_title
;
Structure prediction by ZEFSAII (Michael W. Deem and Ramdas Pophale) SiO2 
 PCOD8254409
Probable space group: P N M A
;
_chemical_formula_sum "Si O2"
_cell_formula_units_Z 48
_cell_length_a 8.863700
_cell_length_b 16.180797
_cell_length_c 15.623845
_cell_angle_alpha 90.000000
_cell_angle_beta 90.000000
_cell_angle_gamma 90.000000
_cell_volume 2240.798885
_symmetry_space_group_name_H-M "P N M A"
_symmetry_group_IT_number 62
_symmetry_cell_setting 'orthorhombic'
loop_
_space_group_symop_operation_xyz
x,y,z
1/2-x,-y,1/2+z
1/2+x,1/2-y,1/2-z
-x,1/2+y,-z
-x,-y,-z
1/2+x,y,1/2-z
1/2-x,1/2+y,1/2+z
x,1/2-y,z
loop_
_atom_site_type_symbol
_atom_site_label
_atom_site_fract_x
_atom_site_fract_y
_atom_site_fract_z
Si Si1 0.650320 0.395069 0.017675
Si Si2 0.763066 0.846825 0.165346
Si Si3 0.070913 0.410620 0.670948
Si Si4 0.346242 0.951476 0.488378
Si Si5 0.138320 0.907959 0.627126
Si Si6 0.551756 0.750000 0.777829
Si Si7 0.760405 0.250000 0.125165
O O1 0.713909 0.485323 0.038032
O O2 0.481257 0.390715 0.052040
O O3 0.756327 0.329106 0.064159
O O4 0.646328 0.377010 0.916406
O O5 0.736789 0.750000 0.150385
O O6 0.855574 0.861190 0.251547
O O7 0.606017 0.894146 0.172373
O O8 0.859238 0.882556 0.085384
O O9 0.100344 0.508927 0.680044
O O10 0.300866 0.912184 0.580248
O O11 0.500000 0.000000 0.500000
O O12 0.139512 0.831432 0.690864
O O13 0.580066 0.750000 0.675415
O O14 0.377479 0.750000 0.805710
#
# Coordination Sequence:
#
# PCOD8254409 Si02
#       7
#     8   8   8   8   8   4   4
#     4  10  21  45  68  93 126 185 221 261 348 411
#     4  12  27  43  70  99 137 176 231 284 329 399
#     4  11  24  43  68  97 137 176 230 280 339 404
#     4  11  24  43  66  97 131 173 225 276 337 394
#     4  10  21  44  71  93 131 182 219 272 344 410
#     4  10  24  38  68 107 127 165 231 268 338 404
#     4  10  24  40  70  95 131 171 217 284 330 404
#
# _framework density 21.420933000000002
#
# number of rings (size 3 to 8) (size 9 to 14) (size 15 to 20)
#    0.000    1.333    3.333    1.500   10.500    1.333 
#    1.500    0.000    0.000    0.000    0.000    0.000 
#    0.000    0.000    0.000    0.000    0.000    0.000 
#
# Total GULP energy -595327.189824 kJ/mol
# GULP energy per Si atom -12402.649788 kJ/mol
# Density = 2.137218 g / cm^3
# Si number density = 21.420933 Si / 1000 Ang^3
#
#
#
# Elastic Constant Matrix: (Units=GPa)
#
#
# Indices 1 2 3 4 5 6 
#
# 1 61.5751 11.8420 29.2687 0.0000 0.0000 0.0000
# 2 11.8420 100.0660 37.4779 0.0000 0.0000 0.0000
# 3 29.2687 37.4779 74.1169 0.0000 0.0000 0.0000
# 4 0.0000 0.0000 0.0000 37.9999 0.0000 0.0000
# 5 0.0000 0.0000 0.0000 0.0000 37.5633 0.0000
# 6 0.0000 0.0000 0.0000 0.0000 0.0000 21.1089
#
#
#
# Elastic Compliance Matrix: (Units=1/GPa)
#
#
# Indices 1 2 3 4 5 6 
#
# 1 0.020036 0.000731 -0.008282 0.000000 0.000000 0.000000
# 2 0.000731 0.012355 -0.006536 0.000000 0.000000 0.000000
# 3 -0.008282 -0.006536 0.020068 0.000000 0.000000 0.000000
# 4 0.000000 0.000000 0.000000 0.026316 0.000000 0.000000
# 5 0.000000 0.000000 0.000000 0.000000 0.026622 0.000000
# 6 0.000000 0.000000 0.000000 0.000000 0.000000 0.047373
#
#
# Mechanical properties :
#
#
# Convention : Reuss Voigt Hill
#
# Bulk Modulus (GPa) = 41.17804 43.65947 42.41876
# Shear Modulus (GPa) = 26.44958 29.81238 28.13098
#
# Velocity S-wave (km/s) = 3.51772 3.73465 3.62781
# Velocity P-wave (km/s) = 5.98031 6.24682 6.11502
#
# Compressibility (1/GPa) = 0.02428479
#
# Stress axis : x y z
#
# Youngs Moduli (GPa) = 49.90904 80.93997 49.83153
#
# Poissons Ratio (x) = -0.05914 0.41270
# Poissons Ratio (y) = -0.03647 0.32569
# Poissons Ratio (z) = 0.41334 0.52901
#
# Static dielectric constant tensor:
#      x y z
#    x 3.776310 0.000000 0.000000 
#    y 0.000000 4.079880 0.000000 
#    z 0.000000 0.000000 3.971810 
# 
# 
# High freq. dielectric constant tensor:
#      x y z
#    x 1.830550 0.000000 0.000000 
#    y 0.000000 1.850020 0.000000 
#    z 0.000000 0.000000 1.842350 
# 
# From -- ./inp_files/17020.got.cif
#   From: 2010.03.12/outbox.cif.g09.slc.cpg/sg62_9_cif.got.tgz:17020.got - 2010.04.10 19:12:36.
