data_PCOD8254277
_publ_section_title
;
Structure prediction by ZEFSAII (Michael W. Deem and Ramdas Pophale) SiO2 
 PCOD8254277
Probable space group: P N M A
;
_chemical_formula_sum "Si O2"
_cell_formula_units_Z 56
_cell_length_a 20.922141
_cell_length_b 8.829031
_cell_length_c 14.661073
_cell_angle_alpha 90.000000
_cell_angle_beta 90.000000
_cell_angle_gamma 90.000000
_cell_volume 2708.226120
_symmetry_space_group_name_H-M "P N M A"
_symmetry_group_IT_number 62
_symmetry_cell_setting 'orthorhombic'
loop_
_space_group_symop_operation_xyz
x,y,z
1/2-x,-y,1/2+z
1/2+x,1/2-y,1/2-z
-x,1/2+y,-z
-x,-y,-z
1/2+x,y,1/2-z
1/2-x,1/2+y,1/2+z
x,1/2-y,z
loop_
_atom_site_type_symbol
_atom_site_label
_atom_site_fract_x
_atom_site_fract_y
_atom_site_fract_z
Si Si1 0.022354 0.572661 0.270916
Si Si2 0.158796 0.928155 0.344259
Si Si3 0.603299 0.571102 0.740780
Si Si4 0.234118 0.426764 0.696406
Si Si5 0.050275 0.928616 0.067556
Si Si6 0.759852 0.926075 0.515981
Si Si7 0.136887 0.072441 0.939526
O O1 0.008238 0.750000 0.277711
O O2 0.084844 0.527393 0.328281
O O3 0.038720 0.518819 0.169395
O O4 0.957445 0.485111 0.301911
O O5 0.165323 0.750000 0.361680
O O6 0.204431 0.974301 0.257862
O O7 0.174258 0.020851 0.436966
O O8 0.601968 0.750000 0.732330
O O9 0.671032 0.520579 0.780277
O O10 0.593708 0.494625 0.641724
O O11 0.218611 0.250000 0.710719
O O12 0.246304 0.464067 0.590432
O O13 0.050676 0.750000 0.058507
O O14 0.118390 0.994843 0.035559
O O15 0.000000 0.000000 0.000000
O O16 0.747603 0.750000 0.534464
O O17 0.710363 0.027493 0.575100
O O18 0.125900 0.250000 0.941901
#
# Coordination Sequence:
#
# PCOD8254277 Si02
#       7
#     8   8   8   8   8   8   8
#     4  10  22  40  61  86 124 168 205 250 316 378
#     4  10  21  40  65  91 122 165 207 251 310 376
#     4  12  24  38  61  91 122 159 208 257 303 364
#     4  10  22  42  66  91 125 165 204 252 317 375
#     4  11  21  34  55  85 119 158 200 246 302 368
#     4  11  23  40  64  94 123 158 206 261 312 366
#     4  12  23  37  58  85 122 165 202 248 308 368
#
# _framework density 20.67774
#
# number of rings (size 3 to 8) (size 9 to 14) (size 15 to 20)
#    0.000    1.143    2.857    4.286    0.000    4.571 
#    0.000    2.143    0.000    0.000    0.000    0.000 
#    0.000    0.000    0.000    0.000    0.000    0.000 
#
# Total GULP energy -694270.347679 kJ/mol
# GULP energy per Si atom -12397.684780 kJ/mol
# Density = 2.063068 g / cm^3
# Si number density = 20.677740 Si / 1000 Ang^3
#
#
#
# Elastic Constant Matrix: (Units=GPa)
#
#
# Indices 1 2 3 4 5 6 
#
# 1 99.5504 30.4270 3.3774 0.0000 0.0000 0.0000
# 2 30.4270 82.0047 21.4651 0.0000 0.0000 0.0000
# 3 3.3774 21.4651 45.3869 0.0000 0.0000 0.0000
# 4 0.0000 0.0000 0.0000 29.1342 0.0000 0.0000
# 5 0.0000 0.0000 0.0000 0.0000 26.4929 0.0000
# 6 0.0000 0.0000 0.0000 0.0000 0.0000 36.1841
#
#
#
# Elastic Compliance Matrix: (Units=1/GPa)
#
#
# Indices 1 2 3 4 5 6 
#
# 1 0.011398 -0.004573 0.001315 0.000000 0.000000 0.000000
# 2 -0.004573 0.015752 -0.007110 0.000000 0.000000 0.000000
# 3 0.001315 -0.007110 0.025297 0.000000 0.000000 0.000000
# 4 0.000000 0.000000 0.000000 0.034324 0.000000 0.000000
# 5 0.000000 0.000000 0.000000 0.000000 0.037746 0.000000
# 6 0.000000 0.000000 0.000000 0.000000 0.000000 0.027636
#
#
# Mechanical properties :
#
#
# Convention : Reuss Voigt Hill
#
# Bulk Modulus (GPa) = 31.53416 37.49789 34.51602
# Shear Modulus (GPa) = 27.25372 29.80708 28.53040
#
# Velocity S-wave (km/s) = 3.63440 3.80084 3.71855
# Velocity P-wave (km/s) = 5.73543 6.11846 5.93004
#
# Compressibility (1/GPa) = 0.03171164
#
# Stress axis : x y z
#
# Youngs Moduli (GPa) = 87.73168 63.48285 39.52990
#
# Poissons Ratio (x) = 0.29033 -0.05197
# Poissons Ratio (y) = 0.40123 0.28104
# Poissons Ratio (z) = -0.11534 0.45133
#
# Static dielectric constant tensor:
#      x y z
#    x 4.069810 0.000000 0.000000 
#    y 0.000000 3.635510 0.000000 
#    z 0.000000 0.000000 3.761770 
# 
# 
# High freq. dielectric constant tensor:
#      x y z
#    x 1.824970 0.000000 0.000000 
#    y 0.000000 1.804410 0.000000 
#    z 0.000000 0.000000 1.790810 
# 
# From -- ./inp_files/20387.got.cif
#   From: 2010.03.12/outbox.cif.g09.slc.cpg/sg62_11_cif.got.tgz:20387.got - 2010.04.10 19:12:36.
