data_PCOD8254377
_publ_section_title
;
Structure prediction by ZEFSAII (Michael W. Deem and Ramdas Pophale) SiO2 
 PCOD8254377
Probable space group: P N M A
;
_chemical_formula_sum "Si O2"
_cell_formula_units_Z 48
_cell_length_a 9.312120
_cell_length_b 8.939421
_cell_length_c 28.656344
_cell_angle_alpha 90.000000
_cell_angle_beta 90.000000
_cell_angle_gamma 90.000000
_cell_volume 2385.496241
_symmetry_space_group_name_H-M "P N M A"
_symmetry_group_IT_number 62
_symmetry_cell_setting 'orthorhombic'
loop_
_space_group_symop_operation_xyz
x,y,z
1/2-x,-y,1/2+z
1/2+x,1/2-y,1/2-z
-x,1/2+y,-z
-x,-y,-z
1/2+x,y,1/2-z
1/2-x,1/2+y,1/2+z
x,1/2-y,z
loop_
_atom_site_type_symbol
_atom_site_label
_atom_site_fract_x
_atom_site_fract_y
_atom_site_fract_z
Si Si1 0.590953 0.082912 0.538264
Si Si2 0.971461 0.928807 0.298397
Si Si3 0.801357 0.073738 0.377024
Si Si4 0.219782 0.572653 0.780075
Si Si5 0.977442 0.077086 0.131914
Si Si6 0.367128 0.416015 0.019975
O O1 0.530624 0.250000 0.542384
O O2 0.753054 0.079635 0.521186
O O3 0.500000 0.000000 0.500000
O O4 0.587520 0.009952 0.588628
O O5 0.981852 0.750000 0.294428
O O6 0.920948 0.977797 0.349920
O O7 0.851265 0.993900 0.264072
O O8 0.124743 0.001955 0.287938
O O9 0.832487 0.250000 0.370524
O O10 0.642514 0.032839 0.357994
O O11 0.806637 0.020100 0.431041
O O12 0.235431 0.750000 0.771025
O O13 0.117676 0.536989 0.823591
O O14 0.968819 0.250000 0.118534
O O15 0.419207 0.250000 0.030974
O O16 0.500000 0.500000 0.000000
#
# Coordination Sequence:
#
# PCOD8254377 Si02
#       6
#     8   8   8   8   8   8
#     4  11  22  39  62  91 125 164 209 258 311 369
#     4  12  26  43  66  98 132 162 206 266 320 370
#     4  10  21  42  65  89 125 169 214 258 311 381
#     4  11  24  44  70  96 125 169 212 253 313 387
#     4  10  22  41  66  93 122 161 212 260 308 371
#     4  10  23  40  60  88 125 167 212 261 312 371
#
# _framework density 20.121600000000001
#
# number of rings (size 3 to 8) (size 9 to 14) (size 15 to 20)
#    0.000    1.333    1.667    3.500    2.333    5.333 
#    0.000    0.000    0.000    0.000    0.000    0.000 
#    0.000    0.000    0.000    0.000    0.000    0.000 
#
# Total GULP energy -595291.208434 kJ/mol
# GULP energy per Si atom -12401.900176 kJ/mol
# Density = 2.007580 g / cm^3
# Si number density = 20.121600 Si / 1000 Ang^3
#
#
#
# Elastic Constant Matrix: (Units=GPa)
#
#
# Indices 1 2 3 4 5 6 
#
# 1 122.0479 44.4112 35.6314 0.0000 0.0000 0.0000
# 2 44.4112 90.4382 44.2853 0.0000 0.0000 0.0000
# 3 35.6314 44.2853 86.4878 0.0000 0.0000 0.0000
# 4 0.0000 0.0000 0.0000 39.1557 0.0000 0.0000
# 5 0.0000 0.0000 0.0000 0.0000 39.6103 0.0000
# 6 0.0000 0.0000 0.0000 0.0000 0.0000 35.9088
#
#
#
# Elastic Compliance Matrix: (Units=1/GPa)
#
#
# Indices 1 2 3 4 5 6 
#
# 1 0.010281 -0.003970 -0.002203 0.000000 0.000000 0.000000
# 2 -0.003970 0.016291 -0.006706 0.000000 0.000000 0.000000
# 3 -0.002203 -0.006706 0.015903 0.000000 0.000000 0.000000
# 4 0.000000 0.000000 0.000000 0.025539 0.000000 0.000000
# 5 0.000000 0.000000 0.000000 0.000000 0.025246 0.000000
# 6 0.000000 0.000000 0.000000 0.000000 0.000000 0.027848
#
#
# Mechanical properties :
#
#
# Convention : Reuss Voigt Hill
#
# Bulk Modulus (GPa) = 59.81653 60.84776 60.33215
# Shear Modulus (GPa) = 32.80006 34.57803 33.68904
#
# Velocity S-wave (km/s) = 4.04182 4.14992 4.09623
# Velocity P-wave (km/s) = 7.18149 7.29850 7.24023
#
# Compressibility (1/GPa) = 0.01671779
#
# Stress axis : x y z
#
# Youngs Moduli (GPa) = 97.26417 61.38537 62.87926
#
# Poissons Ratio (x) = 0.24371 0.13851
# Poissons Ratio (y) = 0.38615 0.42166
# Poissons Ratio (z) = 0.21426 0.41164
#
# Static dielectric constant tensor:
#      x y z
#    x 3.830840 0.000000 0.000000 
#    y 0.000000 3.702250 0.000000 
#    z 0.000000 0.000000 3.776520 
# 
# 
# High freq. dielectric constant tensor:
#      x y z
#    x 1.796190 0.000000 0.000000 
#    y 0.000000 1.784800 0.000000 
#    z 0.000000 0.000000 1.800040 
# 
# From -- ./inp_files/32009.got.cif
#   From: 2010.03.12/outbox.cif.g09.slc.cpg/sg62_17_cif.got.tgz:32009.got - 2010.04.10 19:12:36.
