data_PCOD8254478
_publ_section_title
;
Structure prediction by ZEFSAII (Michael W. Deem and Ramdas Pophale) SiO2 
 PCOD8254478
Probable space group: P N M A
;
_chemical_formula_sum "Si O2"
_cell_formula_units_Z 40
_cell_length_a 12.885901
_cell_length_b 14.258317
_cell_length_c 11.023740
_cell_angle_alpha 90.000000
_cell_angle_beta 90.000000
_cell_angle_gamma 90.000000
_cell_volume 2025.405654
_symmetry_space_group_name_H-M "P N M A"
_symmetry_group_IT_number 62
_symmetry_cell_setting 'orthorhombic'
loop_
_space_group_symop_operation_xyz
x,y,z
1/2-x,-y,1/2+z
1/2+x,1/2-y,1/2-z
-x,1/2+y,-z
-x,-y,-z
1/2+x,y,1/2-z
1/2-x,1/2+y,1/2+z
x,1/2-y,z
loop_
_atom_site_type_symbol
_atom_site_label
_atom_site_fract_x
_atom_site_fract_y
_atom_site_fract_z
Si Si1 0.586270 0.646197 0.215420
Si Si2 0.975314 0.492389 0.137907
Si Si3 0.429658 0.912646 0.032208
Si Si4 0.622001 0.358482 0.234799
Si Si5 0.225902 0.018764 0.738351
O O1 0.609308 0.750000 0.264772
O O2 0.520867 0.588230 0.311042
O O3 0.513650 0.655619 0.095882
O O4 0.696696 0.594333 0.200333
O O5 0.017200 0.398847 0.204697
O O6 0.852527 0.492494 0.154729
O O7 0.000000 0.500000 0.000000
O O8 0.333358 0.941480 0.119607
O O9 0.382829 0.866350 0.911418
O O10 0.500000 0.000000 0.000000
O O11 0.638020 0.250000 0.271439
O O12 0.713626 0.422118 0.292220
#
# Coordination Sequence:
#
# PCOD8254478 Si02
#       5
#     8   8   8   8   8
#     4  10  22  38  63  94 121 161 209 253 309 372
#     4  10  23  42  62  84 130 165 194 252 316 366
#     4  11  20  44  65  87 128 169 204 261 319 373
#     4  11  24  41  67  97 122 163 216 260 311 373
#     4  10  22  39  63  89 126 162 209 255 310 366
#
# _framework density 19.749130000000001
#
# number of rings (size 3 to 8) (size 9 to 14) (size 15 to 20)
#    0.000    1.600    6.000    0.600    5.600    5.600 
#    0.000    2.000    0.000    0.000    0.000    0.000 
#    0.000    0.000    0.000    0.000    0.000    0.000 
#
# Total GULP energy -495674.563916 kJ/mol
# GULP energy per Si atom -12391.864098 kJ/mol
# Density = 1.970418 g / cm^3
# Si number density = 19.749130 Si / 1000 Ang^3
#
#
#
# Elastic Constant Matrix: (Units=GPa)
#
#
# Indices 1 2 3 4 5 6 
#
# 1 130.4348 49.1508 22.8775 0.0000 0.0000 0.0000
# 2 49.1508 165.1912 17.5765 0.0000 0.0000 0.0000
# 3 22.8775 17.5765 90.4569 0.0000 0.0000 0.0000
# 4 0.0000 0.0000 0.0000 16.7877 0.0000 0.0000
# 5 0.0000 0.0000 0.0000 0.0000 22.3042 0.0000
# 6 0.0000 0.0000 0.0000 0.0000 0.0000 7.8363
#
#
#
# Elastic Compliance Matrix: (Units=1/GPa)
#
#
# Indices 1 2 3 4 5 6 
#
# 1 0.008905 -0.002461 -0.001774 0.000000 0.000000 0.000000
# 2 -0.002461 0.006861 -0.000711 0.000000 0.000000 0.000000
# 3 -0.001774 -0.000711 0.011642 0.000000 0.000000 0.000000
# 4 0.000000 0.000000 0.000000 0.059568 0.000000 0.000000
# 5 0.000000 0.000000 0.000000 0.000000 0.044835 0.000000
# 6 0.000000 0.000000 0.000000 0.000000 0.000000 0.127611
#
#
# Mechanical properties :
#
#
# Convention : Reuss Voigt Hill
#
# Bulk Modulus (GPa) = 57.08791 62.81027 59.94909
# Shear Modulus (GPa) = 18.17174 29.15084 23.66129
#
# Velocity S-wave (km/s) = 3.03665 3.84612 3.46510
# Velocity P-wave (km/s) = 6.42373 7.18308 6.81399
#
# Compressibility (1/GPa) = 0.01751684
#
# Stress axis : x y z
#
# Youngs Moduli (GPa) = 112.29482 145.74219 85.89754
#
# Poissons Ratio (x) = 0.35865 0.15238
# Poissons Ratio (y) = 0.27634 0.06106
# Poissons Ratio (z) = 0.19921 0.10360
#
# Static dielectric constant tensor:
#      x y z
#    x 4.010890 0.000000 0.000000 
#    y 0.000000 3.515760 0.000000 
#    z 0.000000 0.000000 3.276390 
# 
# 
# High freq. dielectric constant tensor:
#      x y z
#    x 1.783270 0.000000 0.000000 
#    y 0.000000 1.763890 0.000000 
#    z 0.000000 0.000000 1.763140 
# 
# From -- ./inp_files/12038.got.cif
#   From: 2010.03.12/outbox.cif.g09.slc.cpg/sg62_7_cif.got.tgz:12038.got - 2010.04.10 19:12:36.
