data_PCOD8254812
_publ_section_title
;
Structure prediction by ZEFSAII (Michael W. Deem and Ramdas Pophale) SiO2 
 PCOD8254812
Probable space group: P N M A
;
_chemical_formula_sum "Si O2"
_cell_formula_units_Z 48
_cell_length_a 27.380967
_cell_length_b 8.841104
_cell_length_c 9.877047
_cell_angle_alpha 90.000000
_cell_angle_beta 90.000000
_cell_angle_gamma 90.000000
_cell_volume 2391.015555
_symmetry_space_group_name_H-M "P N M A"
_symmetry_group_IT_number 62
_symmetry_cell_setting 'orthorhombic'
loop_
_space_group_symop_operation_xyz
x,y,z
1/2-x,-y,1/2+z
1/2+x,1/2-y,1/2-z
-x,1/2+y,-z
-x,-y,-z
1/2+x,y,1/2-z
1/2-x,1/2+y,1/2+z
x,1/2-y,z
loop_
_atom_site_type_symbol
_atom_site_label
_atom_site_fract_x
_atom_site_fract_y
_atom_site_fract_z
Si Si1 0.040511 0.071110 0.095304
Si Si2 0.138338 0.922743 0.456543
Si Si3 0.039262 0.072559 0.402585
Si Si4 0.645155 0.071224 0.517813
Si Si5 0.190506 0.573465 0.734121
Si Si6 0.707422 0.925994 0.294066
O O1 0.035823 0.250000 0.087432
O O2 0.032734 0.012441 0.248751
O O3 0.093891 0.018280 0.046135
O O4 0.000000 0.000000 0.000000
O O5 0.119829 0.750000 0.460297
O O6 0.171778 0.959883 0.584255
O O7 0.169303 0.957268 0.324171
O O8 0.092370 0.032716 0.458722
O O9 0.032119 0.250000 0.406459
O O10 0.000000 0.000000 0.500000
O O11 0.647793 0.250000 0.536351
O O12 0.650208 0.990652 0.662509
O O13 0.690064 0.018539 0.424673
O O14 0.198935 0.750000 0.760590
O O15 0.240712 0.485267 0.756554
O O16 0.711148 0.750000 0.331092
#
# Coordination Sequence:
#
# PCOD8254812 Si02
#       6
#     8   8   8   8   8   8
#     4  10  24  43  65  92 124 162 205 255 311 369
#     4  10  23  42  63  91 126 163 207 257 308 368
#     4  11  24  43  66  94 124 161 204 254 312 371
#     4  11  23  42  63  91 128 166 211 259 306 370
#     4  11  24  40  62  94 129 167 209 259 311 368
#     4  11  22  40  66  94 124 166 211 257 316 372
#
# _framework density 20.075151000000002
#
# number of rings (size 3 to 8) (size 9 to 14) (size 15 to 20)
#    0.000    1.333    1.667    3.000    2.333    6.000 
#    0.000    0.000    0.000    0.000    0.000    0.000 
#    0.000    0.000    0.000    0.000    0.000    0.000 
#
# Total GULP energy -595527.755059 kJ/mol
# GULP energy per Si atom -12406.828230 kJ/mol
# Density = 2.002946 g / cm^3
# Si number density = 20.075151 Si / 1000 Ang^3
#
#
#
# Elastic Constant Matrix: (Units=GPa)
#
#
# Indices 1 2 3 4 5 6 
#
# 1 108.0747 37.7884 24.3016 0.0000 0.0000 0.0000
# 2 37.7884 58.5459 38.1280 0.0000 0.0000 0.0000
# 3 24.3016 38.1280 66.4018 0.0000 0.0000 0.0000
# 4 0.0000 0.0000 0.0000 36.6304 0.0000 0.0000
# 5 0.0000 0.0000 0.0000 0.0000 30.1435 0.0000
# 6 0.0000 0.0000 0.0000 0.0000 0.0000 40.2793
#
#
#
# Elastic Compliance Matrix: (Units=1/GPa)
#
#
# Indices 1 2 3 4 5 6 
#
# 1 0.011950 -0.007771 0.000089 0.000000 0.000000 0.000000
# 2 -0.007771 0.032336 -0.015724 0.000000 0.000000 0.000000
# 3 0.000089 -0.015724 0.024056 0.000000 0.000000 0.000000
# 4 0.000000 0.000000 0.000000 0.027300 0.000000 0.000000
# 5 0.000000 0.000000 0.000000 0.000000 0.033175 0.000000
# 6 0.000000 0.000000 0.000000 0.000000 0.000000 0.024827
#
#
# Mechanical properties :
#
#
# Convention : Reuss Voigt Hill
#
# Bulk Modulus (GPa) = 46.44563 48.16205 47.30384
# Shear Modulus (GPa) = 24.08111 30.26428 27.17270
#
# Velocity S-wave (km/s) = 3.46721 3.88693 3.68305
# Velocity P-wave (km/s) = 6.26217 6.64735 6.45763
#
# Compressibility (1/GPa) = 0.02153055
#
# Stress axis : x y z
#
# Youngs Moduli (GPa) = 83.68192 30.92507 41.56981
#
# Poissons Ratio (x) = 0.24031 -0.00368
# Poissons Ratio (y) = 0.65028 0.65363
# Poissons Ratio (z) = -0.00741 0.48625
#
# Static dielectric constant tensor:
#      x y z
#    x 3.724330 0.000000 0.000000 
#    y 0.000000 3.624130 0.000000 
#    z 0.000000 0.000000 3.803490 
# 
# 
# High freq. dielectric constant tensor:
#      x y z
#    x 1.790510 0.000000 0.000000 
#    y 0.000000 1.787730 0.000000 
#    z 0.000000 0.000000 1.800020 
# 
# From -- ./inp_files/10153.got.cif
#   From: 2010.03.12/outbox.cif.g09.slc.cpg/sg62_6_cif.got.tgz:10153.got - 2010.04.10 19:12:36.
