data_PCOD8254516
_publ_section_title
;
Structure prediction by ZEFSAII (Michael W. Deem and Ramdas Pophale) SiO2 
 PCOD8254516
Probable space group: P N M A
;
_chemical_formula_sum "Si O2"
_cell_formula_units_Z 56
_cell_length_a 11.234663
_cell_length_b 16.521229
_cell_length_c 14.070728
_cell_angle_alpha 90.000000
_cell_angle_beta 90.000000
_cell_angle_gamma 90.000000
_cell_volume 2611.674017
_symmetry_space_group_name_H-M "P N M A"
_symmetry_group_IT_number 62
_symmetry_cell_setting 'orthorhombic'
loop_
_space_group_symop_operation_xyz
x,y,z
1/2-x,-y,1/2+z
1/2+x,1/2-y,1/2-z
-x,1/2+y,-z
-x,-y,-z
1/2+x,y,1/2-z
1/2-x,1/2+y,1/2+z
x,1/2-y,z
loop_
_atom_site_type_symbol
_atom_site_label
_atom_site_fract_x
_atom_site_fract_y
_atom_site_fract_z
Si Si1 0.597729 0.537696 0.648232
Si Si2 0.813426 0.658389 0.656696
Si Si3 0.232820 0.436460 0.985126
Si Si4 0.685718 0.842146 0.185938
Si Si5 0.595087 0.068710 0.983715
Si Si6 0.564539 0.102691 0.775394
Si Si7 0.398490 0.659155 0.632059
O O1 0.712705 0.591522 0.668358
O O2 0.615300 0.464135 0.573199
O O3 0.560505 0.492515 0.746201
O O4 0.501744 0.597672 0.604885
O O5 0.764654 0.750000 0.638413
O O6 0.900991 0.632624 0.570952
O O7 0.883102 0.657433 0.755415
O O8 0.324210 0.396539 0.909436
O O9 0.281027 0.520511 0.027470
O O10 0.212637 0.372396 0.069974
O O11 0.680835 0.750000 0.154339
O O12 0.815807 0.855880 0.233893
O O13 0.567852 0.861099 0.251692
O O14 0.573500 0.117321 0.887740
O O15 0.500000 0.000000 0.000000
O O16 0.429348 0.750000 0.598642
#
# Coordination Sequence:
#
# PCOD8254516 Si02
#       7
#     8   8   8   8   8   8   8
#     4  10  22  39  64  87 127 165 219 268 316 391
#     4  10  23  40  60  92 129 166 212 266 329 391
#     4  10  22  39  64  92 122 168 213 268 320 392
#     4  11  24  44  64  98 134 169 217 269 333 390
#     4  11  21  40  65  93 123 165 219 265 320 384
#     4  11  24  41  71  97 129 175 216 274 324 386
#     4  11  22  38  62  90 126 166 207 266 329 385
#
# _framework density 21.442187000000001
#
# number of rings (size 3 to 8) (size 9 to 14) (size 15 to 20)
#    0.000    1.429    1.429    3.429    6.000    1.143 
#    2.571    1.429    0.000    0.000    0.000    0.000 
#    0.000    0.000    0.000    0.000    0.000    0.000 
#
# Total GULP energy -693879.143752 kJ/mol
# GULP energy per Si atom -12390.698996 kJ/mol
# Density = 2.139338 g / cm^3
# Si number density = 21.442187 Si / 1000 Ang^3
#
#
#
# Elastic Constant Matrix: (Units=GPa)
#
#
# Indices 1 2 3 4 5 6 
#
# 1 100.7916 29.2467 18.5987 0.0000 0.0000 0.0000
# 2 29.2467 133.4832 35.7421 0.0000 0.0000 0.0000
# 3 18.5987 35.7421 89.5979 0.0000 0.0000 0.0000
# 4 0.0000 0.0000 0.0000 28.0029 0.0000 0.0000
# 5 0.0000 0.0000 0.0000 0.0000 20.8502 0.0000
# 6 0.0000 0.0000 0.0000 0.0000 0.0000 23.1042
#
#
#
# Elastic Compliance Matrix: (Units=1/GPa)
#
#
# Indices 1 2 3 4 5 6 
#
# 1 0.010760 -0.001970 -0.001448 0.000000 0.000000 0.000000
# 2 -0.001970 0.008748 -0.003081 0.000000 0.000000 0.000000
# 3 -0.001448 -0.003081 0.012691 0.000000 0.000000 0.000000
# 4 0.000000 0.000000 0.000000 0.035711 0.000000 0.000000
# 5 0.000000 0.000000 0.000000 0.000000 0.047961 0.000000
# 6 0.000000 0.000000 0.000000 0.000000 0.000000 0.043282
#
#
# Mechanical properties :
#
#
# Convention : Reuss Voigt Hill
#
# Bulk Modulus (GPa) = 52.07860 54.56086 53.31973
# Shear Modulus (GPa) = 28.00329 30.41048 29.20688
#
# Velocity S-wave (km/s) = 3.61777 3.77006 3.69470
# Velocity P-wave (km/s) = 6.46465 6.66723 6.56672
#
# Compressibility (1/GPa) = 0.01920175
#
# Stress axis : x y z
#
# Youngs Moduli (GPa) = 92.93480 114.30986 78.79897
#
# Poissons Ratio (x) = 0.22518 0.11408
# Poissons Ratio (y) = 0.18308 0.24277
# Poissons Ratio (z) = 0.13455 0.35217
#
# Static dielectric constant tensor:
#      x y z
#    x 4.098780 0.000000 0.000000 
#    y 0.000000 4.090770 0.000000 
#    z 0.000000 0.000000 4.056850 
# 
# 
# High freq. dielectric constant tensor:
#      x y z
#    x 1.838620 0.000000 0.000000 
#    y 0.000000 1.848610 0.000000 
#    z 0.000000 0.000000 1.834590 
# 
# From -- ./inp_files/18058.got.cif
#   From: 2010.03.12/outbox.cif.g09.slc.cpg/sg62_10_cif.got.tgz:18058.got - 2010.04.10 19:12:36.
