data_PCOD8254534
_publ_section_title
;
Structure prediction by ZEFSAII (Michael W. Deem and Ramdas Pophale) SiO2 
 PCOD8254534
Probable space group: P N M A
;
_chemical_formula_sum "Si O2"
_cell_formula_units_Z 64
_cell_length_a 14.728285
_cell_length_b 8.727300
_cell_length_c 25.714994
_cell_angle_alpha 90.000000
_cell_angle_beta 90.000000
_cell_angle_gamma 90.000000
_cell_volume 3305.358056
_symmetry_space_group_name_H-M "P N M A"
_symmetry_group_IT_number 62
_symmetry_cell_setting 'orthorhombic'
loop_
_space_group_symop_operation_xyz
x,y,z
1/2-x,-y,1/2+z
1/2+x,1/2-y,1/2-z
-x,1/2+y,-z
-x,-y,-z
1/2+x,y,1/2-z
1/2-x,1/2+y,1/2+z
x,1/2-y,z
loop_
_atom_site_type_symbol
_atom_site_label
_atom_site_fract_x
_atom_site_fract_y
_atom_site_fract_z
Si Si1 0.175939 0.570154 0.110040
Si Si2 0.352891 0.929835 0.867794
Si Si3 0.007307 0.930160 0.443865
Si Si4 0.900209 0.429696 0.002400
Si Si5 0.502503 0.929744 0.328022
Si Si6 0.333640 0.931863 0.393453
Si Si7 0.501653 0.425074 0.217753
Si Si8 0.865456 0.427489 0.371670
O O1 0.193972 0.750000 0.118444
O O2 0.261074 0.473898 0.130200
O O3 0.093613 0.507419 0.145304
O O4 0.154399 0.533185 0.050154
O O5 0.338243 0.750000 0.874712
O O6 0.409431 0.967745 0.815785
O O7 0.406523 0.991550 0.917354
O O8 0.256914 0.013701 0.864473
O O9 0.022954 0.750000 0.446287
O O10 0.914510 0.966891 0.413919
O O11 0.000000 0.000000 0.500000
O O12 0.911382 0.250000 0.010560
O O13 0.840920 0.499914 0.048804
O O14 0.000000 0.500000 0.000000
O O15 0.500382 0.750000 0.334984
O O16 0.416179 0.997398 0.358723
O O17 0.498675 0.968671 0.267670
O O18 0.334419 0.750000 0.397720
O O19 0.506295 0.250000 0.236196
O O20 0.410713 0.455950 0.184560
O O21 0.877443 0.250000 0.387514
#
# Coordination Sequence:
#
# PCOD8254534 Si02
#       8
#     8   8   8   8   8   8   8   8
#     4  10  22  40  59  86 121 157 198 245 296 355
#     4  10  22  41  61  87 121 156 197 247 299 354
#     4  11  22  38  60  86 117 156 198 243 295 354
#     4  11  22  39  61  85 121 160 198 248 303 355
#     4  10  22  40  61  86 119 156 201 250 297 352
#     4  11  23  40  60  89 123 159 204 247 295 359
#     4   9  21  41  62  85 118 154 196 249 301 354
#     4  10  22  40  60  87 120 155 197 245 296 354
#
# _framework density 19.362501000000002
#
# number of rings (size 3 to 8) (size 9 to 14) (size 15 to 20)
#    0.000    1.750    1.250    3.375    1.750    6.500 
#    0.000    5.000    0.000    0.000    0.000    0.000 
#    0.000    0.000    0.000    0.000    0.000    0.000 
#
# Total GULP energy -793863.492920 kJ/mol
# GULP energy per Si atom -12404.117077 kJ/mol
# Density = 1.931843 g / cm^3
# Si number density = 19.362501 Si / 1000 Ang^3
#
#
#
# Elastic Constant Matrix: (Units=GPa)
#
#
# Indices 1 2 3 4 5 6 
#
# 1 145.8320 29.4890 52.7737 0.0000 0.0000 0.0000
# 2 29.4890 61.0493 36.3467 0.0000 0.0000 0.0000
# 3 52.7737 36.3467 118.4303 0.0000 0.0000 0.0000
# 4 0.0000 0.0000 0.0000 34.9234 0.0000 0.0000
# 5 0.0000 0.0000 0.0000 0.0000 15.7042 0.0000
# 6 0.0000 0.0000 0.0000 0.0000 0.0000 36.9155
#
#
#
# Elastic Compliance Matrix: (Units=1/GPa)
#
#
# Indices 1 2 3 4 5 6 
#
# 1 0.008419 -0.002243 -0.003063 0.000000 0.000000 0.000000
# 2 -0.002243 0.020640 -0.005335 0.000000 0.000000 0.000000
# 3 -0.003063 -0.005335 0.011446 0.000000 0.000000 0.000000
# 4 0.000000 0.000000 0.000000 0.028634 0.000000 0.000000
# 5 0.000000 0.000000 0.000000 0.000000 0.063677 0.000000
# 6 0.000000 0.000000 0.000000 0.000000 0.000000 0.027089
#
#
# Mechanical properties :
#
#
# Convention : Reuss Voigt Hill
#
# Bulk Modulus (GPa) = 52.02167 62.50337 57.26252
# Shear Modulus (GPa) = 26.65302 31.28876 28.97089
#
# Velocity S-wave (km/s) = 3.71418 4.02424 3.87232
# Velocity P-wave (km/s) = 6.73195 7.34462 7.04495
#
# Compressibility (1/GPa) = 0.01922276
#
# Stress axis : x y z
#
# Youngs Moduli (GPa) = 118.77418 48.44987 87.36564
#
# Poissons Ratio (x) = 0.10867 0.26763
# Poissons Ratio (y) = 0.26641 0.46609
# Poissons Ratio (z) = 0.36385 0.25848
#
# Static dielectric constant tensor:
#      x y z
#    x 4.372670 0.000000 0.000000 
#    y 0.000000 3.519800 0.000000 
#    z 0.000000 0.000000 3.489550 
# 
# 
# High freq. dielectric constant tensor:
#      x y z
#    x 1.763590 0.000000 0.000000 
#    y 0.000000 1.758000 0.000000 
#    z 0.000000 0.000000 1.755890 
# 
# From -- ./inp_files/29899.got.cif
#   From: 2010.03.12/outbox.cif.g09.slc.cpg/sg62_15_cif.got.tgz:29899.got - 2010.04.10 19:12:36.
