data_PCOD8254685
_publ_section_title
;
Structure prediction by ZEFSAII (Michael W. Deem and Ramdas Pophale) SiO2 
 PCOD8254685
Probable space group: P N M A
;
_chemical_formula_sum "Si O2"
_cell_formula_units_Z 56
_cell_length_a 13.498940
_cell_length_b 28.532454
_cell_length_c 6.667375
_cell_angle_alpha 90.000000
_cell_angle_beta 90.000000
_cell_angle_gamma 90.000000
_cell_volume 2567.992051
_symmetry_space_group_name_H-M "P N M A"
_symmetry_group_IT_number 62
_symmetry_cell_setting 'orthorhombic'
loop_
_space_group_symop_operation_xyz
x,y,z
1/2-x,-y,1/2+z
1/2+x,1/2-y,1/2-z
-x,1/2+y,-z
-x,-y,-z
1/2+x,y,1/2-z
1/2-x,1/2+y,1/2+z
x,1/2-y,z
loop_
_atom_site_type_symbol
_atom_site_label
_atom_site_fract_x
_atom_site_fract_y
_atom_site_fract_z
Si Si1 0.403662 0.698726 0.279676
Si Si2 0.532264 0.848913 0.572588
Si Si3 0.476965 0.941664 0.369779
Si Si4 0.305602 0.560764 0.088335
Si Si5 0.085065 0.696137 0.516846
Si Si6 0.144272 0.008052 0.201274
Si Si7 0.790708 0.154193 0.814079
O O1 0.371417 0.750000 0.348074
O O2 0.429537 0.671633 0.485292
O O3 0.497798 0.699216 0.139437
O O4 0.314755 0.677560 0.150389
O O5 0.527737 0.904199 0.519701
O O6 0.627064 0.825066 0.464000
O O7 0.544420 0.835979 0.803277
O O8 0.403631 0.920275 0.202577
O O9 0.561858 0.968761 0.240974
O O10 0.401423 0.973837 0.493567
O O11 0.254265 0.512989 0.167531
O O12 0.221249 0.599833 0.123077
O O13 0.342109 0.550197 0.861001
O O14 0.115921 0.750000 0.577919
O O15 0.174947 0.666458 0.414727
#
# Coordination Sequence:
#
# PCOD8254685 Si02
#       7
#     8   8   8   8   8   8   8
#     4  10  22  42  65  93 131 171 217 276 340 403
#     4  11  23  41  68  98 132 174 226 276 337 409
#     4  11  24  44  63  98 133 172 226 276 339 400
#     4  12  23  44  67  95 132 173 225 273 340 402
#     4  10  24  44  66  97 135 176 219 274 343 409
#     4  11  25  42  66  96 132 177 221 277 339 408
#     4  11  24  41  67  99 132 173 225 285 330 402
#
# _framework density 21.806922
#
# number of rings (size 3 to 8) (size 9 to 14) (size 15 to 20)
#    0.000    1.143    4.286    1.286    2.000    4.000 
#    5.143    1.429    0.000    0.000    0.000    0.000 
#    0.000    0.000    0.000    0.000    0.000    0.000 
#
# Total GULP energy -693825.013870 kJ/mol
# GULP energy per Si atom -12389.732391 kJ/mol
# Density = 2.175729 g / cm^3
# Si number density = 21.806922 Si / 1000 Ang^3
#
#
#
# Elastic Constant Matrix: (Units=GPa)
#
#
# Indices 1 2 3 4 5 6 
#
# 1 86.7416 25.9583 16.6057 0.0000 0.0000 0.0000
# 2 25.9583 95.9134 24.3870 0.0000 0.0000 0.0000
# 3 16.6057 24.3870 73.6515 0.0000 0.0000 0.0000
# 4 0.0000 0.0000 0.0000 37.4697 0.0000 0.0000
# 5 0.0000 0.0000 0.0000 0.0000 30.6984 0.0000
# 6 0.0000 0.0000 0.0000 0.0000 0.0000 32.6902
#
#
#
# Elastic Compliance Matrix: (Units=1/GPa)
#
#
# Indices 1 2 3 4 5 6 
#
# 1 0.012782 -0.002977 -0.001896 0.000000 0.000000 0.000000
# 2 -0.002977 0.012078 -0.003328 0.000000 0.000000 0.000000
# 3 -0.001896 -0.003328 0.015107 0.000000 0.000000 0.000000
# 4 0.000000 0.000000 0.000000 0.026688 0.000000 0.000000
# 5 0.000000 0.000000 0.000000 0.000000 0.032575 0.000000
# 6 0.000000 0.000000 0.000000 0.000000 0.000000 0.030590
#
#
# Mechanical properties :
#
#
# Convention : Reuss Voigt Hill
#
# Bulk Modulus (GPa) = 42.43658 43.35649 42.89654
# Shear Modulus (GPa) = 32.45098 32.79536 32.62317
#
# Velocity S-wave (km/s) = 3.86178 3.88222 3.87201
# Velocity P-wave (km/s) = 6.27590 6.32619 6.30109
#
# Compressibility (1/GPa) = 0.02356457
#
# Stress axis : x y z
#
# Youngs Moduli (GPa) = 78.23199 82.79492 66.19502
#
# Poissons Ratio (x) = 0.24651 0.12551
# Poissons Ratio (y) = 0.23293 0.22029
# Poissons Ratio (z) = 0.14834 0.27553
#
# Static dielectric constant tensor:
#      x y z
#    x 4.132140 0.000000 0.000000 
#    y 0.000000 4.111050 0.000000 
#    z 0.000000 0.000000 3.687090 
# 
# 
# High freq. dielectric constant tensor:
#      x y z
#    x 1.874460 0.000000 0.000000 
#    y 0.000000 1.855960 0.000000 
#    z 0.000000 0.000000 1.832580 
# 
# From -- ./inp_files/1258.got.cif
#   From: 2010.03.12/outbox.cif.g09.slc.cpg/sg62_1_cif.got.tgz:1258.got - 2010.04.10 19:12:36.
