data_PCOD8254804
_publ_section_title
;
Structure prediction by ZEFSAII (Michael W. Deem and Ramdas Pophale) SiO2 
 PCOD8254804
Probable space group: P N M A
;
_chemical_formula_sum "Si O2"
_cell_formula_units_Z 40
_cell_length_a 24.246046
_cell_length_b 11.835618
_cell_length_c 6.622140
_cell_angle_alpha 90.000000
_cell_angle_beta 90.000000
_cell_angle_gamma 90.000000
_cell_volume 1900.335242
_symmetry_space_group_name_H-M "P N M A"
_symmetry_group_IT_number 62
_symmetry_cell_setting 'orthorhombic'
loop_
_space_group_symop_operation_xyz
x,y,z
1/2-x,-y,1/2+z
1/2+x,1/2-y,1/2-z
-x,1/2+y,-z
-x,-y,-z
1/2+x,y,1/2-z
1/2-x,1/2+y,1/2+z
x,1/2-y,z
loop_
_atom_site_type_symbol
_atom_site_label
_atom_site_fract_x
_atom_site_fract_y
_atom_site_fract_z
Si Si1 0.822342 0.949625 0.346854
Si Si2 0.881103 0.452321 0.730622
Si Si3 0.993943 0.379689 0.623255
Si Si4 0.787958 0.373576 0.025932
Si Si5 0.913967 0.626424 0.058144
O O1 0.773876 0.875404 0.440581
O O2 0.860196 0.876080 0.200676
O O3 0.860834 0.998723 0.519875
O O4 0.793453 0.047570 0.218533
O O5 0.930032 0.364563 0.685096
O O6 0.830480 0.396027 0.845806
O O7 0.908902 0.548061 0.865775
O O8 0.009040 0.250000 0.533320
O O9 0.000000 0.500000 0.500000
O O10 0.031432 0.403373 0.817427
O O11 0.799663 0.250000 0.111904
O O12 0.918596 0.750000 0.964562
#
# Coordination Sequence:
#
# PCOD8254804 Si02
#       5
#     8   8   8   8   8
#     4  11  22  43  62  93 131 165 220 268 325 392
#     4  11  23  43  65  92 132 171 221 269 328 390
#     4  11  23  43  68  99 134 174 219 274 335 399
#     4  11  24  41  63  92 129 173 215 268 327 392
#     4  10  23  41  67  97 128 169 220 271 330 393
#
# _framework density 21.048919999999999
#
# number of rings (size 3 to 8) (size 9 to 14) (size 15 to 20)
#    0.000    1.200    4.000    1.800    0.000    4.000 
#    0.000    1.000    0.000    0.000    0.000    0.000 
#    0.000    0.000    0.000    0.000    0.000    0.000 
#
# Total GULP energy -495598.447953 kJ/mol
# GULP energy per Si atom -12389.961199 kJ/mol
# Density = 2.100101 g / cm^3
# Si number density = 21.048920 Si / 1000 Ang^3
#
#
#
# Elastic Constant Matrix: (Units=GPa)
#
#
# Indices 1 2 3 4 5 6 
#
# 1 99.3678 10.9348 8.5139 0.0000 0.0000 0.0000
# 2 10.9348 111.4394 23.8579 0.0000 0.0000 0.0000
# 3 8.5139 23.8579 71.9917 0.0000 0.0000 0.0000
# 4 0.0000 0.0000 0.0000 5.6285 0.0000 0.0000
# 5 0.0000 0.0000 0.0000 0.0000 27.6382 0.0000
# 6 0.0000 0.0000 0.0000 0.0000 0.0000 22.2973
#
#
#
# Elastic Compliance Matrix: (Units=1/GPa)
#
#
# Indices 1 2 3 4 5 6 
#
# 1 0.010233 -0.000802 -0.000944 0.000000 0.000000 0.000000
# 2 -0.000802 0.009722 -0.003127 0.000000 0.000000 0.000000
# 3 -0.000944 -0.003127 0.015038 0.000000 0.000000 0.000000
# 4 0.000000 0.000000 0.000000 0.177669 0.000000 0.000000
# 5 0.000000 0.000000 0.000000 0.000000 0.036182 0.000000
# 6 0.000000 0.000000 0.000000 0.000000 0.000000 0.044849
#
#
# Mechanical properties :
#
#
# Convention : Reuss Voigt Hill
#
# Bulk Modulus (GPa) = 39.60951 41.04576 40.32764
# Shear Modulus (GPa) = 16.03316 27.07894 21.55605
#
# Velocity S-wave (km/s) = 2.76290 3.59064 3.20362
# Velocity P-wave (km/s) = 5.38859 6.06076 5.73453
#
# Compressibility (1/GPa) = 0.02524646
#
# Stress axis : x y z
#
# Youngs Moduli (GPa) = 97.72517 102.86372 66.49632
#
# Poissons Ratio (x) = 0.08248 0.06280
# Poissons Ratio (y) = 0.07836 0.20793
# Poissons Ratio (z) = 0.09229 0.32164
#
# Static dielectric constant tensor:
#      x y z
#    x 4.585970 0.000000 0.000000 
#    y 0.000000 3.990150 0.000000 
#    z 0.000000 0.000000 3.669010 
# 
# 
# High freq. dielectric constant tensor:
#      x y z
#    x 1.848310 0.000000 0.000000 
#    y 0.000000 1.830950 0.000000 
#    z 0.000000 0.000000 1.814990 
# 
# From -- ./inp_files/3026.got.cif
#   From: 2010.03.12/outbox.cif.g09.slc.cpg/sg62_2_cif.got.tgz:3026.got - 2010.04.10 19:12:36.
