data_PCOD8254578
_publ_section_title
;
Structure prediction by ZEFSAII (Michael W. Deem and Ramdas Pophale) SiO2 
 PCOD8254578
Probable space group: P N M A
;
_chemical_formula_sum "Si O2"
_cell_formula_units_Z 48
_cell_length_a 9.777526
_cell_length_b 16.861549
_cell_length_c 14.666865
_cell_angle_alpha 90.000000
_cell_angle_beta 90.000000
_cell_angle_gamma 90.000000
_cell_volume 2418.041460
_symmetry_space_group_name_H-M "P N M A"
_symmetry_group_IT_number 62
_symmetry_cell_setting 'orthorhombic'
loop_
_space_group_symop_operation_xyz
x,y,z
1/2-x,-y,1/2+z
1/2+x,1/2-y,1/2-z
-x,1/2+y,-z
-x,-y,-z
1/2+x,y,1/2-z
1/2-x,1/2+y,1/2+z
x,1/2-y,z
loop_
_atom_site_type_symbol
_atom_site_label
_atom_site_fract_x
_atom_site_fract_y
_atom_site_fract_z
Si Si1 0.279515 0.342203 0.371685
Si Si2 0.934899 0.842521 0.161329
Si Si3 0.571853 0.157233 0.452732
Si Si4 0.679843 0.573170 0.236670
Si Si5 0.213803 0.582017 0.677982
Si Si6 0.558690 0.038584 0.090390
O O1 0.247722 0.250000 0.389256
O O2 0.430477 0.365574 0.404036
O O3 0.264411 0.361426 0.264824
O O4 0.173298 0.394662 0.430595
O O5 0.963106 0.750000 0.168285
O O6 0.792116 0.861783 0.209945
O O7 0.058004 0.886343 0.210007
O O8 0.932067 0.871228 0.056927
O O9 0.602057 0.250000 0.445561
O O10 0.693961 0.111287 0.404710
O O11 0.748776 0.508336 0.301337
O O12 0.623852 0.533447 0.145481
O O13 0.056427 0.584323 0.648254
O O14 0.500000 0.000000 0.000000
#
# Coordination Sequence:
#
# PCOD8254578 Si02
#       6
#     8   8   8   8   8   8
#     4  10  22  40  64  92 126 167 212 262 319 378
#     4  11  24  43  65  89 123 164 215 265 314 377
#     4  10  23  40  63  96 125 165 212 258 316 373
#     4  11  23  42  62  92 121 164 212 254 320 372
#     4  11  22  39  62  92 127 164 205 258 316 381
#     4  11  24  40  60  95 129 167 209 257 318 379
#
# _framework density 19.850777000000001
#
# number of rings (size 3 to 8) (size 9 to 14) (size 15 to 20)
#    0.000    1.333    1.667    4.000    4.667    3.333 
#    0.000    1.667    0.000    0.000    0.000    0.000 
#    0.000    0.000    0.000    0.000    0.000    0.000 
#
# Total GULP energy -595483.238102 kJ/mol
# GULP energy per Si atom -12405.900794 kJ/mol
# Density = 1.980560 g / cm^3
# Si number density = 19.850777 Si / 1000 Ang^3
#
#
#
# Elastic Constant Matrix: (Units=GPa)
#
#
# Indices 1 2 3 4 5 6 
#
# 1 87.0707 22.0606 16.5211 0.0000 0.0000 0.0000
# 2 22.0606 64.1826 19.1708 0.0000 0.0000 0.0000
# 3 16.5211 19.1708 63.5873 0.0000 0.0000 0.0000
# 4 0.0000 0.0000 0.0000 20.2894 0.0000 0.0000
# 5 0.0000 0.0000 0.0000 0.0000 29.0037 0.0000
# 6 0.0000 0.0000 0.0000 0.0000 0.0000 42.5659
#
#
#
# Elastic Compliance Matrix: (Units=1/GPa)
#
#
# Indices 1 2 3 4 5 6 
#
# 1 0.012856 -0.003760 -0.002207 0.000000 0.000000 0.000000
# 2 -0.003760 0.018222 -0.004517 0.000000 0.000000 0.000000
# 3 -0.002207 -0.004517 0.017662 0.000000 0.000000 0.000000
# 4 0.000000 0.000000 0.000000 0.049287 0.000000 0.000000
# 5 0.000000 0.000000 0.000000 0.000000 0.034478 0.000000
# 6 0.000000 0.000000 0.000000 0.000000 0.000000 0.023493
#
#
# Mechanical properties :
#
#
# Convention : Reuss Voigt Hill
#
# Bulk Modulus (GPa) = 36.00615 36.70506 36.35560
# Shear Modulus (GPa) = 26.84961 28.84432 27.84696
#
# Velocity S-wave (km/s) = 3.68172 3.81603 3.74948
# Velocity P-wave (km/s) = 6.02090 6.16010 6.09090
#
# Compressibility (1/GPa) = 0.02777303
#
# Stress axis : x y z
#
# Youngs Moduli (GPa) = 77.78339 54.87877 56.62017
#
# Poissons Ratio (x) = 0.20633 0.12495
# Poissons Ratio (y) = 0.29245 0.25575
# Poissons Ratio (z) = 0.17165 0.24788
#
# Static dielectric constant tensor:
#      x y z
#    x 3.893450 0.000000 0.000000 
#    y 0.000000 3.655550 0.000000 
#    z 0.000000 0.000000 3.628430 
# 
# 
# High freq. dielectric constant tensor:
#      x y z
#    x 1.792490 0.000000 0.000000 
#    y 0.000000 1.777850 0.000000 
#    z 0.000000 0.000000 1.777520 
# 
# From -- ./inp_files/16944.got.cif
#   From: 2010.03.12/outbox.cif.g09.slc.cpg/sg62_9_cif.got.tgz:16944.got - 2010.04.10 19:12:36.
