data_PCOD8254254
_publ_section_title
;
Structure prediction by ZEFSAII (Michael W. Deem and Ramdas Pophale) SiO2 
 PCOD8254254
Probable space group: P N M A
;
_chemical_formula_sum "Si O2"
_cell_formula_units_Z 64
_cell_length_a 15.888215
_cell_length_b 18.148198
_cell_length_c 10.827598
_cell_angle_alpha 90.000000
_cell_angle_beta 90.000000
_cell_angle_gamma 90.000000
_cell_volume 3122.056370
_symmetry_space_group_name_H-M "P N M A"
_symmetry_group_IT_number 62
_symmetry_cell_setting 'orthorhombic'
loop_
_space_group_symop_operation_xyz
x,y,z
1/2-x,-y,1/2+z
1/2+x,1/2-y,1/2-z
-x,1/2+y,-z
-x,-y,-z
1/2+x,y,1/2-z
1/2-x,1/2+y,1/2+z
x,1/2-y,z
loop_
_atom_site_type_symbol
_atom_site_label
_atom_site_fract_x
_atom_site_fract_y
_atom_site_fract_z
Si Si1 0.933604 0.088758 0.036950
Si Si2 0.305982 0.665940 0.239116
Si Si3 0.841054 0.067069 0.783067
Si Si4 0.767945 0.051011 0.404146
Si Si5 0.390978 0.925480 0.434653
Si Si6 0.655884 0.167338 0.048575
Si Si7 0.681061 0.667042 0.713566
Si Si8 0.586529 0.484217 0.065857
O O1 0.888632 0.093357 0.904770
O O2 0.032525 0.104407 0.019026
O O3 0.900939 0.149939 0.131305
O O4 0.913161 0.009797 0.099346
O O5 0.309502 0.750000 0.283390
O O6 0.212341 0.635381 0.271853
O O7 0.379845 0.621378 0.309735
O O8 0.322101 0.657522 0.094424
O O9 0.910145 0.033910 0.689430
O O10 0.771855 0.003856 0.804695
O O11 0.694881 0.083868 0.489702
O O12 0.815016 0.116937 0.334812
O O13 0.833789 0.005087 0.483437
O O14 0.619243 0.250000 0.072553
O O15 0.590388 0.104110 0.091789
O O16 0.739388 0.154073 0.126628
O O17 0.674463 0.750000 0.761573
O O18 0.500000 0.500000 0.000000
#
# Coordination Sequence:
#
# PCOD8254254 Si02
#       8
#     8   8   8   8   8   8   8   8
#     4  10  22  38  65  94 121 155 211 266 314 366
#     4  11  21  36  62  88 121 166 208 258 313 366
#     4  11  21  39  63  91 119 160 214 262 310 376
#     4  11  22  40  64  88 123 164 214 255 304 387
#     4  10  22  39  63  92 123 158 204 268 311 371
#     4  10  21  40  63  93 126 166 212 255 317 384
#     4  11  22  40  65  90 126 170 209 258 318 377
#     4  12  25  40  67  96 127 168 211 266 319 372
#
# _framework density 20.499309
#
# number of rings (size 3 to 8) (size 9 to 14) (size 15 to 20)
#    0.000    1.250    5.000    1.500    1.750    3.000 
#    0.000    1.250    0.000    0.000    0.000    0.000 
#    0.000    0.000    0.000    0.000    0.000    0.000 
#
# Total GULP energy -793719.460412 kJ/mol
# GULP energy per Si atom -12401.866569 kJ/mol
# Density = 2.045265 g / cm^3
# Si number density = 20.499309 Si / 1000 Ang^3
#
#
#
# Elastic Constant Matrix: (Units=GPa)
#
#
# Indices 1 2 3 4 5 6 
#
# 1 74.9249 20.4876 -2.0024 0.0000 0.0000 0.0000
# 2 20.4876 90.9766 22.4061 0.0000 0.0000 0.0000
# 3 -2.0024 22.4061 50.6358 0.0000 0.0000 0.0000
# 4 0.0000 0.0000 0.0000 27.6931 0.0000 0.0000
# 5 0.0000 0.0000 0.0000 0.0000 11.6188 0.0000
# 6 0.0000 0.0000 0.0000 0.0000 0.0000 21.0910
#
#
#
# Elastic Compliance Matrix: (Units=1/GPa)
#
#
# Indices 1 2 3 4 5 6 
#
# 1 0.014449 -0.003810 0.002257 0.000000 0.000000 0.000000
# 2 -0.003810 0.013341 -0.006054 0.000000 0.000000 0.000000
# 3 0.002257 -0.006054 0.022517 0.000000 0.000000 0.000000
# 4 0.000000 0.000000 0.000000 0.036110 0.000000 0.000000
# 5 0.000000 0.000000 0.000000 0.000000 0.086067 0.000000
# 6 0.000000 0.000000 0.000000 0.000000 0.000000 0.047414
#
#
# Mechanical properties :
#
#
# Convention : Reuss Voigt Hill
#
# Bulk Modulus (GPa) = 28.49521 33.14663 30.82092
# Shear Modulus (GPa) = 20.25865 23.79032 22.02448
#
# Velocity S-wave (km/s) = 3.14707 3.41037 3.28136
# Velocity P-wave (km/s) = 5.20924 5.63136 5.42441
#
# Compressibility (1/GPa) = 0.03509362
#
# Stress axis : x y z
#
# Youngs Moduli (GPa) = 69.21008 74.95836 44.41102
#
# Poissons Ratio (x) = 0.28557 -0.10024
# Poissons Ratio (y) = 0.26367 0.26886
# Poissons Ratio (z) = -0.15622 0.45379
#
# Static dielectric constant tensor:
#      x y z
#    x 3.687310 0.000000 0.000000 
#    y 0.000000 3.881910 0.000000 
#    z 0.000000 0.000000 3.697830 
# 
# 
# High freq. dielectric constant tensor:
#      x y z
#    x 1.790230 0.000000 0.000000 
#    y 0.000000 1.798810 0.000000 
#    z 0.000000 0.000000 1.800660 
# 
# From -- ./inp_files/13590.got.cif
#   From: 2010.03.12/outbox.cif.g09.slc.cpg/sg62_7_cif.got.tgz:13590.got - 2010.04.10 19:12:36.
