data_PCOD8254204
_publ_section_title
;
Structure prediction by ZEFSAII (Michael W. Deem and Ramdas Pophale) SiO2 
 PCOD8254204
Probable space group: P N M A
;
_chemical_formula_sum "Si O2"
_cell_formula_units_Z 48
_cell_length_a 13.930048
_cell_length_b 16.645308
_cell_length_c 9.725759
_cell_angle_alpha 90.000000
_cell_angle_beta 90.000000
_cell_angle_gamma 90.000000
_cell_volume 2255.111150
_symmetry_space_group_name_H-M "P N M A"
_symmetry_group_IT_number 62
_symmetry_cell_setting 'orthorhombic'
loop_
_space_group_symop_operation_xyz
x,y,z
1/2-x,-y,1/2+z
1/2+x,1/2-y,1/2-z
-x,1/2+y,-z
-x,-y,-z
1/2+x,y,1/2-z
1/2-x,1/2+y,1/2+z
x,1/2-y,z
loop_
_atom_site_type_symbol
_atom_site_label
_atom_site_fract_x
_atom_site_fract_y
_atom_site_fract_z
Si Si1 0.286664 0.345612 0.544221
Si Si2 0.937832 0.407031 0.405872
Si Si3 0.057521 0.341867 0.171100
Si Si4 0.516689 0.582682 0.417992
Si Si5 0.583366 0.087874 0.872352
Si Si6 0.763805 0.342307 0.264818
O O1 0.304117 0.250000 0.558389
O O2 0.371724 0.396791 0.618106
O O3 0.184303 0.366076 0.613950
O O4 0.289586 0.377026 0.385711
O O5 0.904248 0.498099 0.431374
O O6 0.842331 0.355295 0.382924
O O7 0.998266 0.402127 0.266290
O O8 0.000568 0.371467 0.532231
O O9 0.047104 0.250000 0.223273
O O10 0.164607 0.377842 0.178492
O O11 0.019398 0.345524 0.016144
O O12 0.500000 0.500000 0.500000
O O13 0.451111 0.586841 0.283650
O O14 0.746482 0.250000 0.240067
#
# Coordination Sequence:
#
# PCOD8254204 Si02
#       6
#     8   8   8   8   8   8
#     4  11  24  43  68  97 137 182 222 277 350 412
#     4  11  22  42  67  96 130 173 226 275 336 408
#     4  11  22  40  67  97 130 173 226 273 333 416
#     4  12  25  45  68 101 137 181 227 287 351 414
#     4  11  26  42  66 101 136 175 223 290 349 409
#     4  10  21  39  68  98 128 175 225 273 328 405
#
# _framework density 21.284981999999999
#
# number of rings (size 3 to 8) (size 9 to 14) (size 15 to 20)
#    0.000    1.000    5.000    1.000    2.333    3.333 
#    3.000    1.667    0.000    0.000    0.000    0.000 
#    0.000    0.000    0.000    0.000    0.000    0.000 
#
# Total GULP energy -595066.651629 kJ/mol
# GULP energy per Si atom -12397.221909 kJ/mol
# Density = 2.123654 g / cm^3
# Si number density = 21.284982 Si / 1000 Ang^3
#
#
#
# Elastic Constant Matrix: (Units=GPa)
#
#
# Indices 1 2 3 4 5 6 
#
# 1 141.2029 41.9840 21.7176 0.0000 0.0000 0.0000
# 2 41.9840 65.6966 23.2058 0.0000 0.0000 0.0000
# 3 21.7176 23.2058 87.2581 0.0000 0.0000 0.0000
# 4 0.0000 0.0000 0.0000 24.9755 0.0000 0.0000
# 5 0.0000 0.0000 0.0000 0.0000 38.3458 0.0000
# 6 0.0000 0.0000 0.0000 0.0000 0.0000 34.0941
#
#
#
# Elastic Compliance Matrix: (Units=1/GPa)
#
#
# Indices 1 2 3 4 5 6 
#
# 1 0.008789 -0.005347 -0.000766 0.000000 0.000000 0.000000
# 2 -0.005347 0.020052 -0.004002 0.000000 0.000000 0.000000
# 3 -0.000766 -0.004002 0.012715 0.000000 0.000000 0.000000
# 4 0.000000 0.000000 0.000000 0.040039 0.000000 0.000000
# 5 0.000000 0.000000 0.000000 0.000000 0.026078 0.000000
# 6 0.000000 0.000000 0.000000 0.000000 0.000000 0.029331
#
#
# Mechanical properties :
#
#
# Convention : Reuss Voigt Hill
#
# Bulk Modulus (GPa) = 46.88672 51.99693 49.44182
# Shear Modulus (GPa) = 30.42428 33.29977 31.86203
#
# Velocity S-wave (km/s) = 3.78481 3.95963 3.87321
# Velocity P-wave (km/s) = 6.41682 6.73698 6.57885
#
# Compressibility (1/GPa) = 0.02132800
#
# Stress axis : x y z
#
# Youngs Moduli (GPa) = 113.77263 49.87076 78.64647
#
# Poissons Ratio (x) = 0.26663 0.06022
# Poissons Ratio (y) = 0.60829 0.31474
# Poissons Ratio (z) = 0.08712 0.19958
#
# Static dielectric constant tensor:
#      x y z
#    x 4.204620 0.000000 0.000000 
#    y 0.000000 3.696800 0.000000 
#    z 0.000000 0.000000 3.880710 
# 
# 
# High freq. dielectric constant tensor:
#      x y z
#    x 1.853030 0.000000 0.000000 
#    y 0.000000 1.824060 0.000000 
#    z 0.000000 0.000000 1.822860 
# 
# From -- ./inp_files/6438.got.cif
#   From: 2010.03.12/outbox.cif.g09.slc.cpg/sg62_4_cif.got.tgz:6438.got - 2010.04.10 19:12:36.
