data_PCOD8254486
_publ_section_title
;
Structure prediction by ZEFSAII (Michael W. Deem and Ramdas Pophale) SiO2 
 PCOD8254486
Probable space group: P N M A
;
_chemical_formula_sum "Si O2"
_cell_formula_units_Z 48
_cell_length_a 29.090007
_cell_length_b 8.988922
_cell_length_c 9.317393
_cell_angle_alpha 90.000000
_cell_angle_beta 90.000000
_cell_angle_gamma 90.000000
_cell_volume 2436.384634
_symmetry_space_group_name_H-M "P N M A"
_symmetry_group_IT_number 62
_symmetry_cell_setting 'orthorhombic'
loop_
_space_group_symop_operation_xyz
x,y,z
1/2-x,-y,1/2+z
1/2+x,1/2-y,1/2-z
-x,1/2+y,-z
-x,-y,-z
1/2+x,y,1/2-z
1/2-x,1/2+y,1/2+z
x,1/2-y,z
loop_
_atom_site_type_symbol
_atom_site_label
_atom_site_fract_x
_atom_site_fract_y
_atom_site_fract_z
Si Si1 0.629801 0.573054 0.040278
Si Si2 0.522656 0.914921 0.627607
Si Si3 0.703966 0.922635 0.523327
Si Si4 0.536487 0.416998 0.096042
Si Si5 0.879075 0.426557 0.218473
Si Si6 0.208949 0.077235 0.279140
O O1 0.628403 0.750000 0.050320
O O2 0.582960 0.509778 0.104596
O O3 0.670904 0.514071 0.136427
O O4 0.635863 0.516014 0.876298
O O5 0.535140 0.750000 0.574041
O O6 0.484020 0.909498 0.746935
O O7 0.570281 0.991093 0.681349
O O8 0.500000 0.000000 0.500000
O O9 0.700616 0.750000 0.478678
O O10 0.656850 0.979382 0.597531
O O11 0.743116 0.948248 0.641152
O O12 0.713914 0.019338 0.383012
O O13 0.545470 0.250000 0.037234
O O14 0.500000 0.500000 0.000000
O O15 0.880633 0.250000 0.226930
O O16 0.195179 0.250000 0.275245
#
# Coordination Sequence:
#
# PCOD8254486 Si02
#       6
#     8   8   8   8   8   8
#     4  11  22  40  65  89 120 164 206 250 306 363
#     4  10  22  39  58  85 122 159 202 249 297 355
#     4  10  22  41  65  89 120 160 200 243 301 366
#     4  11  22  39  61  90 124 160 205 255 303 360
#     4   9  19  39  62  86 116 158 205 247 296 359
#     4  11  24  41  62  94 127 155 198 254 301 360
#
# _framework density 19.701321
#
# number of rings (size 3 to 8) (size 9 to 14) (size 15 to 20)
#    0.000    1.667    1.667    2.500    2.333    4.000 
#    0.000    1.667    0.000    0.000    0.000    0.000 
#    0.000    0.000    0.000    0.000    0.000    0.000 
#
# Total GULP energy -595243.878220 kJ/mol
# GULP energy per Si atom -12400.914130 kJ/mol
# Density = 1.965648 g / cm^3
# Si number density = 19.701321 Si / 1000 Ang^3
#
#
#
# Elastic Constant Matrix: (Units=GPa)
#
#
# Indices 1 2 3 4 5 6 
#
# 1 107.5997 40.5181 46.6327 0.0000 0.0000 0.0000
# 2 40.5181 96.2153 51.3877 0.0000 0.0000 0.0000
# 3 46.6327 51.3877 124.9977 0.0000 0.0000 0.0000
# 4 0.0000 0.0000 0.0000 34.5395 0.0000 0.0000
# 5 0.0000 0.0000 0.0000 0.0000 40.1149 0.0000
# 6 0.0000 0.0000 0.0000 0.0000 0.0000 32.5734
#
#
#
# Elastic Compliance Matrix: (Units=1/GPa)
#
#
# Indices 1 2 3 4 5 6 
#
# 1 0.011886 -0.003379 -0.003045 0.000000 0.000000 0.000000
# 2 -0.003379 0.014278 -0.004609 0.000000 0.000000 0.000000
# 3 -0.003045 -0.004609 0.011031 0.000000 0.000000 0.000000
# 4 0.000000 0.000000 0.000000 0.028952 0.000000 0.000000
# 5 0.000000 0.000000 0.000000 0.000000 0.024928 0.000000
# 6 0.000000 0.000000 0.000000 0.000000 0.000000 0.030700
#
#
# Mechanical properties :
#
#
# Convention : Reuss Voigt Hill
#
# Bulk Modulus (GPa) = 66.10126 67.32109 66.71118
# Shear Modulus (GPa) = 33.58297 34.13053 33.85675
#
# Velocity S-wave (km/s) = 4.13317 4.16672 4.14998
# Velocity P-wave (km/s) = 7.51012 7.57587 7.54307
#
# Compressibility (1/GPa) = 0.01512830
#
# Stress axis : x y z
#
# Youngs Moduli (GPa) = 84.13384 70.03747 90.65303
#
# Poissons Ratio (x) = 0.23666 0.27605
# Poissons Ratio (y) = 0.28429 0.41784
# Poissons Ratio (z) = 0.25620 0.32282
#
# Static dielectric constant tensor:
#      x y z
#    x 3.548680 0.000000 0.000000 
#    y 0.000000 3.629170 0.000000 
#    z 0.000000 0.000000 4.351940 
# 
# 
# High freq. dielectric constant tensor:
#      x y z
#    x 1.783390 0.000000 0.000000 
#    y 0.000000 1.756560 0.000000 
#    z 0.000000 0.000000 1.776500 
# 
# From -- ./inp_files/10140.got.cif
#   From: 2010.03.12/outbox.cif.g09.slc.cpg/sg62_6_cif.got.tgz:10140.got - 2010.04.10 19:12:36.
