data_PCOD8254297
_publ_section_title
;
Structure prediction by ZEFSAII (Michael W. Deem and Ramdas Pophale) SiO2 
 PCOD8254297
Probable space group: P N M A
;
_chemical_formula_sum "Si O2"
_cell_formula_units_Z 40
_cell_length_a 12.473101
_cell_length_b 18.860912
_cell_length_c 7.711817
_cell_angle_alpha 90.000000
_cell_angle_beta 90.000000
_cell_angle_gamma 90.000000
_cell_volume 1814.236262
_symmetry_space_group_name_H-M "P N M A"
_symmetry_group_IT_number 62
_symmetry_cell_setting 'orthorhombic'
loop_
_space_group_symop_operation_xyz
x,y,z
1/2-x,-y,1/2+z
1/2+x,1/2-y,1/2-z
-x,1/2+y,-z
-x,-y,-z
1/2+x,y,1/2-z
1/2-x,1/2+y,1/2+z
x,1/2-y,z
loop_
_atom_site_type_symbol
_atom_site_label
_atom_site_fract_x
_atom_site_fract_y
_atom_site_fract_z
Si Si1 0.046998 0.168944 0.539045
Si Si2 0.537670 0.328998 0.569576
Si Si3 0.615492 0.469050 0.450661
Si Si4 0.711471 0.069924 0.117094
Si Si5 0.381800 0.330284 0.255665
O O1 0.082891 0.250000 0.501278
O O2 0.998285 0.161648 0.731875
O O3 0.150366 0.117960 0.524451
O O4 0.960237 0.144474 0.397663
O O5 0.587740 0.250000 0.543026
O O6 0.625234 0.388694 0.524053
O O7 0.436173 0.339114 0.444226
O O8 0.500000 0.500000 0.500000
O O9 0.713570 0.513520 0.524739
O O10 0.625816 0.469269 0.241773
O O11 0.779073 0.119766 0.246941
O O12 0.344937 0.250000 0.223189
#
# Coordination Sequence:
#
# PCOD8254297 Si02
#       5
#     8   8   8   8   8
#     4  10  21  40  66  97 131 173 224 278 334 396
#     4  10  21  42  66  89 128 169 212 277 331 385
#     4  12  25  43  65  98 137 176 225 278 334 399
#     4  12  23  41  65  95 134 183 221 276 335 405
#     4  10  21  41  67  96 129 170 222 277 333 395
#
# _framework density 22.047847000000001
#
# number of rings (size 3 to 8) (size 9 to 14) (size 15 to 20)
#    0.000    1.200    4.000    1.800    0.000    2.400 
#    3.600    4.000    0.000    0.000    0.000    0.000 
#    0.000    0.000    0.000    0.000    0.000    0.000 
#
# Total GULP energy -496001.577795 kJ/mol
# GULP energy per Si atom -12400.039445 kJ/mol
# Density = 2.199766 g / cm^3
# Si number density = 22.047847 Si / 1000 Ang^3
#
#
#
# Elastic Constant Matrix: (Units=GPa)
#
#
# Indices 1 2 3 4 5 6 
#
# 1 52.4943 18.4616 30.8741 0.0000 0.0000 0.0000
# 2 18.4616 88.9256 20.3555 0.0000 0.0000 0.0000
# 3 30.8741 20.3555 132.6777 0.0000 0.0000 0.0000
# 4 0.0000 0.0000 0.0000 29.8713 0.0000 0.0000
# 5 0.0000 0.0000 0.0000 0.0000 30.5569 0.0000
# 6 0.0000 0.0000 0.0000 0.0000 0.0000 26.6219
#
#
#
# Elastic Compliance Matrix: (Units=1/GPa)
#
#
# Indices 1 2 3 4 5 6 
#
# 1 0.023194 -0.003710 -0.004828 0.000000 0.000000 0.000000
# 2 -0.003710 0.012248 -0.001016 0.000000 0.000000 0.000000
# 3 -0.004828 -0.001016 0.008816 0.000000 0.000000 0.000000
# 4 0.000000 0.000000 0.000000 0.033477 0.000000 0.000000
# 5 0.000000 0.000000 0.000000 0.000000 0.032726 0.000000
# 6 0.000000 0.000000 0.000000 0.000000 0.000000 0.037563
#
#
# Mechanical properties :
#
#
# Convention : Reuss Voigt Hill
#
# Bulk Modulus (GPa) = 39.76031 45.94224 42.85127
# Shear Modulus (GPa) = 28.48746 31.03711 29.76228
#
# Velocity S-wave (km/s) = 3.59844 3.75602 3.67808
# Velocity P-wave (km/s) = 5.94457 6.30024 6.12499
#
# Compressibility (1/GPa) = 0.02515071
#
# Stress axis : x y z
#
# Youngs Moduli (GPa) = 43.11449 81.64521 113.42511
#
# Poissons Ratio (x) = 0.30291 0.54762
# Poissons Ratio (y) = 0.15996 0.11521
# Poissons Ratio (z) = 0.20816 0.08293
#
# Static dielectric constant tensor:
#      x y z
#    x 3.626690 0.000000 0.000000 
#    y 0.000000 4.401390 0.000000 
#    z 0.000000 0.000000 4.003860 
# 
# 
# High freq. dielectric constant tensor:
#      x y z
#    x 1.839710 0.000000 0.000000 
#    y 0.000000 1.886160 0.000000 
#    z 0.000000 0.000000 1.874740 
# 
# From -- ./inp_files/5188.got.cif
#   From: 2010.03.12/outbox.cif.g09.slc.cpg/sg62_3_cif.got.tgz:5188.got - 2010.04.10 19:12:36.
