data_PCOD8254708
_publ_section_title
;
Structure prediction by ZEFSAII (Michael W. Deem and Ramdas Pophale) SiO2 
 PCOD8254708
Probable space group: P N M A
;
_chemical_formula_sum "Si O2"
_cell_formula_units_Z 48
_cell_length_a 9.463528
_cell_length_b 16.459510
_cell_length_c 14.406226
_cell_angle_alpha 90.000000
_cell_angle_beta 90.000000
_cell_angle_gamma 90.000000
_cell_volume 2243.986279
_symmetry_space_group_name_H-M "P N M A"
_symmetry_group_IT_number 62
_symmetry_cell_setting 'orthorhombic'
loop_
_space_group_symop_operation_xyz
x,y,z
1/2-x,-y,1/2+z
1/2+x,1/2-y,1/2-z
-x,1/2+y,-z
-x,-y,-z
1/2+x,y,1/2-z
1/2-x,1/2+y,1/2+z
x,1/2-y,z
loop_
_atom_site_type_symbol
_atom_site_label
_atom_site_fract_x
_atom_site_fract_y
_atom_site_fract_z
Si Si1 0.309572 0.250000 0.865712
Si Si2 0.169279 0.418534 0.634004
Si Si3 0.659059 0.975049 0.518299
Si Si4 0.504448 0.344035 0.174194
Si Si5 0.594911 0.599550 0.020201
Si Si6 0.908304 0.750000 0.277191
Si Si7 0.274607 0.435055 0.272913
O O1 0.330082 0.171587 0.926542
O O2 0.421514 0.250000 0.779661
O O3 0.149559 0.250000 0.827601
O O4 0.295268 0.407950 0.557985
O O5 0.151631 0.329156 0.672866
O O6 0.211529 0.481146 0.715619
O O7 0.020155 0.447193 0.585524
O O8 0.668657 0.946830 0.623386
O O9 0.500000 0.000000 0.500000
O O10 0.774012 0.043940 0.491281
O O11 0.547442 0.250000 0.186426
O O12 0.357394 0.361308 0.225142
O O13 0.614228 0.404940 0.223225
O O14 0.491556 0.364630 0.065955
#
# Coordination Sequence:
#
# PCOD8254708 Si02
#       7
#     4   8   8   8   8   4   8
#     4  10  22  42  72  99 133 181 223 286 352 407
#     4  11  23  45  70  99 136 182 230 282 352 419
#     4  12  25  42  66 103 137 176 234 287 347 409
#     4  12  25  46  72 102 137 184 239 287 352 423
#     4  11  22  44  72  97 136 188 229 278 354 429
#     4  10  24  40  68 103 135 169 231 280 342 413
#     4  12  25  42  71 102 140 183 233 291 346 421
#
# _framework density 21.390505000000001
#
# number of rings (size 3 to 8) (size 9 to 14) (size 15 to 20)
#    0.000    0.667    4.167    4.000    0.000    5.333 
#    1.500    0.000    0.000    0.000    0.000    0.000 
#    0.000    0.000    0.000    0.000    0.000    0.000 
#
# Total GULP energy -595162.504657 kJ/mol
# GULP energy per Si atom -12399.218847 kJ/mol
# Density = 2.134182 g / cm^3
# Si number density = 21.390505 Si / 1000 Ang^3
#
#
#
# Elastic Constant Matrix: (Units=GPa)
#
#
# Indices 1 2 3 4 5 6 
#
# 1 91.0744 34.6650 16.4186 0.0000 0.0000 0.0000
# 2 34.6650 94.8526 24.3378 0.0000 0.0000 0.0000
# 3 16.4186 24.3378 102.7938 0.0000 0.0000 0.0000
# 4 0.0000 0.0000 0.0000 29.6828 0.0000 0.0000
# 5 0.0000 0.0000 0.0000 0.0000 43.9545 0.0000
# 6 0.0000 0.0000 0.0000 0.0000 0.0000 25.8785
#
#
#
# Elastic Compliance Matrix: (Units=1/GPa)
#
#
# Indices 1 2 3 4 5 6 
#
# 1 0.012850 -0.004439 -0.001001 0.000000 0.000000 0.000000
# 2 -0.004439 0.012758 -0.002312 0.000000 0.000000 0.000000
# 3 -0.001001 -0.002312 0.010435 0.000000 0.000000 0.000000
# 4 0.000000 0.000000 0.000000 0.033690 0.000000 0.000000
# 5 0.000000 0.000000 0.000000 0.000000 0.022751 0.000000
# 6 0.000000 0.000000 0.000000 0.000000 0.000000 0.038642
#
#
# Mechanical properties :
#
#
# Convention : Reuss Voigt Hill
#
# Bulk Modulus (GPa) = 48.68734 48.84040 48.76387
# Shear Modulus (GPa) = 32.57805 34.12312 33.35059
#
# Velocity S-wave (km/s) = 3.90682 3.99839 3.95287
# Velocity P-wave (km/s) = 6.56975 6.64819 6.60908
#
# Compressibility (1/GPa) = 0.02053922
#
# Stress axis : x y z
#
# Youngs Moduli (GPa) = 77.81929 78.38092 95.82707
#
# Poissons Ratio (x) = 0.34796 0.09596
# Poissons Ratio (y) = 0.34547 0.22151
# Poissons Ratio (z) = 0.07793 0.18119
#
# Static dielectric constant tensor:
#      x y z
#    x 4.029750 0.000000 0.000000 
#    y 0.000000 2.970440 0.000000 
#    z 0.000000 0.000000 4.104110 
# 
# 
# High freq. dielectric constant tensor:
#      x y z
#    x 1.843570 0.000000 0.000000 
#    y 0.000000 1.842550 0.000000 
#    z 0.000000 0.000000 1.852910 
# 
# From -- ./inp_files/17005.got.cif
#   From: 2010.03.12/outbox.cif.g09.slc.cpg/sg62_9_cif.got.tgz:17005.got - 2010.04.10 19:12:36.
