data_PCOD8254846
_publ_section_title
;
Structure prediction by ZEFSAII (Michael W. Deem and Ramdas Pophale) SiO2 
 PCOD8254846
Probable space group: P N M A
;
_chemical_formula_sum "Si O2"
_cell_formula_units_Z 36
_cell_length_a 9.363244
_cell_length_b 18.163149
_cell_length_c 9.434374
_cell_angle_alpha 90.000000
_cell_angle_beta 90.000000
_cell_angle_gamma 90.000000
_cell_volume 1604.466210
_symmetry_space_group_name_H-M "P N M A"
_symmetry_group_IT_number 62
_symmetry_cell_setting 'orthorhombic'
loop_
_space_group_symop_operation_xyz
x,y,z
1/2-x,-y,1/2+z
1/2+x,1/2-y,1/2-z
-x,1/2+y,-z
-x,-y,-z
1/2+x,y,1/2-z
1/2-x,1/2+y,1/2+z
x,1/2-y,z
loop_
_atom_site_type_symbol
_atom_site_label
_atom_site_fract_x
_atom_site_fract_y
_atom_site_fract_z
Si Si1 0.148268 0.250000 0.908596
Si Si2 0.815273 0.868997 0.540217
Si Si3 0.045834 0.750000 0.541381
Si Si4 0.912595 0.490063 0.643849
Si Si5 0.345158 0.904325 0.268509
Si Si6 0.095229 0.750000 0.871098
O O1 0.110107 0.177877 0.816410
O O2 0.314341 0.250000 0.945868
O O3 0.057634 0.250000 0.052867
O O4 0.777488 0.905830 0.389468
O O5 0.680945 0.822372 0.587789
O O6 0.956802 0.822511 0.505306
O O7 0.848347 0.927613 0.667343
O O8 0.076025 0.750000 0.706049
O O9 0.776337 0.435780 0.626484
O O10 0.000000 0.500000 0.500000
O O11 0.016278 0.458854 0.767527
#
# Coordination Sequence:
#
# PCOD8254846 Si02
#       6
#     4   8   4   8   8   4
#     4  12  22  40  72 100 126 166 239 279 328 393
#     4  10  23  44  64  93 138 174 222 270 332 403
#     4  11  24  43  66  93 136 178 213 280 336 394
#     4  10  23  43  63  98 138 171 213 272 343 394
#     4  11  23  42  70 100 129 177 226 283 333 389
#     4  11  24  41  64  99 128 180 220 269 340 397
#
# _framework density 22.437367999999999
#
# number of rings (size 3 to 8) (size 9 to 14) (size 15 to 20)
#    0.000    1.333    0.000    6.667    3.111    2.667 
#    8.000    5.556    0.000    0.000    0.000    0.000 
#    0.000    0.000    0.000    0.000    0.000    0.000 
#
# Total GULP energy -446255.698059 kJ/mol
# GULP energy per Si atom -12395.991613 kJ/mol
# Density = 2.238630 g / cm^3
# Si number density = 22.437368 Si / 1000 Ang^3
#
#
#
# Elastic Constant Matrix: (Units=GPa)
#
#
# Indices 1 2 3 4 5 6 
#
# 1 92.0194 41.8498 2.9325 0.0000 0.0000 0.0000
# 2 41.8498 146.6531 17.1474 0.0000 0.0000 0.0000
# 3 2.9325 17.1474 61.0042 0.0000 0.0000 0.0000
# 4 0.0000 0.0000 0.0000 -58.0980 0.0000 0.0000
# 5 0.0000 0.0000 0.0000 0.0000 37.9473 0.0000
# 6 0.0000 0.0000 0.0000 0.0000 0.0000 16.7213
#
#
#
# Elastic Compliance Matrix: (Units=1/GPa)
#
#
# Indices 1 2 3 4 5 6 
#
# 1 0.012498 -0.003615 0.000415 0.000000 0.000000 0.000000
# 2 -0.003615 0.008096 -0.002102 0.000000 0.000000 0.000000
# 3 0.000415 -0.002102 0.016963 0.000000 0.000000 0.000000
# 4 0.000000 0.000000 0.000000 -0.017212 0.000000 0.000000
# 5 0.000000 0.000000 0.000000 0.000000 0.026352 0.000000
# 6 0.000000 0.000000 0.000000 0.000000 0.000000 0.059804
#
#
# Mechanical properties :
#
#
# Convention : Reuss Voigt Hill
#
# Bulk Modulus (GPa) = 37.10002 47.05956 42.07979
# Shear Modulus (GPa) = 39.65430 15.16391 27.40911
#
# Velocity S-wave (km/s) = 4.20853 2.60250 3.49891
# Velocity P-wave (km/s) = 6.33928 5.48178 5.92606
#
# Compressibility (1/GPa) = 0.02695417
#
# Stress axis : x y z
#
# Youngs Moduli (GPa) = 80.01170 123.51451 58.95123
#
# Poissons Ratio (x) = 0.44652 -0.02449
# Poissons Ratio (y) = 0.28925 0.12391
# Poissons Ratio (z) = -0.03323 0.25962
#
# Static dielectric constant tensor:
#      x y z
#    x 4.232790 0.000000 0.000000 
#    y 0.000000 4.320550 0.000000 
#    z 0.000000 0.000000 3.760350 
# 
# 
# High freq. dielectric constant tensor:
#      x y z
#    x 1.895540 0.000000 0.000000 
#    y 0.000000 1.901050 0.000000 
#    z 0.000000 0.000000 1.860950 
# 
# From -- ./inp_files/4208.got.cif
#   From: 2010.03.12/outbox.cif.g09.slc.cpg/sg62_3_cif.got.tgz:4208.got - 2010.04.10 19:12:36.
