data_PCOD8254013
_publ_section_title
;
Structure prediction by ZEFSAII (Michael W. Deem and Ramdas Pophale) SiO2 
 PCOD8254013
Probable space group: P N M A
;
_chemical_formula_sum "Si O2"
_cell_formula_units_Z 64
_cell_length_a 30.540304
_cell_length_b 8.530427
_cell_length_c 11.863293
_cell_angle_alpha 90.000000
_cell_angle_beta 90.000000
_cell_angle_gamma 90.000000
_cell_volume 3090.646848
_symmetry_space_group_name_H-M "P N M A"
_symmetry_group_IT_number 62
_symmetry_cell_setting 'orthorhombic'
loop_
_space_group_symop_operation_xyz
x,y,z
1/2-x,-y,1/2+z
1/2+x,1/2-y,1/2-z
-x,1/2+y,-z
-x,-y,-z
1/2+x,y,1/2-z
1/2-x,1/2+y,1/2+z
x,1/2-y,z
loop_
_atom_site_type_symbol
_atom_site_label
_atom_site_fract_x
_atom_site_fract_y
_atom_site_fract_z
Si Si1 0.671562 0.430474 0.988544
Si Si2 0.080265 0.934133 0.498115
Si Si3 0.295460 0.070338 0.235456
Si Si4 0.543866 0.066245 0.216834
Si Si5 0.447324 0.065948 0.242574
Si Si6 0.627572 0.933777 0.594009
Si Si7 0.370269 0.932725 0.650907
Si Si8 0.293554 0.430507 0.796796
O O1 0.675686 0.250000 0.954124
O O2 0.623841 0.471770 0.036799
O O3 0.679629 0.538379 0.880760
O O4 0.705249 0.467537 0.089099
O O5 0.089926 0.750000 0.501386
O O6 0.063401 0.999386 0.617961
O O7 0.045353 0.973628 0.401211
O O8 0.280287 0.250000 0.238047
O O9 0.328085 0.033276 0.337690
O O10 0.253182 0.960186 0.239542
O O11 0.545668 0.250000 0.189702
O O12 0.497342 0.022470 0.274912
O O13 0.582783 0.013616 0.299736
O O14 0.439761 0.250000 0.238871
O O15 0.413767 0.998029 0.335154
O O16 0.622094 0.750000 0.566832
O O17 0.630103 0.032434 0.480828
O O18 0.362061 0.750000 0.672550
O O19 0.331626 0.027765 0.709518
O O20 0.298263 0.250000 0.829522
#
# Coordination Sequence:
#
# PCOD8254013 Si02
#       8
#     8   8   8   8   8   8   8   8
#     4  12  24  41  66  96 130 165 205 256 316 372
#     4  11  20  36  62  92 126 163 207 257 311 371
#     4  11  24  44  68  95 126 162 209 258 311 373
#     4  10  21  38  61  89 125 165 206 257 313 370
#     4   9  19  38  62  90 123 162 207 255 311 371
#     4  10  22  42  65  88 122 166 210 257 311 372
#     4  11  24  41  61  90 127 165 210 261 312 367
#     4  12  26  44  67  94 126 166 211 257 311 371
#
# _framework density 20.707640999999999
#
# number of rings (size 3 to 8) (size 9 to 14) (size 15 to 20)
#    0.000    1.250    2.500    3.750    1.750    2.000 
#    0.000    1.250    0.000    0.000    0.000    0.000 
#    0.000    0.000    0.000    0.000    0.000    0.000 
#
# Total GULP energy -793935.419363 kJ/mol
# GULP energy per Si atom -12405.240928 kJ/mol
# Density = 2.066051 g / cm^3
# Si number density = 20.707641 Si / 1000 Ang^3
#
#
#
# Elastic Constant Matrix: (Units=GPa)
#
#
# Indices 1 2 3 4 5 6 
#
# 1 121.2066 39.0310 27.8822 0.0000 0.0000 0.0000
# 2 39.0310 60.2212 27.9805 0.0000 0.0000 0.0000
# 3 27.8822 27.9805 106.4129 0.0000 0.0000 0.0000
# 4 0.0000 0.0000 0.0000 32.5067 0.0000 0.0000
# 5 0.0000 0.0000 0.0000 0.0000 26.3837 0.0000
# 6 0.0000 0.0000 0.0000 0.0000 0.0000 18.1089
#
#
#
# Elastic Compliance Matrix: (Units=1/GPa)
#
#
# Indices 1 2 3 4 5 6 
#
# 1 0.010538 -0.006319 -0.001100 0.000000 0.000000 0.000000
# 2 -0.006319 0.022706 -0.004315 0.000000 0.000000 0.000000
# 3 -0.001100 -0.004315 0.010820 0.000000 0.000000 0.000000
# 4 0.000000 0.000000 0.000000 0.030763 0.000000 0.000000
# 5 0.000000 0.000000 0.000000 0.000000 0.037902 0.000000
# 6 0.000000 0.000000 0.000000 0.000000 0.000000 0.055222
#
#
# Mechanical properties :
#
#
# Convention : Reuss Voigt Hill
#
# Bulk Modulus (GPa) = 48.55035 53.06979 50.81007
# Shear Modulus (GPa) = 25.21646 28.26299 26.73972
#
# Velocity S-wave (km/s) = 3.49339 3.69841 3.59736
# Velocity P-wave (km/s) = 6.30621 6.62732 6.46876
#
# Compressibility (1/GPa) = 0.02059717
#
# Stress axis : x y z
#
# Youngs Moduli (GPa) = 94.89237 44.04166 92.42176
#
# Poissons Ratio (x) = 0.27831 0.10163
# Poissons Ratio (y) = 0.59965 0.39876
# Poissons Ratio (z) = 0.10435 0.19002
#
# Static dielectric constant tensor:
#      x y z
#    x 3.894010 0.000000 0.000000 
#    y 0.000000 3.510240 0.000000 
#    z 0.000000 0.000000 3.703660 
# 
# 
# High freq. dielectric constant tensor:
#      x y z
#    x 1.821320 0.000000 0.000000 
#    y 0.000000 1.797750 0.000000 
#    z 0.000000 0.000000 1.812490 
# 
# From -- ./inp_files/15859.got.cif
#   From: 2010.03.12/outbox.cif.g09.slc.cpg/sg62_8_cif.got.tgz:15859.got - 2010.04.10 19:12:36.
