data_PCOD8254236
_publ_section_title
;
Structure prediction by ZEFSAII (Michael W. Deem and Ramdas Pophale) SiO2 
 PCOD8254236
Probable space group: P N M A
;
_chemical_formula_sum "Si O2"
_cell_formula_units_Z 48
_cell_length_a 18.674649
_cell_length_b 8.945033
_cell_length_c 14.777222
_cell_angle_alpha 90.000000
_cell_angle_beta 90.000000
_cell_angle_gamma 90.000000
_cell_volume 2468.466244
_symmetry_space_group_name_H-M "P N M A"
_symmetry_group_IT_number 62
_symmetry_cell_setting 'orthorhombic'
loop_
_space_group_symop_operation_xyz
x,y,z
1/2-x,-y,1/2+z
1/2+x,1/2-y,1/2-z
-x,1/2+y,-z
-x,-y,-z
1/2+x,y,1/2-z
1/2-x,1/2+y,1/2+z
x,1/2-y,z
loop_
_atom_site_type_symbol
_atom_site_label
_atom_site_fract_x
_atom_site_fract_y
_atom_site_fract_z
Si Si1 0.470981 0.072778 0.090743
Si Si2 0.284043 0.922075 0.475659
Si Si3 0.319141 0.926458 0.108459
Si Si4 0.270319 0.078785 0.781070
Si Si5 0.436019 0.926348 0.553941
Si Si6 0.582395 0.073969 0.242720
O O1 0.469818 0.250000 0.078378
O O2 0.521008 0.022424 0.173865
O O3 0.392898 0.013856 0.113073
O O4 0.500000 0.000000 0.000000
O O5 0.270307 0.750000 0.504050
O O6 0.279984 0.943276 0.368104
O O7 0.361804 0.976084 0.507855
O O8 0.223634 0.026263 0.519222
O O9 0.333912 0.750000 0.107036
O O10 0.273809 0.979100 0.195094
O O11 0.292381 0.250000 0.767566
O O12 0.342709 0.987543 0.793073
O O13 0.446420 0.750000 0.549727
O O14 0.436346 0.986378 0.657074
O O15 0.500000 0.000000 0.500000
O O16 0.590038 0.250000 0.245842
#
# Coordination Sequence:
#
# PCOD8254236 Si02
#       6
#     8   8   8   8   8   8
#     4  11  24  41  62  89 121 158 200 246 299 355
#     4  10  21  40  63  86 118 157 198 246 299 351
#     4  11  23  39  60  90 122 154 197 244 295 356
#     4  10  22  38  60  89 117 152 196 242 295 351
#     4  10  22  39  60  86 118 156 198 244 297 354
#     4  10  22  41  62  87 119 157 198 241 294 354
#
# _framework density 19.445273
#
# number of rings (size 3 to 8) (size 9 to 14) (size 15 to 20)
#    0.000    1.667    1.667    2.000    2.333    6.667 
#    0.000    0.000    0.000    0.000    0.000    0.000 
#    0.000    0.000    0.000    0.000    0.000    0.000 
#
# Total GULP energy -595455.992519 kJ/mol
# GULP energy per Si atom -12405.333177 kJ/mol
# Density = 1.940101 g / cm^3
# Si number density = 19.445273 Si / 1000 Ang^3
#
#
#
# Elastic Constant Matrix: (Units=GPa)
#
#
# Indices 1 2 3 4 5 6 
#
# 1 143.8445 36.8251 51.0283 0.0000 0.0000 0.0000
# 2 36.8251 36.5993 30.3197 0.0000 0.0000 0.0000
# 3 51.0283 30.3197 112.1853 0.0000 0.0000 0.0000
# 4 0.0000 0.0000 0.0000 28.0711 0.0000 0.0000
# 5 0.0000 0.0000 0.0000 0.0000 41.1780 0.0000
# 6 0.0000 0.0000 0.0000 0.0000 0.0000 39.1825
#
#
#
# Elastic Compliance Matrix: (Units=1/GPa)
#
#
# Indices 1 2 3 4 5 6 
#
# 1 0.009808 -0.007954 -0.002312 0.000000 0.000000 0.000000
# 2 -0.007954 0.041655 -0.007640 0.000000 0.000000 0.000000
# 3 -0.002312 -0.007640 0.012030 0.000000 0.000000 0.000000
# 4 0.000000 0.000000 0.000000 0.035624 0.000000 0.000000
# 5 0.000000 0.000000 0.000000 0.000000 0.024285 0.000000
# 6 0.000000 0.000000 0.000000 0.000000 0.000000 0.025522
#
#
# Mechanical properties :
#
#
# Convention : Reuss Voigt Hill
#
# Bulk Modulus (GPa) = 36.12406 58.77502 47.44954
# Shear Modulus (GPa) = 25.77827 33.31673 29.54750
#
# Velocity S-wave (km/s) = 3.64494 4.14376 3.90233
# Velocity P-wave (km/s) = 6.02758 7.29286 6.69020
#
# Compressibility (1/GPa) = 0.02768238
#
# Stress axis : x y z
#
# Youngs Moduli (GPa) = 101.95527 24.00679 83.12432
#
# Poissons Ratio (x) = 0.19094 0.19216
# Poissons Ratio (y) = 0.81092 0.63507
# Poissons Ratio (z) = 0.23570 0.18341
#
# Static dielectric constant tensor:
#      x y z
#    x 3.654030 0.000000 0.000000 
#    y 0.000000 3.485790 0.000000 
#    z 0.000000 0.000000 3.844980 
# 
# 
# High freq. dielectric constant tensor:
#      x y z
#    x 1.766540 0.000000 0.000000 
#    y 0.000000 1.752440 0.000000 
#    z 0.000000 0.000000 1.774290 
# 
# From -- ./inp_files/19532.got.cif
#   From: 2010.03.12/outbox.cif.g09.slc.cpg/sg62_10_cif.got.tgz:19532.got - 2010.04.10 19:12:36.
