data_PCOD8254884
_publ_section_title
;
Structure prediction by ZEFSAII (Michael W. Deem and Ramdas Pophale) SiO2 
 PCOD8254884
Probable space group: P N M A
;
_chemical_formula_sum "Si O2"
_cell_formula_units_Z 32
_cell_length_a 8.505345
_cell_length_b 26.146158
_cell_length_c 4.994739
_cell_angle_alpha 90.000000
_cell_angle_beta 90.000000
_cell_angle_gamma 90.000000
_cell_volume 1110.740519
_symmetry_space_group_name_H-M "P N M A"
_symmetry_group_IT_number 62
_symmetry_cell_setting 'orthorhombic'
loop_
_space_group_symop_operation_xyz
x,y,z
1/2-x,-y,1/2+z
1/2+x,1/2-y,1/2-z
-x,1/2+y,-z
-x,-y,-z
1/2+x,y,1/2-z
1/2-x,1/2+y,1/2+z
x,1/2-y,z
loop_
_atom_site_type_symbol
_atom_site_label
_atom_site_fract_x
_atom_site_fract_y
_atom_site_fract_z
Si Si1 0.412330 0.750000 0.258148
Si Si2 0.023527 0.099003 0.656534
Si Si3 0.179132 0.750000 0.629326
Si Si4 0.743773 0.466275 0.498239
Si Si5 0.708434 0.663303 0.484568
O O1 0.371559 0.750000 0.580512
O O2 0.326439 0.800492 0.167871
O O3 0.593545 0.750000 0.166597
O O4 0.891978 0.072364 0.472115
O O5 0.940911 0.146453 0.810304
O O6 0.088598 0.061281 0.887247
O O7 0.171443 0.115405 0.462063
O O8 0.135040 0.803744 0.770940
O O9 0.706305 0.488533 0.205164
#
# Coordination Sequence:
#
# PCOD8254884 Si02
#       5
#     4   8   4   8   8
#     4  11  24  48  70 107 152 193 256 296 386 453
#     4  10  23  47  74 113 151 191 271 312 378 473
#     4  11  26  48  76 101 160 201 246 314 382 461
#     4  11  24  49  75 109 155 209 255 325 398 461
#     4  10  24  48  72 109 149 203 244 317 376 449
#
# _framework density 28.809607
#
# number of rings (size 3 to 8) (size 9 to 14) (size 15 to 20)
#    0.000    1.500    0.000    3.000    0.000   11.000 
#   45.000    5.000    0.000    0.000    0.000    0.000 
#    0.000    0.000    0.000    0.000    0.000    0.000 
#
# Total GULP energy -396423.426474 kJ/mol
# GULP energy per Si atom -12388.232077 kJ/mol
# Density = 2.874404 g / cm^3
# Si number density = 28.809607 Si / 1000 Ang^3
#
#
#
# Elastic Constant Matrix: (Units=GPa)
#
#
# Indices 1 2 3 4 5 6 
#
# 1 135.8693 22.2741 7.5956 0.0000 0.0000 0.0000
# 2 22.2741 89.3339 13.1175 0.0000 0.0000 0.0000
# 3 7.5956 13.1175 45.7906 0.0000 0.0000 0.0000
# 4 0.0000 0.0000 0.0000 310.8075 0.0000 0.0000
# 5 0.0000 0.0000 0.0000 0.0000 36.3044 0.0000
# 6 0.0000 0.0000 0.0000 0.0000 0.0000 72.5777
#
#
#
# Elastic Compliance Matrix: (Units=1/GPa)
#
#
# Indices 1 2 3 4 5 6 
#
# 1 0.007699 -0.001808 -0.000759 0.000000 0.000000 0.000000
# 2 -0.001808 0.012110 -0.003169 0.000000 0.000000 0.000000
# 3 -0.000759 -0.003169 0.022872 0.000000 0.000000 0.000000
# 4 0.000000 0.000000 0.000000 0.003217 0.000000 0.000000
# 5 0.000000 0.000000 0.000000 0.000000 0.027545 0.000000
# 6 0.000000 0.000000 0.000000 0.000000 0.000000 0.013778
#
#
# Mechanical properties :
#
#
# Convention : Reuss Voigt Hill
#
# Bulk Modulus (GPa) = 32.04264 39.66316 35.85290
# Shear Modulus (GPa) = 45.83050 99.13838 72.48444
#
# Velocity S-wave (km/s) = 3.99282 5.87250 5.02140
# Velocity P-wave (km/s) = 5.69238 7.73168 6.78904
#
# Compressibility (1/GPa) = 0.03120841
#
# Stress axis : x y z
#
# Youngs Moduli (GPa) = 129.88918 82.57539 43.72097
#
# Poissons Ratio (x) = 0.14931 0.03319
# Poissons Ratio (y) = 0.23486 0.13856
# Poissons Ratio (z) = 0.09860 0.26170
#
# Static dielectric constant tensor:
#      x y z
#    x 5.656700 0.000000 0.000000 
#    y 0.000000 5.110800 0.000000 
#    z 0.000000 0.000000 5.016870 
# 
# 
# High freq. dielectric constant tensor:
#      x y z
#    x 2.196660 0.000000 0.000000 
#    y 0.000000 2.201130 0.000000 
#    z 0.000000 0.000000 2.132030 
# 
# From -- ./inp_files/231.got.cif
#   From: 2010.03.12/outbox.cif.g09.slc.cpg/sg62_1_cif.got.tgz:231.got - 2010.04.10 19:12:36.
