data_PCOD8254893
_publ_section_title
;
Structure prediction by ZEFSAII (Michael W. Deem and Ramdas Pophale) SiO2 
 PCOD8254893
Probable space group: P N M A
;
_chemical_formula_sum "Si O2"
_cell_formula_units_Z 64
_cell_length_a 18.229864
_cell_length_b 17.681124
_cell_length_c 9.533314
_cell_angle_alpha 90.000000
_cell_angle_beta 90.000000
_cell_angle_gamma 90.000000
_cell_volume 3072.820534
_symmetry_space_group_name_H-M "P N M A"
_symmetry_group_IT_number 62
_symmetry_cell_setting 'orthorhombic'
loop_
_space_group_symop_operation_xyz
x,y,z
1/2-x,-y,1/2+z
1/2+x,1/2-y,1/2-z
-x,1/2+y,-z
-x,-y,-z
1/2+x,y,1/2-z
1/2-x,1/2+y,1/2+z
x,1/2-y,z
loop_
_atom_site_type_symbol
_atom_site_label
_atom_site_fract_x
_atom_site_fract_y
_atom_site_fract_z
Si Si1 0.063556 0.163544 0.294166
Si Si2 0.139168 0.420997 0.061822
Si Si3 0.914364 0.400868 0.262056
Si Si4 0.374822 0.661362 0.088045
Si Si5 0.214201 0.659420 0.547777
Si Si6 0.227821 0.662673 0.231102
Si Si7 0.609282 0.910924 0.441306
Si Si8 0.452617 0.930088 0.296964
O O1 0.078889 0.250000 0.250108
O O2 0.076579 0.105189 0.168613
O O3 0.115141 0.140398 0.425042
O O4 0.977338 0.153079 0.326175
O O5 0.207850 0.369274 0.104395
O O6 0.154106 0.510597 0.074749
O O7 0.111371 0.406282 0.904807
O O8 0.845244 0.385120 0.361222
O O9 0.939449 0.487667 0.268814
O O10 0.896147 0.381343 0.100308
O O11 0.378257 0.750000 0.107952
O O12 0.298449 0.626874 0.149901
O O13 0.445397 0.628246 0.169487
O O14 0.206346 0.750000 0.565087
O O15 0.212084 0.630274 0.386452
O O16 0.244870 0.750000 0.248711
O O17 0.154413 0.651973 0.141397
O O18 0.529643 0.923764 0.375098
#
# Coordination Sequence:
#
# PCOD8254893 Si02
#       8
#     8   8   8   8   8   8   8   8
#     4  11  23  41  65  94 131 167 210 268 326 381
#     4  11  22  43  66  92 125 169 216 263 318 387
#     4  11  24  43  63  99 132 165 212 272 325 382
#     4  10  24  42  64  93 128 170 219 267 318 386
#     4  11  25  42  64  94 131 170 215 263 322 391
#     4  10  24  45  63  92 131 169 214 265 319 385
#     4  11  24  42  67  94 130 166 215 271 322 387
#     4  11  22  45  68  92 127 172 218 263 320 387
#
# _framework density 20.827769
#
# number of rings (size 3 to 8) (size 9 to 14) (size 15 to 20)
#    0.000    1.250    3.750    1.500    5.250    3.500 
#    0.000    0.000    0.000    0.000    0.000    0.000 
#    0.000    0.000    0.000    0.000    0.000    0.000 
#
# Total GULP energy -793524.100681 kJ/mol
# GULP energy per Si atom -12398.814073 kJ/mol
# Density = 2.078036 g / cm^3
# Si number density = 20.827769 Si / 1000 Ang^3
#
#
#
# Elastic Constant Matrix: (Units=GPa)
#
#
# Indices 1 2 3 4 5 6 
#
# 1 104.6965 29.0644 45.9862 0.0000 0.0000 0.0000
# 2 29.0644 38.0043 50.7542 0.0000 0.0000 0.0000
# 3 45.9862 50.7542 99.7964 0.0000 0.0000 0.0000
# 4 0.0000 0.0000 0.0000 32.7246 0.0000 0.0000
# 5 0.0000 0.0000 0.0000 0.0000 42.3224 0.0000
# 6 0.0000 0.0000 0.0000 0.0000 0.0000 34.2953
#
#
#
# Elastic Compliance Matrix: (Units=1/GPa)
#
#
# Indices 1 2 3 4 5 6 
#
# 1 0.012367 -0.005758 -0.002770 0.000000 0.000000 0.000000
# 2 -0.005758 0.084703 -0.040424 0.000000 0.000000 0.000000
# 3 -0.002770 -0.040424 0.031856 0.000000 0.000000 0.000000
# 4 0.000000 0.000000 0.000000 0.030558 0.000000 0.000000
# 5 0.000000 0.000000 0.000000 0.000000 0.023628 0.000000
# 6 0.000000 0.000000 0.000000 0.000000 0.000000 0.029158
#
#
# Mechanical properties :
#
#
# Convention : Reuss Voigt Hill
#
# Bulk Modulus (GPa) = 32.23764 54.90075 43.56919
# Shear Modulus (GPa) = 15.59990 29.64795 22.62393
#
# Velocity S-wave (km/s) = 2.73975 3.77700 3.29939
# Velocity P-wave (km/s) = 5.05174 6.74074 5.95641
#
# Compressibility (1/GPa) = 0.03101964
#
# Stress axis : x y z
#
# Youngs Moduli (GPa) = 80.86280 11.80602 31.39152
#
# Poissons Ratio (x) = 0.06798 0.08696
# Poissons Ratio (y) = 0.46563 1.26898
# Poissons Ratio (z) = 0.22399 0.47725
#
# Static dielectric constant tensor:
#      x y z
#    x 3.717060 0.000000 0.000000 
#    y 0.000000 3.582320 0.000000 
#    z 0.000000 0.000000 3.872990 
# 
# 
# High freq. dielectric constant tensor:
#      x y z
#    x 1.819040 0.000000 0.000000 
#    y 0.000000 1.808880 0.000000 
#    z 0.000000 0.000000 1.823580 
# 
# From -- ./inp_files/8921.got.cif
#   From: 2010.03.12/outbox.cif.g09.slc.cpg/sg62_5_cif.got.tgz:8921.got - 2010.04.10 19:12:36.
