data_PCOD8254027
_publ_section_title
;
Structure prediction by ZEFSAII (Michael W. Deem and Ramdas Pophale) SiO2 
 PCOD8254027
Probable space group: P N M A
;
_chemical_formula_sum "Si O2"
_cell_formula_units_Z 56
_cell_length_a 21.505985
_cell_length_b 14.293164
_cell_length_c 9.465695
_cell_angle_alpha 90.000000
_cell_angle_beta 90.000000
_cell_angle_gamma 90.000000
_cell_volume 2909.646456
_symmetry_space_group_name_H-M "P N M A"
_symmetry_group_IT_number 62
_symmetry_cell_setting 'orthorhombic'
loop_
_space_group_symop_operation_xyz
x,y,z
1/2-x,-y,1/2+z
1/2+x,1/2-y,1/2-z
-x,1/2+y,-z
-x,-y,-z
1/2+x,y,1/2-z
1/2-x,1/2+y,1/2+z
x,1/2-y,z
loop_
_atom_site_type_symbol
_atom_site_label
_atom_site_fract_x
_atom_site_fract_y
_atom_site_fract_z
Si Si1 0.349587 0.500811 0.977706
Si Si2 0.386939 0.642377 0.465525
Si Si3 0.428904 0.493080 0.251103
Si Si4 0.247050 0.856648 0.400799
Si Si5 0.253762 0.641718 0.082660
Si Si6 0.928791 0.994379 0.800097
Si Si7 0.615890 0.640641 0.515037
O O1 0.303819 0.412314 0.990211
O O2 0.379746 0.505692 0.824798
O O3 0.402640 0.490166 0.093978
O O4 0.309082 0.593740 0.997347
O O5 0.408129 0.750000 0.455291
O O6 0.409277 0.590018 0.324626
O O7 0.312704 0.633459 0.479435
O O8 0.417779 0.595993 0.602210
O O9 0.502717 0.488050 0.237362
O O10 0.403296 0.403327 0.335735
O O11 0.224246 0.750000 0.394131
O O12 0.251328 0.898126 0.242135
O O13 0.270831 0.750000 0.087022
O O14 0.189021 0.622212 0.004322
O O15 0.922102 0.089523 0.890538
O O16 0.599142 0.750000 0.510856
#
# Coordination Sequence:
#
# PCOD8254027 Si02
#       7
#     8   8   8   8   8   8   8
#     4  12  23  38  62  86 125 156 186 240 308 340
#     4  10  21  40  64  87 114 152 198 246 291 341
#     4  11  24  39  58  87 119 158 202 236 281 350
#     4  10  21  38  62  90 117 148 193 243 297 356
#     4  10  21  38  62  90 117 148 193 243 297 356
#     4  11  24  39  58  87 119 158 202 236 281 350
#     4  10  21  40  64  87 114 152 198 246 291 341
#
# _framework density 19.246324000000001
#
# number of rings (size 3 to 8) (size 9 to 14) (size 15 to 20)
#    0.000    1.429    2.857    3.857    0.000    3.429 
#    0.000    2.857    0.000    5.143    0.000    0.000 
#    0.000    0.000    0.000    0.000    0.000    0.000 
#
# Total GULP energy -694687.257850 kJ/mol
# GULP energy per Si atom -12405.129604 kJ/mol
# Density = 1.920252 g / cm^3
# Si number density = 19.246324 Si / 1000 Ang^3
#
#
#
# Elastic Constant Matrix: (Units=GPa)
#
#
# Indices 1 2 3 4 5 6 
#
# 1 79.2667 28.6395 -4.1725 0.0000 0.0000 0.0000
# 2 28.6395 114.0952 21.7208 0.0000 0.0000 0.0000
# 3 -4.1725 21.7208 47.5505 0.0000 0.0000 0.0000
# 4 0.0000 0.0000 0.0000 9.1452 0.0000 0.0000
# 5 0.0000 0.0000 0.0000 0.0000 32.2011 0.0000
# 6 0.0000 0.0000 0.0000 0.0000 0.0000 17.3724
#
#
#
# Elastic Compliance Matrix: (Units=1/GPa)
#
#
# Indices 1 2 3 4 5 6 
#
# 1 0.014297 -0.004192 0.003170 0.000000 0.000000 0.000000
# 2 -0.004192 0.010829 -0.005314 0.000000 0.000000 0.000000
# 3 0.003170 -0.005314 0.023736 0.000000 0.000000 0.000000
# 4 0.000000 0.000000 0.000000 0.109347 0.000000 0.000000
# 5 0.000000 0.000000 0.000000 0.000000 0.031055 0.000000
# 6 0.000000 0.000000 0.000000 0.000000 0.000000 0.057563
#
#
# Mechanical properties :
#
#
# Convention : Reuss Voigt Hill
#
# Bulk Modulus (GPa) = 27.63364 37.03201 32.33282
# Shear Modulus (GPa) = 18.41199 24.72539 21.56869
#
# Velocity S-wave (km/s) = 3.09633 3.58813 3.35127
# Velocity P-wave (km/s) = 5.21268 6.03731 5.64009
#
# Compressibility (1/GPa) = 0.03618777
#
# Stress axis : x y z
#
# Youngs Moduli (GPa) = 69.94408 92.34783 42.13016
#
# Poissons Ratio (x) = 0.38714 -0.13353
# Poissons Ratio (y) = 0.29322 0.22389
# Poissons Ratio (z) = -0.22169 0.49077
#
# Static dielectric constant tensor:
#      x y z
#    x 3.552750 0.000000 0.000000 
#    y 0.000000 3.627330 0.000000 
#    z 0.000000 0.000000 3.458340 
# 
# 
# High freq. dielectric constant tensor:
#      x y z
#    x 1.759080 0.000000 0.000000 
#    y 0.000000 1.751600 0.000000 
#    z 0.000000 0.000000 1.742480 
# 
# From -- ./inp_files/8714.got.cif
#   From: 2010.03.12/outbox.cif.g09.slc.cpg/sg62_5_cif.got.tgz:8714.got - 2010.04.10 19:12:36.
