data_PCOD8254304
_publ_section_title
;
Structure prediction by ZEFSAII (Michael W. Deem and Ramdas Pophale) SiO2 
 PCOD8254304
Probable space group: P N M A
;
_chemical_formula_sum "Si O2"
_cell_formula_units_Z 40
_cell_length_a 9.012102
_cell_length_b 16.663655
_cell_length_c 12.686659
_cell_angle_alpha 90.000000
_cell_angle_beta 90.000000
_cell_angle_gamma 90.000000
_cell_volume 1905.213415
_symmetry_space_group_name_H-M "P N M A"
_symmetry_group_IT_number 62
_symmetry_cell_setting 'orthorhombic'
loop_
_space_group_symop_operation_xyz
x,y,z
1/2-x,-y,1/2+z
1/2+x,1/2-y,1/2-z
-x,1/2+y,-z
-x,-y,-z
1/2+x,y,1/2-z
1/2-x,1/2+y,1/2+z
x,1/2-y,z
loop_
_atom_site_type_symbol
_atom_site_label
_atom_site_fract_x
_atom_site_fract_y
_atom_site_fract_z
Si Si1 0.283124 0.440496 0.451762
Si Si2 0.906064 0.899237 0.971753
Si Si3 0.179114 0.250000 0.904740
Si Si4 0.116810 0.419777 0.654180
Si Si5 0.642876 0.481048 0.252003
Si Si6 0.989079 0.250000 0.711498
O O1 0.358115 0.528570 0.452199
O O2 0.417369 0.379952 0.482127
O O3 0.143663 0.433544 0.529901
O O4 0.227514 0.426376 0.333443
O O5 0.874992 0.921141 0.850167
O O6 0.812601 0.824676 0.015396
O O7 0.024973 0.250000 0.837274
O O8 0.315810 0.250000 0.821124
O O9 0.271553 0.437342 0.714145
O O10 0.066200 0.328951 0.665294
O O11 0.006997 0.487110 0.699345
#
# Coordination Sequence:
#
# PCOD8254304 Si02
#       6
#     8   8   4   8   8   4
#     4  10  21  40  68  95 127 169 223 264 318 388
#     4  10  23  42  65  96 131 168 217 272 324 384
#     4  12  28  44  65  95 136 170 211 271 338 383
#     4  11  23  37  67  99 131 167 218 266 325 385
#     4  11  21  42  68  95 127 177 218 265 318 387
#     4  12  26  42  65 101 134 166 207 273 336 383
#
# _framework density 20.995023
#
# number of rings (size 3 to 8) (size 9 to 14) (size 15 to 20)
#    0.000    1.200    2.000    4.200    8.400    1.600 
#    0.000    2.000    0.000    0.000    0.000    0.000 
#    0.000    0.000    0.000    0.000    0.000    0.000 
#
# Total GULP energy -495798.697292 kJ/mol
# GULP energy per Si atom -12394.967432 kJ/mol
# Density = 2.094724 g / cm^3
# Si number density = 20.995023 Si / 1000 Ang^3
#
#
#
# Elastic Constant Matrix: (Units=GPa)
#
#
# Indices 1 2 3 4 5 6 
#
# 1 95.0947 38.1287 55.9668 0.0000 0.0000 0.0000
# 2 38.1287 78.0725 38.4660 0.0000 0.0000 0.0000
# 3 55.9668 38.4660 154.4038 0.0000 0.0000 0.0000
# 4 0.0000 0.0000 0.0000 20.0889 0.0000 0.0000
# 5 0.0000 0.0000 0.0000 0.0000 36.7093 0.0000
# 6 0.0000 0.0000 0.0000 0.0000 0.0000 23.1980
#
#
#
# Elastic Compliance Matrix: (Units=1/GPa)
#
#
# Indices 1 2 3 4 5 6 
#
# 1 0.015090 -0.005329 -0.004142 0.000000 0.000000 0.000000
# 2 -0.005329 0.016483 -0.002175 0.000000 0.000000 0.000000
# 3 -0.004142 -0.002175 0.008520 0.000000 0.000000 0.000000
# 4 0.000000 0.000000 0.000000 0.049779 0.000000 0.000000
# 5 0.000000 0.000000 0.000000 0.000000 0.027241 0.000000
# 6 0.000000 0.000000 0.000000 0.000000 0.000000 0.043107
#
#
# Mechanical properties :
#
#
# Convention : Reuss Voigt Hill
#
# Bulk Modulus (GPa) = 59.52013 65.85489 62.68751
# Shear Modulus (GPa) = 26.43942 28.99987 27.71964
#
# Velocity S-wave (km/s) = 3.55254 3.72058 3.63753
# Velocity P-wave (km/s) = 6.72596 7.06342 6.89676
#
# Compressibility (1/GPa) = 0.01680104
#
# Stress axis : x y z
#
# Youngs Moduli (GPa) = 66.26755 60.67016 117.37469
#
# Poissons Ratio (x) = 0.32331 0.48619
# Poissons Ratio (y) = 0.35313 0.25525
# Poissons Ratio (z) = 0.27450 0.13194
#
# Static dielectric constant tensor:
#      x y z
#    x 4.096880 0.000000 0.000000 
#    y 0.000000 3.428900 0.000000 
#    z 0.000000 0.000000 3.889980 
# 
# 
# High freq. dielectric constant tensor:
#      x y z
#    x 1.834600 0.000000 0.000000 
#    y 0.000000 1.785870 0.000000 
#    z 0.000000 0.000000 1.836660 
# 
# From -- ./inp_files/11095.got.cif
#   From: 2010.03.12/outbox.cif.g09.slc.cpg/sg62_6_cif.got.tgz:11095.got - 2010.04.10 19:12:36.
