data_PCOD8254129
_publ_section_title
;
Structure prediction by ZEFSAII (Michael W. Deem and Ramdas Pophale) SiO2 
 PCOD8254129
Probable space group: P N M A
;
_chemical_formula_sum "Si O2"
_cell_formula_units_Z 64
_cell_length_a 14.822080
_cell_length_b 18.515822
_cell_length_c 11.521534
_cell_angle_alpha 90.000000
_cell_angle_beta 90.000000
_cell_angle_gamma 90.000000
_cell_volume 3162.004297
_symmetry_space_group_name_H-M "P N M A"
_symmetry_group_IT_number 62
_symmetry_cell_setting 'orthorhombic'
loop_
_space_group_symop_operation_xyz
x,y,z
1/2-x,-y,1/2+z
1/2+x,1/2-y,1/2-z
-x,1/2+y,-z
-x,-y,-z
1/2+x,y,1/2-z
1/2-x,1/2+y,1/2+z
x,1/2-y,z
loop_
_atom_site_type_symbol
_atom_site_label
_atom_site_fract_x
_atom_site_fract_y
_atom_site_fract_z
Si Si1 0.440099 0.332191 0.490874
Si Si2 0.483648 0.566938 0.850928
Si Si3 0.839632 0.668766 0.242472
Si Si4 0.682002 0.464264 0.290140
Si Si5 0.130125 0.939494 0.832893
Si Si6 0.885833 0.918627 0.025076
Si Si7 0.639170 0.629754 0.275187
Si Si8 0.492211 0.600659 0.103828
O O1 0.455331 0.250000 0.448124
O O2 0.358428 0.371048 0.420035
O O3 0.526085 0.383497 0.466788
O O4 0.420315 0.331743 0.627018
O O5 0.387295 0.579896 0.790134
O O6 0.562472 0.590033 0.764492
O O7 0.498209 0.484067 0.881252
O O8 0.486722 0.617012 0.966311
O O9 0.876446 0.750000 0.243142
O O10 0.843167 0.638491 0.112667
O O11 0.734829 0.668756 0.275310
O O12 0.899592 0.623638 0.333005
O O13 0.777609 0.461815 0.227893
O O14 0.685419 0.432744 0.421016
O O15 0.649885 0.545985 0.303967
O O16 0.091000 0.008244 0.903934
O O17 0.580698 0.639966 0.157271
#
# Coordination Sequence:
#
# PCOD8254129 Si02
#       8
#     8   8   8   8   8   8   8   8
#     4  12  25  43  68  97 134 178 220 275 336 397
#     4  10  21  39  61  98 128 165 212 269 325 388
#     4  12  25  41  63  97 133 171 216 270 334 395
#     4  11  23  38  69 100 128 167 224 276 325 385
#     4  12  23  41  70  99 132 170 225 276 331 398
#     4  12  22  43  70  97 128 170 227 279 322 384
#     4  11  22  40  64  97 128 168 214 277 328 389
#     4  10  22  38  64  90 130 165 211 263 329 384
#
# _framework density 20.240326
#
# number of rings (size 3 to 8) (size 9 to 14) (size 15 to 20)
#    0.000    0.750    6.250    1.875    3.500    1.500 
#    0.000    1.875    0.000    0.000    0.000    0.000 
#    0.000    0.000    0.000    0.000    0.000    0.000 
#
# Total GULP energy -793605.390971 kJ/mol
# GULP energy per Si atom -12400.084234 kJ/mol
# Density = 2.019426 g / cm^3
# Si number density = 20.240326 Si / 1000 Ang^3
#
#
#
# Elastic Constant Matrix: (Units=GPa)
#
#
# Indices 1 2 3 4 5 6 
#
# 1 92.1244 29.4945 29.2660 0.0000 0.0000 0.0000
# 2 29.4945 36.2067 34.0793 0.0000 0.0000 0.0000
# 3 29.2660 34.0793 126.5936 0.0000 0.0000 0.0000
# 4 0.0000 0.0000 0.0000 19.2313 0.0000 0.0000
# 5 0.0000 0.0000 0.0000 0.0000 30.1216 0.0000
# 6 0.0000 0.0000 0.0000 0.0000 0.0000 14.3925
#
#
#
# Elastic Compliance Matrix: (Units=1/GPa)
#
#
# Indices 1 2 3 4 5 6 
#
# 1 0.014690 -0.011747 -0.000234 0.000000 0.000000 0.000000
# 2 -0.011747 0.046386 -0.009772 0.000000 0.000000 0.000000
# 3 -0.000234 -0.009772 0.010584 0.000000 0.000000 0.000000
# 4 0.000000 0.000000 0.000000 0.051999 0.000000 0.000000
# 5 0.000000 0.000000 0.000000 0.000000 0.033199 0.000000
# 6 0.000000 0.000000 0.000000 0.000000 0.000000 0.069480
#
#
# Mechanical properties :
#
#
# Convention : Reuss Voigt Hill
#
# Bulk Modulus (GPa) = 35.51700 48.95601 42.23651
# Shear Modulus (GPa) = 17.90663 23.55474 20.73069
#
# Velocity S-wave (km/s) = 2.97762 3.41508 3.20383
# Velocity P-wave (km/s) = 5.42285 6.30795 5.88208
#
# Compressibility (1/GPa) = 0.02815553
#
# Stress axis : x y z
#
# Youngs Moduli (GPa) = 68.07370 21.55843 94.48352
#
# Poissons Ratio (x) = 0.25324 0.02209
# Poissons Ratio (y) = 0.79963 0.92325
# Poissons Ratio (z) = 0.01592 0.21066
#
# Static dielectric constant tensor:
#      x y z
#    x 3.695660 0.000000 0.000000 
#    y 0.000000 3.514510 0.000000 
#    z 0.000000 0.000000 3.987820 
# 
# 
# High freq. dielectric constant tensor:
#      x y z
#    x 1.788740 0.000000 0.000000 
#    y 0.000000 1.766010 0.000000 
#    z 0.000000 0.000000 1.801520 
# 
# From -- ./inp_files/13561.got.cif
#   From: 2010.03.12/outbox.cif.g09.slc.cpg/sg62_7_cif.got.tgz:13561.got - 2010.04.10 19:12:36.
