data_PCOD8254210
_publ_section_title
;
Structure prediction by ZEFSAII (Michael W. Deem and Ramdas Pophale) SiO2 
 PCOD8254210
Probable space group: P N M A
;
_chemical_formula_sum "Si O2"
_cell_formula_units_Z 40
_cell_length_a 22.683878
_cell_length_b 9.677092
_cell_length_c 8.870384
_cell_angle_alpha 90.000000
_cell_angle_beta 90.000000
_cell_angle_gamma 90.000000
_cell_volume 1947.173246
_symmetry_space_group_name_H-M "P N M A"
_symmetry_group_IT_number 62
_symmetry_cell_setting 'orthorhombic'
loop_
_space_group_symop_operation_xyz
x,y,z
1/2-x,-y,1/2+z
1/2+x,1/2-y,1/2-z
-x,1/2+y,-z
-x,-y,-z
1/2+x,y,1/2-z
1/2-x,1/2+y,1/2+z
x,1/2-y,z
loop_
_atom_site_type_symbol
_atom_site_label
_atom_site_fract_x
_atom_site_fract_y
_atom_site_fract_z
Si Si1 0.029169 0.750000 0.283359
Si Si2 0.883939 0.750000 0.730658
Si Si3 0.519291 0.750000 0.859320
Si Si4 0.361406 0.750000 0.099969
Si Si5 0.273180 0.750000 0.358529
Si Si6 0.162435 0.750000 0.177727
Si Si7 0.153128 0.034470 0.030235
Si Si8 0.436860 0.966825 0.263921
O O1 0.021662 0.750000 0.461946
O O2 0.096309 0.750000 0.236294
O O3 0.998747 0.613280 0.213110
O O4 0.846594 0.750000 0.576383
O O5 0.866772 0.612660 0.819665
O O6 0.952755 0.750000 0.695964
O O7 0.553700 0.619540 0.795182
O O8 0.301017 0.750000 0.191914
O O9 0.398980 0.886010 0.139349
O O10 0.203317 0.750000 0.327829
O O11 0.292642 0.886261 0.450309
O O12 0.175365 0.617217 0.073859
O O13 0.096611 0.030152 0.922288
#
# Coordination Sequence:
#
# PCOD8254210 Si02
#       8
#     4   4   4   4   4   4   8   8
#     4  11  23  37  61  97 136 166 206 263 325 387
#     4  11  21  37  66  93 124 172 215 245 323 403
#     4  12  22  33  61  98 132 163 209 254 329 389
#     4   9  20  39  66  83 120 175 210 256 321 379
#     4   9  23  49  63  86 129 166 213 266 319 376
#     4  12  25  41  67  97 129 158 223 272 309 382
#     4  10  24  43  66  95 123 173 217 260 326 373
#     4  10  21  40  60  91 135 165 203 261 319 391
#
# _framework density 20.542598999999999
#
# number of rings (size 3 to 8) (size 9 to 14) (size 15 to 20)
#    0.000    1.600    2.000    4.200    2.800    6.400 
#    3.600    1.000    0.000    0.000    0.000    0.000 
#    0.000    0.000    0.000    0.000    0.000    0.000 
#
# Total GULP energy -496158.252236 kJ/mol
# GULP energy per Si atom -12403.956306 kJ/mol
# Density = 2.049584 g / cm^3
# Si number density = 20.542599 Si / 1000 Ang^3
#
#
#
# Elastic Constant Matrix: (Units=GPa)
#
#
# Indices 1 2 3 4 5 6 
#
# 1 102.3190 45.3936 38.5554 0.0000 0.0000 0.0000
# 2 45.3936 181.8971 58.9806 0.0000 0.0000 0.0000
# 3 38.5554 58.9806 137.5878 0.0000 0.0000 0.0000
# 4 0.0000 0.0000 0.0000 19.1860 0.0000 0.0000
# 5 0.0000 0.0000 0.0000 0.0000 29.5919 0.0000
# 6 0.0000 0.0000 0.0000 0.0000 0.0000 9.3606
#
#
#
# Elastic Compliance Matrix: (Units=1/GPa)
#
#
# Indices 1 2 3 4 5 6 
#
# 1 0.011602 -0.002138 -0.002334 0.000000 0.000000 0.000000
# 2 -0.002138 0.006779 -0.002307 0.000000 0.000000 0.000000
# 3 -0.002334 -0.002307 0.008911 0.000000 0.000000 0.000000
# 4 0.000000 0.000000 0.000000 0.052121 0.000000 0.000000
# 5 0.000000 0.000000 0.000000 0.000000 0.033793 0.000000
# 6 0.000000 0.000000 0.000000 0.000000 0.000000 0.106831
#
#
# Mechanical properties :
#
#
# Convention : Reuss Voigt Hill
#
# Bulk Modulus (GPa) = 72.81834 78.62924 75.72379
# Shear Modulus (GPa) = 20.99304 30.21931 25.60617
#
# Velocity S-wave (km/s) = 3.20023 3.83960 3.53440
# Velocity P-wave (km/s) = 7.01282 7.61682 7.32105
#
# Compressibility (1/GPa) = 0.01373280
#
# Stress axis : x y z
#
# Youngs Moduli (GPa) = 86.19452 147.50864 112.21895
#
# Poissons Ratio (x) = 0.31542 0.26197
# Poissons Ratio (y) = 0.18431 0.25888
# Poissons Ratio (z) = 0.20121 0.34029
#
# Static dielectric constant tensor:
#      x y z
#    x 3.699460 0.000000 0.000000 
#    y 0.000000 3.671800 0.000000 
#    z 0.000000 0.000000 3.791530 
# 
# 
# High freq. dielectric constant tensor:
#      x y z
#    x 1.793440 0.000000 0.000000 
#    y 0.000000 1.815120 0.000000 
#    z 0.000000 0.000000 1.809250 
# 
# From -- ./inp_files/9173.got.cif
#   From: 2010.03.12/outbox.cif.g09.slc.cpg/sg62_5_cif.got.tgz:9173.got - 2010.04.10 19:12:36.
