data_PCOD8254047
_publ_section_title
;
Structure prediction by ZEFSAII (Michael W. Deem and Ramdas Pophale) SiO2 
 PCOD8254047
Probable space group: P N M A
;
_chemical_formula_sum "Si O2"
_cell_formula_units_Z 64
_cell_length_a 14.359661
_cell_length_b 8.632416
_cell_length_c 25.154036
_cell_angle_alpha 90.000000
_cell_angle_beta 90.000000
_cell_angle_gamma 90.000000
_cell_volume 3118.058266
_symmetry_space_group_name_H-M "P N M A"
_symmetry_group_IT_number 62
_symmetry_cell_setting 'orthorhombic'
loop_
_space_group_symop_operation_xyz
x,y,z
1/2-x,-y,1/2+z
1/2+x,1/2-y,1/2-z
-x,1/2+y,-z
-x,-y,-z
1/2+x,y,1/2-z
1/2-x,1/2+y,1/2+z
x,1/2-y,z
loop_
_atom_site_type_symbol
_atom_site_label
_atom_site_fract_x
_atom_site_fract_y
_atom_site_fract_z
Si Si1 0.809178 0.930861 0.310688
Si Si2 0.899396 0.932667 0.511912
Si Si3 0.388644 0.569370 0.367166
Si Si4 0.641488 0.570527 0.231939
Si Si5 0.454473 0.067730 0.551899
Si Si6 0.749037 0.065544 0.926621
Si Si7 0.195851 0.431436 0.378888
Si Si8 0.951545 0.070758 0.239655
O O1 0.833495 0.750000 0.312882
O O2 0.730252 0.967573 0.267647
O O3 0.778622 0.993279 0.368183
O O4 0.901432 0.025565 0.294817
O O5 0.904528 0.750000 0.506173
O O6 0.825200 0.998975 0.469247
O O7 0.866558 0.980628 0.570769
O O8 0.000000 0.000000 0.500000
O O9 0.365279 0.750000 0.373069
O O10 0.482385 0.521356 0.397804
O O11 0.303037 0.472382 0.391532
O O12 0.402776 0.531066 0.305629
O O13 0.613181 0.750000 0.236214
O O14 0.661089 0.529546 0.171053
O O15 0.559780 0.466298 0.255448
O O16 0.448773 0.250000 0.545555
O O17 0.351262 0.997764 0.559895
O O18 0.500000 0.000000 0.500000
O O19 0.753090 0.250000 0.927721
O O20 0.186471 0.250000 0.366527
O O21 0.937757 0.250000 0.226193
#
# Coordination Sequence:
#
# PCOD8254047 Si02
#       8
#     8   8   8   8   8   8   8   8
#     4  10  21  40  65  91 120 159 211 257 306 371
#     4  10  23  41  62  88 121 162 210 258 314 371
#     4  11  22  39  63  93 125 164 210 253 307 383
#     4  11  23  40  64  91 124 166 211 258 311 382
#     4  10  21  38  63  92 123 157 203 254 308 372
#     4   9  19  39  63  87 117 159 203 254 309 366
#     4  11  23  40  62  91 127 164 207 262 316 368
#     4  12  25  39  60  90 127 163 203 259 319 376
#
# _framework density 20.525594000000002
#
# number of rings (size 3 to 8) (size 9 to 14) (size 15 to 20)
#    0.000    1.500    1.250    3.750    1.750    5.500 
#    0.000    1.250    0.000    0.000    0.000    0.000 
#    0.000    0.000    0.000    0.000    0.000    0.000 
#
# Total GULP energy -793928.188710 kJ/mol
# GULP energy per Si atom -12405.127949 kJ/mol
# Density = 2.047888 g / cm^3
# Si number density = 20.525594 Si / 1000 Ang^3
#
#
#
# Elastic Constant Matrix: (Units=GPa)
#
#
# Indices 1 2 3 4 5 6 
#
# 1 115.3808 19.0554 36.6771 0.0000 0.0000 0.0000
# 2 19.0554 31.7735 20.0912 0.0000 0.0000 0.0000
# 3 36.6771 20.0912 122.8655 0.0000 0.0000 0.0000
# 4 0.0000 0.0000 0.0000 28.6388 0.0000 0.0000
# 5 0.0000 0.0000 0.0000 0.0000 39.2689 0.0000
# 6 0.0000 0.0000 0.0000 0.0000 0.0000 34.2879
#
#
#
# Elastic Compliance Matrix: (Units=1/GPa)
#
#
# Indices 1 2 3 4 5 6 
#
# 1 0.010158 -0.004656 -0.002271 0.000000 0.000000 0.000000
# 2 -0.004656 0.037236 -0.004699 0.000000 0.000000 0.000000
# 3 -0.002271 -0.004699 0.009585 0.000000 0.000000 0.000000
# 4 0.000000 0.000000 0.000000 0.034918 0.000000 0.000000
# 5 0.000000 0.000000 0.000000 0.000000 0.025465 0.000000
# 6 0.000000 0.000000 0.000000 0.000000 0.000000 0.029165
#
#
# Mechanical properties :
#
#
# Convention : Reuss Voigt Hill
#
# Bulk Modulus (GPa) = 29.64934 46.85192 38.25063
# Shear Modulus (GPa) = 27.62100 33.38553 30.50327
#
# Velocity S-wave (km/s) = 3.67234 4.03740 3.85919
# Velocity P-wave (km/s) = 5.69718 6.67906 6.20756
#
# Compressibility (1/GPa) = 0.03372756
#
# Stress axis : x y z
#
# Youngs Moduli (GPa) = 98.44686 26.85547 104.32666
#
# Poissons Ratio (x) = 0.12504 0.23691
# Poissons Ratio (y) = 0.45836 0.49024
# Poissons Ratio (z) = 0.22356 0.12620
#
# Static dielectric constant tensor:
#      x y z
#    x 4.002120 0.000000 0.000000 
#    y 0.000000 3.528350 0.000000 
#    z 0.000000 0.000000 3.837930 
# 
# 
# High freq. dielectric constant tensor:
#      x y z
#    x 1.817350 0.000000 0.000000 
#    y 0.000000 1.783740 0.000000 
#    z 0.000000 0.000000 1.813400 
# 
# From -- ./inp_files/29885.got.cif
#   From: 2010.03.12/outbox.cif.g09.slc.cpg/sg62_15_cif.got.tgz:29885.got - 2010.04.10 19:12:36.
