data_PCOD8254888
_publ_section_title
;
Structure prediction by ZEFSAII (Michael W. Deem and Ramdas Pophale) SiO2 
 PCOD8254888
Probable space group: P N M A
;
_chemical_formula_sum "Si O2"
_cell_formula_units_Z 64
_cell_length_a 15.184948
_cell_length_b 8.983713
_cell_length_c 24.425106
_cell_angle_alpha 90.000000
_cell_angle_beta 90.000000
_cell_angle_gamma 90.000000
_cell_volume 3332.004931
_symmetry_space_group_name_H-M "P N M A"
_symmetry_group_IT_number 62
_symmetry_cell_setting 'orthorhombic'
loop_
_space_group_symop_operation_xyz
x,y,z
1/2-x,-y,1/2+z
1/2+x,1/2-y,1/2-z
-x,1/2+y,-z
-x,-y,-z
1/2+x,y,1/2-z
1/2-x,1/2+y,1/2+z
x,1/2-y,z
loop_
_atom_site_type_symbol
_atom_site_label
_atom_site_fract_x
_atom_site_fract_y
_atom_site_fract_z
Si Si1 0.673970 0.923509 0.069463
Si Si2 0.998789 0.424646 0.390318
Si Si3 0.471984 0.082023 0.783064
Si Si4 0.183411 0.925663 0.854303
Si Si5 0.186017 0.573749 0.138258
Si Si6 0.315572 0.078660 0.057658
Si Si7 0.729115 0.579772 0.241936
Si Si8 0.491517 0.575708 0.340719
O O1 0.675712 0.750000 0.084598
O O2 0.578168 0.985610 0.082907
O O3 0.748433 0.006457 0.103195
O O4 0.694115 0.952369 0.006212
O O5 0.017702 0.250000 0.395228
O O6 0.986521 0.469206 0.326868
O O7 0.911459 0.473604 0.422544
O O8 0.500431 0.250000 0.798067
O O9 0.366751 0.068946 0.785192
O O10 0.508037 0.038659 0.723730
O O11 0.187871 0.750000 0.858294
O O12 0.204986 0.977837 0.792621
O O13 0.085735 0.982460 0.869604
O O14 0.188915 0.750000 0.138984
O O15 0.239427 0.512719 0.087290
O O16 0.227132 0.517959 0.195906
O O17 0.084204 0.523086 0.133224
O O18 0.301581 0.250000 0.072650
O O19 0.763019 0.750000 0.240174
O O20 0.475573 0.750000 0.350817
#
# Coordination Sequence:
#
# PCOD8254888 Si02
#       8
#     8   8   8   8   8   8   8   8
#     4  11  23  42  62  81 114 160 203 242 291 353
#     4  11  22  36  56  88 123 152 191 243 295 347
#     4   9  18  34  57  83 115 157 195 227 277 345
#     4  12  24  36  57  90 119 152 196 247 301 344
#     4   9  20  39  63  88 114 152 200 242 285 344
#     4  10  24  41  59  85 118 155 194 245 303 350
#     4   9  18  35  57  83 116 154 192 232 283 348
#     4   9  20  39  60  85 119 157 198 239 284 352
#
# _framework density 19.207656
#
# number of rings (size 3 to 8) (size 9 to 14) (size 15 to 20)
#    0.000    2.000    1.250    3.750    1.750    3.500 
#    0.000    3.125    0.000    0.000    0.000    0.000 
#    0.000    0.000    0.000    0.000    0.000    0.000 
#
# Total GULP energy -793768.583154 kJ/mol
# GULP energy per Si atom -12402.634112 kJ/mol
# Density = 1.916394 g / cm^3
# Si number density = 19.207656 Si / 1000 Ang^3
#
#
#
# Elastic Constant Matrix: (Units=GPa)
#
#
# Indices 1 2 3 4 5 6 
#
# 1 137.1243 59.1881 53.3240 0.0000 0.0000 0.0000
# 2 59.1881 89.0334 36.8599 0.0000 0.0000 0.0000
# 3 53.3240 36.8599 62.1915 0.0000 0.0000 0.0000
# 4 0.0000 0.0000 0.0000 30.7939 0.0000 0.0000
# 5 0.0000 0.0000 0.0000 0.0000 21.5816 0.0000
# 6 0.0000 0.0000 0.0000 0.0000 0.0000 31.9127
#
#
#
# Elastic Compliance Matrix: (Units=1/GPa)
#
#
# Indices 1 2 3 4 5 6 
#
# 1 0.012488 -0.005127 -0.007669 0.000000 0.000000 0.000000
# 2 -0.005127 0.016989 -0.005673 0.000000 0.000000 0.000000
# 3 -0.007669 -0.005673 0.026017 0.000000 0.000000 0.000000
# 4 0.000000 0.000000 0.000000 0.032474 0.000000 0.000000
# 5 0.000000 0.000000 0.000000 0.000000 0.046336 0.000000
# 6 0.000000 0.000000 0.000000 0.000000 0.000000 0.031335
#
#
# Mechanical properties :
#
#
# Convention : Reuss Voigt Hill
#
# Bulk Modulus (GPa) = 53.89013 65.23258 59.56136
# Shear Modulus (GPa) = 23.95086 26.12279 25.03683
#
# Velocity S-wave (km/s) = 3.53504 3.69185 3.61429
# Velocity P-wave (km/s) = 6.69175 7.22554 6.96376
#
# Compressibility (1/GPa) = 0.01855627
#
# Stress axis : x y z
#
# Youngs Moduli (GPa) = 80.07882 58.86293 38.43663
#
# Poissons Ratio (x) = 0.30178 0.29475
# Poissons Ratio (y) = 0.41055 0.21805
# Poissons Ratio (z) = 0.61409 0.33393
#
# Static dielectric constant tensor:
#      x y z
#    x 3.585480 0.000000 0.000000 
#    y 0.000000 3.387990 0.000000 
#    z 0.000000 0.000000 3.503730 
# 
# 
# High freq. dielectric constant tensor:
#      x y z
#    x 1.754170 0.000000 0.000000 
#    y 0.000000 1.738750 0.000000 
#    z 0.000000 0.000000 1.740410 
# 
# From -- ./inp_files/29742.got.cif
#   From: 2010.03.12/outbox.cif.g09.slc.cpg/sg62_15_cif.got.tgz:29742.got - 2010.04.10 19:12:36.
