data_PCOD8254140
_publ_section_title
;
Structure prediction by ZEFSAII (Michael W. Deem and Ramdas Pophale) SiO2 
 PCOD8254140
Probable space group: P N M A
;
_chemical_formula_sum "Si O2"
_cell_formula_units_Z 40
_cell_length_a 13.457754
_cell_length_b 8.577035
_cell_length_c 17.662218
_cell_angle_alpha 90.000000
_cell_angle_beta 90.000000
_cell_angle_gamma 90.000000
_cell_volume 2038.707913
_symmetry_space_group_name_H-M "P N M A"
_symmetry_group_IT_number 62
_symmetry_cell_setting 'orthorhombic'
loop_
_space_group_symop_operation_xyz
x,y,z
1/2-x,-y,1/2+z
1/2+x,1/2-y,1/2-z
-x,1/2+y,-z
-x,-y,-z
1/2+x,y,1/2-z
1/2-x,1/2+y,1/2+z
x,1/2-y,z
loop_
_atom_site_type_symbol
_atom_site_label
_atom_site_fract_x
_atom_site_fract_y
_atom_site_fract_z
Si Si1 0.804252 0.568945 0.520420
Si Si2 0.406820 0.071043 0.838579
Si Si3 0.396433 0.932137 0.526168
Si Si4 0.676036 0.071584 0.308518
Si Si5 0.111262 0.569905 0.627600
O O1 0.812164 0.750000 0.500528
O O2 0.849291 0.538073 0.602659
O O3 0.689676 0.517415 0.520920
O O4 0.867792 0.473100 0.459377
O O5 0.390465 0.250000 0.860853
O O6 0.363879 0.042847 0.755309
O O7 0.523466 0.033004 0.838167
O O8 0.389450 0.750000 0.508148
O O9 0.384234 0.964943 0.615113
O O10 0.500000 0.000000 0.500000
O O11 0.659313 0.250000 0.283534
O O12 0.792168 0.037402 0.321578
O O13 0.080146 0.750000 0.630134
#
# Coordination Sequence:
#
# PCOD8254140 Si02
#       5
#     8   8   8   8   8
#     4  11  22  38  60  85 115 150 192 237 283 338
#     4  12  24  37  58  87 117 150 191 236 284 340
#     4  10  21  39  62  87 117 153 193 235 283 339
#     4   9  21  40  59  82 114 150 187 233 286 336
#     4  10  21  40  62  83 113 149 188 235 288 343
#
# _framework density 19.620270999999999
#
# number of rings (size 3 to 8) (size 9 to 14) (size 15 to 20)
#    0.000    1.600    0.000    6.600    0.000    6.400 
#    0.000    2.000    0.000    0.000    0.000    0.000 
#    0.000    0.000    0.000    0.000    0.000    0.000 
#
# Total GULP energy -496271.456685 kJ/mol
# GULP energy per Si atom -12406.786417 kJ/mol
# Density = 1.957561 g / cm^3
# Si number density = 19.620271 Si / 1000 Ang^3
#
#
#
# Elastic Constant Matrix: (Units=GPa)
#
#
# Indices 1 2 3 4 5 6 
#
# 1 121.4772 33.9888 55.4120 0.0000 0.0000 0.0000
# 2 33.9888 81.1808 24.2536 0.0000 0.0000 0.0000
# 3 55.4120 24.2536 83.5018 0.0000 0.0000 0.0000
# 4 0.0000 0.0000 0.0000 34.1814 0.0000 0.0000
# 5 0.0000 0.0000 0.0000 0.0000 27.4467 0.0000
# 6 0.0000 0.0000 0.0000 0.0000 0.0000 37.7189
#
#
#
# Elastic Compliance Matrix: (Units=1/GPa)
#
#
# Indices 1 2 3 4 5 6 
#
# 1 0.012440 -0.003003 -0.007383 0.000000 0.000000 0.000000
# 2 -0.003003 0.014213 -0.002136 0.000000 0.000000 0.000000
# 3 -0.007383 -0.002136 0.017496 0.000000 0.000000 0.000000
# 4 0.000000 0.000000 0.000000 0.029256 0.000000 0.000000
# 5 0.000000 0.000000 0.000000 0.000000 0.036434 0.000000
# 6 0.000000 0.000000 0.000000 0.000000 0.000000 0.026512
#
#
# Mechanical properties :
#
#
# Convention : Reuss Voigt Hill
#
# Bulk Modulus (GPa) = 52.33972 57.05207 54.69590
# Shear Modulus (GPa) = 29.80407 31.36975 30.58691
#
# Velocity S-wave (km/s) = 3.90172 4.00289 3.95263
# Velocity P-wave (km/s) = 6.85800 7.10672 6.98347
#
# Compressibility (1/GPa) = 0.01910595
#
# Stress axis : x y z
#
# Youngs Moduli (GPa) = 80.38663 70.35607 57.15734
#
# Poissons Ratio (x) = 0.21125 0.42199
# Poissons Ratio (y) = 0.24137 0.12208
# Poissons Ratio (z) = 0.59350 0.15027
#
# Static dielectric constant tensor:
#      x y z
#    x 3.690850 0.000000 0.000000 
#    y 0.000000 3.614690 0.000000 
#    z 0.000000 0.000000 3.389480 
# 
# 
# High freq. dielectric constant tensor:
#      x y z
#    x 1.774060 0.000000 0.000000 
#    y 0.000000 1.775320 0.000000 
#    z 0.000000 0.000000 1.758390 
# 
# From -- ./inp_files/26463.got.cif
#   From: 2010.03.12/outbox.cif.g09.slc.cpg/sg62_14_cif.got.tgz:26463.got - 2010.04.10 19:12:36.
