data_PCOD8254657
_publ_section_title
;
Structure prediction by ZEFSAII (Michael W. Deem and Ramdas Pophale) SiO2 
 PCOD8254657
Probable space group: P N M A
;
_chemical_formula_sum "Si O2"
_cell_formula_units_Z 40
_cell_length_a 12.078504
_cell_length_b 8.858636
_cell_length_c 18.443734
_cell_angle_alpha 90.000000
_cell_angle_beta 90.000000
_cell_angle_gamma 90.000000
_cell_volume 1973.462392
_symmetry_space_group_name_H-M "P N M A"
_symmetry_group_IT_number 62
_symmetry_cell_setting 'orthorhombic'
loop_
_space_group_symop_operation_xyz
x,y,z
1/2-x,-y,1/2+z
1/2+x,1/2-y,1/2-z
-x,1/2+y,-z
-x,-y,-z
1/2+x,y,1/2-z
1/2-x,1/2+y,1/2+z
x,1/2-y,z
loop_
_atom_site_type_symbol
_atom_site_label
_atom_site_fract_x
_atom_site_fract_y
_atom_site_fract_z
Si Si1 0.955571 0.923562 0.170521
Si Si2 0.304993 0.423906 0.614485
Si Si3 0.192449 0.075622 0.963937
Si Si4 0.443654 0.425189 0.931154
Si Si5 0.093460 0.927097 0.682492
O O1 0.927602 0.750000 0.188893
O O2 0.896251 0.971919 0.096348
O O3 0.086495 0.948874 0.163056
O O4 0.907491 0.027314 0.233742
O O5 0.267556 0.250000 0.615669
O O6 0.331113 0.470913 0.532504
O O7 0.208484 0.526358 0.646231
O O8 0.179219 0.250000 0.986940
O O9 0.313452 0.044460 0.931615
O O10 0.472834 0.250000 0.933167
O O11 0.490664 0.494367 0.857292
O O12 0.500000 0.500000 0.000000
O O13 0.079925 0.750000 0.674052
#
# Coordination Sequence:
#
# PCOD8254657 Si02
#       5
#     8   8   8   8   8
#     4  10  24  44  65  93 127 167 210 259 321 377
#     4  11  23  41  67  93 126 166 208 259 313 378
#     4  10  22  41  67  95 126 162 207 260 315 377
#     4  11  22  39  64  94 126 164 208 257 311 372
#     4  12  26  42  62  92 129 168 212 263 313 372
#
# _framework density 20.268944999999999
#
# number of rings (size 3 to 8) (size 9 to 14) (size 15 to 20)
#    0.000    1.200    2.000    3.600    2.800    3.200 
#    0.000    0.000    0.000    0.000    0.000    0.000 
#    0.000    0.000    0.000    0.000    0.000    0.000 
#
# Total GULP energy -496307.279787 kJ/mol
# GULP energy per Si atom -12407.681995 kJ/mol
# Density = 2.022281 g / cm^3
# Si number density = 20.268945 Si / 1000 Ang^3
#
#
#
# Elastic Constant Matrix: (Units=GPa)
#
#
# Indices 1 2 3 4 5 6 
#
# 1 58.1211 27.1732 18.1390 0.0000 0.0000 0.0000
# 2 27.1732 107.8515 40.2583 0.0000 0.0000 0.0000
# 3 18.1390 40.2583 100.5996 0.0000 0.0000 0.0000
# 4 0.0000 0.0000 0.0000 41.6379 0.0000 0.0000
# 5 0.0000 0.0000 0.0000 0.0000 32.1227 0.0000
# 6 0.0000 0.0000 0.0000 0.0000 0.0000 24.1917
#
#
#
# Elastic Compliance Matrix: (Units=1/GPa)
#
#
# Indices 1 2 3 4 5 6 
#
# 1 0.019791 -0.004296 -0.001849 0.000000 0.000000 0.000000
# 2 -0.004296 0.011833 -0.003961 0.000000 0.000000 0.000000
# 3 -0.001849 -0.003961 0.011859 0.000000 0.000000 0.000000
# 4 0.000000 0.000000 0.000000 0.024017 0.000000 0.000000
# 5 0.000000 0.000000 0.000000 0.000000 0.031131 0.000000
# 6 0.000000 0.000000 0.000000 0.000000 0.000000 0.041336
#
#
# Mechanical properties :
#
#
# Convention : Reuss Voigt Hill
#
# Bulk Modulus (GPa) = 42.97250 48.63478 45.80364
# Shear Modulus (GPa) = 29.77334 31.65724 30.71529
#
# Velocity S-wave (km/s) = 3.83680 3.95632 3.89702
# Velocity P-wave (km/s) = 6.39337 6.70200 6.54951
#
# Compressibility (1/GPa) = 0.02327069
#
# Stress axis : x y z
#
# Youngs Moduli (GPa) = 50.52768 84.51063 84.32527
#
# Poissons Ratio (x) = 0.36306 0.15594
# Poissons Ratio (y) = 0.21707 0.33399
# Poissons Ratio (z) = 0.09344 0.33472
#
# Static dielectric constant tensor:
#      x y z
#    x 3.702900 0.000000 0.000000 
#    y 0.000000 3.813580 0.000000 
#    z 0.000000 0.000000 3.745120 
# 
# 
# High freq. dielectric constant tensor:
#      x y z
#    x 1.805010 0.000000 0.000000 
#    y 0.000000 1.794890 0.000000 
#    z 0.000000 0.000000 1.797790 
# 
# From -- ./inp_files/22784.got.cif
#   From: 2010.03.12/outbox.cif.g09.slc.cpg/sg62_12_cif.got.tgz:22784.got - 2010.04.10 19:12:36.
