data_PCOD8254664
_publ_section_title
;
Structure prediction by ZEFSAII (Michael W. Deem and Ramdas Pophale) SiO2 
 PCOD8254664
Probable space group: P N M A
;
_chemical_formula_sum "Si O2"
_cell_formula_units_Z 64
_cell_length_a 17.208201
_cell_length_b 14.322624
_cell_length_c 12.109084
_cell_angle_alpha 90.000000
_cell_angle_beta 90.000000
_cell_angle_gamma 90.000000
_cell_volume 2984.484673
_symmetry_space_group_name_H-M "P N M A"
_symmetry_group_IT_number 62
_symmetry_cell_setting 'orthorhombic'
loop_
_space_group_symop_operation_xyz
x,y,z
1/2-x,-y,1/2+z
1/2+x,1/2-y,1/2-z
-x,1/2+y,-z
-x,-y,-z
1/2+x,y,1/2-z
1/2-x,1/2+y,1/2+z
x,1/2-y,z
loop_
_atom_site_type_symbol
_atom_site_label
_atom_site_fract_x
_atom_site_fract_y
_atom_site_fract_z
Si Si1 0.450363 0.522913 0.106031
Si Si2 0.306704 0.646676 0.093357
Si Si3 0.196827 0.145228 0.034127
Si Si4 0.347951 0.353099 0.164001
Si Si5 0.731434 0.908884 0.181607
Si Si6 0.211605 0.597913 0.889422
Si Si7 0.413968 0.481527 0.539300
Si Si8 0.568036 0.859120 0.247908
O O1 0.380990 0.586508 0.062670
O O2 0.418430 0.426981 0.160211
O O3 0.498290 0.581175 0.196210
O O4 0.500000 0.500000 0.000000
O O5 0.332433 0.750000 0.128730
O O6 0.261163 0.599249 0.193613
O O7 0.252300 0.656058 0.985983
O O8 0.175423 0.250000 0.072342
O O9 0.209328 0.143529 0.901510
O O10 0.127896 0.078087 0.077558
O O11 0.278846 0.110959 0.084675
O O12 0.377610 0.250000 0.126616
O O13 0.312537 0.339397 0.286110
O O14 0.644792 0.866464 0.171397
O O15 0.729016 0.017748 0.150854
O O16 0.132003 0.553941 0.933321
O O17 0.500000 0.500000 0.500000
O O18 0.412285 0.403338 0.633779
O O19 0.544588 0.750000 0.260618
#
# Coordination Sequence:
#
# PCOD8254664 Si02
#       8
#     8   8   8   8   8   8   8   8
#     4  12  26  46  66 100 141 178 220 283 348 412
#     4  12  24  42  70 104 135 177 231 285 342 408
#     4  10  22  41  68  99 130 175 227 280 336 409
#     4  11  23  43  70  98 134 180 230 279 346 421
#     4  11  22  41  70  99 135 174 228 283 336 404
#     4  11  22  42  68  99 137 176 226 285 343 400
#     4  11  24  40  60  93 133 175 221 275 338 399
#     4  12  25  43  67  97 135 178 225 277 337 405
#
# _framework density 21.444237999999999
#
# number of rings (size 3 to 8) (size 9 to 14) (size 15 to 20)
#    0.000    0.750    2.500    6.375    1.750    3.000 
#    0.000    1.875    0.000    0.000    0.000    0.000 
#    0.000    0.000    0.000    0.000    0.000    0.000 
#
# Total GULP energy -793680.200398 kJ/mol
# GULP energy per Si atom -12401.253131 kJ/mol
# Density = 2.139543 g / cm^3
# Si number density = 21.444238 Si / 1000 Ang^3
#
#
#
# Elastic Constant Matrix: (Units=GPa)
#
#
# Indices 1 2 3 4 5 6 
#
# 1 124.3937 60.3809 34.0421 0.0000 0.0000 0.0000
# 2 60.3809 151.0172 33.3034 0.0000 0.0000 0.0000
# 3 34.0421 33.3034 108.1370 0.0000 0.0000 0.0000
# 4 0.0000 0.0000 0.0000 26.4556 0.0000 0.0000
# 5 0.0000 0.0000 0.0000 0.0000 31.7336 0.0000
# 6 0.0000 0.0000 0.0000 0.0000 0.0000 22.5659
#
#
#
# Elastic Compliance Matrix: (Units=1/GPa)
#
#
# Indices 1 2 3 4 5 6 
#
# 1 0.010418 -0.003693 -0.002142 0.000000 0.000000 0.000000
# 2 -0.003693 0.008413 -0.001429 0.000000 0.000000 0.000000
# 3 -0.002142 -0.001429 0.010362 0.000000 0.000000 0.000000
# 4 0.000000 0.000000 0.000000 0.037799 0.000000 0.000000
# 5 0.000000 0.000000 0.000000 0.000000 0.031512 0.000000
# 6 0.000000 0.000000 0.000000 0.000000 0.000000 0.044315
#
#
# Mechanical properties :
#
#
# Convention : Reuss Voigt Hill
#
# Bulk Modulus (GPa) = 68.18683 71.00008 69.59346
# Shear Modulus (GPa) = 30.81945 33.20576 32.01261
#
# Velocity S-wave (km/s) = 3.79514 3.93933 3.86791
# Velocity P-wave (km/s) = 7.14636 7.33976 7.24371
#
# Compressibility (1/GPa) = 0.01466559
#
# Stress axis : x y z
#
# Youngs Moduli (GPa) = 95.98966 118.85910 96.50763
#
# Poissons Ratio (x) = 0.43893 0.20674
# Poissons Ratio (y) = 0.35448 0.13787
# Poissons Ratio (z) = 0.20563 0.16980
#
# Static dielectric constant tensor:
#      x y z
#    x 3.960740 0.000000 0.000000 
#    y 0.000000 3.913260 0.000000 
#    z 0.000000 0.000000 4.163410 
# 
# 
# High freq. dielectric constant tensor:
#      x y z
#    x 1.832370 0.000000 0.000000 
#    y 0.000000 1.852440 0.000000 
#    z 0.000000 0.000000 1.848040 
# 
# From -- ./inp_files/14323.got.cif
#   From: 2010.03.12/outbox.cif.g09.slc.cpg/sg62_8_cif.got.tgz:14323.got - 2010.04.10 19:12:36.
