data_PCOD8254249
_publ_section_title
;
Structure prediction by ZEFSAII (Michael W. Deem and Ramdas Pophale) SiO2 
 PCOD8254249
Probable space group: P N M A
;
_chemical_formula_sum "Si O2"
_cell_formula_units_Z 64
_cell_length_a 8.877339
_cell_length_b 22.300055
_cell_length_c 15.274027
_cell_angle_alpha 90.000000
_cell_angle_beta 90.000000
_cell_angle_gamma 90.000000
_cell_volume 3023.725015
_symmetry_space_group_name_H-M "P N M A"
_symmetry_group_IT_number 62
_symmetry_cell_setting 'orthorhombic'
loop_
_space_group_symop_operation_xyz
x,y,z
1/2-x,-y,1/2+z
1/2+x,1/2-y,1/2-z
-x,1/2+y,-z
-x,-y,-z
1/2+x,y,1/2-z
1/2-x,1/2+y,1/2+z
x,1/2-y,z
loop_
_atom_site_type_symbol
_atom_site_label
_atom_site_fract_x
_atom_site_fract_y
_atom_site_fract_z
Si Si1 0.411799 0.539573 0.898526
Si Si2 0.868320 0.647529 0.015288
Si Si3 0.073664 0.910941 0.444956
Si Si4 0.766997 0.682194 0.832164
Si Si5 0.878350 0.678125 0.343175
Si Si6 0.485092 0.394156 0.261451
Si Si7 0.921540 0.051958 0.057276
Si Si8 0.455178 0.315850 0.673249
O O1 0.454209 0.469607 0.884941
O O2 0.404630 0.570814 0.804652
O O3 0.257281 0.546364 0.953663
O O4 0.541162 0.572089 0.954472
O O5 0.750200 0.604046 0.063402
O O6 0.937236 0.690782 0.088797
O O7 0.776226 0.681012 0.938268
O O8 0.015829 0.613515 0.981080
O O9 0.969759 0.854537 0.419885
O O10 0.725061 0.750000 0.803215
O O11 0.932241 0.664821 0.797953
O O12 0.657659 0.632188 0.790839
O O13 0.887421 0.750000 0.357858
O O14 0.706291 0.653044 0.345252
O O15 0.952820 0.654412 0.252755
O O16 0.451382 0.443540 0.337541
O O17 0.000000 0.000000 0.000000
O O18 0.412042 0.250000 0.706282
#
# Coordination Sequence:
#
# PCOD8254249 Si02
#       8
#     8   8   8   8   8   8   8   8
#     4  11  23  44  63  92 132 169 219 270 327 397
#     4  11  22  38  65  94 126 167 219 270 337 395
#     4  11  23  39  65  94 126 169 216 274 330 394
#     4  11  23  41  64  95 130 174 223 273 337 399
#     4  10  22  41  63  93 131 174 221 275 337 401
#     4  11  23  42  67  93 133 172 217 280 333 396
#     4  11  23  42  67  92 127 174 214 275 334 398
#     4  10  21  40  63  89 129 170 213 271 327 396
#
# _framework density 21.165946999999999
#
# number of rings (size 3 to 8) (size 9 to 14) (size 15 to 20)
#    0.000    1.250    3.750    2.250    0.000    3.000 
#    2.250    0.000    0.000    0.000    0.000    0.000 
#    0.000    0.000    0.000    0.000    0.000    0.000 
#
# Total GULP energy -793133.826422 kJ/mol
# GULP energy per Si atom -12392.716038 kJ/mol
# Density = 2.111777 g / cm^3
# Si number density = 21.165947 Si / 1000 Ang^3
#
#
#
# Elastic Constant Matrix: (Units=GPa)
#
#
# Indices 1 2 3 4 5 6 
#
# 1 113.8171 29.6827 30.6317 0.0000 0.0000 0.0000
# 2 29.6827 92.3295 45.2447 0.0000 0.0000 0.0000
# 3 30.6317 45.2447 91.5594 0.0000 0.0000 0.0000
# 4 0.0000 0.0000 0.0000 29.1713 0.0000 0.0000
# 5 0.0000 0.0000 0.0000 0.0000 36.7084 0.0000
# 6 0.0000 0.0000 0.0000 0.0000 0.0000 30.6038
#
#
#
# Elastic Compliance Matrix: (Units=1/GPa)
#
#
# Indices 1 2 3 4 5 6 
#
# 1 0.009946 -0.002068 -0.002306 0.000000 0.000000 0.000000
# 2 -0.002068 0.014721 -0.006583 0.000000 0.000000 0.000000
# 3 -0.002306 -0.006583 0.014946 0.000000 0.000000 0.000000
# 4 0.000000 0.000000 0.000000 0.034280 0.000000 0.000000
# 5 0.000000 0.000000 0.000000 0.000000 0.027242 0.000000
# 6 0.000000 0.000000 0.000000 0.000000 0.000000 0.032676
#
#
# Mechanical properties :
#
#
# Convention : Reuss Voigt Hill
#
# Bulk Modulus (GPa) = 56.49410 56.53601 56.51506
# Shear Modulus (GPa) = 30.93605 32.10650 31.52128
#
# Velocity S-wave (km/s) = 3.82723 3.89896 3.86326
# Velocity P-wave (km/s) = 6.80288 6.85842 6.83071
#
# Compressibility (1/GPa) = 0.01770096
#
# Stress axis : x y z
#
# Youngs Moduli (GPa) = 100.54528 67.92863 66.90638
#
# Poissons Ratio (x) = 0.14045 0.15427
# Poissons Ratio (y) = 0.20788 0.44044
# Poissons Ratio (z) = 0.23183 0.44717
#
# Static dielectric constant tensor:
#      x y z
#    x 3.872500 0.000000 0.000000 
#    y 0.000000 3.559300 0.000000 
#    z 0.000000 0.000000 3.789290 
# 
# 
# High freq. dielectric constant tensor:
#      x y z
#    x 1.840340 0.000000 0.000000 
#    y 0.000000 1.813860 0.000000 
#    z 0.000000 0.000000 1.828250 
# 
# From -- ./inp_files/17359.got.cif
#   From: 2010.03.12/outbox.cif.g09.slc.cpg/sg62_9_cif.got.tgz:17359.got - 2010.04.10 19:12:36.
