data_PCOD8254192
_publ_section_title
;
Structure prediction by ZEFSAII (Michael W. Deem and Ramdas Pophale) SiO2 
 PCOD8254192
Probable space group: P N M A
;
_chemical_formula_sum "Si O2"
_cell_formula_units_Z 64
_cell_length_a 15.174808
_cell_length_b 8.367150
_cell_length_c 23.445385
_cell_angle_alpha 90.000000
_cell_angle_beta 90.000000
_cell_angle_gamma 90.000000
_cell_volume 2976.858066
_symmetry_space_group_name_H-M "P N M A"
_symmetry_group_IT_number 62
_symmetry_cell_setting 'orthorhombic'
loop_
_space_group_symop_operation_xyz
x,y,z
1/2-x,-y,1/2+z
1/2+x,1/2-y,1/2-z
-x,1/2+y,-z
-x,-y,-z
1/2+x,y,1/2-z
1/2-x,1/2+y,1/2+z
x,1/2-y,z
loop_
_atom_site_type_symbol
_atom_site_label
_atom_site_fract_x
_atom_site_fract_y
_atom_site_fract_z
Si Si1 0.932621 0.436154 0.252770
Si Si2 0.262166 0.935389 0.754370
Si Si3 0.263505 0.931509 0.021403
Si Si4 0.818729 0.065405 0.862845
Si Si5 0.502922 0.935872 0.629158
Si Si6 0.582847 0.061305 0.166434
Si Si7 0.424148 0.067086 0.960085
Si Si8 0.588717 0.435725 0.527965
O O1 0.917260 0.250000 0.264259
O O2 0.835485 0.517166 0.246272
O O3 0.987328 0.468231 0.195835
O O4 0.993232 0.508264 0.303903
O O5 0.251909 0.750000 0.768761
O O6 0.329217 0.009695 0.801945
O O7 0.301217 0.956296 0.691580
O O8 0.293014 0.750000 0.008546
O O9 0.333543 0.051806 0.994546
O O10 0.169715 0.960312 0.993193
O O11 0.257238 0.959316 0.089641
O O12 0.825853 0.250000 0.844619
O O13 0.909211 0.005050 0.891231
O O14 0.509302 0.750000 0.613569
O O15 0.579292 0.031636 0.595719
O O16 0.583202 0.250000 0.176045
O O17 0.582310 0.023686 0.099824
O O18 0.443686 0.250000 0.946377
O O19 0.500000 0.000000 0.000000
O O20 0.500000 0.500000 0.500000
O O21 0.604274 0.250000 0.514632
#
# Coordination Sequence:
#
# PCOD8254192 Si02
#       8
#     8   8   8   8   8   8   8   8
#     4   9  20  38  63  95 123 163 211 254 317 390
#     4  10  21  39  65  94 127 168 211 259 322 393
#     4  11  25  45  67  94 130 175 222 273 329 391
#     4  11  23  39  62  93 129 164 211 271 327 388
#     4  11  21  38  63  91 127 171 215 260 315 387
#     4  10  21  42  67  96 133 171 217 271 324 390
#     4  12  28  49  71  97 130 174 228 284 340 398
#     4  12  24  39  60  94 133 173 215 262 322 389
#
# _framework density 21.499175999999999
#
# number of rings (size 3 to 8) (size 9 to 14) (size 15 to 20)
#    0.000    1.250    2.500    3.375    3.500    2.000 
#    0.000    1.250    0.000    0.000    0.000    0.000 
#    0.000    0.000    0.000    0.000    0.000    0.000 
#
# Total GULP energy -793580.519490 kJ/mol
# GULP energy per Si atom -12399.695617 kJ/mol
# Density = 2.145024 g / cm^3
# Si number density = 21.499176 Si / 1000 Ang^3
#
#
#
# Elastic Constant Matrix: (Units=GPa)
#
#
# Indices 1 2 3 4 5 6 
#
# 1 144.7528 8.5840 54.1149 0.0000 0.0000 0.0000
# 2 8.5840 40.9267 9.0207 0.0000 0.0000 0.0000
# 3 54.1149 9.0207 117.9752 0.0000 0.0000 0.0000
# 4 0.0000 0.0000 0.0000 29.5697 0.0000 0.0000
# 5 0.0000 0.0000 0.0000 0.0000 33.0812 0.0000
# 6 0.0000 0.0000 0.0000 0.0000 0.0000 23.3954
#
#
#
# Elastic Compliance Matrix: (Units=1/GPa)
#
#
# Indices 1 2 3 4 5 6 
#
# 1 0.008372 -0.000925 -0.003770 0.000000 0.000000 0.000000
# 2 -0.000925 0.024955 -0.001484 0.000000 0.000000 0.000000
# 3 -0.003770 -0.001484 0.010319 0.000000 0.000000 0.000000
# 4 0.000000 0.000000 0.000000 0.033818 0.000000 0.000000
# 5 0.000000 0.000000 0.000000 0.000000 0.030229 0.000000
# 6 0.000000 0.000000 0.000000 0.000000 0.000000 0.042743
#
#
# Mechanical properties :
#
#
# Convention : Reuss Voigt Hill
#
# Bulk Modulus (GPa) = 31.95990 49.67710 40.81850
# Shear Modulus (GPa) = 28.86437 32.67159 30.76798
#
# Velocity S-wave (km/s) = 3.66810 3.90252 3.78712
# Velocity P-wave (km/s) = 5.73043 6.59264 6.17660
#
# Compressibility (1/GPa) = 0.03128921
#
# Stress axis : x y z
#
# Youngs Moduli (GPa) = 119.43912 40.07211 96.90900
#
# Poissons Ratio (x) = 0.03707 0.36532
# Poissons Ratio (y) = 0.11050 0.14379
# Poissons Ratio (z) = 0.45025 0.05946
#
# Static dielectric constant tensor:
#      x y z
#    x 4.908130 0.000000 0.000000 
#    y 0.000000 3.579340 0.000000 
#    z 0.000000 0.000000 3.805880 
# 
# 
# High freq. dielectric constant tensor:
#      x y z
#    x 1.851550 0.000000 0.000000 
#    y 0.000000 1.820460 0.000000 
#    z 0.000000 0.000000 1.854860 
# 
# From -- ./inp_files/29918.got.cif
#   From: 2010.03.12/outbox.cif.g09.slc.cpg/sg62_15_cif.got.tgz:29918.got - 2010.04.10 19:12:36.
