data_PCOD8254090
_publ_section_title
;
Structure prediction by ZEFSAII (Michael W. Deem and Ramdas Pophale) SiO2 
 PCOD8254090
Probable space group: P N M A
;
_chemical_formula_sum "Si O2"
_cell_formula_units_Z 56
_cell_length_a 19.898551
_cell_length_b 8.694838
_cell_length_c 16.402326
_cell_angle_alpha 90.000000
_cell_angle_beta 90.000000
_cell_angle_gamma 90.000000
_cell_volume 2837.843141
_symmetry_space_group_name_H-M "P N M A"
_symmetry_group_IT_number 62
_symmetry_cell_setting 'orthorhombic'
loop_
_space_group_symop_operation_xyz
x,y,z
1/2-x,-y,1/2+z
1/2+x,1/2-y,1/2-z
-x,1/2+y,-z
-x,-y,-z
1/2+x,y,1/2-z
1/2-x,1/2+y,1/2+z
x,1/2-y,z
loop_
_atom_site_type_symbol
_atom_site_label
_atom_site_fract_x
_atom_site_fract_y
_atom_site_fract_z
Si Si1 0.819353 0.428967 0.007943
Si Si2 0.144515 0.429817 0.350785
Si Si3 0.285084 0.570094 0.325143
Si Si4 0.667703 0.426141 0.965973
Si Si5 0.123082 0.930119 0.693823
Si Si6 0.948810 0.568534 0.935648
Si Si7 0.520504 0.432359 0.255301
O O1 0.837350 0.250000 0.005637
O O2 0.822261 0.481479 0.101716
O O3 0.746729 0.464619 0.970313
O O4 0.872851 0.521093 0.954745
O O5 0.158738 0.250000 0.334417
O O6 0.207497 0.524409 0.317292
O O7 0.133754 0.458996 0.446765
O O8 0.079280 0.493007 0.303959
O O9 0.291516 0.750000 0.341228
O O10 0.320153 0.524409 0.241040
O O11 0.656867 0.250000 0.939545
O O12 0.631910 0.537729 0.901959
O O13 0.131016 0.750000 0.711487
O O14 0.050530 0.992719 0.721983
O O15 0.955193 0.750000 0.938230
O O16 0.967822 0.504232 0.846381
O O17 0.000000 0.500000 0.000000
O O18 0.521746 0.250000 0.254529
#
# Coordination Sequence:
#
# PCOD8254090 Si02
#       7
#     8   8   8   8   8   8   8
#     4  10  21  39  60  84 117 154 194 243 301 355
#     4   9  19  40  63  84 114 153 194 245 302 350
#     4  11  22  37  59  88 119 151 195 245 295 352
#     4   9  20  37  58  85 117 150 190 244 299 347
#     4  11  22  37  59  85 118 158 198 238 290 355
#     4  11  22  37  59  87 120 158 202 248 300 360
#     4   9  21  39  59  85 115 153 199 243 294 354
#
# _framework density 19.733294999999998
#
# number of rings (size 3 to 8) (size 9 to 14) (size 15 to 20)
#    0.000    2.000    0.000    4.286    2.000    4.571 
#    0.000    4.286    0.000    0.000    0.000    0.000 
#    0.000    0.000    0.000    0.000    0.000    0.000 
#
# Total GULP energy -694669.778775 kJ/mol
# GULP energy per Si atom -12404.817478 kJ/mol
# Density = 1.968838 g / cm^3
# Si number density = 19.733295 Si / 1000 Ang^3
#
#
#
# Elastic Constant Matrix: (Units=GPa)
#
#
# Indices 1 2 3 4 5 6 
#
# 1 105.7711 32.3473 77.4483 0.0000 0.0000 0.0000
# 2 32.3473 55.9102 30.6604 0.0000 0.0000 0.0000
# 3 77.4483 30.6604 139.0365 0.0000 0.0000 0.0000
# 4 0.0000 0.0000 0.0000 32.8324 0.0000 0.0000
# 5 0.0000 0.0000 0.0000 0.0000 39.3947 0.0000
# 6 0.0000 0.0000 0.0000 0.0000 0.0000 22.6096
#
#
#
# Elastic Compliance Matrix: (Units=1/GPa)
#
#
# Indices 1 2 3 4 5 6 
#
# 1 0.017275 -0.005367 -0.008439 0.000000 0.000000 0.000000
# 2 -0.005367 0.022013 -0.001865 0.000000 0.000000 0.000000
# 3 -0.008439 -0.001865 0.012305 0.000000 0.000000 0.000000
# 4 0.000000 0.000000 0.000000 0.030458 0.000000 0.000000
# 5 0.000000 0.000000 0.000000 0.000000 0.025384 0.000000
# 6 0.000000 0.000000 0.000000 0.000000 0.000000 0.044229
#
#
# Mechanical properties :
#
#
# Convention : Reuss Voigt Hill
#
# Bulk Modulus (GPa) = 49.37981 64.62552 57.00266
# Shear Modulus (GPa) = 26.34951 29.65146 28.00048
#
# Velocity S-wave (km/s) = 3.65812 3.88056 3.77098
# Velocity P-wave (km/s) = 6.55136 7.27316 6.92168
#
# Compressibility (1/GPa) = 0.02025119
#
# Stress axis : x y z
#
# Youngs Moduli (GPa) = 57.88652 45.42673 81.26971
#
# Poissons Ratio (x) = 0.24379 0.68587
# Poissons Ratio (y) = 0.31065 0.15157
# Poissons Ratio (z) = 0.48853 0.08472
#
# Static dielectric constant tensor:
#      x y z
#    x 3.704380 0.000000 0.000000 
#    y 0.000000 3.415710 0.000000 
#    z 0.000000 0.000000 3.698180 
# 
# 
# High freq. dielectric constant tensor:
#      x y z
#    x 1.773560 0.000000 0.000000 
#    y 0.000000 1.757530 0.000000 
#    z 0.000000 0.000000 1.777490 
# 
# From -- ./inp_files/20302.got.cif
#   From: 2010.03.12/outbox.cif.g09.slc.cpg/sg62_11_cif.got.tgz:20302.got - 2010.04.10 19:12:36.
