data_PCOD8254678
_publ_section_title
;
Structure prediction by ZEFSAII (Michael W. Deem and Ramdas Pophale) SiO2 
 PCOD8254678
Probable space group: P N M A
;
_chemical_formula_sum "Si O2"
_cell_formula_units_Z 40
_cell_length_a 18.457469
_cell_length_b 8.814809
_cell_length_c 12.262936
_cell_angle_alpha 90.000000
_cell_angle_beta 90.000000
_cell_angle_gamma 90.000000
_cell_volume 1995.168207
_symmetry_space_group_name_H-M "P N M A"
_symmetry_group_IT_number 62
_symmetry_cell_setting 'orthorhombic'
loop_
_space_group_symop_operation_xyz
x,y,z
1/2-x,-y,1/2+z
1/2+x,1/2-y,1/2-z
-x,1/2+y,-z
-x,-y,-z
1/2+x,y,1/2-z
1/2-x,1/2+y,1/2+z
x,1/2-y,z
loop_
_atom_site_type_symbol
_atom_site_label
_atom_site_fract_x
_atom_site_fract_y
_atom_site_fract_z
Si Si1 0.605571 0.574425 0.683539
Si Si2 0.069180 0.428379 0.442648
Si Si3 0.169167 0.575765 0.046938
Si Si4 0.183731 0.573797 0.593237
Si Si5 0.954628 0.425495 0.783573
O O1 0.581534 0.750000 0.684424
O O2 0.654072 0.536466 0.578782
O O3 0.652972 0.532148 0.788413
O O4 0.534816 0.471425 0.681059
O O5 0.060689 0.250000 0.449645
O O6 0.142508 0.478433 0.501470
O O7 0.073571 0.477055 0.317589
O O8 0.000000 0.500000 0.500000
O O9 0.193301 0.750000 0.060684
O O10 0.232166 0.468412 0.091341
O O11 0.096965 0.540918 0.114617
O O12 0.173377 0.750000 0.567060
O O13 0.954187 0.250000 0.749697
#
# Coordination Sequence:
#
# PCOD8254678 Si02
#       5
#     8   8   8   8   8
#     4  10  22  42  65  90 126 168 211 260 314 372
#     4  12  24  41  65  92 126 164 209 260 313 372
#     4  10  24  43  63  93 131 168 210 260 315 376
#     4  11  24  41  63  94 127 165 211 259 318 376
#     4  11  23  40  66  97 128 164 211 260 312 376
#
# _framework density 20.048435000000001
#
# number of rings (size 3 to 8) (size 9 to 14) (size 15 to 20)
#    0.000    1.200    2.000    3.600    2.800    3.200 
#    0.000    0.000    0.000    0.000    0.000    0.000 
#    0.000    0.000    0.000    0.000    0.000    0.000 
#
# Total GULP energy -496319.323336 kJ/mol
# GULP energy per Si atom -12407.983083 kJ/mol
# Density = 2.000280 g / cm^3
# Si number density = 20.048435 Si / 1000 Ang^3
#
#
#
# Elastic Constant Matrix: (Units=GPa)
#
#
# Indices 1 2 3 4 5 6 
#
# 1 123.1976 51.9238 42.6557 0.0000 0.0000 0.0000
# 2 51.9238 107.4178 33.3194 0.0000 0.0000 0.0000
# 3 42.6557 33.3194 83.9336 0.0000 0.0000 0.0000
# 4 0.0000 0.0000 0.0000 29.2736 0.0000 0.0000
# 5 0.0000 0.0000 0.0000 0.0000 33.1790 0.0000
# 6 0.0000 0.0000 0.0000 0.0000 0.0000 39.5522
#
#
#
# Elastic Compliance Matrix: (Units=1/GPa)
#
#
# Indices 1 2 3 4 5 6 
#
# 1 0.011297 -0.004197 -0.004075 0.000000 0.000000 0.000000
# 2 -0.004197 0.012176 -0.002701 0.000000 0.000000 0.000000
# 3 -0.004075 -0.002701 0.015057 0.000000 0.000000 0.000000
# 4 0.000000 0.000000 0.000000 0.034160 0.000000 0.000000
# 5 0.000000 0.000000 0.000000 0.000000 0.030140 0.000000
# 6 0.000000 0.000000 0.000000 0.000000 0.000000 0.025283
#
#
# Mechanical properties :
#
#
# Convention : Reuss Voigt Hill
#
# Bulk Modulus (GPa) = 60.29588 63.37188 61.83388
# Shear Modulus (GPa) = 32.13659 32.84433 32.49046
#
# Velocity S-wave (km/s) = 4.00803 4.05192 4.03003
# Velocity P-wave (km/s) = 7.18049 7.31907 7.25011
#
# Compressibility (1/GPa) = 0.01658488
#
# Stress axis : x y z
#
# Youngs Moduli (GPa) = 88.52112 82.13071 66.41297
#
# Poissons Ratio (x) = 0.34467 0.27064
# Poissons Ratio (y) = 0.37149 0.17936
# Poissons Ratio (z) = 0.36074 0.22181
#
# Static dielectric constant tensor:
#      x y z
#    x 3.590050 0.000000 0.000000 
#    y 0.000000 3.751970 0.000000 
#    z 0.000000 0.000000 3.864950 
# 
# 
# High freq. dielectric constant tensor:
#      x y z
#    x 1.787130 0.000000 0.000000 
#    y 0.000000 1.787680 0.000000 
#    z 0.000000 0.000000 1.797860 
# 
# From -- ./inp_files/13836.got.cif
#   From: 2010.03.12/outbox.cif.g09.slc.cpg/sg62_7_cif.got.tgz:13836.got - 2010.04.10 19:12:36.
