data_PCOD8254298
_publ_section_title
;
Structure prediction by ZEFSAII (Michael W. Deem and Ramdas Pophale) SiO2 
 PCOD8254298
Probable space group: P N M A
;
_chemical_formula_sum "Si O2"
_cell_formula_units_Z 64
_cell_length_a 13.052190
_cell_length_b 25.838765
_cell_length_c 8.269749
_cell_angle_alpha 90.000000
_cell_angle_beta 90.000000
_cell_angle_gamma 90.000000
_cell_volume 2788.993278
_symmetry_space_group_name_H-M "P N M A"
_symmetry_group_IT_number 62
_symmetry_cell_setting 'orthorhombic'
loop_
_space_group_symop_operation_xyz
x,y,z
1/2-x,-y,1/2+z
1/2+x,1/2-y,1/2-z
-x,1/2+y,-z
-x,-y,-z
1/2+x,y,1/2-z
1/2-x,1/2+y,1/2+z
x,1/2-y,z
loop_
_atom_site_type_symbol
_atom_site_label
_atom_site_fract_x
_atom_site_fract_y
_atom_site_fract_z
Si Si1 0.880362 0.120395 0.630764
Si Si2 0.243936 0.690873 0.609505
Si Si3 0.423020 0.902140 0.962650
Si Si4 0.610901 0.476311 0.525914
Si Si5 0.205019 0.193799 0.462532
Si Si6 0.414404 0.308947 0.594546
Si Si7 0.061583 0.128431 0.101020
Si Si8 0.736133 0.459463 0.823511
O O1 0.826524 0.150777 0.485275
O O2 0.941860 0.162062 0.739450
O O3 0.801103 0.085425 0.732853
O O4 0.970233 0.084759 0.552837
O O5 0.223153 0.750000 0.553239
O O6 0.227154 0.683214 0.800967
O O7 0.362759 0.676945 0.586003
O O8 0.387940 0.843813 0.001213
O O9 0.441568 0.903289 0.769843
O O10 0.331134 0.938979 0.024430
O O11 0.500000 0.500000 0.500000
O O12 0.599253 0.414428 0.525990
O O13 0.659338 0.488744 0.700971
O O14 0.686213 0.497443 0.387956
O O15 0.152658 0.250000 0.452117
O O16 0.290728 0.191440 0.600788
O O17 0.457457 0.250000 0.587305
O O18 0.454147 0.345231 0.447093
#
# Coordination Sequence:
#
# PCOD8254298 Si02
#       8
#     8   8   8   8   8   8   8   8
#     4  12  24  41  67 102 143 179 231 290 356 432
#     4  10  21  40  66  97 135 178 224 280 344 417
#     4  11  24  42  68  96 134 184 231 289 349 422
#     4  12  27  47  74 103 139 185 240 302 369 439
#     4   9  20  38  62  93 132 178 225 272 335 415
#     4  11  22  38  64  99 139 182 226 279 346 419
#     4  11  23  44  67  99 135 182 231 283 350 424
#     4  12  25  48  69 102 140 183 243 306 371 431
#
# _framework density 22.947348000000002
#
# number of rings (size 3 to 8) (size 9 to 14) (size 15 to 20)
#    0.000    1.000    2.500    4.500    0.000    2.500 
#    0.000    2.500    0.000    0.000    0.000    0.000 
#    0.000    0.000    0.000    0.000    0.000    0.000 
#
# Total GULP energy -793236.679843 kJ/mol
# GULP energy per Si atom -12394.323123 kJ/mol
# Density = 2.289512 g / cm^3
# Si number density = 22.947348 Si / 1000 Ang^3
#
#
#
# Elastic Constant Matrix: (Units=GPa)
#
#
# Indices 1 2 3 4 5 6 
#
# 1 92.5390 14.1198 32.0493 0.0000 0.0000 0.0000
# 2 14.1198 70.9426 12.1999 0.0000 0.0000 0.0000
# 3 32.0493 12.1999 70.1299 0.0000 0.0000 0.0000
# 4 0.0000 0.0000 0.0000 35.4956 0.0000 0.0000
# 5 0.0000 0.0000 0.0000 0.0000 42.0347 0.0000
# 6 0.0000 0.0000 0.0000 0.0000 0.0000 31.4585
#
#
#
# Elastic Compliance Matrix: (Units=1/GPa)
#
#
# Indices 1 2 3 4 5 6 
#
# 1 0.013015 -0.001616 -0.005667 0.000000 0.000000 0.000000
# 2 -0.001616 0.014731 -0.001824 0.000000 0.000000 0.000000
# 3 -0.005667 -0.001824 0.017166 0.000000 0.000000 0.000000
# 4 0.000000 0.000000 0.000000 0.028173 0.000000 0.000000
# 5 0.000000 0.000000 0.000000 0.000000 0.023790 0.000000
# 6 0.000000 0.000000 0.000000 0.000000 0.000000 0.031788
#
#
# Mechanical properties :
#
#
# Convention : Reuss Voigt Hill
#
# Bulk Modulus (GPa) = 37.45468 38.92772 38.19120
# Shear Modulus (GPa) = 32.09713 33.48058 32.78885
#
# Velocity S-wave (km/s) = 3.74402 3.82385 3.78414
# Velocity P-wave (km/s) = 5.92011 6.04124 5.98098
#
# Compressibility (1/GPa) = 0.02669893
#
# Stress axis : x y z
#
# Youngs Moduli (GPa) = 76.83164 67.88296 58.25341
#
# Poissons Ratio (x) = 0.10970 0.33012
# Poissons Ratio (y) = 0.12416 0.10627
# Poissons Ratio (z) = 0.43540 0.12383
#
# Static dielectric constant tensor:
#      x y z
#    x 4.074100 0.000000 0.000000 
#    y 0.000000 4.128920 0.000000 
#    z 0.000000 0.000000 4.284930 
# 
# 
# High freq. dielectric constant tensor:
#      x y z
#    x 1.906010 0.000000 0.000000 
#    y 0.000000 1.903530 0.000000 
#    z 0.000000 0.000000 1.908230 
# 
# From -- ./inp_files/6966.got.cif
#   From: 2010.03.12/outbox.cif.g09.slc.cpg/sg62_4_cif.got.tgz:6966.got - 2010.04.10 19:12:36.
