data_PCOD8254937
_publ_section_title
;
Structure prediction by ZEFSAII (Michael W. Deem and Ramdas Pophale) SiO2 
 PCOD8254937
Probable space group: P N M A
;
_chemical_formula_sum "Si O2"
_cell_formula_units_Z 32
_cell_length_a 8.178632
_cell_length_b 11.432933
_cell_length_c 15.218838
_cell_angle_alpha 90.000000
_cell_angle_beta 90.000000
_cell_angle_gamma 90.000000
_cell_volume 1423.048887
_symmetry_space_group_name_H-M "P N M A"
_symmetry_group_IT_number 62
_symmetry_cell_setting 'orthorhombic'
loop_
_space_group_symop_operation_xyz
x,y,z
1/2-x,-y,1/2+z
1/2+x,1/2-y,1/2-z
-x,1/2+y,-z
-x,-y,-z
1/2+x,y,1/2-z
1/2-x,1/2+y,1/2+z
x,1/2-y,z
loop_
_atom_site_type_symbol
_atom_site_label
_atom_site_fract_x
_atom_site_fract_y
_atom_site_fract_z
Si Si1 0.752822 0.750000 0.882347
Si Si2 0.095560 0.250000 0.288302
Si Si3 0.736375 0.009365 0.155012
Si Si4 0.071466 0.613155 0.192189
Si Si5 0.315909 0.990662 0.532928
O O1 0.582672 0.750000 0.829273
O O2 0.910016 0.750000 0.817773
O O3 0.763944 0.639146 0.943699
O O4 0.204280 0.361900 0.310929
O O5 0.629345 0.914421 0.208852
O O6 0.921833 0.972147 0.172355
O O7 0.698049 0.016590 0.050527
O O8 0.026952 0.750000 0.184774
O O9 0.207312 0.578191 0.117077
O O10 0.500000 0.000000 0.500000
#
# Coordination Sequence:
#
# PCOD8254937 Si02
#       5
#     4   4   8   8   8
#     4  12  26  48  72 113 141 192 248 299 362 430
#     4  12  26  46  78 101 149 184 248 311 354 426
#     4  11  25  46  70 103 141 190 234 299 362 424
#     4  11  24  44  68 102 140 189 236 289 366 439
#     4  10  26  42  73 101 144 186 242 286 367 433
#
# _framework density 22.486927999999999
#
# number of rings (size 3 to 8) (size 9 to 14) (size 15 to 20)
#    0.000    1.000    2.500    2.250   14.000    1.000 
#    0.000    0.000    0.000    0.000    0.000    0.000 
#    0.000    0.000    0.000    0.000    0.000    0.000 
#
# Total GULP energy -396552.468217 kJ/mol
# GULP energy per Si atom -12392.264632 kJ/mol
# Density = 2.243575 g / cm^3
# Si number density = 22.486928 Si / 1000 Ang^3
#
#
#
# Elastic Constant Matrix: (Units=GPa)
#
#
# Indices 1 2 3 4 5 6 
#
# 1 52.9827 19.1387 38.4058 0.0000 0.0000 0.0000
# 2 19.1387 115.0337 22.1291 0.0000 0.0000 0.0000
# 3 38.4058 22.1291 99.3225 0.0000 0.0000 0.0000
# 4 0.0000 0.0000 0.0000 258.4712 0.0000 0.0000
# 5 0.0000 0.0000 0.0000 0.0000 37.6036 0.0000
# 6 0.0000 0.0000 0.0000 0.0000 0.0000 1.7414
#
#
#
# Elastic Compliance Matrix: (Units=1/GPa)
#
#
# Indices 1 2 3 4 5 6 
#
# 1 0.026943 -0.002589 -0.009841 0.000000 0.000000 0.000000
# 2 -0.002589 0.009331 -0.001078 0.000000 0.000000 0.000000
# 3 -0.009841 -0.001078 0.014114 0.000000 0.000000 0.000000
# 4 0.000000 0.000000 0.000000 0.003869 0.000000 0.000000
# 5 0.000000 0.000000 0.000000 0.000000 0.026593 0.000000
# 6 0.000000 0.000000 0.000000 0.000000 0.000000 0.574260
#
#
# Mechanical properties :
#
#
# Convention : Reuss Voigt Hill
#
# Bulk Modulus (GPa) = 42.78795 47.40958 45.09877
# Shear Modulus (GPa) = 7.24724 72.07426 39.66075
#
# Velocity S-wave (km/s) = 1.79718 5.66756 4.20423
# Velocity P-wave (km/s) = 4.83484 7.99733 6.60806
#
# Compressibility (1/GPa) = 0.02337107
#
# Stress axis : x y z
#
# Youngs Moduli (GPa) = 37.11503 107.16674 70.85275
#
# Poissons Ratio (x) = 0.27751 0.69729
# Poissons Ratio (y) = 0.09611 0.07636
# Poissons Ratio (z) = 0.36526 0.11550
#
# Static dielectric constant tensor:
#      x y z
#    x 3.194390 0.000000 0.000000 
#    y 0.000000 3.981520 0.000000 
#    z 0.000000 0.000000 5.283200 
# 
# 
# High freq. dielectric constant tensor:
#      x y z
#    x 1.862060 0.000000 0.000000 
#    y 0.000000 1.893320 0.000000 
#    z 0.000000 0.000000 1.914530 
# 
# From -- ./inp_files/16454.got.cif
#   From: 2010.03.12/outbox.cif.g09.slc.cpg/sg62_9_cif.got.tgz:16454.got - 2010.04.10 19:12:36.
