data_PCOD8254049
_publ_section_title
;
Structure prediction by ZEFSAII (Michael W. Deem and Ramdas Pophale) SiO2 
 PCOD8254049
Probable space group: P N M A
;
_chemical_formula_sum "Si O2"
_cell_formula_units_Z 64
_cell_length_a 23.606441
_cell_length_b 13.974493
_cell_length_c 8.944186
_cell_angle_alpha 90.000000
_cell_angle_beta 90.000000
_cell_angle_gamma 90.000000
_cell_volume 2950.580029
_symmetry_space_group_name_H-M "P N M A"
_symmetry_group_IT_number 62
_symmetry_cell_setting 'orthorhombic'
loop_
_space_group_symop_operation_xyz
x,y,z
1/2-x,-y,1/2+z
1/2+x,1/2-y,1/2-z
-x,1/2+y,-z
-x,-y,-z
1/2+x,y,1/2-z
1/2-x,1/2+y,1/2+z
x,1/2-y,z
loop_
_atom_site_type_symbol
_atom_site_label
_atom_site_fract_x
_atom_site_fract_y
_atom_site_fract_z
Si Si1 0.825781 0.360475 0.335200
Si Si2 0.034732 0.360378 0.705280
Si Si3 0.720681 0.363973 0.844867
Si Si4 0.715385 0.137764 0.509398
Si Si5 0.837116 0.140025 0.985670
Si Si6 0.411935 0.642112 0.522468
Si Si7 0.118380 0.026339 0.515395
Si Si8 0.424814 0.026967 0.703339
O O1 0.835760 0.250000 0.378325
O O2 0.765471 0.399427 0.400579
O O3 0.876004 0.422448 0.407213
O O4 0.828396 0.376964 0.159967
O O5 0.026859 0.250000 0.657415
O O6 0.061603 0.420377 0.570132
O O7 0.974140 0.404684 0.740803
O O8 0.076423 0.368267 0.846777
O O9 0.713229 0.250000 0.851837
O O10 0.718768 0.405629 0.676457
O O11 0.780443 0.398409 0.908999
O O12 0.671844 0.407494 0.947972
O O13 0.722573 0.250000 0.526106
O O14 0.653528 0.113691 0.443721
O O15 0.847870 0.250000 0.946443
O O16 0.890175 0.082782 0.923262
O O17 0.425730 0.750000 0.575067
O O18 0.449335 0.568609 0.620909
O O19 0.114413 0.007439 0.339335
#
# Coordination Sequence:
#
# PCOD8254049 Si02
#       8
#     8   8   8   8   8   8   8   8
#     4  10  23  40  63  95 138 177 218 270 328 399
#     4  11  24  48  72  93 127 177 232 288 338 392
#     4  10  21  38  63  93 132 172 219 274 335 401
#     4   9  18  37  62  91 126 172 215 262 327 391
#     4  10  23  41  62  95 132 177 224 273 334 400
#     4  10  22  40  66  95 127 168 220 275 333 394
#     4  12  25  40  66  98 130 172 227 271 345 393
#     4  12  26  42  66  98 136 178 226 279 334 405
#
# _framework density 21.690650999999999
#
# number of rings (size 3 to 8) (size 9 to 14) (size 15 to 20)
#    0.000    1.500    1.250    3.000    3.500    3.000 
#    0.000    1.875    0.000    0.000    0.000    0.000 
#    0.000    0.000    0.000    0.000    0.000    0.000 
#
# Total GULP energy -793720.003454 kJ/mol
# GULP energy per Si atom -12401.875054 kJ/mol
# Density = 2.164128 g / cm^3
# Si number density = 21.690651 Si / 1000 Ang^3
#
#
#
# Elastic Constant Matrix: (Units=GPa)
#
#
# Indices 1 2 3 4 5 6 
#
# 1 79.5196 31.9723 24.8430 0.0000 0.0000 0.0000
# 2 31.9723 73.6970 35.6217 0.0000 0.0000 0.0000
# 3 24.8430 35.6217 81.6571 0.0000 0.0000 0.0000
# 4 0.0000 0.0000 0.0000 31.7959 0.0000 0.0000
# 5 0.0000 0.0000 0.0000 0.0000 28.6502 0.0000
# 6 0.0000 0.0000 0.0000 0.0000 0.0000 39.7169
#
#
#
# Elastic Compliance Matrix: (Units=1/GPa)
#
#
# Indices 1 2 3 4 5 6 
#
# 1 0.015557 -0.005653 -0.002267 0.000000 0.000000 0.000000
# 2 -0.005653 0.019249 -0.006677 0.000000 0.000000 0.000000
# 3 -0.002267 -0.006677 0.015849 0.000000 0.000000 0.000000
# 4 0.000000 0.000000 0.000000 0.031451 0.000000 0.000000
# 5 0.000000 0.000000 0.000000 0.000000 0.034904 0.000000
# 6 0.000000 0.000000 0.000000 0.000000 0.000000 0.025178
#
#
# Mechanical properties :
#
#
# Convention : Reuss Voigt Hill
#
# Bulk Modulus (GPa) = 46.59824 46.63864 46.61844
# Shear Modulus (GPa) = 28.00568 29.52838 28.76703
#
# Velocity S-wave (km/s) = 3.59714 3.69364 3.64571
# Velocity P-wave (km/s) = 6.22754 6.30389 6.26583
#
# Compressibility (1/GPa) = 0.02146004
#
# Stress axis : x y z
#
# Youngs Moduli (GPa) = 64.28090 51.95023 63.09633
#
# Poissons Ratio (x) = 0.29370 0.14302
# Poissons Ratio (y) = 0.36341 0.42131
# Poissons Ratio (z) = 0.14570 0.34688
#
# Static dielectric constant tensor:
#      x y z
#    x 3.882560 0.000000 0.000000 
#    y 0.000000 4.156630 0.000000 
#    z 0.000000 0.000000 3.896850 
# 
# 
# High freq. dielectric constant tensor:
#      x y z
#    x 1.839630 0.000000 0.000000 
#    y 0.000000 1.872680 0.000000 
#    z 0.000000 0.000000 1.850970 
# 
# From -- ./inp_files/9525.got.cif
#   From: 2010.03.12/outbox.cif.g09.slc.cpg/sg62_5_cif.got.tgz:9525.got - 2010.04.10 19:12:36.
