data_PCOD8254842
_publ_section_title
;
Structure prediction by ZEFSAII (Michael W. Deem and Ramdas Pophale) SiO2 
 PCOD8254842
Probable space group: P N M A
;
_chemical_formula_sum "Si O2"
_cell_formula_units_Z 32
_cell_length_a 9.317773
_cell_length_b 21.490319
_cell_length_c 7.205350
_cell_angle_alpha 90.000000
_cell_angle_beta 90.000000
_cell_angle_gamma 90.000000
_cell_volume 1442.813076
_symmetry_space_group_name_H-M "P N M A"
_symmetry_group_IT_number 62
_symmetry_cell_setting 'orthorhombic'
loop_
_space_group_symop_operation_xyz
x,y,z
1/2-x,-y,1/2+z
1/2+x,1/2-y,1/2-z
-x,1/2+y,-z
-x,-y,-z
1/2+x,y,1/2-z
1/2-x,1/2+y,1/2+z
x,1/2-y,z
loop_
_atom_site_type_symbol
_atom_site_label
_atom_site_fract_x
_atom_site_fract_y
_atom_site_fract_z
Si Si1 0.606414 0.989721 0.668115
Si Si2 0.497114 0.178392 0.890714
Si Si3 0.313807 0.621831 0.396055
Si Si4 0.122208 0.090047 0.319183
O O1 0.515983 0.956342 0.831588
O O2 0.738283 0.946105 0.607897
O O3 0.500000 0.000000 0.500000
O O4 0.666886 0.057650 0.723231
O O5 0.469301 0.250000 0.937998
O O6 0.580731 0.172554 0.695523
O O7 0.348421 0.142712 0.874692
O O8 0.595146 0.149807 0.053748
O O9 0.355572 0.613770 0.609829
#
# Coordination Sequence:
#
# PCOD8254842 Si02
#       4
#     8   8   8   8
#     4  10  23  42  72 108 137 175 234 296 361 418
#     4  12  28  46  69 101 143 195 240 283 349 436
#     4  11  26  45  71 105 142 182 238 300 356 418
#     4  11  24  47  70 107 140 188 232 295 367 418
#
# _framework density 22.178896000000002
#
# number of rings (size 3 to 8) (size 9 to 14) (size 15 to 20)
#    0.000    1.000    2.500    2.250   14.000    4.000 
#    0.000    0.000    0.000    0.000    0.000    0.000 
#    0.000    0.000    0.000    0.000    0.000    0.000 
#
# Total GULP energy -396853.303391 kJ/mol
# GULP energy per Si atom -12401.665731 kJ/mol
# Density = 2.212842 g / cm^3
# Si number density = 22.178896 Si / 1000 Ang^3
#
#
#
# Elastic Constant Matrix: (Units=GPa)
#
#
# Indices 1 2 3 4 5 6 
#
# 1 166.0570 65.2646 38.2074 0.0000 0.0000 0.0000
# 2 65.2646 114.0895 43.3061 0.0000 0.0000 0.0000
# 3 38.2074 43.3061 79.6735 0.0000 0.0000 0.0000
# 4 0.0000 0.0000 0.0000 33.5859 0.0000 0.0000
# 5 0.0000 0.0000 0.0000 0.0000 27.6669 0.0000
# 6 0.0000 0.0000 0.0000 0.0000 0.0000 19.1892
#
#
#
# Elastic Compliance Matrix: (Units=1/GPa)
#
#
# Indices 1 2 3 4 5 6 
#
# 1 0.007945 -0.003904 -0.001688 0.000000 0.000000 0.000000
# 2 -0.003904 0.012962 -0.005173 0.000000 0.000000 0.000000
# 3 -0.001688 -0.005173 0.016173 0.000000 0.000000 0.000000
# 4 0.000000 0.000000 0.000000 0.029774 0.000000 0.000000
# 5 0.000000 0.000000 0.000000 0.000000 0.036144 0.000000
# 6 0.000000 0.000000 0.000000 0.000000 0.000000 0.052113
#
#
# Mechanical properties :
#
#
# Convention : Reuss Voigt Hill
#
# Bulk Modulus (GPa) = 64.31308 72.59736 68.45522
# Shear Modulus (GPa) = 27.49912 30.29120 28.89516
#
# Velocity S-wave (km/s) = 3.52501 3.69964 3.61338
# Velocity P-wave (km/s) = 6.75485 7.14517 6.95275
#
# Compressibility (1/GPa) = 0.01554894
#
# Stress axis : x y z
#
# Youngs Moduli (GPa) = 125.86842 77.14829 61.83331
#
# Poissons Ratio (x) = 0.30120 0.10437
# Poissons Ratio (y) = 0.49141 0.31988
# Poissons Ratio (z) = 0.21245 0.39911
#
# Static dielectric constant tensor:
#      x y z
#    x 4.333000 0.000000 0.000000 
#    y 0.000000 4.332860 0.000000 
#    z 0.000000 0.000000 3.953090 
# 
# 
# High freq. dielectric constant tensor:
#      x y z
#    x 1.896060 0.000000 0.000000 
#    y 0.000000 1.865010 0.000000 
#    z 0.000000 0.000000 1.870210 
# 
# From -- ./inp_files/4106.got.cif
#   From: 2010.03.12/outbox.cif.g09.slc.cpg/sg62_3_cif.got.tgz:4106.got - 2010.04.10 19:12:36.
