data_PCOD8254964
_publ_section_title
;
Structure prediction by ZEFSAII (Michael W. Deem and Ramdas Pophale) SiO2 
 PCOD8254964
Probable space group: P N M A
;
_chemical_formula_sum "Si O2"
_cell_formula_units_Z 48
_cell_length_a 14.993807
_cell_length_b 9.005092
_cell_length_c 20.233706
_cell_angle_alpha 90.000000
_cell_angle_beta 90.000000
_cell_angle_gamma 90.000000
_cell_volume 2731.967356
_symmetry_space_group_name_H-M "P N M A"
_symmetry_group_IT_number 62
_symmetry_cell_setting 'orthorhombic'
loop_
_space_group_symop_operation_xyz
x,y,z
1/2-x,-y,1/2+z
1/2+x,1/2-y,1/2-z
-x,1/2+y,-z
-x,-y,-z
1/2+x,y,1/2-z
1/2-x,1/2+y,1/2+z
x,1/2-y,z
loop_
_atom_site_type_symbol
_atom_site_label
_atom_site_fract_x
_atom_site_fract_y
_atom_site_fract_z
Si Si1 0.613879 0.427342 0.813370
Si Si2 0.306661 0.426054 0.661855
Si Si3 0.502169 0.926557 0.306446
Si Si4 0.922624 0.576615 0.459842
Si Si5 0.566896 0.074162 0.551451
Si Si6 0.276789 0.423299 0.513236
O O1 0.613377 0.250000 0.812084
O O2 0.715999 0.485312 0.803518
O O3 0.553071 0.494793 0.754965
O O4 0.577585 0.482795 0.884307
O O5 0.305537 0.250000 0.663940
O O6 0.395736 0.486904 0.697790
O O7 0.309285 0.474662 0.585525
O O8 0.501408 0.750000 0.301889
O O9 0.458154 0.978038 0.374878
O O10 0.941536 0.750000 0.459740
O O11 0.828073 0.541827 0.494716
O O12 0.000000 0.500000 0.500000
O O13 0.559952 0.250000 0.543794
O O14 0.500000 0.000000 0.500000
O O15 0.667970 0.019641 0.539402
O O16 0.296582 0.250000 0.501767
#
# Coordination Sequence:
#
# PCOD8254964 Si02
#       6
#     8   8   8   8   8   8
#     4   8  15  28  45  68  94 124 162 198 241 287
#     4   8  13  25  45  63  88 125 157 190 237 286
#     4   9  16  27  44  68  95 123 159 205 245 279
#     4   9  18  33  54  75  98 130 165 201 243 293
#     4  11  20  30  48  75 102 127 161 204 247 291
#     4   9  17  32  50  69  97 132 163 194 242 297
#
# _framework density 17.569756999999999
#
# number of rings (size 3 to 8) (size 9 to 14) (size 15 to 20)
#    0.000    3.000    1.667    2.500    0.000    0.667 
#    3.000    0.000    0.000    2.000    0.000    0.000 
#    0.000    0.000    0.000    0.000    0.000    0.000 
#
# Total GULP energy -594882.838398 kJ/mol
# GULP energy per Si atom -12393.392467 kJ/mol
# Density = 1.752977 g / cm^3
# Si number density = 17.569757 Si / 1000 Ang^3
#
#
#
# Elastic Constant Matrix: (Units=GPa)
#
#
# Indices 1 2 3 4 5 6 
#
# 1 172.9691 28.8072 95.2218 0.0000 0.0000 0.0000
# 2 28.8072 27.5226 23.1895 0.0000 0.0000 0.0000
# 3 95.2218 23.1895 117.2566 0.0000 0.0000 0.0000
# 4 0.0000 0.0000 0.0000 18.0937 0.0000 0.0000
# 5 0.0000 0.0000 0.0000 0.0000 36.7220 0.0000
# 6 0.0000 0.0000 0.0000 0.0000 0.0000 26.2396
#
#
#
# Elastic Compliance Matrix: (Units=1/GPa)
#
#
# Indices 1 2 3 4 5 6 
#
# 1 0.010953 -0.004763 -0.007952 0.000000 0.000000 0.000000
# 2 -0.004763 0.045670 -0.005164 0.000000 0.000000 0.000000
# 3 -0.007952 -0.005164 0.016007 0.000000 0.000000 0.000000
# 4 0.000000 0.000000 0.000000 0.055268 0.000000 0.000000
# 5 0.000000 0.000000 0.000000 0.000000 0.027232 0.000000
# 6 0.000000 0.000000 0.000000 0.000000 0.000000 0.038110
#
#
# Mechanical properties :
#
#
# Convention : Reuss Voigt Hill
#
# Bulk Modulus (GPa) = 27.12134 68.02060 47.57097
# Shear Modulus (GPa) = 20.72197 27.57971 24.15084
#
# Velocity S-wave (km/s) = 3.43798 3.96628 3.71154
# Velocity P-wave (km/s) = 5.58834 7.73135 6.74549
#
# Compressibility (1/GPa) = 0.03687134
#
# Stress axis : x y z
#
# Youngs Moduli (GPa) = 91.30274 21.89600 62.47094
#
# Poissons Ratio (x) = 0.10430 0.49679
# Poissons Ratio (y) = 0.43492 0.32259
# Poissons Ratio (z) = 0.72607 0.11307
#
# Static dielectric constant tensor:
#      x y z
#    x 3.745250 0.000000 0.000000 
#    y 0.000000 2.777560 0.000000 
#    z 0.000000 0.000000 3.393480 
# 
# 
# High freq. dielectric constant tensor:
#      x y z
#    x 1.696970 0.000000 0.000000 
#    y 0.000000 1.626400 0.000000 
#    z 0.000000 0.000000 1.665710 
# 
# From -- ./inp_files/26861.got.cif
#   From: 2010.03.12/outbox.cif.g09.slc.cpg/sg62_14_cif.got.tgz:26861.got - 2010.04.10 19:12:36.
