data_PCOD8254634
_publ_section_title
;
Structure prediction by ZEFSAII (Michael W. Deem and Ramdas Pophale) SiO2 
 PCOD8254634
Probable space group: P N M A
;
_chemical_formula_sum "Si O2"
_cell_formula_units_Z 64
_cell_length_a 23.611729
_cell_length_b 8.585179
_cell_length_c 15.291419
_cell_angle_alpha 90.000000
_cell_angle_beta 90.000000
_cell_angle_gamma 90.000000
_cell_volume 3099.737613
_symmetry_space_group_name_H-M "P N M A"
_symmetry_group_IT_number 62
_symmetry_cell_setting 'orthorhombic'
loop_
_space_group_symop_operation_xyz
x,y,z
1/2-x,-y,1/2+z
1/2+x,1/2-y,1/2-z
-x,1/2+y,-z
-x,-y,-z
1/2+x,y,1/2-z
1/2-x,1/2+y,1/2+z
x,1/2-y,z
loop_
_atom_site_type_symbol
_atom_site_label
_atom_site_fract_x
_atom_site_fract_y
_atom_site_fract_z
Si Si1 0.633561 0.571181 0.099764
Si Si2 0.136655 0.928091 0.597787
Si Si3 0.354975 0.570339 0.409958
Si Si4 0.054744 0.069191 0.259677
Si Si5 0.067184 0.068757 0.750655
Si Si6 0.364278 0.571390 0.604831
Si Si7 0.248145 0.070103 0.339607
Si Si8 0.247435 0.429368 0.653987
O O1 0.651387 0.750000 0.114968
O O2 0.581006 0.529080 0.161218
O O3 0.686767 0.462634 0.120811
O O4 0.613708 0.544248 0.000135
O O5 0.127727 0.750000 0.627097
O O6 0.103275 0.040116 0.663389
O O7 0.203351 0.968283 0.598351
O O8 0.339165 0.750000 0.394470
O O9 0.397874 0.511870 0.335395
O O10 0.383923 0.545206 0.504745
O O11 0.297065 0.470636 0.409196
O O12 0.063126 0.250000 0.280950
O O13 0.084555 0.022658 0.168327
O O14 0.989090 0.032325 0.251733
O O15 0.051701 0.250000 0.757217
O O16 0.346448 0.750000 0.621440
O O17 0.310915 0.464745 0.625431
O O18 0.250950 0.250000 0.312765
O O19 0.260555 0.964576 0.255876
O O20 0.233771 0.250000 0.636480
#
# Coordination Sequence:
#
# PCOD8254634 Si02
#       8
#     8   8   8   8   8   8   8   8
#     4  11  24  42  65  93 126 163 204 255 311 369
#     4  11  24  42  65  93 126 163 204 255 311 369
#     4  10  22  41  64  92 126 164 205 252 307 365
#     4  11  24  42  65  90 122 165 210 260 308 362
#     4  11  24  42  65  90 122 165 210 260 308 362
#     4  10  22  41  64  92 126 164 205 252 307 365
#     4  12  23  37  62  94 128 165 204 250 307 369
#     4  12  23  37  62  94 128 165 204 250 307 369
#
# _framework density 20.646908
#
# number of rings (size 3 to 8) (size 9 to 14) (size 15 to 20)
#    0.000    1.000    2.500    4.500    0.000    7.500 
#    0.000    0.000    0.000    0.000    0.000    0.000 
#    0.000    0.000    0.000    0.000    0.000    0.000 
#
# Total GULP energy -794048.489626 kJ/mol
# GULP energy per Si atom -12407.007650 kJ/mol
# Density = 2.059991 g / cm^3
# Si number density = 20.646908 Si / 1000 Ang^3
#
#
#
# Elastic Constant Matrix: (Units=GPa)
#
#
# Indices 1 2 3 4 5 6 
#
# 1 100.6969 21.3627 28.5515 0.0000 0.0000 0.0000
# 2 21.3627 58.0865 45.3703 0.0000 0.0000 0.0000
# 3 28.5515 45.3703 101.5625 0.0000 0.0000 0.0000
# 4 0.0000 0.0000 0.0000 27.5187 0.0000 0.0000
# 5 0.0000 0.0000 0.0000 0.0000 14.1946 0.0000
# 6 0.0000 0.0000 0.0000 0.0000 0.0000 29.5116
#
#
#
# Elastic Compliance Matrix: (Units=1/GPa)
#
#
# Indices 1 2 3 4 5 6 
#
# 1 0.011024 -0.002509 -0.001978 0.000000 0.000000 0.000000
# 2 -0.002509 0.027013 -0.011362 0.000000 0.000000 0.000000
# 3 -0.001978 -0.011362 0.015478 0.000000 0.000000 0.000000
# 4 0.000000 0.000000 0.000000 0.036339 0.000000 0.000000
# 5 0.000000 0.000000 0.000000 0.000000 0.070449 0.000000
# 6 0.000000 0.000000 0.000000 0.000000 0.000000 0.033885
#
#
# Mechanical properties :
#
#
# Convention : Reuss Voigt Hill
#
# Bulk Modulus (GPa) = 45.83724 50.10164 47.96944
# Shear Modulus (GPa) = 21.44458 25.24908 23.34683
#
# Velocity S-wave (km/s) = 3.22628 3.50079 3.36634
# Velocity P-wave (km/s) = 6.01059 6.37647 6.19623
#
# Compressibility (1/GPa) = 0.02181632
#
# Stress axis : x y z
#
# Youngs Moduli (GPa) = 90.71107 37.01895 64.60806
#
# Poissons Ratio (x) = 0.09289 0.12781
# Poissons Ratio (y) = 0.22761 0.73408
# Poissons Ratio (z) = 0.17944 0.42061
#
# Static dielectric constant tensor:
#      x y z
#    x 3.564080 0.000000 0.000000 
#    y 0.000000 3.679660 0.000000 
#    z 0.000000 0.000000 3.920570 
# 
# 
# High freq. dielectric constant tensor:
#      x y z
#    x 1.797830 0.000000 0.000000 
#    y 0.000000 1.811290 0.000000 
#    z 0.000000 0.000000 1.820040 
# 
# From -- ./inp_files/20990.got.cif
#   From: 2010.03.12/outbox.cif.g09.slc.cpg/sg62_11_cif.got.tgz:20990.got - 2010.04.10 19:12:36.
