data_PCOD8254592
_publ_section_title
;
Structure prediction by ZEFSAII (Michael W. Deem and Ramdas Pophale) SiO2 
 PCOD8254592
Probable space group: P N M A
;
_chemical_formula_sum "Si O2"
_cell_formula_units_Z 56
_cell_length_a 10.918191
_cell_length_b 16.299698
_cell_length_c 14.797053
_cell_angle_alpha 90.000000
_cell_angle_beta 90.000000
_cell_angle_gamma 90.000000
_cell_volume 2633.331139
_symmetry_space_group_name_H-M "P N M A"
_symmetry_group_IT_number 62
_symmetry_cell_setting 'orthorhombic'
loop_
_space_group_symop_operation_xyz
x,y,z
1/2-x,-y,1/2+z
1/2+x,1/2-y,1/2-z
-x,1/2+y,-z
-x,-y,-z
1/2+x,y,1/2-z
1/2-x,1/2+y,1/2+z
x,1/2-y,z
loop_
_atom_site_type_symbol
_atom_site_label
_atom_site_fract_x
_atom_site_fract_y
_atom_site_fract_z
Si Si1 0.021111 0.655651 0.162433
Si Si2 0.803613 0.561502 0.101735
Si Si3 0.281331 0.436241 0.237816
Si Si4 0.625133 0.159723 0.011793
Si Si5 0.699271 0.966878 0.433523
Si Si6 0.077015 0.659259 0.366699
Si Si7 0.465474 0.655229 0.793055
O O1 0.054774 0.750000 0.140813
O O2 0.094966 0.592112 0.102269
O O3 0.047135 0.632367 0.265243
O O4 0.879944 0.638688 0.139889
O O5 0.805724 0.488935 0.173626
O O6 0.666219 0.593641 0.088384
O O7 0.853985 0.535096 0.002616
O O8 0.274945 0.492589 0.148288
O O9 0.151483 0.388157 0.244996
O O10 0.401123 0.378546 0.234567
O O11 0.688379 0.250000 0.020752
O O12 0.720423 0.087114 0.002180
O O13 0.547713 0.158633 0.920928
O O14 0.542430 0.143379 0.099307
O O15 0.135838 0.750000 0.368079
O O16 0.460733 0.750000 0.763973
#
# Coordination Sequence:
#
# PCOD8254592 Si02
#       7
#     8   8   8   8   8   8   8
#     4  11  24  42  63  95 138 179 216 272 344 412
#     4  12  24  41  64  95 134 169 225 273 339 396
#     4  12  25  43  71 100 137 175 228 284 342 395
#     4  10  22  42  69  97 128 173 229 279 333 399
#     4  12  24  41  67  98 134 171 226 274 340 396
#     4  10  22  40  66  96 129 170 217 277 340 399
#     4  11  25  47  69  98 135 183 232 278 335 403
#
# _framework density 21.265841000000002
#
# number of rings (size 3 to 8) (size 9 to 14) (size 15 to 20)
#    0.000    0.857    2.857    4.286    2.000    1.143 
#    0.000    3.571    0.000    0.000    0.000    0.000 
#    0.000    0.000    0.000    0.000    0.000    0.000 
#
# Total GULP energy -694305.983646 kJ/mol
# GULP energy per Si atom -12398.321137 kJ/mol
# Density = 2.121744 g / cm^3
# Si number density = 21.265841 Si / 1000 Ang^3
#
#
#
# Elastic Constant Matrix: (Units=GPa)
#
#
# Indices 1 2 3 4 5 6 
#
# 1 90.6832 33.8432 16.8584 0.0000 0.0000 0.0000
# 2 33.8432 78.5822 38.6609 0.0000 0.0000 0.0000
# 3 16.8584 38.6609 107.3240 0.0000 0.0000 0.0000
# 4 0.0000 0.0000 0.0000 28.7036 0.0000 0.0000
# 5 0.0000 0.0000 0.0000 0.0000 30.6636 0.0000
# 6 0.0000 0.0000 0.0000 0.0000 0.0000 39.7417
#
#
#
# Elastic Compliance Matrix: (Units=1/GPa)
#
#
# Indices 1 2 3 4 5 6 
#
# 1 0.013139 -0.005644 -0.000031 0.000000 0.000000 0.000000
# 2 -0.005644 0.017891 -0.005558 0.000000 0.000000 0.000000
# 3 -0.000031 -0.005558 0.011325 0.000000 0.000000 0.000000
# 4 0.000000 0.000000 0.000000 0.034839 0.000000 0.000000
# 5 0.000000 0.000000 0.000000 0.000000 0.032612 0.000000
# 6 0.000000 0.000000 0.000000 0.000000 0.000000 0.025162
#
#
# Mechanical properties :
#
#
# Convention : Reuss Voigt Hill
#
# Bulk Modulus (GPa) = 50.27850 50.59049 50.43450
# Shear Modulus (GPa) = 30.47614 32.30359 31.38986
#
# Velocity S-wave (km/s) = 3.78974 3.90171 3.84613
# Velocity P-wave (km/s) = 6.54551 6.64372 6.59480
#
# Compressibility (1/GPa) = 0.01988922
#
# Stress axis : x y z
#
# Youngs Moduli (GPa) = 76.10737 55.89548 88.30296
#
# Poissons Ratio (x) = 0.31545 0.00274
# Poissons Ratio (y) = 0.42951 0.49080
# Poissons Ratio (z) = 0.00236 0.31068
#
# Static dielectric constant tensor:
#      x y z
#    x 3.788970 0.000000 0.000000 
#    y 0.000000 4.111840 0.000000 
#    z 0.000000 0.000000 3.854250 
# 
# 
# High freq. dielectric constant tensor:
#      x y z
#    x 1.828510 0.000000 0.000000 
#    y 0.000000 1.848710 0.000000 
#    z 0.000000 0.000000 1.844650 
# 
# From -- ./inp_files/18069.got.cif
#   From: 2010.03.12/outbox.cif.g09.slc.cpg/sg62_10_cif.got.tgz:18069.got - 2010.04.10 19:12:36.
