data_PCOD8254244
_publ_section_title
;
Structure prediction by ZEFSAII (Michael W. Deem and Ramdas Pophale) SiO2 
 PCOD8254244
Probable space group: P N M A
;
_chemical_formula_sum "Si O2"
_cell_formula_units_Z 48
_cell_length_a 9.047661
_cell_length_b 17.611731
_cell_length_c 14.361931
_cell_angle_alpha 90.000000
_cell_angle_beta 90.000000
_cell_angle_gamma 90.000000
_cell_volume 2288.501489
_symmetry_space_group_name_H-M "P N M A"
_symmetry_group_IT_number 62
_symmetry_cell_setting 'orthorhombic'
loop_
_space_group_symop_operation_xyz
x,y,z
1/2-x,-y,1/2+z
1/2+x,1/2-y,1/2-z
-x,1/2+y,-z
-x,-y,-z
1/2+x,y,1/2-z
1/2-x,1/2+y,1/2+z
x,1/2-y,z
loop_
_atom_site_type_symbol
_atom_site_label
_atom_site_fract_x
_atom_site_fract_y
_atom_site_fract_z
Si Si1 0.877952 0.840557 0.676514
Si Si2 0.146565 0.664874 0.971443
Si Si3 0.187003 0.575650 0.683492
Si Si4 0.879845 0.564934 0.990659
Si Si5 0.644273 0.664173 0.317964
Si Si6 0.354612 0.924038 0.302328
O O1 0.903417 0.750000 0.673065
O O2 0.769237 0.873148 0.595348
O O3 0.802567 0.864638 0.773263
O O4 0.033702 0.882263 0.664423
O O5 0.136838 0.750000 0.936130
O O6 0.203836 0.656900 0.076866
O O7 0.978061 0.636822 0.960175
O O8 0.254558 0.547166 0.585415
O O9 0.164852 0.503955 0.751031
O O10 0.798820 0.573596 0.090545
O O11 0.000000 0.500000 0.000000
O O12 0.585743 0.750000 0.300057
O O13 0.775205 0.645933 0.247725
O O14 0.525567 0.598453 0.300888
#
# Coordination Sequence:
#
# PCOD8254244 Si02
#       6
#     8   8   8   8   8   8
#     4  11  23  40  61  91 126 163 203 248 299 358
#     4   9  20  39  63  87 119 159 201 247 300 356
#     4  12  24  40  64  91 123 162 203 251 304 360
#     4  11  23  41  62  86 119 157 202 252 303 361
#     4  10  21  40  63  89 120 157 197 247 303 361
#     4  11  23  40  62  88 118 156 200 247 302 362
#
# _framework density 20.974423000000002
#
# number of rings (size 3 to 8) (size 9 to 14) (size 15 to 20)
#    0.000    1.333    0.000    7.000    0.000    4.667 
#    0.000    6.667    0.000    0.000    0.000    0.000 
#    0.000    0.000    0.000    0.000    0.000    0.000 
#
# Total GULP energy -595107.674842 kJ/mol
# GULP energy per Si atom -12398.076559 kJ/mol
# Density = 2.092668 g / cm^3
# Si number density = 20.974423 Si / 1000 Ang^3
#
#
#
# Elastic Constant Matrix: (Units=GPa)
#
#
# Indices 1 2 3 4 5 6 
#
# 1 77.9728 43.2690 54.8366 0.0000 0.0000 0.0000
# 2 43.2690 94.4982 51.3108 0.0000 0.0000 0.0000
# 3 54.8366 51.3108 134.9649 0.0000 0.0000 0.0000
# 4 0.0000 0.0000 0.0000 26.9590 0.0000 0.0000
# 5 0.0000 0.0000 0.0000 0.0000 47.9004 0.0000
# 6 0.0000 0.0000 0.0000 0.0000 0.0000 38.9323
#
#
#
# Elastic Compliance Matrix: (Units=1/GPa)
#
#
# Indices 1 2 3 4 5 6 
#
# 1 0.020413 -0.006103 -0.005973 0.000000 0.000000 0.000000
# 2 -0.006103 0.015160 -0.003284 0.000000 0.000000 0.000000
# 3 -0.005973 -0.003284 0.011085 0.000000 0.000000 0.000000
# 4 0.000000 0.000000 0.000000 0.037093 0.000000 0.000000
# 5 0.000000 0.000000 0.000000 0.000000 0.020877 0.000000
# 6 0.000000 0.000000 0.000000 0.000000 0.000000 0.025686
#
#
# Mechanical properties :
#
#
# Convention : Reuss Voigt Hill
#
# Bulk Modulus (GPa) = 62.74847 67.36318 65.05582
# Shear Modulus (GPa) = 30.05788 33.29298 31.67543
#
# Velocity S-wave (km/s) = 3.78970 3.98843 3.89034
# Velocity P-wave (km/s) = 7.00933 7.30730 7.15987
#
# Compressibility (1/GPa) = 0.01593664
#
# Stress axis : x y z
#
# Youngs Moduli (GPa) = 48.98891 65.96430 90.21400
#
# Poissons Ratio (x) = 0.40259 0.53889
# Poissons Ratio (y) = 0.29899 0.29623
# Poissons Ratio (z) = 0.29263 0.21661
#
# Static dielectric constant tensor:
#      x y z
#    x 3.311060 0.000000 0.000000 
#    y 0.000000 3.868930 0.000000 
#    z 0.000000 0.000000 3.908970 
# 
# 
# High freq. dielectric constant tensor:
#      x y z
#    x 1.810710 0.000000 0.000000 
#    y 0.000000 1.834420 0.000000 
#    z 0.000000 0.000000 1.833450 
# 
# From -- ./inp_files/16907.got.cif
#   From: 2010.03.12/outbox.cif.g09.slc.cpg/sg62_9_cif.got.tgz:16907.got - 2010.04.10 19:12:36.
