data_PCOD8254858
_publ_section_title
;
Structure prediction by ZEFSAII (Michael W. Deem and Ramdas Pophale) SiO2 
 PCOD8254858
Probable space group: P N M A
;
_chemical_formula_sum "Si O2"
_cell_formula_units_Z 52
_cell_length_a 20.963294
_cell_length_b 15.181586
_cell_length_c 7.590975
_cell_angle_alpha 90.000000
_cell_angle_beta 90.000000
_cell_angle_gamma 90.000000
_cell_volume 2415.873724
_symmetry_space_group_name_H-M "P N M A"
_symmetry_group_IT_number 62
_symmetry_cell_setting 'orthorhombic'
loop_
_space_group_symop_operation_xyz
x,y,z
1/2-x,-y,1/2+z
1/2+x,1/2-y,1/2-z
-x,1/2+y,-z
-x,-y,-z
1/2+x,y,1/2-z
1/2-x,1/2+y,1/2+z
x,1/2-y,z
loop_
_atom_site_type_symbol
_atom_site_label
_atom_site_fract_x
_atom_site_fract_y
_atom_site_fract_z
Si Si1 0.357188 0.250000 0.385448
Si Si2 0.930815 0.534905 0.953344
Si Si3 0.844587 0.250000 0.690242
Si Si4 0.608249 0.154297 0.746070
Si Si5 0.192538 0.930519 0.922119
Si Si6 0.246304 0.106097 0.771584
Si Si7 0.457525 0.920643 0.935798
Si Si8 0.956169 0.250000 0.406767
O O1 0.363879 0.250000 0.600398
O O2 0.322128 0.160227 0.315128
O O3 0.424971 0.250000 0.287120
O O4 0.922904 0.556641 0.747484
O O5 0.925958 0.622444 0.069125
O O6 0.875015 0.467136 0.006442
O O7 0.000000 0.500000 0.000000
O O8 0.804181 0.338600 0.638684
O O9 0.906947 0.250000 0.569914
O O10 0.580314 0.250000 0.790513
O O11 0.682553 0.161428 0.701332
O O12 0.596368 0.091756 0.914423
O O13 0.234508 0.004443 0.825369
O O14 0.239660 0.896044 0.068143
O O15 0.500817 0.835640 0.918683
O O16 0.500000 0.000000 0.000000
#
# Coordination Sequence:
#
# PCOD8254858 Si02
#       8
#     4   8   4   8   8   8   8   4
#     4  10  24  44  64  99 136 175 230 277 337 399
#     4  11  24  45  67  99 137 178 227 280 346 409
#     4  10  24  45  70  97 138 178 225 279 340 407
#     4  11  24  45  68  95 137 179 221 283 342 406
#     4  10  24  42  70 100 133 184 219 289 337 401
#     4  10  23  43  68  98 134 175 227 275 342 402
#     4  12  27  43  68 102 135 178 228 285 345 405
#     4  12  28  43  70 104 130 181 235 280 341 416
#
# _framework density 21.524304000000001
#
# number of rings (size 3 to 8) (size 9 to 14) (size 15 to 20)
#    0.000    1.231    3.077    0.923   11.846    1.231 
#    1.385    0.000    0.000    0.000    0.000    0.000 
#    0.000    0.000    0.000    0.000    0.000    0.000 
#
# Total GULP energy -644361.334854 kJ/mol
# GULP energy per Si atom -12391.564132 kJ/mol
# Density = 2.147531 g / cm^3
# Si number density = 21.524304 Si / 1000 Ang^3
#
#
#
# Elastic Constant Matrix: (Units=GPa)
#
#
# Indices 1 2 3 4 5 6 
#
# 1 41.6435 -1.8852 -5.9106 0.0000 0.0000 0.0000
# 2 -1.8852 136.2126 2.7844 0.0000 0.0000 0.0000
# 3 -5.9106 2.7844 84.2699 0.0000 0.0000 0.0000
# 4 0.0000 0.0000 0.0000 26.9554 0.0000 0.0000
# 5 0.0000 0.0000 0.0000 0.0000 38.0245 0.0000
# 6 0.0000 0.0000 0.0000 0.0000 0.0000 6.9977
#
#
#
# Elastic Compliance Matrix: (Units=1/GPa)
#
#
# Indices 1 2 3 4 5 6 
#
# 1 0.024267 0.000301 0.001692 0.000000 0.000000 0.000000
# 2 0.000301 0.007350 -0.000222 0.000000 0.000000 0.000000
# 3 0.001692 -0.000222 0.011993 0.000000 0.000000 0.000000
# 4 0.000000 0.000000 0.000000 0.037098 0.000000 0.000000
# 5 0.000000 0.000000 0.000000 0.000000 0.026299 0.000000
# 6 0.000000 0.000000 0.000000 0.000000 0.000000 0.142904
#
#
# Mechanical properties :
#
#
# Convention : Reuss Voigt Hill
#
# Bulk Modulus (GPa) = 21.20741 28.01147 24.60944
# Shear Modulus (GPa) = 19.07771 32.20468 25.64120
#
# Velocity S-wave (km/s) = 2.98037 3.87227 3.45522
# Velocity P-wave (km/s) = 4.66021 5.74759 5.23223
#
# Compressibility (1/GPa) = 0.04715332
#
# Stress axis : x y z
#
# Youngs Moduli (GPa) = 41.20792 136.05137 83.38444
#
# Poissons Ratio (x) = -0.04099 -0.14110
# Poissons Ratio (y) = -0.01241 0.01849
# Poissons Ratio (z) = -0.06973 0.03017
#
# Static dielectric constant tensor:
#      x y z
#    x 3.881540 0.000000 0.000000 
#    y 0.000000 4.587960 0.000000 
#    z 0.000000 0.000000 3.929290 
# 
# 
# High freq. dielectric constant tensor:
#      x y z
#    x 1.847480 0.000000 0.000000 
#    y 0.000000 1.866540 0.000000 
#    z 0.000000 0.000000 1.838650 
# 
# From -- ./inp_files/8694.got.cif
#   From: 2010.03.12/outbox.cif.g09.slc.cpg/sg62_5_cif.got.tgz:8694.got - 2010.04.10 19:12:36.
