data_PCOD8254196
_publ_section_title
;
Structure prediction by ZEFSAII (Michael W. Deem and Ramdas Pophale) SiO2 
 PCOD8254196
Probable space group: P N M A
;
_chemical_formula_sum "Si O2"
_cell_formula_units_Z 48
_cell_length_a 14.923851
_cell_length_b 13.633756
_cell_length_c 11.733877
_cell_angle_alpha 90.000000
_cell_angle_beta 90.000000
_cell_angle_gamma 90.000000
_cell_volume 2387.470165
_symmetry_space_group_name_H-M "P N M A"
_symmetry_group_IT_number 62
_symmetry_cell_setting 'orthorhombic'
loop_
_space_group_symop_operation_xyz
x,y,z
1/2-x,-y,1/2+z
1/2+x,1/2-y,1/2-z
-x,1/2+y,-z
-x,-y,-z
1/2+x,y,1/2-z
1/2-x,1/2+y,1/2+z
x,1/2-y,z
loop_
_atom_site_type_symbol
_atom_site_label
_atom_site_fract_x
_atom_site_fract_y
_atom_site_fract_z
Si Si1 0.397012 0.002032 0.463689
Si Si2 0.870172 0.135029 0.247152
Si Si3 0.457913 0.860949 0.093199
Si Si4 0.298763 0.981625 0.694760
Si Si5 0.452232 0.555308 0.855666
Si Si6 0.682867 0.360174 0.707189
O O1 0.374315 0.900791 0.399096
O O2 0.500000 0.000000 0.500000
O O3 0.377725 0.092707 0.380261
O O4 0.331609 0.014504 0.570787
O O5 0.859746 0.250000 0.237007
O O6 0.955831 0.106657 0.320769
O O7 0.784839 0.092011 0.314401
O O8 0.497218 0.750000 0.090075
O O9 0.376302 0.867263 0.179886
O O10 0.535203 0.937831 0.128617
O O11 0.418368 0.893156 0.970931
O O12 0.271921 0.076776 0.769436
O O13 0.378991 0.925703 0.758896
O O14 0.711771 0.250000 0.678131
#
# Coordination Sequence:
#
# PCOD8254196 Si02
#       6
#     8   8   8   8   8   8
#     4  11  22  44  67  96 132 174 214 274 332 389
#     4  11  25  43  63  98 132 169 221 267 329 400
#     4  10  21  39  66  92 123 166 214 263 317 380
#     4  11  24  42  66  92 131 171 212 265 330 386
#     4  11  22  42  66  92 131 168 212 271 323 382
#     4  10  23  41  63  97 130 168 219 268 325 395
#
# _framework density 20.104963000000001
#
# number of rings (size 3 to 8) (size 9 to 14) (size 15 to 20)
#    0.000    1.333    5.000    0.500    4.667    4.000 
#    0.000    0.000    0.000    0.000    0.000    0.000 
#    0.000    0.000    0.000    0.000    0.000    0.000 
#
# Total GULP energy -595321.455390 kJ/mol
# GULP energy per Si atom -12402.530321 kJ/mol
# Density = 2.005920 g / cm^3
# Si number density = 20.104963 Si / 1000 Ang^3
#
#
#
# Elastic Constant Matrix: (Units=GPa)
#
#
# Indices 1 2 3 4 5 6 
#
# 1 108.0305 30.7155 37.2840 0.0000 0.0000 0.0000
# 2 30.7155 129.3761 10.1527 0.0000 0.0000 0.0000
# 3 37.2840 10.1527 98.4039 0.0000 0.0000 0.0000
# 4 0.0000 0.0000 0.0000 23.3759 0.0000 0.0000
# 5 0.0000 0.0000 0.0000 0.0000 40.1040 0.0000
# 6 0.0000 0.0000 0.0000 0.0000 0.0000 7.0303
#
#
#
# Elastic Compliance Matrix: (Units=1/GPa)
#
#
# Indices 1 2 3 4 5 6 
#
# 1 0.011328 -0.002372 -0.004047 0.000000 0.000000 0.000000
# 2 -0.002372 0.008289 0.000043 0.000000 0.000000 0.000000
# 3 -0.004047 0.000043 0.011691 0.000000 0.000000 0.000000
# 4 0.000000 0.000000 0.000000 0.042779 0.000000 0.000000
# 5 0.000000 0.000000 0.000000 0.000000 0.024935 0.000000
# 6 0.000000 0.000000 0.000000 0.000000 0.000000 0.142242
#
#
# Mechanical properties :
#
#
# Convention : Reuss Voigt Hill
#
# Bulk Modulus (GPa) = 53.88844 54.67943 54.28394
# Shear Modulus (GPa) = 19.21593 31.27927 25.24760
#
# Velocity S-wave (km/s) = 3.09492 3.94864 3.54756
# Velocity P-wave (km/s) = 6.29549 6.93145 6.62111
#
# Compressibility (1/GPa) = 0.01855685
#
# Stress axis : x y z
#
# Youngs Moduli (GPa) = 88.27843 120.64060 85.53465
#
# Poissons Ratio (x) = 0.28613 0.34618
# Poissons Ratio (y) = 0.20937 -0.00371
# Poissons Ratio (z) = 0.35729 -0.00524
#
# Static dielectric constant tensor:
#      x y z
#    x 3.563300 0.000000 0.000000 
#    y 0.000000 3.837560 0.000000 
#    z 0.000000 0.000000 3.786820 
# 
# 
# High freq. dielectric constant tensor:
#      x y z
#    x 1.781810 0.000000 0.000000 
#    y 0.000000 1.784260 0.000000 
#    z 0.000000 0.000000 1.796440 
# 
# From -- ./inp_files/13239.got.cif
#   From: 2010.03.12/outbox.cif.g09.slc.cpg/sg62_7_cif.got.tgz:13239.got - 2010.04.10 19:12:36.
