data_PCOD8254815
_publ_section_title
;
Structure prediction by ZEFSAII (Michael W. Deem and Ramdas Pophale) SiO2 
 PCOD8254815
Probable space group: P N M A
;
_chemical_formula_sum "Si O2"
_cell_formula_units_Z 40
_cell_length_a 14.588283
_cell_length_b 8.919377
_cell_length_c 14.632420
_cell_angle_alpha 90.000000
_cell_angle_beta 90.000000
_cell_angle_gamma 90.000000
_cell_volume 1903.947018
_symmetry_space_group_name_H-M "P N M A"
_symmetry_group_IT_number 62
_symmetry_cell_setting 'orthorhombic'
loop_
_space_group_symop_operation_xyz
x,y,z
1/2-x,-y,1/2+z
1/2+x,1/2-y,1/2-z
-x,1/2+y,-z
-x,-y,-z
1/2+x,y,1/2-z
1/2-x,1/2+y,1/2+z
x,1/2-y,z
loop_
_atom_site_type_symbol
_atom_site_label
_atom_site_fract_x
_atom_site_fract_y
_atom_site_fract_z
Si Si1 0.851694 0.073029 0.130647
Si Si2 0.083288 0.078506 0.548713
Si Si3 0.272375 0.926727 0.538956
Si Si4 0.319818 0.574218 0.744900
Si Si5 0.492188 0.921473 0.244990
O O1 0.856854 0.250000 0.118399
O O2 0.766556 0.023908 0.194288
O O3 0.946585 0.017366 0.174426
O O4 0.844766 0.995629 0.031921
O O5 0.088625 0.250000 0.516154
O O6 0.072949 0.065374 0.657276
O O7 0.174242 0.996195 0.515915
O O8 0.000000 0.000000 0.500000
O O9 0.266437 0.750000 0.526366
O O10 0.302627 0.972186 0.640358
O O11 0.337795 0.750000 0.754771
O O12 0.408511 0.486611 0.780644
O O13 0.502461 0.750000 0.276559
#
# Coordination Sequence:
#
# PCOD8254815 Si02
#       5
#     8   8   8   8   8
#     4  11  23  42  66  93 126 168 213 262 318 381
#     4  11  23  39  62  94 127 165 212 264 319 376
#     4  11  23  41  64  92 126 166 210 263 319 378
#     4  10  23  42  64  90 125 168 211 258 317 380
#     4  11  24  40  63  93 126 166 211 263 316 374
#
# _framework density 21.008987999999999
#
# number of rings (size 3 to 8) (size 9 to 14) (size 15 to 20)
#    0.000    1.200    2.000    3.600    0.000    9.600 
#    0.000    0.000    0.000    0.000    0.000    0.000 
#    0.000    0.000    0.000    0.000    0.000    0.000 
#
# Total GULP energy -496319.537036 kJ/mol
# GULP energy per Si atom -12407.988426 kJ/mol
# Density = 2.096117 g / cm^3
# Si number density = 21.008988 Si / 1000 Ang^3
#
#
#
# Elastic Constant Matrix: (Units=GPa)
#
#
# Indices 1 2 3 4 5 6 
#
# 1 56.3210 17.6954 -15.4023 0.0000 0.0000 0.0000
# 2 17.6954 87.2737 23.9356 0.0000 0.0000 0.0000
# 3 -15.4023 23.9356 66.5645 0.0000 0.0000 0.0000
# 4 0.0000 0.0000 0.0000 36.3073 0.0000 0.0000
# 5 0.0000 0.0000 0.0000 0.0000 37.5684 0.0000
# 6 0.0000 0.0000 0.0000 0.0000 0.0000 38.8324
#
#
#
# Elastic Compliance Matrix: (Units=1/GPa)
#
#
# Indices 1 2 3 4 5 6 
#
# 1 0.021789 -0.006435 0.007356 0.000000 0.000000 0.000000
# 2 -0.006435 0.014612 -0.006743 0.000000 0.000000 0.000000
# 3 0.007356 -0.006743 0.019150 0.000000 0.000000 0.000000
# 4 0.000000 0.000000 0.000000 0.027543 0.000000 0.000000
# 5 0.000000 0.000000 0.000000 0.000000 0.026618 0.000000
# 6 0.000000 0.000000 0.000000 0.000000 0.000000 0.025752
#
#
# Mechanical properties :
#
#
# Convention : Reuss Voigt Hill
#
# Bulk Modulus (GPa) = 22.77632 29.17960 25.97796
# Shear Modulus (GPa) = 30.91292 34.80365 32.85829
#
# Velocity S-wave (km/s) = 3.84006 4.07456 3.95905
# Velocity P-wave (km/s) = 5.52505 6.00461 5.76981
#
# Compressibility (1/GPa) = 0.04390525
#
# Stress axis : x y z
#
# Youngs Moduli (GPa) = 45.89513 68.43483 52.21956
#
# Poissons Ratio (x) = 0.44039 -0.38411
# Poissons Ratio (y) = 0.29534 0.35214
# Poissons Ratio (z) = -0.33759 0.46149
#
# Static dielectric constant tensor:
#      x y z
#    x 3.701790 0.000000 0.000000 
#    y 0.000000 3.854690 0.000000 
#    z 0.000000 0.000000 3.913020 
# 
# 
# High freq. dielectric constant tensor:
#      x y z
#    x 1.824700 0.000000 0.000000 
#    y 0.000000 1.830520 0.000000 
#    z 0.000000 0.000000 1.831210 
# 
# From -- ./inp_files/18602.got.cif
#   From: 2010.03.12/outbox.cif.g09.slc.cpg/sg62_10_cif.got.tgz:18602.got - 2010.04.10 19:12:36.
