data_PCOD8254777
_publ_section_title
;
Structure prediction by ZEFSAII (Michael W. Deem and Ramdas Pophale) SiO2 
 PCOD8254777
Probable space group: P N M A
;
_chemical_formula_sum "Si O2"
_cell_formula_units_Z 40
_cell_length_a 9.728042
_cell_length_b 18.861028
_cell_length_c 10.118261
_cell_angle_alpha 90.000000
_cell_angle_beta 90.000000
_cell_angle_gamma 90.000000
_cell_volume 1856.507357
_symmetry_space_group_name_H-M "P N M A"
_symmetry_group_IT_number 62
_symmetry_cell_setting 'orthorhombic'
loop_
_space_group_symop_operation_xyz
x,y,z
1/2-x,-y,1/2+z
1/2+x,1/2-y,1/2-z
-x,1/2+y,-z
-x,-y,-z
1/2+x,y,1/2-z
1/2-x,1/2+y,1/2+z
x,1/2-y,z
loop_
_atom_site_type_symbol
_atom_site_label
_atom_site_fract_x
_atom_site_fract_y
_atom_site_fract_z
Si Si1 0.522809 0.668277 0.818633
Si Si2 0.664064 0.549296 0.354747
Si Si3 0.371102 0.894126 0.330980
Si Si4 0.813118 0.889249 0.884517
Si Si5 0.340437 0.829503 0.066643
O O1 0.512437 0.750000 0.777598
O O2 0.442181 0.622796 0.710482
O O3 0.680835 0.645161 0.816861
O O4 0.461853 0.654385 0.963975
O O5 0.738584 0.559031 0.212428
O O6 0.500800 0.553627 0.342727
O O7 0.705410 0.472942 0.411456
O O8 0.719214 0.612178 0.452902
O O9 0.340030 0.855441 0.470412
O O10 0.402104 0.836030 0.215963
O O11 0.281513 0.750000 0.045670
#
# Coordination Sequence:
#
# PCOD8254777 Si02
#       5
#     8   8   8   8   8
#     4  11  26  45  64  95 133 177 218 271 337 394
#     4  10  23  40  68  99 132 168 223 268 335 374
#     4  10  23  41  66 100 127 175 220 271 327 389
#     4  12  25  42  70  96 136 171 224 277 323 403
#     4   9  23  42  65  92 131 170 217 268 324 390
#
# _framework density 21.545833999999999
#
# number of rings (size 3 to 8) (size 9 to 14) (size 15 to 20)
#    1.200    0.400    0.000    3.600    5.600    3.200 
#    0.000    0.000    0.000    0.000    0.000    0.000 
#    0.000    0.000    0.000    0.000    0.000    0.000 
#
# Total GULP energy -495873.450173 kJ/mol
# GULP energy per Si atom -12396.836254 kJ/mol
# Density = 2.149679 g / cm^3
# Si number density = 21.545834 Si / 1000 Ang^3
#
#
#
# Elastic Constant Matrix: (Units=GPa)
#
#
# Indices 1 2 3 4 5 6 
#
# 1 107.5206 8.4694 28.9740 0.0000 0.0000 0.0000
# 2 8.4694 97.5541 4.7114 0.0000 0.0000 0.0000
# 3 28.9740 4.7114 106.6995 0.0000 0.0000 0.0000
# 4 0.0000 0.0000 0.0000 20.3665 0.0000 0.0000
# 5 0.0000 0.0000 0.0000 0.0000 36.2909 0.0000
# 6 0.0000 0.0000 0.0000 0.0000 0.0000 29.5763
#
#
#
# Elastic Compliance Matrix: (Units=1/GPa)
#
#
# Indices 1 2 3 4 5 6 
#
# 1 0.010089 -0.000745 -0.002707 0.000000 0.000000 0.000000
# 2 -0.000745 0.010328 -0.000254 0.000000 0.000000 0.000000
# 3 -0.002707 -0.000254 0.010118 0.000000 0.000000 0.000000
# 4 0.000000 0.000000 0.000000 0.049100 0.000000 0.000000
# 5 0.000000 0.000000 0.000000 0.000000 0.027555 0.000000
# 6 0.000000 0.000000 0.000000 0.000000 0.000000 0.033811
#
#
# Mechanical properties :
#
#
# Convention : Reuss Voigt Hill
#
# Bulk Modulus (GPa) = 43.24579 44.00930 43.62754
# Shear Modulus (GPa) = 32.02671 35.22136 33.62403
#
# Velocity S-wave (km/s) = 3.85963 4.04755 3.95471
# Velocity P-wave (km/s) = 6.32277 6.50491 6.41448
#
# Compressibility (1/GPa) = 0.02312364
#
# Stress axis : x y z
#
# Youngs Moduli (GPa) = 99.12174 96.82727 98.83091
#
# Poissons Ratio (x) = 0.07215 0.26750
# Poissons Ratio (y) = 0.07386 0.02507
# Poissons Ratio (z) = 0.26829 0.02456
#
# Static dielectric constant tensor:
#      x y z
#    x 3.701390 0.000000 0.000000 
#    y 0.000000 3.653180 0.000000 
#    z 0.000000 0.000000 3.879630 
# 
# 
# High freq. dielectric constant tensor:
#      x y z
#    x 1.842630 0.000000 0.000000 
#    y 0.000000 1.834570 0.000000 
#    z 0.000000 0.000000 1.849410 
# 
# From -- ./inp_files/11064.got.cif
#   From: 2010.03.12/outbox.cif.g09.slc.cpg/sg62_6_cif.got.tgz:11064.got - 2010.04.10 19:12:36.
