data_PCOD8254014
_publ_section_title
;
Structure prediction by ZEFSAII (Michael W. Deem and Ramdas Pophale) SiO2 
 PCOD8254014
Probable space group: P N M A
;
_chemical_formula_sum "Si O2"
_cell_formula_units_Z 48
_cell_length_a 8.566879
_cell_length_b 15.413834
_cell_length_c 17.993084
_cell_angle_alpha 90.000000
_cell_angle_beta 90.000000
_cell_angle_gamma 90.000000
_cell_volume 2375.958867
_symmetry_space_group_name_H-M "P N M A"
_symmetry_group_IT_number 62
_symmetry_cell_setting 'orthorhombic'
loop_
_space_group_symop_operation_xyz
x,y,z
1/2-x,-y,1/2+z
1/2+x,1/2-y,1/2-z
-x,1/2+y,-z
-x,-y,-z
1/2+x,y,1/2-z
1/2-x,1/2+y,1/2+z
x,1/2-y,z
loop_
_atom_site_type_symbol
_atom_site_label
_atom_site_fract_x
_atom_site_fract_y
_atom_site_fract_z
Si Si1 0.145203 0.007848 0.305107
Si Si2 0.791266 0.349442 0.098333
Si Si3 0.292207 0.998137 0.150763
Si Si4 0.633284 0.152419 0.948726
Si Si5 0.288796 0.152812 0.904264
Si Si6 0.589659 0.082882 0.468442
O O1 0.245463 0.089384 0.333374
O O2 0.167264 0.001788 0.216905
O O3 0.964134 0.025532 0.322282
O O4 0.211769 0.918303 0.339117
O O5 0.751824 0.250000 0.118898
O O6 0.973931 0.357677 0.079828
O O7 0.693001 0.383679 0.027485
O O8 0.235987 0.059957 0.084109
O O9 0.294779 0.900378 0.119776
O O10 0.693198 0.250000 0.937430
O O11 0.447477 0.144658 0.950927
O O12 0.272394 0.250000 0.870013
O O13 0.147840 0.137138 0.960923
O O14 0.500000 0.000000 0.500000
#
# Coordination Sequence:
#
# PCOD8254014 Si02
#       6
#     8   8   8   8   8   8
#     4  11  23  40  61  87 124 161 201 249 309 367
#     4  11  22  39  62  89 119 158 203 253 299 354
#     4  11  23  39  62  87 122 164 200 251 309 360
#     4   9  19  37  61  89 119 154 202 249 299 360
#     4  10  21  38  61  90 123 159 199 245 301 361
#     4  12  21  37  63  91 122 158 205 249 298 357
#
# _framework density 20.202369999999998
#
# number of rings (size 3 to 8) (size 9 to 14) (size 15 to 20)
#    0.000    1.333    3.333    2.500    0.000    3.333 
#    0.000    5.000    0.000    0.000    0.000    0.000 
#    0.000    0.000    0.000    0.000    0.000    0.000 
#
# Total GULP energy -595355.080477 kJ/mol
# GULP energy per Si atom -12403.230843 kJ/mol
# Density = 2.015639 g / cm^3
# Si number density = 20.202370 Si / 1000 Ang^3
#
#
#
# Elastic Constant Matrix: (Units=GPa)
#
#
# Indices 1 2 3 4 5 6 
#
# 1 62.4995 23.2890 13.2707 0.0000 0.0000 0.0000
# 2 23.2890 99.3214 31.5954 0.0000 0.0000 0.0000
# 3 13.2707 31.5954 75.9782 0.0000 0.0000 0.0000
# 4 0.0000 0.0000 0.0000 18.9974 0.0000 0.0000
# 5 0.0000 0.0000 0.0000 0.0000 41.7642 0.0000
# 6 0.0000 0.0000 0.0000 0.0000 0.0000 29.8141
#
#
#
# Elastic Compliance Matrix: (Units=1/GPa)
#
#
# Indices 1 2 3 4 5 6 
#
# 1 0.017694 -0.003648 -0.001573 0.000000 0.000000 0.000000
# 2 -0.003648 0.012356 -0.004501 0.000000 0.000000 0.000000
# 3 -0.001573 -0.004501 0.015308 0.000000 0.000000 0.000000
# 4 0.000000 0.000000 0.000000 0.052639 0.000000 0.000000
# 5 0.000000 0.000000 0.000000 0.000000 0.023944 0.000000
# 6 0.000000 0.000000 0.000000 0.000000 0.000000 0.033541
#
#
# Mechanical properties :
#
#
# Convention : Reuss Voigt Hill
#
# Bulk Modulus (GPa) = 38.59151 41.56772 40.07961
# Shear Modulus (GPa) = 27.23851 29.42473 28.33162
#
# Velocity S-wave (km/s) = 3.67588 3.82055 3.74891
# Velocity P-wave (km/s) = 6.09591 6.33107 6.21460
#
# Compressibility (1/GPa) = 0.02591244
#
# Stress axis : x y z
#
# Youngs Moduli (GPa) = 56.51742 80.93522 65.32475
#
# Poissons Ratio (x) = 0.29528 0.10278
# Poissons Ratio (y) = 0.20620 0.29401
# Poissons Ratio (z) = 0.08892 0.36427
#
# Static dielectric constant tensor:
#      x y z
#    x 3.769410 0.000000 0.000000 
#    y 0.000000 3.694180 0.000000 
#    z 0.000000 0.000000 3.510520 
# 
# 
# High freq. dielectric constant tensor:
#      x y z
#    x 1.797270 0.000000 0.000000 
#    y 0.000000 1.788810 0.000000 
#    z 0.000000 0.000000 1.775210 
# 
# From -- ./inp_files/22180.got.cif
#   From: 2010.03.12/outbox.cif.g09.slc.cpg/sg62_12_cif.got.tgz:22180.got - 2010.04.10 19:12:36.
