data_PCOD8254745
_publ_section_title
;
Structure prediction by ZEFSAII (Michael W. Deem and Ramdas Pophale) SiO2 
 PCOD8254745
Probable space group: P N M A
;
_chemical_formula_sum "Si O2"
_cell_formula_units_Z 40
_cell_length_a 8.714534
_cell_length_b 12.899380
_cell_length_c 15.654399
_cell_angle_alpha 90.000000
_cell_angle_beta 90.000000
_cell_angle_gamma 90.000000
_cell_volume 1759.743640
_symmetry_space_group_name_H-M "P N M A"
_symmetry_group_IT_number 62
_symmetry_cell_setting 'orthorhombic'
loop_
_space_group_symop_operation_xyz
x,y,z
1/2-x,-y,1/2+z
1/2+x,1/2-y,1/2-z
-x,1/2+y,-z
-x,-y,-z
1/2+x,y,1/2-z
1/2-x,1/2+y,1/2+z
x,1/2-y,z
loop_
_atom_site_type_symbol
_atom_site_label
_atom_site_fract_x
_atom_site_fract_y
_atom_site_fract_z
Si Si1 0.791394 0.250000 0.632348
Si Si2 0.694326 0.139971 0.137657
Si Si3 0.330571 0.041137 0.977503
Si Si4 0.816052 0.032454 0.856767
Si Si5 0.566776 0.750000 0.320906
Si Si6 0.429131 0.065981 0.243444
O O1 0.830884 0.349483 0.572428
O O2 0.615553 0.250000 0.662651
O O3 0.897089 0.250000 0.718243
O O4 0.698858 0.250000 0.087960
O O5 0.519874 0.123571 0.168369
O O6 0.809779 0.148066 0.217606
O O7 0.750071 0.044260 0.081842
O O8 0.500000 0.000000 0.000000
O O9 0.222535 0.037656 0.060456
O O10 0.857589 0.152576 0.870318
O O11 0.667383 0.030509 0.794971
O O12 0.960387 0.977859 0.814900
#
# Coordination Sequence:
#
# PCOD8254745 Si02
#       6
#     4   8   8   8   4   8
#     4  12  30  52  78 112 154 199 255 305 382 445
#     4  11  23  42  69 101 138 183 237 290 364 431
#     4  12  28  46  72 106 152 191 242 308 374 435
#     4  11  24  45  72 105 145 185 250 303 369 434
#     4  12  26  46  84 110 144 205 257 311 360 463
#     4  10  22  44  68  98 139 188 238 298 351 449
#
# _framework density 22.730584
#
# number of rings (size 3 to 8) (size 9 to 14) (size 15 to 20)
#    0.000    0.800    2.000    5.400    5.600    3.200 
#    9.000    0.000    0.000    0.000    0.000    0.000 
#    0.000    0.000    0.000    0.000    0.000    0.000 
#
# Total GULP energy -495708.715429 kJ/mol
# GULP energy per Si atom -12392.717886 kJ/mol
# Density = 2.267885 g / cm^3
# Si number density = 22.730584 Si / 1000 Ang^3
#
#
#
# Elastic Constant Matrix: (Units=GPa)
#
#
# Indices 1 2 3 4 5 6 
#
# 1 136.9499 40.3858 49.7483 0.0000 0.0000 0.0000
# 2 40.3858 174.2039 47.9016 0.0000 0.0000 0.0000
# 3 49.7483 47.9016 101.4559 0.0000 0.0000 0.0000
# 4 0.0000 0.0000 0.0000 21.1707 0.0000 0.0000
# 5 0.0000 0.0000 0.0000 0.0000 34.9533 0.0000
# 6 0.0000 0.0000 0.0000 0.0000 0.0000 11.9159
#
#
#
# Elastic Compliance Matrix: (Units=1/GPa)
#
#
# Indices 1 2 3 4 5 6 
#
# 1 0.009036 -0.001007 -0.003955 0.000000 0.000000 0.000000
# 2 -0.001007 0.006709 -0.002674 0.000000 0.000000 0.000000
# 3 -0.003955 -0.002674 0.013058 0.000000 0.000000 0.000000
# 4 0.000000 0.000000 0.000000 0.047235 0.000000 0.000000
# 5 0.000000 0.000000 0.000000 0.000000 0.028610 0.000000
# 6 0.000000 0.000000 0.000000 0.000000 0.000000 0.083922
#
#
# Mechanical properties :
#
#
# Convention : Reuss Voigt Hill
#
# Bulk Modulus (GPa) = 73.90457 76.52013 75.21235
# Shear Modulus (GPa) = 23.99790 31.91291 27.95540
#
# Velocity S-wave (km/s) = 3.25276 3.75102 3.51074
# Velocity P-wave (km/s) = 6.83309 7.24549 7.04231
#
# Compressibility (1/GPa) = 0.01353096
#
# Stress axis : x y z
#
# Youngs Moduli (GPa) = 110.67257 149.05073 76.58000
#
# Poissons Ratio (x) = 0.15012 0.30288
# Poissons Ratio (y) = 0.11147 0.20476
# Poissons Ratio (z) = 0.43771 0.39853
#
# Static dielectric constant tensor:
#      x y z
#    x 4.322480 0.000000 0.000000 
#    y 0.000000 4.165720 0.000000 
#    z 0.000000 0.000000 4.288130 
# 
# 
# High freq. dielectric constant tensor:
#      x y z
#    x 1.914630 0.000000 0.000000 
#    y 0.000000 1.897330 0.000000 
#    z 0.000000 0.000000 1.892890 
# 
# From -- ./inp_files/21941.got.cif
#   From: 2010.03.12/outbox.cif.g09.slc.cpg/sg62_11_cif.got.tgz:21941.got - 2010.04.10 19:12:36.
