data_PCOD8254500
_publ_section_title
;
Structure prediction by ZEFSAII (Michael W. Deem and Ramdas Pophale) SiO2 
 PCOD8254500
Probable space group: P N M A
;
_chemical_formula_sum "Si O2"
_cell_formula_units_Z 48
_cell_length_a 11.924686
_cell_length_b 9.007590
_cell_length_c 22.942720
_cell_angle_alpha 90.000000
_cell_angle_beta 90.000000
_cell_angle_gamma 90.000000
_cell_volume 2464.339096
_symmetry_space_group_name_H-M "P N M A"
_symmetry_group_IT_number 62
_symmetry_cell_setting 'orthorhombic'
loop_
_space_group_symop_operation_xyz
x,y,z
1/2-x,-y,1/2+z
1/2+x,1/2-y,1/2-z
-x,1/2+y,-z
-x,-y,-z
1/2+x,y,1/2-z
1/2-x,1/2+y,1/2+z
x,1/2-y,z
loop_
_atom_site_type_symbol
_atom_site_label
_atom_site_fract_x
_atom_site_fract_y
_atom_site_fract_z
Si Si1 0.413557 0.077489 0.346773
Si Si2 0.695922 0.081314 0.959679
Si Si3 0.349530 0.078873 0.648919
Si Si4 0.769072 0.076508 0.578446
Si Si5 0.842266 0.077579 0.283053
Si Si6 0.993711 0.577793 0.370572
O O1 0.431960 0.250000 0.358634
O O2 0.355463 0.047275 0.285112
O O3 0.532315 0.999677 0.349322
O O4 0.336006 0.012784 0.397332
O O5 0.692203 0.250000 0.983382
O O6 0.798670 0.060103 0.915326
O O7 0.580123 0.040200 0.927444
O O8 0.711270 0.967309 0.011839
O O9 0.364259 0.250000 0.665732
O O10 0.268505 0.007518 0.696917
O O11 0.742632 0.250000 0.581300
O O12 0.878354 0.036285 0.616392
O O13 0.828269 0.250000 0.297526
O O14 0.953161 0.018426 0.315776
O O15 0.977534 0.750000 0.354287
#
# Coordination Sequence:
#
# PCOD8254500 Si02
#       6
#     8   8   8   8   8   8
#     4  11  25  41  58  85 120 158 199 242 292 351
#     4   9  19  38  61  86 118 154 192 242 297 348
#     4  10  22  41  64  87 115 153 197 242 294 350
#     4  11  23  37  58  90 121 155 199 243 293 348
#     4  10  22  39  61  87 117 153 195 241 294 350
#     4   9  20  38  60  89 120 154 198 242 291 347
#
# _framework density 19.477838999999999
#
# number of rings (size 3 to 8) (size 9 to 14) (size 15 to 20)
#    0.000    2.000    0.000    3.500    2.333    8.000 
#    0.000    0.000    0.000    0.000    0.000    0.000 
#    0.000    0.000    0.000    0.000    0.000    0.000 
#
# Total GULP energy -595457.287273 kJ/mol
# GULP energy per Si atom -12405.360152 kJ/mol
# Density = 1.943351 g / cm^3
# Si number density = 19.477839 Si / 1000 Ang^3
#
#
#
# Elastic Constant Matrix: (Units=GPa)
#
#
# Indices 1 2 3 4 5 6 
#
# 1 100.1975 50.3168 1.1936 0.0000 0.0000 0.0000
# 2 50.3168 104.1053 34.3849 0.0000 0.0000 0.0000
# 3 1.1936 34.3849 39.0287 0.0000 0.0000 0.0000
# 4 0.0000 0.0000 0.0000 36.2838 0.0000 0.0000
# 5 0.0000 0.0000 0.0000 0.0000 14.4051 0.0000
# 6 0.0000 0.0000 0.0000 0.0000 0.0000 33.6940
#
#
#
# Elastic Compliance Matrix: (Units=1/GPa)
#
#
# Indices 1 2 3 4 5 6 
#
# 1 0.014863 -0.009921 0.008286 0.000000 0.000000 0.000000
# 2 -0.009921 0.020169 -0.017466 0.000000 0.000000 0.000000
# 3 0.008286 -0.017466 0.040757 0.000000 0.000000 0.000000
# 4 0.000000 0.000000 0.000000 0.027560 0.000000 0.000000
# 5 0.000000 0.000000 0.000000 0.000000 0.069420 0.000000
# 6 0.000000 0.000000 0.000000 0.000000 0.000000 0.029679
#
#
# Mechanical properties :
#
#
# Convention : Reuss Voigt Hill
#
# Bulk Modulus (GPa) = 26.60468 46.12467 36.36468
# Shear Modulus (GPa) = 19.74876 27.37232 23.56054
#
# Velocity S-wave (km/s) = 3.18765 3.75281 3.48171
# Velocity P-wave (km/s) = 5.21888 6.51998 5.90537
#
# Compressibility (1/GPa) = 0.03758736
#
# Stress axis : x y z
#
# Youngs Moduli (GPa) = 67.27909 49.57996 24.53581
#
# Poissons Ratio (x) = 0.49186 -0.20329
# Poissons Ratio (y) = 0.66745 0.42855
# Poissons Ratio (z) = -0.55745 0.86597
#
# Static dielectric constant tensor:
#      x y z
#    x 3.700000 0.000000 0.000000 
#    y 0.000000 3.630930 0.000000 
#    z 0.000000 0.000000 3.469080 
# 
# 
# High freq. dielectric constant tensor:
#      x y z
#    x 1.765920 0.000000 0.000000 
#    y 0.000000 1.768740 0.000000 
#    z 0.000000 0.000000 1.757450 
# 
# From -- ./inp_files/29248.got.cif
#   From: 2010.03.12/outbox.cif.g09.slc.cpg/sg62_15_cif.got.tgz:29248.got - 2010.04.10 19:12:36.
