data_PCOD8254262
_publ_section_title
;
Structure prediction by ZEFSAII (Michael W. Deem and Ramdas Pophale) SiO2 
 PCOD8254262
Probable space group: P N M A
;
_chemical_formula_sum "Si O2"
_cell_formula_units_Z 40
_cell_length_a 18.528943
_cell_length_b 8.761576
_cell_length_c 12.360451
_cell_angle_alpha 90.000000
_cell_angle_beta 90.000000
_cell_angle_gamma 90.000000
_cell_volume 2006.629511
_symmetry_space_group_name_H-M "P N M A"
_symmetry_group_IT_number 62
_symmetry_cell_setting 'orthorhombic'
loop_
_space_group_symop_operation_xyz
x,y,z
1/2-x,-y,1/2+z
1/2+x,1/2-y,1/2-z
-x,1/2+y,-z
-x,-y,-z
1/2+x,y,1/2-z
1/2-x,1/2+y,1/2+z
x,1/2-y,z
loop_
_atom_site_type_symbol
_atom_site_label
_atom_site_fract_x
_atom_site_fract_y
_atom_site_fract_z
Si Si1 0.426441 0.424994 0.962040
Si Si2 0.649819 0.568737 0.455275
Si Si3 0.192492 0.431010 0.608140
Si Si4 0.885899 0.069948 0.194304
Si Si5 0.537772 0.925189 0.278862
O O1 0.425601 0.250000 0.000977
O O2 0.418656 0.437872 0.833034
O O3 0.500000 0.500000 0.000000
O O4 0.359656 0.512221 0.013756
O O5 0.649981 0.750000 0.452733
O O6 0.727728 0.507134 0.418894
O O7 0.631070 0.507097 0.574495
O O8 0.588888 0.507868 0.372945
O O9 0.189016 0.250000 0.611926
O O10 0.170873 0.494675 0.724749
O O11 0.876788 0.250000 0.200521
O O12 0.966447 0.026320 0.228553
O O13 0.515397 0.750000 0.301357
#
# Coordination Sequence:
#
# PCOD8254262 Si02
#       5
#     8   8   8   8   8
#     4  11  22  37  61  89 120 156 199 246 292 350
#     4   9  22  41  61  87 121 158 197 247 299 354
#     4  11  23  40  61  86 121 161 199 244 300 355
#     4  11  22  39  62  89 120 153 197 249 297 351
#     4  10  21  40  64  88 117 157 200 242 298 358
#
# _framework density 19.933924000000001
#
# number of rings (size 3 to 8) (size 9 to 14) (size 15 to 20)
#    0.000    1.600    2.000    2.400    2.800    0.800 
#    0.000    6.000    0.000    0.000    0.000    0.000 
#    0.000    0.000    0.000    0.000    0.000    0.000 
#
# Total GULP energy -496190.800897 kJ/mol
# GULP energy per Si atom -12404.770022 kJ/mol
# Density = 1.988855 g / cm^3
# Si number density = 19.933924 Si / 1000 Ang^3
#
#
#
# Elastic Constant Matrix: (Units=GPa)
#
#
# Indices 1 2 3 4 5 6 
#
# 1 80.7031 17.3516 25.1710 0.0000 0.0000 0.0000
# 2 17.3516 71.0003 26.4479 0.0000 0.0000 0.0000
# 3 25.1710 26.4479 127.3702 0.0000 0.0000 0.0000
# 4 0.0000 0.0000 0.0000 28.2485 0.0000 0.0000
# 5 0.0000 0.0000 0.0000 0.0000 35.6308 0.0000
# 6 0.0000 0.0000 0.0000 0.0000 0.0000 20.0416
#
#
#
# Elastic Compliance Matrix: (Units=1/GPa)
#
#
# Indices 1 2 3 4 5 6 
#
# 1 0.013608 -0.002519 -0.002166 0.000000 0.000000 0.000000
# 2 -0.002519 0.015731 -0.002769 0.000000 0.000000 0.000000
# 3 -0.002166 -0.002769 0.008854 0.000000 0.000000 0.000000
# 4 0.000000 0.000000 0.000000 0.035400 0.000000 0.000000
# 5 0.000000 0.000000 0.000000 0.000000 0.028066 0.000000
# 6 0.000000 0.000000 0.000000 0.000000 0.000000 0.049896
#
#
# Mechanical properties :
#
#
# Convention : Reuss Voigt Hill
#
# Bulk Modulus (GPa) = 42.94391 46.33496 44.63944
# Shear Modulus (GPa) = 28.69843 30.79105 29.74474
#
# Velocity S-wave (km/s) = 3.79843 3.93447 3.86705
# Velocity P-wave (km/s) = 6.38962 6.62834 6.51007
#
# Compressibility (1/GPa) = 0.02328619
#
# Stress axis : x y z
#
# Youngs Moduli (GPa) = 73.48459 63.56718 112.94124
#
# Poissons Ratio (x) = 0.16011 0.24466
# Poissons Ratio (y) = 0.18509 0.31271
# Poissons Ratio (z) = 0.15919 0.17600
#
# Static dielectric constant tensor:
#      x y z
#    x 3.681100 0.000000 0.000000 
#    y 0.000000 3.506450 0.000000 
#    z 0.000000 0.000000 4.007570 
# 
# 
# High freq. dielectric constant tensor:
#      x y z
#    x 1.781360 0.000000 0.000000 
#    y 0.000000 1.765190 0.000000 
#    z 0.000000 0.000000 1.797460 
# 
# From -- ./inp_files/13846.got.cif
#   From: 2010.03.12/outbox.cif.g09.slc.cpg/sg62_7_cif.got.tgz:13846.got - 2010.04.10 19:12:36.
