data_PCOD8254333
_publ_section_title
;
Structure prediction by ZEFSAII (Michael W. Deem and Ramdas Pophale) SiO2 
 PCOD8254333
Probable space group: P N M A
;
_chemical_formula_sum "Si O2"
_cell_formula_units_Z 48
_cell_length_a 23.492694
_cell_length_b 8.577068
_cell_length_c 11.792286
_cell_angle_alpha 90.000000
_cell_angle_beta 90.000000
_cell_angle_gamma 90.000000
_cell_volume 2376.127162
_symmetry_space_group_name_H-M "P N M A"
_symmetry_group_IT_number 62
_symmetry_cell_setting 'orthorhombic'
loop_
_space_group_symop_operation_xyz
x,y,z
1/2-x,-y,1/2+z
1/2+x,1/2-y,1/2-z
-x,1/2+y,-z
-x,-y,-z
1/2+x,y,1/2-z
1/2-x,1/2+y,1/2+z
x,1/2-y,z
loop_
_atom_site_type_symbol
_atom_site_label
_atom_site_fract_x
_atom_site_fract_y
_atom_site_fract_z
Si Si1 0.619501 0.430462 0.003384
Si Si2 0.642779 0.571445 0.363046
Si Si3 0.843513 0.930543 0.101589
Si Si4 0.076212 0.569924 0.719212
Si Si5 0.045308 0.569703 0.308008
Si Si6 0.715956 0.569323 0.149432
O O1 0.617312 0.250000 0.971449
O O2 0.615046 0.528067 0.888139
O O3 0.566610 0.469794 0.085162
O O4 0.679507 0.469124 0.061086
O O5 0.644000 0.750000 0.405026
O O6 0.649644 0.456430 0.467968
O O7 0.583196 0.531658 0.302084
O O8 0.694635 0.538311 0.276935
O O9 0.853573 0.750000 0.130147
O O10 0.780988 0.984303 0.141212
O O11 0.889499 0.033796 0.166661
O O12 0.059190 0.750000 0.717259
O O13 0.019365 0.467785 0.719645
O O14 0.052397 0.750000 0.341490
O O15 0.707848 0.750000 0.116974
#
# Coordination Sequence:
#
# PCOD8254333 Si02
#       6
#     8   8   8   8   8   8
#     4  11  22  38  63  93 123 159 202 249 303 358
#     4   9  20  40  63  86 117 158 200 246 300 358
#     4  11  24  40  60  90 123 159 203 250 300 357
#     4  12  25  40  60  89 124 160 203 250 303 360
#     4  10  21  41  65  89 121 160 203 251 302 357
#     4   9  21  41  62  87 121 159 201 249 299 355
#
# _framework density 20.200939000000002
#
# number of rings (size 3 to 8) (size 9 to 14) (size 15 to 20)
#    0.000    1.667    0.000    5.500    2.333    5.333 
#    0.000    0.000    0.000    0.000    0.000    0.000 
#    0.000    0.000    0.000    0.000    0.000    0.000 
#
# Total GULP energy -595535.620021 kJ/mol
# GULP energy per Si atom -12406.992084 kJ/mol
# Density = 2.015496 g / cm^3
# Si number density = 20.200939 Si / 1000 Ang^3
#
#
#
# Elastic Constant Matrix: (Units=GPa)
#
#
# Indices 1 2 3 4 5 6 
#
# 1 63.0551 17.2325 20.5543 0.0000 0.0000 0.0000
# 2 17.2325 57.8805 18.5751 0.0000 0.0000 0.0000
# 3 20.5543 18.5751 96.4493 0.0000 0.0000 0.0000
# 4 0.0000 0.0000 0.0000 36.2267 0.0000 0.0000
# 5 0.0000 0.0000 0.0000 0.0000 21.3342 0.0000
# 6 0.0000 0.0000 0.0000 0.0000 0.0000 28.0447
#
#
#
# Elastic Compliance Matrix: (Units=1/GPa)
#
#
# Indices 1 2 3 4 5 6 
#
# 1 0.018041 -0.004410 -0.002995 0.000000 0.000000 0.000000
# 2 -0.004410 0.019493 -0.002814 0.000000 0.000000 0.000000
# 3 -0.002995 -0.002814 0.011548 0.000000 0.000000 0.000000
# 4 0.000000 0.000000 0.000000 0.027604 0.000000 0.000000
# 5 0.000000 0.000000 0.000000 0.000000 0.046873 0.000000
# 6 0.000000 0.000000 0.000000 0.000000 0.000000 0.035657
#
#
# Mechanical properties :
#
#
# Convention : Reuss Voigt Hill
#
# Bulk Modulus (GPa) = 34.91248 36.67877 35.79563
# Shear Modulus (GPa) = 26.42652 27.85597 27.14125
#
# Velocity S-wave (km/s) = 3.62081 3.71744 3.66944
# Velocity P-wave (km/s) = 5.89919 6.05163 5.97590
#
# Compressibility (1/GPa) = 0.02864305
#
# Stress axis : x y z
#
# Youngs Moduli (GPa) = 55.43004 51.30017 86.59134
#
# Poissons Ratio (x) = 0.22623 0.25937
# Poissons Ratio (y) = 0.24444 0.24370
# Poissons Ratio (z) = 0.16603 0.14438
#
# Static dielectric constant tensor:
#      x y z
#    x 3.715980 0.000000 0.000000 
#    y 0.000000 3.583960 0.000000 
#    z 0.000000 0.000000 3.579660 
# 
# 
# High freq. dielectric constant tensor:
#      x y z
#    x 1.794530 0.000000 0.000000 
#    y 0.000000 1.790790 0.000000 
#    z 0.000000 0.000000 1.788840 
# 
# From -- ./inp_files/15148.got.cif
#   From: 2010.03.12/outbox.cif.g09.slc.cpg/sg62_8_cif.got.tgz:15148.got - 2010.04.10 19:12:36.
