data_PCOD8254661
_publ_section_title
;
Structure prediction by ZEFSAII (Michael W. Deem and Ramdas Pophale) SiO2 
 PCOD8254661
Probable space group: P N M A
;
_chemical_formula_sum "Si O2"
_cell_formula_units_Z 48
_cell_length_a 15.417588
_cell_length_b 23.511239
_cell_length_c 5.193992
_cell_angle_alpha 90.000000
_cell_angle_beta 90.000000
_cell_angle_gamma 90.000000
_cell_volume 1882.752481
_symmetry_space_group_name_H-M "P N M A"
_symmetry_group_IT_number 62
_symmetry_cell_setting 'orthorhombic'
loop_
_space_group_symop_operation_xyz
x,y,z
1/2-x,-y,1/2+z
1/2+x,1/2-y,1/2-z
-x,1/2+y,-z
-x,-y,-z
1/2+x,y,1/2-z
1/2-x,1/2+y,1/2+z
x,1/2-y,z
loop_
_atom_site_type_symbol
_atom_site_label
_atom_site_fract_x
_atom_site_fract_y
_atom_site_fract_z
Si Si1 0.745033 0.462167 0.905659
Si Si2 0.417088 0.427434 0.928386
Si Si3 0.760323 0.750000 0.676246
Si Si4 0.974005 0.860957 0.052521
Si Si5 0.082831 0.452700 0.299385
Si Si6 0.367380 0.750000 0.327363
Si Si7 0.844538 0.135291 0.147616
O O1 0.767246 0.509719 0.124033
O O2 0.651297 0.433221 0.979540
O O3 0.813600 0.407352 0.914106
O O4 0.480653 0.457477 0.136879
O O5 0.335016 0.399283 0.080853
O O6 0.479741 0.380734 0.811002
O O7 0.387386 0.480679 0.737798
O O8 0.838169 0.750000 0.469905
O O9 0.706496 0.806637 0.630076
O O10 0.788429 0.750000 0.972682
O O11 0.923454 0.804827 0.117306
O O12 0.908399 0.908757 0.938141
O O13 0.053657 0.848448 0.859215
#
# Coordination Sequence:
#
# PCOD8254661 Si02
#       7
#     8   8   4   8   8   4   8
#     4  12  26  42  70 108 151 194 243 310 378 451
#     4  10  22  42  71 107 143 195 245 307 380 457
#     4  12  31  53  76 112 150 198 254 324 377 460
#     4  11  25  45  76 102 147 198 252 312 367 468
#     4  10  22  41  68 109 147 194 242 308 379 456
#     4  12  31  51  78 110 144 208 260 314 389 448
#     4  11  26  46  74 109 150 199 254 313 386 444
#
# _framework density 25.494588
#
# number of rings (size 3 to 8) (size 9 to 14) (size 15 to 20)
#    0.000    1.000    1.667    3.000   11.667    0.667 
#    0.000    0.000    0.000    0.000    0.000    0.000 
#    0.000    0.000    0.000    0.000    0.000    0.000 
#
# Total GULP energy -594776.614295 kJ/mol
# GULP energy per Si atom -12391.179464 kJ/mol
# Density = 2.543656 g / cm^3
# Si number density = 25.494588 Si / 1000 Ang^3
#
#
#
# Elastic Constant Matrix: (Units=GPa)
#
#
# Indices 1 2 3 4 5 6 
#
# 1 92.1444 49.4608 -3.5582 0.0000 0.0000 0.0000
# 2 49.4608 211.7131 40.2460 0.0000 0.0000 0.0000
# 3 -3.5582 40.2460 81.1730 0.0000 0.0000 0.0000
# 4 0.0000 0.0000 0.0000 30.9162 0.0000 0.0000
# 5 0.0000 0.0000 0.0000 0.0000 38.7235 0.0000
# 6 0.0000 0.0000 0.0000 0.0000 0.0000 35.6510
#
#
#
# Elastic Compliance Matrix: (Units=1/GPa)
#
#
# Indices 1 2 3 4 5 6 
#
# 1 0.012771 -0.003411 0.002251 0.000000 0.000000 0.000000
# 2 -0.003411 0.006126 -0.003187 0.000000 0.000000 0.000000
# 3 0.002251 -0.003187 0.013998 0.000000 0.000000 0.000000
# 4 0.000000 0.000000 0.000000 0.032346 0.000000 0.000000
# 5 0.000000 0.000000 0.000000 0.000000 0.025824 0.000000
# 6 0.000000 0.000000 0.000000 0.000000 0.000000 0.028050
#
#
# Mechanical properties :
#
#
# Convention : Reuss Voigt Hill
#
# Bulk Modulus (GPa) = 41.32124 61.92531 51.62327
# Shear Modulus (GPa) = 36.79837 40.98359 38.89098
#
# Velocity S-wave (km/s) = 3.80331 4.01376 3.90995
# Velocity P-wave (km/s) = 5.96069 6.76925 6.37780
#
# Compressibility (1/GPa) = 0.02420063
#
# Stress axis : x y z
#
# Youngs Moduli (GPa) = 78.30460 163.23359 71.43800
#
# Poissons Ratio (x) = 0.55686 -0.16082
# Poissons Ratio (y) = 0.26713 0.22767
# Poissons Ratio (z) = -0.17628 0.52022
#
# Static dielectric constant tensor:
#      x y z
#    x 5.271890 0.000000 0.000000 
#    y 0.000000 4.646940 0.000000 
#    z 0.000000 0.000000 4.760500 
# 
# 
# High freq. dielectric constant tensor:
#      x y z
#    x 2.042010 0.000000 0.000000 
#    y 0.000000 2.018150 0.000000 
#    z 0.000000 0.000000 2.020640 
# 
# From -- ./inp_files/1739.got.cif
#   From: 2010.03.12/outbox.cif.g09.slc.cpg/sg62_1_cif.got.tgz:1739.got - 2010.04.10 19:12:36.
