data_PCOD8254803
_publ_section_title
;
Structure prediction by ZEFSAII (Michael W. Deem and Ramdas Pophale) SiO2 
 PCOD8254803
Probable space group: P N M A
;
_chemical_formula_sum "Si O2"
_cell_formula_units_Z 44
_cell_length_a 13.893676
_cell_length_b 16.685412
_cell_length_c 9.396258
_cell_angle_alpha 90.000000
_cell_angle_beta 90.000000
_cell_angle_gamma 90.000000
_cell_volume 2178.256581
_symmetry_space_group_name_H-M "P N M A"
_symmetry_group_IT_number 62
_symmetry_cell_setting 'orthorhombic'
loop_
_space_group_symop_operation_xyz
x,y,z
1/2-x,-y,1/2+z
1/2+x,1/2-y,1/2-z
-x,1/2+y,-z
-x,-y,-z
1/2+x,y,1/2-z
1/2-x,1/2+y,1/2+z
x,1/2-y,z
loop_
_atom_site_type_symbol
_atom_site_label
_atom_site_fract_x
_atom_site_fract_y
_atom_site_fract_z
Si Si1 0.486926 0.750000 0.082288
Si Si2 0.221601 0.602292 0.822476
Si Si3 0.568778 0.601234 0.911269
Si Si4 0.275185 0.750000 0.994609
Si Si5 0.601164 0.998463 0.179583
Si Si6 0.935263 0.075564 0.961159
Si Si7 0.562516 0.750000 0.401030
O O1 0.370529 0.750000 0.092471
O O2 0.527449 0.750000 0.240250
O O3 0.523467 0.673475 0.997599
O O4 0.155337 0.629950 0.690134
O O5 0.300084 0.539086 0.770608
O O6 0.279351 0.675749 0.888178
O O7 0.159129 0.561644 0.946057
O O8 0.487287 0.561175 0.811939
O O9 0.610314 0.535674 0.020710
O O10 0.179771 0.750000 0.093533
O O11 0.585301 0.927426 0.292385
O O12 0.974570 0.168159 0.982053
O O13 0.000000 0.000000 0.000000
#
# Coordination Sequence:
#
# PCOD8254803 Si02
#       7
#     4   8   8   4   8   8   4
#     4  12  21  45  67  94 138 178 224 283 337 410
#     4  11  22  41  64  95 131 173 226 275 336 403
#     4  11  23  38  67  94 129 175 221 274 333 401
#     4  10  23  41  67  94 128 182 222 279 341 402
#     4  11  22  40  61  98 126 174 222 267 343 398
#     4  11  22  43  66  94 134 174 220 279 339 395
#     4  10  24  44  66  96 140 172 226 278 344 408
#
# _framework density 20.199641
#
# number of rings (size 3 to 8) (size 9 to 14) (size 15 to 20)
#    0.000    1.091    5.455    1.636    0.000    0.000 
#    6.545    0.909    0.000    0.000    0.000    0.000 
#    0.000    0.000    0.000    0.000    0.000    0.000 
#
# Total GULP energy -545438.922941 kJ/mol
# GULP energy per Si atom -12396.339158 kJ/mol
# Density = 2.015367 g / cm^3
# Si number density = 20.199641 Si / 1000 Ang^3
#
#
#
# Elastic Constant Matrix: (Units=GPa)
#
#
# Indices 1 2 3 4 5 6 
#
# 1 96.0347 47.0372 35.6164 0.0000 0.0000 0.0000
# 2 47.0372 129.6777 20.5465 0.0000 0.0000 0.0000
# 3 35.6164 20.5465 76.5569 0.0000 0.0000 0.0000
# 4 0.0000 0.0000 0.0000 25.9811 0.0000 0.0000
# 5 0.0000 0.0000 0.0000 0.0000 33.4009 0.0000
# 6 0.0000 0.0000 0.0000 0.0000 0.0000 26.1229
#
#
#
# Elastic Compliance Matrix: (Units=1/GPa)
#
#
# Indices 1 2 3 4 5 6 
#
# 1 0.014673 -0.004429 -0.005638 0.000000 0.000000 0.000000
# 2 -0.004429 0.009391 -0.000460 0.000000 0.000000 0.000000
# 3 -0.005638 -0.000460 0.015808 0.000000 0.000000 0.000000
# 4 0.000000 0.000000 0.000000 0.038490 0.000000 0.000000
# 5 0.000000 0.000000 0.000000 0.000000 0.029939 0.000000
# 6 0.000000 0.000000 0.000000 0.000000 0.000000 0.038281
#
#
# Mechanical properties :
#
#
# Convention : Reuss Voigt Hill
#
# Bulk Modulus (GPa) = 53.13706 56.51883 54.82795
# Shear Modulus (GPa) = 28.75090 30.37226 29.56158
#
# Velocity S-wave (km/s) = 3.77681 3.88184 3.82968
# Velocity P-wave (km/s) = 6.73662 6.93775 6.83793
#
# Compressibility (1/GPa) = 0.01881926
#
# Stress axis : x y z
#
# Youngs Moduli (GPa) = 68.15223 106.48735 63.25759
#
# Poissons Ratio (x) = 0.47163 0.35662
# Poissons Ratio (y) = 0.30185 0.02909
# Poissons Ratio (z) = 0.38422 0.04897
#
# Static dielectric constant tensor:
#      x y z
#    x 3.544430 0.000000 0.000000 
#    y 0.000000 4.159500 0.000000 
#    z 0.000000 0.000000 3.708360 
# 
# 
# High freq. dielectric constant tensor:
#      x y z
#    x 1.777530 0.000000 0.000000 
#    y 0.000000 1.801560 0.000000 
#    z 0.000000 0.000000 1.792770 
# 
# From -- ./inp_files/6375.got.cif
#   From: 2010.03.12/outbox.cif.g09.slc.cpg/sg62_4_cif.got.tgz:6375.got - 2010.04.10 19:12:36.
