data_PCOD8254540
_publ_section_title
;
Structure prediction by ZEFSAII (Michael W. Deem and Ramdas Pophale) SiO2 
 PCOD8254540
Probable space group: P N M A
;
_chemical_formula_sum "Si O2"
_cell_formula_units_Z 64
_cell_length_a 19.997956
_cell_length_b 17.421122
_cell_length_c 9.585775
_cell_angle_alpha 90.000000
_cell_angle_beta 90.000000
_cell_angle_gamma 90.000000
_cell_volume 3339.557777
_symmetry_space_group_name_H-M "P N M A"
_symmetry_group_IT_number 62
_symmetry_cell_setting 'orthorhombic'
loop_
_space_group_symop_operation_xyz
x,y,z
1/2-x,-y,1/2+z
1/2+x,1/2-y,1/2-z
-x,1/2+y,-z
-x,-y,-z
1/2+x,y,1/2-z
1/2-x,1/2+y,1/2+z
x,1/2-y,z
loop_
_atom_site_type_symbol
_atom_site_label
_atom_site_fract_x
_atom_site_fract_y
_atom_site_fract_z
Si Si1 0.744742 0.084841 0.276597
Si Si2 0.500608 0.337843 0.063008
Si Si3 0.487722 0.835936 0.254825
Si Si4 0.854197 0.158990 0.462120
Si Si5 0.144470 0.662150 0.226975
Si Si6 0.804668 0.040329 0.983724
Si Si7 0.897926 0.841085 0.787763
Si Si8 0.063172 0.447628 0.968980
O O1 0.802092 0.137699 0.342898
O O2 0.677860 0.133976 0.264793
O O3 0.737211 0.013303 0.380058
O O4 0.762153 0.059330 0.120445
O O5 0.493615 0.250000 0.107993
O O6 0.426950 0.376265 0.079635
O O7 0.556901 0.374775 0.161593
O O8 0.526865 0.346330 0.907255
O O9 0.465739 0.750000 0.302028
O O10 0.565339 0.847734 0.290129
O O11 0.444389 0.902959 0.323786
O O12 0.861712 0.250000 0.473844
O O13 0.833842 0.130703 0.618786
O O14 0.166630 0.750000 0.209007
O O15 0.180440 0.616798 0.103515
O O16 0.872008 0.000388 0.035974
O O17 0.900478 0.750000 0.803714
O O18 0.930444 0.879213 0.921733
O O19 0.000000 0.500000 0.000000
#
# Coordination Sequence:
#
# PCOD8254540 Si02
#       8
#     8   8   8   8   8   8   8   8
#     4  11  24  39  59  80 121 158 197 241 295 361
#     4   8  17  34  59  88 114 144 194 248 289 340
#     4   9  17  34  59  86 116 150 190 241 294 348
#     4   9  18  35  60  87 112 149 195 240 292 350
#     4   9  18  35  59  84 112 144 189 244 292 343
#     4  11  24  40  56  82 119 157 196 241 294 351
#     4  10  22  40  60  85 119 156 194 247 300 348
#     4  11  22  36  56  86 122 152 190 244 298 353
#
# _framework density 19.164214000000001
#
# number of rings (size 3 to 8) (size 9 to 14) (size 15 to 20)
#    0.000    2.250    1.250    3.000    1.750    2.000 
#    0.000    0.625    0.000    6.750    0.000    0.000 
#    0.000    0.000    0.000    0.000    0.000    0.000 
#
# Total GULP energy -793395.845912 kJ/mol
# GULP energy per Si atom -12396.810092 kJ/mol
# Density = 1.912060 g / cm^3
# Si number density = 19.164214 Si / 1000 Ang^3
#
#
#
# Elastic Constant Matrix: (Units=GPa)
#
#
# Indices 1 2 3 4 5 6 
#
# 1 95.6075 47.2390 71.4612 0.0000 0.0000 0.0000
# 2 47.2390 63.3363 31.2957 0.0000 0.0000 0.0000
# 3 71.4612 31.2957 96.0095 0.0000 0.0000 0.0000
# 4 0.0000 0.0000 0.0000 26.8308 0.0000 0.0000
# 5 0.0000 0.0000 0.0000 0.0000 38.4709 0.0000
# 6 0.0000 0.0000 0.0000 0.0000 0.0000 16.3343
#
#
#
# Elastic Compliance Matrix: (Units=1/GPa)
#
#
# Indices 1 2 3 4 5 6 
#
# 1 0.031618 -0.014249 -0.018889 0.000000 0.000000 0.000000
# 2 -0.014249 0.025241 0.002378 0.000000 0.000000 0.000000
# 3 -0.018889 0.002378 0.023700 0.000000 0.000000 0.000000
# 4 0.000000 0.000000 0.000000 0.037271 0.000000 0.000000
# 5 0.000000 0.000000 0.000000 0.000000 0.025994 0.000000
# 6 0.000000 0.000000 0.000000 0.000000 0.000000 0.061221
#
#
# Mechanical properties :
#
#
# Convention : Reuss Voigt Hill
#
# Bulk Modulus (GPa) = 52.52364 61.66057 57.09211
# Shear Modulus (GPa) = 18.32092 23.32436 20.82264
#
# Velocity S-wave (km/s) = 3.09527 3.49245 3.29984
# Velocity P-wave (km/s) = 6.34357 6.96474 6.66140
#
# Compressibility (1/GPa) = 0.01903905
#
# Stress axis : x y z
#
# Youngs Moduli (GPa) = 31.62715 39.61779 42.19378
#
# Poissons Ratio (x) = 0.56451 0.79702
# Poissons Ratio (y) = 0.45065 -0.10033
# Poissons Ratio (z) = 0.59742 -0.09420
#
# Static dielectric constant tensor:
#      x y z
#    x 3.599520 0.000000 0.000000 
#    y 0.000000 3.489020 0.000000 
#    z 0.000000 0.000000 3.651450 
# 
# 
# High freq. dielectric constant tensor:
#      x y z
#    x 1.741760 0.000000 0.000000 
#    y 0.000000 1.740150 0.000000 
#    z 0.000000 0.000000 1.753610 
# 
# From -- ./inp_files/8907.got.cif
#   From: 2010.03.12/outbox.cif.g09.slc.cpg/sg62_5_cif.got.tgz:8907.got - 2010.04.10 19:12:36.
