data_PCOD8254349
_publ_section_title
;
Structure prediction by ZEFSAII (Michael W. Deem and Ramdas Pophale) SiO2 
 PCOD8254349
Probable space group: P N M A
;
_chemical_formula_sum "Si O2"
_cell_formula_units_Z 40
_cell_length_a 10.009986
_cell_length_b 8.805020
_cell_length_c 22.507579
_cell_angle_alpha 90.000000
_cell_angle_beta 90.000000
_cell_angle_gamma 90.000000
_cell_volume 1983.775855
_symmetry_space_group_name_H-M "P N M A"
_symmetry_group_IT_number 62
_symmetry_cell_setting 'orthorhombic'
loop_
_space_group_symop_operation_xyz
x,y,z
1/2-x,-y,1/2+z
1/2+x,1/2-y,1/2-z
-x,1/2+y,-z
-x,-y,-z
1/2+x,y,1/2-z
1/2-x,1/2+y,1/2+z
x,1/2-y,z
loop_
_atom_site_type_symbol
_atom_site_label
_atom_site_fract_x
_atom_site_fract_y
_atom_site_fract_z
Si Si1 0.523472 0.923993 0.301126
Si Si2 0.029690 0.072867 0.321767
Si Si3 0.354724 0.428793 0.500672
Si Si4 0.276704 0.573250 0.382962
Si Si5 0.779669 0.926071 0.377369
O O1 0.506664 0.750000 0.280006
O O2 0.418557 0.961806 0.352770
O O3 0.670686 0.954164 0.326212
O O4 0.494279 0.033120 0.246002
O O5 0.058206 0.250000 0.328215
O O6 0.160773 0.980331 0.339355
O O7 0.907857 0.027868 0.364187
O O8 0.500000 0.500000 0.500000
O O9 0.372953 0.250000 0.499817
O O10 0.268040 0.482854 0.444639
O O11 0.277237 0.480769 0.559588
O O12 0.259747 0.750000 0.396685
O O13 0.821801 0.750000 0.379279
#
# Coordination Sequence:
#
# PCOD8254349 Si02
#       5
#     8   8   8   8   8
#     4  10  21  41  66  90 120 164 210 249 301 372
#     4  12  26  40  58  93 129 162 204 257 313 359
#     4  11  22  40  66  95 124 157 205 257 306 367
#     4  11  23  42  66  92 123 166 208 251 309 369
#     4  10  22  42  65  90 121 164 207 246 301 370
#
# _framework density 20.163568000000001
#
# number of rings (size 3 to 8) (size 9 to 14) (size 15 to 20)
#    0.000    1.200    2.000    4.200    0.000    9.600 
#    0.000    0.000    0.000    0.000    0.000    0.000 
#    0.000    0.000    0.000    0.000    0.000    0.000 
#
# Total GULP energy -496313.886731 kJ/mol
# GULP energy per Si atom -12407.847168 kJ/mol
# Density = 2.011768 g / cm^3
# Si number density = 20.163568 Si / 1000 Ang^3
#
#
#
# Elastic Constant Matrix: (Units=GPa)
#
#
# Indices 1 2 3 4 5 6 
#
# 1 70.5502 24.4824 4.5168 0.0000 0.0000 0.0000
# 2 24.4824 51.6463 32.2606 0.0000 0.0000 0.0000
# 3 4.5168 32.2606 99.2334 0.0000 0.0000 0.0000
# 4 0.0000 0.0000 0.0000 36.4368 0.0000 0.0000
# 5 0.0000 0.0000 0.0000 0.0000 27.4262 0.0000
# 6 0.0000 0.0000 0.0000 0.0000 0.0000 33.1334
#
#
#
# Elastic Compliance Matrix: (Units=1/GPa)
#
#
# Indices 1 2 3 4 5 6 
#
# 1 0.017399 -0.009728 0.002371 0.000000 0.000000 0.000000
# 2 -0.009728 0.029736 -0.009224 0.000000 0.000000 0.000000
# 3 0.002371 -0.009224 0.012968 0.000000 0.000000 0.000000
# 4 0.000000 0.000000 0.000000 0.027445 0.000000 0.000000
# 5 0.000000 0.000000 0.000000 0.000000 0.036461 0.000000
# 6 0.000000 0.000000 0.000000 0.000000 0.000000 0.030181
#
#
# Mechanical properties :
#
#
# Convention : Reuss Voigt Hill
#
# Bulk Modulus (GPa) = 37.12133 38.21661 37.66897
# Shear Modulus (GPa) = 25.46684 30.07727 27.77205
#
# Velocity S-wave (km/s) = 3.55774 3.86640 3.71528
# Velocity P-wave (km/s) = 5.94363 6.23911 6.09316
#
# Compressibility (1/GPa) = 0.02693869
#
# Stress axis : x y z
#
# Youngs Moduli (GPa) = 57.47619 33.62916 77.11197
#
# Poissons Ratio (x) = 0.32716 -0.18282
# Poissons Ratio (y) = 0.55916 0.71131
# Poissons Ratio (z) = -0.13626 0.31021
#
# Static dielectric constant tensor:
#      x y z
#    x 3.651330 0.000000 0.000000 
#    y 0.000000 3.643740 0.000000 
#    z 0.000000 0.000000 3.848080 
# 
# 
# High freq. dielectric constant tensor:
#      x y z
#    x 1.792700 0.000000 0.000000 
#    y 0.000000 1.785180 0.000000 
#    z 0.000000 0.000000 1.799950 
# 
# From -- ./inp_files/26461.got.cif
#   From: 2010.03.12/outbox.cif.g09.slc.cpg/sg62_14_cif.got.tgz:26461.got - 2010.04.10 19:12:36.
