data_PCOD8254168
_publ_section_title
;
Structure prediction by ZEFSAII (Michael W. Deem and Ramdas Pophale) SiO2 
 PCOD8254168
Probable space group: P N M A
;
_chemical_formula_sum "Si O2"
_cell_formula_units_Z 48
_cell_length_a 16.890558
_cell_length_b 15.028885
_cell_length_c 9.499771
_cell_angle_alpha 90.000000
_cell_angle_beta 90.000000
_cell_angle_gamma 90.000000
_cell_volume 2411.481280
_symmetry_space_group_name_H-M "P N M A"
_symmetry_group_IT_number 62
_symmetry_cell_setting 'orthorhombic'
loop_
_space_group_symop_operation_xyz
x,y,z
1/2-x,-y,1/2+z
1/2+x,1/2-y,1/2-z
-x,1/2+y,-z
-x,-y,-z
1/2+x,y,1/2-z
1/2-x,1/2+y,1/2+z
x,1/2-y,z
loop_
_atom_site_type_symbol
_atom_site_label
_atom_site_fract_x
_atom_site_fract_y
_atom_site_fract_z
Si Si1 0.064072 0.852675 0.135786
Si Si2 0.431974 0.648592 0.585482
Si Si3 0.486924 0.911557 0.090539
Si Si4 0.180829 0.504774 0.017288
Si Si5 0.337206 0.995223 0.191516
Si Si6 0.952653 0.347341 0.326375
O O1 0.092598 0.750000 0.146584
O O2 0.127666 0.908553 0.047329
O O3 0.053008 0.896041 0.289407
O O4 0.979195 0.857935 0.060296
O O5 0.404277 0.750000 0.615466
O O6 0.356456 0.584855 0.581679
O O7 0.488859 0.612063 0.709019
O O8 0.399864 0.915510 0.160430
O O9 0.499197 0.835251 0.973516
O O10 0.500000 0.000000 0.000000
O O11 0.265222 0.520186 0.086709
O O12 0.192672 0.491756 0.851207
O O13 0.376289 0.090580 0.158518
O O14 0.923751 0.250000 0.276681
#
# Coordination Sequence:
#
# PCOD8254168 Si02
#       6
#     8   8   8   8   8   8
#     4  11  22  41  68  91 118 165 217 261 309 366
#     4  10  21  40  68  91 114 161 214 258 308 364
#     4  10  21  39  63  91 119 160 205 258 305 364
#     4  12  24  41  60  90 129 165 201 261 314 380
#     4  11  25  38  61  89 126 165 204 249 319 380
#     4  10  21  40  65  91 119 156 210 265 309 367
#
# _framework density 19.904776999999999
#
# number of rings (size 3 to 8) (size 9 to 14) (size 15 to 20)
#    0.000    1.333    3.333    3.000    7.000    0.667 
#    0.000    2.500    0.000    0.000    0.000    0.000 
#    0.000    0.000    0.000    0.000    0.000    0.000 
#
# Total GULP energy -595116.095613 kJ/mol
# GULP energy per Si atom -12398.251992 kJ/mol
# Density = 1.985947 g / cm^3
# Si number density = 19.904777 Si / 1000 Ang^3
#
#
#
# Elastic Constant Matrix: (Units=GPa)
#
#
# Indices 1 2 3 4 5 6 
#
# 1 85.9396 23.4823 25.7148 0.0000 0.0000 0.0000
# 2 23.4823 73.6294 3.2957 0.0000 0.0000 0.0000
# 3 25.7148 3.2957 121.8980 0.0000 0.0000 0.0000
# 4 0.0000 0.0000 0.0000 27.4074 0.0000 0.0000
# 5 0.0000 0.0000 0.0000 0.0000 35.9500 0.0000
# 6 0.0000 0.0000 0.0000 0.0000 0.0000 15.6032
#
#
#
# Elastic Compliance Matrix: (Units=1/GPa)
#
#
# Indices 1 2 3 4 5 6 
#
# 1 0.013614 -0.004218 -0.002758 0.000000 0.000000 0.000000
# 2 -0.004218 0.014905 0.000487 0.000000 0.000000 0.000000
# 3 -0.002758 0.000487 0.008772 0.000000 0.000000 0.000000
# 4 0.000000 0.000000 0.000000 0.036487 0.000000 0.000000
# 5 0.000000 0.000000 0.000000 0.000000 0.027816 0.000000
# 6 0.000000 0.000000 0.000000 0.000000 0.000000 0.064089
#
#
# Mechanical properties :
#
#
# Convention : Reuss Voigt Hill
#
# Bulk Modulus (GPa) = 41.13106 42.93918 42.03512
# Shear Modulus (GPa) = 26.77139 31.05705 28.91422
#
# Velocity S-wave (km/s) = 3.67137 3.95432 3.81547
# Velocity P-wave (km/s) = 6.21938 6.51675 6.36980
#
# Compressibility (1/GPa) = 0.02431253
#
# Stress axis : x y z
#
# Youngs Moduli (GPa) = 73.45418 67.09119 113.99654
#
# Poissons Ratio (x) = 0.28302 0.31439
# Poissons Ratio (y) = 0.30986 -0.05551
# Poissons Ratio (z) = 0.20258 -0.03267
#
# Static dielectric constant tensor:
#      x y z
#    x 3.347460 0.000000 0.000000 
#    y 0.000000 3.825900 0.000000 
#    z 0.000000 0.000000 4.066050 
# 
# 
# High freq. dielectric constant tensor:
#      x y z
#    x 1.745150 0.000000 0.000000 
#    y 0.000000 1.778330 0.000000 
#    z 0.000000 0.000000 1.801300 
# 
# From -- ./inp_files/7641.got.cif
#   From: 2010.03.12/outbox.cif.g09.slc.cpg/sg62_4_cif.got.tgz:7641.got - 2010.04.10 19:12:36.
