data_PCOD8254018
_publ_section_title
;
Structure prediction by ZEFSAII (Michael W. Deem and Ramdas Pophale) SiO2 
 PCOD8254018
Probable space group: P N M A
;
_chemical_formula_sum "Si O2"
_cell_formula_units_Z 48
_cell_length_a 18.611310
_cell_length_b 14.390847
_cell_length_c 8.740452
_cell_angle_alpha 90.000000
_cell_angle_beta 90.000000
_cell_angle_gamma 90.000000
_cell_volume 2340.977239
_symmetry_space_group_name_H-M "P N M A"
_symmetry_group_IT_number 62
_symmetry_cell_setting 'orthorhombic'
loop_
_space_group_symop_operation_xyz
x,y,z
1/2-x,-y,1/2+z
1/2+x,1/2-y,1/2-z
-x,1/2+y,-z
-x,-y,-z
1/2+x,y,1/2-z
1/2-x,1/2+y,1/2+z
x,1/2-y,z
loop_
_atom_site_type_symbol
_atom_site_label
_atom_site_fract_x
_atom_site_fract_y
_atom_site_fract_z
Si Si1 0.533935 0.250000 0.310339
Si Si2 0.584397 0.750000 0.924395
Si Si3 0.081633 0.442695 0.109890
Si Si4 0.046351 0.048605 0.778923
Si Si5 0.660201 0.250000 0.067332
Si Si6 0.158861 0.555918 0.595625
Si Si7 0.285516 0.937911 0.822770
Si Si8 0.956739 0.750000 0.331866
O O1 0.453577 0.250000 0.241279
O O2 0.545207 0.158354 0.410203
O O3 0.593346 0.250000 0.179592
O O4 0.635073 0.839474 0.941315
O O5 0.522232 0.750000 0.049953
O O6 0.160146 0.440462 0.180449
O O7 0.033248 0.504796 0.223690
O O8 0.084784 0.482664 0.937713
O O9 0.037706 0.158944 0.771417
O O10 0.089812 0.008431 0.633399
O O11 0.710104 0.339887 0.089081
O O12 0.623842 0.250000 0.901261
O O13 0.199484 0.519154 0.444745
O O14 0.207965 0.551189 0.746889
#
# Coordination Sequence:
#
# PCOD8254018 Si02
#       8
#     4   4   8   8   4   8   8   4
#     4   9  17  34  60  88 118 153 198 245 306 371
#     4  11  23  38  64  94 122 161 207 255 317 373
#     4  10  21  38  61  93 124 163 201 259 313 379
#     4  11  22  37  63  93 127 159 208 262 320 369
#     4   9  19  36  61  86 117 156 202 252 300 368
#     4  12  24  41  63  90 126 170 213 265 312 383
#     4  11  23  41  62  87 123 165 211 251 314 375
#     4  11  21  38  63  98 123 158 209 266 311 378
#
# _framework density 20.504256999999999
#
# number of rings (size 3 to 8) (size 9 to 14) (size 15 to 20)
#    0.000    1.333    3.333    3.000    0.000    1.333 
#    0.000    3.333    0.000    0.000    0.000    0.000 
#    0.000    0.000    0.000    0.000    0.000    0.000 
#
# Total GULP energy -595285.450105 kJ/mol
# GULP energy per Si atom -12401.780211 kJ/mol
# Density = 2.045759 g / cm^3
# Si number density = 20.504257 Si / 1000 Ang^3
#
#
#
# Elastic Constant Matrix: (Units=GPa)
#
#
# Indices 1 2 3 4 5 6 
#
# 1 68.2473 31.2195 23.1702 0.0000 0.0000 0.0000
# 2 31.2195 134.2666 15.5725 0.0000 0.0000 0.0000
# 3 23.1702 15.5725 64.9797 0.0000 0.0000 0.0000
# 4 0.0000 0.0000 0.0000 28.3934 0.0000 0.0000
# 5 0.0000 0.0000 0.0000 0.0000 32.6719 0.0000
# 6 0.0000 0.0000 0.0000 0.0000 0.0000 8.1952
#
#
#
# Elastic Compliance Matrix: (Units=1/GPa)
#
#
# Indices 1 2 3 4 5 6 
#
# 1 0.018202 -0.003579 -0.005633 0.000000 0.000000 0.000000
# 2 -0.003579 0.008365 -0.000728 0.000000 0.000000 0.000000
# 3 -0.005633 -0.000728 0.017572 0.000000 0.000000 0.000000
# 4 0.000000 0.000000 0.000000 0.035219 0.000000 0.000000
# 5 0.000000 0.000000 0.000000 0.000000 0.030607 0.000000
# 6 0.000000 0.000000 0.000000 0.000000 0.000000 0.122022
#
#
# Mechanical properties :
#
#
# Convention : Reuss Voigt Hill
#
# Bulk Modulus (GPa) = 41.22204 45.26867 43.24535
# Shear Modulus (GPa) = 19.23412 27.02086 23.12749
#
# Velocity S-wave (km/s) = 3.06609 3.63411 3.36212
# Velocity P-wave (km/s) = 5.71685 6.30354 6.01735
#
# Compressibility (1/GPa) = 0.02425887
#
# Stress axis : x y z
#
# Youngs Moduli (GPa) = 54.93859 119.55222 56.90716
#
# Poissons Ratio (x) = 0.42788 0.32054
# Poissons Ratio (y) = 0.19663 0.04145
# Poissons Ratio (z) = 0.30945 0.08708
#
# Static dielectric constant tensor:
#      x y z
#    x 3.557140 0.000000 0.000000 
#    y 0.000000 3.815780 0.000000 
#    z 0.000000 0.000000 3.494420 
# 
# 
# High freq. dielectric constant tensor:
#      x y z
#    x 1.791680 0.000000 0.000000 
#    y 0.000000 1.809730 0.000000 
#    z 0.000000 0.000000 1.799020 
# 
# From -- ./inp_files/7697.got.cif
#   From: 2010.03.12/outbox.cif.g09.slc.cpg/sg62_4_cif.got.tgz:7697.got - 2010.04.10 19:12:36.
