data_PCOD8254448
_publ_section_title
;
Structure prediction by ZEFSAII (Michael W. Deem and Ramdas Pophale) SiO2 
 PCOD8254448
Probable space group: P N M A
;
_chemical_formula_sum "Si O2"
_cell_formula_units_Z 64
_cell_length_a 23.371835
_cell_length_b 14.067993
_cell_length_c 9.383233
_cell_angle_alpha 90.000000
_cell_angle_beta 90.000000
_cell_angle_gamma 90.000000
_cell_volume 3085.158322
_symmetry_space_group_name_H-M "P N M A"
_symmetry_group_IT_number 62
_symmetry_cell_setting 'orthorhombic'
loop_
_space_group_symop_operation_xyz
x,y,z
1/2-x,-y,1/2+z
1/2+x,1/2-y,1/2-z
-x,1/2+y,-z
-x,-y,-z
1/2+x,y,1/2-z
1/2-x,1/2+y,1/2+z
x,1/2-y,z
loop_
_atom_site_type_symbol
_atom_site_label
_atom_site_fract_x
_atom_site_fract_y
_atom_site_fract_z
Si Si1 0.908727 0.142942 0.252219
Si Si2 0.520287 0.083632 0.604629
Si Si3 0.216977 0.359663 0.092524
Si Si4 0.326980 0.485134 0.088882
Si Si5 0.400815 0.144342 0.567320
Si Si6 0.144077 0.357743 0.820960
Si Si7 0.509208 0.040279 0.153282
Si Si8 0.136422 0.021681 0.275464
O O1 0.888691 0.250000 0.253017
O O2 0.876076 0.089229 0.376237
O O3 0.975313 0.135281 0.298381
O O4 0.893936 0.101838 0.093960
O O5 0.469090 0.160337 0.593121
O O6 0.585388 0.120427 0.588517
O O7 0.500000 0.000000 0.500000
O O8 0.519881 0.045746 0.763515
O O9 0.234406 0.250000 0.127034
O O10 0.267153 0.434780 0.124639
O O11 0.165896 0.391650 0.194981
O O12 0.196612 0.367956 0.929775
O O13 0.339446 0.578366 0.184310
O O14 0.328753 0.503188 0.920164
O O15 0.373221 0.250000 0.581880
O O16 0.369271 0.073610 0.677593
O O17 0.139097 0.250000 0.763882
O O18 0.574363 0.061326 0.187460
O O19 0.500000 0.000000 0.000000
#
# Coordination Sequence:
#
# PCOD8254448 Si02
#       8
#     8   8   8   8   8   8   8   8
#     4  11  22  38  64  92 128 177 220 263 327 396
#     4  11  18  35  61  89 130 167 203 258 316 384
#     4  11  26  44  66  94 122 167 224 273 326 384
#     4  12  23  46  65  90 131 171 215 272 329 382
#     4  10  22  37  60  98 131 169 214 259 319 390
#     4  11  23  41  67  95 125 170 219 264 324 394
#     4  11  20  38  58  93 131 169 205 259 333 391
#     4  11  24  40  68  94 132 170 214 273 329 389
#
# _framework density 20.744478000000001
#
# number of rings (size 3 to 8) (size 9 to 14) (size 15 to 20)
#    0.000    1.000    3.750    3.750    0.000    2.000 
#    0.000    2.500    0.000    0.000    0.000    0.000 
#    0.000    0.000    0.000    0.000    0.000    0.000 
#
# Total GULP energy -792994.015687 kJ/mol
# GULP energy per Si atom -12390.531495 kJ/mol
# Density = 2.069726 g / cm^3
# Si number density = 20.744478 Si / 1000 Ang^3
#
#
#
# Elastic Constant Matrix: (Units=GPa)
#
#
# Indices 1 2 3 4 5 6 
#
# 1 87.7703 43.8865 18.5447 0.0000 0.0000 0.0000
# 2 43.8865 108.8144 55.5747 0.0000 0.0000 0.0000
# 3 18.5447 55.5747 133.0146 0.0000 0.0000 0.0000
# 4 0.0000 0.0000 0.0000 26.9936 0.0000 0.0000
# 5 0.0000 0.0000 0.0000 0.0000 30.7040 0.0000
# 6 0.0000 0.0000 0.0000 0.0000 0.0000 26.5730
#
#
#
# Elastic Compliance Matrix: (Units=1/GPa)
#
#
# Indices 1 2 3 4 5 6 
#
# 1 0.014301 -0.006038 0.000529 0.000000 0.000000 0.000000
# 2 -0.006038 0.014232 -0.005105 0.000000 0.000000 0.000000
# 3 0.000529 -0.005105 0.009577 0.000000 0.000000 0.000000
# 4 0.000000 0.000000 0.000000 0.037046 0.000000 0.000000
# 5 0.000000 0.000000 0.000000 0.000000 0.032569 0.000000
# 6 0.000000 0.000000 0.000000 0.000000 0.000000 0.037632
#
#
# Mechanical properties :
#
#
# Convention : Reuss Voigt Hill
#
# Bulk Modulus (GPa) = 59.23181 62.84568 61.03875
# Shear Modulus (GPa) = 29.03412 30.96034 29.99723
#
# Velocity S-wave (km/s) = 3.74519 3.86743 3.80680
# Velocity P-wave (km/s) = 6.87873 7.09250 6.98644
#
# Compressibility (1/GPa) = 0.01688282
#
# Stress axis : x y z
#
# Youngs Moduli (GPa) = 69.92714 70.26371 104.41737
#
# Poissons Ratio (x) = 0.42423 -0.05522
# Poissons Ratio (y) = 0.42220 0.53300
# Poissons Ratio (z) = -0.03698 0.35866
#
# Static dielectric constant tensor:
#      x y z
#    x 3.669160 0.000000 0.000000 
#    y 0.000000 3.736350 0.000000 
#    z 0.000000 0.000000 3.806760 
# 
# 
# High freq. dielectric constant tensor:
#      x y z
#    x 1.810980 0.000000 0.000000 
#    y 0.000000 1.806820 0.000000 
#    z 0.000000 0.000000 1.819370 
# 
# From -- ./inp_files/9484.got.cif
#   From: 2010.03.12/outbox.cif.g09.slc.cpg/sg62_5_cif.got.tgz:9484.got - 2010.04.10 19:12:36.
