data_PCOD8254005
_publ_section_title
;
Structure prediction by ZEFSAII (Michael W. Deem and Ramdas Pophale) SiO2 
 PCOD8254005
Probable space group: P N M A
;
_chemical_formula_sum "Si O2"
_cell_formula_units_Z 48
_cell_length_a 28.634403
_cell_length_b 9.289587
_cell_length_c 9.198243
_cell_angle_alpha 90.000000
_cell_angle_beta 90.000000
_cell_angle_gamma 90.000000
_cell_volume 2446.748991
_symmetry_space_group_name_H-M "P N M A"
_symmetry_group_IT_number 62
_symmetry_cell_setting 'orthorhombic'
loop_
_space_group_symop_operation_xyz
x,y,z
1/2-x,-y,1/2+z
1/2+x,1/2-y,1/2-z
-x,1/2+y,-z
-x,-y,-z
1/2+x,y,1/2-z
1/2-x,1/2+y,1/2+z
x,1/2-y,z
loop_
_atom_site_type_symbol
_atom_site_label
_atom_site_fract_x
_atom_site_fract_y
_atom_site_fract_z
Si Si1 0.385908 0.084738 0.695266
Si Si2 0.035367 0.909634 0.592029
Si Si3 0.362721 0.083419 0.021489
Si Si4 0.022436 0.088318 0.127288
Si Si5 0.786908 0.581556 0.295567
Si Si6 0.200756 0.583621 0.003105
O O1 0.402383 0.250000 0.682092
O O2 0.359984 0.059766 0.848468
O O3 0.350496 0.045569 0.565165
O O4 0.431006 0.984445 0.688456
O O5 0.036259 0.750000 0.523419
O O6 0.087503 0.972066 0.582290
O O7 0.018785 0.907499 0.756367
O O8 0.000000 0.000000 0.500000
O O9 0.353692 0.250000 0.062736
O O10 0.324767 0.985300 0.097465
O O11 0.035159 0.250000 0.077207
O O12 0.000000 0.000000 0.000000
O O13 0.796895 0.750000 0.278278
O O14 0.788248 0.512560 0.136239
O O15 0.736795 0.551310 0.367151
O O16 0.203496 0.750000 0.955561
#
# Coordination Sequence:
#
# PCOD8254005 Si02
#       6
#     8   8   8   8   8   8
#     4  10  21  40  64  87 116 160 203 243 300 361
#     4  10  21  38  61  87 118 159 203 247 296 352
#     4  10  21  39  63  89 121 161 198 243 304 359
#     4  11  24  39  58  88 123 160 203 251 300 355
#     4  11  24  41  64  94 121 155 200 245 294 354
#     4  10  23  42  63  88 121 156 195 242 297 358
#
# _framework density 19.617867
#
# number of rings (size 3 to 8) (size 9 to 14) (size 15 to 20)
#    0.000    1.667    1.667    2.000    2.333    5.333 
#    0.000    0.000    0.000    0.000    0.000    0.000 
#    0.000    0.000    0.000    0.000    0.000    0.000 
#
# Total GULP energy -595308.201992 kJ/mol
# GULP energy per Si atom -12402.254208 kJ/mol
# Density = 1.957322 g / cm^3
# Si number density = 19.617867 Si / 1000 Ang^3
#
#
#
# Elastic Constant Matrix: (Units=GPa)
#
#
# Indices 1 2 3 4 5 6 
#
# 1 81.3954 42.4751 24.9517 0.0000 0.0000 0.0000
# 2 42.4751 103.0317 53.4612 0.0000 0.0000 0.0000
# 3 24.9517 53.4612 102.5524 0.0000 0.0000 0.0000
# 4 0.0000 0.0000 0.0000 36.9962 0.0000 0.0000
# 5 0.0000 0.0000 0.0000 0.0000 36.1900 0.0000
# 6 0.0000 0.0000 0.0000 0.0000 0.0000 34.2547
#
#
#
# Elastic Compliance Matrix: (Units=1/GPa)
#
#
# Indices 1 2 3 4 5 6 
#
# 1 0.015681 -0.006148 -0.000610 0.000000 0.000000 0.000000
# 2 -0.006148 0.015715 -0.006696 0.000000 0.000000 0.000000
# 3 -0.000610 -0.006696 0.013391 0.000000 0.000000 0.000000
# 4 0.000000 0.000000 0.000000 0.027030 0.000000 0.000000
# 5 0.000000 0.000000 0.000000 0.000000 0.027632 0.000000
# 6 0.000000 0.000000 0.000000 0.000000 0.000000 0.029193
#
#
# Mechanical properties :
#
#
# Convention : Reuss Voigt Hill
#
# Bulk Modulus (GPa) = 55.93762 58.75062 57.34412
# Shear Modulus (GPa) = 30.95792 32.56094 31.75943
#
# Velocity S-wave (km/s) = 3.97677 4.07843 4.02792
# Velocity P-wave (km/s) = 7.04711 7.22431 7.13626
#
# Compressibility (1/GPa) = 0.01787706
#
# Stress axis : x y z
#
# Youngs Moduli (GPa) = 63.77149 63.63394 74.67963
#
# Poissons Ratio (x) = 0.39121 0.04558
# Poissons Ratio (y) = 0.39206 0.50009
# Poissons Ratio (z) = 0.03893 0.42612
#
# Static dielectric constant tensor:
#      x y z
#    x 3.892170 0.000000 0.000000 
#    y 0.000000 3.765680 0.000000 
#    z 0.000000 0.000000 4.400880 
# 
# 
# High freq. dielectric constant tensor:
#      x y z
#    x 1.775210 0.000000 0.000000 
#    y 0.000000 1.764280 0.000000 
#    z 0.000000 0.000000 1.772880 
# 
# From -- ./inp_files/10257.got.cif
#   From: 2010.03.12/outbox.cif.g09.slc.cpg/sg62_6_cif.got.tgz:10257.got - 2010.04.10 19:12:36.
