data_PCOD8254544
_publ_section_title
;
Structure prediction by ZEFSAII (Michael W. Deem and Ramdas Pophale) SiO2 
 PCOD8254544
Probable space group: P N M A
;
_chemical_formula_sum "Si O2"
_cell_formula_units_Z 64
_cell_length_a 15.456982
_cell_length_b 8.474537
_cell_length_c 23.944017
_cell_angle_alpha 90.000000
_cell_angle_beta 90.000000
_cell_angle_gamma 90.000000
_cell_volume 3136.445125
_symmetry_space_group_name_H-M "P N M A"
_symmetry_group_IT_number 62
_symmetry_cell_setting 'orthorhombic'
loop_
_space_group_symop_operation_xyz
x,y,z
1/2-x,-y,1/2+z
1/2+x,1/2-y,1/2-z
-x,1/2+y,-z
-x,-y,-z
1/2+x,y,1/2-z
1/2-x,1/2+y,1/2+z
x,1/2-y,z
loop_
_atom_site_type_symbol
_atom_site_label
_atom_site_fract_x
_atom_site_fract_y
_atom_site_fract_z
Si Si1 0.845570 0.432159 0.245905
Si Si2 0.902462 0.064184 0.628969
Si Si3 0.586866 0.433779 0.355314
Si Si4 0.250546 0.436355 0.071971
Si Si5 0.339153 0.434751 0.751711
Si Si6 0.406558 0.934138 0.368745
Si Si7 0.248938 0.062234 0.945531
Si Si8 0.906718 0.934637 0.357849
O O1 0.857528 0.250000 0.230012
O O2 0.747130 0.468855 0.262360
O O3 0.875075 0.537882 0.194212
O O4 0.902360 0.471312 0.299961
O O5 0.890713 0.250000 0.629726
O O6 0.878260 0.000847 0.690469
O O7 0.836303 0.992937 0.583185
O O8 0.001186 0.018526 0.614128
O O9 0.593017 0.250000 0.341807
O O10 0.662459 0.486663 0.397392
O O11 0.593075 0.530340 0.297583
O O12 0.494859 0.474182 0.382915
O O13 0.265783 0.250000 0.074882
O O14 0.331643 0.521129 0.099700
O O15 0.243879 0.499190 0.008738
O O16 0.317621 0.250000 0.754240
O O17 0.422645 0.750000 0.377699
O O18 0.334048 0.999622 0.411266
O O19 0.249983 0.250000 0.944177
O O20 0.902478 0.750000 0.343900
#
# Coordination Sequence:
#
# PCOD8254544 Si02
#       8
#     8   8   8   8   8   8   8   8
#     4  12  23  37  59  89 125 157 189 243 310 363
#     4   9  19  36  60  89 116 149 196 244 289 344
#     4  11  23  38  57  88 126 159 195 245 305 359
#     4  10  22  40  61  84 118 161 201 246 303 354
#     4  11  20  36  63  90 118 156 201 243 292 362
#     4  11  22  39  64  89 115 157 207 248 295 360
#     4   9  19  39  63  85 114 157 204 250 298 353
#     4  11  22  37  61  90 120 156 201 246 290 354
#
# _framework density 20.405268
#
# number of rings (size 3 to 8) (size 9 to 14) (size 15 to 20)
#    0.000    1.500    2.500    3.375    0.000    2.500 
#    0.000    3.125    0.000    0.000    0.000    0.000 
#    0.000    0.000    0.000    0.000    0.000    0.000 
#
# Total GULP energy -793833.843214 kJ/mol
# GULP energy per Si atom -12403.653800 kJ/mol
# Density = 2.035882 g / cm^3
# Si number density = 20.405268 Si / 1000 Ang^3
#
#
#
# Elastic Constant Matrix: (Units=GPa)
#
#
# Indices 1 2 3 4 5 6 
#
# 1 151.3887 23.7526 60.3500 0.0000 0.0000 0.0000
# 2 23.7526 45.2545 15.9384 0.0000 0.0000 0.0000
# 3 60.3500 15.9384 139.2956 0.0000 0.0000 0.0000
# 4 0.0000 0.0000 0.0000 21.9586 0.0000 0.0000
# 5 0.0000 0.0000 0.0000 0.0000 15.1890 0.0000
# 6 0.0000 0.0000 0.0000 0.0000 0.0000 20.7854
#
#
#
# Elastic Compliance Matrix: (Units=1/GPa)
#
#
# Indices 1 2 3 4 5 6 
#
# 1 0.008424 -0.003268 -0.003276 0.000000 0.000000 0.000000
# 2 -0.003268 0.024293 -0.001364 0.000000 0.000000 0.000000
# 3 -0.003276 -0.001364 0.008754 0.000000 0.000000 0.000000
# 4 0.000000 0.000000 0.000000 0.045540 0.000000 0.000000
# 5 0.000000 0.000000 0.000000 0.000000 0.065837 0.000000
# 6 0.000000 0.000000 0.000000 0.000000 0.000000 0.048111
#
#
# Mechanical properties :
#
#
# Convention : Reuss Voigt Hill
#
# Bulk Modulus (GPa) = 38.97693 59.55788 49.26740
# Shear Modulus (GPa) = 22.19005 27.31312 24.75159
#
# Velocity S-wave (km/s) = 3.30125 3.66257 3.48659
# Velocity P-wave (km/s) = 5.80292 6.86562 6.35652
#
# Compressibility (1/GPa) = 0.02565620
#
# Stress axis : x y z
#
# Youngs Moduli (GPa) = 118.70679 41.16450 114.22956
#
# Poissons Ratio (x) = 0.13452 0.37420
# Poissons Ratio (y) = 0.38791 0.15579
# Poissons Ratio (z) = 0.38887 0.05614
#
# Static dielectric constant tensor:
#      x y z
#    x 3.921290 0.000000 0.000000 
#    y 0.000000 3.397030 0.000000 
#    z 0.000000 0.000000 3.786730 
# 
# 
# High freq. dielectric constant tensor:
#      x y z
#    x 1.813960 0.000000 0.000000 
#    y 0.000000 1.775010 0.000000 
#    z 0.000000 0.000000 1.793000 
# 
# From -- ./inp_files/29869.got.cif
#   From: 2010.03.12/outbox.cif.g09.slc.cpg/sg62_15_cif.got.tgz:29869.got - 2010.04.10 19:12:36.
