data_PCOD8254429
_publ_section_title
;
Structure prediction by ZEFSAII (Michael W. Deem and Ramdas Pophale) SiO2 
 PCOD8254429
Probable space group: P N M A
;
_chemical_formula_sum "Si O2"
_cell_formula_units_Z 44
_cell_length_a 9.563308
_cell_length_b 11.577205
_cell_length_c 20.062382
_cell_angle_alpha 90.000000
_cell_angle_beta 90.000000
_cell_angle_gamma 90.000000
_cell_volume 2221.234253
_symmetry_space_group_name_H-M "P N M A"
_symmetry_group_IT_number 62
_symmetry_cell_setting 'orthorhombic'
loop_
_space_group_symop_operation_xyz
x,y,z
1/2-x,-y,1/2+z
1/2+x,1/2-y,1/2-z
-x,1/2+y,-z
-x,-y,-z
1/2+x,y,1/2-z
1/2-x,1/2+y,1/2+z
x,1/2-y,z
loop_
_atom_site_type_symbol
_atom_site_label
_atom_site_fract_x
_atom_site_fract_y
_atom_site_fract_z
Si Si1 0.855823 0.544235 0.082496
Si Si2 0.173695 0.750000 0.384514
Si Si3 0.156877 0.250000 0.609776
Si Si4 0.202104 0.112180 0.179804
Si Si5 0.078916 0.505823 0.777320
Si Si6 0.848215 0.750000 0.242398
Si Si7 0.165018 0.950795 0.060671
O O1 0.736779 0.639942 0.078353
O O2 0.843070 0.471205 0.151539
O O3 0.012795 0.599059 0.081571
O O4 0.834116 0.465286 0.018572
O O5 0.216129 0.750000 0.307027
O O6 0.009131 0.750000 0.390815
O O7 0.217342 0.250000 0.684305
O O8 0.211151 0.137480 0.573104
O O9 0.203629 0.250000 0.178354
O O10 0.339189 0.063267 0.216204
O O11 0.195309 0.067119 0.103343
O O12 0.072331 0.064702 0.222544
O O13 0.061090 0.366849 0.767957
#
# Coordination Sequence:
#
# PCOD8254429 Si02
#       7
#     8   4   4   8   8   4   8
#     4   9  21  41  61  89 119 167 209 251 315 369
#     4  10  23  36  63  92 126 159 197 267 317 376
#     4  12  23  38  63  98 126 155 211 263 325 374
#     4  11  23  39  61  89 121 162 203 252 308 370
#     4  10  22  39  63  89 120 158 206 257 301 371
#     4  10  22  36  62  90 126 156 200 252 322 364
#     4  10  22  41  64  88 122 165 211 258 305 386
#
# _framework density 19.808807000000002
#
# number of rings (size 3 to 8) (size 9 to 14) (size 15 to 20)
#    0.000    1.818    1.818    1.091    6.364    4.364 
#   11.455    0.000    0.000    0.000    0.000    0.000 
#    0.000    0.000    0.000    0.000    0.000    0.000 
#
# Total GULP energy -545487.755693 kJ/mol
# GULP energy per Si atom -12397.448993 kJ/mol
# Density = 1.976372 g / cm^3
# Si number density = 19.808807 Si / 1000 Ang^3
#
#
#
# Elastic Constant Matrix: (Units=GPa)
#
#
# Indices 1 2 3 4 5 6 
#
# 1 91.5398 41.4282 3.7768 0.0000 0.0000 0.0000
# 2 41.4282 129.7023 20.0426 0.0000 0.0000 0.0000
# 3 3.7768 20.0426 86.9864 0.0000 0.0000 0.0000
# 4 0.0000 0.0000 0.0000 18.3707 0.0000 0.0000
# 5 0.0000 0.0000 0.0000 0.0000 24.5954 0.0000
# 6 0.0000 0.0000 0.0000 0.0000 0.0000 16.2806
#
#
#
# Elastic Compliance Matrix: (Units=1/GPa)
#
#
# Indices 1 2 3 4 5 6 
#
# 1 0.012784 -0.004145 0.000400 0.000000 0.000000 0.000000
# 2 -0.004145 0.009339 -0.001972 0.000000 0.000000 0.000000
# 3 0.000400 -0.001972 0.011933 0.000000 0.000000 0.000000
# 4 0.000000 0.000000 0.000000 0.054434 0.000000 0.000000
# 5 0.000000 0.000000 0.000000 0.000000 0.040658 0.000000
# 6 0.000000 0.000000 0.000000 0.000000 0.000000 0.061423
#
#
# Mechanical properties :
#
#
# Convention : Reuss Voigt Hill
#
# Bulk Modulus (GPa) = 44.20533 48.74709 46.47621
# Shear Modulus (GPa) = 23.86127 28.04806 25.95467
#
# Velocity S-wave (km/s) = 3.47447 3.76698 3.62368
# Velocity P-wave (km/s) = 6.20164 6.60170 6.40479
#
# Compressibility (1/GPa) = 0.02262170
#
# Stress axis : x y z
#
# Youngs Moduli (GPa) = 78.22504 107.08220 83.80129
#
# Poissons Ratio (x) = 0.44386 -0.03352
# Poissons Ratio (y) = 0.32425 0.16524
# Poissons Ratio (z) = -0.03129 0.21114
#
# Static dielectric constant tensor:
#      x y z
#    x 3.478830 0.000000 0.000000 
#    y 0.000000 3.481750 0.000000 
#    z 0.000000 0.000000 3.804680 
# 
# 
# High freq. dielectric constant tensor:
#      x y z
#    x 1.766030 0.000000 0.000000 
#    y 0.000000 1.758800 0.000000 
#    z 0.000000 0.000000 1.783950 
# 
# From -- ./inp_files/28757.got.cif
#   From: 2010.03.12/outbox.cif.g09.slc.cpg/sg62_15_cif.got.tgz:28757.got - 2010.04.10 19:12:36.
