data_PCOD8254325
_publ_section_title
;
Structure prediction by ZEFSAII (Michael W. Deem and Ramdas Pophale) SiO2 
 PCOD8254325
Probable space group: P N M A
;
_chemical_formula_sum "Si O2"
_cell_formula_units_Z 48
_cell_length_a 5.094857
_cell_length_b 22.677059
_cell_length_c 18.554432
_cell_angle_alpha 90.000000
_cell_angle_beta 90.000000
_cell_angle_gamma 90.000000
_cell_volume 2143.711772
_symmetry_space_group_name_H-M "P N M A"
_symmetry_group_IT_number 62
_symmetry_cell_setting 'orthorhombic'
loop_
_space_group_symop_operation_xyz
x,y,z
1/2-x,-y,1/2+z
1/2+x,1/2-y,1/2-z
-x,1/2+y,-z
-x,-y,-z
1/2+x,y,1/2-z
1/2-x,1/2+y,1/2+z
x,1/2-y,z
loop_
_atom_site_type_symbol
_atom_site_label
_atom_site_fract_x
_atom_site_fract_y
_atom_site_fract_z
Si Si1 0.613995 0.250000 0.299786
Si Si2 0.853827 0.815617 0.483557
Si Si3 0.205164 0.468204 0.050768
Si Si4 0.327005 0.621887 0.298449
Si Si5 0.005595 0.572045 0.415670
Si Si6 0.357953 0.841071 0.576786
Si Si7 0.620320 0.250000 0.705853
O O1 0.363318 0.250000 0.250269
O O2 0.611077 0.308715 0.347668
O O3 0.883448 0.750000 0.449582
O O4 0.860519 0.864092 0.418416
O O5 0.571377 0.818958 0.520213
O O6 0.074766 0.826039 0.543869
O O7 0.320925 0.516737 0.107351
O O8 0.095773 0.411169 0.093045
O O9 0.425388 0.441119 0.998311
O O10 0.000000 0.500000 0.000000
O O11 0.113298 0.611036 0.234796
O O12 0.257694 0.576310 0.362682
O O13 0.312866 0.688075 0.333870
O O14 0.811979 0.250000 0.775546
#
# Coordination Sequence:
#
# PCOD8254325 Si02
#       7
#     4   8   8   8   8   8   4
#     4  12  24  42  64  92 132 178 212 260 328 396
#     4  11  20  36  62  95 124 154 202 269 320 363
#     4  10  21  41  64  92 123 162 209 274 326 369
#     4  10  22  38  58  84 123 164 201 241 293 370
#     4  10  23  37  62  94 124 164 208 257 325 373
#     4  11  22  40  63  90 125 161 211 266 317 377
#     4   8  16  34  52  74 108 152 190 228 278 332
#
# _framework density 22.391069000000002
#
# number of rings (size 3 to 8) (size 9 to 14) (size 15 to 20)
#    0.000    1.667    3.333    1.000    3.500    0.000 
#    0.000    1.667    0.000    0.000    0.000    0.000 
#    0.000    0.000    0.000    0.000    0.000    0.000 
#
# Total GULP energy -594794.382051 kJ/mol
# GULP energy per Si atom -12391.549626 kJ/mol
# Density = 2.234011 g / cm^3
# Si number density = 22.391069 Si / 1000 Ang^3
#
#
#
# Elastic Constant Matrix: (Units=GPa)
#
#
# Indices 1 2 3 4 5 6 
#
# 1 58.2172 7.5625 -7.1526 0.0000 0.0000 0.0000
# 2 7.5625 169.2597 21.5702 0.0000 0.0000 0.0000
# 3 -7.1526 21.5702 37.9530 0.0000 0.0000 0.0000
# 4 0.0000 0.0000 0.0000 29.5187 0.0000 0.0000
# 5 0.0000 0.0000 0.0000 0.0000 25.8559 0.0000
# 6 0.0000 0.0000 0.0000 0.0000 0.0000 26.3971
#
#
#
# Elastic Compliance Matrix: (Units=1/GPa)
#
#
# Indices 1 2 3 4 5 6 
#
# 1 0.017855 -0.001322 0.004116 0.000000 0.000000 0.000000
# 2 -0.001322 0.006467 -0.003925 0.000000 0.000000 0.000000
# 3 0.004116 -0.003925 0.029355 0.000000 0.000000 0.000000
# 4 0.000000 0.000000 0.000000 0.033877 0.000000 0.000000
# 5 0.000000 0.000000 0.000000 0.000000 0.038676 0.000000
# 6 0.000000 0.000000 0.000000 0.000000 0.000000 0.037883
#
#
# Mechanical properties :
#
#
# Convention : Reuss Voigt Hill
#
# Bulk Modulus (GPa) = 19.44952 34.37667 26.91310
# Shear Modulus (GPa) = 27.24613 32.58433 29.91523
#
# Velocity S-wave (km/s) = 3.49209 3.81890 3.65915
# Velocity P-wave (km/s) = 4.99648 5.90182 5.46792
#
# Compressibility (1/GPa) = 0.05141514
#
# Stress axis : x y z
#
# Youngs Moduli (GPa) = 56.00807 154.62316 34.06600
#
# Poissons Ratio (x) = 0.20446 -0.14023
# Poissons Ratio (y) = 0.07406 0.13370
# Poissons Ratio (z) = -0.23055 0.60687
#
# Static dielectric constant tensor:
#      x y z
#    x 4.157820 0.000000 0.000000 
#    y 0.000000 5.715940 0.000000 
#    z 0.000000 0.000000 3.712530 
# 
# 
# High freq. dielectric constant tensor:
#      x y z
#    x 1.896100 0.000000 0.000000 
#    y 0.000000 1.902690 0.000000 
#    z 0.000000 0.000000 1.830320 
# 
# From -- ./inp_files/21608.got.cif
#   From: 2010.03.12/outbox.cif.g09.slc.cpg/sg62_11_cif.got.tgz:21608.got - 2010.04.10 19:12:36.
