data_PCOD8254359
_publ_section_title
;
Structure prediction by ZEFSAII (Michael W. Deem and Ramdas Pophale) SiO2 
 PCOD8254359
Probable space group: P N M A
;
_chemical_formula_sum "Si O2"
_cell_formula_units_Z 32
_cell_length_a 29.473149
_cell_length_b 5.194308
_cell_length_c 9.612790
_cell_angle_alpha 90.000000
_cell_angle_beta 90.000000
_cell_angle_gamma 90.000000
_cell_volume 1471.647145
_symmetry_space_group_name_H-M "P N M A"
_symmetry_group_IT_number 62
_symmetry_cell_setting 'orthorhombic'
loop_
_space_group_symop_operation_xyz
x,y,z
1/2-x,-y,1/2+z
1/2+x,1/2-y,1/2-z
-x,1/2+y,-z
-x,-y,-z
1/2+x,y,1/2-z
1/2-x,1/2+y,1/2+z
x,1/2-y,z
loop_
_atom_site_type_symbol
_atom_site_label
_atom_site_fract_x
_atom_site_fract_y
_atom_site_fract_z
Si Si1 0.738796 0.750000 0.897086
Si Si2 0.623295 0.750000 0.404594
Si Si3 0.841730 0.250000 0.199572
Si Si4 0.301499 0.750000 0.977535
Si Si5 0.981615 0.250000 0.919306
Si Si6 0.512666 0.250000 0.906601
Si Si7 0.117637 0.250000 0.664534
Si Si8 0.334434 0.750000 0.685787
O O1 0.724143 0.498915 0.975345
O O2 0.711023 0.750000 0.749185
O O3 0.793142 0.750000 0.922469
O O4 0.657652 0.750000 0.533739
O O5 0.571567 0.750000 0.448991
O O6 0.633311 0.497155 0.314605
O O7 0.869938 0.499112 0.247150
O O8 0.300883 0.750000 0.814542
O O9 0.353942 0.750000 0.023109
O O10 0.990423 0.250000 0.750486
O O11 0.000000 0.500000 0.000000
O O12 0.565822 0.250000 0.879716
O O13 0.500000 0.500000 0.000000
#
# Coordination Sequence:
#
# PCOD8254359 Si02
#       8
#     4   4   4   4   4   4   4   4
#     4  10  23  40  64  89 121 175 214 261 323 389
#     4  12  26  42  68 101 134 171 224 280 346 388
#     4  10  21  42  64  92 120 173 216 267 310 411
#     4  10  23  42  63  90 127 170 216 270 323 396
#     4  12  26  48  75 103 143 186 238 296 362 428
#     4  12  26  41  70 104 138 181 227 291 348 430
#     4  10  21  41  67  88 131 167 220 259 338 388
#     4  12  26  40  65  95 136 169 213 282 330 398
#
# _framework density 21.744344999999999
#
# number of rings (size 3 to 8) (size 9 to 14) (size 15 to 20)
#    0.000    1.000    0.000    6.000    7.000    0.000 
#    0.000    0.000    0.000    0.000    0.000    0.000 
#    0.000    0.000    0.000    0.000    0.000    0.000 
#
# Total GULP energy -396535.236504 kJ/mol
# GULP energy per Si atom -12391.726141 kJ/mol
# Density = 2.169485 g / cm^3
# Si number density = 21.744345 Si / 1000 Ang^3
#
#
#
# Elastic Constant Matrix: (Units=GPa)
#
#
# Indices 1 2 3 4 5 6 
#
# 1 111.6788 38.8735 -5.2578 0.0000 0.0000 0.0000
# 2 38.8735 205.0546 44.4315 0.0000 0.0000 0.0000
# 3 -5.2578 44.4315 86.6817 0.0000 0.0000 0.0000
# 4 0.0000 0.0000 0.0000 15.4668 0.0000 0.0000
# 5 0.0000 0.0000 0.0000 0.0000 13.6928 0.0000
# 6 0.0000 0.0000 0.0000 0.0000 0.0000 -56.4873
#
#
#
# Elastic Compliance Matrix: (Units=1/GPa)
#
#
# Indices 1 2 3 4 5 6 
#
# 1 0.009815 -0.002238 0.001743 0.000000 0.000000 0.000000
# 2 -0.002238 0.005997 -0.003209 0.000000 0.000000 0.000000
# 3 0.001743 -0.003209 0.013287 0.000000 0.000000 0.000000
# 4 0.000000 0.000000 0.000000 0.064655 0.000000 0.000000
# 5 0.000000 0.000000 0.000000 0.000000 0.073031 0.000000
# 6 0.000000 0.000000 0.000000 0.000000 0.000000 -0.017703
#
#
# Mechanical properties :
#
#
# Convention : Reuss Voigt Hill
#
# Bulk Modulus (GPa) = 46.10638 62.16771 54.13704
# Shear Modulus (GPa) = 30.53956 16.22563 23.38259
#
# Velocity S-wave (km/s) = 3.75171 2.73463 3.28280
# Velocity P-wave (km/s) = 6.32590 6.21476 6.27058
#
# Compressibility (1/GPa) = 0.02168897
#
# Stress axis : x y z
#
# Youngs Moduli (GPa) = 101.88023 166.76300 75.25982
#
# Poissons Ratio (x) = 0.37328 -0.13116
# Poissons Ratio (y) = 0.22805 0.24155
# Poissons Ratio (z) = -0.17755 0.53522
#
# Static dielectric constant tensor:
#      x y z
#    x 4.172110 0.000000 0.000000 
#    y 0.000000 4.186490 0.000000 
#    z 0.000000 0.000000 4.153110 
# 
# 
# High freq. dielectric constant tensor:
#      x y z
#    x 1.869710 0.000000 0.000000 
#    y 0.000000 1.879890 0.000000 
#    z 0.000000 0.000000 1.855420 
# 
# From -- ./inp_files/9642.got.cif
#   From: 2010.03.12/outbox.cif.g09.slc.cpg/sg62_5_cif.got.tgz:9642.got - 2010.04.10 19:12:36.
