data_PCOD8254280
_publ_section_title
;
Structure prediction by ZEFSAII (Michael W. Deem and Ramdas Pophale) SiO2 
 PCOD8254280
Probable space group: P N M A
;
_chemical_formula_sum "Si O2"
_cell_formula_units_Z 64
_cell_length_a 15.266839
_cell_length_b 8.559039
_cell_length_c 23.690320
_cell_angle_alpha 90.000000
_cell_angle_beta 90.000000
_cell_angle_gamma 90.000000
_cell_volume 3095.601568
_symmetry_space_group_name_H-M "P N M A"
_symmetry_group_IT_number 62
_symmetry_cell_setting 'orthorhombic'
loop_
_space_group_symop_operation_xyz
x,y,z
1/2-x,-y,1/2+z
1/2+x,1/2-y,1/2-z
-x,1/2+y,-z
-x,-y,-z
1/2+x,y,1/2-z
1/2-x,1/2+y,1/2+z
x,1/2-y,z
loop_
_atom_site_type_symbol
_atom_site_label
_atom_site_fract_x
_atom_site_fract_y
_atom_site_fract_z
Si Si1 0.348088 0.568555 0.250982
Si Si2 0.240570 0.067923 0.927440
Si Si3 0.401258 0.430737 0.637073
Si Si4 0.589566 0.569134 0.141406
Si Si5 0.080765 0.569137 0.860530
Si Si6 0.838192 0.930166 0.748587
Si Si7 0.258580 0.931288 0.557752
Si Si8 0.105409 0.431291 0.624819
O O1 0.368285 0.750000 0.261049
O O2 0.406115 0.471303 0.294820
O O3 0.246116 0.537664 0.261705
O O4 0.373238 0.514805 0.188387
O O5 0.221258 0.250000 0.918190
O O6 0.334794 0.020915 0.902237
O O7 0.166527 0.970753 0.896042
O O8 0.240809 0.020861 0.992588
O O9 0.394414 0.250000 0.653425
O O10 0.498245 0.472757 0.614926
O O11 0.382530 0.534349 0.691882
O O12 0.331673 0.466168 0.588435
O O13 0.595592 0.750000 0.158960
O O14 0.594453 0.467690 0.198383
O O15 0.496422 0.535327 0.111701
O O16 0.059284 0.750000 0.866970
O O17 0.809860 0.750000 0.746980
O O18 0.280366 0.750000 0.566353
O O19 0.162515 0.966512 0.582166
O O20 0.129871 0.250000 0.616922
#
# Coordination Sequence:
#
# PCOD8254280 Si02
#       8
#     8   8   8   8   8   8   8   8
#     4  11  21  37  62  92 130 171 205 245 309 382
#     4  10  23  43  65  89 124 169 212 258 315 374
#     4  12  25  43  66  91 124 168 208 254 319 386
#     4  10  21  40  65  92 127 168 210 251 305 380
#     4  12  25  41  65  97 128 161 207 264 313 368
#     4  12  23  37  62  97 130 161 204 260 313 368
#     4  11  24  42  64  91 123 163 213 267 314 364
#     4  10  22  39  63  93 124 166 210 249 307 375
#
# _framework density 20.674496000000001
#
# number of rings (size 3 to 8) (size 9 to 14) (size 15 to 20)
#    0.000    1.000    2.500    4.875    0.000    4.000 
#    0.000    0.000    0.000    0.000    0.000    0.000 
#    0.000    0.000    0.000    0.000    0.000    0.000 
#
# Total GULP energy -794085.381223 kJ/mol
# GULP energy per Si atom -12407.584082 kJ/mol
# Density = 2.062744 g / cm^3
# Si number density = 20.674496 Si / 1000 Ang^3
#
#
#
# Elastic Constant Matrix: (Units=GPa)
#
#
# Indices 1 2 3 4 5 6 
#
# 1 115.2836 24.1418 24.4349 0.0000 0.0000 0.0000
# 2 24.1418 71.4402 32.8157 0.0000 0.0000 0.0000
# 3 24.4349 32.8157 102.1992 0.0000 0.0000 0.0000
# 4 0.0000 0.0000 0.0000 27.5575 0.0000 0.0000
# 5 0.0000 0.0000 0.0000 0.0000 8.9595 0.0000
# 6 0.0000 0.0000 0.0000 0.0000 0.0000 31.2149
#
#
#
# Elastic Compliance Matrix: (Units=1/GPa)
#
#
# Indices 1 2 3 4 5 6 
#
# 1 0.009516 -0.002546 -0.001458 0.000000 0.000000 0.000000
# 2 -0.002546 0.017101 -0.004882 0.000000 0.000000 0.000000
# 3 -0.001458 -0.004882 0.011701 0.000000 0.000000 0.000000
# 4 0.000000 0.000000 0.000000 0.036288 0.000000 0.000000
# 5 0.000000 0.000000 0.000000 0.000000 0.111613 0.000000
# 6 0.000000 0.000000 0.000000 0.000000 0.000000 0.032036
#
#
# Mechanical properties :
#
#
# Convention : Reuss Voigt Hill
#
# Bulk Modulus (GPa) = 48.67162 50.18976 49.43069
# Shear Modulus (GPa) = 20.58663 27.38176 23.98420
#
# Velocity S-wave (km/s) = 3.15897 3.64321 3.40970
# Velocity P-wave (km/s) = 6.07441 6.48276 6.28190
#
# Compressibility (1/GPa) = 0.02054585
#
# Stress axis : x y z
#
# Youngs Moduli (GPa) = 105.08118 58.47680 85.46286
#
# Poissons Ratio (x) = 0.14890 0.12458
# Poissons Ratio (y) = 0.26757 0.41725
# Poissons Ratio (z) = 0.15318 0.28550
#
# Static dielectric constant tensor:
#      x y z
#    x 3.906520 0.000000 0.000000 
#    y 0.000000 3.640070 0.000000 
#    z 0.000000 0.000000 3.686180 
# 
# 
# High freq. dielectric constant tensor:
#      x y z
#    x 1.823120 0.000000 0.000000 
#    y 0.000000 1.807190 0.000000 
#    z 0.000000 0.000000 1.801740 
# 
# From -- ./inp_files/29948.got.cif
#   From: 2010.03.12/outbox.cif.g09.slc.cpg/sg62_15_cif.got.tgz:29948.got - 2010.04.10 19:12:36.
