data_PCOD8254623
_publ_section_title
;
Structure prediction by ZEFSAII (Michael W. Deem and Ramdas Pophale) SiO2 
 PCOD8254623
Probable space group: P N M A
;
_chemical_formula_sum "Si O2"
_cell_formula_units_Z 40
_cell_length_a 8.768480
_cell_length_b 7.520755
_cell_length_c 29.178041
_cell_angle_alpha 90.000000
_cell_angle_beta 90.000000
_cell_angle_gamma 90.000000
_cell_volume 1924.163123
_symmetry_space_group_name_H-M "P N M A"
_symmetry_group_IT_number 62
_symmetry_cell_setting 'orthorhombic'
loop_
_space_group_symop_operation_xyz
x,y,z
1/2-x,-y,1/2+z
1/2+x,1/2-y,1/2-z
-x,1/2+y,-z
-x,-y,-z
1/2+x,y,1/2-z
1/2-x,1/2+y,1/2+z
x,1/2-y,z
loop_
_atom_site_type_symbol
_atom_site_label
_atom_site_fract_x
_atom_site_fract_y
_atom_site_fract_z
Si Si1 0.318657 0.958058 0.958812
Si Si2 0.671369 0.543603 0.634102
Si Si3 0.819490 0.959477 0.854144
Si Si4 0.677086 0.250000 0.791612
Si Si5 0.152493 0.547903 0.556762
Si Si6 0.819573 0.250000 0.693557
O O1 0.338220 0.750000 0.964721
O O2 0.198906 0.007118 0.919241
O O3 0.484993 0.042982 0.946659
O O4 0.260683 0.032287 0.007824
O O5 0.711658 0.750000 0.642701
O O6 0.498312 0.499081 0.645930
O O7 0.782712 0.427751 0.665230
O O8 0.789455 0.750000 0.846090
O O9 0.751586 0.035242 0.902094
O O10 0.743599 0.070052 0.813474
O O11 0.717884 0.250000 0.738621
O O12 0.496244 0.250000 0.794934
O O13 0.131466 0.750000 0.570943
#
# Coordination Sequence:
#
# PCOD8254623 Si02
#       6
#     8   8   8   4   8   4
#     4   9  18  32  52  82 119 161 207 249 298 360
#     4  10  22  41  63  90 126 164 204 253 308 367
#     4  10  22  41  63  90 126 164 204 253 308 367
#     4  12  26  44  68  94 122 158 206 258 313 372
#     4   9  18  32  52  82 119 161 207 249 298 360
#     4  12  26  44  68  94 122 158 206 258 313 372
#
# _framework density 20.788257999999999
#
# number of rings (size 3 to 8) (size 9 to 14) (size 15 to 20)
#    0.000    2.000    0.000    3.000    2.800    4.000 
#    0.000    0.000    0.000    0.000    0.000    0.000 
#    0.000    0.000    0.000    0.000    0.000    0.000 
#
# Total GULP energy -495949.236545 kJ/mol
# GULP energy per Si atom -12398.730914 kJ/mol
# Density = 2.074094 g / cm^3
# Si number density = 20.788258 Si / 1000 Ang^3
#
#
#
# Elastic Constant Matrix: (Units=GPa)
#
#
# Indices 1 2 3 4 5 6 
#
# 1 73.2674 26.3360 3.7743 0.0000 0.0000 0.0000
# 2 26.3360 68.9811 26.7238 0.0000 0.0000 0.0000
# 3 3.7743 26.7238 81.7074 0.0000 0.0000 0.0000
# 4 0.0000 0.0000 0.0000 23.0051 0.0000 0.0000
# 5 0.0000 0.0000 0.0000 0.0000 38.9466 0.0000
# 6 0.0000 0.0000 0.0000 0.0000 0.0000 27.0477
#
#
#
# Elastic Compliance Matrix: (Units=1/GPa)
#
#
# Indices 1 2 3 4 5 6 
#
# 1 0.015966 -0.006653 0.001438 0.000000 0.000000 0.000000
# 2 -0.006653 0.019372 -0.006029 0.000000 0.000000 0.000000
# 3 0.001438 -0.006029 0.014144 0.000000 0.000000 0.000000
# 4 0.000000 0.000000 0.000000 0.043469 0.000000 0.000000
# 5 0.000000 0.000000 0.000000 0.000000 0.025676 0.000000
# 6 0.000000 0.000000 0.000000 0.000000 0.000000 0.036972
#
#
# Mechanical properties :
#
#
# Convention : Reuss Voigt Hill
#
# Bulk Modulus (GPa) = 37.04245 37.51378 37.27812
# Shear Modulus (GPa) = 26.72600 28.94133 27.83367
#
# Velocity S-wave (km/s) = 3.58946 3.73526 3.66309
# Velocity P-wave (km/s) = 5.91917 6.05704 5.98850
#
# Compressibility (1/GPa) = 0.02699606
#
# Stress axis : x y z
#
# Youngs Moduli (GPa) = 62.63357 51.62026 70.70064
#
# Poissons Ratio (x) = 0.34342 -0.10170
# Poissons Ratio (y) = 0.41669 0.42623
# Poissons Ratio (z) = -0.09009 0.31120
#
# Static dielectric constant tensor:
#      x y z
#    x 3.773690 0.000000 0.000000 
#    y 0.000000 3.427330 0.000000 
#    z 0.000000 0.000000 3.838820 
# 
# 
# High freq. dielectric constant tensor:
#      x y z
#    x 1.807580 0.000000 0.000000 
#    y 0.000000 1.813890 0.000000 
#    z 0.000000 0.000000 1.816770 
# 
# From -- ./inp_files/30698.got.cif
#   From: 2010.03.12/outbox.cif.g09.slc.cpg/sg62_16_cif.got.tgz:30698.got - 2010.04.10 19:12:36.
