data_PCOD8254263
_publ_section_title
;
Structure prediction by ZEFSAII (Michael W. Deem and Ramdas Pophale) SiO2 
 PCOD8254263
Probable space group: P N M A
;
_chemical_formula_sum "Si O2"
_cell_formula_units_Z 48
_cell_length_a 28.626325
_cell_length_b 9.288239
_cell_length_c 9.230001
_cell_angle_alpha 90.000000
_cell_angle_beta 90.000000
_cell_angle_gamma 90.000000
_cell_volume 2454.147875
_symmetry_space_group_name_H-M "P N M A"
_symmetry_group_IT_number 62
_symmetry_cell_setting 'orthorhombic'
loop_
_space_group_symop_operation_xyz
x,y,z
1/2-x,-y,1/2+z
1/2+x,1/2-y,1/2-z
-x,1/2+y,-z
-x,-y,-z
1/2+x,y,1/2-z
1/2-x,1/2+y,1/2+z
x,1/2-y,z
loop_
_atom_site_type_symbol
_atom_site_label
_atom_site_fract_x
_atom_site_fract_y
_atom_site_fract_z
Si Si1 0.628926 0.583609 0.027003
Si Si2 0.519303 0.909394 0.629064
Si Si3 0.698475 0.419487 0.525992
Si Si4 0.462489 0.587881 0.911584
Si Si5 0.877237 0.417924 0.198633
Si Si6 0.215650 0.916438 0.268655
O O1 0.613461 0.750000 0.039584
O O2 0.640959 0.547045 0.860229
O O3 0.587569 0.485601 0.085126
O O4 0.673480 0.547279 0.123469
O O5 0.528098 0.750000 0.569120
O O6 0.479033 0.910129 0.747412
O O7 0.568560 0.966958 0.691767
O O8 0.500000 0.000000 0.500000
O O9 0.691414 0.250000 0.504563
O O10 0.650448 0.489806 0.580202
O O11 0.713334 0.485098 0.372513
O O12 0.737338 0.454337 0.645746
O O13 0.458982 0.750000 0.973805
O O14 0.500000 0.500000 0.000000
O O15 0.870418 0.250000 0.162245
O O16 0.214443 0.750000 0.220941
#
# Coordination Sequence:
#
# PCOD8254263 Si02
#       6
#     8   8   8   8   8   8
#     4  10  21  40  64  88 118 159 203 245 298 360
#     4  10  23  40  59  85 121 162 203 249 300 353
#     4  11  24  41  64  93 122 155 200 248 294 354
#     4  11  22  39  61  89 121 158 203 250 297 353
#     4  10  21  41  63  86 121 163 200 244 303 359
#     4  10  23  42  64  90 121 159 196 240 303 360
#
# _framework density 19.558723000000001
#
# number of rings (size 3 to 8) (size 9 to 14) (size 15 to 20)
#    0.000    1.667    1.667    2.000    2.333    6.000 
#    0.000    0.000    0.000    0.000    0.000    0.000 
#    0.000    0.000    0.000    0.000    0.000    0.000 
#
# Total GULP energy -595352.819395 kJ/mol
# GULP energy per Si atom -12403.183737 kJ/mol
# Density = 1.951421 g / cm^3
# Si number density = 19.558723 Si / 1000 Ang^3
#
#
#
# Elastic Constant Matrix: (Units=GPa)
#
#
# Indices 1 2 3 4 5 6 
#
# 1 84.8347 47.2322 33.3733 0.0000 0.0000 0.0000
# 2 47.2322 97.4894 58.8972 0.0000 0.0000 0.0000
# 3 33.3733 58.8972 115.7984 0.0000 0.0000 0.0000
# 4 0.0000 0.0000 0.0000 38.9795 0.0000 0.0000
# 5 0.0000 0.0000 0.0000 0.0000 35.8399 0.0000
# 6 0.0000 0.0000 0.0000 0.0000 0.0000 34.0908
#
#
#
# Elastic Compliance Matrix: (Units=1/GPa)
#
#
# Indices 1 2 3 4 5 6 
#
# 1 0.016218 -0.007266 -0.000978 0.000000 0.000000 0.000000
# 2 -0.007266 0.018063 -0.007093 0.000000 0.000000 0.000000
# 3 -0.000978 -0.007093 0.012525 0.000000 0.000000 0.000000
# 4 0.000000 0.000000 0.000000 0.025655 0.000000 0.000000
# 5 0.000000 0.000000 0.000000 0.000000 0.027902 0.000000
# 6 0.000000 0.000000 0.000000 0.000000 0.000000 0.029333
#
#
# Mechanical properties :
#
#
# Convention : Reuss Voigt Hill
#
# Bulk Modulus (GPa) = 61.99210 64.12533 63.05872
# Shear Modulus (GPa) = 30.16609 32.35668 31.26139
#
# Velocity S-wave (km/s) = 3.93152 4.07176 4.00226
# Velocity P-wave (km/s) = 7.23694 7.41370 7.32585
#
# Compressibility (1/GPa) = 0.01613109
#
# Stress axis : x y z
#
# Youngs Moduli (GPa) = 61.65953 55.36112 79.83841
#
# Poissons Ratio (x) = 0.40228 0.07810
# Poissons Ratio (y) = 0.44804 0.56630
# Poissons Ratio (z) = 0.06032 0.39268
#
# Static dielectric constant tensor:
#      x y z
#    x 3.506630 0.000000 0.000000 
#    y 0.000000 3.634110 0.000000 
#    z 0.000000 0.000000 3.556570 
# 
# 
# High freq. dielectric constant tensor:
#      x y z
#    x 1.772530 0.000000 0.000000 
#    y 0.000000 1.763050 0.000000 
#    z 0.000000 0.000000 1.767780 
# 
# From -- ./inp_files/10224.got.cif
#   From: 2010.03.12/outbox.cif.g09.slc.cpg/sg62_6_cif.got.tgz:10224.got - 2010.04.10 19:12:36.
