data_PCOD8254099
_publ_section_title
;
Structure prediction by ZEFSAII (Michael W. Deem and Ramdas Pophale) SiO2 
 PCOD8254099
Probable space group: P N M A
;
_chemical_formula_sum "Si O2"
_cell_formula_units_Z 64
_cell_length_a 11.920342
_cell_length_b 9.128816
_cell_length_c 30.450939
_cell_angle_alpha 90.000000
_cell_angle_beta 90.000000
_cell_angle_gamma 90.000000
_cell_volume 3313.628818
_symmetry_space_group_name_H-M "P N M A"
_symmetry_group_IT_number 62
_symmetry_cell_setting 'orthorhombic'
loop_
_space_group_symop_operation_xyz
x,y,z
1/2-x,-y,1/2+z
1/2+x,1/2-y,1/2-z
-x,1/2+y,-z
-x,-y,-z
1/2+x,y,1/2-z
1/2-x,1/2+y,1/2+z
x,1/2-y,z
loop_
_atom_site_type_symbol
_atom_site_label
_atom_site_fract_x
_atom_site_fract_y
_atom_site_fract_z
Si Si1 0.343772 0.076844 0.621906
Si Si2 0.763667 0.084617 0.174793
Si Si3 0.410619 0.576712 0.122267
Si Si4 0.511813 0.078468 0.695760
Si Si5 0.510812 0.076975 0.546454
Si Si6 0.276978 0.412752 0.424650
Si Si7 0.462882 0.579596 0.956424
Si Si8 0.553904 0.919783 0.206521
O O1 0.338786 0.250000 0.621502
O O2 0.217002 0.015852 0.621641
O O3 0.406202 0.024692 0.666421
O O4 0.411337 0.022331 0.578749
O O5 0.775684 0.250000 0.191750
O O6 0.727596 0.077312 0.124198
O O7 0.668881 0.007164 0.203086
O O8 0.881017 0.005254 0.178801
O O9 0.415555 0.750000 0.113248
O O10 0.479693 0.494943 0.085150
O O11 0.463350 0.537154 0.169571
O O12 0.532237 0.250000 0.688693
O O13 0.496168 0.038746 0.746455
O O14 0.506337 0.250000 0.539899
O O15 0.500000 0.000000 0.500000
O O16 0.629608 0.034947 0.567564
O O17 0.327779 0.250000 0.433327
O O18 0.171214 0.440654 0.455912
O O19 0.496636 0.750000 0.957380
O O20 0.500000 0.500000 0.000000
O O21 0.585290 0.750000 0.203537
#
# Coordination Sequence:
#
# PCOD8254099 Si02
#       8
#     8   8   8   8   8   8   8   8
#     4   9  20  38  59  84 119 156 192 241 298 348
#     4  11  22  39  62  87 122 159 197 248 304 358
#     4  10  21  39  60  87 120 158 197 240 298 357
#     4  10  21  39  63  91 120 155 203 251 294 351
#     4  11  23  39  61  89 120 157 199 248 300 358
#     4  10  22  41  62  84 118 158 198 247 299 353
#     4  11  24  42  62  88 119 156 198 248 300 355
#     4  10  22  37  63  92 119 156 203 250 292 349
#
# _framework density 19.314173
#
# number of rings (size 3 to 8) (size 9 to 14) (size 15 to 20)
#    0.000    1.750    2.500    1.125    3.500    2.000 
#    0.000    1.250    0.000    0.000    0.000    0.000 
#    0.000    0.000    0.000    0.000    0.000    0.000 
#
# Total GULP energy -793722.446248 kJ/mol
# GULP energy per Si atom -12401.913223 kJ/mol
# Density = 1.927021 g / cm^3
# Si number density = 19.314173 Si / 1000 Ang^3
#
#
#
# Elastic Constant Matrix: (Units=GPa)
#
#
# Indices 1 2 3 4 5 6 
#
# 1 106.0616 36.2273 35.3768 0.0000 0.0000 0.0000
# 2 36.2273 60.2746 40.2371 0.0000 0.0000 0.0000
# 3 35.3768 40.2371 118.1264 0.0000 0.0000 0.0000
# 4 0.0000 0.0000 0.0000 23.7814 0.0000 0.0000
# 5 0.0000 0.0000 0.0000 0.0000 1.7682 0.0000
# 6 0.0000 0.0000 0.0000 0.0000 0.0000 26.4435
#
#
#
# Elastic Compliance Matrix: (Units=1/GPa)
#
#
# Indices 1 2 3 4 5 6 
#
# 1 0.012061 -0.006261 -0.001479 0.000000 0.000000 0.000000
# 2 -0.006261 0.024724 -0.006547 0.000000 0.000000 0.000000
# 3 -0.001479 -0.006547 0.011138 0.000000 0.000000 0.000000
# 4 0.000000 0.000000 0.000000 0.042050 0.000000 0.000000
# 5 0.000000 0.000000 0.000000 0.000000 0.565550 0.000000
# 6 0.000000 0.000000 0.000000 0.000000 0.000000 0.037816
#
#
# Mechanical properties :
#
#
# Convention : Reuss Voigt Hill
#
# Bulk Modulus (GPa) = 51.68215 56.46055 54.07135
# Shear Modulus (GPa) = 6.86470 21.90671 14.38571
#
# Velocity S-wave (km/s) = 1.88731 3.37149 2.73211
# Velocity P-wave (km/s) = 5.61836 6.66724 6.16515
#
# Compressibility (1/GPa) = 0.01934904
#
# Stress axis : x y z
#
# Youngs Moduli (GPa) = 82.91502 40.44586 89.77923
#
# Poissons Ratio (x) = 0.25325 0.13279
# Poissons Ratio (y) = 0.51917 0.58775
# Poissons Ratio (z) = 0.12264 0.26478
#
# Static dielectric constant tensor:
#      x y z
#    x 3.561520 0.000000 0.000000 
#    y 0.000000 3.464250 0.000000 
#    z 0.000000 0.000000 3.738450 
# 
# 
# High freq. dielectric constant tensor:
#      x y z
#    x 1.760100 0.000000 0.000000 
#    y 0.000000 1.739330 0.000000 
#    z 0.000000 0.000000 1.762930 
# 
# From -- ./inp_files/32502.got.cif
#   From: 2010.03.12/outbox.cif.g09.slc.cpg/sg62_17_cif.got.tgz:32502.got - 2010.04.10 19:12:36.
