data_PCOD8254330
_publ_section_title
;
Structure prediction by ZEFSAII (Michael W. Deem and Ramdas Pophale) SiO2 
 PCOD8254330
Probable space group: P N M A
;
_chemical_formula_sum "Si O2"
_cell_formula_units_Z 56
_cell_length_a 14.603858
_cell_length_b 9.162742
_cell_length_c 20.772089
_cell_angle_alpha 90.000000
_cell_angle_beta 90.000000
_cell_angle_gamma 90.000000
_cell_volume 2779.541958
_symmetry_space_group_name_H-M "P N M A"
_symmetry_group_IT_number 62
_symmetry_cell_setting 'orthorhombic'
loop_
_space_group_symop_operation_xyz
x,y,z
1/2-x,-y,1/2+z
1/2+x,1/2-y,1/2-z
-x,1/2+y,-z
-x,-y,-z
1/2+x,y,1/2-z
1/2-x,1/2+y,1/2+z
x,1/2-y,z
loop_
_atom_site_type_symbol
_atom_site_label
_atom_site_fract_x
_atom_site_fract_y
_atom_site_fract_z
Si Si1 0.058307 0.413800 0.634180
Si Si2 0.729643 0.916045 0.522981
Si Si3 0.941018 0.583428 0.552070
Si Si4 0.182820 0.080750 0.239016
Si Si5 0.840599 0.422382 0.161126
Si Si6 0.503878 0.085614 0.727090
Si Si7 0.236182 0.919120 0.598529
O O1 0.055059 0.250000 0.605283
O O2 0.069392 0.410304 0.710557
O O3 0.141209 0.495119 0.599397
O O4 0.964607 0.501472 0.618913
O O5 0.702652 0.750000 0.506357
O O6 0.835498 0.931473 0.538448
O O7 0.678976 0.968941 0.587657
O O8 0.704048 0.015963 0.461124
O O9 0.972402 0.750000 0.557100
O O10 0.000000 0.500000 0.500000
O O11 0.160688 0.250000 0.252643
O O12 0.260009 0.025755 0.289864
O O13 0.213591 0.056230 0.165744
O O14 0.091447 0.987487 0.246674
O O15 0.851912 0.250000 0.168683
O O16 0.938721 0.495314 0.175019
O O17 0.485458 0.250000 0.702078
O O18 0.216933 0.750000 0.585537
#
# Coordination Sequence:
#
# PCOD8254330 Si02
#       7
#     8   8   8   8   8   8   8
#     4  11  22  36  55  83 120 157 194 240 299 361
#     4  10  22  38  58  85 121 160 197 248 306 360
#     4  11  21  33  53  83 118 154 195 239 295 359
#     4  10  22  41  65  91 118 158 209 253 301 364
#     4  10  21  41  65  89 120 161 205 251 303 362
#     4  11  24  39  61  92 122 156 199 256 311 357
#     4  11  22  37  61  88 116 156 200 245 297 354
#
# _framework density 20.147203000000001
#
# number of rings (size 3 to 8) (size 9 to 14) (size 15 to 20)
#    0.000    1.429    2.857    2.571    0.000    5.714 
#    0.000    0.714    0.000    0.000    0.000    0.000 
#    0.000    0.000    0.000    0.000    0.000    0.000 
#
# Total GULP energy -694308.531771 kJ/mol
# GULP energy per Si atom -12398.366639 kJ/mol
# Density = 2.010135 g / cm^3
# Si number density = 20.147203 Si / 1000 Ang^3
#
#
#
# Elastic Constant Matrix: (Units=GPa)
#
#
# Indices 1 2 3 4 5 6 
#
# 1 50.0358 27.5168 5.8081 0.0000 0.0000 0.0000
# 2 27.5168 104.4265 37.5590 0.0000 0.0000 0.0000
# 3 5.8081 37.5590 93.7313 0.0000 0.0000 0.0000
# 4 0.0000 0.0000 0.0000 33.5894 0.0000 0.0000
# 5 0.0000 0.0000 0.0000 0.0000 29.0365 0.0000
# 6 0.0000 0.0000 0.0000 0.0000 0.0000 26.8004
#
#
#
# Elastic Compliance Matrix: (Units=1/GPa)
#
#
# Indices 1 2 3 4 5 6 
#
# 1 0.023487 -0.006620 0.001197 0.000000 0.000000 0.000000
# 2 -0.006620 0.013054 -0.004821 0.000000 0.000000 0.000000
# 3 0.001197 -0.004821 0.012526 0.000000 0.000000 0.000000
# 4 0.000000 0.000000 0.000000 0.029771 0.000000 0.000000
# 5 0.000000 0.000000 0.000000 0.000000 0.034439 0.000000
# 6 0.000000 0.000000 0.000000 0.000000 0.000000 0.037313
#
#
# Mechanical properties :
#
#
# Convention : Reuss Voigt Hill
#
# Bulk Modulus (GPa) = 34.98788 43.32906 39.15847
# Shear Modulus (GPa) = 27.68476 29.70590 28.69533
#
# Velocity S-wave (km/s) = 3.71094 3.84401 3.77806
# Velocity P-wave (km/s) = 5.98041 6.42299 6.20565
#
# Compressibility (1/GPa) = 0.02858132
#
# Stress axis : x y z
#
# Youngs Moduli (GPa) = 42.57662 76.60320 79.83165
#
# Poissons Ratio (x) = 0.50708 -0.09557
# Poissons Ratio (y) = 0.28184 0.38485
# Poissons Ratio (z) = -0.05097 0.36929
#
# Static dielectric constant tensor:
#      x y z
#    x 3.808400 0.000000 0.000000 
#    y 0.000000 3.996910 0.000000 
#    z 0.000000 0.000000 3.741290 
# 
# 
# High freq. dielectric constant tensor:
#      x y z
#    x 1.763570 0.000000 0.000000 
#    y 0.000000 1.790280 0.000000 
#    z 0.000000 0.000000 1.799000 
# 
# From -- ./inp_files/27115.got.cif
#   From: 2010.03.12/outbox.cif.g09.slc.cpg/sg62_14_cif.got.tgz:27115.got - 2010.04.10 19:12:36.
