data_PCOD8254776
_publ_section_title
;
Structure prediction by ZEFSAII (Michael W. Deem and Ramdas Pophale) SiO2 
 PCOD8254776
Probable space group: P N M A
;
_chemical_formula_sum "Si O2"
_cell_formula_units_Z 48
_cell_length_a 14.877551
_cell_length_b 17.613380
_cell_length_c 8.843110
_cell_angle_alpha 90.000000
_cell_angle_beta 90.000000
_cell_angle_gamma 90.000000
_cell_volume 2317.283556
_symmetry_space_group_name_H-M "P N M A"
_symmetry_group_IT_number 62
_symmetry_cell_setting 'orthorhombic'
loop_
_space_group_symop_operation_xyz
x,y,z
1/2-x,-y,1/2+z
1/2+x,1/2-y,1/2-z
-x,1/2+y,-z
-x,-y,-z
1/2+x,y,1/2-z
1/2-x,1/2+y,1/2+z
x,1/2-y,z
loop_
_atom_site_type_symbol
_atom_site_label
_atom_site_fract_x
_atom_site_fract_y
_atom_site_fract_z
Si Si1 0.536800 0.160693 0.602895
Si Si2 0.302428 0.834597 0.872818
Si Si3 0.317903 0.923915 0.571938
Si Si4 0.129048 0.919443 0.953483
Si Si5 0.116349 0.551647 0.604235
Si Si6 0.044671 0.387166 0.559166
O O1 0.536321 0.250000 0.580350
O O2 0.633364 0.128751 0.551347
O O3 0.459661 0.125322 0.499073
O O4 0.517533 0.138259 0.774359
O O5 0.282466 0.750000 0.809767
O O6 0.332740 0.890776 0.739058
O O7 0.214601 0.864128 0.960988
O O8 0.384523 0.827988 0.990184
O O9 0.212291 0.925177 0.534090
O O10 0.357651 0.009215 0.565876
O O11 0.116456 0.949961 0.784623
O O12 0.092189 0.468471 0.547622
O O13 0.045743 0.612903 0.540904
#
# Coordination Sequence:
#
# PCOD8254776 Si02
#       6
#     8   8   8   8   8   8
#     4  12  26  42  64  97 135 172 214 269 331 384
#     4  11  24  43  66  94 133 173 212 268 337 390
#     4  11  23  42  68  97 124 170 222 271 315 392
#     4  11  23  43  67  96 128 171 223 271 316 392
#     4  10  23  40  67  97 122 167 217 269 316 378
#     4  11  23  40  65  94 132 162 213 266 323 383
#
# _framework density 20.713908
#
# number of rings (size 3 to 8) (size 9 to 14) (size 15 to 20)
#    0.000    1.000    3.333    3.000    4.667    1.333 
#    0.000   10.833    0.000    0.000    0.000    0.000 
#    0.000    0.000    0.000    0.000    0.000    0.000 
#
# Total GULP energy -595473.409038 kJ/mol
# GULP energy per Si atom -12405.696022 kJ/mol
# Density = 2.066676 g / cm^3
# Si number density = 20.713908 Si / 1000 Ang^3
#
#
#
# Elastic Constant Matrix: (Units=GPa)
#
#
# Indices 1 2 3 4 5 6 
#
# 1 137.7829 54.8637 40.2090 0.0000 0.0000 0.0000
# 2 54.8637 131.8352 35.4985 0.0000 0.0000 0.0000
# 3 40.2090 35.4985 73.0881 0.0000 0.0000 0.0000
# 4 0.0000 0.0000 0.0000 18.8890 0.0000 0.0000
# 5 0.0000 0.0000 0.0000 0.0000 34.0003 0.0000
# 6 0.0000 0.0000 0.0000 0.0000 0.0000 20.1515
#
#
#
# Elastic Compliance Matrix: (Units=1/GPa)
#
#
# Indices 1 2 3 4 5 6 
#
# 1 0.009545 -0.002943 -0.003822 0.000000 0.000000 0.000000
# 2 -0.002943 0.009634 -0.003060 0.000000 0.000000 0.000000
# 3 -0.003822 -0.003060 0.017271 0.000000 0.000000 0.000000
# 4 0.000000 0.000000 0.000000 0.052941 0.000000 0.000000
# 5 0.000000 0.000000 0.000000 0.000000 0.029411 0.000000
# 6 0.000000 0.000000 0.000000 0.000000 0.000000 0.049624
#
#
# Mechanical properties :
#
#
# Convention : Reuss Voigt Hill
#
# Bulk Modulus (GPa) = 59.52327 67.09429 63.30878
# Shear Modulus (GPa) = 25.81632 28.75050 27.28341
#
# Velocity S-wave (km/s) = 3.53417 3.72960 3.63320
# Velocity P-wave (km/s) = 6.74181 7.14198 6.94478
#
# Compressibility (1/GPa) = 0.01680015
#
# Stress axis : x y z
#
# Youngs Moduli (GPa) = 104.76697 103.79916 57.90113
#
# Poissons Ratio (x) = 0.30550 0.22128
# Poissons Ratio (y) = 0.30834 0.17718
# Poissons Ratio (z) = 0.40038 0.31763
#
# Static dielectric constant tensor:
#      x y z
#    x 3.974070 0.000000 0.000000 
#    y 0.000000 3.733850 0.000000 
#    z 0.000000 0.000000 3.627410 
# 
# 
# High freq. dielectric constant tensor:
#      x y z
#    x 1.825720 0.000000 0.000000 
#    y 0.000000 1.810190 0.000000 
#    z 0.000000 0.000000 1.809130 
# 
# From -- ./inp_files/6450.got.cif
#   From: 2010.03.12/outbox.cif.g09.slc.cpg/sg62_4_cif.got.tgz:6450.got - 2010.04.10 19:12:36.
