data_PCOD8254366
_publ_section_title
;
Structure prediction by ZEFSAII (Michael W. Deem and Ramdas Pophale) SiO2 
 PCOD8254366
Probable space group: P N M A
;
_chemical_formula_sum "Si O2"
_cell_formula_units_Z 64
_cell_length_a 14.874331
_cell_length_b 15.844206
_cell_length_c 11.976992
_cell_angle_alpha 90.000000
_cell_angle_beta 90.000000
_cell_angle_gamma 90.000000
_cell_volume 2822.641233
_symmetry_space_group_name_H-M "P N M A"
_symmetry_group_IT_number 62
_symmetry_cell_setting 'orthorhombic'
loop_
_space_group_symop_operation_xyz
x,y,z
1/2-x,-y,1/2+z
1/2+x,1/2-y,1/2-z
-x,1/2+y,-z
-x,-y,-z
1/2+x,y,1/2-z
1/2-x,1/2+y,1/2+z
x,1/2-y,z
loop_
_atom_site_type_symbol
_atom_site_label
_atom_site_fract_x
_atom_site_fract_y
_atom_site_fract_z
Si Si1 0.778707 0.916123 0.343342
Si Si2 0.293634 0.844027 0.524883
Si Si3 0.431152 0.650514 0.835059
Si Si4 0.020408 0.150850 0.096023
Si Si5 0.167686 0.847312 0.969068
Si Si6 0.746075 0.599889 0.747573
Si Si7 0.838042 0.347687 0.653820
Si Si8 0.531269 0.150328 0.914735
O O1 0.733302 0.910867 0.465699
O O2 0.710204 0.857346 0.272672
O O3 0.881919 0.886427 0.350228
O O4 0.778983 0.007640 0.290801
O O5 0.308567 0.750000 0.477853
O O6 0.390131 0.891633 0.540538
O O7 0.247227 0.838943 0.645851
O O8 0.228304 0.892079 0.437592
O O9 0.408379 0.750000 0.837741
O O10 0.492663 0.625206 0.727431
O O11 0.339550 0.598440 0.819831
O O12 0.474172 0.623497 0.953999
O O13 0.039079 0.250000 0.097199
O O14 0.937557 0.129835 0.013703
O O15 0.189990 0.750000 0.999843
O O16 0.173851 0.862021 0.836522
O O17 0.849506 0.250000 0.623450
O O18 0.939845 0.385259 0.644586
O O19 0.539690 0.250000 0.903007
#
# Coordination Sequence:
#
# PCOD8254366 Si02
#       8
#     8   8   8   8   8   8   8   8
#     4  12  26  42  61  96 138 169 212 271 333 388
#     4   9  19  39  63  92 127 166 213 274 323 377
#     4   9  17  37  65  94 124 164 222 277 316 375
#     4   8  17  33  61  98 125 155 215 279 322 372
#     4  11  22  41  69  95 125 179 229 265 321 404
#     4  11  23  38  62  92 132 170 216 271 329 384
#     4  10  23  41  67  95 125 171 223 268 326 398
#     4  10  21  41  68  94 123 171 227 273 319 389
#
# _framework density 22.6738
#
# number of rings (size 3 to 8) (size 9 to 14) (size 15 to 20)
#    0.000    2.000    1.250    3.000    3.500    1.000 
#    4.500    6.250    0.000    0.000    0.000    0.000 
#    0.000    0.000    0.000    0.000    0.000    0.000 
#
# Total GULP energy -792931.225044 kJ/mol
# GULP energy per Si atom -12389.550391 kJ/mol
# Density = 2.262219 g / cm^3
# Si number density = 22.673800 Si / 1000 Ang^3
#
#
#
# Elastic Constant Matrix: (Units=GPa)
#
#
# Indices 1 2 3 4 5 6 
#
# 1 148.7421 14.0718 54.3162 0.0000 0.0000 0.0000
# 2 14.0718 27.4705 6.7625 0.0000 0.0000 0.0000
# 3 54.3162 6.7625 80.2088 0.0000 0.0000 0.0000
# 4 0.0000 0.0000 0.0000 54.5576 0.0000 0.0000
# 5 0.0000 0.0000 0.0000 0.0000 36.9605 0.0000
# 6 0.0000 0.0000 0.0000 0.0000 0.0000 10.5285
#
#
#
# Elastic Compliance Matrix: (Units=1/GPa)
#
#
# Indices 1 2 3 4 5 6 
#
# 1 0.009207 -0.003249 -0.005961 0.000000 0.000000 0.000000
# 2 -0.003249 0.038321 -0.001031 0.000000 0.000000 0.000000
# 3 -0.005961 -0.001031 0.016591 0.000000 0.000000 0.000000
# 4 0.000000 0.000000 0.000000 0.018329 0.000000 0.000000
# 5 0.000000 0.000000 0.000000 0.000000 0.027056 0.000000
# 6 0.000000 0.000000 0.000000 0.000000 0.000000 0.094980
#
#
# Mechanical properties :
#
#
# Convention : Reuss Voigt Hill
#
# Bulk Modulus (GPa) = 22.91602 45.19136 34.05369
# Shear Modulus (GPa) = 20.87579 32.49406 26.68492
#
# Velocity S-wave (km/s) = 3.03760 3.78975 3.43433
# Velocity P-wave (km/s) = 4.73618 6.25492 5.54777
#
# Compressibility (1/GPa) = 0.04363759
#
# Stress axis : x y z
#
# Youngs Moduli (GPa) = 108.61048 26.09553 60.27325
#
# Poissons Ratio (x) = 0.08478 0.35929
# Poissons Ratio (y) = 0.35287 0.06212
# Poissons Ratio (z) = 0.64743 0.02690
#
# Static dielectric constant tensor:
#      x y z
#    x 4.312340 0.000000 0.000000 
#    y 0.000000 3.558070 0.000000 
#    z 0.000000 0.000000 4.155380 
# 
# 
# High freq. dielectric constant tensor:
#      x y z
#    x 1.903880 0.000000 0.000000 
#    y 0.000000 1.852920 0.000000 
#    z 0.000000 0.000000 1.894610 
# 
# From -- ./inp_files/13605.got.cif
#   From: 2010.03.12/outbox.cif.g09.slc.cpg/sg62_7_cif.got.tgz:13605.got - 2010.04.10 19:12:36.
