data_PCOD8254630
_publ_section_title
;
Structure prediction by ZEFSAII (Michael W. Deem and Ramdas Pophale) SiO2 
 PCOD8254630
Probable space group: P N M A
;
_chemical_formula_sum "Si O2"
_cell_formula_units_Z 48
_cell_length_a 8.869229
_cell_length_b 8.615328
_cell_length_c 30.638922
_cell_angle_alpha 90.000000
_cell_angle_beta 90.000000
_cell_angle_gamma 90.000000
_cell_volume 2341.160380
_symmetry_space_group_name_H-M "P N M A"
_symmetry_group_IT_number 62
_symmetry_cell_setting 'orthorhombic'
loop_
_space_group_symop_operation_xyz
x,y,z
1/2-x,-y,1/2+z
1/2+x,1/2-y,1/2-z
-x,1/2+y,-z
-x,-y,-z
1/2+x,y,1/2-z
1/2-x,1/2+y,1/2+z
x,1/2-y,z
loop_
_atom_site_type_symbol
_atom_site_label
_atom_site_fract_x
_atom_site_fract_y
_atom_site_fract_z
Si Si1 0.607281 0.429440 0.209800
Si Si2 0.915334 0.431886 0.041159
Si Si3 0.928271 0.070852 0.377515
Si Si4 0.078571 0.069929 0.130015
Si Si5 0.085269 0.931000 0.458932
Si Si6 0.571212 0.429041 0.712619
O O1 0.656923 0.250000 0.210378
O O2 0.514972 0.470420 0.166569
O O3 0.503375 0.461938 0.251271
O O4 0.751900 0.538185 0.211163
O O5 0.904082 0.250000 0.035041
O O6 0.749004 0.496884 0.046106
O O7 0.010524 0.477681 0.083601
O O8 0.000000 0.500000 0.000000
O O9 0.950973 0.250000 0.390971
O O10 0.754483 0.031843 0.369957
O O11 0.989757 0.962997 0.415689
O O12 0.047129 0.250000 0.140704
O O13 0.999861 0.964040 0.165837
O O14 0.103411 0.750000 0.466439
O O15 0.000000 0.000000 0.500000
O O16 0.544599 0.250000 0.724625
#
# Coordination Sequence:
#
# PCOD8254630 Si02
#       6
#     8   8   8   8   8   8
#     4  11  23  41  65  90 123 166 207 248 303 371
#     4  11  23  40  64  93 126 163 206 254 305 365
#     4  10  22  41  65  92 121 158 207 256 303 362
#     4  10  22  41  64  90 123 164 206 249 305 371
#     4  12  25  41  63  90 124 163 205 255 310 367
#     4  12  25  40  62  93 127 160 204 260 308 356
#
# _framework density 20.502654
#
# number of rings (size 3 to 8) (size 9 to 14) (size 15 to 20)
#    0.000    1.000    0.000    7.000    0.000   10.000 
#    0.000    0.000    0.000    0.000    0.000    0.000 
#    0.000    0.000    0.000    0.000    0.000    0.000 
#
# Total GULP energy -595595.970860 kJ/mol
# GULP energy per Si atom -12408.249393 kJ/mol
# Density = 2.045599 g / cm^3
# Si number density = 20.502654 Si / 1000 Ang^3
#
#
#
# Elastic Constant Matrix: (Units=GPa)
#
#
# Indices 1 2 3 4 5 6 
#
# 1 125.8136 18.7720 49.4414 0.0000 0.0000 0.0000
# 2 18.7720 64.5979 51.0969 0.0000 0.0000 0.0000
# 3 49.4414 51.0969 135.2067 0.0000 0.0000 0.0000
# 4 0.0000 0.0000 0.0000 30.5679 0.0000 0.0000
# 5 0.0000 0.0000 0.0000 0.0000 33.7625 0.0000
# 6 0.0000 0.0000 0.0000 0.0000 0.0000 33.2781
#
#
#
# Elastic Compliance Matrix: (Units=1/GPa)
#
#
# Indices 1 2 3 4 5 6 
#
# 1 0.009282 -0.000018 -0.003387 0.000000 0.000000 0.000000
# 2 -0.000018 0.022081 -0.008338 0.000000 0.000000 0.000000
# 3 -0.003387 -0.008338 0.011786 0.000000 0.000000 0.000000
# 4 0.000000 0.000000 0.000000 0.032714 0.000000 0.000000
# 5 0.000000 0.000000 0.000000 0.000000 0.029619 0.000000
# 6 0.000000 0.000000 0.000000 0.000000 0.000000 0.030050
#
#
# Mechanical properties :
#
#
# Convention : Reuss Voigt Hill
#
# Bulk Modulus (GPa) = 50.85962 62.69320 56.77641
# Shear Modulus (GPa) = 30.19814 33.27556 31.73685
#
# Velocity S-wave (km/s) = 3.84199 4.03300 3.93865
# Velocity P-wave (km/s) = 6.67393 7.23404 6.95962
#
# Compressibility (1/GPa) = 0.01966196
#
# Stress axis : x y z
#
# Youngs Moduli (GPa) = 107.73404 45.28744 84.84656
#
# Poissons Ratio (x) = 0.00081 0.28741
# Poissons Ratio (y) = 0.00193 0.70748
# Poissons Ratio (z) = 0.36495 0.37762
#
# Static dielectric constant tensor:
#      x y z
#    x 3.846810 0.000000 0.000000 
#    y 0.000000 3.697150 0.000000 
#    z 0.000000 0.000000 3.874790 
# 
# 
# High freq. dielectric constant tensor:
#      x y z
#    x 1.822080 0.000000 0.000000 
#    y 0.000000 1.803960 0.000000 
#    z 0.000000 0.000000 1.819840 
# 
# From -- ./inp_files/31990.got.cif
#   From: 2010.03.12/outbox.cif.g09.slc.cpg/sg62_16_cif.got.tgz:31990.got - 2010.04.10 19:12:36.
