data_PCOD8254294
_publ_section_title
;
Structure prediction by ZEFSAII (Michael W. Deem and Ramdas Pophale) SiO2 
 PCOD8254294
Probable space group: P N M A
;
_chemical_formula_sum "Si O2"
_cell_formula_units_Z 56
_cell_length_a 14.757737
_cell_length_b 28.969116
_cell_length_c 5.552552
_cell_angle_alpha 90.000000
_cell_angle_beta 90.000000
_cell_angle_gamma 90.000000
_cell_volume 2373.819230
_symmetry_space_group_name_H-M "P N M A"
_symmetry_group_IT_number 62
_symmetry_cell_setting 'orthorhombic'
loop_
_space_group_symop_operation_xyz
x,y,z
1/2-x,-y,1/2+z
1/2+x,1/2-y,1/2-z
-x,1/2+y,-z
-x,-y,-z
1/2+x,y,1/2-z
1/2-x,1/2+y,1/2+z
x,1/2-y,z
loop_
_atom_site_type_symbol
_atom_site_label
_atom_site_fract_x
_atom_site_fract_y
_atom_site_fract_z
Si Si1 0.604213 0.975358 0.236703
Si Si2 0.853217 0.383342 0.935113
Si Si3 0.589578 0.800463 0.143166
Si Si4 0.608861 0.480424 0.737713
Si Si5 0.400509 0.800735 0.385554
Si Si6 0.343749 0.884526 0.102232
Si Si7 0.000602 0.644132 0.728983
O O1 0.631336 0.921224 0.225895
O O2 0.498218 0.983346 0.247416
O O3 0.645120 0.995320 0.491257
O O4 0.645980 0.997497 0.991268
O O5 0.856923 0.331362 0.833348
O O6 0.751438 0.388592 0.045367
O O7 0.940082 0.391386 0.110579
O O8 0.636320 0.750000 0.120928
O O9 0.485542 0.794613 0.213954
O O10 0.582558 0.826611 0.889764
O O11 0.645203 0.428024 0.720627
O O12 0.354030 0.750000 0.421555
O O13 0.334129 0.837967 0.262539
O O14 0.433845 0.820330 0.639538
O O15 0.434642 0.885807 0.940131
#
# Coordination Sequence:
#
# PCOD8254294 Si02
#       7
#     8   8   8   8   8   8   8
#     4  10  23  42  70  98 130 176 229 287 349 415
#     4  11  25  41  63  96 136 178 226 286 347 411
#     4   9  19  38  64  91 125 168 218 276 341 409
#     4  10  23  42  70  98 130 176 229 287 349 415
#     4   9  19  38  64  91 125 168 218 276 341 409
#     4  11  25  41  63  96 136 178 226 286 347 411
#     4  10  21  40  66  94 132 174 228 280 339 414
#
# _framework density 23.590675000000001
#
# number of rings (size 3 to 8) (size 9 to 14) (size 15 to 20)
#    0.000    2.000    0.000    3.000   10.000    4.000 
#    0.000    0.000    0.000    0.000    0.000    0.000 
#    0.000    0.000    0.000    0.000    0.000    0.000 
#
# Total GULP energy -693782.594749 kJ/mol
# GULP energy per Si atom -12388.974906 kJ/mol
# Density = 2.353698 g / cm^3
# Si number density = 23.590675 Si / 1000 Ang^3
#
#
#
# Elastic Constant Matrix: (Units=GPa)
#
#
# Indices 1 2 3 4 5 6 
#
# 1 80.1131 15.6796 24.5320 0.0000 0.0000 0.0000
# 2 15.6796 131.6303 34.5346 0.0000 0.0000 0.0000
# 3 24.5320 34.5346 111.3700 0.0000 0.0000 0.0000
# 4 0.0000 0.0000 0.0000 17.5875 0.0000 0.0000
# 5 0.0000 0.0000 0.0000 0.0000 7.6115 0.0000
# 6 0.0000 0.0000 0.0000 0.0000 0.0000 -0.9494
#
#
#
# Elastic Compliance Matrix: (Units=1/GPa)
#
#
# Indices 1 2 3 4 5 6 
#
# 1 0.013482 -0.000900 -0.002691 0.000000 0.000000 0.000000
# 2 -0.000900 0.008330 -0.002385 0.000000 0.000000 0.000000
# 3 -0.002691 -0.002385 0.010311 0.000000 0.000000 0.000000
# 4 0.000000 0.000000 0.000000 0.056859 0.000000 0.000000
# 5 0.000000 0.000000 0.000000 0.000000 0.131380 0.000000
# 6 0.000000 0.000000 0.000000 0.000000 0.000000 -1.053291
#
#
# Mechanical properties :
#
#
# Convention : Reuss Voigt Hill
#
# Bulk Modulus (GPa) = 49.57239 52.51176 51.04207
# Shear Modulus (GPa) = -6.14059 21.40774 7.63357
#
# Velocity S-wave (km/s) = -1.61512 3.01569 1.80080
# Velocity P-wave (km/s) = 4.19297 5.86802 5.09974
#
# Compressibility (1/GPa) = 0.02017252
#
# Stress axis : x y z
#
# Youngs Moduli (GPa) = 74.17045 120.04920 96.98126
#
# Poissons Ratio (x) = 0.10805 0.26095
# Poissons Ratio (y) = 0.06676 0.23128
# Poissons Ratio (z) = 0.19957 0.28629
#
# Static dielectric constant tensor:
#      x y z
#    x 3.879900 0.000000 0.000000 
#    y 0.000000 4.646230 0.000000 
#    z 0.000000 0.000000 4.347370 
# 
# 
# High freq. dielectric constant tensor:
#      x y z
#    x 1.911030 0.000000 0.000000 
#    y 0.000000 1.946900 0.000000 
#    z 0.000000 0.000000 1.917450 
# 
# From -- ./inp_files/1290.got.cif
#   From: 2010.03.12/outbox.cif.g09.slc.cpg/sg62_1_cif.got.tgz:1290.got - 2010.04.10 19:12:36.
