data_PCOD8254996
_publ_section_title
;
Structure prediction by ZEFSAII (Michael W. Deem and Ramdas Pophale) SiO2 
 PCOD8254996
Probable space group: P N M A
;
_chemical_formula_sum "Si O2"
_cell_formula_units_Z 48
_cell_length_a 8.624250
_cell_length_b 30.793999
_cell_length_c 8.791673
_cell_angle_alpha 90.000000
_cell_angle_beta 90.000000
_cell_angle_gamma 90.000000
_cell_volume 2334.849839
_symmetry_space_group_name_H-M "P N M A"
_symmetry_group_IT_number 62
_symmetry_cell_setting 'orthorhombic'
loop_
_space_group_symop_operation_xyz
x,y,z
1/2-x,-y,1/2+z
1/2+x,1/2-y,1/2-z
-x,1/2+y,-z
-x,-y,-z
1/2+x,y,1/2-z
1/2-x,1/2+y,1/2+z
x,1/2-y,z
loop_
_atom_site_type_symbol
_atom_site_label
_atom_site_fract_x
_atom_site_fract_y
_atom_site_fract_z
Si Si1 0.697740 0.917826 0.785505
Si Si2 0.471813 0.297961 0.461679
Si Si3 0.889172 0.627551 0.153674
Si Si4 0.465901 0.952028 0.552677
Si Si5 0.050846 0.869846 0.459387
Si Si6 0.159676 0.172769 0.314746
O O1 0.617051 0.933219 0.633419
O O2 0.789879 0.873502 0.753766
O O3 0.821652 0.954541 0.831518
O O4 0.578544 0.910685 0.926712
O O5 0.483913 0.250000 0.536219
O O6 0.500011 0.334727 0.588332
O O7 0.597757 0.300084 0.327427
O O8 0.300533 0.303065 0.394170
O O9 0.920681 0.620448 0.332436
O O10 0.712093 0.642397 0.123950
O O11 0.924011 0.580597 0.082776
O O12 0.500000 0.000000 0.500000
O O13 0.982126 0.831469 0.564859
#
# Coordination Sequence:
#
# PCOD8254996 Si02
#       6
#     8   8   8   8   8   8
#     4  11  20  43  68  93 127 175 217 270 324 391
#     4  12  23  39  66 100 133 173 226 276 327 395
#     4  11  23  42  62  97 133 171 221 273 338 386
#     4  11  24  41  66  95 129 171 218 269 332 396
#     4  11  22  39  71  90 126 182 212 269 336 389
#     4  12  19  42  68  93 129 177 224 266 328 392
#
# _framework density 20.558067000000001
#
# number of rings (size 3 to 8) (size 9 to 14) (size 15 to 20)
#    0.000    0.667    8.333    1.500    0.000    2.667 
#    0.000    6.667    0.000    0.000    0.000    0.000 
#    0.000    0.000    0.000    0.000    0.000    0.000 
#
# Total GULP energy -595121.691732 kJ/mol
# GULP energy per Si atom -12398.368578 kJ/mol
# Density = 2.051128 g / cm^3
# Si number density = 20.558067 Si / 1000 Ang^3
#
#
#
# Elastic Constant Matrix: (Units=GPa)
#
#
# Indices 1 2 3 4 5 6 
#
# 1 79.4229 21.4788 20.0971 0.0000 0.0000 0.0000
# 2 21.4788 101.4992 23.8502 0.0000 0.0000 0.0000
# 3 20.0971 23.8502 80.5191 0.0000 0.0000 0.0000
# 4 0.0000 0.0000 0.0000 22.9445 0.0000 0.0000
# 5 0.0000 0.0000 0.0000 0.0000 45.1606 0.0000
# 6 0.0000 0.0000 0.0000 0.0000 0.0000 24.1944
#
#
#
# Elastic Compliance Matrix: (Units=1/GPa)
#
#
# Indices 1 2 3 4 5 6 
#
# 1 0.013917 -0.002288 -0.002796 0.000000 0.000000 0.000000
# 2 -0.002288 0.010966 -0.002677 0.000000 0.000000 0.000000
# 3 -0.002796 -0.002677 0.013910 0.000000 0.000000 0.000000
# 4 0.000000 0.000000 0.000000 0.043583 0.000000 0.000000
# 5 0.000000 0.000000 0.000000 0.000000 0.022143 0.000000
# 6 0.000000 0.000000 0.000000 0.000000 0.000000 0.041332
#
#
# Mechanical properties :
#
#
# Convention : Reuss Voigt Hill
#
# Bulk Modulus (GPa) = 42.97208 43.58816 43.28012
# Shear Modulus (GPa) = 29.56305 31.52758 30.54531
#
# Velocity S-wave (km/s) = 3.79625 3.92035 3.85880
# Velocity P-wave (km/s) = 6.33747 6.46070 6.39938
#
# Compressibility (1/GPa) = 0.02327092
#
# Stress axis : x y z
#
# Youngs Moduli (GPa) = 71.85418 91.19496 71.88980
#
# Poissons Ratio (x) = 0.20866 0.20099
# Poissons Ratio (y) = 0.16441 0.19245
# Poissons Ratio (z) = 0.20090 0.24412
#
# Static dielectric constant tensor:
#      x y z
#    x 4.052170 0.000000 0.000000 
#    y 0.000000 3.504710 0.000000 
#    z 0.000000 0.000000 3.895540 
# 
# 
# High freq. dielectric constant tensor:
#      x y z
#    x 1.823870 0.000000 0.000000 
#    y 0.000000 1.771100 0.000000 
#    z 0.000000 0.000000 1.806810 
# 
# From -- ./inp_files/4517.got.cif
#   From: 2010.03.12/outbox.cif.g09.slc.cpg/sg62_3_cif.got.tgz:4517.got - 2010.04.10 19:12:36.
