data_PCOD8254492
_publ_section_title
;
Structure prediction by ZEFSAII (Michael W. Deem and Ramdas Pophale) SiO2 
 PCOD8254492
Probable space group: P N M A
;
_chemical_formula_sum "Si O2"
_cell_formula_units_Z 40
_cell_length_a 10.150029
_cell_length_b 22.244180
_cell_length_c 9.088874
_cell_angle_alpha 90.000000
_cell_angle_beta 90.000000
_cell_angle_gamma 90.000000
_cell_volume 2052.077538
_symmetry_space_group_name_H-M "P N M A"
_symmetry_group_IT_number 62
_symmetry_cell_setting 'orthorhombic'
loop_
_space_group_symop_operation_xyz
x,y,z
1/2-x,-y,1/2+z
1/2+x,1/2-y,1/2-z
-x,1/2+y,-z
-x,-y,-z
1/2+x,y,1/2-z
1/2-x,1/2+y,1/2+z
x,1/2-y,z
loop_
_atom_site_type_symbol
_atom_site_label
_atom_site_fract_x
_atom_site_fract_y
_atom_site_fract_z
Si Si1 0.903568 0.633797 0.799063
Si Si2 0.832248 0.543229 0.563533
Si Si3 0.950910 0.433298 0.966130
Si Si4 0.068568 0.579966 0.375361
Si Si5 0.629624 0.818245 0.899957
O O1 0.890398 0.570753 0.713053
O O2 0.764413 0.667165 0.813778
O O3 0.006983 0.675074 0.711203
O O4 0.957020 0.616849 0.959713
O O5 0.692182 0.572630 0.537108
O O6 0.823947 0.471158 0.582749
O O7 0.924671 0.558619 0.425927
O O8 0.941745 0.413065 0.798190
O O9 0.000000 0.500000 0.000000
O O10 0.112970 0.641105 0.454450
O O11 0.634371 0.750000 0.955884
#
# Coordination Sequence:
#
# PCOD8254492 Si02
#       5
#     8   8   8   8   8
#     4  11  22  42  68  94 124 168 213 263 319 372
#     4  10  22  39  59  97 128 160 207 261 321 388
#     4  12  23  35  65  96 129 161 203 259 328 389
#     4  10  24  38  63  92 131 166 204 263 329 373
#     4  11  24  45  66  91 127 172 220 260 308 385
#
# _framework density 19.492442
#
# number of rings (size 3 to 8) (size 9 to 14) (size 15 to 20)
#    0.000    1.200    4.000    1.800    5.600    0.000 
#    0.000    2.000    0.000    0.000    0.000    0.000 
#    0.000    0.000    0.000    0.000    0.000    0.000 
#
# Total GULP energy -496116.657155 kJ/mol
# GULP energy per Si atom -12402.916429 kJ/mol
# Density = 1.944808 g / cm^3
# Si number density = 19.492442 Si / 1000 Ang^3
#
#
#
# Elastic Constant Matrix: (Units=GPa)
#
#
# Indices 1 2 3 4 5 6 
#
# 1 100.7869 30.3162 47.2451 0.0000 0.0000 0.0000
# 2 30.3162 133.5689 47.9205 0.0000 0.0000 0.0000
# 3 47.2451 47.9205 127.2414 0.0000 0.0000 0.0000
# 4 0.0000 0.0000 0.0000 20.6441 0.0000 0.0000
# 5 0.0000 0.0000 0.0000 0.0000 25.9762 0.0000
# 6 0.0000 0.0000 0.0000 0.0000 0.0000 18.2291
#
#
#
# Elastic Compliance Matrix: (Units=1/GPa)
#
#
# Indices 1 2 3 4 5 6 
#
# 1 0.012212 -0.001324 -0.004036 0.000000 0.000000 0.000000
# 2 -0.001324 0.008800 -0.002823 0.000000 0.000000 0.000000
# 3 -0.004036 -0.002823 0.010421 0.000000 0.000000 0.000000
# 4 0.000000 0.000000 0.000000 0.048440 0.000000 0.000000
# 5 0.000000 0.000000 0.000000 0.000000 0.038497 0.000000
# 6 0.000000 0.000000 0.000000 0.000000 0.000000 0.054857
#
#
# Mechanical properties :
#
#
# Convention : Reuss Voigt Hill
#
# Bulk Modulus (GPa) = 66.36561 68.06231 67.21396
# Shear Modulus (GPa) = 25.69194 28.71091 27.20142
#
# Velocity S-wave (km/s) = 3.63443 3.84203 3.73967
# Velocity P-wave (km/s) = 7.19256 7.39424 7.29409
#
# Compressibility (1/GPa) = 0.01506805
#
# Stress axis : x y z
#
# Youngs Moduli (GPa) = 81.88708 113.63760 95.96392
#
# Poissons Ratio (x) = 0.15044 0.38729
# Poissons Ratio (y) = 0.10841 0.27087
# Poissons Ratio (z) = 0.33048 0.32075
#
# Static dielectric constant tensor:
#      x y z
#    x 3.730200 0.000000 0.000000 
#    y 0.000000 3.332550 0.000000 
#    z 0.000000 0.000000 3.478850 
# 
# 
# High freq. dielectric constant tensor:
#      x y z
#    x 1.776040 0.000000 0.000000 
#    y 0.000000 1.737430 0.000000 
#    z 0.000000 0.000000 1.761250 
# 
# From -- ./inp_files/4277.got.cif
#   From: 2010.03.12/outbox.cif.g09.slc.cpg/sg62_3_cif.got.tgz:4277.got - 2010.04.10 19:12:36.
