data_PCOD8254542
_publ_section_title
;
Structure prediction by ZEFSAII (Michael W. Deem and Ramdas Pophale) SiO2 
 PCOD8254542
Probable space group: P N M A
;
_chemical_formula_sum "Si O2"
_cell_formula_units_Z 64
_cell_length_a 24.786752
_cell_length_b 8.757595
_cell_length_c 15.065506
_cell_angle_alpha 90.000000
_cell_angle_beta 90.000000
_cell_angle_gamma 90.000000
_cell_volume 3270.304571
_symmetry_space_group_name_H-M "P N M A"
_symmetry_group_IT_number 62
_symmetry_cell_setting 'orthorhombic'
loop_
_space_group_symop_operation_xyz
x,y,z
1/2-x,-y,1/2+z
1/2+x,1/2-y,1/2-z
-x,1/2+y,-z
-x,-y,-z
1/2+x,y,1/2-z
1/2-x,1/2+y,1/2+z
x,1/2-y,z
loop_
_atom_site_type_symbol
_atom_site_label
_atom_site_fract_x
_atom_site_fract_y
_atom_site_fract_z
Si Si1 0.644034 0.575363 0.287830
Si Si2 0.557452 0.070480 0.165319
Si Si3 0.831067 0.428134 0.987747
Si Si4 0.365760 0.926884 0.342120
Si Si5 0.780757 0.071546 0.457968
Si Si6 0.389168 0.930502 0.013894
Si Si7 0.436926 0.431197 0.190499
Si Si8 0.265112 0.574780 0.225004
O O1 0.628640 0.750000 0.270521
O O2 0.599667 0.473497 0.240834
O O3 0.642702 0.536464 0.392392
O O4 0.703406 0.538657 0.247612
O O5 0.555639 0.250000 0.160950
O O6 0.574978 0.009972 0.068437
O O7 0.498309 0.006944 0.188465
O O8 0.818985 0.250000 0.998142
O O9 0.871542 0.486240 0.064107
O O10 0.775622 0.519728 0.999293
O O11 0.378666 0.750000 0.356080
O O12 0.304697 0.952458 0.307267
O O13 0.409271 0.994632 0.275439
O O14 0.788892 0.250000 0.474643
O O15 0.827896 0.978711 0.507516
O O16 0.783629 0.036403 0.353286
O O17 0.393514 0.750000 0.029048
O O18 0.407522 0.017407 0.101566
O O19 0.433557 0.250000 0.198524
O O20 0.268612 0.750000 0.190043
#
# Coordination Sequence:
#
# PCOD8254542 Si02
#       8
#     8   8   8   8   8   8   8   8
#     4   9  20  39  61  85 117 155 195 245 299 350
#     4  10  24  41  60  86 118 155 200 251 298 352
#     4  10  22  40  60  86 123 160 196 248 302 353
#     4  11  22  37  61  91 121 156 200 246 298 358
#     4  11  21  34  56  87 120 158 198 237 292 356
#     4  11  22  38  58  86 121 159 198 244 299 354
#     4  11  23  41  61  87 120 156 200 248 298 353
#     4   9  19  36  56  83 120 154 190 242 297 349
#
# _framework density 19.570043999999999
#
# number of rings (size 3 to 8) (size 9 to 14) (size 15 to 20)
#    0.000    1.750    1.250    3.750    1.750    5.000 
#    0.000    0.625    0.000    0.000    0.000    0.000 
#    0.000    0.000    0.000    0.000    0.000    0.000 
#
# Total GULP energy -793782.792428 kJ/mol
# GULP energy per Si atom -12402.856132 kJ/mol
# Density = 1.952550 g / cm^3
# Si number density = 19.570044 Si / 1000 Ang^3
#
#
#
# Elastic Constant Matrix: (Units=GPa)
#
#
# Indices 1 2 3 4 5 6 
#
# 1 87.0654 10.1494 28.8668 0.0000 0.0000 0.0000
# 2 10.1494 43.2132 18.0390 0.0000 0.0000 0.0000
# 3 28.8668 18.0390 58.0808 0.0000 0.0000 0.0000
# 4 0.0000 0.0000 0.0000 32.3221 0.0000 0.0000
# 5 0.0000 0.0000 0.0000 0.0000 26.4496 0.0000
# 6 0.0000 0.0000 0.0000 0.0000 0.0000 29.3061
#
#
#
# Elastic Compliance Matrix: (Units=1/GPa)
#
#
# Indices 1 2 3 4 5 6 
#
# 1 0.013759 -0.000433 -0.006704 0.000000 0.000000 0.000000
# 2 -0.000433 0.026602 -0.008047 0.000000 0.000000 0.000000
# 3 -0.006704 -0.008047 0.023048 0.000000 0.000000 0.000000
# 4 0.000000 0.000000 0.000000 0.030939 0.000000 0.000000
# 5 0.000000 0.000000 0.000000 0.000000 0.037808 0.000000
# 6 0.000000 0.000000 0.000000 0.000000 0.000000 0.034123
#
#
# Mechanical properties :
#
#
# Convention : Reuss Voigt Hill
#
# Bulk Modulus (GPa) = 30.26480 33.60775 31.93628
# Shear Modulus (GPa) = 24.07789 26.36917 25.22353
#
# Velocity S-wave (km/s) = 3.51143 3.67471 3.59400
# Velocity P-wave (km/s) = 5.65143 5.93422 5.79455
#
# Compressibility (1/GPa) = 0.03304168
#
# Stress axis : x y z
#
# Youngs Moduli (GPa) = 72.68101 37.59133 43.38686
#
# Poissons Ratio (x) = 0.01628 0.29085
# Poissons Ratio (y) = 0.03148 0.34913
# Poissons Ratio (z) = 0.48723 0.30249
#
# Static dielectric constant tensor:
#      x y z
#    x 3.723630 0.000000 0.000000 
#    y 0.000000 3.504980 0.000000 
#    z 0.000000 0.000000 3.535390 
# 
# 
# High freq. dielectric constant tensor:
#      x y z
#    x 1.757960 0.000000 0.000000 
#    y 0.000000 1.764740 0.000000 
#    z 0.000000 0.000000 1.761380 
# 
# From -- ./inp_files/20872.got.cif
#   From: 2010.03.12/outbox.cif.g09.slc.cpg/sg62_11_cif.got.tgz:20872.got - 2010.04.10 19:12:36.
