data_PCOD8254489
_publ_section_title
;
Structure prediction by ZEFSAII (Michael W. Deem and Ramdas Pophale) SiO2 
 PCOD8254489
Probable space group: P N M A
;
_chemical_formula_sum "Si O2"
_cell_formula_units_Z 48
_cell_length_a 8.869407
_cell_length_b 8.659597
_cell_length_c 30.793353
_cell_angle_alpha 90.000000
_cell_angle_beta 90.000000
_cell_angle_gamma 90.000000
_cell_volume 2365.098574
_symmetry_space_group_name_H-M "P N M A"
_symmetry_group_IT_number 62
_symmetry_cell_setting 'orthorhombic'
loop_
_space_group_symop_operation_xyz
x,y,z
1/2-x,-y,1/2+z
1/2+x,1/2-y,1/2-z
-x,1/2+y,-z
-x,-y,-z
1/2+x,y,1/2-z
1/2-x,1/2+y,1/2+z
x,1/2-y,z
loop_
_atom_site_type_symbol
_atom_site_label
_atom_site_fract_x
_atom_site_fract_y
_atom_site_fract_z
Si Si1 0.925170 0.927756 0.286029
Si Si2 0.920529 0.567248 0.458125
Si Si3 0.076966 0.570892 0.876462
Si Si4 0.580279 0.568583 0.458445
Si Si5 0.895481 0.571170 0.790353
Si Si6 0.600977 0.929624 0.126372
O O1 0.947756 0.750000 0.272325
O O2 0.996311 0.962612 0.332585
O O3 0.749087 0.962848 0.288532
O O4 0.000154 0.038463 0.250856
O O5 0.920032 0.750000 0.461381
O O6 0.750189 0.502789 0.455078
O O7 0.000000 0.500000 0.500000
O O8 0.010517 0.511973 0.415722
O O9 0.061861 0.750000 0.888122
O O10 0.250211 0.530350 0.868621
O O11 0.012044 0.472274 0.915716
O O12 0.987026 0.527075 0.833291
O O13 0.500000 0.500000 0.500000
O O14 0.583471 0.750000 0.463972
O O15 0.847558 0.750000 0.790094
O O16 0.644651 0.750000 0.122612
#
# Coordination Sequence:
#
# PCOD8254489 Si02
#       6
#     8   8   8   8   8   8
#     4  11  23  40  64  91 119 157 206 252 299 361
#     4  10  22  39  59  85 116 151 191 237 290 346
#     4  11  24  40  60  88 120 157 199 242 295 357
#     4  11  23  40  62  88 120 156 197 245 296 353
#     4  11  24  41  61  88 124 161 198 247 306 362
#     4  10  22  40  61  86 117 154 196 245 298 351
#
# _framework density 20.295138000000001
#
# number of rings (size 3 to 8) (size 9 to 14) (size 15 to 20)
#    0.000    1.333    0.000    5.000    0.000   12.667 
#    0.000    0.000    0.000    0.000    0.000    0.000 
#    0.000    0.000    0.000    0.000    0.000    0.000 
#
# Total GULP energy -595547.685124 kJ/mol
# GULP energy per Si atom -12407.243440 kJ/mol
# Density = 2.024895 g / cm^3
# Si number density = 20.295138 Si / 1000 Ang^3
#
#
#
# Elastic Constant Matrix: (Units=GPa)
#
#
# Indices 1 2 3 4 5 6 
#
# 1 137.2110 23.1129 46.1365 0.0000 0.0000 0.0000
# 2 23.1129 40.1904 29.2073 0.0000 0.0000 0.0000
# 3 46.1365 29.2073 143.5848 0.0000 0.0000 0.0000
# 4 0.0000 0.0000 0.0000 35.6939 0.0000 0.0000
# 5 0.0000 0.0000 0.0000 0.0000 44.1635 0.0000
# 6 0.0000 0.0000 0.0000 0.0000 0.0000 36.0779
#
#
#
# Elastic Compliance Matrix: (Units=1/GPa)
#
#
# Indices 1 2 3 4 5 6 
#
# 1 0.008556 -0.003429 -0.002051 0.000000 0.000000 0.000000
# 2 -0.003429 0.030572 -0.005117 0.000000 0.000000 0.000000
# 3 -0.002051 -0.005117 0.008665 0.000000 0.000000 0.000000
# 4 0.000000 0.000000 0.000000 0.028016 0.000000 0.000000
# 5 0.000000 0.000000 0.000000 0.000000 0.022643 0.000000
# 6 0.000000 0.000000 0.000000 0.000000 0.000000 0.027718
#
#
# Mechanical properties :
#
#
# Convention : Reuss Voigt Hill
#
# Bulk Modulus (GPa) = 37.59834 57.54440 47.57137
# Shear Modulus (GPa) = 32.00399 38.02233 35.01316
#
# Velocity S-wave (km/s) = 3.97536 4.33306 4.15806
# Velocity P-wave (km/s) = 6.29582 7.31089 6.82226
#
# Compressibility (1/GPa) = 0.02659692
#
# Stress axis : x y z
#
# Youngs Moduli (GPa) = 116.88382 32.70933 115.41254
#
# Poissons Ratio (x) = 0.11217 0.23677
# Poissons Ratio (y) = 0.40083 0.59056
# Poissons Ratio (z) = 0.23978 0.16737
#
# Static dielectric constant tensor:
#      x y z
#    x 4.198790 0.000000 0.000000 
#    y 0.000000 3.624390 0.000000 
#    z 0.000000 0.000000 3.815640 
# 
# 
# High freq. dielectric constant tensor:
#      x y z
#    x 1.810920 0.000000 0.000000 
#    y 0.000000 1.792970 0.000000 
#    z 0.000000 0.000000 1.811270 
# 
# From -- ./inp_files/31996.got.cif
#   From: 2010.03.12/outbox.cif.g09.slc.cpg/sg62_16_cif.got.tgz:31996.got - 2010.04.10 19:12:36.
