data_PCOD8254030
_publ_section_title
;
Structure prediction by ZEFSAII (Michael W. Deem and Ramdas Pophale) SiO2 
 PCOD8254030
Probable space group: P N M A
;
_chemical_formula_sum "Si O2"
_cell_formula_units_Z 48
_cell_length_a 9.266868
_cell_length_b 8.957630
_cell_length_c 28.630269
_cell_angle_alpha 90.000000
_cell_angle_beta 90.000000
_cell_angle_gamma 90.000000
_cell_volume 2376.575004
_symmetry_space_group_name_H-M "P N M A"
_symmetry_group_IT_number 62
_symmetry_cell_setting 'orthorhombic'
loop_
_space_group_symop_operation_xyz
x,y,z
1/2-x,-y,1/2+z
1/2+x,1/2-y,1/2-z
-x,1/2+y,-z
-x,-y,-z
1/2+x,y,1/2-z
1/2-x,1/2+y,1/2+z
x,1/2-y,z
loop_
_atom_site_type_symbol
_atom_site_label
_atom_site_fract_x
_atom_site_fract_y
_atom_site_fract_z
Si Si1 0.294193 0.571722 0.718107
Si Si2 0.298172 0.080317 0.884483
Si Si3 0.476364 0.075821 0.638695
Si Si4 0.131316 0.415949 0.478272
Si Si5 0.017582 0.573748 0.296535
Si Si6 0.406818 0.415739 0.537101
O O1 0.281490 0.750000 0.722003
O O2 0.399700 0.528083 0.676160
O O3 0.362031 0.504071 0.764805
O O4 0.136735 0.502052 0.710403
O O5 0.303211 0.250000 0.901584
O O6 0.147929 0.048851 0.857752
O O7 0.431190 0.047177 0.849810
O O8 0.306203 0.983684 0.930965
O O9 0.436694 0.250000 0.647445
O O10 0.418685 0.015907 0.588786
O O11 0.082630 0.250000 0.465513
O O12 0.243785 0.417036 0.520440
O O13 0.000000 0.500000 0.500000
O O14 0.008258 0.750000 0.284697
O O15 0.500000 0.500000 0.500000
O O16 0.471912 0.250000 0.540159
#
# Coordination Sequence:
#
# PCOD8254030 Si02
#       6
#     8   8   8   8   8   8
#     4  12  26  43  66  99 131 162 206 264 319 370
#     4  10  22  41  66  92 120 162 212 259 310 372
#     4  10  21  40  65  92 125 167 212 257 312 383
#     4  11  24  39  59  90 127 167 210 259 315 371
#     4  11  24  44  69  94 125 167 212 255 312 386
#     4  10  21  38  62  90 122 164 212 259 309 370
#
# _framework density 20.197132
#
# number of rings (size 3 to 8) (size 9 to 14) (size 15 to 20)
#    0.000    1.333    1.667    3.500    2.333    4.667 
#    0.000    0.000    0.000    0.000    0.000    0.000 
#    0.000    0.000    0.000    0.000    0.000    0.000 
#
# Total GULP energy -595259.416253 kJ/mol
# GULP energy per Si atom -12401.237839 kJ/mol
# Density = 2.015116 g / cm^3
# Si number density = 20.197132 Si / 1000 Ang^3
#
#
#
# Elastic Constant Matrix: (Units=GPa)
#
#
# Indices 1 2 3 4 5 6 
#
# 1 105.7245 49.5951 23.8010 0.0000 0.0000 0.0000
# 2 49.5951 123.0521 39.9810 0.0000 0.0000 0.0000
# 3 23.8010 39.9810 82.8167 0.0000 0.0000 0.0000
# 4 0.0000 0.0000 0.0000 34.5646 0.0000 0.0000
# 5 0.0000 0.0000 0.0000 0.0000 36.9943 0.0000
# 6 0.0000 0.0000 0.0000 0.0000 0.0000 32.6471
#
#
#
# Elastic Compliance Matrix: (Units=1/GPa)
#
#
# Indices 1 2 3 4 5 6 
#
# 1 0.011780 -0.004326 -0.001297 0.000000 0.000000 0.000000
# 2 -0.004326 0.011227 -0.004177 0.000000 0.000000 0.000000
# 3 -0.001297 -0.004177 0.014464 0.000000 0.000000 0.000000
# 4 0.000000 0.000000 0.000000 0.028931 0.000000 0.000000
# 5 0.000000 0.000000 0.000000 0.000000 0.027031 0.000000
# 6 0.000000 0.000000 0.000000 0.000000 0.000000 0.030631
#
#
# Mechanical properties :
#
#
# Convention : Reuss Voigt Hill
#
# Bulk Modulus (GPa) = 55.95592 59.81638 57.88615
# Shear Modulus (GPa) = 33.41754 34.05561 33.73658
#
# Velocity S-wave (km/s) = 4.07205 4.11074 4.09144
# Velocity P-wave (km/s) = 7.06214 7.22575 7.14442
#
# Compressibility (1/GPa) = 0.01787121
#
# Stress axis : x y z
#
# Youngs Moduli (GPa) = 84.88942 89.06717 69.13720
#
# Poissons Ratio (x) = 0.38535 0.08966
# Poissons Ratio (y) = 0.36727 0.28877
# Poissons Ratio (z) = 0.11009 0.37202
#
# Static dielectric constant tensor:
#      x y z
#    x 3.899190 0.000000 0.000000 
#    y 0.000000 -5.627830 0.000000 
#    z 0.000000 0.000000 2.871930 
# 
# 
# High freq. dielectric constant tensor:
#      x y z
#    x 1.800640 0.000000 0.000000 
#    y 0.000000 1.788480 0.000000 
#    z 0.000000 0.000000 1.801520 
# 
# From -- ./inp_files/31905.got.cif
#   From: 2010.03.12/outbox.cif.g09.slc.cpg/sg62_16_cif.got.tgz:31905.got - 2010.04.10 19:12:36.
