data_PCOD8254701
_publ_section_title
;
Structure prediction by ZEFSAII (Michael W. Deem and Ramdas Pophale) SiO2 
 PCOD8254701
Probable space group: P N M A
;
_chemical_formula_sum "Si O2"
_cell_formula_units_Z 48
_cell_length_a 13.955277
_cell_length_b 13.402314
_cell_length_c 11.557333
_cell_angle_alpha 90.000000
_cell_angle_beta 90.000000
_cell_angle_gamma 90.000000
_cell_volume 2161.602713
_symmetry_space_group_name_H-M "P N M A"
_symmetry_group_IT_number 62
_symmetry_cell_setting 'orthorhombic'
loop_
_space_group_symop_operation_xyz
x,y,z
1/2-x,-y,1/2+z
1/2+x,1/2-y,1/2-z
-x,1/2+y,-z
-x,-y,-z
1/2+x,y,1/2-z
1/2-x,1/2+y,1/2+z
x,1/2-y,z
loop_
_atom_site_type_symbol
_atom_site_label
_atom_site_fract_x
_atom_site_fract_y
_atom_site_fract_z
Si Si1 0.918553 0.469530 0.910401
Si Si2 0.097217 0.559052 0.672620
Si Si3 0.282834 0.052866 0.393230
Si Si4 0.997457 0.860644 0.299772
Si Si5 0.185582 0.861812 0.449277
Si Si6 0.104541 0.363937 0.275363
O O1 0.961067 0.385389 0.826977
O O2 0.883254 0.565073 0.836145
O O3 0.827754 0.424407 0.980303
O O4 0.000000 0.500000 0.000000
O O5 0.138864 0.582815 0.798604
O O6 0.172408 0.598773 0.579792
O O7 0.082429 0.439805 0.659595
O O8 0.996251 0.616016 0.661235
O O9 0.185829 0.114817 0.371939
O O10 0.260344 0.933956 0.384280
O O11 0.952083 0.750000 0.297646
O O12 0.083296 0.866468 0.389819
O O13 0.227968 0.750000 0.449428
O O14 0.111275 0.250000 0.233661
#
# Coordination Sequence:
#
# PCOD8254701 Si02
#       6
#     8   8   8   8   8   8
#     4  11  22  45  66  95 141 182 217 286 340 401
#     4  11  23  46  69  96 141 180 226 291 340 402
#     4  12  24  42  70 100 136 177 228 285 343 405
#     4  10  22  42  68  98 132 177 223 274 345 409
#     4  11  24  43  70 100 133 176 228 282 343 409
#     4  11  25  45  70 103 135 182 237 277 342 414
#
# _framework density 22.205745
#
# number of rings (size 3 to 8) (size 9 to 14) (size 15 to 20)
#    0.000    1.000    6.667    2.000    0.000    5.333 
#    0.000    0.000    0.000    0.000    0.000    0.000 
#    0.000    0.000    0.000    0.000    0.000    0.000 
#
# Total GULP energy -595262.505261 kJ/mol
# GULP energy per Si atom -12401.302193 kJ/mol
# Density = 2.215520 g / cm^3
# Si number density = 22.205745 Si / 1000 Ang^3
#
#
#
# Elastic Constant Matrix: (Units=GPa)
#
#
# Indices 1 2 3 4 5 6 
#
# 1 71.8849 7.5232 6.9804 0.0000 0.0000 0.0000
# 2 7.5232 94.4112 12.5370 0.0000 0.0000 0.0000
# 3 6.9804 12.5370 84.5719 0.0000 0.0000 0.0000
# 4 0.0000 0.0000 0.0000 16.1100 0.0000 0.0000
# 5 0.0000 0.0000 0.0000 0.0000 34.6231 0.0000
# 6 0.0000 0.0000 0.0000 0.0000 0.0000 14.2738
#
#
#
# Elastic Compliance Matrix: (Units=1/GPa)
#
#
# Indices 1 2 3 4 5 6 
#
# 1 0.014114 -0.000989 -0.001018 0.000000 0.000000 0.000000
# 2 -0.000989 0.010874 -0.001530 0.000000 0.000000 0.000000
# 3 -0.001018 -0.001530 0.012135 0.000000 0.000000 0.000000
# 4 0.000000 0.000000 0.000000 0.062073 0.000000 0.000000
# 5 0.000000 0.000000 0.000000 0.000000 0.028882 0.000000
# 6 0.000000 0.000000 0.000000 0.000000 0.000000 0.070058
#
#
# Mechanical properties :
#
#
# Convention : Reuss Voigt Hill
#
# Bulk Modulus (GPa) = 33.28143 33.88324 33.58234
# Shear Modulus (GPa) = 23.23113 27.92320 25.57717
#
# Velocity S-wave (km/s) = 3.23797 3.54994 3.39754
# Velocity P-wave (km/s) = 5.38513 5.66521 5.52695
#
# Compressibility (1/GPa) = 0.03004679
#
# Stress axis : x y z
#
# Youngs Moduli (GPa) = 70.85392 91.96235 82.40521
#
# Poissons Ratio (x) = 0.09099 0.08391
# Poissons Ratio (y) = 0.07011 0.12610
# Poissons Ratio (z) = 0.07215 0.14073
#
# Static dielectric constant tensor:
#      x y z
#    x 4.083440 0.000000 0.000000 
#    y 0.000000 4.266520 0.000000 
#    z 0.000000 0.000000 4.403690 
# 
# 
# High freq. dielectric constant tensor:
#      x y z
#    x 1.873100 0.000000 0.000000 
#    y 0.000000 1.862870 0.000000 
#    z 0.000000 0.000000 1.879850 
# 
# From -- ./inp_files/13291.got.cif
#   From: 2010.03.12/outbox.cif.g09.slc.cpg/sg62_7_cif.got.tgz:13291.got - 2010.04.10 19:12:36.
