data_PCOD8254647
_publ_section_title
;
Structure prediction by ZEFSAII (Michael W. Deem and Ramdas Pophale) SiO2 
 PCOD8254647
Probable space group: P N M A
;
_chemical_formula_sum "Si O2"
_cell_formula_units_Z 48
_cell_length_a 9.396985
_cell_length_b 8.758391
_cell_length_c 28.113110
_cell_angle_alpha 90.000000
_cell_angle_beta 90.000000
_cell_angle_gamma 90.000000
_cell_volume 2313.778360
_symmetry_space_group_name_H-M "P N M A"
_symmetry_group_IT_number 62
_symmetry_cell_setting 'orthorhombic'
loop_
_space_group_symop_operation_xyz
x,y,z
1/2-x,-y,1/2+z
1/2+x,1/2-y,1/2-z
-x,1/2+y,-z
-x,-y,-z
1/2+x,y,1/2-z
1/2-x,1/2+y,1/2+z
x,1/2-y,z
loop_
_atom_site_type_symbol
_atom_site_label
_atom_site_fract_x
_atom_site_fract_y
_atom_site_fract_z
Si Si1 0.605103 0.070711 0.037697
Si Si2 0.690414 0.574533 0.385721
Si Si3 0.852581 0.930269 0.986365
Si Si4 0.014390 0.073260 0.193904
Si Si5 0.810217 0.572344 0.713163
Si Si6 0.491677 0.425232 0.867602
O O1 0.614997 0.250000 0.029438
O O2 0.557121 0.037071 0.090850
O O3 0.500000 0.000000 0.000000
O O4 0.755224 0.992381 0.028696
O O5 0.662867 0.750000 0.398632
O O6 0.699679 0.481796 0.434579
O O7 0.560437 0.518423 0.352975
O O8 0.840032 0.551184 0.358262
O O9 0.856730 0.750000 0.987490
O O10 0.000000 0.000000 0.000000
O O11 0.014484 0.250000 0.180152
O O12 0.130400 0.038466 0.234408
O O13 0.855705 0.023742 0.210293
O O14 0.830576 0.750000 0.699953
O O15 0.904185 0.468695 0.678875
O O16 0.460203 0.250000 0.881495
#
# Coordination Sequence:
#
# PCOD8254647 Si02
#       6
#     8   8   8   8   8   8
#     4  12  24  42  67  96 130 171 219 267 319 381
#     4  11  24  42  64  92 128 169 215 265 320 383
#     4  12  26  44  67  94 130 173 217 269 324 382
#     4  10  22  41  66  94 126 164 211 264 323 386
#     4  10  22  41  66  95 126 164 211 264 322 386
#     4  11  24  41  64  93 128 169 215 264 320 382
#
# _framework density 20.745287999999999
#
# number of rings (size 3 to 8) (size 9 to 14) (size 15 to 20)
#    0.000    1.000    1.667    5.000    2.333    4.667 
#    0.000    0.000    0.000    0.000    0.000    0.000 
#    0.000    0.000    0.000    0.000    0.000    0.000 
#
# Total GULP energy -595407.246539 kJ/mol
# GULP energy per Si atom -12404.317636 kJ/mol
# Density = 2.069807 g / cm^3
# Si number density = 20.745288 Si / 1000 Ang^3
#
#
#
# Elastic Constant Matrix: (Units=GPa)
#
#
# Indices 1 2 3 4 5 6 
#
# 1 121.1955 45.7769 15.5692 0.0000 0.0000 0.0000
# 2 45.7769 140.2888 33.3239 0.0000 0.0000 0.0000
# 3 15.5692 33.3239 62.1483 0.0000 0.0000 0.0000
# 4 0.0000 0.0000 0.0000 39.0601 0.0000 0.0000
# 5 0.0000 0.0000 0.0000 0.0000 44.2053 0.0000
# 6 0.0000 0.0000 0.0000 0.0000 0.0000 36.0014
#
#
#
# Elastic Compliance Matrix: (Units=1/GPa)
#
#
# Indices 1 2 3 4 5 6 
#
# 1 0.009447 -0.002888 -0.000818 0.000000 0.000000 0.000000
# 2 -0.002888 0.009052 -0.004130 0.000000 0.000000 0.000000
# 3 -0.000818 -0.004130 0.018510 0.000000 0.000000 0.000000
# 4 0.000000 0.000000 0.000000 0.025602 0.000000 0.000000
# 5 0.000000 0.000000 0.000000 0.000000 0.022622 0.000000
# 6 0.000000 0.000000 0.000000 0.000000 0.000000 0.027777
#
#
# Mechanical properties :
#
#
# Convention : Reuss Voigt Hill
#
# Bulk Modulus (GPa) = 46.86845 56.99694 51.93270
# Shear Modulus (GPa) = 36.82068 39.11753 37.96910
#
# Velocity S-wave (km/s) = 4.21752 4.34707 4.28279
# Velocity P-wave (km/s) = 6.80867 7.26157 7.03876
#
# Compressibility (1/GPa) = 0.02133631
#
# Stress axis : x y z
#
# Youngs Moduli (GPa) = 105.85174 110.47721 54.02516
#
# Poissons Ratio (x) = 0.31910 0.04419
# Poissons Ratio (y) = 0.30574 0.22312
# Poissons Ratio (z) = 0.08658 0.45626
#
# Static dielectric constant tensor:
#      x y z
#    x 3.922130 0.000000 0.000000 
#    y 0.000000 3.989520 0.000000 
#    z 0.000000 0.000000 3.155140 
# 
# 
# High freq. dielectric constant tensor:
#      x y z
#    x 1.828990 0.000000 0.000000 
#    y 0.000000 1.818150 0.000000 
#    z 0.000000 0.000000 1.812980 
# 
# From -- ./inp_files/31934.got.cif
#   From: 2010.03.12/outbox.cif.g09.slc.cpg/sg62_16_cif.got.tgz:31934.got - 2010.04.10 19:12:36.
