data_PCOD8254220
_publ_section_title
;
Structure prediction by ZEFSAII (Michael W. Deem and Ramdas Pophale) SiO2 
 PCOD8254220
Probable space group: P N M A
;
_chemical_formula_sum "Si O2"
_cell_formula_units_Z 48
_cell_length_a 17.818907
_cell_length_b 8.537036
_cell_length_c 15.373779
_cell_angle_alpha 90.000000
_cell_angle_beta 90.000000
_cell_angle_gamma 90.000000
_cell_volume 2338.669263
_symmetry_space_group_name_H-M "P N M A"
_symmetry_group_IT_number 62
_symmetry_cell_setting 'orthorhombic'
loop_
_space_group_symop_operation_xyz
x,y,z
1/2-x,-y,1/2+z
1/2+x,1/2-y,1/2-z
-x,1/2+y,-z
-x,-y,-z
1/2+x,y,1/2-z
1/2-x,1/2+y,1/2+z
x,1/2-y,z
loop_
_atom_site_type_symbol
_atom_site_label
_atom_site_fract_x
_atom_site_fract_y
_atom_site_fract_z
Si Si1 0.037518 0.066168 0.585891
Si Si2 0.037617 0.065560 0.245009
Si Si3 0.301263 0.432539 0.098323
Si Si4 0.713258 0.068582 0.576346
Si Si5 0.044840 0.066398 0.919555
Si Si6 0.706140 0.434209 0.239059
O O1 0.020929 0.250000 0.595362
O O2 0.126118 0.037296 0.581998
O O3 0.000000 0.000000 0.500000
O O4 0.002693 0.971166 0.665126
O O5 0.034815 0.250000 0.226585
O O6 0.122376 0.999191 0.247503
O O7 0.994324 0.976239 0.169839
O O8 0.323985 0.250000 0.106238
O O9 0.261438 0.496795 0.185716
O O10 0.243787 0.459916 0.019993
O O11 0.714432 0.250000 0.602101
O O12 0.629379 0.998488 0.580588
O O13 0.765335 0.979566 0.644342
O O14 0.048905 0.250000 0.931620
O O15 0.000000 0.000000 0.000000
O O16 0.701527 0.250000 0.246551
#
# Coordination Sequence:
#
# PCOD8254220 Si02
#       6
#     8   8   8   8   8   8
#     4  12  25  41  61  89 121 157 200 247 297 355
#     4  11  23  41  63  90 122 158 199 246 296 354
#     4  10  21  40  62  85 116 156 195 241 297 351
#     4  10  22  39  60  86 118 153 196 245 294 348
#     4  11  23  40  62  91 123 159 200 245 295 353
#     4  10  22  39  61  87 117 153 196 242 294 351
#
# _framework density 20.524491999999999
#
# number of rings (size 3 to 8) (size 9 to 14) (size 15 to 20)
#    0.000    1.333    0.000    5.500    0.000   12.000 
#    0.000    1.667    0.000    0.000    0.000    0.000 
#    0.000    0.000    0.000    0.000    0.000    0.000 
#
# Total GULP energy -595479.479844 kJ/mol
# GULP energy per Si atom -12405.822497 kJ/mol
# Density = 2.047778 g / cm^3
# Si number density = 20.524492 Si / 1000 Ang^3
#
#
#
# Elastic Constant Matrix: (Units=GPa)
#
#
# Indices 1 2 3 4 5 6 
#
# 1 131.8040 16.9949 22.5268 0.0000 0.0000 0.0000
# 2 16.9949 35.1126 0.7368 0.0000 0.0000 0.0000
# 3 22.5268 0.7368 104.3990 0.0000 0.0000 0.0000
# 4 0.0000 0.0000 0.0000 33.6434 0.0000 0.0000
# 5 0.0000 0.0000 0.0000 0.0000 43.8425 0.0000
# 6 0.0000 0.0000 0.0000 0.0000 0.0000 31.2440
#
#
#
# Elastic Compliance Matrix: (Units=1/GPa)
#
#
# Indices 1 2 3 4 5 6 
#
# 1 0.008413 -0.004034 -0.001787 0.000000 0.000000 0.000000
# 2 -0.004034 0.030419 0.000656 0.000000 0.000000 0.000000
# 3 -0.001787 0.000656 0.009960 0.000000 0.000000 0.000000
# 4 0.000000 0.000000 0.000000 0.029724 0.000000 0.000000
# 5 0.000000 0.000000 0.000000 0.000000 0.022809 0.000000
# 6 0.000000 0.000000 0.000000 0.000000 0.000000 0.032006
#
#
# Mechanical properties :
#
#
# Convention : Reuss Voigt Hill
#
# Bulk Modulus (GPa) = 26.00082 39.09252 32.54667
# Shear Modulus (GPa) = 31.95298 37.14980 34.55139
#
# Velocity S-wave (km/s) = 3.94994 4.25905 4.10740
# Velocity P-wave (km/s) = 5.78778 6.57831 6.19567
#
# Compressibility (1/GPa) = 0.03846033
#
# Stress axis : x y z
#
# Youngs Moduli (GPa) = 118.86954 32.87455 100.40616
#
# Poissons Ratio (x) = 0.13263 0.17940
# Poissons Ratio (y) = 0.47955 -0.06585
# Poissons Ratio (z) = 0.21239 -0.02156
#
# Static dielectric constant tensor:
#      x y z
#    x 4.067330 0.000000 0.000000 
#    y 0.000000 3.643330 0.000000 
#    z 0.000000 0.000000 3.707680 
# 
# 
# High freq. dielectric constant tensor:
#      x y z
#    x 1.823500 0.000000 0.000000 
#    y 0.000000 1.794100 0.000000 
#    z 0.000000 0.000000 1.820080 
# 
# From -- ./inp_files/19604.got.cif
#   From: 2010.03.12/outbox.cif.g09.slc.cpg/sg62_10_cif.got.tgz:19604.got - 2010.04.10 19:12:36.
