data_PCOD8254557
_publ_section_title
;
Structure prediction by ZEFSAII (Michael W. Deem and Ramdas Pophale) SiO2 
 PCOD8254557
Probable space group: P N M A
;
_chemical_formula_sum "Si O2"
_cell_formula_units_Z 48
_cell_length_a 16.798059
_cell_length_b 8.906330
_cell_length_c 16.716586
_cell_angle_alpha 90.000000
_cell_angle_beta 90.000000
_cell_angle_gamma 90.000000
_cell_volume 2500.952665
_symmetry_space_group_name_H-M "P N M A"
_symmetry_group_IT_number 62
_symmetry_cell_setting 'orthorhombic'
loop_
_space_group_symop_operation_xyz
x,y,z
1/2-x,-y,1/2+z
1/2+x,1/2-y,1/2-z
-x,1/2+y,-z
-x,-y,-z
1/2+x,y,1/2-z
1/2-x,1/2+y,1/2+z
x,1/2-y,z
loop_
_atom_site_type_symbol
_atom_site_label
_atom_site_fract_x
_atom_site_fract_y
_atom_site_fract_z
Si Si1 0.845581 0.572799 0.683884
Si Si2 0.320898 0.075277 0.652848
Si Si3 0.500504 0.925770 0.914031
Si Si4 0.858920 0.920517 0.324976
Si Si5 0.414696 0.073207 0.494594
Si Si6 0.817197 0.576094 0.144337
O O1 0.831177 0.750000 0.680529
O O2 0.857352 0.521967 0.775335
O O3 0.923186 0.522424 0.635105
O O4 0.771286 0.490037 0.643544
O O5 0.332709 0.250000 0.674753
O O6 0.227859 0.040354 0.639962
O O7 0.365400 0.027182 0.572782
O O8 0.500293 0.750000 0.927085
O O9 0.578641 0.968800 0.864706
O O10 0.500000 0.000000 0.000000
O O11 0.882453 0.750000 0.346428
O O12 0.858571 0.945140 0.230006
O O13 0.424261 0.250000 0.487501
O O14 0.500000 0.000000 0.500000
O O15 0.370303 0.013602 0.417326
O O16 0.812586 0.750000 0.120214
#
# Coordination Sequence:
#
# PCOD8254557 Si02
#       6
#     8   8   8   8   8   8
#     4  10  22  40  62  89 120 156 199 249 301 356
#     4   9  21  41  63  87 118 159 200 244 300 356
#     4  11  25  40  59  90 122 156 199 246 298 353
#     4   9  20  40  63  86 117 155 197 245 299 354
#     4  11  24  40  61  91 126 161 202 251 300 355
#     4  10  22  41  64  91 120 159 202 245 303 361
#
# _framework density 19.192686999999999
#
# number of rings (size 3 to 8) (size 9 to 14) (size 15 to 20)
#    0.000    2.000    0.000    3.000    4.667    7.333 
#    0.000    0.000    0.000    0.000    0.000    0.000 
#    0.000    0.000    0.000    0.000    0.000    0.000 
#
# Total GULP energy -595424.210257 kJ/mol
# GULP energy per Si atom -12404.671047 kJ/mol
# Density = 1.914900 g / cm^3
# Si number density = 19.192687 Si / 1000 Ang^3
#
#
#
# Elastic Constant Matrix: (Units=GPa)
#
#
# Indices 1 2 3 4 5 6 
#
# 1 137.4870 55.9152 90.3493 0.0000 0.0000 0.0000
# 2 55.9152 76.9160 53.8771 0.0000 0.0000 0.0000
# 3 90.3493 53.8771 119.2304 0.0000 0.0000 0.0000
# 4 0.0000 0.0000 0.0000 39.0455 0.0000 0.0000
# 5 0.0000 0.0000 0.0000 0.0000 30.3964 0.0000
# 6 0.0000 0.0000 0.0000 0.0000 0.0000 37.0563
#
#
#
# Elastic Compliance Matrix: (Units=1/GPa)
#
#
# Indices 1 2 3 4 5 6 
#
# 1 0.015458 -0.004437 -0.009709 0.000000 0.000000 0.000000
# 2 -0.004437 0.020296 -0.005809 0.000000 0.000000 0.000000
# 3 -0.009709 -0.005809 0.018369 0.000000 0.000000 0.000000
# 4 0.000000 0.000000 0.000000 0.025611 0.000000 0.000000
# 5 0.000000 0.000000 0.000000 0.000000 0.032899 0.000000
# 6 0.000000 0.000000 0.000000 0.000000 0.000000 0.026986
#
#
# Mechanical properties :
#
#
# Convention : Reuss Voigt Hill
#
# Bulk Modulus (GPa) = 70.35510 81.54629 75.95070
# Shear Modulus (GPa) = 27.13487 30.19910 28.66699
#
# Velocity S-wave (km/s) = 3.76415 3.97100 3.86896
# Velocity P-wave (km/s) = 7.45846 7.97531 7.72121
#
# Compressibility (1/GPa) = 0.01421361
#
# Stress axis : x y z
#
# Youngs Moduli (GPa) = 64.69215 49.27191 54.43950
#
# Poissons Ratio (x) = 0.21860 0.52853
# Poissons Ratio (y) = 0.28702 0.31624
# Poissons Ratio (z) = 0.62807 0.28622
#
# Static dielectric constant tensor:
#      x y z
#    x 3.594040 0.000000 0.000000 
#    y 0.000000 3.560180 0.000000 
#    z 0.000000 0.000000 3.647690 
# 
# 
# High freq. dielectric constant tensor:
#      x y z
#    x 1.756530 0.000000 0.000000 
#    y 0.000000 1.754640 0.000000 
#    z 0.000000 0.000000 1.755370 
# 
# From -- ./inp_files/19609.got.cif
#   From: 2010.03.12/outbox.cif.g09.slc.cpg/sg62_10_cif.got.tgz:19609.got - 2010.04.10 19:12:36.
