data_PCOD8254784
_publ_section_title
;
Structure prediction by ZEFSAII (Michael W. Deem and Ramdas Pophale) SiO2 
 PCOD8254784
Probable space group: P N M A
;
_chemical_formula_sum "Si O2"
_cell_formula_units_Z 64
_cell_length_a 14.098456
_cell_length_b 8.914738
_cell_length_c 24.557319
_cell_angle_alpha 90.000000
_cell_angle_beta 90.000000
_cell_angle_gamma 90.000000
_cell_volume 3086.463099
_symmetry_space_group_name_H-M "P N M A"
_symmetry_group_IT_number 62
_symmetry_cell_setting 'orthorhombic'
loop_
_space_group_symop_operation_xyz
x,y,z
1/2-x,-y,1/2+z
1/2+x,1/2-y,1/2-z
-x,1/2+y,-z
-x,-y,-z
1/2+x,y,1/2-z
1/2-x,1/2+y,1/2+z
x,1/2-y,z
loop_
_atom_site_type_symbol
_atom_site_label
_atom_site_fract_x
_atom_site_fract_y
_atom_site_fract_z
Si Si1 0.322205 0.073195 0.701037
Si Si2 0.025845 0.418685 0.944880
Si Si3 0.853173 0.925640 0.601632
Si Si4 0.476013 0.573682 0.057599
Si Si5 0.229326 0.418091 0.981528
Si Si6 0.494107 0.072694 0.333347
Si Si7 0.737248 0.075258 0.914346
Si Si8 0.282303 0.073292 0.299618
O O1 0.336706 0.250000 0.706339
O O2 0.272707 0.025954 0.644749
O O3 0.425165 0.993950 0.706450
O O4 0.251859 0.016635 0.747404
O O5 0.983661 0.250000 0.944231
O O6 0.985898 0.506146 0.893055
O O7 0.139396 0.415174 0.941790
O O8 0.000000 0.500000 0.000000
O O9 0.871838 0.750000 0.601503
O O10 0.785175 0.975408 0.650641
O O11 0.806964 0.971832 0.544122
O O12 0.953488 0.011250 0.604642
O O13 0.488667 0.750000 0.051894
O O14 0.372087 0.529228 0.078366
O O15 0.500000 0.500000 0.000000
O O16 0.270829 0.250000 0.987564
O O17 0.201646 0.484141 0.040828
O O18 0.503674 0.250000 0.336481
O O19 0.390525 0.025295 0.311766
O O20 0.754019 0.250000 0.924187
O O21 0.275054 0.250000 0.288833
#
# Coordination Sequence:
#
# PCOD8254784 Si02
#       8
#     8   8   8   8   8   8   8   8
#     4  11  25  44  67  96 128 167 213 265 320 377
#     4  11  23  37  58  92 129 167 212 261 320 383
#     4  11  22  39  62  89 122 162 208 259 316 373
#     4  11  22  37  59  90 126 167 213 258 316 379
#     4  11  22  35  58  90 122 159 206 257 310 374
#     4  11  23  43  68  94 128 168 211 262 320 383
#     4  10  23  41  60  86 127 169 206 256 319 381
#     4  10  24  45  68  93 124 168 215 263 319 377
#
# _framework density 20.735710000000001
#
# number of rings (size 3 to 8) (size 9 to 14) (size 15 to 20)
#    0.000    1.250    2.500    3.000    0.000    8.000 
#    0.000    2.500    0.000    0.000    0.000    0.000 
#    0.000    0.000    0.000    0.000    0.000    0.000 
#
# Total GULP energy -793851.413116 kJ/mol
# GULP energy per Si atom -12403.928330 kJ/mol
# Density = 2.068851 g / cm^3
# Si number density = 20.735710 Si / 1000 Ang^3
#
#
#
# Elastic Constant Matrix: (Units=GPa)
#
#
# Indices 1 2 3 4 5 6 
#
# 1 107.7554 38.9135 40.1211 0.0000 0.0000 0.0000
# 2 38.9135 84.9988 45.1891 0.0000 0.0000 0.0000
# 3 40.1211 45.1891 108.2146 0.0000 0.0000 0.0000
# 4 0.0000 0.0000 0.0000 37.9688 0.0000 0.0000
# 5 0.0000 0.0000 0.0000 0.0000 32.7026 0.0000
# 6 0.0000 0.0000 0.0000 0.0000 0.0000 32.4206
#
#
#
# Elastic Compliance Matrix: (Units=1/GPa)
#
#
# Indices 1 2 3 4 5 6 
#
# 1 0.011702 -0.003921 -0.002701 0.000000 0.000000 0.000000
# 2 -0.003921 0.016436 -0.005410 0.000000 0.000000 0.000000
# 3 -0.002701 -0.005410 0.012501 0.000000 0.000000 0.000000
# 4 0.000000 0.000000 0.000000 0.026337 0.000000 0.000000
# 5 0.000000 0.000000 0.000000 0.000000 0.030579 0.000000
# 6 0.000000 0.000000 0.000000 0.000000 0.000000 0.030845
#
#
# Mechanical properties :
#
#
# Convention : Reuss Voigt Hill
#
# Bulk Modulus (GPa) = 60.33054 61.04624 60.68839
# Shear Modulus (GPa) = 31.64766 32.40140 32.02453
#
# Velocity S-wave (km/s) = 3.91095 3.95725 3.93417
# Velocity P-wave (km/s) = 7.03933 7.09816 7.06881
#
# Compressibility (1/GPa) = 0.01657535
#
# Stress axis : x y z
#
# Youngs Moduli (GPa) = 85.45477 60.84153 79.99123
#
# Poissons Ratio (x) = 0.23858 0.21606
# Poissons Ratio (y) = 0.33510 0.43273
# Poissons Ratio (z) = 0.23082 0.32913
#
# Static dielectric constant tensor:
#      x y z
#    x 4.130220 0.000000 0.000000 
#    y 0.000000 3.736400 0.000000 
#    z 0.000000 0.000000 3.651540 
# 
# 
# High freq. dielectric constant tensor:
#      x y z
#    x 1.828820 0.000000 0.000000 
#    y 0.000000 1.817090 0.000000 
#    z 0.000000 0.000000 1.799990 
# 
# From -- ./inp_files/29770.got.cif
#   From: 2010.03.12/outbox.cif.g09.slc.cpg/sg62_15_cif.got.tgz:29770.got - 2010.04.10 19:12:36.
