data_PCOD8254493
_publ_section_title
;
Structure prediction by ZEFSAII (Michael W. Deem and Ramdas Pophale) SiO2 
 PCOD8254493
Probable space group: P N M A
;
_chemical_formula_sum "Si O2"
_cell_formula_units_Z 64
_cell_length_a 9.184758
_cell_length_b 31.946960
_cell_length_c 11.190058
_cell_angle_alpha 90.000000
_cell_angle_beta 90.000000
_cell_angle_gamma 90.000000
_cell_volume 3283.443848
_symmetry_space_group_name_H-M "P N M A"
_symmetry_group_IT_number 62
_symmetry_cell_setting 'orthorhombic'
loop_
_space_group_symop_operation_xyz
x,y,z
1/2-x,-y,1/2+z
1/2+x,1/2-y,1/2-z
-x,1/2+y,-z
-x,-y,-z
1/2+x,y,1/2-z
1/2-x,1/2+y,1/2+z
x,1/2-y,z
loop_
_atom_site_type_symbol
_atom_site_label
_atom_site_fract_x
_atom_site_fract_y
_atom_site_fract_z
Si Si1 0.274719 0.702284 0.654205
Si Si2 0.900153 0.060781 0.314974
Si Si3 0.641292 0.913359 0.218153
Si Si4 0.099611 0.630249 0.041746
Si Si5 0.866887 0.534999 0.362508
Si Si6 0.606536 0.796059 0.615068
Si Si7 0.221836 0.380063 0.015091
Si Si8 0.793034 0.927449 0.596869
O O1 0.218759 0.750000 0.621763
O O2 0.446639 0.703425 0.671339
O O3 0.232321 0.667183 0.555195
O O4 0.209760 0.686049 0.780157
O O5 0.788825 0.084307 0.401283
O O6 0.843966 0.063002 0.180266
O O7 0.060474 0.081461 0.327011
O O8 0.913971 0.012080 0.342061
O O9 0.595741 0.879245 0.317739
O O10 0.500788 0.933701 0.157649
O O11 0.735590 0.951029 0.275500
O O12 0.726946 0.886760 0.120122
O O13 0.951971 0.613086 0.980445
O O14 0.246222 0.611706 0.983777
O O15 0.112805 0.679194 0.010274
O O16 0.819895 0.535419 0.501726
O O17 0.658492 0.750000 0.579986
#
# Coordination Sequence:
#
# PCOD8254493 Si02
#       8
#     8   8   8   8   8   8   8   8
#     4   9  19  36  59  87 119 152 186 238 297 356
#     4  12  24  38  61  85 119 154 202 253 302 350
#     4  11  22  41  60  84 115 163 199 251 297 355
#     4  10  22  39  60  86 117 155 202 240 302 360
#     4  11  24  41  61  81 119 157 205 247 304 351
#     4   9  18  36  60  88 120 152 190 239 296 354
#     4  11  22  38  61  86 117 156 201 246 300 358
#     4  11  24  39  57  87 115 153 196 248 296 356
#
# _framework density 19.491728999999999
#
# number of rings (size 3 to 8) (size 9 to 14) (size 15 to 20)
#    0.000    1.500    2.500    2.625    1.750    3.000 
#    0.000    3.750    0.000    0.000    0.000    0.000 
#    0.000    0.000    0.000    0.000    0.000    0.000 
#
# Total GULP energy -793358.821372 kJ/mol
# GULP energy per Si atom -12396.231584 kJ/mol
# Density = 1.944736 g / cm^3
# Si number density = 19.491729 Si / 1000 Ang^3
#
#
#
# Elastic Constant Matrix: (Units=GPa)
#
#
# Indices 1 2 3 4 5 6 
#
# 1 74.0748 29.6691 37.4685 0.0000 0.0000 0.0000
# 2 29.6691 80.7192 54.4596 0.0000 0.0000 0.0000
# 3 37.4685 54.4596 110.9456 0.0000 0.0000 0.0000
# 4 0.0000 0.0000 0.0000 21.5844 0.0000 0.0000
# 5 0.0000 0.0000 0.0000 0.0000 37.6556 0.0000
# 6 0.0000 0.0000 0.0000 0.0000 0.0000 22.6113
#
#
#
# Elastic Compliance Matrix: (Units=1/GPa)
#
#
# Indices 1 2 3 4 5 6 
#
# 1 0.016930 -0.003536 -0.003982 0.000000 0.000000 0.000000
# 2 -0.003536 0.019262 -0.008261 0.000000 0.000000 0.000000
# 3 -0.003982 -0.008261 0.014413 0.000000 0.000000 0.000000
# 4 0.000000 0.000000 0.000000 0.046330 0.000000 0.000000
# 5 0.000000 0.000000 0.000000 0.000000 0.026556 0.000000
# 6 0.000000 0.000000 0.000000 0.000000 0.000000 0.044226
#
#
# Mechanical properties :
#
#
# Convention : Reuss Voigt Hill
#
# Bulk Modulus (GPa) = 52.50063 56.54821 54.52442
# Shear Modulus (GPa) = 24.31621 25.97974 25.14798
#
# Velocity S-wave (km/s) = 3.53585 3.65480 3.59581
# Velocity P-wave (km/s) = 6.60779 6.84722 6.72857
#
# Compressibility (1/GPa) = 0.01904739
#
# Stress axis : x y z
#
# Youngs Moduli (GPa) = 59.06533 51.91627 69.38168
#
# Poissons Ratio (x) = 0.18360 0.27626
# Poissons Ratio (y) = 0.20888 0.57314
# Poissons Ratio (z) = 0.23518 0.42886
#
# Static dielectric constant tensor:
#      x y z
#    x 3.730840 0.000000 0.000000 
#    y 0.000000 3.580870 0.000000 
#    z 0.000000 0.000000 3.679130 
# 
# 
# High freq. dielectric constant tensor:
#      x y z
#    x 1.770420 0.000000 0.000000 
#    y 0.000000 1.750020 0.000000 
#    z 0.000000 0.000000 1.756860 
# 
# From -- ./inp_files/11541.got.cif
#   From: 2010.03.12/outbox.cif.g09.slc.cpg/sg62_6_cif.got.tgz:11541.got - 2010.04.10 19:12:36.
