data_PCOD8254644
_publ_section_title
;
Structure prediction by ZEFSAII (Michael W. Deem and Ramdas Pophale) SiO2 
 PCOD8254644
Probable space group: P N M A
;
_chemical_formula_sum "Si O2"
_cell_formula_units_Z 56
_cell_length_a 14.434469
_cell_length_b 8.460436
_cell_length_c 21.516454
_cell_angle_alpha 90.000000
_cell_angle_beta 90.000000
_cell_angle_gamma 90.000000
_cell_volume 2627.630269
_symmetry_space_group_name_H-M "P N M A"
_symmetry_group_IT_number 62
_symmetry_cell_setting 'orthorhombic'
loop_
_space_group_symop_operation_xyz
x,y,z
1/2-x,-y,1/2+z
1/2+x,1/2-y,1/2-z
-x,1/2+y,-z
-x,-y,-z
1/2+x,y,1/2-z
1/2-x,1/2+y,1/2+z
x,1/2-y,z
loop_
_atom_site_type_symbol
_atom_site_label
_atom_site_fract_x
_atom_site_fract_y
_atom_site_fract_z
Si Si1 0.166536 0.931937 0.265291
Si Si2 0.222799 0.564748 0.515287
Si Si3 0.874852 0.932566 0.254799
Si Si4 0.976297 0.569395 0.826750
Si Si5 0.867479 0.569388 0.604311
Si Si6 0.578141 0.566039 0.454932
Si Si7 0.924223 0.432225 0.383429
O O1 0.143980 0.750000 0.250319
O O2 0.267881 0.979896 0.241514
O O3 0.095452 0.042479 0.229065
O O4 0.159919 0.958524 0.338616
O O5 0.209683 0.750000 0.503840
O O6 0.198022 0.473045 0.452853
O O7 0.327348 0.528150 0.534140
O O8 0.153917 0.505157 0.569443
O O9 0.888512 0.750000 0.238207
O O10 0.921914 0.966814 0.320725
O O11 0.921805 0.031895 0.199463
O O12 0.971862 0.750000 0.849120
O O13 0.953612 0.456695 0.884238
O O14 0.849677 0.750000 0.623624
O O15 0.974990 0.543153 0.585648
O O16 0.500000 0.500000 0.500000
O O17 0.594503 0.750000 0.468178
O O18 0.906159 0.250000 0.366075
#
# Coordination Sequence:
#
# PCOD8254644 Si02
#       7
#     8   8   8   8   8   8   8
#     4  11  24  42  65  97 133 174 222 273 329 391
#     4  11  24  43  67  96 133 176 220 270 327 390
#     4  11  24  40  65  96 130 171 216 267 324 387
#     4  12  25  44  69  98 133 172 216 269 328 391
#     4  11  23  40  64  97 133 174 221 272 329 389
#     4  12  27  48  71  97 131 172 222 274 330 394
#     4  10  22  41  65  97 133 172 218 267 326 389
#
# _framework density 21.311979000000001
#
# number of rings (size 3 to 8) (size 9 to 14) (size 15 to 20)
#    0.000    0.857    1.429    5.571    2.000    6.286 
#    0.000    0.000    0.000    0.000    0.000    0.000 
#    0.000    0.000    0.000    0.000    0.000    0.000 
#
# Total GULP energy -694882.584376 kJ/mol
# GULP energy per Si atom -12408.617578 kJ/mol
# Density = 2.126347 g / cm^3
# Si number density = 21.311979 Si / 1000 Ang^3
#
#
#
# Elastic Constant Matrix: (Units=GPa)
#
#
# Indices 1 2 3 4 5 6 
#
# 1 53.9560 28.5033 18.2299 0.0000 0.0000 0.0000
# 2 28.5033 68.9041 6.6235 0.0000 0.0000 0.0000
# 3 18.2299 6.6235 100.5809 0.0000 0.0000 0.0000
# 4 0.0000 0.0000 0.0000 37.0623 0.0000 0.0000
# 5 0.0000 0.0000 0.0000 0.0000 36.7171 0.0000
# 6 0.0000 0.0000 0.0000 0.0000 0.0000 31.5667
#
#
#
# Elastic Compliance Matrix: (Units=1/GPa)
#
#
# Indices 1 2 3 4 5 6 
#
# 1 0.025148 -0.010028 -0.003898 0.000000 0.000000 0.000000
# 2 -0.010028 0.018604 0.000592 0.000000 0.000000 0.000000
# 3 -0.003898 0.000592 0.010610 0.000000 0.000000 0.000000
# 4 0.000000 0.000000 0.000000 0.026982 0.000000 0.000000
# 5 0.000000 0.000000 0.000000 0.000000 0.027235 0.000000
# 6 0.000000 0.000000 0.000000 0.000000 0.000000 0.031679
#
#
# Mechanical properties :
#
#
# Convention : Reuss Voigt Hill
#
# Bulk Modulus (GPa) = 36.10729 36.68382 36.39555
# Shear Modulus (GPa) = 28.38387 32.40818 30.39602
#
# Velocity S-wave (km/s) = 3.65338 3.90379 3.78066
# Velocity P-wave (km/s) = 5.89706 6.12940 6.01435
#
# Compressibility (1/GPa) = 0.02769524
#
# Stress axis : x y z
#
# Youngs Moduli (GPa) = 39.76448 53.75103 94.25373
#
# Poissons Ratio (x) = 0.53903 0.36736
# Poissons Ratio (y) = 0.39877 -0.05584
# Poissons Ratio (z) = 0.15499 -0.03184
#
# Static dielectric constant tensor:
#      x y z
#    x 4.044740 0.000000 0.000000 
#    y 0.000000 3.800420 0.000000 
#    z 0.000000 0.000000 3.844350 
# 
# 
# High freq. dielectric constant tensor:
#      x y z
#    x 1.850670 0.000000 0.000000 
#    y 0.000000 1.840680 0.000000 
#    z 0.000000 0.000000 1.839130 
# 
# From -- ./inp_files/27271.got.cif
#   From: 2010.03.12/outbox.cif.g09.slc.cpg/sg62_14_cif.got.tgz:27271.got - 2010.04.10 19:12:36.
