data_PCOD8254390
_publ_section_title
;
Structure prediction by ZEFSAII (Michael W. Deem and Ramdas Pophale) SiO2 
 PCOD8254390
Probable space group: P N M A
;
_chemical_formula_sum "Si O2"
_cell_formula_units_Z 40
_cell_length_a 14.748990
_cell_length_b 13.789841
_cell_length_c 9.805283
_cell_angle_alpha 90.000000
_cell_angle_beta 90.000000
_cell_angle_gamma 90.000000
_cell_volume 1994.259514
_symmetry_space_group_name_H-M "P N M A"
_symmetry_group_IT_number 62
_symmetry_cell_setting 'orthorhombic'
loop_
_space_group_symop_operation_xyz
x,y,z
1/2-x,-y,1/2+z
1/2+x,1/2-y,1/2-z
-x,1/2+y,-z
-x,-y,-z
1/2+x,y,1/2-z
1/2-x,1/2+y,1/2+z
x,1/2-y,z
loop_
_atom_site_type_symbol
_atom_site_label
_atom_site_fract_x
_atom_site_fract_y
_atom_site_fract_z
Si Si1 0.776170 0.459842 0.167218
Si Si2 0.095443 0.638053 0.617276
Si Si3 0.592393 0.519331 0.425659
Si Si4 0.398070 0.637760 0.780158
Si Si5 0.343350 0.137860 0.812233
O O1 0.831556 0.424559 0.299730
O O2 0.687836 0.394752 0.129486
O O3 0.747333 0.571704 0.194373
O O4 0.835175 0.446066 0.034052
O O5 0.109945 0.750000 0.658097
O O6 0.107501 0.622355 0.456549
O O7 0.992903 0.604914 0.652524
O O8 0.500000 0.500000 0.500000
O O9 0.620139 0.416242 0.362597
O O10 0.587524 0.601025 0.306240
O O11 0.396269 0.750000 0.748956
O O12 0.317036 0.250000 0.788614
#
# Coordination Sequence:
#
# PCOD8254390 Si02
#       5
#     8   8   8   8   8
#     4  11  22  39  66  92 128 163 210 261 314 378
#     4  10  21  42  67  92 126 170 214 258 309 378
#     4  11  23  41  63  95 127 163 207 262 315 362
#     4  10  22  41  67  93 124 169 213 254 316 379
#     4  10  23  41  62  91 128 166 210 261 312 369
#
# _framework density 20.057569999999998
#
# number of rings (size 3 to 8) (size 9 to 14) (size 15 to 20)
#    0.000    1.600    2.000    3.000    0.000    8.000 
#    7.200    0.000    0.000    0.000    0.000    0.000 
#    0.000    0.000    0.000    0.000    0.000    0.000 
#
# Total GULP energy -495867.158487 kJ/mol
# GULP energy per Si atom -12396.678962 kJ/mol
# Density = 2.001192 g / cm^3
# Si number density = 20.057570 Si / 1000 Ang^3
#
#
#
# Elastic Constant Matrix: (Units=GPa)
#
#
# Indices 1 2 3 4 5 6 
#
# 1 140.4023 42.7276 57.4976 0.0000 0.0000 0.0000
# 2 42.7276 123.6613 50.2967 0.0000 0.0000 0.0000
# 3 57.4976 50.2967 130.9574 0.0000 0.0000 0.0000
# 4 0.0000 0.0000 0.0000 26.4251 0.0000 0.0000
# 5 0.0000 0.0000 0.0000 0.0000 30.4555 0.0000
# 6 0.0000 0.0000 0.0000 0.0000 0.0000 33.1468
#
#
#
# Elastic Compliance Matrix: (Units=1/GPa)
#
#
# Indices 1 2 3 4 5 6 
#
# 1 0.009003 -0.001781 -0.003269 0.000000 0.000000 0.000000
# 2 -0.001781 0.009936 -0.003034 0.000000 0.000000 0.000000
# 3 -0.003269 -0.003034 0.010237 0.000000 0.000000 0.000000
# 4 0.000000 0.000000 0.000000 0.037843 0.000000 0.000000
# 5 0.000000 0.000000 0.000000 0.000000 0.032835 0.000000
# 6 0.000000 0.000000 0.000000 0.000000 0.000000 0.030169
#
#
# Mechanical properties :
#
#
# Convention : Reuss Voigt Hill
#
# Bulk Modulus (GPa) = 76.87828 77.34053 77.10941
# Shear Modulus (GPa) = 33.21680 34.30541 33.76110
#
# Velocity S-wave (km/s) = 4.07390 4.14012 4.10715
# Velocity P-wave (km/s) = 7.78081 7.84201 7.81147
#
# Compressibility (1/GPa) = 0.01300757
#
# Stress axis : x y z
#
# Youngs Moduli (GPa) = 111.07308 100.64290 97.68953
#
# Poissons Ratio (x) = 0.17927 0.31932
# Poissons Ratio (y) = 0.19785 0.29640
# Poissons Ratio (z) = 0.36307 0.30536
#
# Static dielectric constant tensor:
#      x y z
#    x 4.038130 0.000000 0.000000 
#    y 0.000000 3.758170 0.000000 
#    z 0.000000 0.000000 3.712280 
# 
# 
# High freq. dielectric constant tensor:
#      x y z
#    x 1.788230 0.000000 0.000000 
#    y 0.000000 1.785620 0.000000 
#    z 0.000000 0.000000 1.787620 
# 
# From -- ./inp_files/6079.got.cif
#   From: 2010.03.12/outbox.cif.g09.slc.cpg/sg62_4_cif.got.tgz:6079.got - 2010.04.10 19:12:36.
