data_PCOD8254816
_publ_section_title
;
Structure prediction by ZEFSAII (Michael W. Deem and Ramdas Pophale) SiO2 
 PCOD8254816
Probable space group: P N M A
;
_chemical_formula_sum "Si O2"
_cell_formula_units_Z 64
_cell_length_a 9.281358
_cell_length_b 25.060600
_cell_length_c 14.098346
_cell_angle_alpha 90.000000
_cell_angle_beta 90.000000
_cell_angle_gamma 90.000000
_cell_volume 3279.224530
_symmetry_space_group_name_H-M "P N M A"
_symmetry_group_IT_number 62
_symmetry_cell_setting 'orthorhombic'
loop_
_space_group_symop_operation_xyz
x,y,z
1/2-x,-y,1/2+z
1/2+x,1/2-y,1/2-z
-x,1/2+y,-z
-x,-y,-z
1/2+x,y,1/2-z
1/2-x,1/2+y,1/2+z
x,1/2-y,z
loop_
_atom_site_type_symbol
_atom_site_label
_atom_site_fract_x
_atom_site_fract_y
_atom_site_fract_z
Si Si1 0.799094 0.928937 0.587513
Si Si2 0.876560 0.560408 0.791801
Si Si3 0.506956 0.395193 0.474261
Si Si4 0.516073 0.688514 0.369223
Si Si5 0.625366 0.013548 0.787527
Si Si6 0.338422 0.812248 0.185892
Si Si7 0.220392 0.450288 0.902511
Si Si8 0.504714 0.099424 0.927556
O O1 0.815109 0.911062 0.697262
O O2 0.661966 0.903081 0.538065
O O3 0.939619 0.907039 0.534473
O O4 0.791710 0.992517 0.578964
O O5 0.915711 0.604836 0.870959
O O6 0.754901 0.520690 0.833646
O O7 0.017591 0.526338 0.766343
O O8 0.525925 0.340797 0.533089
O O9 0.575285 0.443236 0.536134
O O10 0.521477 0.750000 0.396168
O O11 0.671327 0.670463 0.326263
O O12 0.391473 0.675865 0.292817
O O13 0.684890 0.054785 0.708990
O O14 0.554181 0.047652 0.868994
O O15 0.360874 0.750000 0.161625
O O16 0.439094 0.845084 0.114232
O O17 0.331339 0.402751 0.929637
#
# Coordination Sequence:
#
# PCOD8254816 Si02
#       8
#     8   8   8   8   8   8   8   8
#     4  11  23  39  56  86 123 166 207 246 299 355
#     4  11  23  39  56  83 123 162 203 250 296 350
#     4  12  23  40  62  87 119 164 207 250 302 359
#     4  10  23  44  67  92 120 157 199 249 308 366
#     4  11  22  37  53  86 125 161 201 247 298 357
#     4  10  23  42  64  91 123 155 196 250 305 363
#     4  11  24  35  55  88 123 165 200 245 295 368
#     4  12  23  36  59  86 123 161 207 247 302 361
#
# _framework density 19.516808999999999
#
# number of rings (size 3 to 8) (size 9 to 14) (size 15 to 20)
#    0.000    1.000    6.250    2.250    7.000    0.000 
#    0.000    0.000    0.000    1.500    0.000    0.000 
#    0.000    0.000    0.000    0.000    0.000    0.000 
#
# Total GULP energy -793604.439061 kJ/mol
# GULP energy per Si atom -12400.069360 kJ/mol
# Density = 1.947239 g / cm^3
# Si number density = 19.516809 Si / 1000 Ang^3
#
#
#
# Elastic Constant Matrix: (Units=GPa)
#
#
# Indices 1 2 3 4 5 6 
#
# 1 91.7176 24.4002 30.7772 0.0000 0.0000 0.0000
# 2 24.4002 61.7142 44.2906 0.0000 0.0000 0.0000
# 3 30.7772 44.2906 106.0480 0.0000 0.0000 0.0000
# 4 0.0000 0.0000 0.0000 33.0248 0.0000 0.0000
# 5 0.0000 0.0000 0.0000 0.0000 36.2786 0.0000
# 6 0.0000 0.0000 0.0000 0.0000 0.0000 24.3765
#
#
#
# Elastic Compliance Matrix: (Units=1/GPa)
#
#
# Indices 1 2 3 4 5 6 
#
# 1 0.012547 -0.003352 -0.002241 0.000000 0.000000 0.000000
# 2 -0.003352 0.024035 -0.009065 0.000000 0.000000 0.000000
# 3 -0.002241 -0.009065 0.013866 0.000000 0.000000 0.000000
# 4 0.000000 0.000000 0.000000 0.030280 0.000000 0.000000
# 5 0.000000 0.000000 0.000000 0.000000 0.027564 0.000000
# 6 0.000000 0.000000 0.000000 0.000000 0.000000 0.041023
#
#
# Mechanical properties :
#
#
# Convention : Reuss Voigt Hill
#
# Bulk Modulus (GPa) = 47.32472 50.93508 49.12990
# Shear Modulus (GPa) = 26.92846 29.40342 28.16594
#
# Velocity S-wave (km/s) = 3.71854 3.88567 3.80302
# Velocity P-wave (km/s) = 6.53739 6.80337 6.67171
#
# Compressibility (1/GPa) = 0.02113060
#
# Stress axis : x y z
#
# Youngs Moduli (GPa) = 79.70067 41.60604 72.11760
#
# Poissons Ratio (x) = 0.13947 0.16164
# Poissons Ratio (y) = 0.26717 0.65376
# Poissons Ratio (z) = 0.17864 0.37717
#
# Static dielectric constant tensor:
#      x y z
#    x 3.932560 0.000000 0.000000 
#    y 0.000000 3.243060 0.000000 
#    z 0.000000 0.000000 3.687490 
# 
# 
# High freq. dielectric constant tensor:
#      x y z
#    x 1.782170 0.000000 0.000000 
#    y 0.000000 1.716860 0.000000 
#    z 0.000000 0.000000 1.761650 
# 
# From -- ./inp_files/17355.got.cif
#   From: 2010.03.12/outbox.cif.g09.slc.cpg/sg62_9_cif.got.tgz:17355.got - 2010.04.10 19:12:36.
