data_PCOD8254638
_publ_section_title
;
Structure prediction by ZEFSAII (Michael W. Deem and Ramdas Pophale) SiO2 
 PCOD8254638
Probable space group: P N M A
;
_chemical_formula_sum "Si O2"
_cell_formula_units_Z 56
_cell_length_a 20.901512
_cell_length_b 8.753066
_cell_length_c 14.785334
_cell_angle_alpha 90.000000
_cell_angle_beta 90.000000
_cell_angle_gamma 90.000000
_cell_volume 2705.011069
_symmetry_space_group_name_H-M "P N M A"
_symmetry_group_IT_number 62
_symmetry_cell_setting 'orthorhombic'
loop_
_space_group_symop_operation_xyz
x,y,z
1/2-x,-y,1/2+z
1/2+x,1/2-y,1/2-z
-x,1/2+y,-z
-x,-y,-z
1/2+x,y,1/2-z
1/2-x,1/2+y,1/2+z
x,1/2-y,z
loop_
_atom_site_type_symbol
_atom_site_label
_atom_site_fract_x
_atom_site_fract_y
_atom_site_fract_z
Si Si1 0.027064 0.571908 0.263792
Si Si2 0.162138 0.930359 0.341261
Si Si3 0.601041 0.571354 0.742941
Si Si4 0.233819 0.430952 0.694158
Si Si5 0.041494 0.077253 0.076273
Si Si6 0.760672 0.930528 0.511057
Si Si7 0.136289 0.078476 0.928682
O O1 0.012264 0.750000 0.270057
O O2 0.088443 0.525402 0.322840
O O3 0.045652 0.530193 0.162008
O O4 0.962988 0.482618 0.296363
O O5 0.170542 0.750000 0.352650
O O6 0.208873 0.989451 0.259747
O O7 0.175795 0.013686 0.436793
O O8 0.609678 0.750000 0.754821
O O9 0.664846 0.488833 0.775026
O O10 0.590252 0.521666 0.637737
O O11 0.232798 0.250000 0.693551
O O12 0.243216 0.491999 0.591635
O O13 0.018472 0.250000 0.101152
O O14 0.111787 0.081936 0.031461
O O15 0.000000 0.000000 0.000000
O O16 0.755008 0.750000 0.513823
O O17 0.705533 0.003352 0.572522
O O18 0.140852 0.250000 0.888725
#
# Coordination Sequence:
#
# PCOD8254638 Si02
#       7
#     8   8   8   8   8   8   8
#     4  11  23  40  61  87 124 167 206 255 317 374
#     4  10  22  41  65  90 123 167 207 252 315 374
#     4  12  24  38  61  91 121 161 209 254 302 366
#     4  10  22  42  65  91 126 165 204 255 314 370
#     4  11  22  34  54  84 119 160 200 245 300 367
#     4  11  23  39  64  95 123 158 207 259 310 366
#     4  11  22  37  58  85 122 163 199 247 309 367
#
# _framework density 20.702318000000002
#
# number of rings (size 3 to 8) (size 9 to 14) (size 15 to 20)
#    0.000    1.143    2.857    3.857    0.000    5.143 
#    0.000    0.714    0.000    0.000    0.000    0.000 
#    0.000    0.000    0.000    0.000    0.000    0.000 
#
# Total GULP energy -694338.533755 kJ/mol
# GULP energy per Si atom -12398.902388 kJ/mol
# Density = 2.065520 g / cm^3
# Si number density = 20.702318 Si / 1000 Ang^3
#
#
#
# Elastic Constant Matrix: (Units=GPa)
#
#
# Indices 1 2 3 4 5 6 
#
# 1 95.3950 18.9518 7.0943 0.0000 0.0000 0.0000
# 2 18.9518 26.1541 11.9739 0.0000 0.0000 0.0000
# 3 7.0943 11.9739 55.9211 0.0000 0.0000 0.0000
# 4 0.0000 0.0000 0.0000 29.0076 0.0000 0.0000
# 5 0.0000 0.0000 0.0000 0.0000 25.7746 0.0000
# 6 0.0000 0.0000 0.0000 0.0000 0.0000 29.5552
#
#
#
# Elastic Compliance Matrix: (Units=1/GPa)
#
#
# Indices 1 2 3 4 5 6 
#
# 1 0.012253 -0.009055 0.000384 0.000000 0.000000 0.000000
# 2 -0.009055 0.049082 -0.009361 0.000000 0.000000 0.000000
# 3 0.000384 -0.009361 0.019838 0.000000 0.000000 0.000000
# 4 0.000000 0.000000 0.000000 0.034474 0.000000 0.000000
# 5 0.000000 0.000000 0.000000 0.000000 0.038798 0.000000
# 6 0.000000 0.000000 0.000000 0.000000 0.000000 0.033835
#
#
# Mechanical properties :
#
#
# Convention : Reuss Voigt Hill
#
# Bulk Modulus (GPa) = 22.16783 28.16780 25.16781
# Shear Modulus (GPa) = 20.88742 26.16415 23.52579
#
# Velocity S-wave (km/s) = 3.17983 3.55889 3.37469
# Velocity P-wave (km/s) = 4.92066 5.52479 5.23145
#
# Compressibility (1/GPa) = 0.04511041
#
# Stress axis : x y z
#
# Youngs Moduli (GPa) = 81.61250 20.37414 50.40851
#
# Poissons Ratio (x) = 0.18448 -0.01938
# Poissons Ratio (y) = 0.73898 0.47186
# Poissons Ratio (z) = -0.03137 0.19072
#
# Static dielectric constant tensor:
#      x y z
#    x 3.898760 0.000000 0.000000 
#    y 0.000000 3.693240 0.000000 
#    z 0.000000 0.000000 3.787800 
# 
# 
# High freq. dielectric constant tensor:
#      x y z
#    x 1.821460 0.000000 0.000000 
#    y 0.000000 1.810000 0.000000 
#    z 0.000000 0.000000 1.792590 
# 
# From -- ./inp_files/20344.got.cif
#   From: 2010.03.12/outbox.cif.g09.slc.cpg/sg62_11_cif.got.tgz:20344.got - 2010.04.10 19:12:36.
