data_PCOD8254064
_publ_section_title
;
Structure prediction by ZEFSAII (Michael W. Deem and Ramdas Pophale) SiO2 
 PCOD8254064
Probable space group: P N M A
;
_chemical_formula_sum "Si O2"
_cell_formula_units_Z 40
_cell_length_a 10.177951
_cell_length_b 14.457513
_cell_length_c 12.495523
_cell_angle_alpha 90.000000
_cell_angle_beta 90.000000
_cell_angle_gamma 90.000000
_cell_volume 1838.689455
_symmetry_space_group_name_H-M "P N M A"
_symmetry_group_IT_number 62
_symmetry_cell_setting 'orthorhombic'
loop_
_space_group_symop_operation_xyz
x,y,z
1/2-x,-y,1/2+z
1/2+x,1/2-y,1/2-z
-x,1/2+y,-z
-x,-y,-z
1/2+x,y,1/2-z
1/2-x,1/2+y,1/2+z
x,1/2-y,z
loop_
_atom_site_type_symbol
_atom_site_label
_atom_site_fract_x
_atom_site_fract_y
_atom_site_fract_z
Si Si1 0.213508 0.646961 0.578872
Si Si2 0.204306 0.548854 0.027031
Si Si3 0.032186 0.147979 0.566926
Si Si4 0.089472 0.943402 0.240932
Si Si5 0.661377 0.941868 0.709441
O O1 0.270970 0.750000 0.553233
O O2 0.306181 0.564155 0.533534
O O3 0.200701 0.639047 0.708126
O O4 0.069662 0.635906 0.528943
O O5 0.355579 0.572128 0.051346
O O6 0.110203 0.592308 0.118806
O O7 0.158477 0.591173 0.914135
O O8 0.095535 0.250000 0.564761
O O9 0.958885 0.137491 0.681041
O O10 0.230082 0.977380 0.284491
O O11 0.982541 0.024577 0.242430
#
# Coordination Sequence:
#
# PCOD8254064 Si02
#       5
#     8   8   8   8   8
#     4  10  21  38  64  96 129 169 216 264 320 390
#     4  11  22  40  66  91 135 167 221 265 335 376
#     4  11  22  40  67  94 127 174 222 264 322 395
#     4  11  21  40  63  94 126 168 213 271 319 388
#     4  11  22  39  67  92 130 171 213 264 330 385
#
# _framework density 21.754626999999999
#
# number of rings (size 3 to 8) (size 9 to 14) (size 15 to 20)
#    0.000    1.200    6.000    2.400    0.000    1.600 
#    0.000    7.000    0.000    4.800    0.000    0.000 
#    0.000    0.000    0.000    0.000    0.000    0.000 
#
# Total GULP energy -495816.212701 kJ/mol
# GULP energy per Si atom -12395.405318 kJ/mol
# Density = 2.170511 g / cm^3
# Si number density = 21.754627 Si / 1000 Ang^3
#
#
#
# Elastic Constant Matrix: (Units=GPa)
#
#
# Indices 1 2 3 4 5 6 
#
# 1 48.7562 5.7663 15.0077 0.0000 0.0000 0.0000
# 2 5.7663 76.7853 29.0161 0.0000 0.0000 0.0000
# 3 15.0077 29.0161 152.9876 0.0000 0.0000 0.0000
# 4 0.0000 0.0000 0.0000 25.3327 0.0000 0.0000
# 5 0.0000 0.0000 0.0000 0.0000 36.8536 0.0000
# 6 0.0000 0.0000 0.0000 0.0000 0.0000 13.8622
#
#
#
# Elastic Compliance Matrix: (Units=1/GPa)
#
#
# Indices 1 2 3 4 5 6 
#
# 1 0.021202 -0.000869 -0.001915 0.000000 0.000000 0.000000
# 2 -0.000869 0.014064 -0.002582 0.000000 0.000000 0.000000
# 3 -0.001915 -0.002582 0.007214 0.000000 0.000000 0.000000
# 4 0.000000 0.000000 0.000000 0.039475 0.000000 0.000000
# 5 0.000000 0.000000 0.000000 0.000000 0.027134 0.000000
# 6 0.000000 0.000000 0.000000 0.000000 0.000000 0.072139
#
#
# Mechanical properties :
#
#
# Convention : Reuss Voigt Hill
#
# Bulk Modulus (GPa) = 31.49709 42.01214 36.75462
# Shear Modulus (GPa) = 24.68606 30.45898 27.57252
#
# Velocity S-wave (km/s) = 3.37226 3.74587 3.56396
# Velocity P-wave (km/s) = 5.44726 6.16948 5.81958
#
# Compressibility (1/GPa) = 0.03174897
#
# Stress axis : x y z
#
# Youngs Moduli (GPa) = 47.16436 71.10172 138.61715
#
# Poissons Ratio (x) = 0.06175 0.26548
# Poissons Ratio (y) = 0.04096 0.35795
# Poissons Ratio (z) = 0.09033 0.18361
#
# Static dielectric constant tensor:
#      x y z
#    x 3.770730 0.000000 0.000000 
#    y 0.000000 3.610080 0.000000 
#    z 0.000000 0.000000 4.405910 
# 
# 
# High freq. dielectric constant tensor:
#      x y z
#    x 1.843850 0.000000 0.000000 
#    y 0.000000 1.815470 0.000000 
#    z 0.000000 0.000000 1.877590 
# 
# From -- ./inp_files/17870.got.cif
#   From: 2010.03.12/outbox.cif.g09.slc.cpg/sg62_9_cif.got.tgz:17870.got - 2010.04.10 19:12:36.
