data_PCOD8254498
_publ_section_title
;
Structure prediction by ZEFSAII (Michael W. Deem and Ramdas Pophale) SiO2 
 PCOD8254498
Probable space group: P N M A
;
_chemical_formula_sum "Si O2"
_cell_formula_units_Z 64
_cell_length_a 9.260713
_cell_length_b 19.240250
_cell_length_c 17.174561
_cell_angle_alpha 90.000000
_cell_angle_beta 90.000000
_cell_angle_gamma 90.000000
_cell_volume 3060.136372
_symmetry_space_group_name_H-M "P N M A"
_symmetry_group_IT_number 62
_symmetry_cell_setting 'orthorhombic'
loop_
_space_group_symop_operation_xyz
x,y,z
1/2-x,-y,1/2+z
1/2+x,1/2-y,1/2-z
-x,1/2+y,-z
-x,-y,-z
1/2+x,y,1/2-z
1/2-x,1/2+y,1/2+z
x,1/2-y,z
loop_
_atom_site_type_symbol
_atom_site_label
_atom_site_fract_x
_atom_site_fract_y
_atom_site_fract_z
Si Si1 0.794354 0.324571 0.924926
Si Si2 0.310280 0.590075 0.309226
Si Si3 0.276467 0.531595 0.708618
Si Si4 0.979438 0.928731 0.650836
Si Si5 0.835669 0.456701 0.550699
Si Si6 0.005066 0.329872 0.484009
Si Si7 0.085340 0.673623 0.235735
Si Si8 0.375272 0.027273 0.553270
O O1 0.861257 0.250000 0.953647
O O2 0.888828 0.389391 0.953266
O O3 0.790871 0.324376 0.830874
O O4 0.632154 0.330834 0.953669
O O5 0.314925 0.532554 0.242507
O O6 0.305440 0.555680 0.394518
O O7 0.444860 0.639985 0.301903
O O8 0.155887 0.630742 0.305904
O O9 0.373753 0.569939 0.773793
O O10 0.384959 0.501769 0.642000
O O11 0.148097 0.580046 0.675453
O O12 0.942041 0.860075 0.599880
O O13 0.955927 0.998167 0.597583
O O14 0.780894 0.503243 0.478892
O O15 0.885713 0.382339 0.517937
O O16 0.948062 0.250000 0.473815
O O17 0.044223 0.750000 0.266035
O O18 0.500000 0.000000 0.500000
#
# Coordination Sequence:
#
# PCOD8254498 Si02
#       8
#     8   8   8   8   8   8   8   8
#     4  10  22  39  60  90 130 167 209 262 321 391
#     4  11  23  38  57  91 123 160 204 260 314 376
#     4  11  24  39  66  92 127 160 216 265 320 373
#     4  11  23  42  65  98 126 167 212 268 320 389
#     4  11  23  39  65  94 128 161 212 274 316 382
#     4  11  23  42  66  93 126 172 217 270 332 382
#     4  11  23  38  56  82 126 171 205 241 309 395
#     4  12  23  40  68  97 127 169 223 267 324 380
#
# _framework density 20.914100999999999
#
# number of rings (size 3 to 8) (size 9 to 14) (size 15 to 20)
#    0.000    1.000    3.750    3.750    5.250    1.000 
#    0.000    1.250    0.000    0.000    0.000    0.000 
#    0.000    0.000    0.000    0.000    0.000    0.000 
#
# Total GULP energy -793318.086191 kJ/mol
# GULP energy per Si atom -12395.595097 kJ/mol
# Density = 2.086650 g / cm^3
# Si number density = 20.914101 Si / 1000 Ang^3
#
#
#
# Elastic Constant Matrix: (Units=GPa)
#
#
# Indices 1 2 3 4 5 6 
#
# 1 50.8226 15.5211 20.0591 0.0000 0.0000 0.0000
# 2 15.5211 115.4182 29.0868 0.0000 0.0000 0.0000
# 3 20.0591 29.0868 96.6590 0.0000 0.0000 0.0000
# 4 0.0000 0.0000 0.0000 20.6154 0.0000 0.0000
# 5 0.0000 0.0000 0.0000 0.0000 30.7705 0.0000
# 6 0.0000 0.0000 0.0000 0.0000 0.0000 26.9674
#
#
#
# Elastic Compliance Matrix: (Units=1/GPa)
#
#
# Indices 1 2 3 4 5 6 
#
# 1 0.021826 -0.001941 -0.003945 0.000000 0.000000 0.000000
# 2 -0.001941 0.009548 -0.002470 0.000000 0.000000 0.000000
# 3 -0.003945 -0.002470 0.011908 0.000000 0.000000 0.000000
# 4 0.000000 0.000000 0.000000 0.048507 0.000000 0.000000
# 5 0.000000 0.000000 0.000000 0.000000 0.032499 0.000000
# 6 0.000000 0.000000 0.000000 0.000000 0.000000 0.037082
#
#
# Mechanical properties :
#
#
# Convention : Reuss Voigt Hill
#
# Bulk Modulus (GPa) = 37.63853 43.58152 40.61002
# Shear Modulus (GPa) = 26.74671 28.88619 27.81645
#
# Velocity S-wave (km/s) = 3.58003 3.72046 3.65092
# Velocity P-wave (km/s) = 5.92660 6.27211 6.10180
#
# Compressibility (1/GPa) = 0.02656852
#
# Stress axis : x y z
#
# Youngs Moduli (GPa) = 45.81645 104.73731 83.97855
#
# Poissons Ratio (x) = 0.20328 0.33133
# Poissons Ratio (y) = 0.08892 0.20746
# Poissons Ratio (z) = 0.18077 0.25874
#
# Static dielectric constant tensor:
#      x y z
#    x 3.567120 0.000000 0.000000 
#    y 0.000000 3.992470 0.000000 
#    z 0.000000 0.000000 4.072510 
# 
# 
# High freq. dielectric constant tensor:
#      x y z
#    x 1.813990 0.000000 0.000000 
#    y 0.000000 1.807480 0.000000 
#    z 0.000000 0.000000 1.827140 
# 
# From -- ./inp_files/22554.got.cif
#   From: 2010.03.12/outbox.cif.g09.slc.cpg/sg62_12_cif.got.tgz:22554.got - 2010.04.10 19:12:36.
