data_PCOD8254229
_publ_section_title
;
Structure prediction by ZEFSAII (Michael W. Deem and Ramdas Pophale) SiO2 
 PCOD8254229
Probable space group: P N M A
;
_chemical_formula_sum "Si O2"
_cell_formula_units_Z 64
_cell_length_a 5.565071
_cell_length_b 17.278243
_cell_length_c 28.384861
_cell_angle_alpha 90.000000
_cell_angle_beta 90.000000
_cell_angle_gamma 90.000000
_cell_volume 2729.336348
_symmetry_space_group_name_H-M "P N M A"
_symmetry_group_IT_number 62
_symmetry_cell_setting 'orthorhombic'
loop_
_space_group_symop_operation_xyz
x,y,z
1/2-x,-y,1/2+z
1/2+x,1/2-y,1/2-z
-x,1/2+y,-z
-x,-y,-z
1/2+x,y,1/2-z
1/2-x,1/2+y,1/2+z
x,1/2-y,z
loop_
_atom_site_type_symbol
_atom_site_label
_atom_site_fract_x
_atom_site_fract_y
_atom_site_fract_z
Si Si1 0.331346 0.046347 0.940392
Si Si2 0.550799 0.594398 0.374945
Si Si3 0.410627 0.412559 0.274168
Si Si4 0.689072 0.162718 0.958827
Si Si5 0.201583 0.942471 0.610929
Si Si6 0.588768 0.896294 0.545778
Si Si7 0.441910 0.596502 0.273023
Si Si8 0.318290 0.840157 0.860393
O O1 0.183269 0.102975 0.906753
O O2 0.479517 0.102718 0.975562
O O3 0.492589 0.996579 0.906436
O O4 0.161955 0.985324 0.967529
O O5 0.751093 0.641492 0.404519
O O6 0.611237 0.502791 0.365326
O O7 0.496001 0.631897 0.324583
O O8 0.663613 0.382423 0.251842
O O9 0.420061 0.504532 0.273694
O O10 0.388259 0.378196 0.327430
O O11 0.596593 0.250000 0.960904
O O12 0.906458 0.150435 0.996384
O O13 0.321180 0.896557 0.567199
O O14 0.078957 0.882282 0.647972
O O15 0.756388 0.854229 0.584612
O O16 0.676721 0.626057 0.243460
O O17 0.343432 0.750000 0.849118
#
# Coordination Sequence:
#
# PCOD8254229 Si02
#       8
#     8   8   8   8   8   8   8   8
#     4   9  20  38  64  87 121 162 211 264 321 382
#     4  10  22  39  63  93 127 161 211 273 338 395
#     4  10  23  40  62  90 127 170 222 277 336 395
#     4  11  24  39  61  93 132 171 211 265 338 415
#     4   9  20  37  61  85 119 159 213 264 319 379
#     4  10  21  40  62  90 124 168 224 274 326 391
#     4  10  22  37  68 100 125 160 215 277 333 394
#     4  11  24  38  57  85 124 173 219 273 334 399
#
# _framework density 23.448924999999999
#
# number of rings (size 3 to 8) (size 9 to 14) (size 15 to 20)
#    0.000    2.000    0.000    3.000   10.500    8.500 
#    0.000    0.000    0.000    0.750    0.000    0.000 
#    0.000    0.000    0.000    0.000    0.000    0.000 
#
# Total GULP energy -792878.668328 kJ/mol
# GULP energy per Si atom -12388.729193 kJ/mol
# Density = 2.339555 g / cm^3
# Si number density = 23.448925 Si / 1000 Ang^3
#
#
#
# Elastic Constant Matrix: (Units=GPa)
#
#
# Indices 1 2 3 4 5 6 
#
# 1 108.7302 11.9274 26.7591 0.0000 0.0000 0.0000
# 2 11.9274 54.9117 7.6220 0.0000 0.0000 0.0000
# 3 26.7591 7.6220 114.8036 0.0000 0.0000 0.0000
# 4 0.0000 0.0000 0.0000 19.7776 0.0000 0.0000
# 5 0.0000 0.0000 0.0000 0.0000 34.6669 0.0000
# 6 0.0000 0.0000 0.0000 0.0000 0.0000 9.1755
#
#
#
# Elastic Compliance Matrix: (Units=1/GPa)
#
#
# Indices 1 2 3 4 5 6 
#
# 1 0.009940 -0.001855 -0.002194 0.000000 0.000000 0.000000
# 2 -0.001855 0.018726 -0.000811 0.000000 0.000000 0.000000
# 3 -0.002194 -0.000811 0.009276 0.000000 0.000000 0.000000
# 4 0.000000 0.000000 0.000000 0.050562 0.000000 0.000000
# 5 0.000000 0.000000 0.000000 0.000000 0.028846 0.000000
# 6 0.000000 0.000000 0.000000 0.000000 0.000000 0.108986
#
#
# Mechanical properties :
#
#
# Convention : Reuss Voigt Hill
#
# Bulk Modulus (GPa) = 35.43125 41.22916 38.33020
# Shear Modulus (GPa) = 20.36959 28.19978 24.28469
#
# Velocity S-wave (km/s) = 2.95053 3.47162 3.22163
# Velocity P-wave (km/s) = 5.17207 5.80433 5.49730
#
# Compressibility (1/GPa) = 0.02822367
#
# Stress axis : x y z
#
# Youngs Moduli (GPa) = 100.59915 53.40037 107.80825
#
# Poissons Ratio (x) = 0.09904 0.23651
# Poissons Ratio (y) = 0.18658 0.08743
# Poissons Ratio (z) = 0.22070 0.04331
#
# Static dielectric constant tensor:
#      x y z
#    x 4.746110 0.000000 0.000000 
#    y 0.000000 3.962340 0.000000 
#    z 0.000000 0.000000 4.174000 
# 
# 
# High freq. dielectric constant tensor:
#      x y z
#    x 1.940460 0.000000 0.000000 
#    y 0.000000 1.880430 0.000000 
#    z 0.000000 0.000000 1.921370 
# 
# From -- ./inp_files/31706.got.cif
#   From: 2010.03.12/outbox.cif.g09.slc.cpg/sg62_16_cif.got.tgz:31706.got - 2010.04.10 19:12:36.
