data_PCOD8254467
_publ_section_title
;
Structure prediction by ZEFSAII (Michael W. Deem and Ramdas Pophale) SiO2 
 PCOD8254467
Probable space group: P N M A
;
_chemical_formula_sum "Si O2"
_cell_formula_units_Z 56
_cell_length_a 19.614955
_cell_length_b 8.629369
_cell_length_c 16.274493
_cell_angle_alpha 90.000000
_cell_angle_beta 90.000000
_cell_angle_gamma 90.000000
_cell_volume 2754.696925
_symmetry_space_group_name_H-M "P N M A"
_symmetry_group_IT_number 62
_symmetry_cell_setting 'orthorhombic'
loop_
_space_group_symop_operation_xyz
x,y,z
1/2-x,-y,1/2+z
1/2+x,1/2-y,1/2-z
-x,1/2+y,-z
-x,-y,-z
1/2+x,y,1/2-z
1/2-x,1/2+y,1/2+z
x,1/2-y,z
loop_
_atom_site_type_symbol
_atom_site_label
_atom_site_fract_x
_atom_site_fract_y
_atom_site_fract_z
Si Si1 0.806583 0.070271 0.982063
Si Si2 0.516993 0.568038 0.743205
Si Si3 0.228995 0.430457 0.187346
Si Si4 0.869574 0.569271 0.352414
Si Si5 0.879914 0.070588 0.700796
Si Si6 0.657876 0.072262 0.036590
Si Si7 0.553879 0.567718 0.562491
O O1 0.811846 0.250000 0.955751
O O2 0.805524 0.969655 0.899602
O O3 0.738958 0.041387 0.035262
O O4 0.870300 0.015974 0.036645
O O5 0.530203 0.750000 0.752446
O O6 0.559460 0.477058 0.811836
O O7 0.437930 0.530729 0.755566
O O8 0.539639 0.505616 0.653930
O O9 0.221335 0.250000 0.205936
O O10 0.308392 0.475116 0.189691
O O11 0.191958 0.524377 0.259411
O O12 0.853789 0.750000 0.341365
O O13 0.874376 0.528221 0.448754
O O14 0.895962 0.250000 0.714948
O O15 0.877160 0.036812 0.603696
O O16 0.642568 0.250000 0.059574
O O17 0.500000 0.500000 0.500000
O O18 0.545789 0.750000 0.560565
#
# Coordination Sequence:
#
# PCOD8254467 Si02
#       7
#     8   8   8   8   8   8   8
#     4   9  19  38  61  87 120 155 197 249 305 363
#     4  11  24  41  62  91 124 164 207 251 307 370
#     4  11  22  38  62  90 123 161 203 252 304 364
#     4  10  22  42  65  92 123 159 201 252 310 368
#     4  12  25  40  60  88 122 161 207 257 309 366
#     4   9  20  39  63  88 118 155 200 254 308 364
#     4  10  22  38  59  88 122 161 201 246 300 361
#
# _framework density 20.328916
#
# number of rings (size 3 to 8) (size 9 to 14) (size 15 to 20)
#    0.000    1.714    0.000    5.143    2.000    7.429 
#    0.000    0.000    0.000    0.000    0.000    0.000 
#    0.000    0.000    0.000    0.000    0.000    0.000 
#
# Total GULP energy -694747.680436 kJ/mol
# GULP energy per Si atom -12406.208579 kJ/mol
# Density = 2.028265 g / cm^3
# Si number density = 20.328916 Si / 1000 Ang^3
#
#
#
# Elastic Constant Matrix: (Units=GPa)
#
#
# Indices 1 2 3 4 5 6 
#
# 1 59.4028 19.0936 27.3309 0.0000 0.0000 0.0000
# 2 19.0936 58.6022 31.7685 0.0000 0.0000 0.0000
# 3 27.3309 31.7685 93.2684 0.0000 0.0000 0.0000
# 4 0.0000 0.0000 0.0000 33.2358 0.0000 0.0000
# 5 0.0000 0.0000 0.0000 0.0000 38.0768 0.0000
# 6 0.0000 0.0000 0.0000 0.0000 0.0000 34.3832
#
#
#
# Elastic Compliance Matrix: (Units=1/GPa)
#
#
# Indices 1 2 3 4 5 6 
#
# 1 0.020247 -0.004146 -0.004521 0.000000 0.000000 0.000000
# 2 -0.004146 0.021778 -0.006203 0.000000 0.000000 0.000000
# 3 -0.004521 -0.006203 0.014159 0.000000 0.000000 0.000000
# 4 0.000000 0.000000 0.000000 0.030088 0.000000 0.000000
# 5 0.000000 0.000000 0.000000 0.000000 0.026263 0.000000
# 6 0.000000 0.000000 0.000000 0.000000 0.000000 0.029084
#
#
# Mechanical properties :
#
#
# Convention : Reuss Voigt Hill
#
# Bulk Modulus (GPa) = 37.81519 40.85104 39.33311
# Shear Modulus (GPa) = 27.75117 30.01120 28.88119
#
# Velocity S-wave (km/s) = 3.69875 3.84641 3.77330
# Velocity P-wave (km/s) = 6.07314 6.31389 6.19468
#
# Compressibility (1/GPa) = 0.02644440
#
# Stress axis : x y z
#
# Youngs Moduli (GPa) = 49.39038 45.91874 70.62501
#
# Poissons Ratio (x) = 0.19038 0.31929
# Poissons Ratio (y) = 0.20477 0.43807
# Poissons Ratio (z) = 0.22329 0.28483
#
# Static dielectric constant tensor:
#      x y z
#    x 3.630790 0.000000 0.000000 
#    y 0.000000 3.568740 0.000000 
#    z 0.000000 0.000000 3.742150 
# 
# 
# High freq. dielectric constant tensor:
#      x y z
#    x 1.798190 0.000000 0.000000 
#    y 0.000000 1.791190 0.000000 
#    z 0.000000 0.000000 1.800150 
# 
# From -- ./inp_files/20235.got.cif
#   From: 2010.03.12/outbox.cif.g09.slc.cpg/sg62_11_cif.got.tgz:20235.got - 2010.04.10 19:12:36.
