data_PCOD8254989
_publ_section_title
;
Structure prediction by ZEFSAII (Michael W. Deem and Ramdas Pophale) SiO2 
 PCOD8254989
Probable space group: P N M A
;
_chemical_formula_sum "Si O2"
_cell_formula_units_Z 32
_cell_length_a 12.157424
_cell_length_b 17.836618
_cell_length_c 7.228638
_cell_angle_alpha 90.000000
_cell_angle_beta 90.000000
_cell_angle_gamma 90.000000
_cell_volume 1567.510834
_symmetry_space_group_name_H-M "P N M A"
_symmetry_group_IT_number 62
_symmetry_cell_setting 'orthorhombic'
loop_
_space_group_symop_operation_xyz
x,y,z
1/2-x,-y,1/2+z
1/2+x,1/2-y,1/2-z
-x,1/2+y,-z
-x,-y,-z
1/2+x,y,1/2-z
1/2-x,1/2+y,1/2+z
x,1/2-y,z
loop_
_atom_site_type_symbol
_atom_site_label
_atom_site_fract_x
_atom_site_fract_y
_atom_site_fract_z
Si Si1 0.004622 0.833380 0.498214
Si Si2 0.577017 0.417064 0.320341
Si Si3 0.767455 0.834312 0.581696
Si Si4 0.421602 0.088986 0.642965
O O1 0.045372 0.750000 0.551982
O O2 0.874313 0.832110 0.446905
O O3 0.018762 0.887801 0.677430
O O4 0.074701 0.860054 0.323937
O O5 0.690701 0.371877 0.276858
O O6 0.598062 0.504708 0.289038
O O7 0.535790 0.403179 0.529130
O O8 0.723102 0.750000 0.619275
O O9 0.677118 0.885661 0.487361
#
# Coordination Sequence:
#
# PCOD8254989 Si02
#       4
#     8   8   8   8
#     4   9  20  39  58  86 123 151 199 252 293 362
#     4   9  22  39  57  88 122 150 206 256 293 354
#     4   9  21  39  57  87 123 152 197 251 298 359
#     4  11  20  38  66  84 115 169 200 241 314 359
#
# _framework density 20.414534
#
# number of rings (size 3 to 8) (size 9 to 14) (size 15 to 20)
#    1.500    1.000    0.000    1.500    0.000    8.000 
#    4.500    0.000    0.000    0.000    0.000    0.000 
#    0.000    0.000    0.000    0.000    0.000    0.000 
#
# Total GULP energy -396447.857120 kJ/mol
# GULP energy per Si atom -12388.995535 kJ/mol
# Density = 2.036807 g / cm^3
# Si number density = 20.414534 Si / 1000 Ang^3
#
#
#
# Elastic Constant Matrix: (Units=GPa)
#
#
# Indices 1 2 3 4 5 6 
#
# 1 26.3534 26.7530 12.7603 0.0000 0.0000 0.0000
# 2 26.7530 167.1130 60.0001 0.0000 0.0000 0.0000
# 3 12.7603 60.0001 76.7802 0.0000 0.0000 0.0000
# 4 0.0000 0.0000 0.0000 29.1745 0.0000 0.0000
# 5 0.0000 0.0000 0.0000 0.0000 37.8631 0.0000
# 6 0.0000 0.0000 0.0000 0.0000 0.0000 7.9071
#
#
#
# Elastic Compliance Matrix: (Units=1/GPa)
#
#
# Indices 1 2 3 4 5 6 
#
# 1 0.045682 -0.006376 -0.002609 0.000000 0.000000 0.000000
# 2 -0.006376 0.009208 -0.006136 0.000000 0.000000 0.000000
# 3 -0.002609 -0.006136 0.018253 0.000000 0.000000 0.000000
# 4 0.000000 0.000000 0.000000 0.034277 0.000000 0.000000
# 5 0.000000 0.000000 0.000000 0.000000 0.026411 0.000000
# 6 0.000000 0.000000 0.000000 0.000000 0.000000 0.126468
#
#
# Mechanical properties :
#
#
# Convention : Reuss Voigt Hill
#
# Bulk Modulus (GPa) = 23.31004 52.14148 37.72576
# Shear Modulus (GPa) = 16.40199 26.37114 21.38656
#
# Velocity S-wave (km/s) = 2.83759 3.59804 3.24020
# Velocity P-wave (km/s) = 4.70946 6.54660 5.70250
#
# Compressibility (1/GPa) = 0.04289998
#
# Stress axis : x y z
#
# Youngs Moduli (GPa) = 21.89030 108.60443 54.78682
#
# Poissons Ratio (x) = 0.69251 0.14295
# Poissons Ratio (y) = 0.13958 0.33615
# Poissons Ratio (z) = 0.05712 0.66636
#
# Static dielectric constant tensor:
#      x y z
#    x 3.350080 0.000000 0.000000 
#    y 0.000000 3.752940 0.000000 
#    z 0.000000 0.000000 3.433560 
# 
# 
# High freq. dielectric constant tensor:
#      x y z
#    x 1.773020 0.000000 0.000000 
#    y 0.000000 1.812500 0.000000 
#    z 0.000000 0.000000 1.778830 
# 
# From -- ./inp_files/924.got.cif
#   From: 2010.03.12/outbox.cif.g09.slc.cpg/sg62_1_cif.got.tgz:924.got - 2010.04.10 19:12:36.
