data_PCOD8254356
_publ_section_title
;
Structure prediction by ZEFSAII (Michael W. Deem and Ramdas Pophale) SiO2 
 PCOD8254356
Probable space group: P N M A
;
_chemical_formula_sum "Si O2"
_cell_formula_units_Z 48
_cell_length_a 11.560943
_cell_length_b 8.644911
_cell_length_c 23.825065
_cell_angle_alpha 90.000000
_cell_angle_beta 90.000000
_cell_angle_gamma 90.000000
_cell_volume 2381.156174
_symmetry_space_group_name_H-M "P N M A"
_symmetry_group_IT_number 62
_symmetry_cell_setting 'orthorhombic'
loop_
_space_group_symop_operation_xyz
x,y,z
1/2-x,-y,1/2+z
1/2+x,1/2-y,1/2-z
-x,1/2+y,-z
-x,-y,-z
1/2+x,y,1/2-z
1/2-x,1/2+y,1/2+z
x,1/2-y,z
loop_
_atom_site_type_symbol
_atom_site_label
_atom_site_fract_x
_atom_site_fract_y
_atom_site_fract_z
Si Si1 0.034271 0.932804 0.400785
Si Si2 0.877791 0.430779 0.824709
Si Si3 0.215893 0.567259 0.581926
Si Si4 0.155299 0.068997 0.297139
Si Si5 0.611327 0.927210 0.640091
Si Si6 0.743700 0.069465 0.032759
O O1 0.031957 0.750000 0.403428
O O2 0.064725 0.986189 0.338034
O O3 0.125625 0.995349 0.445419
O O4 0.911227 0.997930 0.418137
O O5 0.852566 0.250000 0.822071
O O6 0.784976 0.510201 0.864381
O O7 0.863387 0.503762 0.764059
O O8 0.006638 0.458786 0.847178
O O9 0.210236 0.750000 0.582837
O O10 0.280638 0.509430 0.525626
O O11 0.127854 0.250000 0.298996
O O12 0.286023 0.035376 0.316513
O O13 0.570092 0.750000 0.646785
O O14 0.653414 0.959561 0.576851
O O15 0.721361 0.250000 0.023906
#
# Coordination Sequence:
#
# PCOD8254356 Si02
#       6
#     8   8   8   8   8   8
#     4  11  22  39  64  95 127 162 207 257 311 365
#     4  12  26  41  61  91 126 163 207 258 309 366
#     4  12  25  41  62  90 126 166 209 256 309 368
#     4  10  22  42  66  90 122 163 207 253 308 369
#     4   9  21  42  66  89 119 161 205 250 307 370
#     4  10  21  41  66  93 125 162 207 256 309 368
#
# _framework density 20.158273000000001
#
# number of rings (size 3 to 8) (size 9 to 14) (size 15 to 20)
#    0.000    1.333    0.000    7.000    2.333    4.667 
#    0.000    0.000    0.000    0.000    0.000    0.000 
#    0.000    0.000    0.000    0.000    0.000    0.000 
#
# Total GULP energy -595497.002791 kJ/mol
# GULP energy per Si atom -12406.187558 kJ/mol
# Density = 2.011239 g / cm^3
# Si number density = 20.158273 Si / 1000 Ang^3
#
#
#
# Elastic Constant Matrix: (Units=GPa)
#
#
# Indices 1 2 3 4 5 6 
#
# 1 29.2422 17.8076 -2.9663 0.0000 0.0000 0.0000
# 2 17.8076 164.7195 39.8400 0.0000 0.0000 0.0000
# 3 -2.9663 39.8400 110.6657 0.0000 0.0000 0.0000
# 4 0.0000 0.0000 0.0000 38.6222 0.0000 0.0000
# 5 0.0000 0.0000 0.0000 0.0000 68.2928 0.0000
# 6 0.0000 0.0000 0.0000 0.0000 0.0000 32.0218
#
#
#
# Elastic Compliance Matrix: (Units=1/GPa)
#
#
# Indices 1 2 3 4 5 6 
#
# 1 0.037323 -0.004685 0.002687 0.000000 0.000000 0.000000
# 2 -0.004685 0.007238 -0.002731 0.000000 0.000000 0.000000
# 3 0.002687 -0.002731 0.010092 0.000000 0.000000 0.000000
# 4 0.000000 0.000000 0.000000 0.025892 0.000000 0.000000
# 5 0.000000 0.000000 0.000000 0.000000 0.014643 0.000000
# 6 0.000000 0.000000 0.000000 0.000000 0.000000 0.031229
#
#
# Mechanical properties :
#
#
# Convention : Reuss Voigt Hill
#
# Bulk Modulus (GPa) = 22.12689 45.99888 34.06289
# Shear Modulus (GPa) = 33.12612 44.45045 38.78829
#
# Velocity S-wave (km/s) = 4.05816 4.70091 4.39131
# Velocity P-wave (km/s) = 5.74096 7.23417 6.53038
#
# Compressibility (1/GPa) = 0.04519388
#
# Stress axis : x y z
#
# Youngs Moduli (GPa) = 26.79343 138.15990 99.09322
#
# Poissons Ratio (x) = 0.64725 -0.26626
# Poissons Ratio (y) = 0.12552 0.27065
# Poissons Ratio (z) = -0.07199 0.37735
#
# Static dielectric constant tensor:
#      x y z
#    x 3.611400 0.000000 0.000000 
#    y 0.000000 3.800320 0.000000 
#    z 0.000000 0.000000 3.917220 
# 
# 
# High freq. dielectric constant tensor:
#      x y z
#    x 1.784560 0.000000 0.000000 
#    y 0.000000 1.802260 0.000000 
#    z 0.000000 0.000000 1.804220 
# 
# From -- ./inp_files/29265.got.cif
#   From: 2010.03.12/outbox.cif.g09.slc.cpg/sg62_15_cif.got.tgz:29265.got - 2010.04.10 19:12:36.
