data_PCOD8254748
_publ_section_title
;
Structure prediction by ZEFSAII (Michael W. Deem and Ramdas Pophale) SiO2 
 PCOD8254748
Probable space group: P N M A
;
_chemical_formula_sum "Si O2"
_cell_formula_units_Z 40
_cell_length_a 11.207511
_cell_length_b 18.482933
_cell_length_c 8.704187
_cell_angle_alpha 90.000000
_cell_angle_beta 90.000000
_cell_angle_gamma 90.000000
_cell_volume 1803.052099
_symmetry_space_group_name_H-M "P N M A"
_symmetry_group_IT_number 62
_symmetry_cell_setting 'orthorhombic'
loop_
_space_group_symop_operation_xyz
x,y,z
1/2-x,-y,1/2+z
1/2+x,1/2-y,1/2-z
-x,1/2+y,-z
-x,-y,-z
1/2+x,y,1/2-z
1/2-x,1/2+y,1/2+z
x,1/2-y,z
loop_
_atom_site_type_symbol
_atom_site_label
_atom_site_fract_x
_atom_site_fract_y
_atom_site_fract_z
Si Si1 0.110917 0.960738 0.075125
Si Si2 0.530880 0.168418 0.987160
Si Si3 0.233712 0.832877 0.568717
Si Si4 0.546353 0.166939 0.641537
Si Si5 0.694468 0.065729 0.171769
O O1 0.072583 0.877805 0.102293
O O2 0.142309 0.997403 0.237249
O O3 0.224626 0.964665 0.964667
O O4 0.000000 0.000000 0.000000
O O5 0.560656 0.250000 0.043335
O O6 0.388772 0.157441 0.976470
O O7 0.584262 0.111486 0.105906
O O8 0.584826 0.154991 0.818165
O O9 0.252783 0.750000 0.619090
O O10 0.342261 0.859303 0.461007
O O11 0.227764 0.882391 0.719390
O O12 0.513171 0.250000 0.609541
#
# Coordination Sequence:
#
# PCOD8254748 Si02
#       5
#     8   8   8   8   8
#     4  12  28  47  69 102 141 183 233 287 351 410
#     4  10  24  45  73 104 135 180 230 282 345 415
#     4  10  22  44  70 101 139 177 228 287 343 411
#     4  10  24  45  72 101 136 181 231 285 346 415
#     4  12  27  44  69 101 139 186 230 284 345 409
#
# _framework density 22.184607
#
# number of rings (size 3 to 8) (size 9 to 14) (size 15 to 20)
#    0.000    1.200    2.000    1.800    8.400    2.400 
#    0.000    0.000    0.000    0.000    0.000    0.000 
#    0.000    0.000    0.000    0.000    0.000    0.000 
#
# Total GULP energy -496253.922672 kJ/mol
# GULP energy per Si atom -12406.348067 kJ/mol
# Density = 2.213411 g / cm^3
# Si number density = 22.184607 Si / 1000 Ang^3
#
#
#
# Elastic Constant Matrix: (Units=GPa)
#
#
# Indices 1 2 3 4 5 6 
#
# 1 111.7834 60.3997 51.2884 0.0000 0.0000 0.0000
# 2 60.3997 110.3220 57.4146 0.0000 0.0000 0.0000
# 3 51.2884 57.4146 112.2994 0.0000 0.0000 0.0000
# 4 0.0000 0.0000 0.0000 47.0511 0.0000 0.0000
# 5 0.0000 0.0000 0.0000 0.0000 42.2254 0.0000
# 6 0.0000 0.0000 0.0000 0.0000 0.0000 37.8856
#
#
#
# Elastic Compliance Matrix: (Units=1/GPa)
#
#
# Indices 1 2 3 4 5 6 
#
# 1 0.013526 -0.005709 -0.003258 0.000000 0.000000 0.000000
# 2 -0.005709 0.014761 -0.004939 0.000000 0.000000 0.000000
# 3 -0.003258 -0.004939 0.012918 0.000000 0.000000 0.000000
# 4 0.000000 0.000000 0.000000 0.021254 0.000000 0.000000
# 5 0.000000 0.000000 0.000000 0.000000 0.023682 0.000000
# 6 0.000000 0.000000 0.000000 0.000000 0.000000 0.026395
#
#
# Mechanical properties :
#
#
# Convention : Reuss Voigt Hill
#
# Bulk Modulus (GPa) = 74.67783 74.73445 74.70614
# Shear Modulus (GPa) = 34.52731 36.45256 35.48993
#
# Velocity S-wave (km/s) = 3.94936 4.05797 4.00403
# Velocity P-wave (km/s) = 7.38455 7.46437 7.42457
#
# Compressibility (1/GPa) = 0.01339085
#
# Stress axis : x y z
#
# Youngs Moduli (GPa) = 73.93246 67.74792 77.41122
#
# Poissons Ratio (x) = 0.38680 0.25223
# Poissons Ratio (y) = 0.42211 0.38233
# Poissons Ratio (z) = 0.24090 0.33461
#
# Static dielectric constant tensor:
#      x y z
#    x 3.890010 0.000000 0.000000 
#    y 0.000000 4.234360 0.000000 
#    z 0.000000 0.000000 4.037820 
# 
# 
# High freq. dielectric constant tensor:
#      x y z
#    x 1.869760 0.000000 0.000000 
#    y 0.000000 1.888600 0.000000 
#    z 0.000000 0.000000 1.876240 
# 
# From -- ./inp_files/5015.got.cif
#   From: 2010.03.12/outbox.cif.g09.slc.cpg/sg62_3_cif.got.tgz:5015.got - 2010.04.10 19:12:36.
