data_PCOD8254695
_publ_section_title
;
Structure prediction by ZEFSAII (Michael W. Deem and Ramdas Pophale) SiO2 
 PCOD8254695
Probable space group: P N M A
;
_chemical_formula_sum "Si O2"
_cell_formula_units_Z 48
_cell_length_a 9.917833
_cell_length_b 21.781638
_cell_length_c 10.436758
_cell_angle_alpha 90.000000
_cell_angle_beta 90.000000
_cell_angle_gamma 90.000000
_cell_volume 2254.617848
_symmetry_space_group_name_H-M "P N M A"
_symmetry_group_IT_number 62
_symmetry_cell_setting 'orthorhombic'
loop_
_space_group_symop_operation_xyz
x,y,z
1/2-x,-y,1/2+z
1/2+x,1/2-y,1/2-z
-x,1/2+y,-z
-x,-y,-z
1/2+x,y,1/2-z
1/2-x,1/2+y,1/2+z
x,1/2-y,z
loop_
_atom_site_type_symbol
_atom_site_label
_atom_site_fract_x
_atom_site_fract_y
_atom_site_fract_z
Si Si1 0.688871 0.992021 0.239243
Si Si2 0.702664 0.372818 0.867008
Si Si3 0.421256 0.406893 0.973611
Si Si4 0.194680 0.319536 0.907786
Si Si5 0.577247 0.678539 0.547605
Si Si6 0.445818 0.070091 0.265833
O O1 0.739362 0.940407 0.338155
O O2 0.626108 0.964567 0.109987
O O3 0.576728 0.032212 0.314523
O O4 0.811319 0.034649 0.192939
O O5 0.547320 0.374919 0.905777
O O6 0.713775 0.330784 0.742245
O O7 0.784052 0.340571 0.980620
O O8 0.298837 0.359464 0.989166
O O9 0.461497 0.428477 0.113541
O O10 0.229239 0.250000 0.940618
O O11 0.042562 0.335825 0.948152
O O12 0.581599 0.750000 0.588189
O O13 0.555002 0.638280 0.675183
#
# Coordination Sequence:
#
# PCOD8254695 Si02
#       6
#     8   8   8   8   8   8
#     4  11  24  41  66 101 131 172 221 274 333 395
#     4  11  23  42  68  99 132 169 222 281 332 387
#     4  11  24  43  63  99 134 173 221 269 336 403
#     4  10  22  42  67  96 130 174 228 279 325 380
#     4  11  26  45  67  98 134 179 227 267 328 401
#     4  12  25  43  67  95 138 178 213 275 333 401
#
# _framework density 21.289636999999999
#
# number of rings (size 3 to 8) (size 9 to 14) (size 15 to 20)
#    0.000    1.000    1.667    5.000    4.667    4.000 
#    0.000    4.167    0.000    0.000    0.000    0.000 
#    0.000    0.000    0.000    0.000    0.000    0.000 
#
# Total GULP energy -595519.268516 kJ/mol
# GULP energy per Si atom -12406.651427 kJ/mol
# Density = 2.124118 g / cm^3
# Si number density = 21.289637 Si / 1000 Ang^3
#
#
#
# Elastic Constant Matrix: (Units=GPa)
#
#
# Indices 1 2 3 4 5 6 
#
# 1 120.1441 55.7971 11.7080 0.0000 0.0000 0.0000
# 2 55.7971 134.1388 26.2459 0.0000 0.0000 0.0000
# 3 11.7080 26.2459 58.4041 0.0000 0.0000 0.0000
# 4 0.0000 0.0000 0.0000 23.5013 0.0000 0.0000
# 5 0.0000 0.0000 0.0000 0.0000 23.8851 0.0000
# 6 0.0000 0.0000 0.0000 0.0000 0.0000 33.3925
#
#
#
# Elastic Compliance Matrix: (Units=1/GPa)
#
#
# Indices 1 2 3 4 5 6 
#
# 1 0.010317 -0.004262 -0.000153 0.000000 0.000000 0.000000
# 2 -0.004262 0.009934 -0.003610 0.000000 0.000000 0.000000
# 3 -0.000153 -0.003610 0.018775 0.000000 0.000000 0.000000
# 4 0.000000 0.000000 0.000000 0.042551 0.000000 0.000000
# 5 0.000000 0.000000 0.000000 0.000000 0.041867 0.000000
# 6 0.000000 0.000000 0.000000 0.000000 0.000000 0.029947
#
#
# Mechanical properties :
#
#
# Convention : Reuss Voigt Hill
#
# Bulk Modulus (GPa) = 43.52173 55.57654 49.54913
# Shear Modulus (GPa) = 28.23268 30.75153 29.49211
#
# Velocity S-wave (km/s) = 3.64555 3.80470 3.72597
# Velocity P-wave (km/s) = 6.18119 6.74260 6.46799
#
# Compressibility (1/GPa) = 0.02297703
#
# Stress axis : x y z
#
# Youngs Moduli (GPa) = 96.92271 100.66411 53.26227
#
# Poissons Ratio (x) = 0.42901 0.00816
# Poissons Ratio (y) = 0.41306 0.19227
# Poissons Ratio (z) = 0.01484 0.36338
#
# Static dielectric constant tensor:
#      x y z
#    x 4.068570 0.000000 0.000000 
#    y 0.000000 3.925440 0.000000 
#    z 0.000000 0.000000 3.560120 
# 
# 
# High freq. dielectric constant tensor:
#      x y z
#    x 1.855900 0.000000 0.000000 
#    y 0.000000 1.842470 0.000000 
#    z 0.000000 0.000000 1.822570 
# 
# From -- ./inp_files/11291.got.cif
#   From: 2010.03.12/outbox.cif.g09.slc.cpg/sg62_6_cif.got.tgz:11291.got - 2010.04.10 19:12:36.
