data_PCOD8254023
_publ_section_title
;
Structure prediction by ZEFSAII (Michael W. Deem and Ramdas Pophale) SiO2 
 PCOD8254023
Probable space group: P N M A
;
_chemical_formula_sum "Si O2"
_cell_formula_units_Z 48
_cell_length_a 18.607777
_cell_length_b 8.981736
_cell_length_c 14.833147
_cell_angle_alpha 90.000000
_cell_angle_beta 90.000000
_cell_angle_gamma 90.000000
_cell_volume 2479.065943
_symmetry_space_group_name_H-M "P N M A"
_symmetry_group_IT_number 62
_symmetry_cell_setting 'orthorhombic'
loop_
_space_group_symop_operation_xyz
x,y,z
1/2-x,-y,1/2+z
1/2+x,1/2-y,1/2-z
-x,1/2+y,-z
-x,-y,-z
1/2+x,y,1/2-z
1/2-x,1/2+y,1/2+z
x,1/2-y,z
loop_
_atom_site_type_symbol
_atom_site_label
_atom_site_fract_x
_atom_site_fract_y
_atom_site_fract_z
Si Si1 0.436460 0.575715 0.945969
Si Si2 0.717480 0.074177 0.992298
Si Si3 0.322232 0.580913 0.372966
Si Si4 0.230792 0.921214 0.201665
Si Si5 0.484489 0.925311 0.405252
Si Si6 0.584420 0.075930 0.259539
O O1 0.440010 0.750000 0.965348
O O2 0.360505 0.508896 0.980905
O O3 0.445100 0.541013 0.840128
O O4 0.500000 0.500000 0.000000
O O5 0.713871 0.250000 0.997177
O O6 0.777567 0.022702 0.061406
O O7 0.739425 0.019000 0.893235
O O8 0.313342 0.750000 0.406906
O O9 0.296211 0.562506 0.270873
O O10 0.404719 0.531149 0.374552
O O11 0.204352 0.750000 0.194845
O O12 0.166609 0.025041 0.234769
O O13 0.495581 0.750000 0.414668
O O14 0.500000 0.000000 0.500000
O O15 0.538672 0.985098 0.330891
O O16 0.580078 0.250000 0.282031
#
# Coordination Sequence:
#
# PCOD8254023 Si02
#       6
#     8   8   8   8   8   8
#     4  10  23  40  60  87 120 160 202 250 302 360
#     4  10  21  39  62  87 118 154 195 247 301 353
#     4  10  22  39  60  88 118 152 198 246 295 357
#     4  10  21  38  62  88 115 154 200 245 303 362
#     4  11  24  41  63  91 124 162 203 251 302 360
#     4  11  23  41  62  90 125 160 201 248 305 365
#
# _framework density 19.362133
#
# number of rings (size 3 to 8) (size 9 to 14) (size 15 to 20)
#    0.000    1.667    1.667    2.000    2.333    6.667 
#    0.000    0.000    0.000    0.000    0.000    0.000 
#    0.000    0.000    0.000    0.000    0.000    0.000 
#
# Total GULP energy -595415.609215 kJ/mol
# GULP energy per Si atom -12404.491859 kJ/mol
# Density = 1.931806 g / cm^3
# Si number density = 19.362133 Si / 1000 Ang^3
#
#
#
# Elastic Constant Matrix: (Units=GPa)
#
#
# Indices 1 2 3 4 5 6 
#
# 1 110.8214 32.2172 33.7616 0.0000 0.0000 0.0000
# 2 32.2172 49.0269 34.0854 0.0000 0.0000 0.0000
# 3 33.7616 34.0854 111.3560 0.0000 0.0000 0.0000
# 4 0.0000 0.0000 0.0000 31.2557 0.0000 0.0000
# 5 0.0000 0.0000 0.0000 0.0000 41.7946 0.0000
# 6 0.0000 0.0000 0.0000 0.0000 0.0000 32.1499
#
#
#
# Elastic Compliance Matrix: (Units=1/GPa)
#
#
# Indices 1 2 3 4 5 6 
#
# 1 0.011341 -0.006430 -0.001470 0.000000 0.000000 0.000000
# 2 -0.006430 0.029557 -0.007098 0.000000 0.000000 0.000000
# 3 -0.001470 -0.007098 0.011598 0.000000 0.000000 0.000000
# 4 0.000000 0.000000 0.000000 0.031994 0.000000 0.000000
# 5 0.000000 0.000000 0.000000 0.000000 0.023927 0.000000
# 6 0.000000 0.000000 0.000000 0.000000 0.000000 0.031104
#
#
# Mechanical properties :
#
#
# Convention : Reuss Voigt Hill
#
# Bulk Modulus (GPa) = 44.44408 52.37031 48.40719
# Shear Modulus (GPa) = 28.24579 32.44938 30.34758
#
# Velocity S-wave (km/s) = 3.82359 4.09824 3.96329
# Velocity P-wave (km/s) = 6.51898 7.03567 6.78224
#
# Compressibility (1/GPa) = 0.02250019
#
# Stress axis : x y z
#
# Youngs Moduli (GPa) = 88.17746 33.83282 86.21838
#
# Poissons Ratio (x) = 0.21756 0.12675
# Poissons Ratio (y) = 0.56701 0.61195
# Poissons Ratio (z) = 0.12963 0.24013
#
# Static dielectric constant tensor:
#      x y z
#    x 3.807900 0.000000 0.000000 
#    y 0.000000 3.492290 0.000000 
#    z 0.000000 0.000000 3.690730 
# 
# 
# High freq. dielectric constant tensor:
#      x y z
#    x 1.764740 0.000000 0.000000 
#    y 0.000000 1.749160 0.000000 
#    z 0.000000 0.000000 1.770250 
# 
# From -- ./inp_files/19529.got.cif
#   From: 2010.03.12/outbox.cif.g09.slc.cpg/sg62_10_cif.got.tgz:19529.got - 2010.04.10 19:12:36.
