data_PCOD8254608
_publ_section_title
;
Structure prediction by ZEFSAII (Michael W. Deem and Ramdas Pophale) SiO2 
 PCOD8254608
Probable space group: P N M A
;
_chemical_formula_sum "Si O2"
_cell_formula_units_Z 40
_cell_length_a 18.415845
_cell_length_b 8.729817
_cell_length_c 12.430338
_cell_angle_alpha 90.000000
_cell_angle_beta 90.000000
_cell_angle_gamma 90.000000
_cell_volume 1998.387612
_symmetry_space_group_name_H-M "P N M A"
_symmetry_group_IT_number 62
_symmetry_cell_setting 'orthorhombic'
loop_
_space_group_symop_operation_xyz
x,y,z
1/2-x,-y,1/2+z
1/2+x,1/2-y,1/2-z
-x,1/2+y,-z
-x,-y,-z
1/2+x,y,1/2-z
1/2-x,1/2+y,1/2+z
x,1/2-y,z
loop_
_atom_site_type_symbol
_atom_site_label
_atom_site_fract_x
_atom_site_fract_y
_atom_site_fract_z
Si Si1 0.071753 0.929655 0.449902
Si Si2 0.544690 0.068532 0.268597
Si Si3 0.148546 0.068455 0.043368
Si Si4 0.695260 0.569851 0.880991
Si Si5 0.110505 0.431331 0.806958
O O1 0.060348 0.750000 0.437564
O O2 0.139782 0.970523 0.524127
O O3 0.087569 0.002547 0.333727
O O4 0.000000 0.000000 0.500000
O O5 0.543233 0.250000 0.260561
O O6 0.586129 0.011143 0.375339
O O7 0.463213 0.007789 0.266964
O O8 0.151452 0.250000 0.039468
O O9 0.226384 0.007076 0.082564
O O10 0.130124 0.004595 0.925189
O O11 0.695906 0.750000 0.855708
O O12 0.674636 0.479769 0.772970
O O13 0.100821 0.250000 0.806890
#
# Coordination Sequence:
#
# PCOD8254608 Si02
#       5
#     8   8   8   8   8
#     4  11  22  37  61  88 120 156 199 246 295 351
#     4  11  22  39  63  88 120 158 200 246 299 355
#     4   9  22  41  61  87 121 159 197 248 303 355
#     4  10  22  41  61  85 120 158 195 245 305 354
#     4  11  22  39  63  89 119 155 201 247 296 355
#
# _framework density 20.016137000000001
#
# number of rings (size 3 to 8) (size 9 to 14) (size 15 to 20)
#    0.000    1.600    2.000    2.400    2.800    0.800 
#    0.000    6.000    0.000    0.000    0.000    0.000 
#    0.000    0.000    0.000    0.000    0.000    0.000 
#
# Total GULP energy -496200.079502 kJ/mol
# GULP energy per Si atom -12405.001988 kJ/mol
# Density = 1.997058 g / cm^3
# Si number density = 20.016137 Si / 1000 Ang^3
#
#
#
# Elastic Constant Matrix: (Units=GPa)
#
#
# Indices 1 2 3 4 5 6 
#
# 1 75.4088 14.0443 24.0433 0.0000 0.0000 0.0000
# 2 14.0443 57.4484 34.2639 0.0000 0.0000 0.0000
# 3 24.0433 34.2639 153.5853 0.0000 0.0000 0.0000
# 4 0.0000 0.0000 0.0000 33.0738 0.0000 0.0000
# 5 0.0000 0.0000 0.0000 0.0000 33.2553 0.0000
# 6 0.0000 0.0000 0.0000 0.0000 0.0000 19.2744
#
#
#
# Elastic Compliance Matrix: (Units=1/GPa)
#
#
# Indices 1 2 3 4 5 6 
#
# 1 0.014259 -0.002485 -0.001678 0.000000 0.000000 0.000000
# 2 -0.002485 0.020512 -0.004187 0.000000 0.000000 0.000000
# 3 -0.001678 -0.004187 0.007708 0.000000 0.000000 0.000000
# 4 0.000000 0.000000 0.000000 0.030235 0.000000 0.000000
# 5 0.000000 0.000000 0.000000 0.000000 0.030070 0.000000
# 6 0.000000 0.000000 0.000000 0.000000 0.000000 0.051882
#
#
# Mechanical properties :
#
#
# Convention : Reuss Voigt Hill
#
# Bulk Modulus (GPa) = 38.79201 47.90505 43.34853
# Shear Modulus (GPa) = 27.78412 31.39345 29.58879
#
# Velocity S-wave (km/s) = 3.72974 3.96461 3.84897
# Velocity P-wave (km/s) = 6.16202 6.70393 6.43868
#
# Compressibility (1/GPa) = 0.02577850
#
# Stress axis : x y z
#
# Youngs Moduli (GPa) = 70.13198 48.75268 129.73914
#
# Poissons Ratio (x) = 0.12116 0.21767
# Poissons Ratio (y) = 0.17429 0.54321
# Poissons Ratio (z) = 0.11766 0.20413
#
# Static dielectric constant tensor:
#      x y z
#    x 3.764560 0.000000 0.000000 
#    y 0.000000 3.474460 0.000000 
#    z 0.000000 0.000000 4.045310 
# 
# 
# High freq. dielectric constant tensor:
#      x y z
#    x 1.786120 0.000000 0.000000 
#    y 0.000000 1.766670 0.000000 
#    z 0.000000 0.000000 1.801220 
# 
# From -- ./inp_files/13859.got.cif
#   From: 2010.03.12/outbox.cif.g09.slc.cpg/sg62_7_cif.got.tgz:13859.got - 2010.04.10 19:12:36.
