data_PCOD8254459
_publ_section_title
;
Structure prediction by ZEFSAII (Michael W. Deem and Ramdas Pophale) SiO2 
 PCOD8254459
Probable space group: P N M A
;
_chemical_formula_sum "Si O2"
_cell_formula_units_Z 40
_cell_length_a 7.730155
_cell_length_b 11.903027
_cell_length_c 20.441255
_cell_angle_alpha 90.000000
_cell_angle_beta 90.000000
_cell_angle_gamma 90.000000
_cell_volume 1880.845736
_symmetry_space_group_name_H-M "P N M A"
_symmetry_group_IT_number 62
_symmetry_cell_setting 'orthorhombic'
loop_
_space_group_symop_operation_xyz
x,y,z
1/2-x,-y,1/2+z
1/2+x,1/2-y,1/2-z
-x,1/2+y,-z
-x,-y,-z
1/2+x,y,1/2-z
1/2-x,1/2+y,1/2+z
x,1/2-y,z
loop_
_atom_site_type_symbol
_atom_site_label
_atom_site_fract_x
_atom_site_fract_y
_atom_site_fract_z
Si Si1 0.063653 0.124115 0.366630
Si Si2 0.757882 0.876304 0.506082
Si Si3 0.263926 0.537821 0.137750
Si Si4 0.711884 0.250000 0.652704
Si Si5 0.901780 0.750000 0.293684
Si Si6 0.120299 0.490278 0.884912
O O1 0.066618 0.250000 0.337729
O O2 0.072504 0.126135 0.446575
O O3 0.234818 0.055877 0.341121
O O4 0.889624 0.064144 0.342878
O O5 0.682599 0.750000 0.498265
O O6 0.807006 0.923670 0.435785
O O7 0.615682 0.955647 0.542083
O O8 0.294604 0.640467 0.186272
O O9 0.067983 0.495423 0.147088
O O10 0.585048 0.250000 0.715325
O O11 0.670616 0.140959 0.609046
O O12 0.911006 0.250000 0.673751
#
# Coordination Sequence:
#
# PCOD8254459 Si02
#       6
#     8   8   8   4   4   8
#     4   9  21  37  57  86 122 165 206 249 308 368
#     4   9  19  37  57  85 128 166 208 255 309 373
#     4  12  20  38  61  91 125 165 205 258 317 368
#     4  12  24  44  62  99 125 166 208 259 325 365
#     4  12  24  40  68  93 127 162 206 267 309 385
#     4  10  22  38  57  88 126 159 207 255 306 374
#
# _framework density 21.267029000000001
#
# number of rings (size 3 to 8) (size 9 to 14) (size 15 to 20)
#    1.200    0.400    3.000    3.000    0.000    1.600 
#    1.800    0.000    0.000    2.400    0.000    0.000 
#    0.000    0.000    0.000    0.000    0.000    0.000 
#
# Total GULP energy -495718.348712 kJ/mol
# GULP energy per Si atom -12392.958718 kJ/mol
# Density = 2.121862 g / cm^3
# Si number density = 21.267029 Si / 1000 Ang^3
#
#
#
# Elastic Constant Matrix: (Units=GPa)
#
#
# Indices 1 2 3 4 5 6 
#
# 1 127.9998 72.4603 -2.1050 0.0000 0.0000 0.0000
# 2 72.4603 188.8881 17.8600 0.0000 0.0000 0.0000
# 3 -2.1050 17.8600 27.7324 0.0000 0.0000 0.0000
# 4 0.0000 0.0000 0.0000 14.8168 0.0000 0.0000
# 5 0.0000 0.0000 0.0000 0.0000 16.4870 0.0000
# 6 0.0000 0.0000 0.0000 0.0000 0.0000 11.0894
#
#
#
# Elastic Compliance Matrix: (Units=1/GPa)
#
#
# Indices 1 2 3 4 5 6 
#
# 1 0.010296 -0.004285 0.003541 0.000000 0.000000 0.000000
# 2 -0.004285 0.007420 -0.005104 0.000000 0.000000 0.000000
# 3 0.003541 -0.005104 0.039615 0.000000 0.000000 0.000000
# 4 0.000000 0.000000 0.000000 0.067491 0.000000 0.000000
# 5 0.000000 0.000000 0.000000 0.000000 0.060654 0.000000
# 6 0.000000 0.000000 0.000000 0.000000 0.000000 0.090177
#
#
# Mechanical properties :
#
#
# Convention : Reuss Voigt Hill
#
# Bulk Modulus (GPa) = 21.91266 57.89458 39.90362
# Shear Modulus (GPa) = 16.52563 25.57228 21.04896
#
# Velocity S-wave (km/s) = 2.79059 3.47138 3.14944
# Velocity P-wave (km/s) = 4.55073 6.58400 5.65943
#
# Compressibility (1/GPa) = 0.04563572
#
# Stress axis : x y z
#
# Youngs Moduli (GPa) = 97.12288 134.76403 25.24317
#
# Poissons Ratio (x) = 0.57741 -0.08938
# Poissons Ratio (y) = 0.41613 0.12884
# Poissons Ratio (z) = -0.34390 0.68784
#
# Static dielectric constant tensor:
#      x y z
#    x 3.682110 0.000000 0.000000 
#    y 0.000000 3.962120 0.000000 
#    z 0.000000 0.000000 3.395160 
# 
# 
# High freq. dielectric constant tensor:
#      x y z
#    x 1.827790 0.000000 0.000000 
#    y 0.000000 1.845750 0.000000 
#    z 0.000000 0.000000 1.796070 
# 
# From -- ./inp_files/25801.got.cif
#   From: 2010.03.12/outbox.cif.g09.slc.cpg/sg62_13_cif.got.tgz:25801.got - 2010.04.10 19:12:36.
