data_PCOD8254759
_publ_section_title
;
Structure prediction by ZEFSAII (Michael W. Deem and Ramdas Pophale) SiO2 
 PCOD8254759
Probable space group: P N M A
;
_chemical_formula_sum "Si O2"
_cell_formula_units_Z 48
_cell_length_a 12.619708
_cell_length_b 17.833829
_cell_length_c 10.194298
_cell_angle_alpha 90.000000
_cell_angle_beta 90.000000
_cell_angle_gamma 90.000000
_cell_volume 2294.305409
_symmetry_space_group_name_H-M "P N M A"
_symmetry_group_IT_number 62
_symmetry_cell_setting 'orthorhombic'
loop_
_space_group_symop_operation_xyz
x,y,z
1/2-x,-y,1/2+z
1/2+x,1/2-y,1/2-z
-x,1/2+y,-z
-x,-y,-z
1/2+x,y,1/2-z
1/2-x,1/2+y,1/2+z
x,1/2-y,z
loop_
_atom_site_type_symbol
_atom_site_label
_atom_site_fract_x
_atom_site_fract_y
_atom_site_fract_z
Si Si1 0.577393 0.750000 0.918850
Si Si2 0.044795 0.002395 0.807153
Si Si3 0.956826 0.750000 0.317329
Si Si4 0.609523 0.596032 0.468481
Si Si5 0.983602 0.250000 0.977670
Si Si6 0.842240 0.898268 0.393936
Si Si7 0.180962 0.250000 0.159197
Si Si8 0.424617 0.627102 0.822638
O O1 0.702757 0.750000 0.901885
O O2 0.528763 0.676758 0.849899
O O3 0.548486 0.750000 0.072647
O O4 0.955260 0.943273 0.765628
O O5 0.112702 0.030113 0.683833
O O6 0.122277 0.963411 0.913083
O O7 0.986159 0.072991 0.872259
O O8 0.015079 0.750000 0.179206
O O9 0.881648 0.821661 0.329910
O O10 0.580734 0.677475 0.528200
O O11 0.715852 0.599359 0.383713
O O12 0.100881 0.250000 0.037074
O O13 0.875718 0.904700 0.544374
O O14 0.164221 0.323754 0.248364
#
# Coordination Sequence:
#
# PCOD8254759 Si02
#       8
#     4   8   4   8   4   8   4   8
#     4   9  23  41  65  99 132 179 227 281 321 402
#     4  11  24  46  60 102 137 168 229 273 339 399
#     4  10  22  47  63 102 132 170 240 270 331 400
#     4  11  26  42  71  94 135 180 221 282 330 408
#     4  12  22  47  67  96 136 172 222 288 323 391
#     4  11  24  43  70  95 132 184 218 275 341 398
#     4  11  23  39  73 101 130 183 227 271 341 399
#     4  10  23  42  65  98 137 171 228 278 328 406
#
# _framework density 20.921365000000002
#
# number of rings (size 3 to 8) (size 9 to 14) (size 15 to 20)
#    0.000    1.333    3.333    1.500    4.667    1.333 
#    0.000    0.000    0.000    0.000    0.000    0.000 
#    0.000    0.000    0.000    0.000    0.000    0.000 
#
# Total GULP energy -595511.289968 kJ/mol
# GULP energy per Si atom -12406.485208 kJ/mol
# Density = 2.087375 g / cm^3
# Si number density = 20.921365 Si / 1000 Ang^3
#
#
#
# Elastic Constant Matrix: (Units=GPa)
#
#
# Indices 1 2 3 4 5 6 
#
# 1 131.5912 50.0306 42.2872 0.0000 0.0000 0.0000
# 2 50.0306 112.2589 34.2868 0.0000 0.0000 0.0000
# 3 42.2872 34.2868 106.6722 0.0000 0.0000 0.0000
# 4 0.0000 0.0000 0.0000 34.7236 0.0000 0.0000
# 5 0.0000 0.0000 0.0000 0.0000 17.7840 0.0000
# 6 0.0000 0.0000 0.0000 0.0000 0.0000 15.8599
#
#
#
# Elastic Compliance Matrix: (Units=1/GPa)
#
#
# Indices 1 2 3 4 5 6 
#
# 1 0.009832 -0.003539 -0.002760 0.000000 0.000000 0.000000
# 2 -0.003539 0.011151 -0.002181 0.000000 0.000000 0.000000
# 3 -0.002760 -0.002181 0.011170 0.000000 0.000000 0.000000
# 4 0.000000 0.000000 0.000000 0.028799 0.000000 0.000000
# 5 0.000000 0.000000 0.000000 0.000000 0.056230 0.000000
# 6 0.000000 0.000000 0.000000 0.000000 0.000000 0.063052
#
#
# Mechanical properties :
#
#
# Convention : Reuss Voigt Hill
#
# Bulk Modulus (GPa) = 65.82249 67.08126 66.45187
# Shear Modulus (GPa) = 24.72083 28.60135 26.66109
#
# Velocity S-wave (km/s) = 3.44118 3.70143 3.57367
# Velocity P-wave (km/s) = 6.87889 7.09933 6.98998
#
# Compressibility (1/GPa) = 0.01519238
#
# Stress axis : x y z
#
# Youngs Moduli (GPa) = 101.71231 89.67521 89.52677
#
# Poissons Ratio (x) = 0.31733 0.24710
# Poissons Ratio (y) = 0.35993 0.19530
# Poissons Ratio (z) = 0.28073 0.19562
#
# Static dielectric constant tensor:
#      x y z
#    x 3.477030 0.000000 0.000000 
#    y 0.000000 3.902180 0.000000 
#    z 0.000000 0.000000 3.837980 
# 
# 
# High freq. dielectric constant tensor:
#      x y z
#    x 1.805310 0.000000 0.000000 
#    y 0.000000 1.831330 0.000000 
#    z 0.000000 0.000000 1.829410 
# 
# From -- ./inp_files/12332.got.cif
#   From: 2010.03.12/outbox.cif.g09.slc.cpg/sg62_7_cif.got.tgz:12332.got - 2010.04.10 19:12:36.
