data_PCOD8254610
_publ_section_title
;
Structure prediction by ZEFSAII (Michael W. Deem and Ramdas Pophale) SiO2 
 PCOD8254610
Probable space group: P N M A
;
_chemical_formula_sum "Si O2"
_cell_formula_units_Z 64
_cell_length_a 25.690262
_cell_length_b 8.638703
_cell_length_c 14.613657
_cell_angle_alpha 90.000000
_cell_angle_beta 90.000000
_cell_angle_gamma 90.000000
_cell_volume 3243.216839
_symmetry_space_group_name_H-M "P N M A"
_symmetry_group_IT_number 62
_symmetry_cell_setting 'orthorhombic'
loop_
_space_group_symop_operation_xyz
x,y,z
1/2-x,-y,1/2+z
1/2+x,1/2-y,1/2-z
-x,1/2+y,-z
-x,-y,-z
1/2+x,y,1/2-z
1/2-x,1/2+y,1/2+z
x,1/2-y,z
loop_
_atom_site_type_symbol
_atom_site_label
_atom_site_fract_x
_atom_site_fract_y
_atom_site_fract_z
Si Si1 0.218070 0.568725 0.997075
Si Si2 0.502478 0.067925 0.101436
Si Si3 0.859208 0.928954 0.859756
Si Si4 0.107118 0.929265 0.325439
Si Si5 0.830313 0.072002 0.490858
Si Si6 0.359027 0.932827 0.361275
Si Si7 0.602464 0.429672 0.836275
Si Si8 0.555560 0.073745 0.501958
O O1 0.230299 0.750000 0.996821
O O2 0.183038 0.527652 0.084764
O O3 0.270579 0.472576 0.004343
O O4 0.191070 0.520860 0.901411
O O5 0.508936 0.250000 0.092772
O O6 0.550505 0.000901 0.158152
O O7 0.450017 0.028773 0.156119
O O8 0.500000 0.000000 0.000000
O O9 0.842094 0.750000 0.862386
O O10 0.915842 0.951500 0.905289
O O11 0.862922 0.987174 0.756667
O O12 0.099830 0.750000 0.301744
O O13 0.143381 0.956798 0.412020
O O14 0.836314 0.250000 0.460325
O O15 0.859053 0.962665 0.419154
O O16 0.350919 0.750000 0.377961
O O17 0.366670 0.975489 0.255651
O O18 0.409253 0.995568 0.416498
O O19 0.586828 0.250000 0.835661
O O20 0.545876 0.250000 0.524751
O O21 0.500000 0.000000 0.500000
#
# Coordination Sequence:
#
# PCOD8254610 Si02
#       8
#     8   8   8   8   8   8   8   8
#     4  11  23  41  66  92 120 159 205 256 308 366
#     4  12  24  40  62  89 126 167 207 254 309 363
#     4  10  22  41  62  88 123 161 202 252 309 367
#     4  11  24  41  63  92 124 163 209 254 308 369
#     4  11  24  42  64  89 122 162 204 257 311 366
#     4   9  21  41  61  86 122 161 200 249 307 363
#     4  11  23  40  64  93 125 163 208 254 305 369
#     4   9  19  35  55  83 116 155 197 243 297 355
#
# _framework density 19.733494
#
# number of rings (size 3 to 8) (size 9 to 14) (size 15 to 20)
#    0.000    1.500    1.250    4.500    1.750    6.000 
#    0.000    1.250    0.000    0.000    0.000    0.000 
#    0.000    0.000    0.000    0.000    0.000    0.000 
#
# Total GULP energy -793863.244491 kJ/mol
# GULP energy per Si atom -12404.113195 kJ/mol
# Density = 1.968858 g / cm^3
# Si number density = 19.733494 Si / 1000 Ang^3
#
#
#
# Elastic Constant Matrix: (Units=GPa)
#
#
# Indices 1 2 3 4 5 6 
#
# 1 104.3615 12.2460 20.6494 0.0000 0.0000 0.0000
# 2 12.2460 50.7960 34.5239 0.0000 0.0000 0.0000
# 3 20.6494 34.5239 101.3321 0.0000 0.0000 0.0000
# 4 0.0000 0.0000 0.0000 36.2553 0.0000 0.0000
# 5 0.0000 0.0000 0.0000 0.0000 35.7981 0.0000
# 6 0.0000 0.0000 0.0000 0.0000 0.0000 35.8895
#
#
#
# Elastic Compliance Matrix: (Units=1/GPa)
#
#
# Indices 1 2 3 4 5 6 
#
# 1 0.010054 -0.001342 -0.001592 0.000000 0.000000 0.000000
# 2 -0.001342 0.025798 -0.008516 0.000000 0.000000 0.000000
# 3 -0.001592 -0.008516 0.013094 0.000000 0.000000 0.000000
# 4 0.000000 0.000000 0.000000 0.027582 0.000000 0.000000
# 5 0.000000 0.000000 0.000000 0.000000 0.027934 0.000000
# 6 0.000000 0.000000 0.000000 0.000000 0.000000 0.027863
#
#
# Mechanical properties :
#
#
# Convention : Reuss Voigt Hill
#
# Bulk Modulus (GPa) = 38.39157 43.48089 40.93623
# Shear Modulus (GPa) = 30.50480 34.19327 32.34903
#
# Velocity S-wave (km/s) = 3.93598 4.16715 4.05321
# Velocity P-wave (km/s) = 6.33665 6.72573 6.53409
#
# Compressibility (1/GPa) = 0.02604738
#
# Stress axis : x y z
#
# Youngs Moduli (GPa) = 99.45796 38.76260 76.36939
#
# Poissons Ratio (x) = 0.05203 0.12155
# Poissons Ratio (y) = 0.13349 0.65035
# Poissons Ratio (z) = 0.15830 0.33010
#
# Static dielectric constant tensor:
#      x y z
#    x 4.004630 0.000000 0.000000 
#    y 0.000000 3.855550 0.000000 
#    z 0.000000 0.000000 3.523680 
# 
# 
# High freq. dielectric constant tensor:
#      x y z
#    x 1.774760 0.000000 0.000000 
#    y 0.000000 1.776780 0.000000 
#    z 0.000000 0.000000 1.775070 
# 
# From -- ./inp_files/20938.got.cif
#   From: 2010.03.12/outbox.cif.g09.slc.cpg/sg62_11_cif.got.tgz:20938.got - 2010.04.10 19:12:36.
