data_PCOD8254058
_publ_section_title
;
Structure prediction by ZEFSAII (Michael W. Deem and Ramdas Pophale) SiO2 
 PCOD8254058
Probable space group: P N M A
;
_chemical_formula_sum "Si O2"
_cell_formula_units_Z 48
_cell_length_a 14.998469
_cell_length_b 8.456107
_cell_length_c 18.825724
_cell_angle_alpha 90.000000
_cell_angle_beta 90.000000
_cell_angle_gamma 90.000000
_cell_volume 2387.641324
_symmetry_space_group_name_H-M "P N M A"
_symmetry_group_IT_number 62
_symmetry_cell_setting 'orthorhombic'
loop_
_space_group_symop_operation_xyz
x,y,z
1/2-x,-y,1/2+z
1/2+x,1/2-y,1/2-z
-x,1/2+y,-z
-x,-y,-z
1/2+x,y,1/2-z
1/2-x,1/2+y,1/2+z
x,1/2-y,z
loop_
_atom_site_type_symbol
_atom_site_label
_atom_site_fract_x
_atom_site_fract_y
_atom_site_fract_z
Si Si1 0.773272 0.565107 0.920924
Si Si2 0.133952 0.566183 0.828941
Si Si3 0.527586 0.435950 0.424380
Si Si4 0.122515 0.432403 0.676037
Si Si5 0.524116 0.066080 0.076607
Si Si6 0.213289 0.567911 0.421122
O O1 0.758533 0.750000 0.904737
O O2 0.707391 0.463247 0.873321
O O3 0.873336 0.507064 0.902866
O O4 0.755524 0.525996 0.003067
O O5 0.150154 0.750000 0.845358
O O6 0.041785 0.506528 0.864587
O O7 0.128554 0.540003 0.745385
O O8 0.215200 0.466251 0.860297
O O9 0.500000 0.500000 0.500000
O O10 0.529229 0.250000 0.431251
O O11 0.120483 0.250000 0.698368
O O12 0.032270 0.474498 0.635297
O O13 0.499434 0.250000 0.079599
O O14 0.627773 0.040864 0.093065
O O15 0.500000 0.000000 0.000000
O O16 0.183758 0.750000 0.417614
#
# Coordination Sequence:
#
# PCOD8254058 Si02
#       6
#     8   8   8   8   8   8
#     4  10  21  39  64  93 127 164 209 262 316 379
#     4  11  24  42  64  93 132 171 211 262 320 379
#     4  10  21  38  64  94 124 163 207 255 308 370
#     4  12  26  43  64  92 129 169 214 267 323 379
#     4  12  24  41  66  95 127 166 213 264 319 384
#     4  11  22  39  66  96 128 166 210 262 318 380
#
# _framework density 20.103522000000002
#
# number of rings (size 3 to 8) (size 9 to 14) (size 15 to 20)
#    0.000    1.000    3.333    4.000    0.000    3.333 
#    0.000    5.000    0.000    0.000    0.000    0.000 
#    0.000    0.000    0.000    0.000    0.000    0.000 
#
# Total GULP energy -595517.245121 kJ/mol
# GULP energy per Si atom -12406.609273 kJ/mol
# Density = 2.005777 g / cm^3
# Si number density = 20.103522 Si / 1000 Ang^3
#
#
#
# Elastic Constant Matrix: (Units=GPa)
#
#
# Indices 1 2 3 4 5 6 
#
# 1 141.4777 20.2270 35.6182 0.0000 0.0000 0.0000
# 2 20.2270 55.7563 8.1409 0.0000 0.0000 0.0000
# 3 35.6182 8.1409 108.6704 0.0000 0.0000 0.0000
# 4 0.0000 0.0000 0.0000 31.7038 0.0000 0.0000
# 5 0.0000 0.0000 0.0000 0.0000 33.8644 0.0000
# 6 0.0000 0.0000 0.0000 0.0000 0.0000 32.6077
#
#
#
# Elastic Compliance Matrix: (Units=1/GPa)
#
#
# Indices 1 2 3 4 5 6 
#
# 1 0.008051 -0.002563 -0.002447 0.000000 0.000000 0.000000
# 2 -0.002563 0.018950 -0.000579 0.000000 0.000000 0.000000
# 3 -0.002447 -0.000579 0.010047 0.000000 0.000000 0.000000
# 4 0.000000 0.000000 0.000000 0.031542 0.000000 0.000000
# 5 0.000000 0.000000 0.000000 0.000000 0.029530 0.000000
# 6 0.000000 0.000000 0.000000 0.000000 0.000000 0.030668
#
#
# Mechanical properties :
#
#
# Convention : Reuss Voigt Hill
#
# Bulk Modulus (GPa) = 38.65638 48.20851 43.43245
# Shear Modulus (GPa) = 33.64987 35.76305 34.70646
#
# Velocity S-wave (km/s) = 4.09568 4.22233 4.15949
# Velocity P-wave (km/s) = 6.45264 6.91397 6.68728
#
# Compressibility (1/GPa) = 0.02586895
#
# Stress axis : x y z
#
# Youngs Moduli (GPa) = 124.21262 52.77125 99.52741
#
# Poissons Ratio (x) = 0.13527 0.24351
# Poissons Ratio (y) = 0.31840 0.05767
# Poissons Ratio (z) = 0.30391 0.03058
#
# Static dielectric constant tensor:
#      x y z
#    x 4.351920 0.000000 0.000000 
#    y 0.000000 3.693700 0.000000 
#    z 0.000000 0.000000 3.683380 
# 
# 
# High freq. dielectric constant tensor:
#      x y z
#    x 1.802900 0.000000 0.000000 
#    y 0.000000 1.786810 0.000000 
#    z 0.000000 0.000000 1.781080 
# 
# From -- ./inp_files/23685.got.cif
#   From: 2010.03.12/outbox.cif.g09.slc.cpg/sg62_12_cif.got.tgz:23685.got - 2010.04.10 19:12:36.
