data_PCOD8254426
_publ_section_title
;
Structure prediction by ZEFSAII (Michael W. Deem and Ramdas Pophale) SiO2 
 PCOD8254426
Probable space group: P N M A
;
_chemical_formula_sum "Si O2"
_cell_formula_units_Z 44
_cell_length_a 8.856669
_cell_length_b 12.334497
_cell_length_c 22.135458
_cell_angle_alpha 90.000000
_cell_angle_beta 90.000000
_cell_angle_gamma 90.000000
_cell_volume 2418.134037
_symmetry_space_group_name_H-M "P N M A"
_symmetry_group_IT_number 62
_symmetry_cell_setting 'orthorhombic'
loop_
_space_group_symop_operation_xyz
x,y,z
1/2-x,-y,1/2+z
1/2+x,1/2-y,1/2-z
-x,1/2+y,-z
-x,-y,-z
1/2+x,y,1/2-z
1/2-x,1/2+y,1/2+z
x,1/2-y,z
loop_
_atom_site_type_symbol
_atom_site_label
_atom_site_fract_x
_atom_site_fract_y
_atom_site_fract_z
Si Si1 0.013047 0.750000 0.852127
Si Si2 0.238508 0.372649 0.718361
Si Si3 0.651055 0.250000 0.108143
Si Si4 0.913938 0.371473 0.666908
Si Si5 0.580897 0.750000 0.788020
Si Si6 0.997051 0.538534 0.567870
Si Si7 0.773106 0.575973 0.852680
O O1 0.169444 0.750000 0.887008
O O2 0.034453 0.750000 0.780768
O O3 0.921343 0.642486 0.871891
O O4 0.292311 0.250000 0.701447
O O5 0.273430 0.396694 0.788805
O O6 0.322218 0.460264 0.675510
O O7 0.060401 0.386498 0.709131
O O8 0.574741 0.250000 0.174210
O O9 0.600509 0.353075 0.069745
O O10 0.905049 0.250000 0.640626
O O11 0.914012 0.451216 0.610383
O O12 0.677333 0.642959 0.802913
O O13 0.169342 0.558665 0.588458
O O14 0.000000 0.500000 0.500000
#
# Coordination Sequence:
#
# PCOD8254426 Si02
#       7
#     4   8   4   8   4   8   8
#     4  11  21  33  57  85 119 143 174 238 286 337
#     4   9  18  32  50  79 114 137 176 221 274 334
#     4  10  22  36  56  88 106 144 193 221 281 331
#     4   9  19  33  54  82 107 140 176 222 279 324
#     4   9  19  33  53  85 119 147 173 217 279 342
#     4  10  22  39  58  78 108 149 194 230 262 334
#     4   9  20  34  54  83 114 148 180 227 286 323
#
# _framework density 18.195848000000002
#
# number of rings (size 3 to 8) (size 9 to 14) (size 15 to 20)
#    0.000    2.545    0.000    1.636   11.455    0.000 
#    0.000    0.909    0.000    0.000    0.000    0.000 
#    0.000    0.000    0.000    0.000    0.000    0.000 
#
# Total GULP energy -545595.659890 kJ/mol
# GULP energy per Si atom -12399.901361 kJ/mol
# Density = 1.815443 g / cm^3
# Si number density = 18.195848 Si / 1000 Ang^3
#
#
#
# Elastic Constant Matrix: (Units=GPa)
#
#
# Indices 1 2 3 4 5 6 
#
# 1 77.7222 52.9543 46.0287 0.0000 0.0000 0.0000
# 2 52.9543 147.4428 73.1731 0.0000 0.0000 0.0000
# 3 46.0287 73.1731 126.4322 0.0000 0.0000 0.0000
# 4 0.0000 0.0000 0.0000 24.5598 0.0000 0.0000
# 5 0.0000 0.0000 0.0000 0.0000 15.3428 0.0000
# 6 0.0000 0.0000 0.0000 0.0000 0.0000 14.7375
#
#
#
# Elastic Compliance Matrix: (Units=1/GPa)
#
#
# Indices 1 2 3 4 5 6 
#
# 1 0.018391 -0.004605 -0.004030 0.000000 0.000000 0.000000
# 2 -0.004605 0.010668 -0.004498 0.000000 0.000000 0.000000
# 3 -0.004030 -0.004498 0.011980 0.000000 0.000000 0.000000
# 4 0.000000 0.000000 0.000000 0.040717 0.000000 0.000000
# 5 0.000000 0.000000 0.000000 0.000000 0.065177 0.000000
# 6 0.000000 0.000000 0.000000 0.000000 0.000000 0.067854
#
#
# Mechanical properties :
#
#
# Convention : Reuss Voigt Hill
#
# Bulk Modulus (GPa) = 67.69206 77.32327 72.50767
# Shear Modulus (GPa) = 20.32713 22.89078 21.60895
#
# Velocity S-wave (km/s) = 3.34598 3.55071 3.44986
# Velocity P-wave (km/s) = 7.22566 7.70696 7.47019
#
# Compressibility (1/GPa) = 0.01477278
#
# Stress axis : x y z
#
# Youngs Moduli (GPa) = 54.37588 93.73501 83.47418
#
# Poissons Ratio (x) = 0.43164 0.33641
# Poissons Ratio (y) = 0.25040 0.37546
# Poissons Ratio (z) = 0.21914 0.42161
#
# Static dielectric constant tensor:
#      x y z
#    x 3.307750 0.000000 0.000000 
#    y 0.000000 3.776430 0.000000 
#    z 0.000000 0.000000 2.976220 
# 
# 
# High freq. dielectric constant tensor:
#      x y z
#    x 1.694450 0.000000 0.000000 
#    y 0.000000 1.728210 0.000000 
#    z 0.000000 0.000000 1.667850 
# 
# From -- ./inp_files/28839.got.cif
#   From: 2010.03.12/outbox.cif.g09.slc.cpg/sg62_15_cif.got.tgz:28839.got - 2010.04.10 19:12:36.
