data_PCOD8254742
_publ_section_title
;
Structure prediction by ZEFSAII (Michael W. Deem and Ramdas Pophale) SiO2 
 PCOD8254742
Probable space group: P N M A
;
_chemical_formula_sum "Si O2"
_cell_formula_units_Z 28
_cell_length_a 16.772340
_cell_length_b 10.220366
_cell_length_c 7.770143
_cell_angle_alpha 90.000000
_cell_angle_beta 90.000000
_cell_angle_gamma 90.000000
_cell_volume 1331.953666
_symmetry_space_group_name_H-M "P N M A"
_symmetry_group_IT_number 62
_symmetry_cell_setting 'orthorhombic'
loop_
_space_group_symop_operation_xyz
x,y,z
1/2-x,-y,1/2+z
1/2+x,1/2-y,1/2-z
-x,1/2+y,-z
-x,-y,-z
1/2+x,y,1/2-z
1/2-x,1/2+y,1/2+z
x,1/2-y,z
loop_
_atom_site_type_symbol
_atom_site_label
_atom_site_fract_x
_atom_site_fract_y
_atom_site_fract_z
Si Si1 0.547160 0.750000 0.469045
Si Si2 0.444466 0.750000 0.143176
Si Si3 0.678861 0.604112 0.307349
Si Si4 0.426542 0.250000 0.154658
Si Si5 0.159949 0.498374 0.556808
O O1 0.471566 0.750000 0.342402
O O2 0.601975 0.621063 0.431631
O O3 0.520681 0.750000 0.669373
O O4 0.393083 0.622854 0.111106
O O5 0.520336 0.750000 0.016658
O O6 0.708774 0.750000 0.248362
O O7 0.747461 0.526308 0.405831
O O8 0.650152 0.520087 0.145734
O O9 0.369470 0.375503 0.160626
#
# Coordination Sequence:
#
# PCOD8254742 Si02
#       5
#     4   4   8   4   8
#     4  10  23  45  64 102 139 172 229 281 329 409
#     4  12  25  46  68 104 142 173 224 286 345 390
#     4  10  22  44  65  99 134 175 225 281 327 398
#     4  12  24  41  72  96 137 183 219 281 342 401
#     4  12  23  45  71  98 139 180 226 282 336 398
#
# _framework density 21.021750999999998
#
# number of rings (size 3 to 8) (size 9 to 14) (size 15 to 20)
#    0.857    0.000    5.714    2.571    0.000    2.286 
#    5.143    0.000    0.000    0.000    0.000    0.000 
#    0.000    0.000    0.000    0.000    0.000    0.000 
#
# Total GULP energy -347168.279501 kJ/mol
# GULP energy per Si atom -12398.867125 kJ/mol
# Density = 2.097391 g / cm^3
# Si number density = 21.021751 Si / 1000 Ang^3
#
#
#
# Elastic Constant Matrix: (Units=GPa)
#
#
# Indices 1 2 3 4 5 6 
#
# 1 39.3397 15.7881 -11.3142 0.0000 0.0000 0.0000
# 2 15.7881 116.7947 -1.8302 0.0000 0.0000 0.0000
# 3 -11.3142 -1.8302 75.9579 0.0000 0.0000 0.0000
# 4 0.0000 0.0000 0.0000 5.4800 0.0000 0.0000
# 5 0.0000 0.0000 0.0000 0.0000 37.2343 0.0000
# 6 0.0000 0.0000 0.0000 0.0000 0.0000 -10.4819
#
#
#
# Elastic Compliance Matrix: (Units=1/GPa)
#
#
# Indices 1 2 3 4 5 6 
#
# 1 0.028096 -0.003734 0.004095 0.000000 0.000000 0.000000
# 2 -0.003734 0.009061 -0.000338 0.000000 0.000000 0.000000
# 3 0.004095 -0.000338 0.013767 0.000000 0.000000 0.000000
# 4 0.000000 0.000000 0.000000 0.182481 0.000000 0.000000
# 5 0.000000 0.000000 0.000000 0.000000 0.026857 0.000000
# 6 0.000000 0.000000 0.000000 0.000000 0.000000 -0.095403
#
#
# Mechanical properties :
#
#
# Convention : Reuss Voigt Hill
#
# Bulk Modulus (GPa) = 19.61895 26.37550 22.99723
# Shear Modulus (GPa) = 27.50228 21.74307 24.62267
#
# Velocity S-wave (km/s) = 3.62094 3.21956 3.42613
# Velocity P-wave (km/s) = 5.18020 5.13759 5.15894
#
# Compressibility (1/GPa) = 0.05097112
#
# Stress axis : x y z
#
# Youngs Moduli (GPa) = 35.59252 110.35748 72.63739
#
# Poissons Ratio (x) = 0.41205 -0.29745
# Poissons Ratio (y) = 0.13289 0.02454
# Poissons Ratio (z) = -0.14575 0.03728
#
# Static dielectric constant tensor:
#      x y z
#    x 3.705310 0.000000 0.000000 
#    y 0.000000 3.841340 0.000000 
#    z 0.000000 0.000000 3.709510 
# 
# 
# High freq. dielectric constant tensor:
#      x y z
#    x 1.815420 0.000000 0.000000 
#    y 0.000000 1.824580 0.000000 
#    z 0.000000 0.000000 1.826160 
# 
# From -- ./inp_files/7166.got.cif
#   From: 2010.03.12/outbox.cif.g09.slc.cpg/sg62_4_cif.got.tgz:7166.got - 2010.04.10 19:12:36.
