data_PCOD8254317
_publ_section_title
;
Structure prediction by ZEFSAII (Michael W. Deem and Ramdas Pophale) SiO2 
 PCOD8254317
Probable space group: P N M A
;
_chemical_formula_sum "Si O2"
_cell_formula_units_Z 56
_cell_length_a 21.423982
_cell_length_b 8.800058
_cell_length_c 14.941169
_cell_angle_alpha 90.000000
_cell_angle_beta 90.000000
_cell_angle_gamma 90.000000
_cell_volume 2816.892720
_symmetry_space_group_name_H-M "P N M A"
_symmetry_group_IT_number 62
_symmetry_cell_setting 'orthorhombic'
loop_
_space_group_symop_operation_xyz
x,y,z
1/2-x,-y,1/2+z
1/2+x,1/2-y,1/2-z
-x,1/2+y,-z
-x,-y,-z
1/2+x,y,1/2-z
1/2-x,1/2+y,1/2+z
x,1/2-y,z
loop_
_atom_site_type_symbol
_atom_site_label
_atom_site_fract_x
_atom_site_fract_y
_atom_site_fract_z
Si Si1 0.276814 0.429969 0.572031
Si Si2 0.892701 0.428975 0.290374
Si Si3 0.187255 0.072125 0.418155
Si Si4 0.566908 0.428920 0.977167
Si Si5 0.516381 0.927308 0.635479
Si Si6 0.733513 0.430035 0.737251
Si Si7 0.411970 0.429510 0.538358
O O1 0.279139 0.250000 0.571645
O O2 0.224336 0.487716 0.504517
O O3 0.261075 0.489706 0.669814
O O4 0.342952 0.499403 0.543001
O O5 0.883524 0.250000 0.303812
O O6 0.902632 0.506504 0.386329
O O7 0.954056 0.465106 0.231469
O O8 0.834706 0.493017 0.232018
O O9 0.198024 0.250000 0.400487
O O10 0.114167 0.037913 0.439558
O O11 0.215433 0.981282 0.335121
O O12 0.558614 0.250000 0.963806
O O13 0.500000 0.500000 0.000000
O O14 0.504896 0.750000 0.624146
O O15 0.560280 0.988251 0.555286
O O16 0.450313 0.011266 0.624643
O O17 0.724898 0.250000 0.732060
O O18 0.410018 0.250000 0.543315
#
# Coordination Sequence:
#
# PCOD8254317 Si02
#       7
#     8   8   8   8   8   8   8
#     4   9  18  36  58  80 113 151 188 237 300 358
#     4  11  22  39  62  87 119 162 208 250 305 374
#     4  10  21  41  63  85 120 163 201 249 313 374
#     4  11  24  43  66  90 123 164 208 260 316 375
#     4   9  19  34  53  79 113 150 191 239 290 352
#     4  11  22  37  60  91 120 152 201 258 309 365
#     4   9  17  32  55  80 109 148 191 237 293 354
#
# _framework density 19.880061000000001
#
# number of rings (size 3 to 8) (size 9 to 14) (size 15 to 20)
#    0.000    2.000    1.429    2.143    0.000    5.714 
#    0.000    7.857    0.000    0.000    0.000    0.000 
#    0.000    0.000    0.000    0.000    0.000    0.000 
#
# Total GULP energy -694227.062872 kJ/mol
# GULP energy per Si atom -12396.911837 kJ/mol
# Density = 1.983481 g / cm^3
# Si number density = 19.880061 Si / 1000 Ang^3
#
#
#
# Elastic Constant Matrix: (Units=GPa)
#
#
# Indices 1 2 3 4 5 6 
#
# 1 124.9960 33.9178 28.6283 0.0000 0.0000 0.0000
# 2 33.9178 63.7974 27.2078 0.0000 0.0000 0.0000
# 3 28.6283 27.2078 90.3586 0.0000 0.0000 0.0000
# 4 0.0000 0.0000 0.0000 32.1699 0.0000 0.0000
# 5 0.0000 0.0000 0.0000 0.0000 33.4575 0.0000
# 6 0.0000 0.0000 0.0000 0.0000 0.0000 31.8977
#
#
#
# Elastic Compliance Matrix: (Units=1/GPa)
#
#
# Indices 1 2 3 4 5 6 
#
# 1 0.009577 -0.004357 -0.001722 0.000000 0.000000 0.000000
# 2 -0.004357 0.019966 -0.004632 0.000000 0.000000 0.000000
# 3 -0.001722 -0.004632 0.013007 0.000000 0.000000 0.000000
# 4 0.000000 0.000000 0.000000 0.031085 0.000000 0.000000
# 5 0.000000 0.000000 0.000000 0.000000 0.029889 0.000000
# 6 0.000000 0.000000 0.000000 0.000000 0.000000 0.031350
#
#
# Mechanical properties :
#
#
# Convention : Reuss Voigt Hill
#
# Bulk Modulus (GPa) = 47.32912 50.96220 49.14566
# Shear Modulus (GPa) = 30.61110 32.13155 31.37133
#
# Velocity S-wave (km/s) = 3.92827 4.02465 3.97675
# Velocity P-wave (km/s) = 6.66589 6.87659 6.77206
#
# Compressibility (1/GPa) = 0.02112864
#
# Stress axis : x y z
#
# Youngs Moduli (GPa) = 104.41654 50.08439 76.87981
#
# Poissons Ratio (x) = 0.21822 0.13241
# Poissons Ratio (y) = 0.45495 0.35608
# Poissons Ratio (z) = 0.17984 0.23197
#
# Static dielectric constant tensor:
#      x y z
#    x 3.903320 0.000000 0.000000 
#    y 0.000000 3.412470 0.000000 
#    z 0.000000 0.000000 3.679630 
# 
# 
# High freq. dielectric constant tensor:
#      x y z
#    x 1.787930 0.000000 0.000000 
#    y 0.000000 1.760140 0.000000 
#    z 0.000000 0.000000 1.774750 
# 
# From -- ./inp_files/20252.got.cif
#   From: 2010.03.12/outbox.cif.g09.slc.cpg/sg62_11_cif.got.tgz:20252.got - 2010.04.10 19:12:36.
