data_PCOD8254446
_publ_section_title
;
Structure prediction by ZEFSAII (Michael W. Deem and Ramdas Pophale) SiO2 
 PCOD8254446
Probable space group: P N M A
;
_chemical_formula_sum "Si O2"
_cell_formula_units_Z 48
_cell_length_a 8.798473
_cell_length_b 20.491875
_cell_length_c 11.967007
_cell_angle_alpha 90.000000
_cell_angle_beta 90.000000
_cell_angle_gamma 90.000000
_cell_volume 2157.617961
_symmetry_space_group_name_H-M "P N M A"
_symmetry_group_IT_number 62
_symmetry_cell_setting 'orthorhombic'
loop_
_space_group_symop_operation_xyz
x,y,z
1/2-x,-y,1/2+z
1/2+x,1/2-y,1/2-z
-x,1/2+y,-z
-x,-y,-z
1/2+x,y,1/2-z
1/2-x,1/2+y,1/2+z
x,1/2-y,z
loop_
_atom_site_type_symbol
_atom_site_label
_atom_site_fract_x
_atom_site_fract_y
_atom_site_fract_z
Si Si1 0.782403 0.925177 0.572644
Si Si2 0.371739 0.823873 0.499271
Si Si3 0.399681 0.323347 0.305086
Si Si4 0.690225 0.020221 0.750758
Si Si5 0.890621 0.407150 0.410854
Si Si6 0.576185 0.584654 0.373503
O O1 0.738280 0.856383 0.628795
O O2 0.649025 0.944583 0.486586
O O3 0.951827 0.917730 0.519982
O O4 0.797235 0.981159 0.665397
O O5 0.321690 0.750000 0.468499
O O6 0.447103 0.825394 0.621293
O O7 0.229691 0.873871 0.504147
O O8 0.490222 0.847701 0.402416
O O9 0.348378 0.250000 0.278740
O O10 0.433782 0.359623 0.190421
O O11 0.536006 0.033691 0.684855
O O12 0.778868 0.087207 0.787846
O O13 0.667965 0.976141 0.862471
#
# Coordination Sequence:
#
# PCOD8254446 Si02
#       6
#     8   8   8   8   8   8
#     4  10  22  37  60  94 131 170 209 265 323 389
#     4  10  23  41  64  93 127 172 217 266 324 379
#     4   9  18  34  57  89 130 172 209 257 327 399
#     4  11  23  40  62  97 127 172 216 255 331 386
#     4  11  21  34  59  96 131 162 211 264 328 397
#     4  11  25  43  66  88 133 169 211 270 314 386
#
# _framework density 22.246755
#
# number of rings (size 3 to 8) (size 9 to 14) (size 15 to 20)
#    0.000    1.667    1.667    3.000    7.000    4.667 
#    0.000    0.833    0.000    0.000    0.000    0.000 
#    0.000    0.000    0.000    0.000    0.000    0.000 
#
# Total GULP energy -594778.288612 kJ/mol
# GULP energy per Si atom -12391.214346 kJ/mol
# Density = 2.219612 g / cm^3
# Si number density = 22.246755 Si / 1000 Ang^3
#
#
#
# Elastic Constant Matrix: (Units=GPa)
#
#
# Indices 1 2 3 4 5 6 
#
# 1 142.7645 46.4455 42.7972 0.0000 0.0000 0.0000
# 2 46.4455 97.2478 35.9884 0.0000 0.0000 0.0000
# 3 42.7972 35.9884 43.7136 0.0000 0.0000 0.0000
# 4 0.0000 0.0000 0.0000 26.2599 0.0000 0.0000
# 5 0.0000 0.0000 0.0000 0.0000 29.8670 0.0000
# 6 0.0000 0.0000 0.0000 0.0000 0.0000 26.9984
#
#
#
# Elastic Compliance Matrix: (Units=1/GPa)
#
#
# Indices 1 2 3 4 5 6 
#
# 1 0.010100 -0.001675 -0.008510 0.000000 0.000000 0.000000
# 2 -0.001675 0.015066 -0.010764 0.000000 0.000000 0.000000
# 3 -0.008510 -0.010764 0.040070 0.000000 0.000000 0.000000
# 4 0.000000 0.000000 0.000000 0.038081 0.000000 0.000000
# 5 0.000000 0.000000 0.000000 0.000000 0.033482 0.000000
# 6 0.000000 0.000000 0.000000 0.000000 0.000000 0.037039
#
#
# Mechanical properties :
#
#
# Convention : Reuss Voigt Hill
#
# Bulk Modulus (GPa) = 42.84719 59.35423 51.10071
# Shear Modulus (GPa) = 22.36981 27.19138 24.78059
#
# Velocity S-wave (km/s) = 3.17445 3.49988 3.34113
# Velocity P-wave (km/s) = 5.72171 6.56278 6.15662
#
# Compressibility (1/GPa) = 0.02333875
#
# Stress axis : x y z
#
# Youngs Moduli (GPa) = 99.00554 66.37315 24.95655
#
# Poissons Ratio (x) = 0.11116 0.21238
# Poissons Ratio (y) = 0.16580 0.26864
# Poissons Ratio (z) = 0.84253 0.71445
#
# Static dielectric constant tensor:
#      x y z
#    x 4.140890 0.000000 0.000000 
#    y 0.000000 3.918130 0.000000 
#    z 0.000000 0.000000 3.891880 
# 
# 
# High freq. dielectric constant tensor:
#      x y z
#    x 1.890210 0.000000 0.000000 
#    y 0.000000 1.853070 0.000000 
#    z 0.000000 0.000000 1.855590 
# 
# From -- ./inp_files/11326.got.cif
#   From: 2010.03.12/outbox.cif.g09.slc.cpg/sg62_6_cif.got.tgz:11326.got - 2010.04.10 19:12:36.
