data_PCOD8254201
_publ_section_title
;
Structure prediction by ZEFSAII (Michael W. Deem and Ramdas Pophale) SiO2 
 PCOD8254201
Probable space group: P N M A
;
_chemical_formula_sum "Si O2"
_cell_formula_units_Z 28
_cell_length_a 15.411214
_cell_length_b 5.319759
_cell_length_c 14.818263
_cell_angle_alpha 90.000000
_cell_angle_beta 90.000000
_cell_angle_gamma 90.000000
_cell_volume 1214.859650
_symmetry_space_group_name_H-M "P N M A"
_symmetry_group_IT_number 62
_symmetry_cell_setting 'orthorhombic'
loop_
_space_group_symop_operation_xyz
x,y,z
1/2-x,-y,1/2+z
1/2+x,1/2-y,1/2-z
-x,1/2+y,-z
-x,-y,-z
1/2+x,y,1/2-z
1/2-x,1/2+y,1/2+z
x,1/2-y,z
loop_
_atom_site_type_symbol
_atom_site_label
_atom_site_fract_x
_atom_site_fract_y
_atom_site_fract_z
Si Si1 0.037522 0.250000 0.457013
Si Si2 0.167027 0.750000 0.130858
Si Si3 0.798740 0.750000 0.068795
Si Si4 0.466720 0.750000 0.333219
Si Si5 0.439183 0.250000 0.218711
Si Si6 0.248643 0.250000 0.141453
Si Si7 0.763869 0.750000 0.556568
O O1 0.138861 0.250000 0.478324
O O2 0.000000 0.500000 0.500000
O O3 0.019404 0.250000 0.350621
O O4 0.203249 0.500986 0.181717
O O5 0.063553 0.750000 0.130251
O O6 0.197711 0.750000 0.027561
O O7 0.902660 0.750000 0.080214
O O8 0.757676 0.499554 0.115424
O O9 0.766954 0.750000 0.965758
O O10 0.446315 0.501130 0.276740
O O11 0.350288 0.250000 0.162131
#
# Coordination Sequence:
#
# PCOD8254201 Si02
#       7
#     4   4   4   4   4   4   4
#     4  12  23  43  73  98 132 180 237 286 332 411
#     4  10  21  41  69  98 133 173 230 281 345 404
#     4  10  22  42  67  98 133 177 236 279 339 406
#     4  12  26  45  65 105 146 181 216 297 364 403
#     4  12  26  46  66 104 146 182 226 285 359 411
#     4  10  21  42  69  95 129 187 233 277 325 418
#     4  10  21  39  67 102 123 178 238 281 324 403
#
# _framework density 23.047927999999999
#
# number of rings (size 3 to 8) (size 9 to 14) (size 15 to 20)
#    0.000    1.143    0.000    7.714    0.000    4.571 
#   15.429    0.000    0.000    0.000    0.000    0.000 
#    0.000    0.000    0.000    0.000    0.000    0.000 
#
# Total GULP energy -347096.951633 kJ/mol
# GULP energy per Si atom -12396.319701 kJ/mol
# Density = 2.299547 g / cm^3
# Si number density = 23.047928 Si / 1000 Ang^3
#
#
#
# Elastic Constant Matrix: (Units=GPa)
#
#
# Indices 1 2 3 4 5 6 
#
# 1 172.6275 65.4900 47.1736 0.0000 0.0000 0.0000
# 2 65.4900 264.7150 21.9771 0.0000 0.0000 0.0000
# 3 47.1736 21.9771 68.7009 0.0000 0.0000 0.0000
# 4 0.0000 0.0000 0.0000 16.4729 0.0000 0.0000
# 5 0.0000 0.0000 0.0000 0.0000 37.1576 0.0000
# 6 0.0000 0.0000 0.0000 0.0000 0.0000 41.7922
#
#
#
# Elastic Compliance Matrix: (Units=1/GPa)
#
#
# Indices 1 2 3 4 5 6 
#
# 1 0.007670 -0.001500 -0.004787 0.000000 0.000000 0.000000
# 2 -0.001500 0.004174 -0.000305 0.000000 0.000000 0.000000
# 3 -0.004787 -0.000305 0.017940 0.000000 0.000000 0.000000
# 4 0.000000 0.000000 0.000000 0.060706 0.000000 0.000000
# 5 0.000000 0.000000 0.000000 0.000000 0.026912 0.000000
# 6 0.000000 0.000000 0.000000 0.000000 0.000000 0.023928
#
#
# Mechanical properties :
#
#
# Convention : Reuss Voigt Hill
#
# Bulk Modulus (GPa) = 60.24000 86.14720 73.19360
# Shear Modulus (GPa) = 31.24061 43.84470 37.54266
#
# Velocity S-wave (km/s) = 3.68566 4.36630 4.04034
# Velocity P-wave (km/s) = 6.65625 7.92956 7.32064
#
# Compressibility (1/GPa) = 0.01660026
#
# Stress axis : x y z
#
# Youngs Moduli (GPa) = 130.37819 239.57153 55.74041
#
# Poissons Ratio (x) = 0.35939 0.26681
# Poissons Ratio (y) = 0.19559 0.01701
# Poissons Ratio (z) = 0.62409 0.07312
#
# Static dielectric constant tensor:
#      x y z
#    x 4.300870 0.000000 0.000000 
#    y 0.000000 7.362290 0.000000 
#    z 0.000000 0.000000 3.726200 
# 
# 
# High freq. dielectric constant tensor:
#      x y z
#    x 1.920230 0.000000 0.000000 
#    y 0.000000 1.958700 0.000000 
#    z 0.000000 0.000000 1.875330 
# 
# From -- ./inp_files/17505.got.cif
#   From: 2010.03.12/outbox.cif.g09.slc.cpg/sg62_9_cif.got.tgz:17505.got - 2010.04.10 19:12:36.
