data_PCOD8254897
_publ_section_title
;
Structure prediction by ZEFSAII (Michael W. Deem and Ramdas Pophale) SiO2 
 PCOD8254897
Probable space group: P N M A
;
_chemical_formula_sum "Si O2"
_cell_formula_units_Z 32
_cell_length_a 5.504211
_cell_length_b 12.690923
_cell_length_c 17.922280
_cell_angle_alpha 90.000000
_cell_angle_beta 90.000000
_cell_angle_gamma 90.000000
_cell_volume 1251.934308
_symmetry_space_group_name_H-M "P N M A"
_symmetry_group_IT_number 62
_symmetry_cell_setting 'orthorhombic'
loop_
_space_group_symop_operation_xyz
x,y,z
1/2-x,-y,1/2+z
1/2+x,1/2-y,1/2-z
-x,1/2+y,-z
-x,-y,-z
1/2+x,y,1/2-z
1/2-x,1/2+y,1/2+z
x,1/2-y,z
loop_
_atom_site_type_symbol
_atom_site_label
_atom_site_fract_x
_atom_site_fract_y
_atom_site_fract_z
Si Si1 0.686157 0.039903 0.560537
Si Si2 0.052621 0.632242 0.570648
Si Si3 0.698670 0.127470 0.282233
Si Si4 0.063418 0.373864 0.785330
O O1 0.562336 0.106098 0.626024
O O2 0.871630 0.115148 0.515098
O O3 0.500000 0.000000 0.500000
O O4 0.831862 0.942101 0.595330
O O5 0.953120 0.750000 0.580332
O O6 0.275465 0.612061 0.628375
O O7 0.939202 0.075644 0.241463
O O8 0.690479 0.250000 0.258617
O O9 0.308430 0.422248 0.746364
O O10 0.062991 0.250000 0.769224
#
# Coordination Sequence:
#
# PCOD8254897 Si02
#       4
#     8   8   8   8
#     4  11  26  44  67 104 139 184 236 306 366 434
#     4  10  24  43  65  95 136 185 230 286 364 436
#     4   9  19  36  59  89 125 168 218 263 319 405
#     4  10  24  47  77 107 141 191 248 307 363 428
#
# _framework density 25.560447
#
# number of rings (size 3 to 8) (size 9 to 14) (size 15 to 20)
#    0.000    2.000    0.000    0.750   10.500    4.000 
#    0.000    0.000    0.000    0.000    0.000    0.000 
#    0.000    0.000    0.000    0.000    0.000    0.000 
#
# Total GULP energy -396959.773320 kJ/mol
# GULP energy per Si atom -12404.992916 kJ/mol
# Density = 2.550227 g / cm^3
# Si number density = 25.560447 Si / 1000 Ang^3
#
#
#
# Elastic Constant Matrix: (Units=GPa)
#
#
# Indices 1 2 3 4 5 6 
#
# 1 191.2839 62.9675 67.9765 0.0000 0.0000 0.0000
# 2 62.9675 55.9104 24.3536 0.0000 0.0000 0.0000
# 3 67.9765 24.3536 142.4706 0.0000 0.0000 0.0000
# 4 0.0000 0.0000 0.0000 32.2164 0.0000 0.0000
# 5 0.0000 0.0000 0.0000 0.0000 52.5700 0.0000
# 6 0.0000 0.0000 0.0000 0.0000 0.0000 34.2417
#
#
#
# Elastic Compliance Matrix: (Units=1/GPa)
#
#
# Indices 1 2 3 4 5 6 
#
# 1 0.009268 -0.009196 -0.002850 0.000000 0.000000 0.000000
# 2 -0.009196 0.028450 -0.000475 0.000000 0.000000 0.000000
# 3 -0.002850 -0.000475 0.008460 0.000000 0.000000 0.000000
# 4 0.000000 0.000000 0.000000 0.031040 0.000000 0.000000
# 5 0.000000 0.000000 0.000000 0.000000 0.019022 0.000000
# 6 0.000000 0.000000 0.000000 0.000000 0.000000 0.029204
#
#
# Mechanical properties :
#
#
# Convention : Reuss Voigt Hill
#
# Bulk Modulus (GPa) = 47.31587 77.80669 62.56128
# Shear Modulus (GPa) = 31.73950 39.43011 35.58480
#
# Velocity S-wave (km/s) = 3.52766 3.93188 3.73524
# Velocity P-wave (km/s) = 5.92824 7.14978 6.56747
#
# Compressibility (1/GPa) = 0.02113456
#
# Stress axis : x y z
#
# Youngs Moduli (GPa) = 107.89943 35.14954 118.20279
#
# Poissons Ratio (x) = 0.32325 0.33687
# Poissons Ratio (y) = 0.99228 0.05619
# Poissons Ratio (z) = 0.30751 0.01671
#
# Static dielectric constant tensor:
#      x y z
#    x 4.908860 0.000000 0.000000 
#    y 0.000000 4.821130 0.000000 
#    z 0.000000 0.000000 4.724270 
# 
# 
# High freq. dielectric constant tensor:
#      x y z
#    x 2.031280 0.000000 0.000000 
#    y 0.000000 2.046910 0.000000 
#    z 0.000000 0.000000 2.021270 
# 
# From -- ./inp_files/21402.got.cif
#   From: 2010.03.12/outbox.cif.g09.slc.cpg/sg62_11_cif.got.tgz:21402.got - 2010.04.10 19:12:36.
