data_PCOD8254924
_publ_section_title
;
Structure prediction by ZEFSAII (Michael W. Deem and Ramdas Pophale) SiO2 
 PCOD8254924
Probable space group: P N M A
;
_chemical_formula_sum "Si O2"
_cell_formula_units_Z 40
_cell_length_a 10.242491
_cell_length_b 17.575247
_cell_length_c 8.888120
_cell_angle_alpha 90.000000
_cell_angle_beta 90.000000
_cell_angle_gamma 90.000000
_cell_volume 1599.988782
_symmetry_space_group_name_H-M "P N M A"
_symmetry_group_IT_number 62
_symmetry_cell_setting 'orthorhombic'
loop_
_space_group_symop_operation_xyz
x,y,z
1/2-x,-y,1/2+z
1/2+x,1/2-y,1/2-z
-x,1/2+y,-z
-x,-y,-z
1/2+x,y,1/2-z
1/2-x,1/2+y,1/2+z
x,1/2-y,z
loop_
_atom_site_type_symbol
_atom_site_label
_atom_site_fract_x
_atom_site_fract_y
_atom_site_fract_z
Si Si1 0.138472 0.869435 0.960442
Si Si2 0.813695 0.526914 0.892724
Si Si3 0.615786 0.334410 0.598677
Si Si4 0.537699 0.569762 0.823133
Si Si5 0.091149 0.165282 0.564256
O O1 0.278190 0.830144 0.964222
O O2 0.039781 0.827323 0.071993
O O3 0.141159 0.959124 0.000463
O O4 0.083507 0.863611 0.790673
O O5 0.662314 0.513472 0.844984
O O6 0.908939 0.528390 0.745832
O O7 0.819918 0.606279 0.983926
O O8 0.677992 0.250000 0.577269
O O9 0.633112 0.362959 0.770099
O O10 0.507258 0.606121 0.986197
O O11 0.028988 0.250000 0.571542
#
# Coordination Sequence:
#
# PCOD8254924 Si02
#       5
#     8   8   8   8   8
#     4  11  25  46  70 102 142 180 240 290 356 408
#     4  11  26  45  75 106 141 185 234 290 358 418
#     4  10  24  45  68 100 141 186 233 292 352 419
#     4  11  24  47  66 105 136 184 230 289 348 416
#     4  11  26  43  69 101 138 190 240 286 352 418
#
# _framework density 25.000173
#
# number of rings (size 3 to 8) (size 9 to 14) (size 15 to 20)
#    0.000    1.200    2.000    3.000    8.400    5.600 
#    0.000    0.000    0.000    0.000    0.000    0.000 
#    0.000    0.000    0.000    0.000    0.000    0.000 
#
# Total GULP energy -495964.227199 kJ/mol
# GULP energy per Si atom -12399.105680 kJ/mol
# Density = 2.494327 g / cm^3
# Si number density = 25.000173 Si / 1000 Ang^3
#
#
#
# Elastic Constant Matrix: (Units=GPa)
#
#
# Indices 1 2 3 4 5 6 
#
# 1 107.4645 3.8141 6.0458 0.0000 0.0000 0.0000
# 2 3.8141 103.0040 32.2763 0.0000 0.0000 0.0000
# 3 6.0458 32.2763 98.9591 0.0000 0.0000 0.0000
# 4 0.0000 0.0000 0.0000 24.3676 0.0000 0.0000
# 5 0.0000 0.0000 0.0000 0.0000 32.5727 0.0000
# 6 0.0000 0.0000 0.0000 0.0000 0.0000 22.3520
#
#
#
# Elastic Compliance Matrix: (Units=1/GPa)
#
#
# Indices 1 2 3 4 5 6 
#
# 1 0.009341 -0.000186 -0.000510 0.000000 0.000000 0.000000
# 2 -0.000186 0.010817 -0.003517 0.000000 0.000000 0.000000
# 3 -0.000510 -0.003517 0.011283 0.000000 0.000000 0.000000
# 4 0.000000 0.000000 0.000000 0.041038 0.000000 0.000000
# 5 0.000000 0.000000 0.000000 0.000000 0.030701 0.000000
# 6 0.000000 0.000000 0.000000 0.000000 0.000000 0.044739
#
#
# Mechanical properties :
#
#
# Convention : Reuss Voigt Hill
#
# Bulk Modulus (GPa) = 43.44866 43.74446 43.59656
# Shear Modulus (GPa) = 30.48479 33.67788 32.08134
#
# Velocity S-wave (km/s) = 3.49576 3.67428 3.58613
# Velocity P-wave (km/s) = 5.80610 5.96121 5.88417
#
# Compressibility (1/GPa) = 0.02301567
#
# Stress axis : x y z
#
# Youngs Moduli (GPa) = 107.05845 92.44516 88.62607
#
# Poissons Ratio (x) = 0.01720 0.04520
# Poissons Ratio (y) = 0.01992 0.31168
# Poissons Ratio (z) = 0.05460 0.32511
#
# Static dielectric constant tensor:
#      x y z
#    x 4.597080 0.000000 0.000000 
#    y 0.000000 4.168480 0.000000 
#    z 0.000000 0.000000 4.505830 
# 
# 
# High freq. dielectric constant tensor:
#      x y z
#    x 1.996900 0.000000 0.000000 
#    y 0.000000 1.983220 0.000000 
#    z 0.000000 0.000000 2.000610 
# 
# From -- ./inp_files/5007.got.cif
#   From: 2010.03.12/outbox.cif.g09.slc.cpg/sg62_3_cif.got.tgz:5007.got - 2010.04.10 19:12:36.
