data_PCOD8254891
_publ_section_title
;
Structure prediction by ZEFSAII (Michael W. Deem and Ramdas Pophale) SiO2 
 PCOD8254891
Probable space group: P N M A
;
_chemical_formula_sum "Si O2"
_cell_formula_units_Z 48
_cell_length_a 7.627248
_cell_length_b 25.538982
_cell_length_c 10.515026
_cell_angle_alpha 90.000000
_cell_angle_beta 90.000000
_cell_angle_gamma 90.000000
_cell_volume 2048.244515
_symmetry_space_group_name_H-M "P N M A"
_symmetry_group_IT_number 62
_symmetry_cell_setting 'orthorhombic'
loop_
_space_group_symop_operation_xyz
x,y,z
1/2-x,-y,1/2+z
1/2+x,1/2-y,1/2-z
-x,1/2+y,-z
-x,-y,-z
1/2+x,y,1/2-z
1/2-x,1/2+y,1/2+z
x,1/2-y,z
loop_
_atom_site_type_symbol
_atom_site_label
_atom_site_fract_x
_atom_site_fract_y
_atom_site_fract_z
Si Si1 0.916759 0.648567 0.114650
Si Si2 0.653072 0.447755 0.057053
Si Si3 0.377478 0.308976 0.068865
Si Si4 0.320363 0.850569 0.098811
Si Si5 0.852009 0.956955 0.994735
Si Si6 0.842348 0.409325 0.283373
O O1 0.784074 0.680344 0.025700
O O2 0.880354 0.663400 0.259836
O O3 0.882912 0.586296 0.102698
O O4 0.116145 0.663583 0.079834
O O5 0.674899 0.509418 0.026230
O O6 0.822072 0.423213 0.134766
O O7 0.491900 0.442996 0.151100
O O8 0.640412 0.412133 0.930533
O O9 0.365256 0.250000 0.120354
O O10 0.562700 0.316484 0.997527
O O11 0.370544 0.347291 0.191892
O O12 0.835061 0.927695 0.858767
O O13 0.000000 0.000000 0.000000
#
# Coordination Sequence:
#
# PCOD8254891 Si02
#       6
#     8   8   8   8   8   8
#     4  11  23  41  65  98 135 165 218 276 320 397
#     4  11  23  40  65  92 134 178 216 264 327 393
#     4  10  24  46  69  93 124 171 224 280 336 383
#     4  11  23  42  66  96 133 168 216 268 328 395
#     4  11  22  38  63  94 131 178 218 259 332 389
#     4  10  24  42  62  95 131 170 226 275 316 400
#
# _framework density 23.434702000000001
#
# number of rings (size 3 to 8) (size 9 to 14) (size 15 to 20)
#    0.000    1.333    3.333    1.500    4.667    2.667 
#    0.000    3.333    0.000    0.000    0.000    0.000 
#    0.000    0.000    0.000    0.000    0.000    0.000 
#
# Total GULP energy -595137.634150 kJ/mol
# GULP energy per Si atom -12398.700711 kJ/mol
# Density = 2.338136 g / cm^3
# Si number density = 23.434702 Si / 1000 Ang^3
#
#
#
# Elastic Constant Matrix: (Units=GPa)
#
#
# Indices 1 2 3 4 5 6 
#
# 1 94.5434 6.5165 -21.9542 0.0000 0.0000 0.0000
# 2 6.5165 145.5560 14.2138 0.0000 0.0000 0.0000
# 3 -21.9542 14.2138 61.1541 0.0000 0.0000 0.0000
# 4 0.0000 0.0000 0.0000 18.1486 0.0000 0.0000
# 5 0.0000 0.0000 0.0000 0.0000 26.4819 0.0000
# 6 0.0000 0.0000 0.0000 0.0000 0.0000 24.2153
#
#
#
# Elastic Compliance Matrix: (Units=1/GPa)
#
#
# Indices 1 2 3 4 5 6 
#
# 1 0.011667 -0.000953 0.004410 0.000000 0.000000 0.000000
# 2 -0.000953 0.007108 -0.001994 0.000000 0.000000 0.000000
# 3 0.004410 -0.001994 0.018399 0.000000 0.000000 0.000000
# 4 0.000000 0.000000 0.000000 0.055101 0.000000 0.000000
# 5 0.000000 0.000000 0.000000 0.000000 0.037762 0.000000
# 6 0.000000 0.000000 0.000000 0.000000 0.000000 0.041296
#
#
# Mechanical properties :
#
#
# Convention : Reuss Voigt Hill
#
# Bulk Modulus (GPa) = 24.93835 33.20062 29.06949
# Shear Modulus (GPa) = 27.50690 33.93430 30.72060
#
# Velocity S-wave (km/s) = 3.42975 3.80944 3.62457
# Velocity P-wave (km/s) = 5.13312 5.79199 5.47248
#
# Compressibility (1/GPa) = 0.04009889
#
# Stress axis : x y z
#
# Youngs Moduli (GPa) = 85.71274 140.69449 54.35150
#
# Poissons Ratio (x) = 0.13408 -0.23968
# Poissons Ratio (y) = 0.08168 0.10838
# Poissons Ratio (z) = -0.37798 0.28056
#
# Static dielectric constant tensor:
#      x y z
#    x 5.883930 0.000000 0.000000 
#    y 0.000000 1.959770 0.000000 
#    z 0.000000 0.000000 4.206530 
# 
# 
# High freq. dielectric constant tensor:
#      x y z
#    x 1.961010 0.000000 0.000000 
#    y 0.000000 1.904950 0.000000 
#    z 0.000000 0.000000 1.914570 
# 
# From -- ./inp_files/11314.got.cif
#   From: 2010.03.12/outbox.cif.g09.slc.cpg/sg62_6_cif.got.tgz:11314.got - 2010.04.10 19:12:36.
