data_PCOD8254788
_publ_section_title
;
Structure prediction by ZEFSAII (Michael W. Deem and Ramdas Pophale) SiO2 
 PCOD8254788
Probable space group: P N M A
;
_chemical_formula_sum "Si O2"
_cell_formula_units_Z 40
_cell_length_a 12.282907
_cell_length_b 9.180055
_cell_length_c 16.776481
_cell_angle_alpha 90.000000
_cell_angle_beta 90.000000
_cell_angle_gamma 90.000000
_cell_volume 1891.678449
_symmetry_space_group_name_H-M "P N M A"
_symmetry_group_IT_number 62
_symmetry_cell_setting 'orthorhombic'
loop_
_space_group_symop_operation_xyz
x,y,z
1/2-x,-y,1/2+z
1/2+x,1/2-y,1/2-z
-x,1/2+y,-z
-x,-y,-z
1/2+x,y,1/2-z
1/2-x,1/2+y,1/2+z
x,1/2-y,z
loop_
_atom_site_type_symbol
_atom_site_label
_atom_site_fract_x
_atom_site_fract_y
_atom_site_fract_z
Si Si1 0.121350 0.086948 0.568741
Si Si2 0.181499 0.915851 0.167156
Si Si3 0.567371 0.415394 0.102960
Si Si4 0.216410 0.916933 0.803842
Si Si5 0.012138 0.576182 0.913090
O O1 0.077281 0.250000 0.572584
O O2 0.249733 0.082658 0.585835
O O3 0.110120 0.019461 0.480669
O O4 0.042729 0.998396 0.629518
O O5 0.146472 0.750000 0.189889
O O6 0.273848 0.976954 0.228211
O O7 0.077031 0.016841 0.150264
O O8 0.533575 0.250000 0.093922
O O9 0.661226 0.436490 0.165976
O O10 0.193313 0.750000 0.777997
O O11 0.127889 0.962499 0.871046
O O12 0.998866 0.750000 0.924347
O O13 0.000000 0.500000 0.000000
#
# Coordination Sequence:
#
# PCOD8254788 Si02
#       5
#     8   8   8   8   8
#     4   9  19  36  57  84 116 151 193 246 302 358
#     4  11  24  40  61  90 127 164 208 261 313 373
#     4   9  18  35  59  83 112 150 194 243 299 362
#     4  10  23  41  61  88 124 164 207 259 315 370
#     4  11  24  44  69  95 129 171 218 267 321 387
#
# _framework density 21.145243000000001
#
# number of rings (size 3 to 8) (size 9 to 14) (size 15 to 20)
#    0.000    2.000    0.000    2.400    2.800    7.200 
#    0.000    4.000    0.000    0.000    0.000    0.000 
#    0.000    0.000    0.000    0.000    0.000    0.000 
#
# Total GULP energy -495548.560663 kJ/mol
# GULP energy per Si atom -12388.714017 kJ/mol
# Density = 2.109712 g / cm^3
# Si number density = 21.145243 Si / 1000 Ang^3
#
#
#
# Elastic Constant Matrix: (Units=GPa)
#
#
# Indices 1 2 3 4 5 6 
#
# 1 72.8922 43.8933 11.2123 0.0000 0.0000 0.0000
# 2 43.8933 89.6486 36.1258 0.0000 0.0000 0.0000
# 3 11.2123 36.1258 63.7134 0.0000 0.0000 0.0000
# 4 0.0000 0.0000 0.0000 29.8630 0.0000 0.0000
# 5 0.0000 0.0000 0.0000 0.0000 29.5188 0.0000
# 6 0.0000 0.0000 0.0000 0.0000 0.0000 36.6244
#
#
#
# Elastic Compliance Matrix: (Units=1/GPa)
#
#
# Indices 1 2 3 4 5 6 
#
# 1 0.019783 -0.010736 0.002606 0.000000 0.000000 0.000000
# 2 -0.010736 0.020285 -0.009612 0.000000 0.000000 0.000000
# 3 0.002606 -0.009612 0.020687 0.000000 0.000000 0.000000
# 4 0.000000 0.000000 0.000000 0.033486 0.000000 0.000000
# 5 0.000000 0.000000 0.000000 0.000000 0.033877 0.000000
# 6 0.000000 0.000000 0.000000 0.000000 0.000000 0.027304
#
#
# Mechanical properties :
#
#
# Convention : Reuss Voigt Hill
#
# Bulk Modulus (GPa) = 39.57274 45.41300 42.49287
# Shear Modulus (GPa) = 25.08406 28.20277 26.64342
#
# Velocity S-wave (km/s) = 3.44797 3.65604 3.55353
# Velocity P-wave (km/s) = 5.88274 6.27260 6.08080
#
# Compressibility (1/GPa) = 0.02526992
#
# Stress axis : x y z
#
# Youngs Moduli (GPa) = 50.54826 49.29813 48.33995
#
# Poissons Ratio (x) = 0.52928 -0.12598
# Poissons Ratio (y) = 0.54270 0.46465
# Poissons Ratio (z) = -0.13173 0.47386
#
# Static dielectric constant tensor:
#      x y z
#    x 3.973780 0.000000 0.000000 
#    y 0.000000 3.832980 0.000000 
#    z 0.000000 0.000000 3.889430 
# 
# 
# High freq. dielectric constant tensor:
#      x y z
#    x 1.838430 0.000000 0.000000 
#    y 0.000000 1.824710 0.000000 
#    z 0.000000 0.000000 1.825010 
# 
# From -- ./inp_files/22778.got.cif
#   From: 2010.03.12/outbox.cif.g09.slc.cpg/sg62_12_cif.got.tgz:22778.got - 2010.04.10 19:12:36.
