data_PCOD8254554
_publ_section_title
;
Structure prediction by ZEFSAII (Michael W. Deem and Ramdas Pophale) SiO2 
 PCOD8254554
Probable space group: P N M A
;
_chemical_formula_sum "Si O2"
_cell_formula_units_Z 64
_cell_length_a 30.702694
_cell_length_b 8.353158
_cell_length_c 11.965410
_cell_angle_alpha 90.000000
_cell_angle_beta 90.000000
_cell_angle_gamma 90.000000
_cell_volume 3068.702343
_symmetry_space_group_name_H-M "P N M A"
_symmetry_group_IT_number 62
_symmetry_cell_setting 'orthorhombic'
loop_
_space_group_symop_operation_xyz
x,y,z
1/2-x,-y,1/2+z
1/2+x,1/2-y,1/2-z
-x,1/2+y,-z
-x,-y,-z
1/2+x,y,1/2-z
1/2-x,1/2+y,1/2+z
x,1/2-y,z
loop_
_atom_site_type_symbol
_atom_site_label
_atom_site_fract_x
_atom_site_fract_y
_atom_site_fract_z
Si Si1 0.165640 0.435415 0.001787
Si Si2 0.051258 0.561123 0.761172
Si Si3 0.300616 0.436022 0.275998
Si Si4 0.545737 0.434369 0.268187
Si Si5 0.873308 0.438823 0.396096
Si Si6 0.072296 0.936107 0.005777
Si Si7 0.372539 0.063663 0.855676
Si Si8 0.208236 0.559808 0.210469
O O1 0.155667 0.250000 0.024428
O O2 0.181065 0.457433 0.875730
O O3 0.123306 0.540198 0.028679
O O4 0.203246 0.500037 0.083591
O O5 0.058487 0.750000 0.770746
O O6 0.085714 0.487682 0.672982
O O7 0.060341 0.490256 0.884782
O O8 0.002237 0.520059 0.721814
O O9 0.306837 0.250000 0.306160
O O10 0.328093 0.480925 0.165336
O O11 0.250545 0.475949 0.259492
O O12 0.556491 0.250000 0.246499
O O13 0.545276 0.468801 0.400608
O O14 0.581254 0.538031 0.203592
O O15 0.880121 0.250000 0.405122
O O16 0.872407 0.515203 0.520406
O O17 0.060607 0.750000 0.015818
O O18 0.364218 0.250000 0.868271
O O19 0.332933 0.994130 0.782011
O O20 0.213438 0.750000 0.215373
#
# Coordination Sequence:
#
# PCOD8254554 Si02
#       8
#     8   8   8   8   8   8   8   8
#     4  12  24  40  64  93 126 162 204 252 305 364
#     4   9  19  36  60  88 120 157 199 248 305 367
#     4  11  23  41  67  94 123 161 203 251 308 366
#     4  11  22  36  58  89 122 158 200 251 305 363
#     4   9  19  39  63  86 116 159 203 244 299 364
#     4  11  20  37  62  88 121 159 201 251 308 365
#     4  10  22  40  62  84 117 163 204 247 302 364
#     4  11  24  41  62  92 127 161 204 253 303 364
#
# _framework density 20.855719000000001
#
# number of rings (size 3 to 8) (size 9 to 14) (size 15 to 20)
#    0.000    1.500    2.500    3.000    1.750    1.000 
#    0.000    3.125    0.000    0.000    0.000    0.000 
#    0.000    0.000    0.000    0.000    0.000    0.000 
#
# Total GULP energy -793794.266022 kJ/mol
# GULP energy per Si atom -12403.035407 kJ/mol
# Density = 2.080825 g / cm^3
# Si number density = 20.855719 Si / 1000 Ang^3
#
#
#
# Elastic Constant Matrix: (Units=GPa)
#
#
# Indices 1 2 3 4 5 6 
#
# 1 117.2279 20.3362 34.5205 0.0000 0.0000 0.0000
# 2 20.3362 27.3522 14.0322 0.0000 0.0000 0.0000
# 3 34.5205 14.0322 122.4292 0.0000 0.0000 0.0000
# 4 0.0000 0.0000 0.0000 19.4514 0.0000 0.0000
# 5 0.0000 0.0000 0.0000 0.0000 31.5649 0.0000
# 6 0.0000 0.0000 0.0000 0.0000 0.0000 21.6446
#
#
#
# Elastic Compliance Matrix: (Units=1/GPa)
#
#
# Indices 1 2 3 4 5 6 
#
# 1 0.010302 -0.006554 -0.002153 0.000000 0.000000 0.000000
# 2 -0.006554 0.043014 -0.003082 0.000000 0.000000 0.000000
# 3 -0.002153 -0.003082 0.009128 0.000000 0.000000 0.000000
# 4 0.000000 0.000000 0.000000 0.051410 0.000000 0.000000
# 5 0.000000 0.000000 0.000000 0.000000 0.031681 0.000000
# 6 0.000000 0.000000 0.000000 0.000000 0.000000 0.046201
#
#
# Mechanical properties :
#
#
# Convention : Reuss Voigt Hill
#
# Bulk Modulus (GPa) = 25.73029 44.97637 35.35333
# Shear Modulus (GPa) = 21.90380 27.74019 24.82200
#
# Velocity S-wave (km/s) = 3.24428 3.65101 3.45364
# Velocity P-wave (km/s) = 5.13788 6.27578 5.73513
#
# Compressibility (1/GPa) = 0.03886470
#
# Stress axis : x y z
#
# Youngs Moduli (GPa) = 97.07277 23.24805 109.54808
#
# Poissons Ratio (x) = 0.15238 0.23590
# Poissons Ratio (y) = 0.63625 0.33763
# Poissons Ratio (z) = 0.20904 0.07165
#
# Static dielectric constant tensor:
#      x y z
#    x 3.877500 0.000000 0.000000 
#    y 0.000000 3.426550 0.000000 
#    z 0.000000 0.000000 4.053750 
# 
# 
# High freq. dielectric constant tensor:
#      x y z
#    x 1.826030 0.000000 0.000000 
#    y 0.000000 1.790090 0.000000 
#    z 0.000000 0.000000 1.822120 
# 
# From -- ./inp_files/15807.got.cif
#   From: 2010.03.12/outbox.cif.g09.slc.cpg/sg62_8_cif.got.tgz:15807.got - 2010.04.10 19:12:36.
