data_PCOD8254376
_publ_section_title
;
Structure prediction by ZEFSAII (Michael W. Deem and Ramdas Pophale) SiO2 
 PCOD8254376
Probable space group: P N M A
;
_chemical_formula_sum "Si O2"
_cell_formula_units_Z 40
_cell_length_a 12.226952
_cell_length_b 8.712355
_cell_length_c 18.706461
_cell_angle_alpha 90.000000
_cell_angle_beta 90.000000
_cell_angle_gamma 90.000000
_cell_volume 1992.715979
_symmetry_space_group_name_H-M "P N M A"
_symmetry_group_IT_number 62
_symmetry_cell_setting 'orthorhombic'
loop_
_space_group_symop_operation_xyz
x,y,z
1/2-x,-y,1/2+z
1/2+x,1/2-y,1/2-z
-x,1/2+y,-z
-x,-y,-z
1/2+x,y,1/2-z
1/2-x,1/2+y,1/2+z
x,1/2-y,z
loop_
_atom_site_type_symbol
_atom_site_label
_atom_site_fract_x
_atom_site_fract_y
_atom_site_fract_z
Si Si1 0.406425 0.570149 0.182299
Si Si2 0.959281 0.431305 0.169730
Si Si3 0.173747 0.930615 0.115509
Si Si4 0.940663 0.568364 0.568184
Si Si5 0.302585 0.431760 0.455312
O O1 0.428867 0.750000 0.178667
O O2 0.404107 0.513544 0.263250
O O3 0.291793 0.526910 0.146384
O O4 0.503730 0.485255 0.141158
O O5 0.949819 0.250000 0.179837
O O6 0.085101 0.479657 0.162430
O O7 0.893555 0.490563 0.100110
O O8 0.150369 0.750000 0.120756
O O9 0.167841 0.992903 0.034263
O O10 0.945399 0.750000 0.562240
O O11 0.816111 0.507454 0.568946
O O12 0.000000 0.500000 0.500000
O O13 0.299485 0.250000 0.458036
#
# Coordination Sequence:
#
# PCOD8254376 Si02
#       5
#     8   8   8   8   8
#     4  11  24  42  62  89 125 166 207 254 311 366
#     4  11  24  40  62  92 125 161 205 257 312 369
#     4  10  21  42  65  87 123 163 204 254 308 370
#     4  11  21  39  64  93 124 161 205 253 307 365
#     4   9  20  40  64  90 122 158 200 254 308 363
#
# _framework density 20.073105000000002
#
# number of rings (size 3 to 8) (size 9 to 14) (size 15 to 20)
#    0.000    1.600    2.000    2.400    2.800    1.600 
#    0.000    4.000    0.000    0.000    0.000    0.000 
#    0.000    0.000    0.000    0.000    0.000    0.000 
#
# Total GULP energy -496203.608343 kJ/mol
# GULP energy per Si atom -12405.090209 kJ/mol
# Density = 2.002742 g / cm^3
# Si number density = 20.073105 Si / 1000 Ang^3
#
#
#
# Elastic Constant Matrix: (Units=GPa)
#
#
# Indices 1 2 3 4 5 6 
#
# 1 90.2636 29.2490 30.5616 0.0000 0.0000 0.0000
# 2 29.2490 48.6781 18.5919 0.0000 0.0000 0.0000
# 3 30.5616 18.5919 125.4167 0.0000 0.0000 0.0000
# 4 0.0000 0.0000 0.0000 35.7520 0.0000 0.0000
# 5 0.0000 0.0000 0.0000 0.0000 37.8213 0.0000
# 6 0.0000 0.0000 0.0000 0.0000 0.0000 26.1304
#
#
#
# Elastic Compliance Matrix: (Units=1/GPa)
#
#
# Indices 1 2 3 4 5 6 
#
# 1 0.014386 -0.007744 -0.002358 0.000000 0.000000 0.000000
# 2 -0.007744 0.025944 -0.001959 0.000000 0.000000 0.000000
# 3 -0.002358 -0.001959 0.008838 0.000000 0.000000 0.000000
# 4 0.000000 0.000000 0.000000 0.027970 0.000000 0.000000
# 5 0.000000 0.000000 0.000000 0.000000 0.026440 0.000000
# 6 0.000000 0.000000 0.000000 0.000000 0.000000 0.038270
#
#
# Mechanical properties :
#
#
# Convention : Reuss Voigt Hill
#
# Bulk Modulus (GPa) = 39.92334 46.79591 43.35963
# Shear Modulus (GPa) = 28.68304 32.33781 30.51043
#
# Velocity S-wave (km/s) = 3.78422 4.01808 3.90290
# Velocity P-wave (km/s) = 6.24707 6.70000 6.47750
#
# Compressibility (1/GPa) = 0.02504800
#
# Stress axis : x y z
#
# Youngs Moduli (GPa) = 69.51105 38.54421 113.14327
#
# Poissons Ratio (x) = 0.29847 0.26676
# Poissons Ratio (y) = 0.53827 0.22165
# Poissons Ratio (z) = 0.16389 0.07551
#
# Static dielectric constant tensor:
#      x y z
#    x 3.824630 0.000000 0.000000 
#    y 0.000000 3.471890 0.000000 
#    z 0.000000 0.000000 4.242850 
# 
# 
# High freq. dielectric constant tensor:
#      x y z
#    x 1.796300 0.000000 0.000000 
#    y 0.000000 1.769390 0.000000 
#    z 0.000000 0.000000 1.796020 
# 
# From -- ./inp_files/22764.got.cif
#   From: 2010.03.12/outbox.cif.g09.slc.cpg/sg62_12_cif.got.tgz:22764.got - 2010.04.10 19:12:36.
