data_PCOD8254403
_publ_section_title
;
Structure prediction by ZEFSAII (Michael W. Deem and Ramdas Pophale) SiO2 
 PCOD8254403
Probable space group: P N M A
;
_chemical_formula_sum "Si O2"
_cell_formula_units_Z 40
_cell_length_a 10.172120
_cell_length_b 17.847246
_cell_length_c 9.971694
_cell_angle_alpha 90.000000
_cell_angle_beta 90.000000
_cell_angle_gamma 90.000000
_cell_volume 1810.304486
_symmetry_space_group_name_H-M "P N M A"
_symmetry_group_IT_number 62
_symmetry_cell_setting 'orthorhombic'
loop_
_space_group_symop_operation_xyz
x,y,z
1/2-x,-y,1/2+z
1/2+x,1/2-y,1/2-z
-x,1/2+y,-z
-x,-y,-z
1/2+x,y,1/2-z
1/2-x,1/2+y,1/2+z
x,1/2-y,z
loop_
_atom_site_type_symbol
_atom_site_label
_atom_site_fract_x
_atom_site_fract_y
_atom_site_fract_z
Si Si1 0.132989 0.836211 0.982744
Si Si2 0.329575 0.835579 0.524467
Si Si3 0.741159 0.561473 0.744765
Si Si4 0.643127 0.834781 0.214576
Si Si5 0.503763 0.522095 0.153970
O O1 0.151564 0.750000 0.938648
O O2 0.186166 0.850123 0.132488
O O3 0.216278 0.889192 0.886819
O O4 0.980716 0.860036 0.976617
O O5 0.314555 0.750000 0.570875
O O6 0.245920 0.885094 0.626596
O O7 0.271786 0.847801 0.376120
O O8 0.876646 0.518713 0.728084
O O9 0.627879 0.500635 0.768119
O O10 0.588072 0.750000 0.200398
O O11 0.524811 0.888761 0.167721
O O12 0.500000 0.500000 0.000000
#
# Coordination Sequence:
#
# PCOD8254403 Si02
#       5
#     8   8   8   8   8
#     4  10  23  43  69 104 138 186 235 283 350 415
#     4  10  21  43  69 100 140 182 231 284 348 412
#     4  12  25  46  72 101 140 182 231 298 342 412
#     4  10  24  44  67  96 139 183 227 285 348 420
#     4  12  28  45  71 107 139 180 239 286 357 414
#
# _framework density 22.09573
#
# number of rings (size 3 to 8) (size 9 to 14) (size 15 to 20)
#    0.000    1.200    4.000    0.600    5.600    0.800 
#    0.000    2.000    0.000    0.000    0.000    0.000 
#    0.000    0.000    0.000    0.000    0.000    0.000 
#
# Total GULP energy -496240.164858 kJ/mol
# GULP energy per Si atom -12406.004121 kJ/mol
# Density = 2.204544 g / cm^3
# Si number density = 22.095730 Si / 1000 Ang^3
#
#
#
# Elastic Constant Matrix: (Units=GPa)
#
#
# Indices 1 2 3 4 5 6 
#
# 1 87.9094 26.2200 23.6513 0.0000 0.0000 0.0000
# 2 26.2200 95.9421 48.5980 0.0000 0.0000 0.0000
# 3 23.6513 48.5980 127.6370 0.0000 0.0000 0.0000
# 4 0.0000 0.0000 0.0000 28.3955 0.0000 0.0000
# 5 0.0000 0.0000 0.0000 0.0000 37.7889 0.0000
# 6 0.0000 0.0000 0.0000 0.0000 0.0000 12.0366
#
#
#
# Elastic Compliance Matrix: (Units=1/GPa)
#
#
# Indices 1 2 3 4 5 6 
#
# 1 0.012547 -0.002789 -0.001263 0.000000 0.000000 0.000000
# 2 -0.002789 0.013534 -0.004636 0.000000 0.000000 0.000000
# 3 -0.001263 -0.004636 0.009834 0.000000 0.000000 0.000000
# 4 0.000000 0.000000 0.000000 0.035217 0.000000 0.000000
# 5 0.000000 0.000000 0.000000 0.000000 0.026463 0.000000
# 6 0.000000 0.000000 0.000000 0.000000 0.000000 0.083080
#
#
# Mechanical properties :
#
#
# Convention : Reuss Voigt Hill
#
# Bulk Modulus (GPa) = 53.94332 56.49190 55.21761
# Shear Modulus (GPa) = 24.48217 29.84548 27.16382
#
# Velocity S-wave (km/s) = 3.33228 3.67922 3.51004
# Velocity P-wave (km/s) = 6.26673 6.60843 6.43985
#
# Compressibility (1/GPa) = 0.01853798
#
# Stress axis : x y z
#
# Youngs Moduli (GPa) = 79.69995 73.89042 101.68863
#
# Poissons Ratio (x) = 0.20610 0.12843
# Poissons Ratio (y) = 0.22230 0.47144
# Poissons Ratio (z) = 0.10066 0.34256
#
# Static dielectric constant tensor:
#      x y z
#    x 3.921370 0.000000 0.000000 
#    y 0.000000 4.243040 0.000000 
#    z 0.000000 0.000000 4.023270 
# 
# 
# High freq. dielectric constant tensor:
#      x y z
#    x 1.863090 0.000000 0.000000 
#    y 0.000000 1.884130 0.000000 
#    z 0.000000 0.000000 1.879270 
# 
# From -- ./inp_files/5045.got.cif
#   From: 2010.03.12/outbox.cif.g09.slc.cpg/sg62_3_cif.got.tgz:5045.got - 2010.04.10 19:12:36.
