data_PCOD8254877
_publ_section_title
;
Structure prediction by ZEFSAII (Michael W. Deem and Ramdas Pophale) SiO2 
 PCOD8254877
Probable space group: P N M A
;
_chemical_formula_sum "Si O2"
_cell_formula_units_Z 56
_cell_length_a 19.299000
_cell_length_b 15.238336
_cell_length_c 8.415789
_cell_angle_alpha 90.000000
_cell_angle_beta 90.000000
_cell_angle_gamma 90.000000
_cell_volume 2474.954333
_symmetry_space_group_name_H-M "P N M A"
_symmetry_group_IT_number 62
_symmetry_cell_setting 'orthorhombic'
loop_
_space_group_symop_operation_xyz
x,y,z
1/2-x,-y,1/2+z
1/2+x,1/2-y,1/2-z
-x,1/2+y,-z
-x,-y,-z
1/2+x,y,1/2-z
1/2-x,1/2+y,1/2+z
x,1/2-y,z
loop_
_atom_site_type_symbol
_atom_site_label
_atom_site_fract_x
_atom_site_fract_y
_atom_site_fract_z
Si Si1 0.196755 0.154520 0.175955
Si Si2 0.858298 0.152864 0.875658
Si Si3 0.701267 0.382432 0.965885
Si Si4 0.377455 0.517394 0.455929
Si Si5 0.067436 0.848665 0.448299
Si Si6 0.328787 0.440282 0.142982
Si Si7 0.433263 0.849185 0.233623
O O1 0.174755 0.250000 0.106493
O O2 0.182612 0.156562 0.363356
O O3 0.278840 0.143518 0.146630
O O4 0.158262 0.074883 0.091799
O O5 0.882760 0.250000 0.935421
O O6 0.875052 0.144176 0.689900
O O7 0.775950 0.146520 0.901065
O O8 0.901353 0.075379 0.965825
O O9 0.699648 0.487819 0.981152
O O10 0.642391 0.348609 0.845066
O O11 0.326363 0.487051 0.314829
O O12 0.436547 0.580130 0.378732
O O13 0.061060 0.750000 0.512509
O O14 0.093913 0.909544 0.593321
O O15 0.991943 0.880651 0.390295
O O16 0.450574 0.750000 0.294022
#
# Coordination Sequence:
#
# PCOD8254877 Si02
#       7
#     8   8   8   8   8   8   8
#     4  12  22  37  62  98 130 163 208 267 323 387
#     4  11  22  40  64  96 130 170 220 280 335 390
#     4  11  23  39  66  94 131 170 221 273 331 393
#     4  11  24  38  64  93 130 169 213 268 326 394
#     4  10  24  43  67  93 130 177 226 274 330 400
#     4  11  22  39  63  92 128 165 216 268 322 386
#     4  10  23  45  65  94 133 178 225 271 332 400
#
# _framework density 22.62668
#
# number of rings (size 3 to 8) (size 9 to 14) (size 15 to 20)
#    0.000    1.143    2.857    3.000    4.000    3.429 
#    0.000    1.429    0.000    3.429    0.000    0.000 
#    0.000    0.000    0.000    0.000    0.000    0.000 
#
# Total GULP energy -693976.061186 kJ/mol
# GULP energy per Si atom -12392.429664 kJ/mol
# Density = 2.257518 g / cm^3
# Si number density = 22.626680 Si / 1000 Ang^3
#
#
#
# Elastic Constant Matrix: (Units=GPa)
#
#
# Indices 1 2 3 4 5 6 
#
# 1 60.6075 13.4958 18.4803 0.0000 0.0000 0.0000
# 2 13.4958 152.8534 26.3710 0.0000 0.0000 0.0000
# 3 18.4803 26.3710 57.5116 0.0000 0.0000 0.0000
# 4 0.0000 0.0000 0.0000 27.2260 0.0000 0.0000
# 5 0.0000 0.0000 0.0000 0.0000 27.2284 0.0000
# 6 0.0000 0.0000 0.0000 0.0000 0.0000 20.6442
#
#
#
# Elastic Compliance Matrix: (Units=1/GPa)
#
#
# Indices 1 2 3 4 5 6 
#
# 1 0.018352 -0.000655 -0.005597 0.000000 0.000000 0.000000
# 2 -0.000655 0.007128 -0.003058 0.000000 0.000000 0.000000
# 3 -0.005597 -0.003058 0.020588 0.000000 0.000000 0.000000
# 4 0.000000 0.000000 0.000000 0.036730 0.000000 0.000000
# 5 0.000000 0.000000 0.000000 0.000000 0.036726 0.000000
# 6 0.000000 0.000000 0.000000 0.000000 0.000000 0.048440
#
#
# Mechanical properties :
#
#
# Convention : Reuss Voigt Hill
#
# Bulk Modulus (GPa) = 36.43111 43.07407 39.75259
# Shear Modulus (GPa) = 25.54510 29.19474 27.36992
#
# Velocity S-wave (km/s) = 3.36368 3.59594 3.48175
# Velocity P-wave (km/s) = 5.58764 6.02655 5.81124
#
# Compressibility (1/GPa) = 0.02744907
#
# Stress axis : x y z
#
# Youngs Moduli (GPa) = 54.49001 140.30006 48.57110
#
# Poissons Ratio (x) = 0.09186 0.27184
# Poissons Ratio (y) = 0.03568 0.14852
# Poissons Ratio (z) = 0.30497 0.42902
#
# Static dielectric constant tensor:
#      x y z
#    x 3.780730 0.000000 0.000000 
#    y 0.000000 4.596670 0.000000 
#    z 0.000000 0.000000 3.976710 
# 
# 
# High freq. dielectric constant tensor:
#      x y z
#    x 1.866410 0.000000 0.000000 
#    y 0.000000 1.917410 0.000000 
#    z 0.000000 0.000000 1.880010 
# 
# From -- ./inp_files/8710.got.cif
#   From: 2010.03.12/outbox.cif.g09.slc.cpg/sg62_5_cif.got.tgz:8710.got - 2010.04.10 19:12:36.
