data_PCOD8254368
_publ_section_title
;
Structure prediction by ZEFSAII (Michael W. Deem and Ramdas Pophale) SiO2 
 PCOD8254368
Probable space group: P N M A
;
_chemical_formula_sum "Si O2"
_cell_formula_units_Z 56
_cell_length_a 13.736303
_cell_length_b 13.852950
_cell_length_c 13.906982
_cell_angle_alpha 90.000000
_cell_angle_beta 90.000000
_cell_angle_gamma 90.000000
_cell_volume 2646.336222
_symmetry_space_group_name_H-M "P N M A"
_symmetry_group_IT_number 62
_symmetry_cell_setting 'orthorhombic'
loop_
_space_group_symop_operation_xyz
x,y,z
1/2-x,-y,1/2+z
1/2+x,1/2-y,1/2-z
-x,1/2+y,-z
-x,-y,-z
1/2+x,y,1/2-z
1/2-x,1/2+y,1/2+z
x,1/2-y,z
loop_
_atom_site_type_symbol
_atom_site_label
_atom_site_fract_x
_atom_site_fract_y
_atom_site_fract_z
Si Si1 0.184313 0.452795 0.465783
Si Si2 0.138518 0.354817 0.041671
Si Si3 0.547337 0.501384 0.331646
Si Si4 0.222729 0.864363 0.156868
Si Si5 0.957226 0.858221 0.666731
Si Si6 0.647072 0.857769 0.941609
Si Si7 0.329351 0.559364 0.344359
O O1 0.227940 0.414424 0.565279
O O2 0.104176 0.376715 0.430403
O O3 0.131463 0.557300 0.480319
O O4 0.268502 0.467740 0.385463
O O5 0.091883 0.250000 0.062562
O O6 0.063840 0.438940 0.071122
O O7 0.241851 0.366518 0.098237
O O8 0.162137 0.361347 0.928499
O O9 0.611954 0.597900 0.333213
O O10 0.581820 0.432487 0.245282
O O11 0.435976 0.525011 0.315331
O O12 0.219644 0.750000 0.142336
O O13 0.281779 0.891569 0.251974
O O14 0.937111 0.750000 0.703368
O O15 0.072017 0.872489 0.645906
O O16 0.630943 0.750000 0.987195
#
# Coordination Sequence:
#
# PCOD8254368 Si02
#       7
#     8   8   8   8   8   8   8
#     4  11  22  44  68  94 134 175 217 276 329 388
#     4  10  21  41  68  96 131 173 218 269 325 397
#     4  12  24  42  66  96 132 174 219 268 330 393
#     4  12  26  45  67  98 132 172 225 277 334 394
#     4  11  23  40  64  98 133 171 221 272 327 390
#     4   9  19  36  63  94 125 166 214 264 321 384
#     4  11  24  44  68  95 133 175 215 270 333 392
#
# _framework density 21.161332999999999
#
# number of rings (size 3 to 8) (size 9 to 14) (size 15 to 20)
#    0.000    1.143    4.286    3.000    0.000    1.714 
#    0.000    2.143    0.000    0.000    0.000    0.000 
#    0.000    0.000    0.000    0.000    0.000    0.000 
#
# Total GULP energy -694269.676810 kJ/mol
# GULP energy per Si atom -12397.672800 kJ/mol
# Density = 2.111317 g / cm^3
# Si number density = 21.161333 Si / 1000 Ang^3
#
#
#
# Elastic Constant Matrix: (Units=GPa)
#
#
# Indices 1 2 3 4 5 6 
#
# 1 79.9426 48.6570 32.2325 0.0000 0.0000 0.0000
# 2 48.6570 136.3432 41.4349 0.0000 0.0000 0.0000
# 3 32.2325 41.4349 89.6572 0.0000 0.0000 0.0000
# 4 0.0000 0.0000 0.0000 23.5573 0.0000 0.0000
# 5 0.0000 0.0000 0.0000 0.0000 29.5048 0.0000
# 6 0.0000 0.0000 0.0000 0.0000 0.0000 25.1244
#
#
#
# Elastic Compliance Matrix: (Units=1/GPa)
#
#
# Indices 1 2 3 4 5 6 
#
# 1 0.017056 -0.004914 -0.003861 0.000000 0.000000 0.000000
# 2 -0.004914 0.009948 -0.002831 0.000000 0.000000 0.000000
# 3 -0.003861 -0.002831 0.013850 0.000000 0.000000 0.000000
# 4 0.000000 0.000000 0.000000 0.042450 0.000000 0.000000
# 5 0.000000 0.000000 0.000000 0.000000 0.033893 0.000000
# 6 0.000000 0.000000 0.000000 0.000000 0.000000 0.039802
#
#
# Mechanical properties :
#
#
# Convention : Reuss Voigt Hill
#
# Bulk Modulus (GPa) = 56.67905 61.17687 58.92796
# Shear Modulus (GPa) = 26.86845 27.87855 27.37350
#
# Velocity S-wave (km/s) = 3.56714 3.63358 3.60051
# Velocity P-wave (km/s) = 6.61879 6.82469 6.72253
#
# Compressibility (1/GPa) = 0.01764320
#
# Stress axis : x y z
#
# Youngs Moduli (GPa) = 58.62913 100.51953 72.20158
#
# Poissons Ratio (x) = 0.49391 0.27878
# Poissons Ratio (y) = 0.28808 0.20441
# Poissons Ratio (z) = 0.22637 0.28459
#
# Static dielectric constant tensor:
#      x y z
#    x 3.816130 0.000000 0.000000 
#    y 0.000000 3.978540 0.000000 
#    z 0.000000 0.000000 3.687650 
# 
# 
# High freq. dielectric constant tensor:
#      x y z
#    x 1.830830 0.000000 0.000000 
#    y 0.000000 1.836320 0.000000 
#    z 0.000000 0.000000 1.818470 
# 
# From -- ./inp_files/13353.got.cif
#   From: 2010.03.12/outbox.cif.g09.slc.cpg/sg62_7_cif.got.tgz:13353.got - 2010.04.10 19:12:36.
