data_PCOD8254166
_publ_section_title
;
Structure prediction by ZEFSAII (Michael W. Deem and Ramdas Pophale) SiO2 
 PCOD8254166
Probable space group: P N M A
;
_chemical_formula_sum "Si O2"
_cell_formula_units_Z 64
_cell_length_a 9.710674
_cell_length_b 14.451550
_cell_length_c 21.703137
_cell_angle_alpha 90.000000
_cell_angle_beta 90.000000
_cell_angle_gamma 90.000000
_cell_volume 3045.694340
_symmetry_space_group_name_H-M "P N M A"
_symmetry_group_IT_number 62
_symmetry_cell_setting 'orthorhombic'
loop_
_space_group_symop_operation_xyz
x,y,z
1/2-x,-y,1/2+z
1/2+x,1/2-y,1/2-z
-x,1/2+y,-z
-x,-y,-z
1/2+x,y,1/2-z
1/2-x,1/2+y,1/2+z
x,1/2-y,z
loop_
_atom_site_type_symbol
_atom_site_label
_atom_site_fract_x
_atom_site_fract_y
_atom_site_fract_z
Si Si1 0.031711 0.394760 0.489599
Si Si2 0.816080 0.533074 0.307503
Si Si3 0.464200 0.648315 0.592645
Si Si4 0.971897 0.351529 0.622192
Si Si5 0.344235 0.352143 0.123581
Si Si6 0.545893 0.953853 0.368943
Si Si7 0.692199 0.358094 0.685512
Si Si8 0.662494 0.853263 0.480671
O O1 0.195058 0.376707 0.484646
O O2 0.000000 0.500000 0.500000
O O3 0.962911 0.343400 0.548174
O O4 0.967002 0.362046 0.425419
O O5 0.852060 0.424805 0.319277
O O6 0.653395 0.552299 0.312776
O O7 0.853119 0.572976 0.240669
O O8 0.898685 0.586123 0.360761
O O9 0.497203 0.750000 0.623276
O O10 0.299225 0.635612 0.586672
O O11 0.517974 0.558403 0.630331
O O12 0.533538 0.644737 0.526342
O O13 0.996059 0.250000 0.649907
O O14 0.832808 0.390880 0.653259
O O15 0.354689 0.250000 0.153430
O O16 0.428728 0.875960 0.363517
O O17 0.633045 0.931457 0.430183
O O18 0.694778 0.250000 0.705205
O O19 0.675492 0.750000 0.451499
#
# Coordination Sequence:
#
# PCOD8254166 Si02
#       8
#     8   8   8   8   8   8   8   8
#     4  12  22  37  59  93 129 165 198 247 305 371
#     4  11  22  42  61  86 116 161 204 252 304 356
#     4   9  21  38  59  88 120 156 196 242 297 359
#     4  11  23  39  60  89 125 162 201 250 306 365
#     4  10  21  39  63  90 123 161 202 250 304 365
#     4  11  22  39  62  85 118 159 201 249 300 364
#     4  11  26  41  62  89 119 158 205 257 305 360
#     4  11  22  36  58  89 125 162 199 242 300 366
#
# _framework density 21.013269000000001
#
# number of rings (size 3 to 8) (size 9 to 14) (size 15 to 20)
#    0.000    1.250    2.500    3.750    3.500    2.500 
#    0.000    0.625    0.000    2.250    0.000    0.000 
#    0.000    0.000    0.000    0.000    0.000    0.000 
#
# Total GULP energy -793255.777471 kJ/mol
# GULP energy per Si atom -12394.621523 kJ/mol
# Density = 2.096544 g / cm^3
# Si number density = 21.013269 Si / 1000 Ang^3
#
#
#
# Elastic Constant Matrix: (Units=GPa)
#
#
# Indices 1 2 3 4 5 6 
#
# 1 83.6871 46.9304 32.8724 0.0000 0.0000 0.0000
# 2 46.9304 146.8062 27.7506 0.0000 0.0000 0.0000
# 3 32.8724 27.7506 61.5654 0.0000 0.0000 0.0000
# 4 0.0000 0.0000 0.0000 31.5827 0.0000 0.0000
# 5 0.0000 0.0000 0.0000 0.0000 24.4977 0.0000
# 6 0.0000 0.0000 0.0000 0.0000 0.0000 29.5151
#
#
#
# Elastic Compliance Matrix: (Units=1/GPa)
#
#
# Indices 1 2 3 4 5 6 
#
# 1 0.017107 -0.004091 -0.007290 0.000000 0.000000 0.000000
# 2 -0.004091 0.008424 -0.001613 0.000000 0.000000 0.000000
# 3 -0.007290 -0.001613 0.020863 0.000000 0.000000 0.000000
# 4 0.000000 0.000000 0.000000 0.031663 0.000000 0.000000
# 5 0.000000 0.000000 0.000000 0.000000 0.040820 0.000000
# 6 0.000000 0.000000 0.000000 0.000000 0.000000 0.033881
#
#
# Mechanical properties :
#
#
# Convention : Reuss Voigt Hill
#
# Bulk Modulus (GPa) = 49.00560 56.35171 52.67865
# Shear Modulus (GPa) = 26.94727 29.41945 28.18336
#
# Velocity S-wave (km/s) = 3.58494 3.74577 3.66624
# Velocity P-wave (km/s) = 6.36456 6.75153 6.56090
#
# Compressibility (1/GPa) = 0.02040583
#
# Stress axis : x y z
#
# Youngs Moduli (GPa) = 58.45625 118.70452 47.93274
#
# Poissons Ratio (x) = 0.48557 0.34944
# Poissons Ratio (y) = 0.23912 0.07732
# Poissons Ratio (z) = 0.42616 0.19148
#
# Static dielectric constant tensor:
#      x y z
#    x 3.938800 0.000000 0.000000 
#    y 0.000000 4.142610 0.000000 
#    z 0.000000 0.000000 3.574240 
# 
# 
# High freq. dielectric constant tensor:
#      x y z
#    x 1.831110 0.000000 0.000000 
#    y 0.000000 1.843270 0.000000 
#    z 0.000000 0.000000 1.785680 
# 
# From -- ./inp_files/29013.got.cif
#   From: 2010.03.12/outbox.cif.g09.slc.cpg/sg62_15_cif.got.tgz:29013.got - 2010.04.10 19:12:36.
