data_PCOD8254691
_publ_section_title
;
Structure prediction by ZEFSAII (Michael W. Deem and Ramdas Pophale) SiO2 
 PCOD8254691
Probable space group: P N M A
;
_chemical_formula_sum "Si O2"
_cell_formula_units_Z 32
_cell_length_a 12.858477
_cell_length_b 21.922452
_cell_length_c 5.314663
_cell_angle_alpha 90.000000
_cell_angle_beta 90.000000
_cell_angle_gamma 90.000000
_cell_volume 1498.146871
_symmetry_space_group_name_H-M "P N M A"
_symmetry_group_IT_number 62
_symmetry_cell_setting 'orthorhombic'
loop_
_space_group_symop_operation_xyz
x,y,z
1/2-x,-y,1/2+z
1/2+x,1/2-y,1/2-z
-x,1/2+y,-z
-x,-y,-z
1/2+x,y,1/2-z
1/2-x,1/2+y,1/2+z
x,1/2-y,z
loop_
_atom_site_type_symbol
_atom_site_label
_atom_site_fract_x
_atom_site_fract_y
_atom_site_fract_z
Si Si1 0.962951 0.627168 0.366487
Si Si2 0.716749 0.077988 0.141931
Si Si3 0.599373 0.180672 0.357794
Si Si4 0.097402 0.532670 0.127071
O O1 0.055891 0.578136 0.343437
O O2 0.852903 0.590950 0.391763
O O3 0.978719 0.667273 0.621166
O O4 0.960951 0.669153 0.118152
O O5 0.838293 0.072478 0.076674
O O6 0.698620 0.134900 0.334604
O O7 0.677502 0.015122 0.260626
O O8 0.639196 0.250000 0.348382
O O9 0.000000 0.500000 0.000000
#
# Coordination Sequence:
#
# PCOD8254691 Si02
#       4
#     8   8   8   8
#     4  10  22  42  66  93 132 171 213 275 327 389
#     4  10  25  38  69  96 134 174 211 283 331 402
#     4  10  22  44  66  91 131 176 220 271 323 391
#     4  12  21  42  65 103 134 168 223 276 341 402
#
# _framework density 21.359722000000001
#
# number of rings (size 3 to 8) (size 9 to 14) (size 15 to 20)
#    1.500    0.000    2.500    3.000    0.000    2.000 
#    0.000    2.500    0.000    0.000    0.000    0.000 
#    0.000    0.000    0.000    0.000    0.000    0.000 
#
# Total GULP energy -396499.786437 kJ/mol
# GULP energy per Si atom -12390.618326 kJ/mol
# Density = 2.131111 g / cm^3
# Si number density = 21.359722 Si / 1000 Ang^3
#
#
#
# Elastic Constant Matrix: (Units=GPa)
#
#
# Indices 1 2 3 4 5 6 
#
# 1 54.3922 8.7249 -0.9377 0.0000 0.0000 0.0000
# 2 8.7249 122.3488 21.7857 0.0000 0.0000 0.0000
# 3 -0.9377 21.7857 115.8491 0.0000 0.0000 0.0000
# 4 0.0000 0.0000 0.0000 31.8389 0.0000 0.0000
# 5 0.0000 0.0000 0.0000 0.0000 25.4357 0.0000
# 6 0.0000 0.0000 0.0000 0.0000 0.0000 10.4346
#
#
#
# Elastic Compliance Matrix: (Units=1/GPa)
#
#
# Indices 1 2 3 4 5 6 
#
# 1 0.018617 -0.001401 0.000414 0.000000 0.000000 0.000000
# 2 -0.001401 0.008562 -0.001621 0.000000 0.000000 0.000000
# 3 0.000414 -0.001621 0.008940 0.000000 0.000000 0.000000
# 4 0.000000 0.000000 0.000000 0.031408 0.000000 0.000000
# 5 0.000000 0.000000 0.000000 0.000000 0.039315 0.000000
# 6 0.000000 0.000000 0.000000 0.000000 0.000000 0.095835
#
#
# Mechanical properties :
#
#
# Convention : Reuss Voigt Hill
#
# Bulk Modulus (GPa) = 32.36045 39.08178 35.72111
# Shear Modulus (GPa) = 22.91531 31.07632 26.99581
#
# Velocity S-wave (km/s) = 3.27896 3.81846 3.55895
# Velocity P-wave (km/s) = 5.43310 6.14634 5.80069
#
# Compressibility (1/GPa) = 0.03090192
#
# Stress axis : x y z
#
# Youngs Moduli (GPa) = 53.71458 116.79501 111.85444
#
# Poissons Ratio (x) = 0.16367 -0.04633
# Poissons Ratio (y) = 0.07527 0.18137
# Poissons Ratio (z) = -0.02225 0.18938
#
# Static dielectric constant tensor:
#      x y z
#    x 3.698630 0.000000 0.000000 
#    y 0.000000 3.830860 0.000000 
#    z 0.000000 0.000000 3.859040 
# 
# 
# High freq. dielectric constant tensor:
#      x y z
#    x 1.804060 0.000000 0.000000 
#    y 0.000000 1.832270 0.000000 
#    z 0.000000 0.000000 1.844450 
# 
# From -- ./inp_files/488.got.cif
#   From: 2010.03.12/outbox.cif.g09.slc.cpg/sg62_1_cif.got.tgz:488.got - 2010.04.10 19:12:36.
