data_PCOD8254131
_publ_section_title
;
Structure prediction by ZEFSAII (Michael W. Deem and Ramdas Pophale) SiO2 
 PCOD8254131
Probable space group: P N M A
;
_chemical_formula_sum "Si O2"
_cell_formula_units_Z 48
_cell_length_a 14.363351
_cell_length_b 8.720235
_cell_length_c 20.248346
_cell_angle_alpha 90.000000
_cell_angle_beta 90.000000
_cell_angle_gamma 90.000000
_cell_volume 2536.141705
_symmetry_space_group_name_H-M "P N M A"
_symmetry_group_IT_number 62
_symmetry_cell_setting 'orthorhombic'
loop_
_space_group_symop_operation_xyz
x,y,z
1/2-x,-y,1/2+z
1/2+x,1/2-y,1/2-z
-x,1/2+y,-z
-x,-y,-z
1/2+x,y,1/2-z
1/2-x,1/2+y,1/2+z
x,1/2-y,z
loop_
_atom_site_type_symbol
_atom_site_label
_atom_site_fract_x
_atom_site_fract_y
_atom_site_fract_z
Si Si1 0.178089 0.572721 0.814588
Si Si2 0.800672 0.569362 0.806981
Si Si3 0.497152 0.069638 0.876145
Si Si4 0.185869 0.427298 0.431761
Si Si5 0.508006 0.930032 0.274363
Si Si6 0.179361 0.569399 0.568371
O O1 0.155435 0.750000 0.800799
O O2 0.245977 0.508031 0.757402
O O3 0.225446 0.546705 0.885127
O O4 0.082375 0.479869 0.815084
O O5 0.811802 0.750000 0.803003
O O6 0.902562 0.498194 0.810592
O O7 0.744424 0.516810 0.871406
O O8 0.517489 0.250000 0.881107
O O9 0.499145 0.009750 0.800818
O O10 0.397834 0.033511 0.907440
O O11 0.573542 0.977440 0.917312
O O12 0.154481 0.250000 0.430928
O O13 0.216466 0.479862 0.504402
O O14 0.517870 0.750000 0.275077
O O15 0.184471 0.750000 0.555974
#
# Coordination Sequence:
#
# PCOD8254131 Si02
#       6
#     8   8   8   8   8   8
#     4  10  21  39  62  85 114 154 197 238 285 346
#     4  10  21  39  62  85 114 154 197 238 285 346
#     4  11  22  36  57  88 123 155 188 236 294 348
#     4  11  23  39  60  86 118 156 194 239 290 345
#     4  11  23  36  59  92 121 149 189 246 293 334
#     4  11  23  39  60  86 118 156 194 239 290 345
#
# _framework density 18.926387999999999
#
# number of rings (size 3 to 8) (size 9 to 14) (size 15 to 20)
#    0.000    1.333    3.333    2.500    0.000    4.667 
#    0.000    0.833    0.000    0.000    0.000    0.000 
#    0.000    0.000    0.000    0.000    0.000    0.000 
#
# Total GULP energy -595543.415747 kJ/mol
# GULP energy per Si atom -12407.154495 kJ/mol
# Density = 1.888331 g / cm^3
# Si number density = 18.926388 Si / 1000 Ang^3
#
#
#
# Elastic Constant Matrix: (Units=GPa)
#
#
# Indices 1 2 3 4 5 6 
#
# 1 102.0083 23.4840 29.3268 0.0000 0.0000 0.0000
# 2 23.4840 37.3306 31.4753 0.0000 0.0000 0.0000
# 3 29.3268 31.4753 101.4992 0.0000 0.0000 0.0000
# 4 0.0000 0.0000 0.0000 30.3756 0.0000 0.0000
# 5 0.0000 0.0000 0.0000 0.0000 28.8488 0.0000
# 6 0.0000 0.0000 0.0000 0.0000 0.0000 21.9572
#
#
#
# Elastic Compliance Matrix: (Units=1/GPa)
#
#
# Indices 1 2 3 4 5 6 
#
# 1 0.011625 -0.006067 -0.001477 0.000000 0.000000 0.000000
# 2 -0.006067 0.039438 -0.010477 0.000000 0.000000 0.000000
# 3 -0.001477 -0.010477 0.013528 0.000000 0.000000 0.000000
# 4 0.000000 0.000000 0.000000 0.032921 0.000000 0.000000
# 5 0.000000 0.000000 0.000000 0.000000 0.034664 0.000000
# 6 0.000000 0.000000 0.000000 0.000000 0.000000 0.045543
#
#
# Mechanical properties :
#
#
# Convention : Reuss Voigt Hill
#
# Bulk Modulus (GPa) = 35.02884 45.49003 40.25943
# Shear Modulus (GPa) = 22.39369 26.67312 24.53341
#
# Velocity S-wave (km/s) = 3.44350 3.75815 3.60426
# Velocity P-wave (km/s) = 5.86160 6.55126 6.21600
#
# Compressibility (1/GPa) = 0.02854791
#
# Stress axis : x y z
#
# Youngs Moduli (GPa) = 86.02436 25.35627 73.92048
#
# Poissons Ratio (x) = 0.15384 0.10920
# Poissons Ratio (y) = 0.52193 0.77445
# Poissons Ratio (z) = 0.12708 0.26565
#
# Static dielectric constant tensor:
#      x y z
#    x 3.360960 0.000000 0.000000 
#    y 0.000000 3.411970 0.000000 
#    z 0.000000 0.000000 3.622180 
# 
# 
# High freq. dielectric constant tensor:
#      x y z
#    x 1.733150 0.000000 0.000000 
#    y 0.000000 1.738600 0.000000 
#    z 0.000000 0.000000 1.737140 
# 
# From -- ./inp_files/23656.got.cif
#   From: 2010.03.12/outbox.cif.g09.slc.cpg/sg62_12_cif.got.tgz:23656.got - 2010.04.10 19:12:36.
