data_PCOD8254040
_publ_section_title
;
Structure prediction by ZEFSAII (Michael W. Deem and Ramdas Pophale) SiO2 
 PCOD8254040
Probable space group: P N M A
;
_chemical_formula_sum "Si O2"
_cell_formula_units_Z 32
_cell_length_a 9.384377
_cell_length_b 18.816822
_cell_length_c 9.236530
_cell_angle_alpha 90.000000
_cell_angle_beta 90.000000
_cell_angle_gamma 90.000000
_cell_volume 1631.024814
_symmetry_space_group_name_H-M "P N M A"
_symmetry_group_IT_number 62
_symmetry_cell_setting 'orthorhombic'
loop_
_space_group_symop_operation_xyz
x,y,z
1/2-x,-y,1/2+z
1/2+x,1/2-y,1/2-z
-x,1/2+y,-z
-x,-y,-z
1/2+x,y,1/2-z
1/2-x,1/2+y,1/2+z
x,1/2-y,z
loop_
_atom_site_type_symbol
_atom_site_label
_atom_site_fract_x
_atom_site_fract_y
_atom_site_fract_z
Si Si1 0.858339 0.543599 0.523990
Si Si2 0.279529 0.668334 0.160148
Si Si3 0.888119 0.967544 0.848362
Si Si4 0.473712 0.891432 0.389273
O O1 0.868458 0.622202 0.455834
O O2 0.731863 0.500593 0.450959
O O3 0.827179 0.556112 0.694147
O O4 0.000000 0.500000 0.500000
O O5 0.315875 0.750000 0.132054
O O6 0.333701 0.644450 0.319538
O O7 0.110614 0.656639 0.146686
O O8 0.952483 0.899890 0.936293
O O9 0.006978 0.028963 0.823503
#
# Coordination Sequence:
#
# PCOD8254040 Si02
#       4
#     8   8   8   8
#     4  11  22  37  66  94 122 158 209 260 312 369
#     4  11  23  40  60  89 126 167 205 253 320 384
#     4  10  21  38  62  94 117 157 206 264 308 357
#     4  10  21  38  63  86 122 156 205 258 309 368
#
# _framework density 19.619565000000001
#
# number of rings (size 3 to 8) (size 9 to 14) (size 15 to 20)
#    0.000    1.500    2.500    3.750    7.000    0.000 
#    0.000    2.500    0.000    0.000    0.000    0.000 
#    0.000    0.000    0.000    0.000    0.000    0.000 
#
# Total GULP energy -396734.066076 kJ/mol
# GULP energy per Si atom -12397.939565 kJ/mol
# Density = 1.957491 g / cm^3
# Si number density = 19.619565 Si / 1000 Ang^3
#
#
#
# Elastic Constant Matrix: (Units=GPa)
#
#
# Indices 1 2 3 4 5 6 
#
# 1 89.2548 42.9127 37.3552 0.0000 0.0000 0.0000
# 2 42.9127 123.8716 57.0237 0.0000 0.0000 0.0000
# 3 37.3552 57.0237 146.6289 0.0000 0.0000 0.0000
# 4 0.0000 0.0000 0.0000 20.9403 0.0000 0.0000
# 5 0.0000 0.0000 0.0000 0.0000 32.4269 0.0000
# 6 0.0000 0.0000 0.0000 0.0000 0.0000 25.4534
#
#
#
# Elastic Compliance Matrix: (Units=1/GPa)
#
#
# Indices 1 2 3 4 5 6 
#
# 1 0.013925 -0.003887 -0.002036 0.000000 0.000000 0.000000
# 2 -0.003887 0.010918 -0.003256 0.000000 0.000000 0.000000
# 3 -0.002036 -0.003256 0.008605 0.000000 0.000000 0.000000
# 4 0.000000 0.000000 0.000000 0.047755 0.000000 0.000000
# 5 0.000000 0.000000 0.000000 0.000000 0.030839 0.000000
# 6 0.000000 0.000000 0.000000 0.000000 0.000000 0.039287
#
#
# Mechanical properties :
#
#
# Convention : Reuss Voigt Hill
#
# Bulk Modulus (GPa) = 66.26616 70.48205 68.37411
# Shear Modulus (GPa) = 28.61792 30.59503 29.60647
#
# Velocity S-wave (km/s) = 3.82336 3.95323 3.88884
# Velocity P-wave (km/s) = 7.30340 7.53921 7.42224
#
# Compressibility (1/GPa) = 0.01509066
#
# Stress axis : x y z
#
# Youngs Moduli (GPa) = 71.81518 91.59047 116.21393
#
# Poissons Ratio (x) = 0.35598 0.23660
# Poissons Ratio (y) = 0.27912 0.37838
# Poissons Ratio (z) = 0.14621 0.29821
#
# Static dielectric constant tensor:
#      x y z
#    x 4.019210 0.000000 0.000000 
#    y 0.000000 3.489540 0.000000 
#    z 0.000000 0.000000 3.918030 
# 
# 
# High freq. dielectric constant tensor:
#      x y z
#    x 1.773780 0.000000 0.000000 
#    y 0.000000 1.732000 0.000000 
#    z 0.000000 0.000000 1.768420 
# 
# From -- ./inp_files/11132.got.cif
#   From: 2010.03.12/outbox.cif.g09.slc.cpg/sg62_6_cif.got.tgz:11132.got - 2010.04.10 19:12:36.
