data_PCOD8254673
_publ_section_title
;
Structure prediction by ZEFSAII (Michael W. Deem and Ramdas Pophale) SiO2 
 PCOD8254673
Probable space group: P N M A
;
_chemical_formula_sum "Si O2"
_cell_formula_units_Z 32
_cell_length_a 10.529640
_cell_length_b 11.137821
_cell_length_c 13.157769
_cell_angle_alpha 90.000000
_cell_angle_beta 90.000000
_cell_angle_gamma 90.000000
_cell_volume 1543.106905
_symmetry_space_group_name_H-M "P N M A"
_symmetry_group_IT_number 62
_symmetry_cell_setting 'orthorhombic'
loop_
_space_group_symop_operation_xyz
x,y,z
1/2-x,-y,1/2+z
1/2+x,1/2-y,1/2-z
-x,1/2+y,-z
-x,-y,-z
1/2+x,y,1/2-z
1/2-x,1/2+y,1/2+z
x,1/2-y,z
loop_
_atom_site_type_symbol
_atom_site_label
_atom_site_fract_x
_atom_site_fract_y
_atom_site_fract_z
Si Si1 0.321828 0.885233 0.549679
Si Si2 0.320475 0.610760 0.325345
Si Si3 0.069767 0.499023 0.239743
Si Si4 0.032102 0.885330 0.570928
O O1 0.370693 0.750000 0.539730
O O2 0.325812 0.948223 0.438411
O O3 0.180699 0.891307 0.595695
O O4 0.418452 0.947948 0.626558
O O5 0.302124 0.750000 0.340861
O O6 0.197349 0.568490 0.265324
O O7 0.446864 0.585180 0.260490
O O8 0.045332 0.396177 0.323809
O O9 0.001040 0.750000 0.525305
O O10 0.000000 0.000000 0.500000
#
# Coordination Sequence:
#
# PCOD8254673 Si02
#       4
#     8   8   8   8
#     4  10  22  42  63  91 129 167 213 273 326 377
#     4  11  24  40  64  94 132 170 214 271 327 387
#     4  12  22  42  65  94 127 170 225 261 326 391
#     4  11  23  41  67  98 131 174 218 269 326 388
#
# _framework density 20.737383999999999
#
# number of rings (size 3 to 8) (size 9 to 14) (size 15 to 20)
#    0.000    1.000    5.000    2.250    0.000    1.000 
#    0.000    0.000    0.000    0.000    0.000    0.000 
#    0.000    0.000    0.000    0.000    0.000    0.000 
#
# Total GULP energy -396632.396575 kJ/mol
# GULP energy per Si atom -12394.762393 kJ/mol
# Density = 2.069019 g / cm^3
# Si number density = 20.737384 Si / 1000 Ang^3
#
#
#
# Elastic Constant Matrix: (Units=GPa)
#
#
# Indices 1 2 3 4 5 6 
#
# 1 126.3592 35.2599 42.3597 0.0000 0.0000 0.0000
# 2 35.2599 98.8705 38.2599 0.0000 0.0000 0.0000
# 3 42.3597 38.2599 110.2538 0.0000 0.0000 0.0000
# 4 0.0000 0.0000 0.0000 31.3136 0.0000 0.0000
# 5 0.0000 0.0000 0.0000 0.0000 40.5063 0.0000
# 6 0.0000 0.0000 0.0000 0.0000 0.0000 20.6485
#
#
#
# Elastic Compliance Matrix: (Units=1/GPa)
#
#
# Indices 1 2 3 4 5 6 
#
# 1 0.009511 -0.002285 -0.002861 0.000000 0.000000 0.000000
# 2 -0.002285 0.012232 -0.003367 0.000000 0.000000 0.000000
# 3 -0.002861 -0.003367 0.011338 0.000000 0.000000 0.000000
# 4 0.000000 0.000000 0.000000 0.031935 0.000000 0.000000
# 5 0.000000 0.000000 0.000000 0.000000 0.024688 0.000000
# 6 0.000000 0.000000 0.000000 0.000000 0.000000 0.048430
#
#
# Mechanical properties :
#
#
# Convention : Reuss Voigt Hill
#
# Bulk Modulus (GPa) = 62.28689 63.02693 62.65691
# Shear Modulus (GPa) = 31.15085 33.13395 32.14240
#
# Velocity S-wave (km/s) = 3.87997 4.00157 3.94124
# Velocity P-wave (km/s) = 7.08333 7.19785 7.14082
#
# Compressibility (1/GPa) = 0.01605474
#
# Stress axis : x y z
#
# Youngs Moduli (GPa) = 105.14578 81.75367 88.20171
#
# Poissons Ratio (x) = 0.18677 0.25236
# Poissons Ratio (y) = 0.24021 0.29697
# Poissons Ratio (z) = 0.30084 0.27526
#
# Static dielectric constant tensor:
#      x y z
#    x 3.695050 0.000000 0.000000 
#    y 0.000000 3.793370 0.000000 
#    z 0.000000 0.000000 4.010120 
# 
# 
# High freq. dielectric constant tensor:
#      x y z
#    x 1.816100 0.000000 0.000000 
#    y 0.000000 1.797610 0.000000 
#    z 0.000000 0.000000 1.819460 
# 
# From -- ./inp_files/11744.got.cif
#   From: 2010.03.12/outbox.cif.g09.slc.cpg/sg62_6_cif.got.tgz:11744.got - 2010.04.10 19:12:36.
