data_PCOD8254763
_publ_section_title
;
Structure prediction by ZEFSAII (Michael W. Deem and Ramdas Pophale) SiO2 
 PCOD8254763
Probable space group: P N M A
;
_chemical_formula_sum "Si O2"
_cell_formula_units_Z 48
_cell_length_a 9.164553
_cell_length_b 21.196074
_cell_length_c 11.972713
_cell_angle_alpha 90.000000
_cell_angle_beta 90.000000
_cell_angle_gamma 90.000000
_cell_volume 2325.729954
_symmetry_space_group_name_H-M "P N M A"
_symmetry_group_IT_number 62
_symmetry_cell_setting 'orthorhombic'
loop_
_space_group_symop_operation_xyz
x,y,z
1/2-x,-y,1/2+z
1/2+x,1/2-y,1/2-z
-x,1/2+y,-z
-x,-y,-z
1/2+x,y,1/2-z
1/2-x,1/2+y,1/2+z
x,1/2-y,z
loop_
_atom_site_type_symbol
_atom_site_label
_atom_site_fract_x
_atom_site_fract_y
_atom_site_fract_z
Si Si1 0.489892 0.880684 0.802357
Si Si2 0.943520 0.975879 0.346341
Si Si3 0.638270 0.750000 0.774274
Si Si4 0.581834 0.250000 0.405006
Si Si5 0.948668 0.620066 0.960720
Si Si6 0.256943 0.915597 0.959685
Si Si7 0.722745 0.041382 0.634008
O O1 0.584690 0.817621 0.826280
O O2 0.444479 0.889390 0.673213
O O3 0.347098 0.868390 0.880027
O O4 0.561802 0.947441 0.842026
O O5 0.859076 0.953814 0.456023
O O6 0.865551 0.939339 0.244441
O O7 0.105543 0.947080 0.350715
O O8 0.812187 0.750000 0.794890
O O9 0.583690 0.750000 0.645672
O O10 0.607819 0.309340 0.484813
O O11 0.113419 0.616756 0.011862
O O12 0.837688 0.574588 0.022872
O O13 0.187976 0.967627 0.877221
#
# Coordination Sequence:
#
# PCOD8254763 Si02
#       7
#     8   8   4   4   8   8   8
#     4  10  23  38  62  92 131 160 208 253 313 383
#     4  11  24  39  63  94 127 168 209 259 313 380
#     4  10  24  38  60  87 127 172 200 250 311 380
#     4  10  26  38  64  89 127 170 210 256 311 376
#     4  11  24  40  64  91 130 164 208 259 314 377
#     4  11  24  37  64  91 125 169 203 264 313 375
#     4  11  23  39  62  91 129 164 208 257 319 368
#
# _framework density 20.638680999999998
#
# number of rings (size 3 to 8) (size 9 to 14) (size 15 to 20)
#    0.000    1.333    1.667    3.500   18.667    0.000 
#    0.000    0.000    0.000    5.000    0.000    0.000 
#    0.000    0.000    0.000    0.000    0.000    0.000 
#
# Total GULP energy -594626.333511 kJ/mol
# GULP energy per Si atom -12388.048615 kJ/mol
# Density = 2.059171 g / cm^3
# Si number density = 20.638681 Si / 1000 Ang^3
#
#
#
# Elastic Constant Matrix: (Units=GPa)
#
#
# Indices 1 2 3 4 5 6 
#
# 1 125.4913 37.3421 42.6031 0.0000 0.0000 0.0000
# 2 37.3421 69.2584 32.3822 0.0000 0.0000 0.0000
# 3 42.6031 32.3822 77.4998 0.0000 0.0000 0.0000
# 4 0.0000 0.0000 0.0000 13.7199 0.0000 0.0000
# 5 0.0000 0.0000 0.0000 0.0000 39.9831 0.0000
# 6 0.0000 0.0000 0.0000 0.0000 0.0000 25.6251
#
#
#
# Elastic Compliance Matrix: (Units=1/GPa)
#
#
# Indices 1 2 3 4 5 6 
#
# 1 0.010502 -0.003683 -0.004234 0.000000 0.000000 0.000000
# 2 -0.003683 0.019236 -0.006013 0.000000 0.000000 0.000000
# 3 -0.004234 -0.006013 0.017743 0.000000 0.000000 0.000000
# 4 0.000000 0.000000 0.000000 0.072887 0.000000 0.000000
# 5 0.000000 0.000000 0.000000 0.000000 0.025011 0.000000
# 6 0.000000 0.000000 0.000000 0.000000 0.000000 0.039024
#
#
# Mechanical properties :
#
#
# Convention : Reuss Voigt Hill
#
# Bulk Modulus (GPa) = 50.96541 55.21159 53.08850
# Shear Modulus (GPa) = 22.85163 26.52711 24.68937
#
# Velocity S-wave (km/s) = 3.33111 3.58901 3.46246
# Velocity P-wave (km/s) = 6.28830 6.63206 6.46247
#
# Compressibility (1/GPa) = 0.01962115
#
# Stress axis : x y z
#
# Youngs Moduli (GPa) = 95.21958 51.98701 56.35878
#
# Poissons Ratio (x) = 0.19144 0.23865
# Poissons Ratio (y) = 0.35065 0.33888
# Poissons Ratio (z) = 0.40321 0.31260
#
# Static dielectric constant tensor:
#      x y z
#    x 3.896240 0.000000 0.000000 
#    y 0.000000 3.890550 0.000000 
#    z 0.000000 0.000000 3.548860 
# 
# 
# High freq. dielectric constant tensor:
#      x y z
#    x 1.825480 0.000000 0.000000 
#    y 0.000000 1.793970 0.000000 
#    z 0.000000 0.000000 1.783480 
# 
# From -- ./inp_files/11346.got.cif
#   From: 2010.03.12/outbox.cif.g09.slc.cpg/sg62_6_cif.got.tgz:11346.got - 2010.04.10 19:12:36.
