data_PCOD8254831
_publ_section_title
;
Structure prediction by ZEFSAII (Michael W. Deem and Ramdas Pophale) SiO2 
 PCOD8254831
Probable space group: P N M A
;
_chemical_formula_sum "Si O2"
_cell_formula_units_Z 32
_cell_length_a 10.440282
_cell_length_b 10.410671
_cell_length_c 13.184941
_cell_angle_alpha 90.000000
_cell_angle_beta 90.000000
_cell_angle_gamma 90.000000
_cell_volume 1433.075734
_symmetry_space_group_name_H-M "P N M A"
_symmetry_group_IT_number 62
_symmetry_cell_setting 'orthorhombic'
loop_
_space_group_symop_operation_xyz
x,y,z
1/2-x,-y,1/2+z
1/2+x,1/2-y,1/2-z
-x,1/2+y,-z
-x,-y,-z
1/2+x,y,1/2-z
1/2-x,1/2+y,1/2+z
x,1/2-y,z
loop_
_atom_site_type_symbol
_atom_site_label
_atom_site_fract_x
_atom_site_fract_y
_atom_site_fract_z
Si Si1 0.949640 0.607352 0.127002
Si Si2 0.892223 0.106665 0.282344
Si Si3 0.420574 0.891544 0.946672
Si Si4 0.302846 0.992191 0.552000
O O1 0.932336 0.750000 0.173741
O O2 0.879629 0.503001 0.198177
O O3 0.100798 0.579004 0.117920
O O4 0.885761 0.606826 0.015288
O O5 0.866881 0.250000 0.236854
O O6 0.791431 0.083287 0.372992
O O7 0.038033 0.102603 0.327992
O O8 0.455845 0.750000 0.989540
O O9 0.500000 0.000000 0.000000
O O10 0.272149 0.918510 0.970241
#
# Coordination Sequence:
#
# PCOD8254831 Si02
#       4
#     8   8   8   8
#     4  11  25  42  66  99 132 170 217 272 327 382
#     4  10  23  42  67  97 130 172 218 264 323 392
#     4   9  19  38  64  92 123 166 211 259 315 378
#     4  10  23  44  66  94 131 175 215 266 324 391
#
# _framework density 22.329594
#
# number of rings (size 3 to 8) (size 9 to 14) (size 15 to 20)
#    0.000    2.000    0.000    1.500    3.500   12.000 
#    0.000    0.000    0.000    0.000    0.000    0.000 
#    0.000    0.000    0.000    0.000    0.000    0.000 
#
# Total GULP energy -396521.947057 kJ/mol
# GULP energy per Si atom -12391.310846 kJ/mol
# Density = 2.227877 g / cm^3
# Si number density = 22.329594 Si / 1000 Ang^3
#
#
#
# Elastic Constant Matrix: (Units=GPa)
#
#
# Indices 1 2 3 4 5 6 
#
# 1 88.3106 33.8078 31.0937 0.0000 0.0000 0.0000
# 2 33.8078 195.4445 50.7137 0.0000 0.0000 0.0000
# 3 31.0937 50.7137 75.2241 0.0000 0.0000 0.0000
# 4 0.0000 0.0000 0.0000 32.1309 0.0000 0.0000
# 5 0.0000 0.0000 0.0000 0.0000 37.0696 0.0000
# 6 0.0000 0.0000 0.0000 0.0000 0.0000 17.6041
#
#
#
# Elastic Compliance Matrix: (Units=1/GPa)
#
#
# Indices 1 2 3 4 5 6 
#
# 1 0.013435 -0.001070 -0.004832 0.000000 0.000000 0.000000
# 2 -0.001070 0.006287 -0.003796 0.000000 0.000000 0.000000
# 3 -0.004832 -0.003796 0.017850 0.000000 0.000000 0.000000
# 4 0.000000 0.000000 0.000000 0.031123 0.000000 0.000000
# 5 0.000000 0.000000 0.000000 0.000000 0.026976 0.000000
# 6 0.000000 0.000000 0.000000 0.000000 0.000000 0.056805
#
#
# Mechanical properties :
#
#
# Convention : Reuss Voigt Hill
#
# Bulk Modulus (GPa) = 55.01894 65.57884 60.29889
# Shear Modulus (GPa) = 28.10115 33.58522 30.84318
#
# Velocity S-wave (km/s) = 3.55134 3.88244 3.72058
# Velocity P-wave (km/s) = 6.44275 7.03776 6.74682
#
# Compressibility (1/GPa) = 0.01817556
#
# Stress axis : x y z
#
# Youngs Moduli (GPa) = 74.43484 159.06834 56.02300
#
# Poissons Ratio (x) = 0.17023 0.27068
# Poissons Ratio (y) = 0.07966 0.21266
# Poissons Ratio (z) = 0.35964 0.60380
#
# Static dielectric constant tensor:
#      x y z
#    x 4.383270 0.000000 0.000000 
#    y 0.000000 4.036840 0.000000 
#    z 0.000000 0.000000 3.875560 
# 
# 
# High freq. dielectric constant tensor:
#      x y z
#    x 1.885910 0.000000 0.000000 
#    y 0.000000 1.883000 0.000000 
#    z 0.000000 0.000000 1.860160 
# 
# From -- ./inp_files/17579.got.cif
#   From: 2010.03.12/outbox.cif.g09.slc.cpg/sg62_9_cif.got.tgz:17579.got - 2010.04.10 19:12:36.
