data_PCOD8254348
_publ_section_title
;
Structure prediction by ZEFSAII (Michael W. Deem and Ramdas Pophale) SiO2 
 PCOD8254348
Probable space group: P N M A
;
_chemical_formula_sum "Si O2"
_cell_formula_units_Z 56
_cell_length_a 18.115149
_cell_length_b 9.050548
_cell_length_c 17.117106
_cell_angle_alpha 90.000000
_cell_angle_beta 90.000000
_cell_angle_gamma 90.000000
_cell_volume 2806.384200
_symmetry_space_group_name_H-M "P N M A"
_symmetry_group_IT_number 62
_symmetry_cell_setting 'orthorhombic'
loop_
_space_group_symop_operation_xyz
x,y,z
1/2-x,-y,1/2+z
1/2+x,1/2-y,1/2-z
-x,1/2+y,-z
-x,-y,-z
1/2+x,y,1/2-z
1/2-x,1/2+y,1/2+z
x,1/2-y,z
loop_
_atom_site_type_symbol
_atom_site_label
_atom_site_fract_x
_atom_site_fract_y
_atom_site_fract_z
Si Si1 0.080698 0.575330 0.793272
Si Si2 0.328106 0.920352 0.416214
Si Si3 0.195691 0.419152 0.092056
Si Si4 0.923127 0.581546 0.499868
Si Si5 0.413536 0.918972 0.727612
Si Si6 0.164954 0.921005 0.367389
Si Si7 0.834976 0.918421 0.342976
O O1 0.086131 0.750000 0.795308
O O2 0.106713 0.513615 0.876801
O O3 0.134514 0.514441 0.727417
O O4 0.997292 0.522843 0.776462
O O5 0.351865 0.750000 0.416251
O O6 0.319133 0.977588 0.504806
O O7 0.252799 0.944465 0.367570
O O8 0.224578 0.250000 0.089331
O O9 0.120601 0.432501 0.141313
O O10 0.256055 0.521068 0.132256
O O11 0.934675 0.750000 0.526437
O O12 0.867054 0.505233 0.558516
O O13 0.892038 0.570661 0.413322
O O14 0.000000 0.500000 0.500000
O O15 0.410770 0.750000 0.757219
O O16 0.367490 0.018121 0.787120
O O17 0.143570 0.750000 0.375465
O O18 0.825258 0.750000 0.314578
#
# Coordination Sequence:
#
# PCOD8254348 Si02
#       7
#     8   8   8   8   8   8   8
#     4  11  24  40  60  87 121 161 203 248 300 359
#     4  10  22  40  63  91 122 157 201 251 303 360
#     4  10  21  41  66  90 120 159 200 249 304 359
#     4  11  23  37  58  88 123 160 198 244 298 359
#     4  10  23  41  61  88 121 160 204 249 302 359
#     4  11  22  38  61  89 121 157 200 247 300 359
#     4  11  23  39  60  89 121 155 201 249 298 358
#
# _framework density 19.954502999999999
#
# number of rings (size 3 to 8) (size 9 to 14) (size 15 to 20)
#    0.000    1.429    1.429    3.429    0.000   10.286 
#    0.000    0.000    0.000    0.000    0.000    0.000 
#    0.000    0.000    0.000    0.000    0.000    0.000 
#
# Total GULP energy -694744.303563 kJ/mol
# GULP energy per Si atom -12406.148278 kJ/mol
# Density = 1.990909 g / cm^3
# Si number density = 19.954503 Si / 1000 Ang^3
#
#
#
# Elastic Constant Matrix: (Units=GPa)
#
#
# Indices 1 2 3 4 5 6 
#
# 1 54.1202 32.5050 36.0338 0.0000 0.0000 0.0000
# 2 32.5050 89.1367 34.0759 0.0000 0.0000 0.0000
# 3 36.0338 34.0759 104.1569 0.0000 0.0000 0.0000
# 4 0.0000 0.0000 0.0000 34.8841 0.0000 0.0000
# 5 0.0000 0.0000 0.0000 0.0000 24.6350 0.0000
# 6 0.0000 0.0000 0.0000 0.0000 0.0000 30.6059
#
#
#
# Elastic Compliance Matrix: (Units=1/GPa)
#
#
# Indices 1 2 3 4 5 6 
#
# 1 0.027662 -0.007348 -0.007166 0.000000 0.000000 0.000000
# 2 -0.007348 0.014774 -0.002291 0.000000 0.000000 0.000000
# 3 -0.007166 -0.002291 0.012830 0.000000 0.000000 0.000000
# 4 0.000000 0.000000 0.000000 0.028666 0.000000 0.000000
# 5 0.000000 0.000000 0.000000 0.000000 0.040593 0.000000
# 6 0.000000 0.000000 0.000000 0.000000 0.000000 0.032673
#
#
# Mechanical properties :
#
#
# Convention : Reuss Voigt Hill
#
# Bulk Modulus (GPa) = 46.17823 50.29368 48.23595
# Shear Modulus (GPa) = 25.24912 27.67826 26.46369
#
# Velocity S-wave (km/s) = 3.56101 3.72838 3.64566
# Velocity P-wave (km/s) = 6.33244 6.61765 6.47661
#
# Compressibility (1/GPa) = 0.02165523
#
# Stress axis : x y z
#
# Youngs Moduli (GPa) = 36.15119 67.68547 77.94446
#
# Poissons Ratio (x) = 0.49734 0.55854
# Poissons Ratio (y) = 0.26563 0.17861
# Poissons Ratio (z) = 0.25905 0.15510
#
# Static dielectric constant tensor:
#      x y z
#    x 3.668160 0.000000 0.000000 
#    y 0.000000 3.731360 0.000000 
#    z 0.000000 0.000000 3.777990 
# 
# 
# High freq. dielectric constant tensor:
#      x y z
#    x 1.782340 0.000000 0.000000 
#    y 0.000000 1.782620 0.000000 
#    z 0.000000 0.000000 1.790740 
# 
# From -- ./inp_files/20413.got.cif
#   From: 2010.03.12/outbox.cif.g09.slc.cpg/sg62_11_cif.got.tgz:20413.got - 2010.04.10 19:12:36.
