data_PCOD8254684
_publ_section_title
;
Structure prediction by ZEFSAII (Michael W. Deem and Ramdas Pophale) SiO2 
 PCOD8254684
Probable space group: P N M A
;
_chemical_formula_sum "Si O2"
_cell_formula_units_Z 32
_cell_length_a 6.786118
_cell_length_b 12.487017
_cell_length_c 17.743316
_cell_angle_alpha 90.000000
_cell_angle_beta 90.000000
_cell_angle_gamma 90.000000
_cell_volume 1503.539691
_symmetry_space_group_name_H-M "P N M A"
_symmetry_group_IT_number 62
_symmetry_cell_setting 'orthorhombic'
loop_
_space_group_symop_operation_xyz
x,y,z
1/2-x,-y,1/2+z
1/2+x,1/2-y,1/2-z
-x,1/2+y,-z
-x,-y,-z
1/2+x,y,1/2-z
1/2-x,1/2+y,1/2+z
x,1/2-y,z
loop_
_atom_site_type_symbol
_atom_site_label
_atom_site_fract_x
_atom_site_fract_y
_atom_site_fract_z
Si Si1 0.882246 0.979342 0.658348
Si Si2 0.732257 0.454475 0.423632
Si Si3 0.984127 0.131985 0.199809
Si Si4 0.898306 0.625718 0.082329
O O1 0.752537 0.088042 0.648663
O O2 0.720589 0.883755 0.654333
O O3 0.036166 0.975664 0.589519
O O4 0.994800 0.963548 0.738103
O O5 0.662954 0.372283 0.358960
O O6 0.708362 0.398963 0.503729
O O7 0.606823 0.563956 0.415221
O O8 0.984132 0.250000 0.237288
O O9 0.943846 0.750000 0.092787
#
# Coordination Sequence:
#
# PCOD8254684 Si02
#       4
#     8   8   8   8
#     4  11  22  38  61  93 127 159 204 257 308 374
#     4  10  22  42  65  92 127 159 207 263 308 371
#     4  11  22  36  62  95 126 160 202 260 320 366
#     4  10  23  42  64  91 125 168 209 253 312 375
#
# _framework density 21.283107999999999
#
# number of rings (size 3 to 8) (size 9 to 14) (size 15 to 20)
#    0.000    1.500    2.500    2.250    0.000    4.000 
#    0.000    6.250    0.000    0.000    0.000    0.000 
#    0.000    0.000    0.000    0.000    0.000    0.000 
#
# Total GULP energy -396542.129093 kJ/mol
# GULP energy per Si atom -12391.941534 kJ/mol
# Density = 2.123467 g / cm^3
# Si number density = 21.283108 Si / 1000 Ang^3
#
#
#
# Elastic Constant Matrix: (Units=GPa)
#
#
# Indices 1 2 3 4 5 6 
#
# 1 101.2558 32.9724 21.0788 0.0000 0.0000 0.0000
# 2 32.9724 138.0362 44.5868 0.0000 0.0000 0.0000
# 3 21.0788 44.5868 84.1891 0.0000 0.0000 0.0000
# 4 0.0000 0.0000 0.0000 26.9329 0.0000 0.0000
# 5 0.0000 0.0000 0.0000 0.0000 42.5097 0.0000
# 6 0.0000 0.0000 0.0000 0.0000 0.0000 11.0456
#
#
#
# Elastic Compliance Matrix: (Units=1/GPa)
#
#
# Indices 1 2 3 4 5 6 
#
# 1 0.010891 -0.002076 -0.001627 0.000000 0.000000 0.000000
# 2 -0.002076 0.009135 -0.004318 0.000000 0.000000 0.000000
# 3 -0.001627 -0.004318 0.014572 0.000000 0.000000 0.000000
# 4 0.000000 0.000000 0.000000 0.037129 0.000000 0.000000
# 5 0.000000 0.000000 0.000000 0.000000 0.023524 0.000000
# 6 0.000000 0.000000 0.000000 0.000000 0.000000 0.090534
#
#
# Mechanical properties :
#
#
# Convention : Reuss Voigt Hill
#
# Bulk Modulus (GPa) = 53.89276 57.86192 55.87734
# Shear Modulus (GPa) = 24.03687 31.08718 27.56202
#
# Velocity S-wave (km/s) = 3.36428 3.82599 3.60254
# Velocity P-wave (km/s) = 6.36145 6.83838 6.60422
#
# Compressibility (1/GPa) = 0.01855537
#
# Stress axis : x y z
#
# Youngs Moduli (GPa) = 91.82139 109.46725 68.62257
#
# Poissons Ratio (x) = 0.22723 0.11168
# Poissons Ratio (y) = 0.19060 0.29633
# Poissons Ratio (z) = 0.14943 0.47271
#
# Static dielectric constant tensor:
#      x y z
#    x 4.066690 0.000000 0.000000 
#    y 0.000000 3.633490 0.000000 
#    z 0.000000 0.000000 3.862850 
# 
# 
# High freq. dielectric constant tensor:
#      x y z
#    x 1.855870 0.000000 0.000000 
#    y 0.000000 1.803040 0.000000 
#    z 0.000000 0.000000 1.830550 
# 
# From -- ./inp_files/25115.got.cif
#   From: 2010.03.12/outbox.cif.g09.slc.cpg/sg62_13_cif.got.tgz:25115.got - 2010.04.10 19:12:36.
