data_PCOD8254351
_publ_section_title
;
Structure prediction by ZEFSAII (Michael W. Deem and Ramdas Pophale) SiO2 
 PCOD8254351
Probable space group: P N M A
;
_chemical_formula_sum "Si O2"
_cell_formula_units_Z 48
_cell_length_a 16.482892
_cell_length_b 8.758956
_cell_length_c 16.940641
_cell_angle_alpha 90.000000
_cell_angle_beta 90.000000
_cell_angle_gamma 90.000000
_cell_volume 2445.769906
_symmetry_space_group_name_H-M "P N M A"
_symmetry_group_IT_number 62
_symmetry_cell_setting 'orthorhombic'
loop_
_space_group_symop_operation_xyz
x,y,z
1/2-x,-y,1/2+z
1/2+x,1/2-y,1/2-z
-x,1/2+y,-z
-x,-y,-z
1/2+x,y,1/2-z
1/2-x,1/2+y,1/2+z
x,1/2-y,z
loop_
_atom_site_type_symbol
_atom_site_label
_atom_site_fract_x
_atom_site_fract_y
_atom_site_fract_z
Si Si1 0.328413 0.573867 0.852015
Si Si2 0.411593 0.429101 0.000170
Si Si3 0.008196 0.429073 0.914757
Si Si4 0.854957 0.072230 0.190326
Si Si5 0.355953 0.074107 0.692769
Si Si6 0.675464 0.072001 0.851900
O O1 0.346763 0.750000 0.869848
O O2 0.363716 0.473205 0.921735
O O3 0.233094 0.539830 0.846096
O O4 0.371246 0.527959 0.770028
O O5 0.421755 0.250000 0.003580
O O6 0.500000 0.500000 0.000000
O O7 0.361168 0.482121 0.075365
O O8 0.026306 0.250000 0.919966
O O9 0.925320 0.464096 0.869296
O O10 0.081589 0.513043 0.872644
O O11 0.000000 0.500000 0.000000
O O12 0.867917 0.250000 0.207626
O O13 0.868007 0.981139 0.271584
O O14 0.356724 0.250000 0.719440
O O15 0.270787 0.032878 0.651675
O O16 0.658832 0.250000 0.864192
#
# Coordination Sequence:
#
# PCOD8254351 Si02
#       6
#     8   8   8   8   8   8
#     4  10  22  41  65  91 122 160 205 254 306 363
#     4  12  26  42  63  92 125 161 205 253 307 366
#     4  11  24  40  61  92 126 163 206 255 307 362
#     4  10  22  41  64  91 124 164 206 250 305 366
#     4   9  21  41  64  89 122 162 204 251 306 364
#     4  10  21  41  66  91 122 161 204 253 307 363
#
# _framework density 19.625723000000001
#
# number of rings (size 3 to 8) (size 9 to 14) (size 15 to 20)
#    0.000    1.667    0.000    3.500    4.667    4.000 
#    0.000    0.000    0.000    0.000    0.000    0.000 
#    0.000    0.000    0.000    0.000    0.000    0.000 
#
# Total GULP energy -595495.456877 kJ/mol
# GULP energy per Si atom -12406.155352 kJ/mol
# Density = 1.958105 g / cm^3
# Si number density = 19.625723 Si / 1000 Ang^3
#
#
#
# Elastic Constant Matrix: (Units=GPa)
#
#
# Indices 1 2 3 4 5 6 
#
# 1 95.4076 53.2684 73.6858 0.0000 0.0000 0.0000
# 2 53.2684 119.2108 62.9399 0.0000 0.0000 0.0000
# 3 73.6858 62.9399 141.7440 0.0000 0.0000 0.0000
# 4 0.0000 0.0000 0.0000 43.5080 0.0000 0.0000
# 5 0.0000 0.0000 0.0000 0.0000 32.8822 0.0000
# 6 0.0000 0.0000 0.0000 0.0000 0.0000 33.1059
#
#
#
# Elastic Compliance Matrix: (Units=1/GPa)
#
#
# Indices 1 2 3 4 5 6 
#
# 1 0.019057 -0.004291 -0.008001 0.000000 0.000000 0.000000
# 2 -0.004291 0.011923 -0.003064 0.000000 0.000000 0.000000
# 3 -0.008001 -0.003064 0.012575 0.000000 0.000000 0.000000
# 4 0.000000 0.000000 0.000000 0.022984 0.000000 0.000000
# 5 0.000000 0.000000 0.000000 0.000000 0.030412 0.000000
# 6 0.000000 0.000000 0.000000 0.000000 0.000000 0.030206
#
#
# Mechanical properties :
#
#
# Convention : Reuss Voigt Hill
#
# Bulk Modulus (GPa) = 77.86356 81.79450 79.82903
# Shear Modulus (GPa) = 30.83562 32.99712 31.91637
#
# Velocity S-wave (km/s) = 3.96812 4.10484 4.03706
# Velocity P-wave (km/s) = 7.79455 8.01461 7.90534
#
# Compressibility (1/GPa) = 0.01284298
#
# Stress axis : x y z
#
# Youngs Moduli (GPa) = 52.47512 83.86820 79.52312
#
# Poissons Ratio (x) = 0.35986 0.63629
# Poissons Ratio (y) = 0.22516 0.24365
# Poissons Ratio (z) = 0.41987 0.25696
#
# Static dielectric constant tensor:
#      x y z
#    x 3.749530 0.000000 0.000000 
#    y 0.000000 3.742480 0.000000 
#    z 0.000000 0.000000 3.641430 
# 
# 
# High freq. dielectric constant tensor:
#      x y z
#    x 1.773030 0.000000 0.000000 
#    y 0.000000 1.778860 0.000000 
#    z 0.000000 0.000000 1.775680 
# 
# From -- ./inp_files/23706.got.cif
#   From: 2010.03.12/outbox.cif.g09.slc.cpg/sg62_12_cif.got.tgz:23706.got - 2010.04.10 19:12:36.
