data_PCOD8254471
_publ_section_title
;
Structure prediction by ZEFSAII (Michael W. Deem and Ramdas Pophale) SiO2 
 PCOD8254471
Probable space group: P N M A
;
_chemical_formula_sum "Si O2"
_cell_formula_units_Z 64
_cell_length_a 27.816561
_cell_length_b 17.453395
_cell_length_c 6.661040
_cell_angle_alpha 90.000000
_cell_angle_beta 90.000000
_cell_angle_gamma 90.000000
_cell_volume 3233.891135
_symmetry_space_group_name_H-M "P N M A"
_symmetry_group_IT_number 62
_symmetry_cell_setting 'orthorhombic'
loop_
_space_group_symop_operation_xyz
x,y,z
1/2-x,-y,1/2+z
1/2+x,1/2-y,1/2-z
-x,1/2+y,-z
-x,-y,-z
1/2+x,y,1/2-z
1/2-x,1/2+y,1/2+z
x,1/2-y,z
loop_
_atom_site_type_symbol
_atom_site_label
_atom_site_fract_x
_atom_site_fract_y
_atom_site_fract_z
Si Si1 0.256279 0.663294 0.887347
Si Si2 0.804490 0.556973 0.309735
Si Si3 0.664140 0.836459 0.348144
Si Si4 0.017566 0.341013 0.053493
Si Si5 0.409963 0.927491 0.294976
Si Si6 0.777863 0.407120 0.506291
Si Si7 0.927642 0.064031 0.933215
Si Si8 0.540706 0.049312 0.103375
O O1 0.273907 0.750000 0.906342
O O2 0.252273 0.642125 0.653657
O O3 0.296023 0.614354 0.004858
O O4 0.204405 0.650844 0.985118
O O5 0.852414 0.580187 0.189034
O O6 0.809468 0.472025 0.398846
O O7 0.760260 0.554751 0.156210
O O8 0.644973 0.750000 0.345414
O O9 0.621247 0.890351 0.413791
O O10 0.684912 0.854241 0.127322
O O11 0.011214 0.250000 0.071973
O O12 0.019757 0.378022 0.274894
O O13 0.065789 0.360869 0.928877
O O14 0.972384 0.377833 0.936219
O O15 0.427795 0.011521 0.367352
O O16 0.423834 0.916586 0.063306
O O17 0.929730 0.006910 0.746334
O O18 0.500000 0.000000 0.000000
#
# Coordination Sequence:
#
# PCOD8254471 Si02
#       8
#     8   8   8   8   8   8   8   8
#     4  10  22  40  59  85 124 160 197 252 307 362
#     4  11  23  37  64  90 118 160 211 249 298 363
#     4  10  22  38  60  93 127 157 195 250 318 371
#     4  11  24  41  62  91 127 163 207 263 315 365
#     4  11  23  40  63  90 123 162 208 260 305 368
#     4  11  21  39  61  90 122 161 205 250 300 363
#     4  11  21  38  66  91 123 161 207 255 310 371
#     4  11  20  42  64  88 116 165 208 246 306 375
#
# _framework density 19.790400000000002
#
# number of rings (size 3 to 8) (size 9 to 14) (size 15 to 20)
#    0.000    1.250    3.750    3.000    1.750    3.500 
#    0.000    1.250    0.000    0.000    0.000    0.000 
#    0.000    0.000    0.000    0.000    0.000    0.000 
#
# Total GULP energy -793855.694156 kJ/mol
# GULP energy per Si atom -12403.995221 kJ/mol
# Density = 1.974536 g / cm^3
# Si number density = 19.790400 Si / 1000 Ang^3
#
#
#
# Elastic Constant Matrix: (Units=GPa)
#
#
# Indices 1 2 3 4 5 6 
#
# 1 61.4102 23.5998 11.7193 0.0000 0.0000 0.0000
# 2 23.5998 113.6054 32.6378 0.0000 0.0000 0.0000
# 3 11.7193 32.6378 101.1921 0.0000 0.0000 0.0000
# 4 0.0000 0.0000 0.0000 25.0093 0.0000 0.0000
# 5 0.0000 0.0000 0.0000 0.0000 29.5370 0.0000
# 6 0.0000 0.0000 0.0000 0.0000 0.0000 27.3143
#
#
#
# Elastic Compliance Matrix: (Units=1/GPa)
#
#
# Indices 1 2 3 4 5 6 
#
# 1 0.017780 -0.003419 -0.000957 0.000000 0.000000 0.000000
# 2 -0.003419 0.010359 -0.002945 0.000000 0.000000 0.000000
# 3 -0.000957 -0.002945 0.010943 0.000000 0.000000 0.000000
# 4 0.000000 0.000000 0.000000 0.039985 0.000000 0.000000
# 5 0.000000 0.000000 0.000000 0.000000 0.033856 0.000000
# 6 0.000000 0.000000 0.000000 0.000000 0.000000 0.036611
#
#
# Mechanical properties :
#
#
# Convention : Reuss Voigt Hill
#
# Bulk Modulus (GPa) = 40.91467 45.79126 43.35296
# Shear Modulus (GPa) = 29.01552 30.25549 29.63551
#
# Velocity S-wave (km/s) = 3.83318 3.91422 3.87391
# Velocity P-wave (km/s) = 6.34901 6.60428 6.47790
#
# Compressibility (1/GPa) = 0.02444111
#
# Stress axis : x y z
#
# Youngs Moduli (GPa) = 56.24197 96.53726 91.38383
#
# Poissons Ratio (x) = 0.33004 0.08741
# Poissons Ratio (y) = 0.19228 0.26913
# Poissons Ratio (z) = 0.05380 0.28431
#
# Static dielectric constant tensor:
#      x y z
#    x 3.516100 0.000000 0.000000 
#    y 0.000000 3.573820 0.000000 
#    z 0.000000 0.000000 4.006200 
# 
# 
# High freq. dielectric constant tensor:
#      x y z
#    x 1.765850 0.000000 0.000000 
#    y 0.000000 1.769130 0.000000 
#    z 0.000000 0.000000 1.782710 
# 
# From -- ./inp_files/3686.got.cif
#   From: 2010.03.12/outbox.cif.g09.slc.cpg/sg62_2_cif.got.tgz:3686.got - 2010.04.10 19:12:36.
