data_PCOD8254067
_publ_section_title
;
Structure prediction by ZEFSAII (Michael W. Deem and Ramdas Pophale) SiO2 
 PCOD8254067
Probable space group: P N M A
;
_chemical_formula_sum "Si O2"
_cell_formula_units_Z 32
_cell_length_a 5.085746
_cell_length_b 16.074557
_cell_length_c 16.693900
_cell_angle_alpha 90.000000
_cell_angle_beta 90.000000
_cell_angle_gamma 90.000000
_cell_volume 1364.744921
_symmetry_space_group_name_H-M "P N M A"
_symmetry_group_IT_number 62
_symmetry_cell_setting 'orthorhombic'
loop_
_space_group_symop_operation_xyz
x,y,z
1/2-x,-y,1/2+z
1/2+x,1/2-y,1/2-z
-x,1/2+y,-z
-x,-y,-z
1/2+x,y,1/2-z
1/2-x,1/2+y,1/2+z
x,1/2-y,z
loop_
_atom_site_type_symbol
_atom_site_label
_atom_site_fract_x
_atom_site_fract_y
_atom_site_fract_z
Si Si1 0.975873 0.913739 0.596610
Si Si2 0.861211 0.250000 0.696981
Si Si3 0.349968 0.657444 0.073020
Si Si4 0.481568 0.010581 0.593151
Si Si5 0.413716 0.750000 0.804925
O O1 0.968289 0.896756 0.500281
O O2 0.764535 0.982984 0.627419
O O3 0.908120 0.828606 0.638252
O O4 0.258699 0.946416 0.624594
O O5 0.061330 0.250000 0.773390
O O6 0.925034 0.331172 0.641470
O O7 0.248186 0.750000 0.046155
O O8 0.105833 0.605800 0.111913
O O9 0.500000 0.000000 0.500000
O O10 0.661291 0.750000 0.749003
#
# Coordination Sequence:
#
# PCOD8254067 Si02
#       5
#     8   4   8   8   4
#     4  11  22  43  64  94 126 162 208 265 315 371
#     4  10  23  38  55  84 120 156 198 240 291 362
#     4   9  20  41  64  91 117 165 204 254 310 372
#     4  10  21  38  65  97 125 153 208 267 313 370
#     4  12  25  44  65  94 130 172 218 258 315 386
#
# _framework density 23.447604999999999
#
# number of rings (size 3 to 8) (size 9 to 14) (size 15 to 20)
#    0.750    1.000    1.250    4.500    0.000    6.000 
#    2.250    7.500    0.000    0.000    0.000    0.000 
#    0.000    0.000    0.000    0.000    0.000    0.000 
#
# Total GULP energy -396517.183462 kJ/mol
# GULP energy per Si atom -12391.161983 kJ/mol
# Density = 2.339424 g / cm^3
# Si number density = 23.447605 Si / 1000 Ang^3
#
#
#
# Elastic Constant Matrix: (Units=GPa)
#
#
# Indices 1 2 3 4 5 6 
#
# 1 97.1484 2.9939 10.5616 0.0000 0.0000 0.0000
# 2 2.9939 98.1857 -1.7635 0.0000 0.0000 0.0000
# 3 10.5616 -1.7635 50.2546 0.0000 0.0000 0.0000
# 4 0.0000 0.0000 0.0000 1.7767 0.0000 0.0000
# 5 0.0000 0.0000 0.0000 0.0000 30.6915 0.0000
# 6 0.0000 0.0000 0.0000 0.0000 0.0000 25.5747
#
#
#
# Elastic Compliance Matrix: (Units=1/GPa)
#
#
# Indices 1 2 3 4 5 6 
#
# 1 0.010547 -0.000362 -0.002229 0.000000 0.000000 0.000000
# 2 -0.000362 0.010204 0.000434 0.000000 0.000000 0.000000
# 3 -0.002229 0.000434 0.020382 0.000000 0.000000 0.000000
# 4 0.000000 0.000000 0.000000 0.562836 0.000000 0.000000
# 5 0.000000 0.000000 0.000000 0.000000 0.032582 0.000000
# 6 0.000000 0.000000 0.000000 0.000000 0.000000 0.039101
#
#
# Mechanical properties :
#
#
# Convention : Reuss Voigt Hill
#
# Bulk Modulus (GPa) = 27.15963 29.90807 28.53385
# Shear Modulus (GPa) = 7.22293 27.19503 17.20898
#
# Velocity S-wave (km/s) = 1.75703 3.40931 2.71206
# Velocity P-wave (km/s) = 3.96541 5.31797 4.69070
#
# Compressibility (1/GPa) = 0.03681935
#
# Stress axis : x y z
#
# Youngs Moduli (GPa) = 94.81334 98.00457 49.06188
#
# Poissons Ratio (x) = 0.03544 0.10937
# Poissons Ratio (y) = 0.03429 -0.02130
# Poissons Ratio (z) = 0.21137 -0.04254
#
# Static dielectric constant tensor:
#      x y z
#    x 4.750100 0.000000 0.000000 
#    y 0.000000 4.988970 0.000000 
#    z 0.000000 0.000000 3.963980 
# 
# 
# High freq. dielectric constant tensor:
#      x y z
#    x 1.929090 0.000000 0.000000 
#    y 0.000000 1.944290 0.000000 
#    z 0.000000 0.000000 1.893650 
# 
# From -- ./inp_files/16106.got.cif
#   From: 2010.03.12/outbox.cif.g09.slc.cpg/sg62_9_cif.got.tgz:16106.got - 2010.04.10 19:12:36.
