data_PCOD8254124
_publ_section_title
;
Structure prediction by ZEFSAII (Michael W. Deem and Ramdas Pophale) SiO2 
 PCOD8254124
Probable space group: P N M A
;
_chemical_formula_sum "Si O2"
_cell_formula_units_Z 56
_cell_length_a 12.045325
_cell_length_b 10.374153
_cell_length_c 22.116919
_cell_angle_alpha 90.000000
_cell_angle_beta 90.000000
_cell_angle_gamma 90.000000
_cell_volume 2763.731182
_symmetry_space_group_name_H-M "P N M A"
_symmetry_group_IT_number 62
_symmetry_cell_setting 'orthorhombic'
loop_
_space_group_symop_operation_xyz
x,y,z
1/2-x,-y,1/2+z
1/2+x,1/2-y,1/2-z
-x,1/2+y,-z
-x,-y,-z
1/2+x,y,1/2-z
1/2-x,1/2+y,1/2+z
x,1/2-y,z
loop_
_atom_site_type_symbol
_atom_site_label
_atom_site_fract_x
_atom_site_fract_y
_atom_site_fract_z
Si Si1 0.670312 0.607176 0.247301
Si Si2 0.609383 0.895500 0.381190
Si Si3 0.344831 0.900379 0.063856
Si Si4 0.358972 0.392182 0.252764
Si Si5 0.566041 0.601983 0.614847
Si Si6 0.298851 0.604015 0.933583
Si Si7 0.480736 0.515831 0.846988
O O1 0.724529 0.750000 0.241075
O O2 0.601279 0.598967 0.308972
O O3 0.766100 0.501260 0.247954
O O4 0.583047 0.590475 0.192931
O O5 0.579604 0.750000 0.404066
O O6 0.732649 0.934809 0.400920
O O7 0.526996 0.002462 0.409363
O O8 0.364744 0.750000 0.059579
O O9 0.448772 0.953920 0.099779
O O10 0.339403 0.962811 0.996192
O O11 0.301925 0.250000 0.251014
O O12 0.432221 0.404480 0.312720
O O13 0.440985 0.399349 0.195665
O O14 0.540660 0.750000 0.594164
O O15 0.682111 0.545866 0.589140
O O16 0.272089 0.750000 0.949875
O O17 0.388164 0.601452 0.879997
#
# Coordination Sequence:
#
# PCOD8254124 Si02
#       7
#     8   8   8   8   8   8   8
#     4  11  23  37  59  90 124 159 197 247 305 365
#     4  10  21  39  61  90 122 160 202 251 305 359
#     4  10  22  40  60  84 120 164 206 248 300 361
#     4  11  23  37  59  90 124 159 197 247 305 365
#     4  10  21  39  61  90 122 160 202 251 305 359
#     4  10  22  40  60  84 120 164 206 248 300 361
#     4  12  21  38  62  92 121 158 202 252 304 362
#
# _framework density 20.262463
#
# number of rings (size 3 to 8) (size 9 to 14) (size 15 to 20)
#    0.000    1.429    4.286    1.286    0.000    2.857 
#    0.000    0.000    0.000    3.429    0.000    0.000 
#    0.000    0.000    0.000    0.000    0.000    0.000 
#
# Total GULP energy -694195.759869 kJ/mol
# GULP energy per Si atom -12396.352855 kJ/mol
# Density = 2.021634 g / cm^3
# Si number density = 20.262463 Si / 1000 Ang^3
#
#
#
# Elastic Constant Matrix: (Units=GPa)
#
#
# Indices 1 2 3 4 5 6 
#
# 1 83.1680 51.8728 4.6764 0.0000 0.0000 0.0000
# 2 51.8728 112.6921 9.1977 0.0000 0.0000 0.0000
# 3 4.6764 9.1977 84.5658 0.0000 0.0000 0.0000
# 4 0.0000 0.0000 0.0000 20.6977 0.0000 0.0000
# 5 0.0000 0.0000 0.0000 0.0000 23.4861 0.0000
# 6 0.0000 0.0000 0.0000 0.0000 0.0000 32.4807
#
#
#
# Elastic Compliance Matrix: (Units=1/GPa)
#
#
# Indices 1 2 3 4 5 6 
#
# 1 0.016867 -0.007757 -0.000089 0.000000 0.000000 0.000000
# 2 -0.007757 0.012520 -0.000933 0.000000 0.000000 0.000000
# 3 -0.000089 -0.000933 0.011931 0.000000 0.000000 0.000000
# 4 0.000000 0.000000 0.000000 0.048315 0.000000 0.000000
# 5 0.000000 0.000000 0.000000 0.000000 0.042578 0.000000
# 6 0.000000 0.000000 0.000000 0.000000 0.000000 0.030788
#
#
# Mechanical properties :
#
#
# Convention : Reuss Voigt Hill
#
# Bulk Modulus (GPa) = 42.08482 45.76886 43.92684
# Shear Modulus (GPa) = 26.52851 29.64482 28.08666
#
# Velocity S-wave (km/s) = 3.62227 3.82912 3.72713
# Velocity P-wave (km/s) = 6.18946 6.49512 6.34413
#
# Compressibility (1/GPa) = 0.02376154
#
# Stress axis : x y z
#
# Youngs Moduli (GPa) = 59.28825 79.87048 83.81177
#
# Poissons Ratio (x) = 0.61952 0.00747
# Poissons Ratio (y) = 0.45987 0.07818
# Poissons Ratio (z) = 0.00528 0.07450
#
# Static dielectric constant tensor:
#      x y z
#    x 3.579860 0.000000 0.000000 
#    y 0.000000 3.598780 0.000000 
#    z 0.000000 0.000000 3.927170 
# 
# 
# High freq. dielectric constant tensor:
#      x y z
#    x 1.788490 0.000000 0.000000 
#    y 0.000000 1.776210 0.000000 
#    z 0.000000 0.000000 1.799720 
# 
# From -- ./inp_files/26591.got.cif
#   From: 2010.03.12/outbox.cif.g09.slc.cpg/sg62_14_cif.got.tgz:26591.got - 2010.04.10 19:12:36.
