data_PCOD8254683
_publ_section_title
;
Structure prediction by ZEFSAII (Michael W. Deem and Ramdas Pophale) SiO2 
 PCOD8254683
Probable space group: P N M A
;
_chemical_formula_sum "Si O2"
_cell_formula_units_Z 48
_cell_length_a 14.674315
_cell_length_b 8.479158
_cell_length_c 18.662009
_cell_angle_alpha 90.000000
_cell_angle_beta 90.000000
_cell_angle_gamma 90.000000
_cell_volume 2322.036061
_symmetry_space_group_name_H-M "P N M A"
_symmetry_group_IT_number 62
_symmetry_cell_setting 'orthorhombic'
loop_
_space_group_symop_operation_xyz
x,y,z
1/2-x,-y,1/2+z
1/2+x,1/2-y,1/2-z
-x,1/2+y,-z
-x,-y,-z
1/2+x,y,1/2-z
1/2-x,1/2+y,1/2+z
x,1/2-y,z
loop_
_atom_site_type_symbol
_atom_site_label
_atom_site_fract_x
_atom_site_fract_y
_atom_site_fract_z
Si Si1 0.257485 0.064377 0.085410
Si Si2 0.965969 0.068497 0.201988
Si Si3 0.399793 0.434936 0.810579
Si Si4 0.789404 0.933078 0.261555
Si Si5 0.058506 0.934329 0.065020
Si Si6 0.405390 0.064193 0.972124
O O1 0.265577 0.250000 0.099023
O O2 0.293654 0.974834 0.155132
O O3 0.154382 0.023013 0.066017
O O4 0.321615 0.005185 0.020750
O O5 0.979025 0.250000 0.180651
O O6 0.860038 0.032651 0.214425
O O7 0.017202 0.029983 0.275898
O O8 0.004917 0.960754 0.138741
O O9 0.422155 0.250000 0.807230
O O10 0.309850 0.477584 0.766746
O O11 0.387891 0.495590 0.891558
O O12 0.811946 0.750000 0.250880
O O13 0.076402 0.750000 0.054899
O O14 0.000000 0.000000 0.000000
O O15 0.409871 0.250000 0.973993
O O16 0.500000 0.000000 0.000000
#
# Coordination Sequence:
#
# PCOD8254683 Si02
#       6
#     8   8   8   8   8   8
#     4  11  23  42  67  98 133 170 216 272 328 386
#     4  12  25  42  66  97 131 168 214 272 326 385
#     4  10  22  42  65  92 126 168 216 262 319 386
#     4  11  23  40  66  94 127 172 216 265 324 389
#     4  12  26  45  67  95 130 173 220 269 328 395
#     4  10  23  41  63  93 128 168 211 261 318 379
#
# _framework density 20.671513999999998
#
# number of rings (size 3 to 8) (size 9 to 14) (size 15 to 20)
#    0.000    1.000    1.667    5.000    2.333    5.333 
#    0.000    0.000    0.000    0.000    0.000    0.000 
#    0.000    0.000    0.000    0.000    0.000    0.000 
#
# Total GULP energy -595552.322884 kJ/mol
# GULP energy per Si atom -12407.340060 kJ/mol
# Density = 2.062446 g / cm^3
# Si number density = 20.671514 Si / 1000 Ang^3
#
#
#
# Elastic Constant Matrix: (Units=GPa)
#
#
# Indices 1 2 3 4 5 6 
#
# 1 86.1528 16.2057 19.8222 0.0000 0.0000 0.0000
# 2 16.2057 50.9169 15.3437 0.0000 0.0000 0.0000
# 3 19.8222 15.3437 118.3577 0.0000 0.0000 0.0000
# 4 0.0000 0.0000 0.0000 35.2102 0.0000 0.0000
# 5 0.0000 0.0000 0.0000 0.0000 45.2107 0.0000
# 6 0.0000 0.0000 0.0000 0.0000 0.0000 37.7874
#
#
#
# Elastic Compliance Matrix: (Units=1/GPa)
#
#
# Indices 1 2 3 4 5 6 
#
# 1 0.012653 -0.003526 -0.001662 0.000000 0.000000 0.000000
# 2 -0.003526 0.021421 -0.002186 0.000000 0.000000 0.000000
# 3 -0.001662 -0.002186 0.009011 0.000000 0.000000 0.000000
# 4 0.000000 0.000000 0.000000 0.028401 0.000000 0.000000
# 5 0.000000 0.000000 0.000000 0.000000 0.022119 0.000000
# 6 0.000000 0.000000 0.000000 0.000000 0.000000 0.026464
#
#
# Mechanical properties :
#
#
# Convention : Reuss Voigt Hill
#
# Bulk Modulus (GPa) = 35.29152 39.79674 37.54413
# Shear Modulus (GPa) = 34.65902 37.24539 35.95220
#
# Velocity S-wave (km/s) = 4.09914 4.24934 4.17491
# Velocity P-wave (km/s) = 6.28598 6.58556 6.43751
#
# Compressibility (1/GPa) = 0.02833542
#
# Stress axis : x y z
#
# Youngs Moduli (GPa) = 79.03280 46.68307 110.97858
#
# Poissons Ratio (x) = 0.16462 0.18444
# Poissons Ratio (y) = 0.27869 0.24264
# Poissons Ratio (z) = 0.13135 0.10207
#
# Static dielectric constant tensor:
#      x y z
#    x 3.588090 0.000000 0.000000 
#    y 0.000000 3.719550 0.000000 
#    z 0.000000 0.000000 4.003390 
# 
# 
# High freq. dielectric constant tensor:
#      x y z
#    x 1.822760 0.000000 0.000000 
#    y 0.000000 1.809510 0.000000 
#    z 0.000000 0.000000 1.822410 
# 
# From -- ./inp_files/23760.got.cif
#   From: 2010.03.12/outbox.cif.g09.slc.cpg/sg62_12_cif.got.tgz:23760.got - 2010.04.10 19:12:36.
