data_PCOD8254829
_publ_section_title
;
Structure prediction by ZEFSAII (Michael W. Deem and Ramdas Pophale) SiO2 
 PCOD8254829
Probable space group: P N M A
;
_chemical_formula_sum "Si O2"
_cell_formula_units_Z 32
_cell_length_a 5.004766
_cell_length_b 9.931215
_cell_length_c 30.549478
_cell_angle_alpha 90.000000
_cell_angle_beta 90.000000
_cell_angle_gamma 90.000000
_cell_volume 1518.413144
_symmetry_space_group_name_H-M "P N M A"
_symmetry_group_IT_number 62
_symmetry_cell_setting 'orthorhombic'
loop_
_space_group_symop_operation_xyz
x,y,z
1/2-x,-y,1/2+z
1/2+x,1/2-y,1/2-z
-x,1/2+y,-z
-x,-y,-z
1/2+x,y,1/2-z
1/2-x,1/2+y,1/2+z
x,1/2-y,z
loop_
_atom_site_type_symbol
_atom_site_label
_atom_site_fract_x
_atom_site_fract_y
_atom_site_fract_z
Si Si1 0.743788 0.250000 0.015342
Si Si2 0.783218 0.968126 0.586390
Si Si3 0.281346 0.903681 0.641549
Si Si4 0.757865 0.096267 0.778721
Si Si5 0.243557 0.250000 0.956604
O O1 0.797531 0.117241 0.043821
O O2 0.442700 0.250000 0.997647
O O3 0.942233 0.250000 0.974274
O O4 0.574405 0.943658 0.625183
O O5 0.074246 0.921406 0.601951
O O6 0.792157 0.123696 0.574458
O O7 0.282418 0.750000 0.657962
O O8 0.194714 0.998502 0.681265
O O9 0.551843 0.067236 0.739588
O O10 0.728690 0.250000 0.795324
#
# Coordination Sequence:
#
# PCOD8254829 Si02
#       5
#     4   8   8   8   4
#     4  12  22  46  62  92 132 164 214 268 324 378
#     4  12  25  42  65  96 128 168 216 265 318 375
#     4  12  24  43  66  94 132 172 208 261 314 377
#     4  10  23  42  66  97 129 164 206 257 313 373
#     4  12  26  40  68  94 122 172 218 266 322 376
#
# _framework density 21.074631
#
# number of rings (size 3 to 8) (size 9 to 14) (size 15 to 20)
#    0.000    0.500    2.500    6.000    3.500    1.000 
#    0.000    0.000    0.000    0.000    0.000    0.000 
#    0.000    0.000    0.000    0.000    0.000    0.000 
#
# Total GULP energy -397144.980268 kJ/mol
# GULP energy per Si atom -12410.780633 kJ/mol
# Density = 2.102666 g / cm^3
# Si number density = 21.074631 Si / 1000 Ang^3
#
#
#
# Elastic Constant Matrix: (Units=GPa)
#
#
# Indices 1 2 3 4 5 6 
#
# 1 84.0621 30.2509 14.9930 0.0000 0.0000 0.0000
# 2 30.2509 154.0591 56.6168 0.0000 0.0000 0.0000
# 3 14.9930 56.6168 78.2577 0.0000 0.0000 0.0000
# 4 0.0000 0.0000 0.0000 34.5432 0.0000 0.0000
# 5 0.0000 0.0000 0.0000 0.0000 11.6065 0.0000
# 6 0.0000 0.0000 0.0000 0.0000 0.0000 28.2869
#
#
#
# Elastic Compliance Matrix: (Units=1/GPa)
#
#
# Indices 1 2 3 4 5 6 
#
# 1 0.012843 -0.002204 -0.000866 0.000000 0.000000 0.000000
# 2 -0.002204 0.009220 -0.006248 0.000000 0.000000 0.000000
# 3 -0.000866 -0.006248 0.017465 0.000000 0.000000 0.000000
# 4 0.000000 0.000000 0.000000 0.028949 0.000000 0.000000
# 5 0.000000 0.000000 0.000000 0.000000 0.086158 0.000000
# 6 0.000000 0.000000 0.000000 0.000000 0.000000 0.035352
#
#
# Mechanical properties :
#
#
# Convention : Reuss Voigt Hill
#
# Bulk Modulus (GPa) = 47.86570 57.78893 52.82731
# Shear Modulus (GPa) = 23.19241 29.18854 26.19048
#
# Velocity S-wave (km/s) = 3.32096 3.72561 3.52909
# Velocity P-wave (km/s) = 6.12102 6.78141 6.45966
#
# Compressibility (1/GPa) = 0.02089179
#
# Stress axis : x y z
#
# Youngs Moduli (GPa) = 77.86061 108.46136 57.25875
#
# Poissons Ratio (x) = 0.23900 0.04961
# Poissons Ratio (y) = 0.17157 0.35776
# Poissons Ratio (z) = 0.06746 0.67768
#
# Static dielectric constant tensor:
#      x y z
#    x 3.899800 0.000000 0.000000 
#    y 0.000000 3.944800 0.000000 
#    z 0.000000 0.000000 3.531540 
# 
# 
# High freq. dielectric constant tensor:
#      x y z
#    x 1.842830 0.000000 0.000000 
#    y 0.000000 1.840490 0.000000 
#    z 0.000000 0.000000 1.817370 
# 
# From -- ./inp_files/31434.got.cif
#   From: 2010.03.12/outbox.cif.g09.slc.cpg/sg62_16_cif.got.tgz:31434.got - 2010.04.10 19:12:36.
