data_PCOD8254781
_publ_section_title
;
Structure prediction by ZEFSAII (Michael W. Deem and Ramdas Pophale) SiO2 
 PCOD8254781
Probable space group: P N M A
;
_chemical_formula_sum "Si O2"
_cell_formula_units_Z 32
_cell_length_a 18.239923
_cell_length_b 13.969399
_cell_length_c 5.162446
_cell_angle_alpha 90.000000
_cell_angle_beta 90.000000
_cell_angle_gamma 90.000000
_cell_volume 1315.395175
_symmetry_space_group_name_H-M "P N M A"
_symmetry_group_IT_number 62
_symmetry_cell_setting 'orthorhombic'
loop_
_space_group_symop_operation_xyz
x,y,z
1/2-x,-y,1/2+z
1/2+x,1/2-y,1/2-z
-x,1/2+y,-z
-x,-y,-z
1/2+x,y,1/2-z
1/2-x,1/2+y,1/2+z
x,1/2-y,z
loop_
_atom_site_type_symbol
_atom_site_label
_atom_site_fract_x
_atom_site_fract_y
_atom_site_fract_z
Si Si1 0.780513 0.453137 0.744998
Si Si2 0.621719 0.250000 0.375820
Si Si3 0.994468 0.112256 0.055941
Si Si4 0.061721 0.919869 0.444176
Si Si5 0.781586 0.750000 0.367747
O O1 0.728021 0.482367 0.503933
O O2 0.862116 0.468618 0.635840
O O3 0.767957 0.343453 0.826004
O O4 0.571643 0.344397 0.354200
O O5 0.654051 0.250000 0.661418
O O6 0.683887 0.250000 0.155762
O O7 0.934028 0.135609 0.280654
O O8 0.964594 0.153685 0.782801
O O9 0.000000 0.000000 0.000000
O O10 0.000000 0.000000 0.500000
#
# Coordination Sequence:
#
# PCOD8254781 Si02
#       5
#     8   4   8   8   4
#     4  12  28  48  78 111 161 207 258 328 398 477
#     4  12  26  46  74 112 156 203 251 334 384 478
#     4  10  23  40  71 106 145 186 257 311 387 451
#     4  10  23  43  74 106 147 189 260 309 392 453
#     4  12  30  46  76 112 158 203 269 298 412 484
#
# _framework density 24.327289
#
# number of rings (size 3 to 8) (size 9 to 14) (size 15 to 20)
#    0.000    1.000    0.000    4.500   21.000    2.000 
#    0.000    0.000    0.000    0.000    0.000    0.000 
#    0.000    0.000    0.000    0.000    0.000    0.000 
#
# Total GULP energy -396462.971741 kJ/mol
# GULP energy per Si atom -12389.467867 kJ/mol
# Density = 2.427192 g / cm^3
# Si number density = 24.327289 Si / 1000 Ang^3
#
#
#
# Elastic Constant Matrix: (Units=GPa)
#
#
# Indices 1 2 3 4 5 6 
#
# 1 113.4878 40.7102 29.5488 0.0000 0.0000 0.0000
# 2 40.7102 124.3401 25.4158 0.0000 0.0000 0.0000
# 3 29.5488 25.4158 220.0037 0.0000 0.0000 0.0000
# 4 0.0000 0.0000 0.0000 22.7273 0.0000 0.0000
# 5 0.0000 0.0000 0.0000 0.0000 51.6446 0.0000
# 6 0.0000 0.0000 0.0000 0.0000 0.0000 36.8678
#
#
#
# Elastic Compliance Matrix: (Units=1/GPa)
#
#
# Indices 1 2 3 4 5 6 
#
# 1 0.010198 -0.003133 -0.001008 0.000000 0.000000 0.000000
# 2 -0.003133 0.009199 -0.000642 0.000000 0.000000 0.000000
# 3 -0.001008 -0.000642 0.004755 0.000000 0.000000 0.000000
# 4 0.000000 0.000000 0.000000 0.044000 0.000000 0.000000
# 5 0.000000 0.000000 0.000000 0.000000 0.019363 0.000000
# 6 0.000000 0.000000 0.000000 0.000000 0.000000 0.027124
#
#
# Mechanical properties :
#
#
# Convention : Reuss Voigt Hill
#
# Bulk Modulus (GPa) = 68.55478 72.13126 70.34302
# Shear Modulus (GPa) = 38.73971 46.39172 42.56572
#
# Velocity S-wave (km/s) = 3.99487 4.37164 4.18749
# Velocity P-wave (km/s) = 7.03704 7.42942 7.23589
#
# Compressibility (1/GPa) = 0.01458687
#
# Stress axis : x y z
#
# Youngs Moduli (GPa) = 98.06113 108.70266 210.30970
#
# Poissons Ratio (x) = 0.34055 0.21194
# Poissons Ratio (y) = 0.30721 0.13501
# Poissons Ratio (z) = 0.09882 0.06978
#
# Static dielectric constant tensor:
#      x y z
#    x 4.147480 0.000000 0.000000 
#    y 0.000000 4.420580 0.000000 
#    z 0.000000 0.000000 -8.824040 
# 
# 
# High freq. dielectric constant tensor:
#      x y z
#    x 1.952330 0.000000 0.000000 
#    y 0.000000 1.952530 0.000000 
#    z 0.000000 0.000000 2.014590 
# 
# From -- ./inp_files/1514.got.cif
#   From: 2010.03.12/outbox.cif.g09.slc.cpg/sg62_1_cif.got.tgz:1514.got - 2010.04.10 19:12:36.
