data_PCOD8254284
_publ_section_title
;
Structure prediction by ZEFSAII (Michael W. Deem and Ramdas Pophale) SiO2 
 PCOD8254284
Probable space group: P N M A
;
_chemical_formula_sum "Si O2"
_cell_formula_units_Z 56
_cell_length_a 10.691909
_cell_length_b 15.861343
_cell_length_c 13.933348
_cell_angle_alpha 90.000000
_cell_angle_beta 90.000000
_cell_angle_gamma 90.000000
_cell_volume 2362.929122
_symmetry_space_group_name_H-M "P N M A"
_symmetry_group_IT_number 62
_symmetry_cell_setting 'orthorhombic'
loop_
_space_group_symop_operation_xyz
x,y,z
1/2-x,-y,1/2+z
1/2+x,1/2-y,1/2-z
-x,1/2+y,-z
-x,-y,-z
1/2+x,y,1/2-z
1/2-x,1/2+y,1/2+z
x,1/2-y,z
loop_
_atom_site_type_symbol
_atom_site_label
_atom_site_fract_x
_atom_site_fract_y
_atom_site_fract_z
Si Si1 0.663081 0.153188 0.990487
Si Si2 0.636875 0.069597 0.515608
Si Si3 0.123249 0.009850 0.201045
Si Si4 0.041457 0.655906 0.717095
Si Si5 0.109363 0.654635 0.498482
Si Si6 0.207185 0.565329 0.848584
Si Si7 0.421478 0.154253 0.616709
O O1 0.654463 0.250000 0.022235
O O2 0.524876 0.126893 0.950725
O O3 0.679373 0.098488 0.086221
O O4 0.779292 0.138600 0.919760
O O5 0.775788 0.101172 0.544560
O O6 0.526964 0.138146 0.534555
O O7 0.642470 0.041751 0.406486
O O8 0.609672 0.988234 0.584299
O O9 0.061597 0.915582 0.200612
O O10 0.252155 0.003837 0.260867
O O11 0.051704 0.079206 0.263438
O O12 0.981527 0.750000 0.726067
O O13 0.104422 0.644610 0.613443
O O14 0.143631 0.647625 0.802020
O O15 0.140017 0.750000 0.469947
O O16 0.436269 0.250000 0.654970
#
# Coordination Sequence:
#
# PCOD8254284 Si02
#       7
#     8   8   8   8   8   8   8
#     4  10  21  40  65  96 132 175 222 274 346 418
#     4  12  24  43  69 101 137 180 232 290 338 405
#     4  12  24  43  67 103 142 180 235 283 345 411
#     4  11  23  40  67 103 143 177 218 285 360 420
#     4  10  22  41  65 101 139 172 220 283 353 413
#     4  12  23  40  66  99 139 180 229 280 346 413
#     4  11  24  46  72  96 136 189 235 279 336 407
#
# _framework density 23.699397999999999
#
# number of rings (size 3 to 8) (size 9 to 14) (size 15 to 20)
#    0.000    0.857    5.714    2.143    0.000    3.429 
#    2.571    1.429    0.000    0.000    0.000    0.000 
#    0.000    0.000    0.000    0.000    0.000    0.000 
#
# Total GULP energy -693789.392210 kJ/mol
# GULP energy per Si atom -12389.096289 kJ/mol
# Density = 2.364546 g / cm^3
# Si number density = 23.699398 Si / 1000 Ang^3
#
#
#
# Elastic Constant Matrix: (Units=GPa)
#
#
# Indices 1 2 3 4 5 6 
#
# 1 116.5038 28.0544 -5.9676 0.0000 0.0000 0.0000
# 2 28.0544 130.6467 20.1074 0.0000 0.0000 0.0000
# 3 -5.9676 20.1074 47.0713 0.0000 0.0000 0.0000
# 4 0.0000 0.0000 0.0000 24.2760 0.0000 0.0000
# 5 0.0000 0.0000 0.0000 0.0000 21.2357 0.0000
# 6 0.0000 0.0000 0.0000 0.0000 0.0000 38.8151
#
#
#
# Elastic Compliance Matrix: (Units=1/GPa)
#
#
# Indices 1 2 3 4 5 6 
#
# 1 0.009253 -0.002320 0.002164 0.000000 0.000000 0.000000
# 2 -0.002320 0.008775 -0.004042 0.000000 0.000000 0.000000
# 3 0.002164 -0.004042 0.023246 0.000000 0.000000 0.000000
# 4 0.000000 0.000000 0.000000 0.041193 0.000000 0.000000
# 5 0.000000 0.000000 0.000000 0.000000 0.047090 0.000000
# 6 0.000000 0.000000 0.000000 0.000000 0.000000 0.025763
#
#
# Mechanical properties :
#
#
# Convention : Reuss Voigt Hill
#
# Bulk Modulus (GPa) = 30.41685 42.06779 36.24232
# Shear Modulus (GPa) = 28.62461 33.66720 31.14591
#
# Velocity S-wave (km/s) = 3.47914 3.77316 3.62913
# Velocity P-wave (km/s) = 5.38531 6.06395 5.73468
#
# Compressibility (1/GPa) = 0.03287651
#
# Stress axis : x y z
#
# Youngs Moduli (GPa) = 108.07400 113.96577 43.01905
#
# Poissons Ratio (x) = 0.26440 -0.09310
# Poissons Ratio (y) = 0.25073 0.17390
# Poissons Ratio (z) = -0.23388 0.46069
#
# Static dielectric constant tensor:
#      x y z
#    x 4.686750 0.000000 0.000000 
#    y 0.000000 4.537270 0.000000 
#    z 0.000000 0.000000 4.016990 
# 
# 
# High freq. dielectric constant tensor:
#      x y z
#    x 1.952890 0.000000 0.000000 
#    y 0.000000 1.939840 0.000000 
#    z 0.000000 0.000000 1.913590 
# 
# From -- ./inp_files/18122.got.cif
#   From: 2010.03.12/outbox.cif.g09.slc.cpg/sg62_10_cif.got.tgz:18122.got - 2010.04.10 19:12:36.
