data_PCOD8254412
_publ_section_title
;
Structure prediction by ZEFSAII (Michael W. Deem and Ramdas Pophale) SiO2 
 PCOD8254412
Probable space group: P N M A
;
_chemical_formula_sum "Si O2"
_cell_formula_units_Z 40
_cell_length_a 11.733944
_cell_length_b 14.295600
_cell_length_c 10.408510
_cell_angle_alpha 90.000000
_cell_angle_beta 90.000000
_cell_angle_gamma 90.000000
_cell_volume 1745.962706
_symmetry_space_group_name_H-M "P N M A"
_symmetry_group_IT_number 62
_symmetry_cell_setting 'orthorhombic'
loop_
_space_group_symop_operation_xyz
x,y,z
1/2-x,-y,1/2+z
1/2+x,1/2-y,1/2-z
-x,1/2+y,-z
-x,-y,-z
1/2+x,y,1/2-z
1/2-x,1/2+y,1/2+z
x,1/2-y,z
loop_
_atom_site_type_symbol
_atom_site_label
_atom_site_fract_x
_atom_site_fract_y
_atom_site_fract_z
Si Si1 0.173498 0.250000 0.957960
Si Si2 0.351214 0.750000 0.002513
Si Si3 0.993791 0.898361 0.157364
Si Si4 0.263344 0.250000 0.235025
Si Si5 0.327548 0.048612 0.268286
Si Si6 0.273777 0.066528 0.544045
Si Si7 0.573038 0.750000 0.145329
O O1 0.108667 0.342389 0.909999
O O2 0.299267 0.250000 0.901789
O O3 0.182385 0.250000 0.111177
O O4 0.296229 0.839303 0.074751
O O5 0.486992 0.750000 0.024001
O O6 0.325837 0.750000 0.852276
O O7 0.090194 0.916805 0.050944
O O8 0.051938 0.842397 0.272361
O O9 0.947623 0.995511 0.216849
O O10 0.345669 0.159459 0.244447
O O11 0.251485 0.033064 0.397538
O O12 0.259500 0.012210 0.145087
#
# Coordination Sequence:
#
# PCOD8254412 Si02
#       7
#     4   4   8   4   8   8   4
#     4  11  24  46  69 106 138 178 235 289 347 414
#     4  10  21  45  68 101 139 178 230 290 353 414
#     4  11  23  40  74  99 137 182 233 288 343 416
#     4  10  25  45  64  94 147 182 225 289 353 421
#     4  11  23  44  67  99 142 180 234 281 349 411
#     4  11  23  44  70 104 136 184 230 289 350 418
#     4  11  22  40  71 107 132 178 240 292 333 421
#
# _framework density 22.909996
#
# number of rings (size 3 to 8) (size 9 to 14) (size 15 to 20)
#    0.000    1.200    2.000    4.200    2.800    0.000 
#   14.400    2.000    0.000    0.000    0.000    0.000 
#    0.000    0.000    0.000    0.000    0.000    0.000 
#
# Total GULP energy -496127.742873 kJ/mol
# GULP energy per Si atom -12403.193572 kJ/mol
# Density = 2.285785 g / cm^3
# Si number density = 22.909996 Si / 1000 Ang^3
#
#
#
# Elastic Constant Matrix: (Units=GPa)
#
#
# Indices 1 2 3 4 5 6 
#
# 1 124.2742 43.6477 38.6352 0.0000 0.0000 0.0000
# 2 43.6477 151.1445 62.7037 0.0000 0.0000 0.0000
# 3 38.6352 62.7037 134.4738 0.0000 0.0000 0.0000
# 4 0.0000 0.0000 0.0000 22.5138 0.0000 0.0000
# 5 0.0000 0.0000 0.0000 0.0000 22.9837 0.0000
# 6 0.0000 0.0000 0.0000 0.0000 0.0000 -48.3153
#
#
#
# Elastic Compliance Matrix: (Units=1/GPa)
#
#
# Indices 1 2 3 4 5 6 
#
# 1 0.009278 -0.001951 -0.001756 0.000000 0.000000 0.000000
# 2 -0.001951 0.008613 -0.003456 0.000000 0.000000 0.000000
# 3 -0.001756 -0.003456 0.009552 0.000000 0.000000 0.000000
# 4 0.000000 0.000000 0.000000 0.044417 0.000000 0.000000
# 5 0.000000 0.000000 0.000000 0.000000 0.043509 0.000000
# 6 0.000000 0.000000 0.000000 0.000000 0.000000 -0.020697
#
#
# Mechanical properties :
#
#
# Convention : Reuss Voigt Hill
#
# Bulk Modulus (GPa) = 76.22957 77.76286 76.99621
# Shear Modulus (GPa) = 44.10347 17.09685 30.60016
#
# Velocity S-wave (km/s) = 4.39233 2.73474 3.65864
# Velocity P-wave (km/s) = 7.68564 6.63236 7.17835
#
# Compressibility (1/GPa) = 0.01311827
#
# Stress axis : x y z
#
# Youngs Moduli (GPa) = 107.78440 116.10100 104.68714
#
# Poissons Ratio (x) = 0.22649 0.18382
# Poissons Ratio (y) = 0.21026 0.36177
# Poissons Ratio (z) = 0.18926 0.40122
#
# Static dielectric constant tensor:
#      x y z
#    x 3.848390 0.000000 0.000000 
#    y 0.000000 4.375130 0.000000 
#    z 0.000000 0.000000 4.225250 
# 
# 
# High freq. dielectric constant tensor:
#      x y z
#    x 1.885780 0.000000 0.000000 
#    y 0.000000 1.917440 0.000000 
#    z 0.000000 0.000000 1.918380 
# 
# From -- ./inp_files/12114.got.cif
#   From: 2010.03.12/outbox.cif.g09.slc.cpg/sg62_7_cif.got.tgz:12114.got - 2010.04.10 19:12:36.
