data_PCOD8254696
_publ_section_title
;
Structure prediction by ZEFSAII (Michael W. Deem and Ramdas Pophale) SiO2 
 PCOD8254696
Probable space group: P N M A
;
_chemical_formula_sum "Si O2"
_cell_formula_units_Z 32
_cell_length_a 11.094069
_cell_length_b 9.993201
_cell_length_c 11.712898
_cell_angle_alpha 90.000000
_cell_angle_beta 90.000000
_cell_angle_gamma 90.000000
_cell_volume 1298.553499
_symmetry_space_group_name_H-M "P N M A"
_symmetry_group_IT_number 62
_symmetry_cell_setting 'orthorhombic'
loop_
_space_group_symop_operation_xyz
x,y,z
1/2-x,-y,1/2+z
1/2+x,1/2-y,1/2-z
-x,1/2+y,-z
-x,-y,-z
1/2+x,y,1/2-z
1/2-x,1/2+y,1/2+z
x,1/2-y,z
loop_
_atom_site_type_symbol
_atom_site_label
_atom_site_fract_x
_atom_site_fract_y
_atom_site_fract_z
Si Si1 0.528953 0.597010 0.838052
Si Si2 0.103453 0.968374 0.910536
Si Si3 0.677106 0.603961 0.171415
Si Si4 0.776730 0.607110 0.408152
O O1 0.518689 0.750000 0.882123
O O2 0.550257 0.602154 0.701785
O O3 0.408475 0.516050 0.873170
O O4 0.636633 0.522496 0.905323
O O5 0.183426 0.096086 0.871152
O O6 0.202553 0.878355 0.974665
O O7 0.000000 0.000000 0.000000
O O8 0.626357 0.750000 0.135015
O O9 0.677680 0.590580 0.308303
O O10 0.846392 0.750000 0.391391
#
# Coordination Sequence:
#
# PCOD8254696 Si02
#       4
#     8   8   8   8
#     4  11  24  43  68 100 137 172 220 281 333 388
#     4  11  23  44  69 103 130 174 224 277 328 395
#     4  10  23  42  67  99 135 176 220 272 335 398
#     4  10  22  42  67  96 134 177 223 273 332 398
#
# _framework density 24.642807000000001
#
# number of rings (size 3 to 8) (size 9 to 14) (size 15 to 20)
#    0.000    1.500    2.500    1.500    0.000   10.000 
#    0.000    0.000    0.000    0.000    0.000    0.000 
#    0.000    0.000    0.000    0.000    0.000    0.000 
#
# Total GULP energy -396430.107092 kJ/mol
# GULP energy per Si atom -12388.440847 kJ/mol
# Density = 2.458672 g / cm^3
# Si number density = 24.642807 Si / 1000 Ang^3
#
#
#
# Elastic Constant Matrix: (Units=GPa)
#
#
# Indices 1 2 3 4 5 6 
#
# 1 112.6687 62.6378 28.3755 0.0000 0.0000 0.0000
# 2 62.6378 219.8251 7.4571 0.0000 0.0000 0.0000
# 3 28.3755 7.4571 88.2239 0.0000 0.0000 0.0000
# 4 0.0000 0.0000 0.0000 9.0579 0.0000 0.0000
# 5 0.0000 0.0000 0.0000 0.0000 50.1968 0.0000
# 6 0.0000 0.0000 0.0000 0.0000 0.0000 34.1143
#
#
#
# Elastic Compliance Matrix: (Units=1/GPa)
#
#
# Indices 1 2 3 4 5 6 
#
# 1 0.011496 -0.003159 -0.003430 0.000000 0.000000 0.000000
# 2 -0.003159 0.005430 0.000557 0.000000 0.000000 0.000000
# 3 -0.003430 0.000557 0.012391 0.000000 0.000000 0.000000
# 4 0.000000 0.000000 0.000000 0.110401 0.000000 0.000000
# 5 0.000000 0.000000 0.000000 0.000000 0.019922 0.000000
# 6 0.000000 0.000000 0.000000 0.000000 0.000000 0.029313
#
#
# Mechanical properties :
#
#
# Convention : Reuss Voigt Hill
#
# Bulk Modulus (GPa) = 57.96373 68.62874 63.29623
# Shear Modulus (GPa) = 24.18157 40.15695 32.16926
#
# Velocity S-wave (km/s) = 3.13594 4.04116 3.61698
# Velocity P-wave (km/s) = 6.05680 7.04872 6.57150
#
# Compressibility (1/GPa) = 0.01725217
#
# Stress axis : x y z
#
# Youngs Moduli (GPa) = 86.98724 184.14843 80.70358
#
# Poissons Ratio (x) = 0.58179 0.27685
# Poissons Ratio (y) = 0.27482 -0.04496
# Poissons Ratio (z) = 0.29840 -0.10260
#
# Static dielectric constant tensor:
#      x y z
#    x 4.304680 0.000000 0.000000 
#    y 0.000000 4.221490 0.000000 
#    z 0.000000 0.000000 4.679440 
# 
# 
# High freq. dielectric constant tensor:
#      x y z
#    x 1.970070 0.000000 0.000000 
#    y 0.000000 1.966730 0.000000 
#    z 0.000000 0.000000 2.003170 
# 
# From -- ./inp_files/17627.got.cif
#   From: 2010.03.12/outbox.cif.g09.slc.cpg/sg62_9_cif.got.tgz:17627.got - 2010.04.10 19:12:36.
