data_PCOD8254945
_publ_section_title
;
Structure prediction by ZEFSAII (Michael W. Deem and Ramdas Pophale) SiO2 
 PCOD8254945
Probable space group: P N M A
;
_chemical_formula_sum "Si O2"
_cell_formula_units_Z 64
_cell_length_a 26.065666
_cell_length_b 13.341715
_cell_length_c 9.658687
_cell_angle_alpha 90.000000
_cell_angle_beta 90.000000
_cell_angle_gamma 90.000000
_cell_volume 3358.911627
_symmetry_space_group_name_H-M "P N M A"
_symmetry_group_IT_number 62
_symmetry_cell_setting 'orthorhombic'
loop_
_space_group_symop_operation_xyz
x,y,z
1/2-x,-y,1/2+z
1/2+x,1/2-y,1/2-z
-x,1/2+y,-z
-x,-y,-z
1/2+x,y,1/2-z
1/2-x,1/2+y,1/2+z
x,1/2-y,z
loop_
_atom_site_type_symbol
_atom_site_label
_atom_site_fract_x
_atom_site_fract_y
_atom_site_fract_z
Si Si1 0.665159 0.638337 0.692219
Si Si2 0.680556 0.637588 0.021035
Si Si3 0.055858 0.636698 0.730772
Si Si4 0.165159 0.138337 0.192219
Si Si5 0.093231 1.000000 0.500000
Si Si6 0.055858 0.136698 0.269228
Si Si7 0.319444 0.862412 0.021035
Si Si8 0.730774 1.000000 0.500000
O O1 0.680246 0.750000 0.637315
O O2 0.677711 0.632619 0.854269
O O3 0.604071 0.618655 0.666928
O O4 0.695865 0.552123 0.615027
O O5 0.680281 0.750000 0.078613
O O6 0.630875 0.578931 0.080125
O O7 0.732798 0.583780 0.071162
O O8 0.061230 0.750000 0.670371
O O9 0.056860 0.557922 0.605696
O O10 1.000000 0.624275 0.805294
O O11 0.180246 0.250000 0.137315
O O12 0.104071 0.118655 0.166928
O O13 0.177711 0.132619 0.354269
O O14 0.195865 0.052123 0.115027
O O15 0.056860 0.057922 0.394304
O O16 0.130875 0.078931 0.580125
O O17 0.061230 0.250000 0.329629
O O18 0.319719 0.750000 0.078613
O O19 0.267202 0.916220 0.071162
#
# Coordination Sequence:
#
# PCOD8254945 Si02
#       8
#     8   8   8   8   8   8   8   8
#     4   9  18  32  48  67  91 118 151 189 224 263
#     4   9  18  31  47  68  93 120 150 184 221 267
#     4   9  17  30  49  71  92 117 151 188 225 266
#     4   9  18  32  48  67  91 118 151 189 224 263
#     4   9  15  26  49  74  95 114 143 185 228 270
#     4   9  17  30  49  71  92 117 151 188 225 266
#     4   9  18  31  47  68  93 120 150 184 221 267
#     4  11  18  26  48  70  88 118 156 189 220 258
#
# _framework density 19.053789999999999
#
# number of rings (size 3 to 8) (size 9 to 14) (size 15 to 20)
#    0.000    2.750    0.000    4.125    0.000    2.000 
#    0.000    0.625    0.000   66.000    0.000    0.000 
#    0.000    0.000    0.000    0.000    0.000    0.000 
#
# Total GULP energy -792891.280925 kJ/mol
# GULP energy per Si atom -12388.926264 kJ/mol
# Density = 1.901042 g / cm^3
# Si number density = 19.053790 Si / 1000 Ang^3
#
#
#
# Elastic Constant Matrix: (Units=GPa)
#
#
# Indices 1 2 3 4 5 6 
#
# 1 142.0064 50.4878 12.4650 0.0000 0.0000 0.0000
# 2 50.4878 126.2425 8.5049 0.0000 0.0000 0.0000
# 3 12.4650 8.5049 16.6073 0.0000 0.0000 0.0000
# 4 0.0000 0.0000 0.0000 27.3347 0.0000 0.0000
# 5 0.0000 0.0000 0.0000 0.0000 16.3422 0.0000
# 6 0.0000 0.0000 0.0000 0.0000 0.0000 27.2226
#
#
#
# Elastic Compliance Matrix: (Units=1/GPa)
#
#
# Indices 1 2 3 4 5 6 
#
# 1 0.008570 -0.003101 -0.004844 0.000000 0.000000 0.000000
# 2 -0.003101 0.009326 -0.002449 0.000000 0.000000 0.000000
# 3 -0.004844 -0.002449 0.065105 0.000000 0.000000 0.000000
# 4 0.000000 0.000000 0.000000 0.036584 0.000000 0.000000
# 5 0.000000 0.000000 0.000000 0.000000 0.061191 0.000000
# 6 0.000000 0.000000 0.000000 0.000000 0.000000 0.036734
#
#
# Mechanical properties :
#
#
# Convention : Reuss Voigt Hill
#
# Bulk Modulus (GPa) = 16.07381 47.53017 31.80199
# Shear Modulus (GPa) = 19.30245 28.40648 23.85446
#
# Velocity S-wave (km/s) = 3.18630 3.86535 3.54213
# Velocity P-wave (km/s) = 4.68946 6.70229 5.78410
#
# Compressibility (1/GPa) = 0.06221298
#
# Stress axis : x y z
#
# Youngs Moduli (GPa) = 116.69155 107.22304 15.35991
#
# Poissons Ratio (x) = 0.33248 0.07441
# Poissons Ratio (y) = 0.36185 0.03761
# Poissons Ratio (z) = 0.56527 0.26256
#
# Static dielectric constant tensor:
#      x y z
#    x 3.919320 0.000000 0.000000 
#    y 0.000000 3.884050 0.000000 
#    z 0.000000 0.000000 2.736870 
# 
# 
# High freq. dielectric constant tensor:
#      x y z
#    x 1.762140 0.000000 0.000000 
#    y 0.000000 1.763030 0.000000 
#    z 0.000000 0.000000 1.652400 
# 
# From -- ./inp_files/15591.got.cif
#   From: 2010.03.12/outbox.cif.g09.slc.cpg/sg62_8_cif.got.tgz:15591.got - 2010.04.10 19:12:36.
