data_PCOD8254420
_publ_section_title
;
Structure prediction by ZEFSAII (Michael W. Deem and Ramdas Pophale) SiO2 
 PCOD8254420
Probable space group: P N M A
;
_chemical_formula_sum "Si O2"
_cell_formula_units_Z 48
_cell_length_a 17.474144
_cell_length_b 23.424371
_cell_length_c 5.386372
_cell_angle_alpha 90.000000
_cell_angle_beta 90.000000
_cell_angle_gamma 90.000000
_cell_volume 2204.754268
_symmetry_space_group_name_H-M "P N M A"
_symmetry_group_IT_number 62
_symmetry_cell_setting 'orthorhombic'
loop_
_space_group_symop_operation_xyz
x,y,z
1/2-x,-y,1/2+z
1/2+x,1/2-y,1/2-z
-x,1/2+y,-z
-x,-y,-z
1/2+x,y,1/2-z
1/2-x,1/2+y,1/2+z
x,1/2-y,z
loop_
_atom_site_type_symbol
_atom_site_label
_atom_site_fract_x
_atom_site_fract_y
_atom_site_fract_z
Si Si1 0.379085 0.891364 0.101276
Si Si2 0.343348 0.518358 0.476567
Si Si3 0.260080 0.092711 0.331557
Si Si4 0.982021 0.958381 0.719866
Si Si5 0.083769 0.860617 0.751120
Si Si6 0.009332 0.815920 0.243894
O O1 0.361225 0.954515 0.210401
O O2 0.426672 0.848459 0.278773
O O3 0.295994 0.869164 0.008830
O O4 0.432082 0.903438 0.864308
O O5 0.291605 0.565102 0.616990
O O6 0.299211 0.458829 0.484511
O O7 0.430820 0.508674 0.577215
O O8 0.323796 0.136768 0.232590
O O9 0.059519 0.926730 0.807038
O O10 0.000000 0.000000 0.500000
O O11 0.056478 0.836522 0.485372
O O12 0.056506 0.823747 0.988458
O O13 0.990000 0.750000 0.278471
#
# Coordination Sequence:
#
# PCOD8254420 Si02
#       6
#     8   8   8   8   8   8
#     4  10  22  40  60  92 128 175 220 264 327 397
#     4  11  21  37  57  94 138 182 213 250 328 409
#     4  11  24  35  61  95 141 177 209 258 331 411
#     4  10  22  35  59  95 134 177 219 258 319 403
#     4  11  25  42  69  98 130 171 220 281 330 389
#     4  11  25  49  72  92 121 170 234 294 339 379
#
# _framework density 21.771132999999999
#
# number of rings (size 3 to 8) (size 9 to 14) (size 15 to 20)
#    0.000    1.333    3.333    1.500    9.333    1.333 
#    0.000    1.667    0.000    0.000    0.000    0.000 
#    0.000    0.000    0.000    0.000    0.000    0.000 
#
# Total GULP energy -594718.853643 kJ/mol
# GULP energy per Si atom -12389.976118 kJ/mol
# Density = 2.172158 g / cm^3
# Si number density = 21.771133 Si / 1000 Ang^3
#
#
#
# Elastic Constant Matrix: (Units=GPa)
#
#
# Indices 1 2 3 4 5 6 
#
# 1 135.9644 16.8667 17.6877 0.0000 0.0000 0.0000
# 2 16.8667 62.3650 -0.6699 0.0000 0.0000 0.0000
# 3 17.6877 -0.6699 76.4165 0.0000 0.0000 0.0000
# 4 0.0000 0.0000 0.0000 28.0946 0.0000 0.0000
# 5 0.0000 0.0000 0.0000 0.0000 31.1348 0.0000
# 6 0.0000 0.0000 0.0000 0.0000 0.0000 20.8738
#
#
#
# Elastic Compliance Matrix: (Units=1/GPa)
#
#
# Indices 1 2 3 4 5 6 
#
# 1 0.007860 -0.002146 -0.001838 0.000000 0.000000 0.000000
# 2 -0.002146 0.016622 0.000642 0.000000 0.000000 0.000000
# 3 -0.001838 0.000642 0.013517 0.000000 0.000000 0.000000
# 4 0.000000 0.000000 0.000000 0.035594 0.000000 0.000000
# 5 0.000000 0.000000 0.000000 0.000000 0.032118 0.000000
# 6 0.000000 0.000000 0.000000 0.000000 0.000000 0.047907
#
#
# Mechanical properties :
#
#
# Convention : Reuss Voigt Hill
#
# Bulk Modulus (GPa) = 31.93205 38.05722 34.99464
# Shear Modulus (GPa) = 29.28428 32.07808 30.68118
#
# Velocity S-wave (km/s) = 3.67153 3.84268 3.75808
# Velocity P-wave (km/s) = 5.71599 6.09974 5.91098
#
# Compressibility (1/GPa) = 0.03131650
#
# Stress axis : x y z
#
# Youngs Moduli (GPa) = 127.22405 60.16197 73.97944
#
# Poissons Ratio (x) = 0.12908 0.13599
# Poissons Ratio (y) = 0.27296 -0.04752
# Poissons Ratio (z) = 0.23386 -0.03864
#
# Static dielectric constant tensor:
#      x y z
#    x 4.517760 0.000000 0.000000 
#    y 0.000000 3.686880 0.000000 
#    z 0.000000 0.000000 4.006570 
# 
# 
# High freq. dielectric constant tensor:
#      x y z
#    x 1.885150 0.000000 0.000000 
#    y 0.000000 1.809270 0.000000 
#    z 0.000000 0.000000 1.859150 
# 
# From -- ./inp_files/1130.got.cif
#   From: 2010.03.12/outbox.cif.g09.slc.cpg/sg62_1_cif.got.tgz:1130.got - 2010.04.10 19:12:36.
