data_PCOD8254108
_publ_section_title
;
Structure prediction by ZEFSAII (Michael W. Deem and Ramdas Pophale) SiO2 
 PCOD8254108
Probable space group: P N M A
;
_chemical_formula_sum "Si O2"
_cell_formula_units_Z 56
_cell_length_a 21.438693
_cell_length_b 8.738165
_cell_length_c 14.930458
_cell_angle_alpha 90.000000
_cell_angle_beta 90.000000
_cell_angle_gamma 90.000000
_cell_volume 2796.994913
_symmetry_space_group_name_H-M "P N M A"
_symmetry_group_IT_number 62
_symmetry_cell_setting 'orthorhombic'
loop_
_space_group_symop_operation_xyz
x,y,z
1/2-x,-y,1/2+z
1/2+x,1/2-y,1/2-z
-x,1/2+y,-z
-x,-y,-z
1/2+x,y,1/2-z
1/2-x,1/2+y,1/2+z
x,1/2-y,z
loop_
_atom_site_type_symbol
_atom_site_label
_atom_site_fract_x
_atom_site_fract_y
_atom_site_fract_z
Si Si1 0.983658 0.928199 0.134383
Si Si2 0.316777 0.431729 0.929160
Si Si3 0.763992 0.430410 0.229431
Si Si4 0.931747 0.568379 0.484259
Si Si5 0.108811 0.071014 0.713644
Si Si6 0.589266 0.430637 0.461740
Si Si7 0.776630 0.930663 0.923338
O O1 0.995743 0.750000 0.121718
O O2 0.953914 0.965162 0.230432
O O3 0.938890 0.989854 0.055129
O O4 0.049628 0.013169 0.124137
O O5 0.324902 0.250000 0.926155
O O6 0.277366 0.483883 0.843723
O O7 0.385405 0.507404 0.937633
O O8 0.279057 0.493490 0.015418
O O9 0.761492 0.250000 0.211734
O O10 0.835810 0.482696 0.235397
O O11 0.733225 0.481099 0.322181
O O12 0.936676 0.750000 0.488932
O O13 0.904569 0.514588 0.387471
O O14 0.000000 0.500000 0.500000
O O15 0.125130 0.250000 0.716728
O O16 0.592888 0.250000 0.457477
O O17 0.658183 0.502278 0.455961
O O18 0.777848 0.750000 0.933616
#
# Coordination Sequence:
#
# PCOD8254108 Si02
#       7
#     8   8   8   8   8   8   8
#     4   9  18  33  53  78 110 146 187 234 287 348
#     4  11  22  41  64  88 122 164 205 253 316 375
#     4  11  22  37  60  91 120 152 201 255 308 368
#     4  11  24  42  64  90 122 161 210 262 317 377
#     4  10  21  39  61  85 116 157 205 252 305 373
#     4   9  17  32  53  78 109 146 186 230 286 350
#     4   9  19  36  58  82 114 152 191 240 300 360
#
# _framework density 20.021488999999999
#
# number of rings (size 3 to 8) (size 9 to 14) (size 15 to 20)
#    0.000    2.000    1.429    2.143    0.000    4.571 
#    0.000    8.571    0.000    0.000    0.000    0.000 
#    0.000    0.000    0.000    0.000    0.000    0.000 
#
# Total GULP energy -694315.072955 kJ/mol
# GULP energy per Si atom -12398.483446 kJ/mol
# Density = 1.997592 g / cm^3
# Si number density = 20.021489 Si / 1000 Ang^3
#
#
#
# Elastic Constant Matrix: (Units=GPa)
#
#
# Indices 1 2 3 4 5 6 
#
# 1 139.7660 35.4627 46.2655 0.0000 0.0000 0.0000
# 2 35.4627 54.0353 32.4557 0.0000 0.0000 0.0000
# 3 46.2655 32.4557 97.6096 0.0000 0.0000 0.0000
# 4 0.0000 0.0000 0.0000 28.0834 0.0000 0.0000
# 5 0.0000 0.0000 0.0000 0.0000 34.3451 0.0000
# 6 0.0000 0.0000 0.0000 0.0000 0.0000 34.5553
#
#
#
# Elastic Compliance Matrix: (Units=1/GPa)
#
#
# Indices 1 2 3 4 5 6 
#
# 1 0.009215 -0.004279 -0.002945 0.000000 0.000000 0.000000
# 2 -0.004279 0.025112 -0.006322 0.000000 0.000000 0.000000
# 3 -0.002945 -0.006322 0.013743 0.000000 0.000000 0.000000
# 4 0.000000 0.000000 0.000000 0.035608 0.000000 0.000000
# 5 0.000000 0.000000 0.000000 0.000000 0.029116 0.000000
# 6 0.000000 0.000000 0.000000 0.000000 0.000000 0.028939
#
#
# Mechanical properties :
#
#
# Convention : Reuss Voigt Hill
#
# Bulk Modulus (GPa) = 47.66808 57.75319 52.71064
# Shear Modulus (GPa) = 28.43854 31.21190 29.82522
#
# Velocity S-wave (km/s) = 3.77291 3.95260 3.86380
# Velocity P-wave (km/s) = 6.54522 7.05258 6.80363
#
# Compressibility (1/GPa) = 0.02097840
#
# Stress axis : x y z
#
# Youngs Moduli (GPa) = 108.51353 39.82217 72.76522
#
# Poissons Ratio (x) = 0.17040 0.21431
# Poissons Ratio (y) = 0.46433 0.45999
# Poissons Ratio (z) = 0.31959 0.25174
#
# Static dielectric constant tensor:
#      x y z
#    x 3.869300 0.000000 0.000000 
#    y 0.000000 3.432560 0.000000 
#    z 0.000000 0.000000 3.735860 
# 
# 
# High freq. dielectric constant tensor:
#      x y z
#    x 1.793400 0.000000 0.000000 
#    y 0.000000 1.765280 0.000000 
#    z 0.000000 0.000000 1.781090 
# 
# From -- ./inp_files/20244.got.cif
#   From: 2010.03.12/outbox.cif.g09.slc.cpg/sg62_11_cif.got.tgz:20244.got - 2010.04.10 19:12:36.
