data_PCOD8254052
_publ_section_title
;
Structure prediction by ZEFSAII (Michael W. Deem and Ramdas Pophale) SiO2 
 PCOD8254052
Probable space group: P N M A
;
_chemical_formula_sum "Si O2"
_cell_formula_units_Z 64
_cell_length_a 9.958978
_cell_length_b 31.147948
_cell_length_c 10.863630
_cell_angle_alpha 90.000000
_cell_angle_beta 90.000000
_cell_angle_gamma 90.000000
_cell_volume 3369.916808
_symmetry_space_group_name_H-M "P N M A"
_symmetry_group_IT_number 62
_symmetry_cell_setting 'orthorhombic'
loop_
_space_group_symop_operation_xyz
x,y,z
1/2-x,-y,1/2+z
1/2+x,1/2-y,1/2-z
-x,1/2+y,-z
-x,-y,-z
1/2+x,y,1/2-z
1/2-x,1/2+y,1/2+z
x,1/2-y,z
loop_
_atom_site_type_symbol
_atom_site_label
_atom_site_fract_x
_atom_site_fract_y
_atom_site_fract_z
Si Si1 0.902534 0.798539 0.361568
Si Si2 0.751037 0.591589 0.079672
Si Si3 0.254286 0.531694 0.639257
Si Si4 0.746340 0.930767 0.359540
Si Si5 0.530064 0.878194 0.495884
Si Si6 0.530827 0.120473 0.999358
Si Si7 0.401755 0.201650 0.642259
Si Si8 0.509241 0.921068 0.746743
O O1 0.934968 0.750000 0.406192
O O2 0.751106 0.801793 0.309911
O O3 0.917780 0.831057 0.476032
O O4 0.001305 0.812983 0.252541
O O5 0.777270 0.581248 0.220318
O O6 0.871633 0.620556 0.028673
O O7 0.744967 0.547799 0.001118
O O8 0.614413 0.617599 0.062782
O O9 0.268376 0.481263 0.628609
O O10 0.121817 0.544955 0.713615
O O11 0.381215 0.551296 0.708996
O O12 0.606921 0.909798 0.402318
O O13 0.870159 0.914554 0.440790
O O14 0.577930 0.829368 0.474674
O O15 0.563870 0.892006 0.634916
O O16 0.525655 0.112116 0.144732
O O17 0.435817 0.250000 0.599470
#
# Coordination Sequence:
#
# PCOD8254052 Si02
#       8
#     8   8   8   8   8   8   8   8
#     4  10  21  38  63  95 126 153 194 245 297 354
#     4  10  24  38  55  88 119 150 200 248 290 353
#     4  10  25  38  59  85 117 160 202 246 295 347
#     4  12  23  36  64  85 116 154 202 248 301 350
#     4  11  23  40  61  88 118 163 195 245 300 355
#     4  11  23  40  61  88 118 163 195 245 300 355
#     4  10  21  38  63  95 126 153 194 245 297 354
#     4  10  24  44  59  82 126 160 201 244 296 356
#
# _framework density 18.991565999999999
#
# number of rings (size 3 to 8) (size 9 to 14) (size 15 to 20)
#    0.000    1.500    1.250    3.000    8.750    2.000 
#    0.000    0.625    0.000    0.000    0.000    0.000 
#    0.000    0.000    0.000    0.000    0.000    0.000 
#
# Total GULP energy -793827.653337 kJ/mol
# GULP energy per Si atom -12403.557083 kJ/mol
# Density = 1.894834 g / cm^3
# Si number density = 18.991566 Si / 1000 Ang^3
#
#
#
# Elastic Constant Matrix: (Units=GPa)
#
#
# Indices 1 2 3 4 5 6 
#
# 1 103.1150 30.5318 14.0445 0.0000 0.0000 0.0000
# 2 30.5318 129.2676 44.3391 0.0000 0.0000 0.0000
# 3 14.0445 44.3391 91.4053 0.0000 0.0000 0.0000
# 4 0.0000 0.0000 0.0000 -4.5114 0.0000 0.0000
# 5 0.0000 0.0000 0.0000 0.0000 29.4052 0.0000
# 6 0.0000 0.0000 0.0000 0.0000 0.0000 21.4867
#
#
#
# Elastic Compliance Matrix: (Units=1/GPa)
#
#
# Indices 1 2 3 4 5 6 
#
# 1 0.010445 -0.002299 -0.000490 0.000000 0.000000 0.000000
# 2 -0.002299 0.009786 -0.004394 0.000000 0.000000 0.000000
# 3 -0.000490 -0.004394 0.013147 0.000000 0.000000 0.000000
# 4 0.000000 0.000000 0.000000 -0.221661 0.000000 0.000000
# 5 0.000000 0.000000 0.000000 0.000000 0.034008 0.000000
# 6 0.000000 0.000000 0.000000 0.000000 0.000000 0.046540
#
#
# Mechanical properties :
#
#
# Convention : Reuss Voigt Hill
#
# Bulk Modulus (GPa) = 52.59532 55.73543 54.16537
# Shear Modulus (GPa) = -57.45009 24.93428 -16.25790
#
# Velocity S-wave (km/s) = -5.50600 3.62735 -2.92902
# Velocity P-wave (km/s) = 3.55909 6.85235 4.14050
#
# Compressibility (1/GPa) = 0.01901310
#
# Stress axis : x y z
#
# Youngs Moduli (GPa) = 95.73628 102.18688 76.06384
#
# Poissons Ratio (x) = 0.23494 0.03725
# Poissons Ratio (y) = 0.22011 0.33421
# Poissons Ratio (z) = 0.04688 0.44898
#
# Static dielectric constant tensor:
#      x y z
#    x 3.716000 0.000000 0.000000 
#    y 0.000000 3.511340 0.000000 
#    z 0.000000 0.000000 3.492580 
# 
# 
# High freq. dielectric constant tensor:
#      x y z
#    x 1.761650 0.000000 0.000000 
#    y 0.000000 1.736040 0.000000 
#    z 0.000000 0.000000 1.728610 
# 
# From -- ./inp_files/11570.got.cif
#   From: 2010.03.12/outbox.cif.g09.slc.cpg/sg62_6_cif.got.tgz:11570.got - 2010.04.10 19:12:36.
