data_PCOD8254717
_publ_section_title
;
Structure prediction by ZEFSAII (Michael W. Deem and Ramdas Pophale) SiO2 
 PCOD8254717
Probable space group: P N M A
;
_chemical_formula_sum "Si O2"
_cell_formula_units_Z 48
_cell_length_a 23.295158
_cell_length_b 8.575384
_cell_length_c 11.853512
_cell_angle_alpha 90.000000
_cell_angle_beta 90.000000
_cell_angle_gamma 90.000000
_cell_volume 2367.915938
_symmetry_space_group_name_H-M "P N M A"
_symmetry_group_IT_number 62
_symmetry_cell_setting 'orthorhombic'
loop_
_space_group_symop_operation_xyz
x,y,z
1/2-x,-y,1/2+z
1/2+x,1/2-y,1/2-z
-x,1/2+y,-z
-x,-y,-z
1/2+x,y,1/2-z
1/2-x,1/2+y,1/2+z
x,1/2-y,z
loop_
_atom_site_type_symbol
_atom_site_label
_atom_site_fract_x
_atom_site_fract_y
_atom_site_fract_z
Si Si1 0.418431 0.430901 0.230279
Si Si2 0.146708 0.928405 0.135522
Si Si3 0.376362 0.432712 0.985027
Si Si4 0.666797 0.429386 0.600963
Si Si5 0.039721 0.571479 0.288295
Si Si6 0.715460 0.430391 0.165322
O O1 0.406810 0.250000 0.253441
O O2 0.390099 0.532296 0.328384
O O3 0.486241 0.459241 0.230727
O O4 0.391555 0.483379 0.111200
O O5 0.156119 0.750000 0.098286
O O6 0.083208 0.953412 0.184889
O O7 0.193785 0.968745 0.229549
O O8 0.154019 0.040025 0.029529
O O9 0.363141 0.250000 0.973834
O O10 0.429503 0.478237 0.904638
O O11 0.319376 0.524765 0.947804
O O12 0.683837 0.250000 0.616089
O O13 0.717857 0.537036 0.646046
O O14 0.018759 0.750000 0.294853
O O15 0.706484 0.250000 0.193495
#
# Coordination Sequence:
#
# PCOD8254717 Si02
#       6
#     8   8   8   8   8   8
#     4  11  23  38  60  91 126 161 205 254 301 360
#     4  10  22  43  66  89 120 158 203 251 304 366
#     4   9  20  39  62  90 124 162 204 252 301 356
#     4  12  26  42  61  87 122 163 206 254 305 362
#     4   9  19  38  63  90 122 159 199 250 308 363
#     4  11  23  40  64  91 121 158 201 250 306 367
#
# _framework density 20.270990999999999
#
# number of rings (size 3 to 8) (size 9 to 14) (size 15 to 20)
#    0.000    1.667    0.000    5.500    2.333    5.333 
#    0.000    0.000    0.000    0.000    0.000    0.000 
#    0.000    0.000    0.000    0.000    0.000    0.000 
#
# Total GULP energy -595545.602476 kJ/mol
# GULP energy per Si atom -12407.200052 kJ/mol
# Density = 2.022485 g / cm^3
# Si number density = 20.270991 Si / 1000 Ang^3
#
#
#
# Elastic Constant Matrix: (Units=GPa)
#
#
# Indices 1 2 3 4 5 6 
#
# 1 67.6343 29.6300 26.6274 0.0000 0.0000 0.0000
# 2 29.6300 70.9861 20.8885 0.0000 0.0000 0.0000
# 3 26.6274 20.8885 97.1162 0.0000 0.0000 0.0000
# 4 0.0000 0.0000 0.0000 28.3970 0.0000 0.0000
# 5 0.0000 0.0000 0.0000 0.0000 19.9804 0.0000
# 6 0.0000 0.0000 0.0000 0.0000 0.0000 35.3992
#
#
#
# Elastic Compliance Matrix: (Units=1/GPa)
#
#
# Indices 1 2 3 4 5 6 
#
# 1 0.019327 -0.006948 -0.003805 0.000000 0.000000 0.000000
# 2 -0.006948 0.017537 -0.001867 0.000000 0.000000 0.000000
# 3 -0.003805 -0.001867 0.011742 0.000000 0.000000 0.000000
# 4 0.000000 0.000000 0.000000 0.035215 0.000000 0.000000
# 5 0.000000 0.000000 0.000000 0.000000 0.050049 0.000000
# 6 0.000000 0.000000 0.000000 0.000000 0.000000 0.028249
#
#
# Mechanical properties :
#
#
# Convention : Reuss Voigt Hill
#
# Bulk Modulus (GPa) = 42.79612 43.33647 43.06630
# Shear Modulus (GPa) = 25.62183 27.32805 26.47494
#
# Velocity S-wave (km/s) = 3.55909 3.67568 3.61785
# Velocity P-wave (km/s) = 6.16825 6.28006 6.22440
#
# Compressibility (1/GPa) = 0.02336660
#
# Stress axis : x y z
#
# Youngs Moduli (GPa) = 51.74102 57.02348 85.16650
#
# Poissons Ratio (x) = 0.39618 0.32404
# Poissons Ratio (y) = 0.35948 0.15901
# Poissons Ratio (z) = 0.19686 0.10646
#
# Static dielectric constant tensor:
#      x y z
#    x 3.564770 0.000000 0.000000 
#    y 0.000000 3.582810 0.000000 
#    z 0.000000 0.000000 3.722140 
# 
# 
# High freq. dielectric constant tensor:
#      x y z
#    x 1.793810 0.000000 0.000000 
#    y 0.000000 1.794220 0.000000 
#    z 0.000000 0.000000 1.794630 
# 
# From -- ./inp_files/15108.got.cif
#   From: 2010.03.12/outbox.cif.g09.slc.cpg/sg62_8_cif.got.tgz:15108.got - 2010.04.10 19:12:36.
