data_PCOD8254606
_publ_section_title
;
Structure prediction by ZEFSAII (Michael W. Deem and Ramdas Pophale) SiO2 
 PCOD8254606
Probable space group: P N M A
;
_chemical_formula_sum "Si O2"
_cell_formula_units_Z 48
_cell_length_a 16.564962
_cell_length_b 8.731811
_cell_length_c 17.934802
_cell_angle_alpha 90.000000
_cell_angle_beta 90.000000
_cell_angle_gamma 90.000000
_cell_volume 2594.127737
_symmetry_space_group_name_H-M "P N M A"
_symmetry_group_IT_number 62
_symmetry_cell_setting 'orthorhombic'
loop_
_space_group_symop_operation_xyz
x,y,z
1/2-x,-y,1/2+z
1/2+x,1/2-y,1/2-z
-x,1/2+y,-z
-x,-y,-z
1/2+x,y,1/2-z
1/2-x,1/2+y,1/2+z
x,1/2-y,z
loop_
_atom_site_type_symbol
_atom_site_label
_atom_site_fract_x
_atom_site_fract_y
_atom_site_fract_z
Si Si1 0.250940 0.927147 0.455303
Si Si2 0.673988 0.068850 0.330524
Si Si3 0.825298 0.569412 0.404148
Si Si4 0.364939 0.071612 0.825966
Si Si5 0.508487 0.568639 0.918562
Si Si6 0.084220 0.427727 0.021184
O O1 0.241419 0.750000 0.480536
O O2 0.219074 0.952434 0.371376
O O3 0.345143 0.975697 0.462394
O O4 0.196971 0.027555 0.510913
O O5 0.685009 0.250000 0.325695
O O6 0.611754 0.022238 0.396048
O O7 0.759872 0.992299 0.346092
O O8 0.640312 0.003124 0.254377
O O9 0.833457 0.750000 0.396354
O O10 0.909202 0.490980 0.381436
O O11 0.385669 0.250000 0.818673
O O12 0.435660 0.986001 0.868000
O O13 0.508914 0.750000 0.924232
O O14 0.500000 0.500000 0.000000
O O15 0.068981 0.250000 0.017777
O O16 0.000000 0.500000 0.000000
#
# Coordination Sequence:
#
# PCOD8254606 Si02
#       6
#     8   8   8   8   8   8
#     4   9  19  36  58  82 114 150 188 238 292 343
#     4  10  22  41  60  82 119 158 192 242 301 350
#     4  11  21  36  60  87 113 151 198 237 286 351
#     4  11  22  38  60  87 119 155 196 244 295 351
#     4  12  23  37  59  89 122 156 195 241 294 353
#     4   9  19  37  60  84 110 149 194 240 288 341
#
# _framework density 18.503328
#
# number of rings (size 3 to 8) (size 9 to 14) (size 15 to 20)
#    0.000    1.667    1.667    5.000    0.000    4.000 
#    3.000    0.000    0.000    0.000    0.000    0.000 
#    0.000    0.000    0.000    0.000    0.000    0.000 
#
# Total GULP energy -595260.429558 kJ/mol
# GULP energy per Si atom -12401.258949 kJ/mol
# Density = 1.846121 g / cm^3
# Si number density = 18.503328 Si / 1000 Ang^3
#
#
#
# Elastic Constant Matrix: (Units=GPa)
#
#
# Indices 1 2 3 4 5 6 
#
# 1 163.2977 69.0733 73.5080 0.0000 0.0000 0.0000
# 2 69.0733 133.3715 57.9342 0.0000 0.0000 0.0000
# 3 73.5080 57.9342 116.4589 0.0000 0.0000 0.0000
# 4 0.0000 0.0000 0.0000 32.8241 0.0000 0.0000
# 5 0.0000 0.0000 0.0000 0.0000 33.6002 0.0000
# 6 0.0000 0.0000 0.0000 0.0000 0.0000 36.1655
#
#
#
# Elastic Compliance Matrix: (Units=1/GPa)
#
#
# Indices 1 2 3 4 5 6 
#
# 1 0.009364 -0.002911 -0.004462 0.000000 0.000000 0.000000
# 2 -0.002911 0.010470 -0.003371 0.000000 0.000000 0.000000
# 3 -0.004462 -0.003371 0.013080 0.000000 0.000000 0.000000
# 4 0.000000 0.000000 0.000000 0.030465 0.000000 0.000000
# 5 0.000000 0.000000 0.000000 0.000000 0.029762 0.000000
# 6 0.000000 0.000000 0.000000 0.000000 0.000000 0.027651
#
#
# Mechanical properties :
#
#
# Convention : Reuss Voigt Hill
#
# Bulk Modulus (GPa) = 87.52505 90.46213 88.99359
# Shear Modulus (GPa) = 34.22588 34.69215 34.45902
#
# Velocity S-wave (km/s) = 4.30550 4.33473 4.32014
# Velocity P-wave (km/s) = 8.49243 8.60517 8.54899
#
# Compressibility (1/GPa) = 0.01142530
#
# Stress axis : x y z
#
# Youngs Moduli (GPa) = 106.79379 95.51270 76.45242
#
# Poissons Ratio (x) = 0.27806 0.34114
# Poissons Ratio (y) = 0.31091 0.25770
# Poissons Ratio (z) = 0.47653 0.32195
#
# Static dielectric constant tensor:
#      x y z
#    x 3.763880 0.000000 0.000000 
#    y 0.000000 3.460080 0.000000 
#    z 0.000000 0.000000 3.544340 
# 
# 
# High freq. dielectric constant tensor:
#      x y z
#    x 1.727370 0.000000 0.000000 
#    y 0.000000 1.729680 0.000000 
#    z 0.000000 0.000000 1.704600 
# 
# From -- ./inp_files/23687.got.cif
#   From: 2010.03.12/outbox.cif.g09.slc.cpg/sg62_12_cif.got.tgz:23687.got - 2010.04.10 19:12:36.
