data_PCOD8254354
_publ_section_title
;
Structure prediction by ZEFSAII (Michael W. Deem and Ramdas Pophale) SiO2 
 PCOD8254354
Probable space group: P N M A
;
_chemical_formula_sum "Si O2"
_cell_formula_units_Z 48
_cell_length_a 18.381935
_cell_length_b 16.757961
_cell_length_c 7.480130
_cell_angle_alpha 90.000000
_cell_angle_beta 90.000000
_cell_angle_gamma 90.000000
_cell_volume 2304.207294
_symmetry_space_group_name_H-M "P N M A"
_symmetry_group_IT_number 62
_symmetry_cell_setting 'orthorhombic'
loop_
_space_group_symop_operation_xyz
x,y,z
1/2-x,-y,1/2+z
1/2+x,1/2-y,1/2-z
-x,1/2+y,-z
-x,-y,-z
1/2+x,y,1/2-z
1/2-x,1/2+y,1/2+z
x,1/2-y,z
loop_
_atom_site_type_symbol
_atom_site_label
_atom_site_fract_x
_atom_site_fract_y
_atom_site_fract_z
Si Si1 0.544820 0.841041 0.958475
Si Si2 0.216391 0.342582 0.806050
Si Si3 0.866924 0.576876 0.890456
Si Si4 0.015954 0.659029 0.933980
Si Si5 0.376346 0.659054 0.975905
Si Si6 0.125596 0.602505 0.219078
O O1 0.571733 0.750000 0.989378
O O2 0.555080 0.866729 0.751524
O O3 0.461282 0.850201 0.012873
O O4 0.590759 0.901359 0.082271
O O5 0.202267 0.250000 0.851051
O O6 0.164093 0.374131 0.649513
O O7 0.297802 0.354287 0.737540
O O8 0.198250 0.395077 0.980414
O O9 0.850225 0.610250 0.695062
O O10 0.866533 0.482042 0.875991
O O11 0.944715 0.605413 0.968477
O O12 0.988047 0.750000 0.912535
O O13 0.072426 0.654865 0.095411
O O14 0.354086 0.750000 0.940051
#
# Coordination Sequence:
#
# PCOD8254354 Si02
#       6
#     8   8   8   8   8   8
#     4   9  19  38  63  90 119 157 206 257 308 368
#     4  11  24  41  62  88 125 174 217 251 307 382
#     4  11  24  40  64  91 128 165 207 259 318 374
#     4  10  21  41  66  92 122 163 215 260 308 379
#     4   9  20  40  66  89 117 166 218 254 298 373
#     4  12  25  37  62  95 132 160 203 269 327 363
#
# _framework density 20.83146
#
# number of rings (size 3 to 8) (size 9 to 14) (size 15 to 20)
#    0.000    1.667    0.000    5.500    2.333    6.667 
#    0.000    1.667    0.000    0.000    0.000    0.000 
#    0.000    0.000    0.000    0.000    0.000    0.000 
#
# Total GULP energy -595385.904346 kJ/mol
# GULP energy per Si atom -12403.873007 kJ/mol
# Density = 2.078405 g / cm^3
# Si number density = 20.831460 Si / 1000 Ang^3
#
#
#
# Elastic Constant Matrix: (Units=GPa)
#
#
# Indices 1 2 3 4 5 6 
#
# 1 67.1063 21.4153 35.4787 0.0000 0.0000 0.0000
# 2 21.4153 58.5239 30.6319 0.0000 0.0000 0.0000
# 3 35.4787 30.6319 82.6747 0.0000 0.0000 0.0000
# 4 0.0000 0.0000 0.0000 29.2267 0.0000 0.0000
# 5 0.0000 0.0000 0.0000 0.0000 26.7653 0.0000
# 6 0.0000 0.0000 0.0000 0.0000 0.0000 27.4359
#
#
#
# Elastic Compliance Matrix: (Units=1/GPa)
#
#
# Indices 1 2 3 4 5 6 
#
# 1 0.019829 -0.003476 -0.007221 0.000000 0.000000 0.000000
# 2 -0.003476 0.021807 -0.006588 0.000000 0.000000 0.000000
# 3 -0.007221 -0.006588 0.017636 0.000000 0.000000 0.000000
# 4 0.000000 0.000000 0.000000 0.034215 0.000000 0.000000
# 5 0.000000 0.000000 0.000000 0.000000 0.037362 0.000000
# 6 0.000000 0.000000 0.000000 0.000000 0.000000 0.036449
#
#
# Mechanical properties :
#
#
# Convention : Reuss Voigt Hill
#
# Bulk Modulus (GPa) = 40.48499 42.59519 41.54009
# Shear Modulus (GPa) = 23.79794 24.73751 24.26772
#
# Velocity S-wave (km/s) = 3.38361 3.44976 3.41685
# Velocity P-wave (km/s) = 5.89422 6.02990 5.96245
#
# Compressibility (1/GPa) = 0.02470052
#
# Stress axis : x y z
#
# Youngs Moduli (GPa) = 50.43136 45.85615 56.70379
#
# Poissons Ratio (x) = 0.15940 0.40948
# Poissons Ratio (y) = 0.17531 0.37357
# Poissons Ratio (z) = 0.36418 0.30211
#
# Static dielectric constant tensor:
#      x y z
#    x 3.626330 0.000000 0.000000 
#    y 0.000000 3.606410 0.000000 
#    z 0.000000 0.000000 3.920780 
# 
# 
# High freq. dielectric constant tensor:
#      x y z
#    x 1.805230 0.000000 0.000000 
#    y 0.000000 1.806290 0.000000 
#    z 0.000000 0.000000 1.829540 
# 
# From -- ./inp_files/7642.got.cif
#   From: 2010.03.12/outbox.cif.g09.slc.cpg/sg62_4_cif.got.tgz:7642.got - 2010.04.10 19:12:36.
