data_PCOD8254323
_publ_section_title
;
Structure prediction by ZEFSAII (Michael W. Deem and Ramdas Pophale) SiO2 
 PCOD8254323
Probable space group: P N M A
;
_chemical_formula_sum "Si O2"
_cell_formula_units_Z 40
_cell_length_a 23.096688
_cell_length_b 9.695069
_cell_length_c 9.012006
_cell_angle_alpha 90.000000
_cell_angle_beta 90.000000
_cell_angle_gamma 90.000000
_cell_volume 2018.004286
_symmetry_space_group_name_H-M "P N M A"
_symmetry_group_IT_number 62
_symmetry_cell_setting 'orthorhombic'
loop_
_space_group_symop_operation_xyz
x,y,z
1/2-x,-y,1/2+z
1/2+x,1/2-y,1/2-z
-x,1/2+y,-z
-x,-y,-z
1/2+x,y,1/2-z
1/2-x,1/2+y,1/2+z
x,1/2-y,z
loop_
_atom_site_type_symbol
_atom_site_label
_atom_site_fract_x
_atom_site_fract_y
_atom_site_fract_z
Si Si1 0.906128 0.250000 0.885629
Si Si2 0.604571 0.042008 0.518282
Si Si3 0.122244 0.250000 0.556585
Si Si4 0.211018 0.750000 0.293090
Si Si5 0.967039 0.750000 0.197376
Si Si6 0.193932 0.456325 0.733590
Si Si7 0.861973 0.750000 0.785367
Si Si8 0.727757 0.750000 0.858314
O O1 0.853701 0.250000 0.768957
O O2 0.963980 0.250000 0.786603
O O3 0.905805 0.380414 0.995775
O O4 0.552019 0.111882 0.608778
O O5 0.663648 0.072481 0.608620
O O6 0.611489 0.113222 0.358974
O O7 0.059741 0.250000 0.637113
O O8 0.157071 0.387270 0.602282
O O9 0.115242 0.250000 0.381514
O O10 0.242540 0.612119 0.233687
O O11 0.215113 0.750000 0.468702
O O12 0.196580 0.618205 0.710472
O O13 0.793364 0.750000 0.803934
#
# Coordination Sequence:
#
# PCOD8254323 Si02
#       8
#     4   8   4   4   4   8   4   4
#     4  12  23  36  68  95 121 158 210 260 306 361
#     4  10  21  41  64  89 119 161 213 250 302 371
#     4   9  22  40  64  82 122 167 204 246 324 357
#     4  11  24  38  56  95 128 157 199 249 309 374
#     4   9  21  45  64  87 123 158 208 264 310 364
#     4  10  22  40  58  89 125 161 197 255 302 369
#     4  11  21  37  62  87 118 168 201 239 307 384
#     4  12  23  34  62  88 132 152 204 250 312 370
#
# _framework density 19.821563000000001
#
# number of rings (size 3 to 8) (size 9 to 14) (size 15 to 20)
#    0.000    1.600    2.000    3.600    5.600    1.600 
#    0.000    1.000    8.800    0.000    0.000    0.000 
#    0.000    0.000    0.000    0.000    0.000    0.000 
#
# Total GULP energy -496087.614386 kJ/mol
# GULP energy per Si atom -12402.190360 kJ/mol
# Density = 1.977645 g / cm^3
# Si number density = 19.821563 Si / 1000 Ang^3
#
#
#
# Elastic Constant Matrix: (Units=GPa)
#
#
# Indices 1 2 3 4 5 6 
#
# 1 129.9209 37.3200 38.5751 0.0000 0.0000 0.0000
# 2 37.3200 163.6715 43.5604 0.0000 0.0000 0.0000
# 3 38.5751 43.5604 135.2952 0.0000 0.0000 0.0000
# 4 0.0000 0.0000 0.0000 7.9444 0.0000 0.0000
# 5 0.0000 0.0000 0.0000 0.0000 19.6578 0.0000
# 6 0.0000 0.0000 0.0000 0.0000 0.0000 -111.9715
#
#
#
# Elastic Compliance Matrix: (Units=1/GPa)
#
#
# Indices 1 2 3 4 5 6 
#
# 1 0.008712 -0.001450 -0.002017 0.000000 0.000000 0.000000
# 2 -0.001450 0.006924 -0.001816 0.000000 0.000000 0.000000
# 3 -0.002017 -0.001816 0.008551 0.000000 0.000000 0.000000
# 4 0.000000 0.000000 0.000000 0.125875 0.000000 0.000000
# 5 0.000000 0.000000 0.000000 0.000000 0.050871 0.000000
# 6 0.000000 0.000000 0.000000 0.000000 0.000000 -0.008931
#
#
# Mechanical properties :
#
#
# Convention : Reuss Voigt Hill
#
# Bulk Modulus (GPa) = 73.41388 74.19985 73.80686
# Shear Modulus (GPa) = 24.14201 3.75494 13.94847
#
# Velocity S-wave (km/s) = 3.49372 1.37786 2.65562
# Velocity P-wave (km/s) = 7.30702 6.32823 6.83517
#
# Compressibility (1/GPa) = 0.01362140
#
# Stress axis : x y z
#
# Youngs Moduli (GPa) = 114.77922 144.43295 116.94465
#
# Poissons Ratio (x) = 0.20938 0.23591
# Poissons Ratio (y) = 0.16639 0.21235
# Poissons Ratio (z) = 0.23155 0.26227
#
# Static dielectric constant tensor:
#      x y z
#    x 3.464100 0.000000 0.000000 
#    y 0.000000 4.057490 0.000000 
#    z 0.000000 0.000000 3.421140 
# 
# 
# High freq. dielectric constant tensor:
#      x y z
#    x 1.759970 0.000000 0.000000 
#    y 0.000000 1.787790 0.000000 
#    z 0.000000 0.000000 1.766140 
# 
# From -- ./inp_files/9172.got.cif
#   From: 2010.03.12/outbox.cif.g09.slc.cpg/sg62_5_cif.got.tgz:9172.got - 2010.04.10 19:12:36.
