data_PCOD8254267
_publ_section_title
;
Structure prediction by ZEFSAII (Michael W. Deem and Ramdas Pophale) SiO2 
 PCOD8254267
Probable space group: P N M A
;
_chemical_formula_sum "Si O2"
_cell_formula_units_Z 64
_cell_length_a 29.213226
_cell_length_b 9.056960
_cell_length_c 11.922779
_cell_angle_alpha 90.000000
_cell_angle_beta 90.000000
_cell_angle_gamma 90.000000
_cell_volume 3154.564867
_symmetry_space_group_name_H-M "P N M A"
_symmetry_group_IT_number 62
_symmetry_cell_setting 'orthorhombic'
loop_
_space_group_symop_operation_xyz
x,y,z
1/2-x,-y,1/2+z
1/2+x,1/2-y,1/2-z
-x,1/2+y,-z
-x,-y,-z
1/2+x,y,1/2-z
1/2-x,1/2+y,1/2+z
x,1/2-y,z
loop_
_atom_site_type_symbol
_atom_site_label
_atom_site_fract_x
_atom_site_fract_y
_atom_site_fract_z
Si Si1 0.434773 0.914726 0.015748
Si Si2 0.317192 0.921773 0.497195
Si Si3 0.660582 0.420622 0.252305
Si Si4 0.725652 0.423962 0.054018
Si Si5 0.116341 0.924707 0.840313
Si Si6 0.157915 0.084835 0.633862
Si Si7 0.931897 0.420412 0.706694
Si Si8 0.469145 0.579004 0.255178
O O1 0.450154 0.750000 0.979917
O O2 0.380644 0.916868 0.038339
O O3 0.461434 0.968070 0.126146
O O4 0.445427 0.028364 0.917635
O O5 0.320600 0.750000 0.467428
O O6 0.314165 0.948617 0.630148
O O7 0.272908 0.988907 0.436563
O O8 0.362046 0.004655 0.451362
O O9 0.650791 0.250000 0.229798
O O10 0.692981 0.483596 0.153922
O O11 0.611008 0.495276 0.257348
O O12 0.734930 0.250000 0.068561
O O13 0.704003 0.459749 0.931998
O O14 0.116402 0.750000 0.850530
O O15 0.146882 0.971546 0.733086
O O16 0.063876 0.980849 0.832736
O O17 0.161786 0.250000 0.685500
O O18 0.919035 0.250000 0.701613
O O19 0.977260 0.446519 0.784177
O O20 0.454688 0.750000 0.269901
#
# Coordination Sequence:
#
# PCOD8254267 Si02
#       8
#     8   8   8   8   8   8   8   8
#     4   9  16  31  53  79 120 163 194 234 295 355
#     4  11  25  43  64  88 118 158 202 248 303 361
#     4  10  23  44  64  86 121 161 200 244 300 362
#     4  10  21  40  64  90 120 154 194 245 300 355
#     4  11  23  39  61  88 120 157 204 252 296 356
#     4   9  18  35  59  86 120 158 192 238 299 351
#     4  11  21  33  56  89 122 157 201 252 302 356
#     4   9  20  37  56  83 121 162 203 249 302 356
#
# _framework density 20.288057999999999
#
# number of rings (size 3 to 8) (size 9 to 14) (size 15 to 20)
#    0.000    2.000    1.250    3.000    1.750    5.000 
#    0.000    0.625    0.000    0.000    0.000    0.000 
#    0.000    0.000    0.000    0.000    0.000    0.000 
#
# Total GULP energy -793636.619481 kJ/mol
# GULP energy per Si atom -12400.572179 kJ/mol
# Density = 2.024188 g / cm^3
# Si number density = 20.288058 Si / 1000 Ang^3
#
#
#
# Elastic Constant Matrix: (Units=GPa)
#
#
# Indices 1 2 3 4 5 6 
#
# 1 118.5468 50.5111 30.1043 0.0000 0.0000 0.0000
# 2 50.5111 96.6452 33.8619 0.0000 0.0000 0.0000
# 3 30.1043 33.8619 54.0362 0.0000 0.0000 0.0000
# 4 0.0000 0.0000 0.0000 25.5595 0.0000 0.0000
# 5 0.0000 0.0000 0.0000 0.0000 18.9536 0.0000
# 6 0.0000 0.0000 0.0000 0.0000 0.0000 35.4275
#
#
#
# Elastic Compliance Matrix: (Units=1/GPa)
#
#
# Indices 1 2 3 4 5 6 
#
# 1 0.011300 -0.004741 -0.003324 0.000000 0.000000 0.000000
# 2 -0.004741 0.015247 -0.006913 0.000000 0.000000 0.000000
# 3 -0.003324 -0.006913 0.024690 0.000000 0.000000 0.000000
# 4 0.000000 0.000000 0.000000 0.039124 0.000000 0.000000
# 5 0.000000 0.000000 0.000000 0.000000 0.052760 0.000000
# 6 0.000000 0.000000 0.000000 0.000000 0.000000 0.028227
#
#
# Mechanical properties :
#
#
# Convention : Reuss Voigt Hill
#
# Bulk Modulus (GPa) = 46.99256 55.35366 51.17311
# Shear Modulus (GPa) = 23.99234 26.30484 25.14859
#
# Velocity S-wave (km/s) = 3.44260 3.60469 3.52458
# Velocity P-wave (km/s) = 6.24620 6.68343 6.46851
#
# Compressibility (1/GPa) = 0.02127996
#
# Stress axis : x y z
#
# Youngs Moduli (GPa) = 88.49754 65.58546 40.50149
#
# Poissons Ratio (x) = 0.31094 0.13464
# Poissons Ratio (y) = 0.41957 0.28001
# Poissons Ratio (z) = 0.29419 0.45342
#
# Static dielectric constant tensor:
#      x y z
#    x 3.749480 0.000000 0.000000 
#    y 0.000000 3.531310 0.000000 
#    z 0.000000 0.000000 3.466060 
# 
# 
# High freq. dielectric constant tensor:
#      x y z
#    x 1.800710 0.000000 0.000000 
#    y 0.000000 1.784510 0.000000 
#    z 0.000000 0.000000 1.772680 
# 
# From -- ./inp_files/15878.got.cif
#   From: 2010.03.12/outbox.cif.g09.slc.cpg/sg62_8_cif.got.tgz:15878.got - 2010.04.10 19:12:36.
