data_PCOD8254880
_publ_section_title
;
Structure prediction by ZEFSAII (Michael W. Deem and Ramdas Pophale) SiO2 
 PCOD8254880
Probable space group: P N M A
;
_chemical_formula_sum "Si O2"
_cell_formula_units_Z 40
_cell_length_a 23.498180
_cell_length_b 14.411814
_cell_length_c 4.954526
_cell_angle_alpha 90.000000
_cell_angle_beta 90.000000
_cell_angle_gamma 90.000000
_cell_volume 1677.857164
_symmetry_space_group_name_H-M "P N M A"
_symmetry_group_IT_number 62
_symmetry_cell_setting 'orthorhombic'
loop_
_space_group_symop_operation_xyz
x,y,z
1/2-x,-y,1/2+z
1/2+x,1/2-y,1/2-z
-x,1/2+y,-z
-x,-y,-z
1/2+x,y,1/2-z
1/2-x,1/2+y,1/2+z
x,1/2-y,z
loop_
_atom_site_type_symbol
_atom_site_label
_atom_site_fract_x
_atom_site_fract_y
_atom_site_fract_z
Si Si1 0.818876 0.250000 0.495023
Si Si2 0.244140 0.063924 0.983634
Si Si3 0.557634 0.147816 0.088630
Si Si4 0.882398 0.917178 0.097668
Si Si5 0.100638 0.750000 0.008330
Si Si6 0.541817 0.926879 0.640580
O O1 0.782096 0.344647 0.463091
O O2 0.870705 0.250000 0.286467
O O3 0.846908 0.250000 0.787745
O O4 0.231402 0.006408 0.257880
O O5 0.184086 0.100482 0.869792
O O6 0.554697 0.250000 0.209336
O O7 0.599509 0.091069 0.286288
O O8 0.493127 0.106823 0.094297
O O9 0.582324 0.152903 0.787054
O O10 0.899648 0.019598 0.214234
O O11 0.059823 0.660589 0.044303
O O12 0.500000 0.000000 0.500000
#
# Coordination Sequence:
#
# PCOD8254880 Si02
#       6
#     4   8   8   8   4   8
#     4  12  28  46  76 106 142 196 250 300 366 430
#     4  12  26  48  73 104 143 186 246 301 359 428
#     4  11  23  40  64 101 134 174 225 272 345 419
#     4  11  24  41  69  95 141 176 225 287 352 401
#     4  12  26  48  74 104 146 190 244 298 360 432
#     4  10  23  45  71 103 142 184 232 289 357 431
#
# _framework density 23.839931
#
# number of rings (size 3 to 8) (size 9 to 14) (size 15 to 20)
#    0.000    0.800    1.000    6.000    2.800    8.000 
#    0.000    0.000    0.000    0.000    0.000    0.000 
#    0.000    0.000    0.000    0.000    0.000    0.000 
#
# Total GULP energy -495748.625146 kJ/mol
# GULP energy per Si atom -12393.715629 kJ/mol
# Density = 2.378567 g / cm^3
# Si number density = 23.839931 Si / 1000 Ang^3
#
#
#
# Elastic Constant Matrix: (Units=GPa)
#
#
# Indices 1 2 3 4 5 6 
#
# 1 95.1139 56.4399 4.7014 0.0000 0.0000 0.0000
# 2 56.4399 161.4059 25.7450 0.0000 0.0000 0.0000
# 3 4.7014 25.7450 82.0837 0.0000 0.0000 0.0000
# 4 0.0000 0.0000 0.0000 29.9227 0.0000 0.0000
# 5 0.0000 0.0000 0.0000 0.0000 28.6474 0.0000
# 6 0.0000 0.0000 0.0000 0.0000 0.0000 39.3755
#
#
#
# Elastic Compliance Matrix: (Units=1/GPa)
#
#
# Indices 1 2 3 4 5 6 
#
# 1 0.013308 -0.004771 0.000734 0.000000 0.000000 0.000000
# 2 -0.004771 0.008232 -0.002309 0.000000 0.000000 0.000000
# 3 0.000734 -0.002309 0.012865 0.000000 0.000000 0.000000
# 4 0.000000 0.000000 0.000000 0.033419 0.000000 0.000000
# 5 0.000000 0.000000 0.000000 0.000000 0.034907 0.000000
# 6 0.000000 0.000000 0.000000 0.000000 0.000000 0.025396
#
#
# Mechanical properties :
#
#
# Convention : Reuss Voigt Hill
#
# Bulk Modulus (GPa) = 46.05233 56.93071 51.49152
# Shear Modulus (GPa) = 33.77078 36.37027 35.07052
#
# Velocity S-wave (km/s) = 3.76781 3.91013 3.83963
# Velocity P-wave (km/s) = 6.18771 6.65716 6.42672
#
# Compressibility (1/GPa) = 0.02171443
#
# Stress axis : x y z
#
# Youngs Moduli (GPa) = 75.14096 121.47708 77.73188
#
# Poissons Ratio (x) = 0.57953 -0.05706
# Poissons Ratio (y) = 0.35847 0.17946
# Poissons Ratio (z) = -0.05516 0.28045
#
# Static dielectric constant tensor:
#      x y z
#    x 4.426540 0.000000 0.000000 
#    y 0.000000 4.646910 0.000000 
#    z 0.000000 0.000000 3.935510 
# 
# 
# High freq. dielectric constant tensor:
#      x y z
#    x 1.950900 0.000000 0.000000 
#    y 0.000000 1.961610 0.000000 
#    z 0.000000 0.000000 1.934560 
# 
# From -- ./inp_files/2681.got.cif
#   From: 2010.03.12/outbox.cif.g09.slc.cpg/sg62_2_cif.got.tgz:2681.got - 2010.04.10 19:12:36.
