data_PCOD8254667
_publ_section_title
;
Structure prediction by ZEFSAII (Michael W. Deem and Ramdas Pophale) SiO2 
 PCOD8254667
Probable space group: P N M A
;
_chemical_formula_sum "Si O2"
_cell_formula_units_Z 32
_cell_length_a 19.156811
_cell_length_b 13.548043
_cell_length_c 4.904495
_cell_angle_alpha 90.000000
_cell_angle_beta 90.000000
_cell_angle_gamma 90.000000
_cell_volume 1272.899386
_symmetry_space_group_name_H-M "P N M A"
_symmetry_group_IT_number 62
_symmetry_cell_setting 'orthorhombic'
loop_
_space_group_symop_operation_xyz
x,y,z
1/2-x,-y,1/2+z
1/2+x,1/2-y,1/2-z
-x,1/2+y,-z
-x,-y,-z
1/2+x,y,1/2-z
1/2-x,1/2+y,1/2+z
x,1/2-y,z
loop_
_atom_site_type_symbol
_atom_site_label
_atom_site_fract_x
_atom_site_fract_y
_atom_site_fract_z
Si Si1 0.094139 0.555540 0.446720
Si Si2 0.520985 0.637905 0.552171
Si Si3 0.255089 0.435112 0.993155
Si Si4 0.882066 0.859116 0.247066
O O1 0.066305 0.564814 0.139244
O O2 0.167825 0.614561 0.473031
O O3 0.107961 0.441210 0.520655
O O4 0.034771 0.603898 0.638086
O O5 0.546437 0.750000 0.508920
O O6 0.439455 0.626439 0.489685
O O7 0.257173 0.533336 0.804613
O O8 0.193658 0.363288 0.896695
O O9 0.890000 0.750000 0.381130
#
# Coordination Sequence:
#
# PCOD8254667 Si02
#       4
#     8   8   8   8
#     4  11  22  43  67  94 129 170 212 266 318 377
#     4  11  24  41  65  96 130 170 217 264 317 376
#     4  10  22  42  63  89 124 166 212 262 315 374
#     4  10  23  42  66  97 131 170 213 262 320 383
#
# _framework density 25.139458000000001
#
# number of rings (size 3 to 8) (size 9 to 14) (size 15 to 20)
#    0.000    1.500    0.000    5.250    0.000    6.000 
#    0.000   18.750    0.000    1.500    0.000    0.000 
#    0.000    0.000    0.000    0.000    0.000    0.000 
#
# Total GULP energy -396829.622243 kJ/mol
# GULP energy per Si atom -12400.925695 kJ/mol
# Density = 2.508224 g / cm^3
# Si number density = 25.139458 Si / 1000 Ang^3
#
#
#
# Elastic Constant Matrix: (Units=GPa)
#
#
# Indices 1 2 3 4 5 6 
#
# 1 130.7443 35.3597 8.5685 0.0000 0.0000 0.0000
# 2 35.3597 132.2221 13.7056 0.0000 0.0000 0.0000
# 3 8.5685 13.7056 78.2170 0.0000 0.0000 0.0000
# 4 0.0000 0.0000 0.0000 14.9992 0.0000 0.0000
# 5 0.0000 0.0000 0.0000 0.0000 35.5149 0.0000
# 6 0.0000 0.0000 0.0000 0.0000 0.0000 -10.9636
#
#
#
# Elastic Compliance Matrix: (Units=1/GPa)
#
#
# Indices 1 2 3 4 5 6 
#
# 1 0.008266 -0.002156 -0.000528 0.000000 0.000000 0.000000
# 2 -0.002156 0.008265 -0.001212 0.000000 0.000000 0.000000
# 3 -0.000528 -0.001212 0.013055 0.000000 0.000000 0.000000
# 4 0.000000 0.000000 0.000000 0.066670 0.000000 0.000000
# 5 0.000000 0.000000 0.000000 0.000000 0.028157 0.000000
# 6 0.000000 0.000000 0.000000 0.000000 0.000000 -0.091211
#
#
# Mechanical properties :
#
#
# Convention : Reuss Voigt Hill
#
# Bulk Modulus (GPa) = 45.88207 50.71678 48.29943
# Shear Modulus (GPa) = 103.60680 26.81340 65.21010
#
# Velocity S-wave (km/s) = 6.42669 3.26941 5.09859
# Velocity P-wave (km/s) = 8.56507 5.87112 7.34270
#
# Compressibility (1/GPa) = 0.02179501
#
# Stress axis : x y z
#
# Youngs Moduli (GPa) = 120.97510 120.98894 76.59809
#
# Poissons Ratio (x) = 0.26084 0.04043
# Poissons Ratio (y) = 0.26081 0.09284
# Poissons Ratio (z) = 0.06385 0.14665
#
# Static dielectric constant tensor:
#      x y z
#    x 5.060480 0.000000 0.000000 
#    y 0.000000 4.362250 0.000000 
#    z 0.000000 0.000000 4.162510 
# 
# 
# High freq. dielectric constant tensor:
#      x y z
#    x 2.030680 0.000000 0.000000 
#    y 0.000000 1.977740 0.000000 
#    z 0.000000 0.000000 1.997380 
# 
# From -- ./inp_files/1455.got.cif
#   From: 2010.03.12/outbox.cif.g09.slc.cpg/sg62_1_cif.got.tgz:1455.got - 2010.04.10 19:12:36.
