data_PCOD8254723
_publ_section_title
;
Structure prediction by ZEFSAII (Michael W. Deem and Ramdas Pophale) SiO2 
 PCOD8254723
Probable space group: P N M A
;
_chemical_formula_sum "Si O2"
_cell_formula_units_Z 64
_cell_length_a 16.829185
_cell_length_b 20.656717
_cell_length_c 8.903156
_cell_angle_alpha 90.000000
_cell_angle_beta 90.000000
_cell_angle_gamma 90.000000
_cell_volume 3095.054974
_symmetry_space_group_name_H-M "P N M A"
_symmetry_group_IT_number 62
_symmetry_cell_setting 'orthorhombic'
loop_
_space_group_symop_operation_xyz
x,y,z
1/2-x,-y,1/2+z
1/2+x,1/2-y,1/2-z
-x,1/2+y,-z
-x,-y,-z
1/2+x,y,1/2-z
1/2-x,1/2+y,1/2+z
x,1/2-y,z
loop_
_atom_site_type_symbol
_atom_site_label
_atom_site_fract_x
_atom_site_fract_y
_atom_site_fract_z
Si Si1 0.484070 0.177462 0.272512
Si Si2 0.488999 0.038532 0.847892
Si Si3 0.735396 0.821940 0.224815
Si Si4 0.903585 0.934529 0.839722
Si Si5 0.334510 0.175813 0.456685
Si Si6 0.140506 0.065310 0.824925
Si Si7 0.377374 0.129844 0.009756
Si Si8 0.724213 0.934815 0.746929
O O1 0.517515 0.250000 0.280671
O O2 0.559619 0.130829 0.270744
O O3 0.426863 0.162177 0.415205
O O4 0.433532 0.169827 0.120412
O O5 0.574709 0.066123 0.804433
O O6 0.458222 0.993974 0.711957
O O7 0.427586 0.095807 0.878707
O O8 0.500000 0.000000 0.000000
O O9 0.772693 0.750000 0.239900
O O10 0.679965 0.837564 0.368261
O O11 0.804879 0.873633 0.211059
O O12 0.682057 0.821976 0.075035
O O13 0.815773 0.946379 0.780040
O O14 0.904310 0.927501 0.017871
O O15 0.312922 0.250000 0.412171
O O16 0.280002 0.126968 0.362221
O O17 0.191054 0.999282 0.831125
O O18 0.325634 0.077042 0.101236
#
# Coordination Sequence:
#
# PCOD8254723 Si02
#       8
#     8   8   8   8   8   8   8   8
#     4  10  22  43  66  94 131 174 225 265 323 403
#     4  12  24  43  69  97 137 164 218 277 329 403
#     4  11  25  44  67  99 135 173 222 276 336 396
#     4  12  26  42  63  99 130 175 217 274 338 384
#     4   9  22  42  68  95 131 176 217 269 328 397
#     4  12  27  44  67  99 133 176 219 281 337 395
#     4  11  22  44  68 101 128 176 214 272 335 396
#     4  11  24  42  67  98 130 171 227 268 336 394
#
# _framework density 20.678148
#
# number of rings (size 3 to 8) (size 9 to 14) (size 15 to 20)
#    0.000    1.000    3.750    2.250    7.000    1.500 
#    0.000    2.500    0.000    0.000    0.000    0.000 
#    0.000    0.000    0.000    0.000    0.000    0.000 
#
# Total GULP energy -793834.972627 kJ/mol
# GULP energy per Si atom -12403.671447 kJ/mol
# Density = 2.063108 g / cm^3
# Si number density = 20.678148 Si / 1000 Ang^3
#
#
#
# Elastic Constant Matrix: (Units=GPa)
#
#
# Indices 1 2 3 4 5 6 
#
# 1 106.0607 45.6360 43.0469 0.0000 0.0000 0.0000
# 2 45.6360 109.6340 42.1661 0.0000 0.0000 0.0000
# 3 43.0469 42.1661 101.2456 0.0000 0.0000 0.0000
# 4 0.0000 0.0000 0.0000 28.2777 0.0000 0.0000
# 5 0.0000 0.0000 0.0000 0.0000 31.2451 0.0000
# 6 0.0000 0.0000 0.0000 0.0000 0.0000 27.2129
#
#
#
# Elastic Compliance Matrix: (Units=1/GPa)
#
#
# Indices 1 2 3 4 5 6 
#
# 1 0.012591 -0.003789 -0.003775 0.000000 0.000000 0.000000
# 2 -0.003789 0.012001 -0.003387 0.000000 0.000000 0.000000
# 3 -0.003775 -0.003387 0.012893 0.000000 0.000000 0.000000
# 4 0.000000 0.000000 0.000000 0.035364 0.000000 0.000000
# 5 0.000000 0.000000 0.000000 0.000000 0.032005 0.000000
# 6 0.000000 0.000000 0.000000 0.000000 0.000000 0.036747
#
#
# Mechanical properties :
#
#
# Convention : Reuss Voigt Hill
#
# Bulk Modulus (GPa) = 64.17685 64.29316 64.23501
# Shear Modulus (GPa) = 29.63867 29.75324 29.69595
#
# Velocity S-wave (km/s) = 3.79005 3.79736 3.79371
# Velocity P-wave (km/s) = 7.08915 7.09834 7.09375
#
# Compressibility (1/GPa) = 0.01558194
#
# Stress axis : x y z
#
# Youngs Moduli (GPa) = 79.41995 83.32460 77.56252
#
# Poissons Ratio (x) = 0.31573 0.29283
# Poissons Ratio (y) = 0.30094 0.26272
# Poissons Ratio (z) = 0.29984 0.28223
#
# Static dielectric constant tensor:
#      x y z
#    x 3.730860 0.000000 0.000000 
#    y 0.000000 3.840690 0.000000 
#    z 0.000000 0.000000 3.850370 
# 
# 
# High freq. dielectric constant tensor:
#      x y z
#    x 1.807070 0.000000 0.000000 
#    y 0.000000 1.813400 0.000000 
#    z 0.000000 0.000000 1.818050 
# 
# From -- ./inp_files/8125.got.cif
#   From: 2010.03.12/outbox.cif.g09.slc.cpg/sg62_5_cif.got.tgz:8125.got - 2010.04.10 19:12:36.
