data_PCOD8254903
_publ_section_title
;
Structure prediction by ZEFSAII (Michael W. Deem and Ramdas Pophale) SiO2 
 PCOD8254903
Probable space group: P N M A
;
_chemical_formula_sum "Si O2"
_cell_formula_units_Z 32
_cell_length_a 9.052176
_cell_length_b 14.771388
_cell_length_c 9.911378
_cell_angle_alpha 90.000000
_cell_angle_beta 90.000000
_cell_angle_gamma 90.000000
_cell_volume 1325.282108
_symmetry_space_group_name_H-M "P N M A"
_symmetry_group_IT_number 62
_symmetry_cell_setting 'orthorhombic'
loop_
_space_group_symop_operation_xyz
x,y,z
1/2-x,-y,1/2+z
1/2+x,1/2-y,1/2-z
-x,1/2+y,-z
-x,-y,-z
1/2+x,y,1/2-z
1/2-x,1/2+y,1/2+z
x,1/2-y,z
loop_
_atom_site_type_symbol
_atom_site_label
_atom_site_fract_x
_atom_site_fract_y
_atom_site_fract_z
Si Si1 0.229911 0.376453 0.430347
Si Si2 0.297843 0.250000 0.925089
Si Si3 0.761872 0.443042 0.435906
Si Si4 0.133793 0.250000 0.652429
Si Si5 0.004679 0.903177 0.768586
O O1 0.225539 0.486222 0.441277
O O2 0.205602 0.336472 0.578112
O O3 0.099514 0.342539 0.329707
O O4 0.385884 0.344726 0.365021
O O5 0.175158 0.250000 0.808400
O O6 0.457843 0.250000 0.856822
O O7 0.274796 0.160761 0.015477
O O8 0.603913 0.461295 0.364134
O O9 0.891381 0.464704 0.327689
#
# Coordination Sequence:
#
# PCOD8254903 Si02
#       5
#     8   4   8   4   8
#     4  11  25  45  71 102 140 178 228 281 340 399
#     4  12  30  45  69 102 140 179 226 278 344 409
#     4  11  25  45  71 102 140 178 228 281 340 399
#     4  12  30  45  69 102 140 179 226 278 344 409
#     4  10  24  43  74  97 134 184 232 275 338 399
#
# _framework density 24.145802
#
# number of rings (size 3 to 8) (size 9 to 14) (size 15 to 20)
#    0.000    1.000    2.500    1.500   10.500    6.000 
#    0.000    0.000    0.000    0.000    0.000    0.000 
#    0.000    0.000    0.000    0.000    0.000    0.000 
#
# Total GULP energy -396573.020107 kJ/mol
# GULP energy per Si atom -12392.906878 kJ/mol
# Density = 2.409085 g / cm^3
# Si number density = 24.145802 Si / 1000 Ang^3
#
#
#
# Elastic Constant Matrix: (Units=GPa)
#
#
# Indices 1 2 3 4 5 6 
#
# 1 196.5729 25.0413 61.7831 0.0000 0.0000 0.0000
# 2 25.0413 136.3215 41.7458 0.0000 0.0000 0.0000
# 3 61.7831 41.7458 119.0898 0.0000 0.0000 0.0000
# 4 0.0000 0.0000 0.0000 10.4717 0.0000 0.0000
# 5 0.0000 0.0000 0.0000 0.0000 48.5082 0.0000
# 6 0.0000 0.0000 0.0000 0.0000 0.0000 9.7798
#
#
#
# Elastic Compliance Matrix: (Units=1/GPa)
#
#
# Indices 1 2 3 4 5 6 
#
# 1 0.006082 -0.000169 -0.003096 0.000000 0.000000 0.000000
# 2 -0.000169 0.008222 -0.002795 0.000000 0.000000 0.000000
# 3 -0.003096 -0.002795 0.010983 0.000000 0.000000 0.000000
# 4 0.000000 0.000000 0.000000 0.095496 0.000000 0.000000
# 5 0.000000 0.000000 0.000000 0.000000 0.020615 0.000000
# 6 0.000000 0.000000 0.000000 0.000000 0.000000 0.102252
#
#
# Mechanical properties :
#
#
# Convention : Reuss Voigt Hill
#
# Bulk Modulus (GPa) = 75.94275 78.79161 77.36718
# Shear Modulus (GPa) = 19.21909 35.31287 27.26598
#
# Velocity S-wave (km/s) = 2.82434 3.82839 3.36404
# Velocity P-wave (km/s) = 6.49275 7.22804 6.87024
#
# Compressibility (1/GPa) = 0.01316781
#
# Stress axis : x y z
#
# Youngs Moduli (GPa) = 164.42611 121.61836 91.05175
#
# Poissons Ratio (x) = 0.02057 0.28189
# Poissons Ratio (y) = 0.02781 0.25445
# Poissons Ratio (z) = 0.50905 0.33987
#
# Static dielectric constant tensor:
#      x y z
#    x 4.718620 0.000000 0.000000 
#    y 0.000000 3.822600 0.000000 
#    z 0.000000 0.000000 4.343590 
# 
# 
# High freq. dielectric constant tensor:
#      x y z
#    x 1.984550 0.000000 0.000000 
#    y 0.000000 1.918890 0.000000 
#    z 0.000000 0.000000 1.972130 
# 
# From -- ./inp_files/10999.got.cif
#   From: 2010.03.12/outbox.cif.g09.slc.cpg/sg62_6_cif.got.tgz:10999.got - 2010.04.10 19:12:36.
