data_PCOD8254386
_publ_section_title
;
Structure prediction by ZEFSAII (Michael W. Deem and Ramdas Pophale) SiO2 
 PCOD8254386
Probable space group: P N M A
;
_chemical_formula_sum "Si O2"
_cell_formula_units_Z 40
_cell_length_a 11.151284
_cell_length_b 12.958305
_cell_length_c 13.302413
_cell_angle_alpha 90.000000
_cell_angle_beta 90.000000
_cell_angle_gamma 90.000000
_cell_volume 1922.221814
_symmetry_space_group_name_H-M "P N M A"
_symmetry_group_IT_number 62
_symmetry_cell_setting 'orthorhombic'
loop_
_space_group_symop_operation_xyz
x,y,z
1/2-x,-y,1/2+z
1/2+x,1/2-y,1/2-z
-x,1/2+y,-z
-x,-y,-z
1/2+x,y,1/2-z
1/2-x,1/2+y,1/2+z
x,1/2-y,z
loop_
_atom_site_type_symbol
_atom_site_label
_atom_site_fract_x
_atom_site_fract_y
_atom_site_fract_z
Si Si1 0.387936 0.031294 0.567482
Si Si2 0.566118 0.370525 0.706849
Si Si3 0.262085 0.462312 0.372869
Si Si4 0.224290 0.634402 0.673347
Si Si5 0.991019 0.014015 0.383763
O O1 0.438441 0.113506 0.648723
O O2 0.500000 0.000000 0.500000
O O3 0.288918 0.075118 0.487811
O O4 0.329794 0.937545 0.629566
O O5 0.595644 0.250000 0.714424
O O6 0.673764 0.426649 0.645895
O O7 0.562543 0.417870 0.819676
O O8 0.307122 0.379739 0.291591
O O9 0.123282 0.465963 0.344584
O O10 0.265047 0.750000 0.649827
O O11 0.096136 0.612282 0.623221
O O12 0.000000 0.000000 0.500000
#
# Coordination Sequence:
#
# PCOD8254386 Si02
#       5
#     8   8   8   8   8
#     4  10  21  42  66  93 129 168 214 267 308 380
#     4  10  23  42  67  94 125 171 218 261 316 380
#     4  10  22  43  65  91 133 166 208 272 320 374
#     4  11  24  42  66  94 129 174 213 259 325 386
#     4  11  22  42  63  94 133 163 211 269 319 376
#
# _framework density 20.809252999999998
#
# number of rings (size 3 to 8) (size 9 to 14) (size 15 to 20)
#    0.000    1.600    4.000    0.000    0.000    6.400 
#    0.000    0.000    0.000    0.000    0.000    0.000 
#    0.000    0.000    0.000    0.000    0.000    0.000 
#
# Total GULP energy -495553.310421 kJ/mol
# GULP energy per Si atom -12388.832761 kJ/mol
# Density = 2.076189 g / cm^3
# Si number density = 20.809253 Si / 1000 Ang^3
#
#
#
# Elastic Constant Matrix: (Units=GPa)
#
#
# Indices 1 2 3 4 5 6 
#
# 1 92.8522 33.5187 3.7440 0.0000 0.0000 0.0000
# 2 33.5187 90.0254 31.8331 0.0000 0.0000 0.0000
# 3 3.7440 31.8331 126.8126 0.0000 0.0000 0.0000
# 4 0.0000 0.0000 0.0000 12.5620 0.0000 0.0000
# 5 0.0000 0.0000 0.0000 0.0000 29.0075 0.0000
# 6 0.0000 0.0000 0.0000 0.0000 0.0000 27.5370
#
#
#
# Elastic Compliance Matrix: (Units=1/GPa)
#
#
# Indices 1 2 3 4 5 6 
#
# 1 0.012531 -0.004976 0.000879 0.000000 0.000000 0.000000
# 2 -0.004976 0.014166 -0.003409 0.000000 0.000000 0.000000
# 3 0.000879 -0.003409 0.008715 0.000000 0.000000 0.000000
# 4 0.000000 0.000000 0.000000 0.079605 0.000000 0.000000
# 5 0.000000 0.000000 0.000000 0.000000 0.034474 0.000000
# 6 0.000000 0.000000 0.000000 0.000000 0.000000 0.036315
#
#
# Mechanical properties :
#
#
# Convention : Reuss Voigt Hill
#
# Bulk Modulus (GPa) = 49.01989 49.76463 49.39226
# Shear Modulus (GPa) = 24.08259 29.86092 26.97175
#
# Velocity S-wave (km/s) = 3.40560 3.79223 3.60410
# Velocity P-wave (km/s) = 6.25077 6.56820 6.41145
#
# Compressibility (1/GPa) = 0.02039988
#
# Stress axis : x y z
#
# Youngs Moduli (GPa) = 79.80344 70.58995 114.73834
#
# Poissons Ratio (x) = 0.35129 -0.10088
# Poissons Ratio (y) = 0.39714 0.39116
# Poissons Ratio (z) = -0.07017 0.24065
#
# Static dielectric constant tensor:
#      x y z
#    x 3.719820 0.000000 0.000000 
#    y 0.000000 3.283020 0.000000 
#    z 0.000000 0.000000 4.298250 
# 
# 
# High freq. dielectric constant tensor:
#      x y z
#    x 1.829440 0.000000 0.000000 
#    y 0.000000 1.762900 0.000000 
#    z 0.000000 0.000000 1.842710 
# 
# From -- ./inp_files/17807.got.cif
#   From: 2010.03.12/outbox.cif.g09.slc.cpg/sg62_9_cif.got.tgz:17807.got - 2010.04.10 19:12:36.
