data_PCOD8254847
_publ_section_title
;
Structure prediction by ZEFSAII (Michael W. Deem and Ramdas Pophale) SiO2 
 PCOD8254847
Probable space group: P N M A
;
_chemical_formula_sum "Si O2"
_cell_formula_units_Z 56
_cell_length_a 14.650452
_cell_length_b 8.543971
_cell_length_c 21.726916
_cell_angle_alpha 90.000000
_cell_angle_beta 90.000000
_cell_angle_gamma 90.000000
_cell_volume 2719.624061
_symmetry_space_group_name_H-M "P N M A"
_symmetry_group_IT_number 62
_symmetry_cell_setting 'orthorhombic'
loop_
_space_group_symop_operation_xyz
x,y,z
1/2-x,-y,1/2+z
1/2+x,1/2-y,1/2-z
-x,1/2+y,-z
-x,-y,-z
1/2+x,y,1/2-z
1/2-x,1/2+y,1/2+z
x,1/2-y,z
loop_
_atom_site_type_symbol
_atom_site_label
_atom_site_fract_x
_atom_site_fract_y
_atom_site_fract_z
Si Si1 0.578946 0.566206 0.957699
Si Si2 0.808030 0.429848 0.216424
Si Si3 0.415524 0.064336 0.612351
Si Si4 0.881827 0.567847 0.095726
Si Si5 0.381080 0.433567 0.749512
Si Si6 0.272260 0.066938 0.513260
Si Si7 0.450859 0.431965 0.180772
O O1 0.571983 0.750000 0.958993
O O2 0.567605 0.505303 0.887955
O O3 0.500000 0.500000 0.000000
O O4 0.675711 0.516899 0.984826
O O5 0.817727 0.250000 0.195690
O O6 0.853646 0.541162 0.166046
O O7 0.702562 0.471976 0.222294
O O8 0.858251 0.460476 0.281146
O O9 0.414255 0.250000 0.613968
O O10 0.514019 0.008785 0.587484
O O11 0.398902 0.999974 0.680959
O O12 0.337592 0.998604 0.567003
O O13 0.871178 0.750000 0.079236
O O14 0.817652 0.465374 0.052347
O O15 0.358669 0.250000 0.749018
O O16 0.468633 0.464626 0.791327
O O17 0.256654 0.250000 0.521781
O O18 0.479502 0.250000 0.181780
#
# Coordination Sequence:
#
# PCOD8254847 Si02
#       7
#     8   8   8   8   8   8   8
#     4  11  25  45  66  91 124 165 214 263 314 373
#     4  11  23  40  62  92 127 165 208 259 315 371
#     4   9  20  39  63  94 128 162 207 256 309 371
#     4  11  22  40  63  92 127 164 209 259 308 372
#     4  11  22  38  64  94 125 163 206 255 310 372
#     4  11  23  41  64  92 126 166 208 258 316 373
#     4  10  23  43  65  91 125 163 208 259 311 370
#
# _framework density 20.591080000000002
#
# number of rings (size 3 to 8) (size 9 to 14) (size 15 to 20)
#    0.000    1.429    1.429    3.429    2.000    1.714 
#    0.000    4.286    0.000    0.000    0.000    0.000 
#    0.000    0.000    0.000    0.000    0.000    0.000 
#
# Total GULP energy -694742.515996 kJ/mol
# GULP energy per Si atom -12406.116357 kJ/mol
# Density = 2.054421 g / cm^3
# Si number density = 20.591080 Si / 1000 Ang^3
#
#
#
# Elastic Constant Matrix: (Units=GPa)
#
#
# Indices 1 2 3 4 5 6 
#
# 1 142.0949 21.0912 42.1301 0.0000 0.0000 0.0000
# 2 21.0912 39.7519 17.8891 0.0000 0.0000 0.0000
# 3 42.1301 17.8891 109.1218 0.0000 0.0000 0.0000
# 4 0.0000 0.0000 0.0000 28.4124 0.0000 0.0000
# 5 0.0000 0.0000 0.0000 0.0000 38.6539 0.0000
# 6 0.0000 0.0000 0.0000 0.0000 0.0000 28.7193
#
#
#
# Elastic Compliance Matrix: (Units=1/GPa)
#
#
# Indices 1 2 3 4 5 6 
#
# 1 0.008308 -0.003201 -0.002683 0.000000 0.000000 0.000000
# 2 -0.003201 0.028393 -0.003419 0.000000 0.000000 0.000000
# 3 -0.002683 -0.003419 0.010760 0.000000 0.000000 0.000000
# 4 0.000000 0.000000 0.000000 0.035196 0.000000 0.000000
# 5 0.000000 0.000000 0.000000 0.000000 0.025871 0.000000
# 6 0.000000 0.000000 0.000000 0.000000 0.000000 0.034820
#
#
# Mechanical properties :
#
#
# Convention : Reuss Voigt Hill
#
# Bulk Modulus (GPa) = 34.65446 50.35437 42.50442
# Shear Modulus (GPa) = 29.14241 33.14767 31.14504
#
# Velocity S-wave (km/s) = 3.76612 4.01659 3.89337
# Velocity P-wave (km/s) = 5.98146 6.78367 6.39516
#
# Compressibility (1/GPa) = 0.02885631
#
# Stress axis : x y z
#
# Youngs Moduli (GPa) = 120.36458 35.22022 92.93349
#
# Poissons Ratio (x) = 0.11273 0.24933
# Poissons Ratio (y) = 0.38525 0.31773
# Poissons Ratio (z) = 0.32293 0.12041
#
# Static dielectric constant tensor:
#      x y z
#    x 3.794050 0.000000 0.000000 
#    y 0.000000 3.551000 0.000000 
#    z 0.000000 0.000000 3.865290 
# 
# 
# High freq. dielectric constant tensor:
#      x y z
#    x 1.818840 0.000000 0.000000 
#    y 0.000000 1.795820 0.000000 
#    z 0.000000 0.000000 1.815080 
# 
# From -- ./inp_files/27103.got.cif
#   From: 2010.03.12/outbox.cif.g09.slc.cpg/sg62_14_cif.got.tgz:27103.got - 2010.04.10 19:12:36.
