data_PCOD8254423
_publ_section_title
;
Structure prediction by ZEFSAII (Michael W. Deem and Ramdas Pophale) SiO2 
 PCOD8254423
Probable space group: P N M A
;
_chemical_formula_sum "Si O2"
_cell_formula_units_Z 40
_cell_length_a 28.140326
_cell_length_b 9.000146
_cell_length_c 9.440593
_cell_angle_alpha 90.000000
_cell_angle_beta 90.000000
_cell_angle_gamma 90.000000
_cell_volume 2390.991068
_symmetry_space_group_name_H-M "P N M A"
_symmetry_group_IT_number 62
_symmetry_cell_setting 'orthorhombic'
loop_
_space_group_symop_operation_xyz
x,y,z
1/2-x,-y,1/2+z
1/2+x,1/2-y,1/2-z
-x,1/2+y,-z
-x,-y,-z
1/2+x,y,1/2-z
1/2-x,1/2+y,1/2+z
x,1/2-y,z
loop_
_atom_site_type_symbol
_atom_site_label
_atom_site_fract_x
_atom_site_fract_y
_atom_site_fract_z
Si Si1 0.138477 0.418576 0.865522
Si Si2 0.295408 0.425229 0.168829
Si Si3 0.713914 0.922457 0.154054
Si Si4 0.367793 0.077232 0.637032
Si Si5 0.451121 0.918499 0.526029
O O1 0.157549 0.250000 0.864839
O O2 0.155542 0.501370 0.724004
O O3 0.160432 0.501976 0.004284
O O4 0.080769 0.423097 0.881119
O O5 0.300336 0.250000 0.180504
O O6 0.252300 0.480134 0.264887
O O7 0.287894 0.475910 0.007653
O O8 0.728229 0.750000 0.167458
O O9 0.661876 0.950541 0.220606
O O10 0.374772 0.250000 0.604505
O O11 0.420176 0.000618 0.649377
O O12 0.461181 0.750000 0.573720
O O13 0.500000 0.000000 0.500000
#
# Coordination Sequence:
#
# PCOD8254423 Si02
#       5
#     8   8   8   8   8
#     4   9  19  33  50  75 104 131 169 213 254 305
#     4  11  22  34  51  73 101 138 176 214 257 306
#     4  10  22  36  50  73 104 137 175 215 257 307
#     4   9  17  32  53  75 103 135 169 211 258 304
#     4   9  18  31  53  81 107 134 171 218 259 307
#
# _framework density 16.729465000000001
#
# number of rings (size 3 to 8) (size 9 to 14) (size 15 to 20)
#    1.200    1.200    0.000    3.000    0.000    6.400 
#    0.000    0.000    0.000    1.200    0.000    0.000 
#    0.000    0.000    0.000    0.000    0.000    0.000 
#
# Total GULP energy -495654.737126 kJ/mol
# GULP energy per Si atom -12391.368428 kJ/mol
# Density = 1.669139 g / cm^3
# Si number density = 16.729465 Si / 1000 Ang^3
#
#
#
# Elastic Constant Matrix: (Units=GPa)
#
#
# Indices 1 2 3 4 5 6 
#
# 1 100.2177 50.1430 47.9075 0.0000 0.0000 0.0000
# 2 50.1430 118.1335 56.0450 0.0000 0.0000 0.0000
# 3 47.9075 56.0450 111.3714 0.0000 0.0000 0.0000
# 4 0.0000 0.0000 0.0000 23.8864 0.0000 0.0000
# 5 0.0000 0.0000 0.0000 0.0000 22.9756 0.0000
# 6 0.0000 0.0000 0.0000 0.0000 0.0000 29.3217
#
#
#
# Elastic Compliance Matrix: (Units=1/GPa)
#
#
# Indices 1 2 3 4 5 6 
#
# 1 0.013875 -0.004017 -0.003947 0.000000 0.000000 0.000000
# 2 -0.004017 0.012283 -0.004453 0.000000 0.000000 0.000000
# 3 -0.003947 -0.004453 0.012918 0.000000 0.000000 0.000000
# 4 0.000000 0.000000 0.000000 0.041865 0.000000 0.000000
# 5 0.000000 0.000000 0.000000 0.000000 0.043524 0.000000
# 6 0.000000 0.000000 0.000000 0.000000 0.000000 0.034104
#
#
# Mechanical properties :
#
#
# Convention : Reuss Voigt Hill
#
# Bulk Modulus (GPa) = 70.21787 70.87928 70.54858
# Shear Modulus (GPa) = 26.57459 26.94523 26.75991
#
# Velocity S-wave (km/s) = 3.98991 4.01764 4.00380
# Velocity P-wave (km/s) = 7.95547 7.99886 7.97720
#
# Compressibility (1/GPa) = 0.01424139
#
# Stress axis : x y z
#
# Youngs Moduli (GPa) = 72.07278 81.41613 77.41289
#
# Poissons Ratio (x) = 0.32703 0.30555
# Poissons Ratio (y) = 0.28950 0.34473
# Poissons Ratio (z) = 0.28448 0.36255
#
# Static dielectric constant tensor:
#      x y z
#    x 3.006080 0.000000 0.000000 
#    y 0.000000 3.269670 0.000000 
#    z 0.000000 0.000000 3.038830 
# 
# 
# High freq. dielectric constant tensor:
#      x y z
#    x 1.634060 0.000000 0.000000 
#    y 0.000000 1.663380 0.000000 
#    z 0.000000 0.000000 1.616500 
# 
# From -- ./inp_files/9717.got.cif
#   From: 2010.03.12/outbox.cif.g09.slc.cpg/sg62_5_cif.got.tgz:9717.got - 2010.04.10 19:12:36.
