data_PCOD8254172
_publ_section_title
;
Structure prediction by ZEFSAII (Michael W. Deem and Ramdas Pophale) SiO2 
 PCOD8254172
Probable space group: P N M A
;
_chemical_formula_sum "Si O2"
_cell_formula_units_Z 40
_cell_length_a 5.275732
_cell_length_b 13.520469
_cell_length_c 26.552568
_cell_angle_alpha 90.000000
_cell_angle_beta 90.000000
_cell_angle_gamma 90.000000
_cell_volume 1894.004525
_symmetry_space_group_name_H-M "P N M A"
_symmetry_group_IT_number 62
_symmetry_cell_setting 'orthorhombic'
loop_
_space_group_symop_operation_xyz
x,y,z
1/2-x,-y,1/2+z
1/2+x,1/2-y,1/2-z
-x,1/2+y,-z
-x,-y,-z
1/2+x,y,1/2-z
1/2-x,1/2+y,1/2+z
x,1/2-y,z
loop_
_atom_site_type_symbol
_atom_site_label
_atom_site_fract_x
_atom_site_fract_y
_atom_site_fract_z
Si Si1 0.696530 0.466809 0.040628
Si Si2 0.870350 0.250000 0.782917
Si Si3 0.686341 0.442019 0.149707
Si Si4 0.057977 0.864908 0.047500
Si Si5 0.203112 0.562531 0.148645
Si Si6 0.157159 0.250000 0.282716
O O1 0.607303 0.412863 0.091791
O O2 0.814222 0.569629 0.060254
O O3 0.500000 0.500000 0.000000
O O4 0.872462 0.389675 0.010314
O O5 0.634143 0.250000 0.745996
O O6 0.867898 0.154175 0.817282
O O7 0.464258 0.515089 0.169378
O O8 0.685161 0.345307 0.182896
O O9 0.969608 0.485920 0.152510
O O10 0.991847 0.750000 0.051989
O O11 0.256417 0.899231 0.091011
O O12 0.379731 0.250000 0.241776
#
# Coordination Sequence:
#
# PCOD8254172 Si02
#       6
#     8   4   8   8   8   4
#     4  10  21  40  61 100 133 171 219 266 332 402
#     4  12  26  42  65  99 128 164 222 272 328 402
#     4  11  25  44  71  98 134 174 224 285 329 400
#     4  10  21  39  63  93 137 176 212 262 329 408
#     4  11  23  44  67  97 136 173 214 271 341 398
#     4  12  28  50  71  99 130 180 242 286 344 400
#
# _framework density 21.119271000000001
#
# number of rings (size 3 to 8) (size 9 to 14) (size 15 to 20)
#    0.000    1.200    3.000    2.400    1.400    5.600 
#    1.800    0.000    0.000    0.000    0.000    0.000 
#    0.000    0.000    0.000    0.000    0.000    0.000 
#
# Total GULP energy -495694.424399 kJ/mol
# GULP energy per Si atom -12392.360610 kJ/mol
# Density = 2.107120 g / cm^3
# Si number density = 21.119271 Si / 1000 Ang^3
#
#
#
# Elastic Constant Matrix: (Units=GPa)
#
#
# Indices 1 2 3 4 5 6 
#
# 1 92.0364 17.6318 20.8381 0.0000 0.0000 0.0000
# 2 17.6318 132.2854 57.0332 0.0000 0.0000 0.0000
# 3 20.8381 57.0332 110.7760 0.0000 0.0000 0.0000
# 4 0.0000 0.0000 0.0000 32.7117 0.0000 0.0000
# 5 0.0000 0.0000 0.0000 0.0000 37.3449 0.0000
# 6 0.0000 0.0000 0.0000 0.0000 0.0000 20.7556
#
#
#
# Elastic Compliance Matrix: (Units=1/GPa)
#
#
# Indices 1 2 3 4 5 6 
#
# 1 0.011409 -0.000765 -0.001752 0.000000 0.000000 0.000000
# 2 -0.000765 0.009767 -0.004885 0.000000 0.000000 0.000000
# 3 -0.001752 -0.004885 0.011872 0.000000 0.000000 0.000000
# 4 0.000000 0.000000 0.000000 0.030570 0.000000 0.000000
# 5 0.000000 0.000000 0.000000 0.000000 0.026777 0.000000
# 6 0.000000 0.000000 0.000000 0.000000 0.000000 0.048180
#
#
# Mechanical properties :
#
#
# Convention : Reuss Voigt Hill
#
# Bulk Modulus (GPa) = 54.81406 58.45598 56.63502
# Shear Modulus (GPa) = 31.35571 34.13540 32.74556
#
# Velocity S-wave (km/s) = 3.85736 4.02470 3.94192
# Velocity P-wave (km/s) = 6.77125 7.02401 6.89879
#
# Compressibility (1/GPa) = 0.01824349
#
# Stress axis : x y z
#
# Youngs Moduli (GPa) = 87.65348 102.38099 84.23337
#
# Poissons Ratio (x) = 0.07834 0.14759
# Poissons Ratio (y) = 0.06707 0.41147
# Poissons Ratio (z) = 0.15358 0.50011
#
# Static dielectric constant tensor:
#      x y z
#    x 3.910100 0.000000 0.000000 
#    y 0.000000 3.126660 0.000000 
#    z 0.000000 0.000000 1.765540 
# 
# 
# High freq. dielectric constant tensor:
#      x y z
#    x 1.827460 0.000000 0.000000 
#    y 0.000000 1.823640 0.000000 
#    z 0.000000 0.000000 1.847570 
# 
# From -- ./inp_files/30275.got.cif
#   From: 2010.03.12/outbox.cif.g09.slc.cpg/sg62_16_cif.got.tgz:30275.got - 2010.04.10 19:12:36.
