data_PCOD8254302
_publ_section_title
;
Structure prediction by ZEFSAII (Michael W. Deem and Ramdas Pophale) SiO2 
 PCOD8254302
Probable space group: P N M A
;
_chemical_formula_sum "Si O2"
_cell_formula_units_Z 48
_cell_length_a 14.660409
_cell_length_b 8.812500
_cell_length_c 18.552248
_cell_angle_alpha 90.000000
_cell_angle_beta 90.000000
_cell_angle_gamma 90.000000
_cell_volume 2396.854978
_symmetry_space_group_name_H-M "P N M A"
_symmetry_group_IT_number 62
_symmetry_cell_setting 'orthorhombic'
loop_
_space_group_symop_operation_xyz
x,y,z
1/2-x,-y,1/2+z
1/2+x,1/2-y,1/2-z
-x,1/2+y,-z
-x,-y,-z
1/2+x,y,1/2-z
1/2-x,1/2+y,1/2+z
x,1/2-y,z
loop_
_atom_site_type_symbol
_atom_site_label
_atom_site_fract_x
_atom_site_fract_y
_atom_site_fract_z
Si Si1 0.262953 0.074590 0.075158
Si Si2 0.973504 0.073763 0.215912
Si Si3 0.390587 0.427367 0.820203
Si Si4 0.772075 0.077077 0.258574
Si Si5 0.053602 0.071817 0.065360
Si Si6 0.406753 0.928273 0.973257
O O1 0.279285 0.250000 0.054404
O O2 0.289153 0.044607 0.157679
O O3 0.159043 0.025858 0.060715
O O4 0.325688 0.967963 0.027356
O O5 0.998632 0.250000 0.227230
O O6 0.012470 0.011070 0.140538
O O7 0.865293 0.047975 0.215642
O O8 0.017241 0.979687 0.280986
O O9 0.395883 0.250000 0.835499
O O10 0.303777 0.463780 0.770742
O O11 0.379287 0.513159 0.895058
O O12 0.737558 0.250000 0.248268
O O13 0.039947 0.250000 0.061555
O O14 0.000000 0.000000 0.000000
O O15 0.420276 0.750000 0.970232
O O16 0.500000 0.000000 0.000000
#
# Coordination Sequence:
#
# PCOD8254302 Si02
#       6
#     8   8   8   8   8   8
#     4  10  21  41  65  93 130 170 209 261 319 374
#     4  10  21  41  67  93 122 166 215 261 318 377
#     4  12  25  41  64  96 131 165 210 261 314 378
#     4  10  21  40  67  93 124 165 209 258 315 376
#     4  10  22  39  60  90 129 168 213 260 314 374
#     4  12  26  44  67  94 128 167 212 262 318 381
#
# _framework density 20.026242
#
# number of rings (size 3 to 8) (size 9 to 14) (size 15 to 20)
#    0.000    1.333    1.667    4.000    2.333    4.000 
#    0.000    0.000    0.000    0.000    0.000    0.000 
#    0.000    0.000    0.000    0.000    0.000    0.000 
#
# Total GULP energy -595523.580554 kJ/mol
# GULP energy per Si atom -12406.741262 kJ/mol
# Density = 1.998066 g / cm^3
# Si number density = 20.026242 Si / 1000 Ang^3
#
#
#
# Elastic Constant Matrix: (Units=GPa)
#
#
# Indices 1 2 3 4 5 6 
#
# 1 97.3247 36.3705 32.5627 0.0000 0.0000 0.0000
# 2 36.3705 103.4791 38.4863 0.0000 0.0000 0.0000
# 3 32.5627 38.4863 96.0831 0.0000 0.0000 0.0000
# 4 0.0000 0.0000 0.0000 36.1884 0.0000 0.0000
# 5 0.0000 0.0000 0.0000 0.0000 38.2214 0.0000
# 6 0.0000 0.0000 0.0000 0.0000 0.0000 33.0470
#
#
#
# Elastic Compliance Matrix: (Units=1/GPa)
#
#
# Indices 1 2 3 4 5 6 
#
# 1 0.012483 -0.003307 -0.002906 0.000000 0.000000 0.000000
# 2 -0.003307 0.012231 -0.003779 0.000000 0.000000 0.000000
# 3 -0.002906 -0.003779 0.012906 0.000000 0.000000 0.000000
# 4 0.000000 0.000000 0.000000 0.027633 0.000000 0.000000
# 5 0.000000 0.000000 0.000000 0.000000 0.026163 0.000000
# 6 0.000000 0.000000 0.000000 0.000000 0.000000 0.030260
#
#
# Mechanical properties :
#
#
# Convention : Reuss Voigt Hill
#
# Bulk Modulus (GPa) = 56.69675 56.85845 56.77760
# Shear Modulus (GPa) = 33.88945 34.12252 34.00598
#
# Velocity S-wave (km/s) = 4.11816 4.13230 4.12524
# Velocity P-wave (km/s) = 7.14038 7.15692 7.14865
#
# Compressibility (1/GPa) = 0.01763770
#
# Stress axis : x y z
#
# Youngs Moduli (GPa) = 80.10987 81.75698 77.48303
#
# Poissons Ratio (x) = 0.27034 0.22516
# Poissons Ratio (y) = 0.26489 0.29278
# Poissons Ratio (z) = 0.23280 0.30893
#
# Static dielectric constant tensor:
#      x y z
#    x 3.730130 0.000000 0.000000 
#    y 0.000000 3.536850 0.000000 
#    z 0.000000 0.000000 3.728400 
# 
# 
# High freq. dielectric constant tensor:
#      x y z
#    x 1.796360 0.000000 0.000000 
#    y 0.000000 1.771830 0.000000 
#    z 0.000000 0.000000 1.794300 
# 
# From -- ./inp_files/23667.got.cif
#   From: 2010.03.12/outbox.cif.g09.slc.cpg/sg62_12_cif.got.tgz:23667.got - 2010.04.10 19:12:36.
