data_PCOD8254739
_publ_section_title
;
Structure prediction by ZEFSAII (Michael W. Deem and Ramdas Pophale) SiO2 
 PCOD8254739
Probable space group: P N M A
;
_chemical_formula_sum "Si O2"
_cell_formula_units_Z 48
_cell_length_a 18.923408
_cell_length_b 10.449128
_cell_length_c 13.197118
_cell_angle_alpha 90.000000
_cell_angle_beta 90.000000
_cell_angle_gamma 90.000000
_cell_volume 2609.507217
_symmetry_space_group_name_H-M "P N M A"
_symmetry_group_IT_number 62
_symmetry_cell_setting 'orthorhombic'
loop_
_space_group_symop_operation_xyz
x,y,z
1/2-x,-y,1/2+z
1/2+x,1/2-y,1/2-z
-x,1/2+y,-z
-x,-y,-z
1/2+x,y,1/2-z
1/2-x,1/2+y,1/2+z
x,1/2-y,z
loop_
_atom_site_type_symbol
_atom_site_label
_atom_site_fract_x
_atom_site_fract_y
_atom_site_fract_z
Si Si1 0.866244 0.250000 0.158249
Si Si2 0.411854 0.106954 0.031391
Si Si3 0.980070 0.392537 0.867504
Si Si4 0.352795 0.750000 0.543378
Si Si5 0.466972 0.996441 0.837389
Si Si6 0.967756 0.750000 0.787651
Si Si7 0.610799 0.512044 0.535497
Si Si8 0.297290 0.250000 0.128951
O O1 0.846316 0.376894 0.093525
O O2 0.814823 0.250000 0.253219
O O3 0.948332 0.250000 0.192168
O O4 0.446700 0.250000 0.021939
O O5 0.457141 0.022192 0.109342
O O6 0.332299 0.123594 0.075468
O O7 0.409733 0.037494 0.922210
O O8 0.000652 0.250000 0.903544
O O9 0.971227 0.391812 0.746277
O O10 0.040125 0.492779 0.898414
O O11 0.908194 0.436747 0.923131
O O12 0.426174 0.750000 0.605716
O O13 0.347607 0.622664 0.473376
O O14 0.286393 0.750000 0.618620
O O15 0.442627 0.870452 0.778022
#
# Coordination Sequence:
#
# PCOD8254739 Si02
#       8
#     4   8   8   4   8   4   8   4
#     4  12  20  42  67  85 116 163 199 251 313 360
#     4   9  19  36  55  80 110 161 195 244 292 354
#     4  11  19  30  53  90 122 142 177 253 310 344
#     4  12  24  40  57  89 124 158 201 248 298 375
#     4  11  18  31  59  86 114 144 205 246 297 340
#     4  12  18  34  60  89 116 148 198 255 293 354
#     4  11  21  34  57  87 120 150 193 240 300 367
#     4  10  22  44  58  77 124 171 194 236 322 367
#
# _framework density 18.394276999999999
#
# number of rings (size 3 to 8) (size 9 to 14) (size 15 to 20)
#    0.500    0.667    7.500    1.500    0.000    0.000 
#    3.000    0.000    0.000    1.000    0.000    0.000 
#    0.000    0.000    0.000    0.000    0.000    0.000 
#
# Total GULP energy -594977.983992 kJ/mol
# GULP energy per Si atom -12395.374667 kJ/mol
# Density = 1.835241 g / cm^3
# Si number density = 18.394277 Si / 1000 Ang^3
#
#
#
# Elastic Constant Matrix: (Units=GPa)
#
#
# Indices 1 2 3 4 5 6 
#
# 1 49.4149 11.1038 22.4964 0.0000 0.0000 0.0000
# 2 11.1038 114.3568 40.6940 0.0000 0.0000 0.0000
# 3 22.4964 40.6940 121.0365 0.0000 0.0000 0.0000
# 4 0.0000 0.0000 0.0000 37.5564 0.0000 0.0000
# 5 0.0000 0.0000 0.0000 0.0000 15.0890 0.0000
# 6 0.0000 0.0000 0.0000 0.0000 0.0000 11.7097
#
#
#
# Elastic Compliance Matrix: (Units=1/GPa)
#
#
# Indices 1 2 3 4 5 6 
#
# 1 0.022168 -0.000780 -0.003858 0.000000 0.000000 0.000000
# 2 -0.000780 0.009960 -0.003204 0.000000 0.000000 0.000000
# 3 -0.003858 -0.003204 0.010056 0.000000 0.000000 0.000000
# 4 0.000000 0.000000 0.000000 0.026627 0.000000 0.000000
# 5 0.000000 0.000000 0.000000 0.000000 0.066273 0.000000
# 6 0.000000 0.000000 0.000000 0.000000 0.000000 0.085399
#
#
# Mechanical properties :
#
#
# Convention : Reuss Voigt Hill
#
# Bulk Modulus (GPa) = 37.73341 48.15518 42.94430
# Shear Modulus (GPa) = 20.40802 26.90529 23.65666
#
# Velocity S-wave (km/s) = 3.33449 3.82867 3.59010
# Velocity P-wave (km/s) = 5.94839 6.76619 6.37042
#
# Compressibility (1/GPa) = 0.02650171
#
# Stress axis : x y z
#
# Youngs Moduli (GPa) = 45.10911 100.39795 99.44040
#
# Poissons Ratio (x) = 0.07826 0.38367
# Poissons Ratio (y) = 0.03516 0.31860
# Poissons Ratio (z) = 0.17404 0.32167
#
# Static dielectric constant tensor:
#      x y z
#    x 2.765530 0.000000 0.000000 
#    y 0.000000 3.548850 0.000000 
#    z 0.000000 0.000000 3.498450 
# 
# 
# High freq. dielectric constant tensor:
#      x y z
#    x 1.645900 0.000000 0.000000 
#    y 0.000000 1.723880 0.000000 
#    z 0.000000 0.000000 1.727040 
# 
# From -- ./inp_files/14761.got.cif
#   From: 2010.03.12/outbox.cif.g09.slc.cpg/sg62_8_cif.got.tgz:14761.got - 2010.04.10 19:12:36.
