data_PCOD8254806
_publ_section_title
;
Structure prediction by ZEFSAII (Michael W. Deem and Ramdas Pophale) SiO2 
 PCOD8254806
Probable space group: P N M A
;
_chemical_formula_sum "Si O2"
_cell_formula_units_Z 64
_cell_length_a 11.602697
_cell_length_b 14.856914
_cell_length_c 15.995469
_cell_angle_alpha 90.000000
_cell_angle_beta 90.000000
_cell_angle_gamma 90.000000
_cell_volume 2757.303289
_symmetry_space_group_name_H-M "P N M A"
_symmetry_group_IT_number 62
_symmetry_cell_setting 'orthorhombic'
loop_
_space_group_symop_operation_xyz
x,y,z
1/2-x,-y,1/2+z
1/2+x,1/2-y,1/2-z
-x,1/2+y,-z
-x,-y,-z
1/2+x,y,1/2-z
1/2-x,1/2+y,1/2+z
x,1/2-y,z
loop_
_atom_site_type_symbol
_atom_site_label
_atom_site_fract_x
_atom_site_fract_y
_atom_site_fract_z
Si Si1 0.202373 0.932622 0.804007
Si Si2 0.635041 0.922920 0.132338
Si Si3 0.367366 0.515801 0.564415
Si Si4 0.491765 0.647349 0.986219
Si Si5 0.190092 0.850769 0.630484
Si Si6 0.874475 0.651162 0.071768
Si Si7 0.224273 0.647430 0.971780
Si Si8 0.998741 0.935845 0.207187
O O1 0.219795 0.865495 0.727404
O O2 0.160866 0.873850 0.883416
O O3 0.318955 0.978707 0.840345
O O4 0.115474 0.008120 0.768189
O O5 0.743519 0.862819 0.103745
O O6 0.566217 0.891215 0.215390
O O7 0.543439 0.921450 0.056039
O O8 0.257826 0.581310 0.571237
O O9 0.428596 0.569589 0.486735
O O10 0.330204 0.415090 0.542257
O O11 0.428858 0.509822 0.653655
O O12 0.506639 0.750000 0.019824
O O13 0.556497 0.636534 0.896527
O O14 0.359711 0.625775 0.968327
O O15 0.231273 0.750000 0.609098
O O16 0.884216 0.750000 0.030063
O O17 0.958619 0.648488 0.151479
O O18 0.199012 0.750000 0.996758
#
# Coordination Sequence:
#
# PCOD8254806 Si02
#       8
#     8   8   8   8   8   8   8   8
#     4  11  24  43  64  97 137 173 216 276 335 400
#     4  11  22  42  68  96 132 174 223 278 332 391
#     4  12  23  44  69  95 137 173 226 272 325 410
#     4  10  23  41  68 101 130 174 231 276 333 396
#     4  11  23  41  70 102 133 173 223 275 330 397
#     4  11  24  44  69  97 132 178 228 277 335 398
#     4  11  25  44  68 100 135 174 222 280 336 395
#     4  11  26  43  65  99 134 180 223 271 342 397
#
# _framework density 23.211086999999999
#
# number of rings (size 3 to 8) (size 9 to 14) (size 15 to 20)
#    0.000    1.000    5.000    1.500    3.500    2.500 
#    0.000    3.125    0.000    0.000    0.000    0.000 
#    0.000    0.000    0.000    0.000    0.000    0.000 
#
# Total GULP energy -793077.140109 kJ/mol
# GULP energy per Si atom -12391.830314 kJ/mol
# Density = 2.315826 g / cm^3
# Si number density = 23.211087 Si / 1000 Ang^3
#
#
#
# Elastic Constant Matrix: (Units=GPa)
#
#
# Indices 1 2 3 4 5 6 
#
# 1 41.3375 11.4808 17.3379 0.0000 0.0000 0.0000
# 2 11.4808 107.9613 36.6959 0.0000 0.0000 0.0000
# 3 17.3379 36.6959 118.1501 0.0000 0.0000 0.0000
# 4 0.0000 0.0000 0.0000 8.2134 0.0000 0.0000
# 5 0.0000 0.0000 0.0000 0.0000 40.9926 0.0000
# 6 0.0000 0.0000 0.0000 0.0000 0.0000 16.7539
#
#
#
# Elastic Compliance Matrix: (Units=1/GPa)
#
#
# Indices 1 2 3 4 5 6 
#
# 1 0.026036 -0.001644 -0.003310 0.000000 0.000000 0.000000
# 2 -0.001644 0.010460 -0.003007 0.000000 0.000000 0.000000
# 3 -0.003310 -0.003007 0.009884 0.000000 0.000000 0.000000
# 4 0.000000 0.000000 0.000000 0.121752 0.000000 0.000000
# 5 0.000000 0.000000 0.000000 0.000000 0.024395 0.000000
# 6 0.000000 0.000000 0.000000 0.000000 0.000000 0.059688
#
#
# Mechanical properties :
#
#
# Convention : Reuss Voigt Hill
#
# Bulk Modulus (GPa) = 32.83340 44.27535 38.55438
# Shear Modulus (GPa) = 17.96704 26.65428 22.31066
#
# Velocity S-wave (km/s) = 2.78523 3.39240 3.10370
# Velocity P-wave (km/s) = 4.95173 5.87035 5.43050
#
# Compressibility (1/GPa) = 0.03045679
#
# Stress axis : x y z
#
# Youngs Moduli (GPa) = 38.40846 95.60619 101.17751
#
# Poissons Ratio (x) = 0.15714 0.33491
# Poissons Ratio (y) = 0.06313 0.30428
# Poissons Ratio (z) = 0.12714 0.28753
#
# Static dielectric constant tensor:
#      x y z
#    x 4.182070 0.000000 0.000000 
#    y 0.000000 4.043610 0.000000 
#    z 0.000000 0.000000 4.162420 
# 
# 
# High freq. dielectric constant tensor:
#      x y z
#    x 1.919890 0.000000 0.000000 
#    y 0.000000 1.910820 0.000000 
#    z 0.000000 0.000000 1.917540 
# 
# From -- ./inp_files/23236.got.cif
#   From: 2010.03.12/outbox.cif.g09.slc.cpg/sg62_12_cif.got.tgz:23236.got - 2010.04.10 19:12:36.
