data_PCOD8254954
_publ_section_title
;
Structure prediction by ZEFSAII (Michael W. Deem and Ramdas Pophale) SiO2 
 PCOD8254954
Probable space group: P N M A
;
_chemical_formula_sum "Si O2"
_cell_formula_units_Z 48
_cell_length_a 17.838048
_cell_length_b 22.387812
_cell_length_c 5.454604
_cell_angle_alpha 90.000000
_cell_angle_beta 90.000000
_cell_angle_gamma 90.000000
_cell_volume 2178.322644
_symmetry_space_group_name_H-M "P N M A"
_symmetry_group_IT_number 62
_symmetry_cell_setting 'orthorhombic'
loop_
_space_group_symop_operation_xyz
x,y,z
1/2-x,-y,1/2+z
1/2+x,1/2-y,1/2-z
-x,1/2+y,-z
-x,-y,-z
1/2+x,y,1/2-z
1/2-x,1/2+y,1/2+z
x,1/2-y,z
loop_
_atom_site_type_symbol
_atom_site_label
_atom_site_fract_x
_atom_site_fract_y
_atom_site_fract_z
Si Si1 0.321596 0.032931 0.832254
Si Si2 0.672424 0.682015 0.814795
Si Si3 0.899632 0.140350 0.826752
Si Si4 0.542130 0.094662 0.525709
Si Si5 0.444533 0.024231 0.201402
Si Si6 0.200426 0.407953 0.104430
O O1 0.367342 0.071957 0.630614
O O2 0.316642 0.962471 0.789613
O O3 0.364593 0.043277 0.090662
O O4 0.239277 0.062281 0.864496
O O5 0.699175 0.750000 0.835804
O O6 0.621499 0.677564 0.569411
O O7 0.746477 0.641784 0.775724
O O8 0.631223 0.666948 0.072469
O O9 0.991078 0.135356 0.792943
O O10 0.483354 0.084438 0.303235
O O11 0.621463 0.125419 0.458504
O O12 0.567955 0.028527 0.605250
O O13 0.500000 0.000000 0.000000
#
# Coordination Sequence:
#
# PCOD8254954 Si02
#       6
#     8   8   8   8   8   8
#     4  11  20  37  59  99 133 174 201 246 330 388
#     4  11  26  48  67  89 121 172 219 272 329 385
#     4  11  23  42  70  90 125 167 218 263 315 395
#     4  11  21  35  57  97 127 173 213 260 316 375
#     4  11  19  34  56  87 145 176 198 247 304 400
#     4  11  22  35  62  96 133 162 209 261 315 389
#
# _framework density 22.035304
#
# number of rings (size 3 to 8) (size 9 to 14) (size 15 to 20)
#    0.000    1.000    3.333    5.500    0.000    1.333 
#    0.000    1.667    0.000    0.000    0.000    0.000 
#    0.000    0.000    0.000    0.000    0.000    0.000 
#
# Total GULP energy -594771.849428 kJ/mol
# GULP energy per Si atom -12391.080196 kJ/mol
# Density = 2.198515 g / cm^3
# Si number density = 22.035304 Si / 1000 Ang^3
#
#
#
# Elastic Constant Matrix: (Units=GPa)
#
#
# Indices 1 2 3 4 5 6 
#
# 1 163.0037 39.9015 34.7888 0.0000 0.0000 0.0000
# 2 39.9015 105.8118 23.5714 0.0000 0.0000 0.0000
# 3 34.7888 23.5714 89.0314 0.0000 0.0000 0.0000
# 4 0.0000 0.0000 0.0000 25.4191 0.0000 0.0000
# 5 0.0000 0.0000 0.0000 0.0000 31.6653 0.0000
# 6 0.0000 0.0000 0.0000 0.0000 0.0000 18.8675
#
#
#
# Elastic Compliance Matrix: (Units=1/GPa)
#
#
# Indices 1 2 3 4 5 6 
#
# 1 0.007145 -0.002202 -0.002209 0.000000 0.000000 0.000000
# 2 -0.002202 0.010722 -0.001978 0.000000 0.000000 0.000000
# 3 -0.002209 -0.001978 0.012619 0.000000 0.000000 0.000000
# 4 0.000000 0.000000 0.000000 0.039340 0.000000 0.000000
# 5 0.000000 0.000000 0.000000 0.000000 0.031580 0.000000
# 6 0.000000 0.000000 0.000000 0.000000 0.000000 0.053001
#
#
# Mechanical properties :
#
#
# Convention : Reuss Voigt Hill
#
# Bulk Modulus (GPa) = 56.47404 61.59671 59.03537
# Shear Modulus (GPa) = 28.88680 32.49605 30.69143
#
# Velocity S-wave (km/s) = 3.62461 3.84438 3.73611
# Velocity P-wave (km/s) = 6.57279 6.90797 6.74246
#
# Compressibility (1/GPa) = 0.01770725
#
# Stress axis : x y z
#
# Youngs Moduli (GPa) = 139.95005 93.26674 79.24658
#
# Poissons Ratio (x) = 0.20542 0.17505
# Poissons Ratio (y) = 0.30823 0.15676
# Poissons Ratio (z) = 0.30914 0.18449
#
# Static dielectric constant tensor:
#      x y z
#    x 4.396650 0.000000 0.000000 
#    y 0.000000 4.012270 0.000000 
#    z 0.000000 0.000000 4.217250 
# 
# 
# High freq. dielectric constant tensor:
#      x y z
#    x 1.882130 0.000000 0.000000 
#    y 0.000000 1.822160 0.000000 
#    z 0.000000 0.000000 1.866700 
# 
# From -- ./inp_files/1706.got.cif
#   From: 2010.03.12/outbox.cif.g09.slc.cpg/sg62_1_cif.got.tgz:1706.got - 2010.04.10 19:12:36.
