data_PCOD8254120
_publ_section_title
;
Structure prediction by ZEFSAII (Michael W. Deem and Ramdas Pophale) SiO2 
 PCOD8254120
Probable space group: P N M A
;
_chemical_formula_sum "Si O2"
_cell_formula_units_Z 48
_cell_length_a 16.148233
_cell_length_b 12.854131
_cell_length_c 11.100118
_cell_angle_alpha 90.000000
_cell_angle_beta 90.000000
_cell_angle_gamma 90.000000
_cell_volume 2304.068170
_symmetry_space_group_name_H-M "P N M A"
_symmetry_group_IT_number 62
_symmetry_cell_setting 'orthorhombic'
loop_
_space_group_symop_operation_xyz
x,y,z
1/2-x,-y,1/2+z
1/2+x,1/2-y,1/2-z
-x,1/2+y,-z
-x,-y,-z
1/2+x,y,1/2-z
1/2-x,1/2+y,1/2+z
x,1/2-y,z
loop_
_atom_site_type_symbol
_atom_site_label
_atom_site_fract_x
_atom_site_fract_y
_atom_site_fract_z
Si Si1 0.905586 0.028218 0.972143
Si Si2 0.707785 0.947537 0.690753
Si Si3 0.868970 0.631067 0.320412
Si Si4 0.233594 0.133808 0.076037
Si Si5 0.051579 0.865821 0.263811
Si Si6 0.356505 0.501977 0.943339
O O1 0.852014 0.930892 0.923947
O O2 0.903826 0.110501 0.862913
O O3 0.863101 0.078283 0.091776
O O4 0.000000 0.000000 0.000000
O O5 0.697531 0.066022 0.742767
O O6 0.799487 0.925709 0.640079
O O7 0.708615 0.870187 0.804089
O O8 0.837908 0.750000 0.341649
O O9 0.887874 0.572694 0.446821
O O10 0.953075 0.630561 0.243523
O O11 0.207021 0.250000 0.045944
O O12 0.293266 0.090941 0.973602
O O13 0.078539 0.750000 0.305381
O O14 0.069359 0.950869 0.367879
#
# Coordination Sequence:
#
# PCOD8254120 Si02
#       6
#     8   8   8   8   8   8
#     4  11  22  40  63  89 125 162 202 259 305 367
#     4  10  21  39  61  87 124 157 200 255 302 361
#     4  10  22  39  64  90 120 161 201 249 308 367
#     4  10  22  40  62  88 120 162 202 250 313 364
#     4  11  22  39  63  91 121 159 204 249 307 369
#     4  10  21  40  60  89 120 157 202 254 297 359
#
# _framework density 20.832718
#
# number of rings (size 3 to 8) (size 9 to 14) (size 15 to 20)
#    0.000    1.667    3.333    1.000    0.000    5.333 
#    0.000    0.000    0.000    0.000    0.000    0.000 
#    0.000    0.000    0.000    0.000    0.000    0.000 
#
# Total GULP energy -594772.343419 kJ/mol
# GULP energy per Si atom -12391.090488 kJ/mol
# Density = 2.078530 g / cm^3
# Si number density = 20.832718 Si / 1000 Ang^3
#
#
#
# Elastic Constant Matrix: (Units=GPa)
#
#
# Indices 1 2 3 4 5 6 
#
# 1 72.9034 9.8036 4.4424 0.0000 0.0000 0.0000
# 2 9.8036 71.2304 11.1840 0.0000 0.0000 0.0000
# 3 4.4424 11.1840 82.3560 0.0000 0.0000 0.0000
# 4 0.0000 0.0000 0.0000 17.0040 0.0000 0.0000
# 5 0.0000 0.0000 0.0000 0.0000 40.0752 0.0000
# 6 0.0000 0.0000 0.0000 0.0000 0.0000 23.5197
#
#
#
# Elastic Compliance Matrix: (Units=1/GPa)
#
#
# Indices 1 2 3 4 5 6 
#
# 1 0.013996 -0.001847 -0.000504 0.000000 0.000000 0.000000
# 2 -0.001847 0.014589 -0.001882 0.000000 0.000000 0.000000
# 3 -0.000504 -0.001882 0.012425 0.000000 0.000000 0.000000
# 4 0.000000 0.000000 0.000000 0.058810 0.000000 0.000000
# 5 0.000000 0.000000 0.000000 0.000000 0.024953 0.000000
# 6 0.000000 0.000000 0.000000 0.000000 0.000000 0.042518
#
#
# Mechanical properties :
#
#
# Convention : Reuss Voigt Hill
#
# Bulk Modulus (GPa) = 30.72756 30.81666 30.77211
# Shear Modulus (GPa) = 26.79480 29.52377 28.15929
#
# Velocity S-wave (km/s) = 3.59024 3.76863 3.68052
# Velocity P-wave (km/s) = 5.65403 5.81045 5.73278
#
# Compressibility (1/GPa) = 0.03254407
#
# Stress axis : x y z
#
# Youngs Moduli (GPa) = 71.44955 68.54672 80.48224
#
# Poissons Ratio (x) = 0.12662 0.04057
# Poissons Ratio (y) = 0.13198 0.15143
# Poissons Ratio (z) = 0.03602 0.12897
#
# Static dielectric constant tensor:
#      x y z
#    x 3.711130 0.000000 0.000000 
#    y 0.000000 3.537760 0.000000 
#    z 0.000000 0.000000 4.088340 
# 
# 
# High freq. dielectric constant tensor:
#      x y z
#    x 1.812220 0.000000 0.000000 
#    y 0.000000 1.789810 0.000000 
#    z 0.000000 0.000000 1.832220 
# 
# From -- ./inp_files/14102.got.cif
#   From: 2010.03.12/outbox.cif.g09.slc.cpg/sg62_8_cif.got.tgz:14102.got - 2010.04.10 19:12:36.
