data_PCOD8254533
_publ_section_title
;
Structure prediction by ZEFSAII (Michael W. Deem and Ramdas Pophale) SiO2 
 PCOD8254533
Probable space group: P N M A
;
_chemical_formula_sum "Si O2"
_cell_formula_units_Z 48
_cell_length_a 27.626696
_cell_length_b 9.240130
_cell_length_c 9.589307
_cell_angle_alpha 90.000000
_cell_angle_beta 90.000000
_cell_angle_gamma 90.000000
_cell_volume 2447.903272
_symmetry_space_group_name_H-M "P N M A"
_symmetry_group_IT_number 62
_symmetry_cell_setting 'orthorhombic'
loop_
_space_group_symop_operation_xyz
x,y,z
1/2-x,-y,1/2+z
1/2+x,1/2-y,1/2-z
-x,1/2+y,-z
-x,-y,-z
1/2+x,y,1/2-z
1/2-x,1/2+y,1/2+z
x,1/2-y,z
loop_
_atom_site_type_symbol
_atom_site_label
_atom_site_fract_x
_atom_site_fract_y
_atom_site_fract_z
Si Si1 0.895881 0.914388 0.697388
Si Si2 0.949022 0.920593 0.981530
Si Si3 0.794702 0.079022 0.351202
Si Si4 0.548248 0.587813 0.982082
Si Si5 0.394226 0.413268 0.289374
Si Si6 0.288294 0.583711 0.858506
O O1 0.907707 0.750000 0.653585
O O2 0.927574 0.957420 0.830598
O O3 0.838852 0.934703 0.724427
O O4 0.908721 0.018415 0.570284
O O5 0.956545 0.750000 0.003751
O O6 0.908937 0.978039 0.088768
O O7 0.000000 0.000000 0.000000
O O8 0.793880 0.250000 0.376129
O O9 0.845316 0.029738 0.282903
O O10 0.752707 0.027003 0.246574
O O11 0.786871 0.005795 0.499722
O O12 0.539662 0.750000 0.036003
O O13 0.562195 0.586884 0.820689
O O14 0.500000 0.500000 0.000000
O O15 0.386952 0.250000 0.348062
O O16 0.279002 0.750000 0.898847
#
# Coordination Sequence:
#
# PCOD8254533 Si02
#       6
#     8   8   8   8   8   8
#     4  10  22  40  59  85 120 154 196 246 293 349
#     4  11  24  40  60  88 120 160 202 247 298 354
#     4  10  22  41  63  90 123 156 196 246 298 355
#     4  11  22  37  60  88 116 154 196 243 298 353
#     4  10  22  40  59  85 121 156 195 245 295 351
#     4  10  22  40  63  90 120 155 196 244 297 354
#
# _framework density 19.608619000000001
#
# number of rings (size 3 to 8) (size 9 to 14) (size 15 to 20)
#    0.000    1.667    1.667    2.000    2.333    8.000 
#    0.000    0.000    0.000    0.000    0.000    0.000 
#    0.000    0.000    0.000    0.000    0.000    0.000 
#
# Total GULP energy -595368.735456 kJ/mol
# GULP energy per Si atom -12403.515322 kJ/mol
# Density = 1.956399 g / cm^3
# Si number density = 19.608619 Si / 1000 Ang^3
#
#
#
# Elastic Constant Matrix: (Units=GPa)
#
#
# Indices 1 2 3 4 5 6 
#
# 1 110.7627 35.8933 33.5622 0.0000 0.0000 0.0000
# 2 35.8933 87.0398 47.7015 0.0000 0.0000 0.0000
# 3 33.5622 47.7015 90.6817 0.0000 0.0000 0.0000
# 4 0.0000 0.0000 0.0000 37.7697 0.0000 0.0000
# 5 0.0000 0.0000 0.0000 0.0000 39.9505 0.0000
# 6 0.0000 0.0000 0.0000 0.0000 0.0000 31.5022
#
#
#
# Elastic Compliance Matrix: (Units=1/GPa)
#
#
# Indices 1 2 3 4 5 6 
#
# 1 0.010756 -0.003167 -0.002315 0.000000 0.000000 0.000000
# 2 -0.003167 0.017075 -0.007810 0.000000 0.000000 0.000000
# 3 -0.002315 -0.007810 0.015993 0.000000 0.000000 0.000000
# 4 0.000000 0.000000 0.000000 0.026476 0.000000 0.000000
# 5 0.000000 0.000000 0.000000 0.000000 0.025031 0.000000
# 6 0.000000 0.000000 0.000000 0.000000 0.000000 0.031744
#
#
# Mechanical properties :
#
#
# Convention : Reuss Voigt Hill
#
# Bulk Modulus (GPa) = 58.00419 58.08869 58.04644
# Shear Modulus (GPa) = 31.36655 33.26628 32.31641
#
# Velocity S-wave (km/s) = 4.00388 4.12334 4.06405
# Velocity P-wave (km/s) = 7.14282 7.23586 7.18949
#
# Compressibility (1/GPa) = 0.01724013
#
# Stress axis : x y z
#
# Youngs Moduli (GPa) = 92.97121 58.56467 62.52833
#
# Poissons Ratio (x) = 0.18546 0.14476
# Poissons Ratio (y) = 0.29442 0.48835
# Poissons Ratio (z) = 0.21524 0.45739
#
# Static dielectric constant tensor:
#      x y z
#    x 3.769830 0.000000 0.000000 
#    y 0.000000 3.512630 0.000000 
#    z 0.000000 0.000000 3.750640 
# 
# 
# High freq. dielectric constant tensor:
#      x y z
#    x 1.780900 0.000000 0.000000 
#    y 0.000000 1.764200 0.000000 
#    z 0.000000 0.000000 1.762660 
# 
# From -- ./inp_files/10242.got.cif
#   From: 2010.03.12/outbox.cif.g09.slc.cpg/sg62_6_cif.got.tgz:10242.got - 2010.04.10 19:12:36.
