data_PCOD8254523
_publ_section_title
;
Structure prediction by ZEFSAII (Michael W. Deem and Ramdas Pophale) SiO2 
 PCOD8254523
Probable space group: P N M A
;
_chemical_formula_sum "Si O2"
_cell_formula_units_Z 40
_cell_length_a 10.122766
_cell_length_b 27.751713
_cell_length_c 4.835595
_cell_angle_alpha 90.000000
_cell_angle_beta 90.000000
_cell_angle_gamma 90.000000
_cell_volume 1358.435158
_symmetry_space_group_name_H-M "P N M A"
_symmetry_group_IT_number 62
_symmetry_cell_setting 'orthorhombic'
loop_
_space_group_symop_operation_xyz
x,y,z
1/2-x,-y,1/2+z
1/2+x,1/2-y,1/2-z
-x,1/2+y,-z
-x,-y,-z
1/2+x,y,1/2-z
1/2-x,1/2+y,1/2+z
x,1/2-y,z
loop_
_atom_site_type_symbol
_atom_site_label
_atom_site_fract_x
_atom_site_fract_y
_atom_site_fract_z
Si Si1 0.236953 0.893332 0.687661
Si Si2 0.928599 0.750000 0.831866
Si Si3 0.162536 0.750000 0.447306
Si Si4 0.409796 0.169268 0.584290
Si Si5 0.085024 0.090047 0.690932
Si Si6 0.335093 0.008193 0.317116
O O1 0.294914 0.888229 0.379821
O O2 0.129441 0.937865 0.707575
O O3 0.364926 0.906239 0.877124
O O4 0.165499 0.845545 0.801100
O O5 0.009912 0.750000 0.547481
O O6 0.769080 0.750000 0.800063
O O7 0.965034 0.798432 0.999050
O O8 0.187891 0.797853 0.265976
O O9 0.454358 0.122689 0.766733
O O10 0.052814 0.033862 0.780133
O O11 0.289626 0.010596 0.634301
#
# Coordination Sequence:
#
# PCOD8254523 Si02
#       6
#     8   4   4   8   8   8
#     4  10  22  39  66  99 144 185 239 289 359 428
#     4  11  28  48  77  98 148 186 246 308 378 443
#     4  11  28  52  71 110 140 194 240 312 378 441
#     4  11  26  43  71 103 138 186 246 307 366 436
#     4  10  22  39  67  98 144 185 239 290 357 429
#     4   8  16  35  58  94 137 189 226 285 349 423
#
# _framework density 29.445647000000001
#
# number of rings (size 3 to 8) (size 9 to 14) (size 15 to 20)
#    0.000    2.000    0.000    1.200    8.400    4.000 
#    0.000    0.000    0.000   14.400    0.000    0.000 
#    0.000    0.000    0.000    0.000    0.000    0.000 
#
# Total GULP energy -495945.633889 kJ/mol
# GULP energy per Si atom -12398.640847 kJ/mol
# Density = 2.937863 g / cm^3
# Si number density = 29.445647 Si / 1000 Ang^3
#
#
#
# Elastic Constant Matrix: (Units=GPa)
#
#
# Indices 1 2 3 4 5 6 
#
# 1 72.5963 8.9315 -12.8860 0.0000 0.0000 0.0000
# 2 8.9315 136.8796 -18.6104 0.0000 0.0000 0.0000
# 3 -12.8860 -18.6104 48.0736 0.0000 0.0000 0.0000
# 4 0.0000 0.0000 0.0000 34.6427 0.0000 0.0000
# 5 0.0000 0.0000 0.0000 0.0000 17.8554 0.0000
# 6 0.0000 0.0000 0.0000 0.0000 0.0000 17.3675
#
#
#
# Elastic Compliance Matrix: (Units=1/GPa)
#
#
# Indices 1 2 3 4 5 6 
#
# 1 0.014488 -0.000441 0.003713 0.000000 0.000000 0.000000
# 2 -0.000441 0.007725 0.002872 0.000000 0.000000 0.000000
# 3 0.003713 0.002872 0.022909 0.000000 0.000000 0.000000
# 4 0.000000 0.000000 0.000000 0.028866 0.000000 0.000000
# 5 0.000000 0.000000 0.000000 0.000000 0.056005 0.000000
# 6 0.000000 0.000000 0.000000 0.000000 0.000000 0.057579
#
#
# Mechanical properties :
#
#
# Convention : Reuss Voigt Hill
#
# Bulk Modulus (GPa) = 17.41813 23.60216 20.51015
# Shear Modulus (GPa) = 25.71756 32.64740 29.18248
#
# Velocity S-wave (km/s) = 2.95853 3.33338 3.15153
# Velocity P-wave (km/s) = 4.19508 4.77997 4.49704
#
# Compressibility (1/GPa) = 0.05741145
#
# Stress axis : x y z
#
# Youngs Moduli (GPa) = 69.02230 129.45016 43.65156
#
# Poissons Ratio (x) = 0.05703 -0.16208
# Poissons Ratio (y) = 0.03041 -0.12539
# Poissons Ratio (z) = -0.25628 -0.37184
#
# Static dielectric constant tensor:
#      x y z
#    x 4.552630 0.000000 0.000000 
#    y 0.000000 5.924650 0.000000 
#    z 0.000000 0.000000 5.242750 
# 
# 
# High freq. dielectric constant tensor:
#      x y z
#    x 2.164510 0.000000 0.000000 
#    y 0.000000 2.223780 0.000000 
#    z 0.000000 0.000000 2.204120 
# 
# From -- ./inp_files/629.got.cif
#   From: 2010.03.12/outbox.cif.g09.slc.cpg/sg62_1_cif.got.tgz:629.got - 2010.04.10 19:12:36.
