data_PCOD8254162
_publ_section_title
;
Structure prediction by ZEFSAII (Michael W. Deem and Ramdas Pophale) SiO2 
 PCOD8254162
Probable space group: P N M A
;
_chemical_formula_sum "Si O2"
_cell_formula_units_Z 48
_cell_length_a 9.155574
_cell_length_b 27.927222
_cell_length_c 9.360306
_cell_angle_alpha 90.000000
_cell_angle_beta 90.000000
_cell_angle_gamma 90.000000
_cell_volume 2393.334279
_symmetry_space_group_name_H-M "P N M A"
_symmetry_group_IT_number 62
_symmetry_cell_setting 'orthorhombic'
loop_
_space_group_symop_operation_xyz
x,y,z
1/2-x,-y,1/2+z
1/2+x,1/2-y,1/2-z
-x,1/2+y,-z
-x,-y,-z
1/2+x,y,1/2-z
1/2-x,1/2+y,1/2+z
x,1/2-y,z
loop_
_atom_site_type_symbol
_atom_site_label
_atom_site_fract_x
_atom_site_fract_y
_atom_site_fract_z
Si Si1 0.091564 0.499821 0.356422
Si Si2 0.888049 0.855049 0.366716
Si Si3 0.881739 0.942597 0.163873
Si Si4 0.996841 0.625418 0.928319
Si Si5 0.590917 0.694195 0.337507
Si Si6 0.322180 0.608234 0.835549
O O1 0.231054 0.533209 0.381882
O O2 0.141849 0.447164 0.315261
O O3 0.000000 0.500000 0.500000
O O4 0.994335 0.518763 0.225902
O O5 0.843574 0.902943 0.282618
O O6 0.762001 0.815591 0.349952
O O7 0.910306 0.869278 0.531251
O O8 0.035835 0.831478 0.307503
O O9 0.955794 0.920126 0.024464
O O10 0.150250 0.615010 0.852333
O O11 0.875629 0.635217 0.807460
O O12 0.004864 0.672628 0.026609
O O13 0.558693 0.750000 0.331160
#
# Coordination Sequence:
#
# PCOD8254162 Si02
#       6
#     8   8   8   8   8   8
#     4  12  25  37  62  89 124 165 215 247 284 355
#     4  10  21  39  63  88 121 150 198 249 306 355
#     4  11  24  42  59  89 123 168 205 251 291 353
#     4  10  25  41  62  85 128 159 200 252 312 360
#     4  10  21  41  65  90 115 154 199 250 306 376
#     4  11  23  39  58  91 121 165 198 248 303 346
#
# _framework density 20.055702
#
# number of rings (size 3 to 8) (size 9 to 14) (size 15 to 20)
#    0.000    1.333    1.667    4.500    4.667    2.667 
#    0.000    4.167    0.000    0.000    0.000    0.000 
#    0.000    0.000    0.000    0.000    0.000    0.000 
#
# Total GULP energy -595456.539219 kJ/mol
# GULP energy per Si atom -12405.344567 kJ/mol
# Density = 2.001005 g / cm^3
# Si number density = 20.055702 Si / 1000 Ang^3
#
#
#
# Elastic Constant Matrix: (Units=GPa)
#
#
# Indices 1 2 3 4 5 6 
#
# 1 78.8619 22.3271 37.9753 0.0000 0.0000 0.0000
# 2 22.3271 97.7378 20.4763 0.0000 0.0000 0.0000
# 3 37.9753 20.4763 120.3049 0.0000 0.0000 0.0000
# 4 0.0000 0.0000 0.0000 17.1537 0.0000 0.0000
# 5 0.0000 0.0000 0.0000 0.0000 40.2220 0.0000
# 6 0.0000 0.0000 0.0000 0.0000 0.0000 29.8848
#
#
#
# Elastic Compliance Matrix: (Units=1/GPa)
#
#
# Indices 1 2 3 4 5 6 
#
# 1 0.015575 -0.002621 -0.004470 0.000000 0.000000 0.000000
# 2 -0.002621 0.011051 -0.001053 0.000000 0.000000 0.000000
# 3 -0.004470 -0.001053 0.009903 0.000000 0.000000 0.000000
# 4 0.000000 0.000000 0.000000 0.058297 0.000000 0.000000
# 5 0.000000 0.000000 0.000000 0.000000 0.024862 0.000000
# 6 0.000000 0.000000 0.000000 0.000000 0.000000 0.033462
#
#
# Mechanical properties :
#
#
# Convention : Reuss Voigt Hill
#
# Bulk Modulus (GPa) = 49.41084 50.94024 50.17554
# Shear Modulus (GPa) = 28.37916 31.86048 30.11982
#
# Velocity S-wave (km/s) = 3.76575 3.99005 3.87952
# Velocity P-wave (km/s) = 6.60289 6.83241 6.71863
#
# Compressibility (1/GPa) = 0.02023848
#
# Stress axis : x y z
#
# Youngs Moduli (GPa) = 64.20465 90.48964 100.98369
#
# Poissons Ratio (x) = 0.23721 0.45142
# Poissons Ratio (y) = 0.16831 0.10638
# Poissons Ratio (z) = 0.28701 0.09533
#
# Static dielectric constant tensor:
#      x y z
#    x 3.696230 0.000000 0.000000 
#    y 0.000000 3.538020 0.000000 
#    z 0.000000 0.000000 3.766630 
# 
# 
# High freq. dielectric constant tensor:
#      x y z
#    x 1.790580 0.000000 0.000000 
#    y 0.000000 1.771480 0.000000 
#    z 0.000000 0.000000 1.790090 
# 
# From -- ./inp_files/4523.got.cif
#   From: 2010.03.12/outbox.cif.g09.slc.cpg/sg62_3_cif.got.tgz:4523.got - 2010.04.10 19:12:36.
