data_PCOD8254167
_publ_section_title
;
Structure prediction by ZEFSAII (Michael W. Deem and Ramdas Pophale) SiO2 
 PCOD8254167
Probable space group: P N M A
;
_chemical_formula_sum "Si O2"
_cell_formula_units_Z 40
_cell_length_a 22.730376
_cell_length_b 8.795212
_cell_length_c 10.117734
_cell_angle_alpha 90.000000
_cell_angle_beta 90.000000
_cell_angle_gamma 90.000000
_cell_volume 2022.721959
_symmetry_space_group_name_H-M "P N M A"
_symmetry_group_IT_number 62
_symmetry_cell_setting 'orthorhombic'
loop_
_space_group_symop_operation_xyz
x,y,z
1/2-x,-y,1/2+z
1/2+x,1/2-y,1/2-z
-x,1/2+y,-z
-x,-y,-z
1/2+x,y,1/2-z
1/2-x,1/2+y,1/2+z
x,1/2-y,z
loop_
_atom_site_type_symbol
_atom_site_label
_atom_site_fract_x
_atom_site_fract_y
_atom_site_fract_z
Si Si1 0.115610 0.927522 0.229626
Si Si2 0.998986 0.071176 0.144274
Si Si3 0.825870 0.924599 0.525090
Si Si4 0.190268 0.573478 0.975511
Si Si5 0.617285 0.073643 0.746096
O O1 0.101474 0.750000 0.226333
O O2 0.054569 0.018055 0.229545
O O3 0.151156 0.966063 0.360983
O O4 0.154068 0.977548 0.104047
O O5 0.999998 0.250000 0.127573
O O6 0.940697 0.023957 0.221502
O O7 0.000000 0.000000 0.000000
O O8 0.833655 0.750000 0.569217
O O9 0.758079 0.962304 0.496406
O O10 0.862310 0.960291 0.394011
O O11 0.179451 0.750000 0.943534
O O12 0.169346 0.474474 0.852002
O O13 0.603015 0.250000 0.723731
#
# Coordination Sequence:
#
# PCOD8254167 Si02
#       5
#     8   8   8   8   8
#     4  11  23  40  64  93 124 163 206 254 307 364
#     4  12  24  41  65  92 121 158 203 255 307 368
#     4  10  23  41  60  90 128 164 205 253 306 362
#     4  10  21  39  63  90 124 163 207 256 301 360
#     4  11  23  40  64  92 123 164 207 254 307 363
#
# _framework density 19.775331999999999
#
# number of rings (size 3 to 8) (size 9 to 14) (size 15 to 20)
#    0.000    1.200    2.000    4.200    0.000    5.600 
#    0.000    0.000    0.000    0.000    0.000    0.000 
#    0.000    0.000    0.000    0.000    0.000    0.000 
#
# Total GULP energy -496306.207014 kJ/mol
# GULP energy per Si atom -12407.655175 kJ/mol
# Density = 1.973032 g / cm^3
# Si number density = 19.775332 Si / 1000 Ang^3
#
#
#
# Elastic Constant Matrix: (Units=GPa)
#
#
# Indices 1 2 3 4 5 6 
#
# 1 112.9952 40.7458 22.4832 0.0000 0.0000 0.0000
# 2 40.7458 104.2054 40.6251 0.0000 0.0000 0.0000
# 3 22.4832 40.6251 87.0124 0.0000 0.0000 0.0000
# 4 0.0000 0.0000 0.0000 35.7839 0.0000 0.0000
# 5 0.0000 0.0000 0.0000 0.0000 26.4829 0.0000
# 6 0.0000 0.0000 0.0000 0.0000 0.0000 35.8529
#
#
#
# Elastic Compliance Matrix: (Units=1/GPa)
#
#
# Indices 1 2 3 4 5 6 
#
# 1 0.010368 -0.003679 -0.000961 0.000000 0.000000 0.000000
# 2 -0.003679 0.013038 -0.005136 0.000000 0.000000 0.000000
# 3 -0.000961 -0.005136 0.014139 0.000000 0.000000 0.000000
# 4 0.000000 0.000000 0.000000 0.027946 0.000000 0.000000
# 5 0.000000 0.000000 0.000000 0.000000 0.037760 0.000000
# 6 0.000000 0.000000 0.000000 0.000000 0.000000 0.027892
#
#
# Mechanical properties :
#
#
# Convention : Reuss Voigt Hill
#
# Bulk Modulus (GPa) = 55.58371 56.88013 56.23192
# Shear Modulus (GPa) = 31.90959 32.98119 32.44539
#
# Velocity S-wave (km/s) = 4.02133 4.08829 4.05495
# Velocity P-wave (km/s) = 7.05196 7.14921 7.10075
#
# Compressibility (1/GPa) = 0.01799088
#
# Stress axis : x y z
#
# Youngs Moduli (GPa) = 96.45127 76.70159 70.72596
#
# Poissons Ratio (x) = 0.28221 0.06798
# Poissons Ratio (y) = 0.35487 0.36328
# Poissons Ratio (z) = 0.09271 0.39397
#
# Static dielectric constant tensor:
#      x y z
#    x 3.800430 0.000000 0.000000 
#    y 0.000000 3.644300 0.000000 
#    z 0.000000 0.000000 3.603070 
# 
# 
# High freq. dielectric constant tensor:
#      x y z
#    x 1.788000 0.000000 0.000000 
#    y 0.000000 1.776630 0.000000 
#    z 0.000000 0.000000 1.773670 
# 
# From -- ./inp_files/9087.got.cif
#   From: 2010.03.12/outbox.cif.g09.slc.cpg/sg62_5_cif.got.tgz:9087.got - 2010.04.10 19:12:36.
