data_PCOD8254246
_publ_section_title
;
Structure prediction by ZEFSAII (Michael W. Deem and Ramdas Pophale) SiO2 
 PCOD8254246
Probable space group: P N M A
;
_chemical_formula_sum "Si O2"
_cell_formula_units_Z 56
_cell_length_a 9.441011
_cell_length_b 13.194685
_cell_length_c 20.620155
_cell_angle_alpha 90.000000
_cell_angle_beta 90.000000
_cell_angle_gamma 90.000000
_cell_volume 2568.676756
_symmetry_space_group_name_H-M "P N M A"
_symmetry_group_IT_number 62
_symmetry_cell_setting 'orthorhombic'
loop_
_space_group_symop_operation_xyz
x,y,z
1/2-x,-y,1/2+z
1/2+x,1/2-y,1/2-z
-x,1/2+y,-z
-x,-y,-z
1/2+x,y,1/2-z
1/2-x,1/2+y,1/2+z
x,1/2-y,z
loop_
_atom_site_type_symbol
_atom_site_label
_atom_site_fract_x
_atom_site_fract_y
_atom_site_fract_z
Si Si1 0.835113 0.516950 0.500071
Si Si2 0.260561 0.134230 0.721101
Si Si3 0.909234 0.869564 0.984654
Si Si4 0.985246 0.364691 0.158698
Si Si5 0.330891 0.635517 0.872492
Si Si6 0.478437 0.494300 0.778287
Si Si7 0.149591 0.635883 0.081213
O O1 0.745690 0.412955 0.502072
O O2 0.792347 0.590089 0.558320
O O3 0.793648 0.576125 0.434734
O O4 0.000000 0.500000 0.500000
O O5 0.211571 0.250000 0.735173
O O6 0.127215 0.060804 0.713211
O O7 0.356471 0.092183 0.779726
O O8 0.365873 0.130694 0.658689
O O9 0.896459 0.750000 0.991620
O O10 0.959309 0.900302 0.912055
O O11 0.019979 0.912517 0.039203
O O12 0.039784 0.250000 0.172515
O O13 0.815742 0.366280 0.166636
O O14 0.043726 0.441571 0.212301
O O15 0.388533 0.750000 0.879557
O O16 0.453621 0.569713 0.838385
O O17 0.167297 0.750000 0.057028
#
# Coordination Sequence:
#
# PCOD8254246 Si02
#       7
#     8   8   8   8   8   8   8
#     4  12  24  39  62  97 134 169 206 264 335 396
#     4  11  25  41  64  93 129 174 221 274 330 392
#     4  10  22  41  69  98 127 169 222 269 322 395
#     4  10  21  41  69 100 130 168 222 275 323 391
#     4  11  24  42  66  97 130 172 217 271 332 387
#     4  12  23  44  64  95 132 175 222 269 332 392
#     4  10  21  40  63  89 121 165 217 270 323 384
#
# _framework density 21.801107999999999
#
# number of rings (size 3 to 8) (size 9 to 14) (size 15 to 20)
#    0.000    1.143    2.857    3.429    2.000    1.143 
#    0.000    2.857    0.000    0.000    0.000    0.000 
#    0.000    0.000    0.000    0.000    0.000    0.000 
#
# Total GULP energy -694366.484270 kJ/mol
# GULP energy per Si atom -12399.401505 kJ/mol
# Density = 2.175149 g / cm^3
# Si number density = 21.801108 Si / 1000 Ang^3
#
#
#
# Elastic Constant Matrix: (Units=GPa)
#
#
# Indices 1 2 3 4 5 6 
#
# 1 107.8351 26.6670 13.4760 0.0000 0.0000 0.0000
# 2 26.6670 96.1989 46.9282 0.0000 0.0000 0.0000
# 3 13.4760 46.9282 61.5949 0.0000 0.0000 0.0000
# 4 0.0000 0.0000 0.0000 36.7245 0.0000 0.0000
# 5 0.0000 0.0000 0.0000 0.0000 26.9790 0.0000
# 6 0.0000 0.0000 0.0000 0.0000 0.0000 36.6006
#
#
#
# Elastic Compliance Matrix: (Units=1/GPa)
#
#
# Indices 1 2 3 4 5 6 
#
# 1 0.009956 -0.002701 -0.000120 0.000000 0.000000 0.000000
# 2 -0.002701 0.017277 -0.012572 0.000000 0.000000 0.000000
# 3 -0.000120 -0.012572 0.025840 0.000000 0.000000 0.000000
# 4 0.000000 0.000000 0.000000 0.027230 0.000000 0.000000
# 5 0.000000 0.000000 0.000000 0.000000 0.037066 0.000000
# 6 0.000000 0.000000 0.000000 0.000000 0.000000 0.027322
#
#
# Mechanical properties :
#
#
# Convention : Reuss Voigt Hill
#
# Bulk Modulus (GPa) = 44.87104 48.86348 46.86726
# Shear Modulus (GPa) = 27.33638 31.96467 29.65052
#
# Velocity S-wave (km/s) = 3.54488 3.83325 3.69188
# Velocity P-wave (km/s) = 6.11405 6.48488 6.30219
#
# Compressibility (1/GPa) = 0.02228609
#
# Stress axis : x y z
#
# Youngs Moduli (GPa) = 100.43715 57.88078 38.70001
#
# Poissons Ratio (x) = 0.15636 0.00465
# Poissons Ratio (y) = 0.27132 0.48654
# Poissons Ratio (z) = 0.01207 0.72768
#
# Static dielectric constant tensor:
#      x y z
#    x 3.698590 0.000000 0.000000 
#    y 0.000000 4.163610 0.000000 
#    z 0.000000 0.000000 3.885910 
# 
# 
# High freq. dielectric constant tensor:
#      x y z
#    x 1.842760 0.000000 0.000000 
#    y 0.000000 1.881590 0.000000 
#    z 0.000000 0.000000 1.849890 
# 
# From -- ./inp_files/26001.got.cif
#   From: 2010.03.12/outbox.cif.g09.slc.cpg/sg62_14_cif.got.tgz:26001.got - 2010.04.10 19:12:36.
