data_PCOD8254584
_publ_section_title
;
Structure prediction by ZEFSAII (Michael W. Deem and Ramdas Pophale) SiO2 
 PCOD8254584
Probable space group: P N M A
;
_chemical_formula_sum "Si O2"
_cell_formula_units_Z 48
_cell_length_a 14.260010
_cell_length_b 8.477470
_cell_length_c 19.947861
_cell_angle_alpha 90.000000
_cell_angle_beta 90.000000
_cell_angle_gamma 90.000000
_cell_volume 2411.473118
_symmetry_space_group_name_H-M "P N M A"
_symmetry_group_IT_number 62
_symmetry_cell_setting 'orthorhombic'
loop_
_space_group_symop_operation_xyz
x,y,z
1/2-x,-y,1/2+z
1/2+x,1/2-y,1/2-z
-x,1/2+y,-z
-x,-y,-z
1/2+x,y,1/2-z
1/2-x,1/2+y,1/2+z
x,1/2-y,z
loop_
_atom_site_type_symbol
_atom_site_label
_atom_site_fract_x
_atom_site_fract_y
_atom_site_fract_z
Si Si1 0.232572 0.567114 0.708149
Si Si2 0.027781 0.068214 0.875794
Si Si3 0.842737 0.566900 0.923876
Si Si4 0.342758 0.434481 0.830869
Si Si5 0.209654 0.567100 0.938678
Si Si6 0.019833 0.566843 0.732625
O O1 0.252270 0.750000 0.724739
O O2 0.276273 0.516308 0.637400
O O3 0.277439 0.463555 0.766533
O O4 0.122363 0.531544 0.703643
O O5 0.055913 0.250000 0.884297
O O6 0.116078 0.962818 0.895839
O O7 0.999477 0.030910 0.799794
O O8 0.939338 0.030828 0.922988
O O9 0.868313 0.750000 0.919887
O O10 0.789477 0.530245 0.992543
O O11 0.352359 0.250000 0.843117
O O12 0.299250 0.513941 0.896431
O O13 0.445148 0.510498 0.822176
O O14 0.217373 0.750000 0.955714
O O15 0.005234 0.750000 0.749397
#
# Coordination Sequence:
#
# PCOD8254584 Si02
#       6
#     8   8   8   8   8   8
#     4  10  22  40  65  90 122 163 204 251 307 368
#     4  12  23  37  60  94 128 162 203 254 311 369
#     4  11  23  41  63  91 126 164 206 255 312 372
#     4  12  24  39  63  92 124 161 207 257 305 364
#     4  12  25  42  62  88 125 167 208 255 313 372
#     4  11  22  39  63  93 125 161 205 251 306 365
#
# _framework density 19.904845999999999
#
# number of rings (size 3 to 8) (size 9 to 14) (size 15 to 20)
#    0.000    0.667    3.333    6.000    0.000    1.333 
#    0.000    0.833    0.000    0.000    0.000    0.000 
#    0.000    0.000    0.000    0.000    0.000    0.000 
#
# Total GULP energy -595625.548260 kJ/mol
# GULP energy per Si atom -12408.865589 kJ/mol
# Density = 1.985954 g / cm^3
# Si number density = 19.904846 Si / 1000 Ang^3
#
#
#
# Elastic Constant Matrix: (Units=GPa)
#
#
# Indices 1 2 3 4 5 6 
#
# 1 93.2513 23.0107 5.6776 0.0000 0.0000 0.0000
# 2 23.0107 79.8893 8.6486 0.0000 0.0000 0.0000
# 3 5.6776 8.6486 62.2143 0.0000 0.0000 0.0000
# 4 0.0000 0.0000 0.0000 29.1683 0.0000 0.0000
# 5 0.0000 0.0000 0.0000 0.0000 32.9408 0.0000
# 6 0.0000 0.0000 0.0000 0.0000 0.0000 26.6992
#
#
#
# Elastic Compliance Matrix: (Units=1/GPa)
#
#
# Indices 1 2 3 4 5 6 
#
# 1 0.011566 -0.003266 -0.000601 0.000000 0.000000 0.000000
# 2 -0.003266 0.013631 -0.001597 0.000000 0.000000 0.000000
# 3 -0.000601 -0.001597 0.016350 0.000000 0.000000 0.000000
# 4 0.000000 0.000000 0.000000 0.034284 0.000000 0.000000
# 5 0.000000 0.000000 0.000000 0.000000 0.030357 0.000000
# 6 0.000000 0.000000 0.000000 0.000000 0.000000 0.037454
#
#
# Mechanical properties :
#
#
# Convention : Reuss Voigt Hill
#
# Bulk Modulus (GPa) = 32.66010 34.44766 33.55388
# Shear Modulus (GPa) = 30.34373 30.96287 30.65330
#
# Velocity S-wave (km/s) = 3.90864 3.94832 3.92853
# Velocity P-wave (km/s) = 6.06743 6.17490 6.12140
#
# Compressibility (1/GPa) = 0.03061840
#
# Stress axis : x y z
#
# Youngs Moduli (GPa) = 86.45781 73.36219 61.16083
#
# Poissons Ratio (x) = 0.23963 0.03679
# Poissons Ratio (y) = 0.28240 0.09766
# Poissons Ratio (z) = 0.05200 0.11715
#
# Static dielectric constant tensor:
#      x y z
#    x 3.744130 0.000000 0.000000 
#    y 0.000000 3.622270 0.000000 
#    z 0.000000 0.000000 3.592830 
# 
# 
# High freq. dielectric constant tensor:
#      x y z
#    x 1.779340 0.000000 0.000000 
#    y 0.000000 1.785790 0.000000 
#    z 0.000000 0.000000 1.771310 
# 
# From -- ./inp_files/23668.got.cif
#   From: 2010.03.12/outbox.cif.g09.slc.cpg/sg62_12_cif.got.tgz:23668.got - 2010.04.10 19:12:36.
