data_PCOD8254787
_publ_section_title
;
Structure prediction by ZEFSAII (Michael W. Deem and Ramdas Pophale) SiO2 
 PCOD8254787
Probable space group: P N M A
;
_chemical_formula_sum "Si O2"
_cell_formula_units_Z 40
_cell_length_a 24.853380
_cell_length_b 8.847579
_cell_length_c 8.678111
_cell_angle_alpha 90.000000
_cell_angle_beta 90.000000
_cell_angle_gamma 90.000000
_cell_volume 1908.249293
_symmetry_space_group_name_H-M "P N M A"
_symmetry_group_IT_number 62
_symmetry_cell_setting 'orthorhombic'
loop_
_space_group_symop_operation_xyz
x,y,z
1/2-x,-y,1/2+z
1/2+x,1/2-y,1/2-z
-x,1/2+y,-z
-x,-y,-z
1/2+x,y,1/2-z
1/2-x,1/2+y,1/2+z
x,1/2-y,z
loop_
_atom_site_type_symbol
_atom_site_label
_atom_site_fract_x
_atom_site_fract_y
_atom_site_fract_z
Si Si1 0.315843 0.572705 0.675609
Si Si2 0.585096 0.928066 0.171178
Si Si3 0.490062 0.425722 0.336474
Si Si4 0.380566 0.424540 0.169960
Si Si5 0.283084 0.926591 0.330952
O O1 0.324162 0.750000 0.696487
O O2 0.371764 0.489685 0.707426
O O3 0.271195 0.515979 0.794802
O O4 0.298926 0.529063 0.503525
O O5 0.580251 0.750000 0.190569
O O6 0.527465 0.000458 0.206691
O O7 0.601157 0.975306 0.999190
O O8 0.500000 0.500000 0.500000
O O9 0.503837 0.250000 0.346862
O O10 0.428486 0.453439 0.289706
O O11 0.362361 0.250000 0.170355
O O12 0.330157 0.526554 0.214864
O O13 0.271473 0.750000 0.313045
#
# Coordination Sequence:
#
# PCOD8254787 Si02
#       5
#     8   8   8   8   8
#     4  11  24  41  61  88 121 156 197 244 295 352
#     4  11  23  40  62  89 120 155 198 245 294 350
#     4  11  23  40  62  89 121 158 199 244 296 351
#     4  10  23  41  61  87 120 157 197 243 294 351
#     4  11  24  40  61  89 119 154 197 244 294 350
#
# _framework density 20.961622999999999
#
# number of rings (size 3 to 8) (size 9 to 14) (size 15 to 20)
#    0.000    1.200    0.000    5.400    0.000   14.400 
#    0.000    0.000    0.000    0.000    0.000    0.000 
#    0.000    0.000    0.000    0.000    0.000    0.000 
#
# Total GULP energy -496356.415019 kJ/mol
# GULP energy per Si atom -12408.910375 kJ/mol
# Density = 2.091391 g / cm^3
# Si number density = 20.961623 Si / 1000 Ang^3
#
#
#
# Elastic Constant Matrix: (Units=GPa)
#
#
# Indices 1 2 3 4 5 6 
#
# 1 58.6721 16.4376 -4.4529 0.0000 0.0000 0.0000
# 2 16.4376 72.1729 24.6411 0.0000 0.0000 0.0000
# 3 -4.4529 24.6411 74.4221 0.0000 0.0000 0.0000
# 4 0.0000 0.0000 0.0000 35.1260 0.0000 0.0000
# 5 0.0000 0.0000 0.0000 0.0000 38.0591 0.0000
# 6 0.0000 0.0000 0.0000 0.0000 0.0000 36.5668
#
#
#
# Elastic Compliance Matrix: (Units=1/GPa)
#
#
# Indices 1 2 3 4 5 6 
#
# 1 0.018729 -0.005241 0.002856 0.000000 0.000000 0.000000
# 2 -0.005241 0.017088 -0.005971 0.000000 0.000000 0.000000
# 3 0.002856 -0.005971 0.015585 0.000000 0.000000 0.000000
# 4 0.000000 0.000000 0.000000 0.028469 0.000000 0.000000
# 5 0.000000 0.000000 0.000000 0.000000 0.026275 0.000000
# 6 0.000000 0.000000 0.000000 0.000000 0.000000 0.027347
#
#
# Mechanical properties :
#
#
# Convention : Reuss Voigt Hill
#
# Bulk Modulus (GPa) = 28.82737 30.94652 29.88694
# Shear Modulus (GPa) = 30.90846 33.19313 32.05079
#
# Velocity S-wave (km/s) = 3.84412 3.98366 3.91451
# Velocity P-wave (km/s) = 5.78665 5.99624 5.89238
#
# Compressibility (1/GPa) = 0.03468925
#
# Stress axis : x y z
#
# Youngs Moduli (GPa) = 53.39372 58.52099 64.16489
#
# Poissons Ratio (x) = 0.30668 -0.18324
# Poissons Ratio (y) = 0.27981 0.38315
# Poissons Ratio (z) = -0.15248 0.34945
#
# Static dielectric constant tensor:
#      x y z
#    x 3.799270 0.000000 0.000000 
#    y 0.000000 3.817990 0.000000 
#    z 0.000000 0.000000 3.919270 
# 
# 
# High freq. dielectric constant tensor:
#      x y z
#    x 1.834520 0.000000 0.000000 
#    y 0.000000 1.828110 0.000000 
#    z 0.000000 0.000000 1.835560 
# 
# From -- ./inp_files/9061.got.cif
#   From: 2010.03.12/outbox.cif.g09.slc.cpg/sg62_5_cif.got.tgz:9061.got - 2010.04.10 19:12:36.
