data_PCOD8254421
_publ_section_title
;
Structure prediction by ZEFSAII (Michael W. Deem and Ramdas Pophale) SiO2 
 PCOD8254421
Probable space group: P N M A
;
_chemical_formula_sum "Si O2"
_cell_formula_units_Z 48
_cell_length_a 15.774127
_cell_length_b 18.066791
_cell_length_c 8.796090
_cell_angle_alpha 90.000000
_cell_angle_beta 90.000000
_cell_angle_gamma 90.000000
_cell_volume 2506.778828
_symmetry_space_group_name_H-M "P N M A"
_symmetry_group_IT_number 62
_symmetry_cell_setting 'orthorhombic'
loop_
_space_group_symop_operation_xyz
x,y,z
1/2-x,-y,1/2+z
1/2+x,1/2-y,1/2-z
-x,1/2+y,-z
-x,-y,-z
1/2+x,y,1/2-z
1/2-x,1/2+y,1/2+z
x,1/2-y,z
loop_
_atom_site_type_symbol
_atom_site_label
_atom_site_fract_x
_atom_site_fract_y
_atom_site_fract_z
Si Si1 0.836742 0.336553 0.994604
Si Si2 0.731031 0.047596 0.180051
Si Si3 0.501215 0.419502 0.562927
Si Si4 0.668633 0.668559 0.140274
Si Si5 0.064122 0.535405 0.384074
Si Si6 0.190638 0.087447 0.981698
O O1 0.833435 0.250000 0.039118
O O2 0.931484 0.368607 0.022372
O O3 0.819204 0.350291 0.817472
O O4 0.765390 0.379608 0.092121
O O5 0.730078 0.060612 0.359531
O O6 0.633099 0.028753 0.144004
O O7 0.792320 0.978858 0.139150
O O8 0.500000 0.500000 0.500000
O O9 0.485305 0.430126 0.741076
O O10 0.593230 0.387104 0.522071
O O11 0.630108 0.750000 0.115712
O O12 0.610953 0.608588 0.051258
O O13 0.761645 0.662278 0.067910
O O14 0.000000 0.500000 0.500000
#
# Coordination Sequence:
#
# PCOD8254421 Si02
#       6
#     8   8   8   8   8   8
#     4  10  22  41  61  83 119 158 196 243 302 353
#     4  11  21  37  57  88 115 151 195 240 292 350
#     4  11  20  38  59  89 119 152 193 245 294 352
#     4   9  21  40  59  85 117 153 196 245 297 356
#     4  10  22  35  60  89 116 151 197 245 297 352
#     4  11  22  35  63  87 118 152 198 243 291 357
#
# _framework density 19.14808
#
# number of rings (size 3 to 8) (size 9 to 14) (size 15 to 20)
#    0.000    1.667    3.333    2.000    7.000    1.333 
#    0.000    0.833    0.000    0.000    0.000    0.000 
#    0.000    0.000    0.000    0.000    0.000    0.000 
#
# Total GULP energy -594764.147168 kJ/mol
# GULP energy per Si atom -12390.919733 kJ/mol
# Density = 1.910450 g / cm^3
# Si number density = 19.148080 Si / 1000 Ang^3
#
#
#
# Elastic Constant Matrix: (Units=GPa)
#
#
# Indices 1 2 3 4 5 6 
#
# 1 110.5360 48.7508 48.1085 0.0000 0.0000 0.0000
# 2 48.7508 116.2403 37.7980 0.0000 0.0000 0.0000
# 3 48.1085 37.7980 64.9657 0.0000 0.0000 0.0000
# 4 0.0000 0.0000 0.0000 26.7947 0.0000 0.0000
# 5 0.0000 0.0000 0.0000 0.0000 33.6201 0.0000
# 6 0.0000 0.0000 0.0000 0.0000 0.0000 24.5646
#
#
#
# Elastic Compliance Matrix: (Units=1/GPa)
#
#
# Indices 1 2 3 4 5 6 
#
# 1 0.014217 -0.003132 -0.008706 0.000000 0.000000 0.000000
# 2 -0.003132 0.011300 -0.004255 0.000000 0.000000 0.000000
# 3 -0.008706 -0.004255 0.024316 0.000000 0.000000 0.000000
# 4 0.000000 0.000000 0.000000 0.037321 0.000000 0.000000
# 5 0.000000 0.000000 0.000000 0.000000 0.029744 0.000000
# 6 0.000000 0.000000 0.000000 0.000000 0.000000 0.040709
#
#
# Mechanical properties :
#
#
# Convention : Reuss Voigt Hill
#
# Bulk Modulus (GPa) = 56.66859 62.33964 59.50411
# Shear Modulus (GPa) = 25.55254 27.46819 26.51037
#
# Velocity S-wave (km/s) = 3.65700 3.79161 3.72491
# Velocity P-wave (km/s) = 6.89135 7.19692 7.04579
#
# Compressibility (1/GPa) = 0.01764646
#
# Stress axis : x y z
#
# Youngs Moduli (GPa) = 70.33762 88.49527 41.12582
#
# Poissons Ratio (x) = 0.27714 0.35804
# Poissons Ratio (y) = 0.22027 0.17501
# Poissons Ratio (z) = 0.61236 0.37659
#
# Static dielectric constant tensor:
#      x y z
#    x 3.514920 0.000000 0.000000 
#    y 0.000000 3.497980 0.000000 
#    z 0.000000 0.000000 3.374990 
# 
# 
# High freq. dielectric constant tensor:
#      x y z
#    x 1.750750 0.000000 0.000000 
#    y 0.000000 1.737570 0.000000 
#    z 0.000000 0.000000 1.736790 
# 
# From -- ./inp_files/6625.got.cif
#   From: 2010.03.12/outbox.cif.g09.slc.cpg/sg62_4_cif.got.tgz:6625.got - 2010.04.10 19:12:36.
