data_PCOD8254526
_publ_section_title
;
Structure prediction by ZEFSAII (Michael W. Deem and Ramdas Pophale) SiO2 
 PCOD8254526
Probable space group: P N M A
;
_chemical_formula_sum "Si O2"
_cell_formula_units_Z 40
_cell_length_a 13.334002
_cell_length_b 8.806242
_cell_length_c 17.982856
_cell_angle_alpha 90.000000
_cell_angle_beta 90.000000
_cell_angle_gamma 90.000000
_cell_volume 2111.590981
_symmetry_space_group_name_H-M "P N M A"
_symmetry_group_IT_number 62
_symmetry_cell_setting 'orthorhombic'
loop_
_space_group_symop_operation_xyz
x,y,z
1/2-x,-y,1/2+z
1/2+x,1/2-y,1/2-z
-x,1/2+y,-z
-x,-y,-z
1/2+x,y,1/2-z
1/2-x,1/2+y,1/2+z
x,1/2-y,z
loop_
_atom_site_type_symbol
_atom_site_label
_atom_site_fract_x
_atom_site_fract_y
_atom_site_fract_z
Si Si1 0.411776 0.573019 0.327052
Si Si2 0.669364 0.574502 0.819632
Si Si3 0.900375 0.571303 0.467748
Si Si4 0.294622 0.926827 0.474913
Si Si5 0.111503 0.076298 0.129157
O O1 0.400409 0.750000 0.309374
O O2 0.368202 0.476260 0.260177
O O3 0.350206 0.525258 0.399972
O O4 0.528130 0.535460 0.338705
O O5 0.643426 0.750000 0.833065
O O6 0.613013 0.479885 0.882802
O O7 0.788441 0.547567 0.823151
O O8 0.910240 0.750000 0.470301
O O9 0.807458 0.520903 0.518963
O O10 0.000000 0.500000 0.500000
O O11 0.265719 0.750000 0.477136
O O12 0.368238 0.965571 0.543254
O O13 0.074921 0.250000 0.136652
#
# Coordination Sequence:
#
# PCOD8254526 Si02
#       5
#     8   8   8   8   8
#     4  11  22  35  57  87 116 147 184 230 280 331
#     4  10  22  40  58  80 113 149 187 231 278 329
#     4  11  22  38  61  85 112 148 188 231 280 332
#     4   9  20  38  57  82 115 149 188 229 272 330
#     4   9  19  37  58  78 108 149 187 229 279 330
#
# _framework density 18.943064
#
# number of rings (size 3 to 8) (size 9 to 14) (size 15 to 20)
#    0.000    2.000    0.000    4.800    0.000    7.200 
#    0.000    4.000    0.000    0.000    0.000    0.000 
#    0.000    0.000    0.000    0.000    0.000    0.000 
#
# Total GULP energy -496190.196040 kJ/mol
# GULP energy per Si atom -12404.754901 kJ/mol
# Density = 1.889995 g / cm^3
# Si number density = 18.943064 Si / 1000 Ang^3
#
#
#
# Elastic Constant Matrix: (Units=GPa)
#
#
# Indices 1 2 3 4 5 6 
#
# 1 117.6001 60.7960 72.4124 0.0000 0.0000 0.0000
# 2 60.7960 102.2078 42.4990 0.0000 0.0000 0.0000
# 3 72.4124 42.4990 106.4616 0.0000 0.0000 0.0000
# 4 0.0000 0.0000 0.0000 32.1498 0.0000 0.0000
# 5 0.0000 0.0000 0.0000 0.0000 26.5151 0.0000
# 6 0.0000 0.0000 0.0000 0.0000 0.0000 36.9294
#
#
#
# Elastic Compliance Matrix: (Units=1/GPa)
#
#
# Indices 1 2 3 4 5 6 
#
# 1 0.017725 -0.006631 -0.009409 0.000000 0.000000 0.000000
# 2 -0.006631 0.014212 -0.001163 0.000000 0.000000 0.000000
# 3 -0.009409 -0.001163 0.016257 0.000000 0.000000 0.000000
# 4 0.000000 0.000000 0.000000 0.031104 0.000000 0.000000
# 5 0.000000 0.000000 0.000000 0.000000 0.037714 0.000000
# 6 0.000000 0.000000 0.000000 0.000000 0.000000 0.027079
#
#
# Mechanical properties :
#
#
# Convention : Reuss Voigt Hill
#
# Bulk Modulus (GPa) = 72.52776 75.29827 73.91301
# Shear Modulus (GPa) = 27.30840 29.15634 28.23237
#
# Velocity S-wave (km/s) = 3.80097 3.92746 3.86473
# Velocity P-wave (km/s) = 7.59167 7.77192 7.68232
#
# Compressibility (1/GPa) = 0.01378782
#
# Stress axis : x y z
#
# Youngs Moduli (GPa) = 56.41727 70.36353 61.51132
#
# Poissons Ratio (x) = 0.46658 0.57876
# Poissons Ratio (y) = 0.37410 0.07154
# Poissons Ratio (z) = 0.53083 0.08184
#
# Static dielectric constant tensor:
#      x y z
#    x 3.510320 0.000000 0.000000 
#    y 0.000000 3.595920 0.000000 
#    z 0.000000 0.000000 3.599060 
# 
# 
# High freq. dielectric constant tensor:
#      x y z
#    x 1.740710 0.000000 0.000000 
#    y 0.000000 1.742840 0.000000 
#    z 0.000000 0.000000 1.739070 
# 
# From -- ./inp_files/18624.got.cif
#   From: 2010.03.12/outbox.cif.g09.slc.cpg/sg62_10_cif.got.tgz:18624.got - 2010.04.10 19:12:36.
