data_PCOD8254515
_publ_section_title
;
Structure prediction by ZEFSAII (Michael W. Deem and Ramdas Pophale) SiO2 
 PCOD8254515
Probable space group: P N M A
;
_chemical_formula_sum "Si O2"
_cell_formula_units_Z 48
_cell_length_a 9.662454
_cell_length_b 29.434645
_cell_length_c 7.377966
_cell_angle_alpha 90.000000
_cell_angle_beta 90.000000
_cell_angle_gamma 90.000000
_cell_volume 2098.373975
_symmetry_space_group_name_H-M "P N M A"
_symmetry_group_IT_number 62
_symmetry_cell_setting 'orthorhombic'
loop_
_space_group_symop_operation_xyz
x,y,z
1/2-x,-y,1/2+z
1/2+x,1/2-y,1/2-z
-x,1/2+y,-z
-x,-y,-z
1/2+x,y,1/2-z
1/2-x,1/2+y,1/2+z
x,1/2-y,z
loop_
_atom_site_type_symbol
_atom_site_label
_atom_site_fract_x
_atom_site_fract_y
_atom_site_fract_z
Si Si1 0.574324 0.697727 0.587436
Si Si2 0.455207 0.003949 0.206341
Si Si3 0.776674 0.659792 0.877164
Si Si4 0.857905 0.589775 0.355401
Si Si5 0.882502 0.351644 0.724886
Si Si6 0.190714 0.062405 0.235016
O O1 0.609042 0.750000 0.623592
O O2 0.679422 0.667257 0.703758
O O3 0.415603 0.688882 0.642157
O O4 0.599212 0.686218 0.378143
O O5 0.343270 0.043156 0.228617
O O6 0.585194 0.021962 0.327002
O O7 0.399561 0.954399 0.266537
O O8 0.500000 0.000000 0.000000
O O9 0.817433 0.606451 0.894377
O O10 0.691029 0.673459 0.056187
O O11 0.707377 0.605616 0.291606
O O12 0.853738 0.577709 0.565517
O O13 0.966594 0.630376 0.329094
#
# Coordination Sequence:
#
# PCOD8254515 Si02
#       6
#     8   8   8   8   8   8
#     4  12  28  49  75 110 142 187 246 306 373 445
#     4  10  22  39  64 104 143 188 242 296 342 426
#     4  12  25  48  77 106 145 192 237 300 375 439
#     4  11  23  44  67 103 148 193 241 295 358 422
#     4  12  25  48  72 106 146 194 239 300 366 444
#     4  11  22  42  69 102 144 190 242 292 359 426
#
# _framework density 22.874855
#
# number of rings (size 3 to 8) (size 9 to 14) (size 15 to 20)
#    0.000    0.667    3.333    5.500    0.000    2.667 
#    0.000    5.000    0.000    0.000    0.000    0.000 
#    0.000    0.000    0.000    0.000    0.000    0.000 
#
# Total GULP energy -595432.375896 kJ/mol
# GULP energy per Si atom -12404.841164 kJ/mol
# Density = 2.282279 g / cm^3
# Si number density = 22.874855 Si / 1000 Ang^3
#
#
#
# Elastic Constant Matrix: (Units=GPa)
#
#
# Indices 1 2 3 4 5 6 
#
# 1 115.6279 21.8900 31.4500 0.0000 0.0000 0.0000
# 2 21.8900 88.8678 12.2816 0.0000 0.0000 0.0000
# 3 31.4500 12.2816 66.5265 0.0000 0.0000 0.0000
# 4 0.0000 0.0000 0.0000 27.3651 0.0000 0.0000
# 5 0.0000 0.0000 0.0000 0.0000 37.7459 0.0000
# 6 0.0000 0.0000 0.0000 0.0000 0.0000 36.2201
#
#
#
# Elastic Compliance Matrix: (Units=1/GPa)
#
#
# Indices 1 2 3 4 5 6 
#
# 1 0.010228 -0.001900 -0.004484 0.000000 0.000000 0.000000
# 2 -0.001900 0.011900 -0.001299 0.000000 0.000000 0.000000
# 3 -0.004484 -0.001299 0.017391 0.000000 0.000000 0.000000
# 4 0.000000 0.000000 0.000000 0.036543 0.000000 0.000000
# 5 0.000000 0.000000 0.000000 0.000000 0.026493 0.000000
# 6 0.000000 0.000000 0.000000 0.000000 0.000000 0.027609
#
#
# Mechanical properties :
#
#
# Convention : Reuss Voigt Hill
#
# Bulk Modulus (GPa) = 41.40193 44.69614 43.04903
# Shear Modulus (GPa) = 32.55611 33.95960 33.25785
#
# Velocity S-wave (km/s) = 3.77666 3.85721 3.81715
# Velocity P-wave (km/s) = 6.09559 6.27847 6.18771
#
# Compressibility (1/GPa) = 0.02415347
#
# Stress axis : x y z
#
# Youngs Moduli (GPa) = 97.77286 84.03308 57.49971
#
# Poissons Ratio (x) = 0.15963 0.25785
# Poissons Ratio (y) = 0.18573 0.07469
# Poissons Ratio (z) = 0.43846 0.10915
#
# Static dielectric constant tensor:
#      x y z
#    x 4.316470 0.000000 0.000000 
#    y 0.000000 4.180840 0.000000 
#    z 0.000000 0.000000 4.030660 
# 
# 
# High freq. dielectric constant tensor:
#      x y z
#    x 1.921650 0.000000 0.000000 
#    y 0.000000 1.893750 0.000000 
#    z 0.000000 0.000000 1.902570 
# 
# From -- ./inp_files/4544.got.cif
#   From: 2010.03.12/outbox.cif.g09.slc.cpg/sg62_3_cif.got.tgz:4544.got - 2010.04.10 19:12:36.
