data_PCOD8254024
_publ_section_title
;
Structure prediction by ZEFSAII (Michael W. Deem and Ramdas Pophale) SiO2 
 PCOD8254024
Probable space group: P N M A
;
_chemical_formula_sum "Si O2"
_cell_formula_units_Z 56
_cell_length_a 16.607945
_cell_length_b 33.872962
_cell_length_c 5.034271
_cell_angle_alpha 90.000000
_cell_angle_beta 90.000000
_cell_angle_gamma 90.000000
_cell_volume 2832.080953
_symmetry_space_group_name_H-M "P N M A"
_symmetry_group_IT_number 62
_symmetry_cell_setting 'orthorhombic'
loop_
_space_group_symop_operation_xyz
x,y,z
1/2-x,-y,1/2+z
1/2+x,1/2-y,1/2-z
-x,1/2+y,-z
-x,-y,-z
1/2+x,y,1/2-z
1/2-x,1/2+y,1/2+z
x,1/2-y,z
loop_
_atom_site_type_symbol
_atom_site_label
_atom_site_fract_x
_atom_site_fract_y
_atom_site_fract_z
Si Si1 0.286939 0.336003 0.787950
Si Si2 0.535289 0.978624 0.749365
Si Si3 0.398548 0.165587 0.289125
Si Si4 0.887387 0.250000 0.308716
Si Si5 0.351633 0.600564 0.203559
Si Si6 0.540051 0.394760 0.293526
Si Si7 0.287814 0.250000 0.690966
Si Si8 0.703534 0.010817 0.819596
O O1 0.356925 0.342073 0.571343
O O2 0.218921 0.368730 0.759758
O O3 0.244921 0.292075 0.761596
O O4 0.329451 0.341900 0.070962
O O5 0.511682 0.933463 0.757156
O O6 0.500000 0.000000 0.500000
O O7 0.630985 0.981982 0.743002
O O8 0.500000 0.000000 0.000000
O O9 0.434479 0.210100 0.265520
O O10 0.477707 0.140170 0.252150
O O11 0.867641 0.250000 0.622263
O O12 0.806739 0.250000 0.122820
O O13 0.423475 0.605902 0.412662
O O14 0.317267 0.556474 0.221743
O O15 0.386727 0.608787 0.912520
O O16 0.775645 0.997933 0.625676
#
# Coordination Sequence:
#
# PCOD8254024 Si02
#       8
#     8   8   8   4   8   8   4   8
#     4  10  21  38  62  88 117 152 197 241 284 341
#     4  12  23  44  62  82 115 162 193 230 292 359
#     4  10  21  38  63  90 113 157 197 239 282 350
#     4   8  16  34  58  86 118 142 194 242 280 328
#     4  12  25  42  57  88 125 152 188 249 296 340
#     4  12  24  41  60  86 121 156 192 235 298 350
#     4   8  16  34  58  84 114 152 188 232 290 342
#     4  12  26  41  62  87 115 150 200 247 289 335
#
# _framework density 19.773446
#
# number of rings (size 3 to 8) (size 9 to 14) (size 15 to 20)
#    0.000    1.143    2.857    3.429    4.000    0.000 
#    0.000    1.429    0.000    0.000    0.000    0.000 
#    0.000    0.000    0.000    0.000    0.000    0.000 
#
# Total GULP energy -694308.988124 kJ/mol
# GULP energy per Si atom -12398.374788 kJ/mol
# Density = 1.972844 g / cm^3
# Si number density = 19.773446 Si / 1000 Ang^3
#
#
#
# Elastic Constant Matrix: (Units=GPa)
#
#
# Indices 1 2 3 4 5 6 
#
# 1 74.5253 54.7453 9.6843 0.0000 0.0000 0.0000
# 2 54.7453 157.7785 17.4471 0.0000 0.0000 0.0000
# 3 9.6843 17.4471 92.5678 0.0000 0.0000 0.0000
# 4 0.0000 0.0000 0.0000 26.2657 0.0000 0.0000
# 5 0.0000 0.0000 0.0000 0.0000 38.1345 0.0000
# 6 0.0000 0.0000 0.0000 0.0000 0.0000 28.4186
#
#
#
# Elastic Compliance Matrix: (Units=1/GPa)
#
#
# Indices 1 2 3 4 5 6 
#
# 1 0.018056 -0.006185 -0.000723 0.000000 0.000000 0.000000
# 2 -0.006185 0.008592 -0.000972 0.000000 0.000000 0.000000
# 3 -0.000723 -0.000972 0.011062 0.000000 0.000000 0.000000
# 4 0.000000 0.000000 0.000000 0.038073 0.000000 0.000000
# 5 0.000000 0.000000 0.000000 0.000000 0.026223 0.000000
# 6 0.000000 0.000000 0.000000 0.000000 0.000000 0.035188
#
#
# Mechanical properties :
#
#
# Convention : Reuss Voigt Hill
#
# Bulk Modulus (GPa) = 45.56189 54.29166 49.92678
# Shear Modulus (GPa) = 31.19745 34.76339 32.98042
#
# Velocity S-wave (km/s) = 3.97639 4.19750 4.08844
# Velocity P-wave (km/s) = 6.64637 7.14202 6.89865
#
# Compressibility (1/GPa) = 0.02194817
#
# Stress axis : x y z
#
# Youngs Moduli (GPa) = 55.38456 116.39399 90.40110
#
# Poissons Ratio (x) = 0.71988 0.06538
# Poissons Ratio (y) = 0.34255 0.08789
# Poissons Ratio (z) = 0.04006 0.11317
#
# Static dielectric constant tensor:
#      x y z
#    x 3.489180 0.000000 0.000000 
#    y 0.000000 3.817010 0.000000 
#    z 0.000000 0.000000 4.028040 
# 
# 
# High freq. dielectric constant tensor:
#      x y z
#    x 1.742030 0.000000 0.000000 
#    y 0.000000 1.790880 0.000000 
#    z 0.000000 0.000000 1.796530 
# 
# From -- ./inp_files/1299.got.cif
#   From: 2010.03.12/outbox.cif.g09.slc.cpg/sg62_1_cif.got.tgz:1299.got - 2010.04.10 19:12:36.
