data_PCOD8254350
_publ_section_title
;
Structure prediction by ZEFSAII (Michael W. Deem and Ramdas Pophale) SiO2 
 PCOD8254350
Probable space group: P N M A
;
_chemical_formula_sum "Si O2"
_cell_formula_units_Z 48
_cell_length_a 10.022586
_cell_length_b 7.624230
_cell_length_c 30.868639
_cell_angle_alpha 90.000000
_cell_angle_beta 90.000000
_cell_angle_gamma 90.000000
_cell_volume 2358.811641
_symmetry_space_group_name_H-M "P N M A"
_symmetry_group_IT_number 62
_symmetry_cell_setting 'orthorhombic'
loop_
_space_group_symop_operation_xyz
x,y,z
1/2-x,-y,1/2+z
1/2+x,1/2-y,1/2-z
-x,1/2+y,-z
-x,-y,-z
1/2+x,y,1/2-z
1/2-x,1/2+y,1/2+z
x,1/2-y,z
loop_
_atom_site_type_symbol
_atom_site_label
_atom_site_fract_x
_atom_site_fract_y
_atom_site_fract_z
Si Si1 0.651597 0.552962 0.494779
Si Si2 0.550324 0.750000 0.206628
Si Si3 0.060931 0.952478 0.853112
Si Si4 0.858839 0.750000 0.211929
Si Si5 0.010810 0.541750 0.638459
Si Si6 0.213408 0.450557 0.423462
Si Si7 0.704029 0.046568 0.399352
O O1 0.500000 0.500000 0.500000
O O2 0.655906 0.750000 0.510881
O O3 0.748601 0.456864 0.530297
O O4 0.706078 0.540109 0.446467
O O5 0.702195 0.750000 0.223902
O O6 0.446350 0.750000 0.245369
O O7 0.525316 0.570507 0.180474
O O8 0.056027 0.750000 0.837198
O O9 0.159816 0.976207 0.892882
O O10 0.916949 0.020233 0.869593
O O11 0.107469 0.073180 0.813933
O O12 0.988676 0.750000 0.648172
O O13 0.161764 0.499636 0.625628
O O14 0.916931 0.468066 0.599600
O O15 0.174666 0.250000 0.430268
O O16 0.686368 0.250000 0.408497
#
# Coordination Sequence:
#
# PCOD8254350 Si02
#       7
#     8   4   8   4   8   8   8
#     4  11  21  33  55  90 129 168 215 277 310 364
#     4  12  28  46  68 102 128 158 220 266 330 398
#     4  10  21  41  66  90 126 170 211 254 316 388
#     4  12  28  44  68 102 126 164 210 274 324 394
#     4  10  23  45  68  89 130 175 208 263 324 390
#     4   9  18  37  60  84 124 170 214 252 309 375
#     4  10  22  39  61  94 127 170 218 261 320 377
#
# _framework density 20.349229000000001
#
# number of rings (size 3 to 8) (size 9 to 14) (size 15 to 20)
#    0.000    1.667    3.333    0.500    4.667    1.333 
#    4.500    0.000    0.000    0.000    0.000    0.000 
#    0.000    0.000    0.000    0.000    0.000    0.000 
#
# Total GULP energy -594961.456074 kJ/mol
# GULP energy per Si atom -12395.030335 kJ/mol
# Density = 2.030291 g / cm^3
# Si number density = 20.349229 Si / 1000 Ang^3
#
#
#
# Elastic Constant Matrix: (Units=GPa)
#
#
# Indices 1 2 3 4 5 6 
#
# 1 144.0348 27.4886 46.5547 0.0000 0.0000 0.0000
# 2 27.4886 70.0036 39.2493 0.0000 0.0000 0.0000
# 3 46.5547 39.2493 107.8563 0.0000 0.0000 0.0000
# 4 0.0000 0.0000 0.0000 17.7809 0.0000 0.0000
# 5 0.0000 0.0000 0.0000 0.0000 36.6052 0.0000
# 6 0.0000 0.0000 0.0000 0.0000 0.0000 16.5574
#
#
#
# Elastic Compliance Matrix: (Units=1/GPa)
#
#
# Indices 1 2 3 4 5 6 
#
# 1 0.008201 -0.001552 -0.002975 0.000000 0.000000 0.000000
# 2 -0.001552 0.018240 -0.005968 0.000000 0.000000 0.000000
# 3 -0.002975 -0.005968 0.012727 0.000000 0.000000 0.000000
# 4 0.000000 0.000000 0.000000 0.056240 0.000000 0.000000
# 5 0.000000 0.000000 0.000000 0.000000 0.027318 0.000000
# 6 0.000000 0.000000 0.000000 0.000000 0.000000 0.060396
#
#
# Mechanical properties :
#
#
# Convention : Reuss Voigt Hill
#
# Bulk Modulus (GPa) = 55.00934 60.94220 57.97577
# Shear Modulus (GPa) = 23.79002 28.09551 25.94277
#
# Velocity S-wave (km/s) = 3.42290 3.71976 3.57442
# Velocity P-wave (km/s) = 6.53552 6.96147 6.75185
#
# Compressibility (1/GPa) = 0.01817873
#
# Stress axis : x y z
#
# Youngs Moduli (GPa) = 121.94363 54.82309 78.57121
#
# Poissons Ratio (x) = 0.08510 0.23373
# Poissons Ratio (y) = 0.18929 0.46889
# Poissons Ratio (z) = 0.36275 0.32717
#
# Static dielectric constant tensor:
#      x y z
#    x 3.939770 0.000000 0.000000 
#    y 0.000000 3.952960 0.000000 
#    z 0.000000 0.000000 3.424420 
# 
# 
# High freq. dielectric constant tensor:
#      x y z
#    x 1.809610 0.000000 0.000000 
#    y 0.000000 1.790970 0.000000 
#    z 0.000000 0.000000 1.785250 
# 
# From -- ./inp_files/32060.got.cif
#   From: 2010.03.12/outbox.cif.g09.slc.cpg/sg62_17_cif.got.tgz:32060.got - 2010.04.10 19:12:36.
