data_PCOD8254935
_publ_section_title
;
Structure prediction by ZEFSAII (Michael W. Deem and Ramdas Pophale) SiO2 
 PCOD8254935
Probable space group: P N M A
;
_chemical_formula_sum "Si O2"
_cell_formula_units_Z 48
_cell_length_a 24.144465
_cell_length_b 8.748082
_cell_length_c 10.660865
_cell_angle_alpha 90.000000
_cell_angle_beta 90.000000
_cell_angle_gamma 90.000000
_cell_volume 2251.764021
_symmetry_space_group_name_H-M "P N M A"
_symmetry_group_IT_number 62
_symmetry_cell_setting 'orthorhombic'
loop_
_space_group_symop_operation_xyz
x,y,z
1/2-x,-y,1/2+z
1/2+x,1/2-y,1/2-z
-x,1/2+y,-z
-x,-y,-z
1/2+x,y,1/2-z
1/2-x,1/2+y,1/2+z
x,1/2-y,z
loop_
_atom_site_type_symbol
_atom_site_label
_atom_site_fract_x
_atom_site_fract_y
_atom_site_fract_z
Si Si1 0.561338 0.428441 0.490764
Si Si2 0.782062 0.070206 0.360907
Si Si3 0.488077 0.580753 0.126825
Si Si4 0.395123 0.080792 0.748175
Si Si5 0.704895 0.068901 0.127710
Si Si6 0.605717 0.572346 0.728834
O O1 0.500000 0.500000 0.500000
O O2 0.550824 0.250000 0.490855
O O3 0.598468 0.475108 0.372730
O O4 0.602139 0.474391 0.602933
O O5 0.777795 0.250000 0.383844
O O6 0.740430 0.017832 0.249949
O O7 0.842705 0.020995 0.313579
O O8 0.769583 0.990543 0.495350
O O9 0.460651 0.750000 0.111334
O O10 0.544456 0.601728 0.198677
O O11 0.449849 0.460857 0.196977
O O12 0.500000 0.500000 0.000000
O O13 0.371856 0.250000 0.713957
O O14 0.355931 0.001647 0.851679
O O15 0.701675 0.250000 0.118683
O O16 0.609769 0.750000 0.693189
#
# Coordination Sequence:
#
# PCOD8254935 Si02
#       6
#     8   8   8   8   8   8
#     4  12  24  40  64  98 134 173 220 268 325 395
#     4  10  25  47  68  98 134 173 222 276 335 397
#     4  11  23  38  60  90 125 165 211 263 327 395
#     4  11  24  42  64  92 131 174 215 269 331 391
#     4  11  25  45  70 101 132 173 226 278 334 398
#     4  11  23  41  65  92 130 171 216 271 329 393
#
# _framework density 21.316623
#
# number of rings (size 3 to 8) (size 9 to 14) (size 15 to 20)
#    0.000    1.000    1.667    4.500    2.333    8.667 
#    0.000    0.000    0.000    0.000    0.000    0.000 
#    0.000    0.000    0.000    0.000    0.000    0.000 
#
# Total GULP energy -595128.065033 kJ/mol
# GULP energy per Si atom -12398.501355 kJ/mol
# Density = 2.126811 g / cm^3
# Si number density = 21.316623 Si / 1000 Ang^3
#
#
#
# Elastic Constant Matrix: (Units=GPa)
#
#
# Indices 1 2 3 4 5 6 
#
# 1 70.1677 13.1499 13.2239 0.0000 0.0000 0.0000
# 2 13.1499 89.4753 22.6607 0.0000 0.0000 0.0000
# 3 13.2239 22.6607 117.8715 0.0000 0.0000 0.0000
# 4 0.0000 0.0000 0.0000 41.5975 0.0000 0.0000
# 5 0.0000 0.0000 0.0000 0.0000 36.4400 0.0000
# 6 0.0000 0.0000 0.0000 0.0000 0.0000 5.9949
#
#
#
# Elastic Compliance Matrix: (Units=1/GPa)
#
#
# Indices 1 2 3 4 5 6 
#
# 1 0.014845 -0.001850 -0.001310 0.000000 0.000000 0.000000
# 2 -0.001850 0.011979 -0.002095 0.000000 0.000000 0.000000
# 3 -0.001310 -0.002095 0.009034 0.000000 0.000000 0.000000
# 4 0.000000 0.000000 0.000000 0.024040 0.000000 0.000000
# 5 0.000000 0.000000 0.000000 0.000000 0.027442 0.000000
# 6 0.000000 0.000000 0.000000 0.000000 0.000000 0.166810
#
#
# Mechanical properties :
#
#
# Convention : Reuss Voigt Hill
#
# Bulk Modulus (GPa) = 39.45211 41.73150 40.59181
# Shear Modulus (GPa) = 18.30771 32.03847 25.17309
#
# Velocity S-wave (km/s) = 2.93379 3.88104 3.44017
# Velocity P-wave (km/s) = 5.47942 6.30101 5.90452
#
# Compressibility (1/GPa) = 0.02534719
#
# Stress axis : x y z
#
# Youngs Moduli (GPa) = 67.36216 83.48059 110.69794
#
# Poissons Ratio (x) = 0.15444 0.14499
# Poissons Ratio (y) = 0.12462 0.23195
# Poissons Ratio (z) = 0.08823 0.17492
#
# Static dielectric constant tensor:
#      x y z
#    x 3.885610 0.000000 0.000000 
#    y 0.000000 3.880180 0.000000 
#    z 0.000000 0.000000 4.108130 
# 
# 
# High freq. dielectric constant tensor:
#      x y z
#    x 1.832100 0.000000 0.000000 
#    y 0.000000 1.845960 0.000000 
#    z 0.000000 0.000000 1.852350 
# 
# From -- ./inp_files/15125.got.cif
#   From: 2010.03.12/outbox.cif.g09.slc.cpg/sg62_8_cif.got.tgz:15125.got - 2010.04.10 19:12:36.
