data_PCOD8254441
_publ_section_title
;
Structure prediction by ZEFSAII (Michael W. Deem and Ramdas Pophale) SiO2 
 PCOD8254441
Probable space group: P N M A
;
_chemical_formula_sum "Si O2"
_cell_formula_units_Z 56
_cell_length_a 5.271835
_cell_length_b 12.524288
_cell_length_c 34.427526
_cell_angle_alpha 90.000000
_cell_angle_beta 90.000000
_cell_angle_gamma 90.000000
_cell_volume 2273.111137
_symmetry_space_group_name_H-M "P N M A"
_symmetry_group_IT_number 62
_symmetry_cell_setting 'orthorhombic'
loop_
_space_group_symop_operation_xyz
x,y,z
1/2-x,-y,1/2+z
1/2+x,1/2-y,1/2-z
-x,1/2+y,-z
-x,-y,-z
1/2+x,y,1/2-z
1/2-x,1/2+y,1/2+z
x,1/2-y,z
loop_
_atom_site_type_symbol
_atom_site_label
_atom_site_fract_x
_atom_site_fract_y
_atom_site_fract_z
Si Si1 0.846633 0.122872 0.043738
Si Si2 0.346633 0.122872 0.543738
Si Si3 0.500000 0.000000 0.842270
Si Si4 0.656193 0.623232 0.912191
Si Si5 0.843807 0.376768 0.587809
Si Si6 0.336613 0.875921 0.772901
Si Si7 0.836613 0.624079 0.272901
O O1 0.849964 0.250000 0.043900
O O2 0.613389 0.083387 0.070356
O O3 0.115442 0.079557 0.060625
O O4 0.812720 0.080266 0.000000
O O5 0.349964 0.250000 0.543900
O O6 0.615442 0.079557 0.560625
O O7 0.113389 0.083387 0.570356
O O8 0.677036 0.923627 0.868751
O O9 0.316126 0.927418 0.815600
O O10 0.322964 0.076373 0.868751
O O11 0.683874 0.072582 0.815600
O O12 0.672339 0.750000 0.909764
O O13 0.827661 0.250000 0.590236
O O14 0.104827 0.913788 0.745769
O O15 0.325215 0.750000 0.778177
O O16 0.604827 0.586212 0.245769
O O17 0.825215 0.750000 0.278177
#
# Coordination Sequence:
#
# PCOD8254441 Si02
#       7
#     8   8   8   8   8   8   8
#     4   9  18  37  61  82 113 158 203 245 288 338
#     4   9  18  37  61  82 113 158 203 245 288 338
#     4  12  24  40  61  90 124 156 186 238 297 352
#     4  10  22  37  57  87 118 153 196 242 294 344
#     4  10  22  37  57  87 118 153 196 242 294 344
#     4  10  23  43  66  90 116 152 196 237 282 344
#     4  10  23  43  66  90 116 152 196 237 282 344
#
# _framework density 24.635839000000001
#
# number of rings (size 3 to 8) (size 9 to 14) (size 15 to 20)
#    0.000    2.000    0.000    2.571    0.000    9.143 
#    0.000   12.857    0.000    0.000    0.000    0.000 
#    0.000    0.000    0.000    0.000    0.000    0.000 
#
# Total GULP energy -694868.909067 kJ/mol
# GULP energy per Si atom -12408.373376 kJ/mol
# Density = 2.457977 g / cm^3
# Si number density = 24.635839 Si / 1000 Ang^3
#
#
#
# Elastic Constant Matrix: (Units=GPa)
#
#
# Indices 1 2 3 4 5 6 
#
# 1 174.7580 68.4104 89.4524 0.0000 0.0000 0.0000
# 2 68.4104 60.4515 57.7821 0.0000 0.0000 0.0000
# 3 89.4524 57.7821 212.8408 0.0000 0.0000 0.0000
# 4 0.0000 0.0000 0.0000 53.4830 0.0000 0.0000
# 5 0.0000 0.0000 0.0000 0.0000 26.9555 0.0000
# 6 0.0000 0.0000 0.0000 0.0000 0.0000 51.2829
#
#
#
# Elastic Compliance Matrix: (Units=1/GPa)
#
#
# Indices 1 2 3 4 5 6 
#
# 1 0.010676 -0.010524 -0.001630 0.000000 0.000000 0.000000
# 2 -0.010524 0.032712 -0.004458 0.000000 0.000000 0.000000
# 3 -0.001630 -0.004458 0.006594 0.000000 0.000000 0.000000
# 4 0.000000 0.000000 0.000000 0.018698 0.000000 0.000000
# 5 0.000000 0.000000 0.000000 0.000000 0.037098 0.000000
# 6 0.000000 0.000000 0.000000 0.000000 0.000000 0.019500
#
#
# Mechanical properties :
#
#
# Convention : Reuss Voigt Hill
#
# Bulk Modulus (GPa) = 59.66923 97.70444 78.68684
# Shear Modulus (GPa) = 30.47164 41.83799 36.15482
#
# Velocity S-wave (km/s) = 3.52075 4.12546 3.83504
# Velocity P-wave (km/s) = 6.38754 7.90178 7.18466
#
# Compressibility (1/GPa) = 0.01675906
#
# Stress axis : x y z
#
# Youngs Moduli (GPa) = 93.66718 30.56938 151.66180
#
# Poissons Ratio (x) = 0.32170 0.24720
# Poissons Ratio (y) = 0.98573 0.67609
# Poissons Ratio (z) = 0.15267 0.13628
#
# Static dielectric constant tensor:
#      x y z
#    x 4.463320 0.000000 0.000000 
#    y 0.000000 4.771380 0.000000 
#    z 0.000000 0.000000 4.303080 
# 
# 
# High freq. dielectric constant tensor:
#      x y z
#    x 1.973320 0.000000 0.000000 
#    y 0.000000 2.050400 0.000000 
#    z 0.000000 0.000000 1.971860 
# 
# From -- ./inp_files/31619.got.cif
#   From: 2010.03.12/outbox.cif.g09.slc.cpg/sg62_16_cif.got.tgz:31619.got - 2010.04.10 19:12:36.
