data_PCOD8254674
_publ_section_title
;
Structure prediction by ZEFSAII (Michael W. Deem and Ramdas Pophale) SiO2 
 PCOD8254674
Probable space group: P N M A
;
_chemical_formula_sum "Si O2"
_cell_formula_units_Z 56
_cell_length_a 20.871627
_cell_length_b 8.944141
_cell_length_c 14.652360
_cell_angle_alpha 90.000000
_cell_angle_beta 90.000000
_cell_angle_gamma 90.000000
_cell_volume 2735.284613
_symmetry_space_group_name_H-M "P N M A"
_symmetry_group_IT_number 62
_symmetry_cell_setting 'orthorhombic'
loop_
_space_group_symop_operation_xyz
x,y,z
1/2-x,-y,1/2+z
1/2+x,1/2-y,1/2-z
-x,1/2+y,-z
-x,-y,-z
1/2+x,y,1/2-z
1/2-x,1/2+y,1/2+z
x,1/2-y,z
loop_
_atom_site_type_symbol
_atom_site_label
_atom_site_fract_x
_atom_site_fract_y
_atom_site_fract_z
Si Si1 0.052332 0.424304 0.062468
Si Si2 0.154192 0.920280 0.324964
Si Si3 0.138448 0.926143 0.936468
Si Si4 0.257550 0.420952 0.987012
Si Si5 0.403527 0.925236 0.261347
Si Si6 0.472030 0.576517 0.771895
Si Si7 0.235620 0.074814 0.681668
O O1 0.055080 0.250000 0.040803
O O2 0.118758 0.504586 0.034704
O O3 0.041148 0.457900 0.167021
O O4 0.000000 0.500000 0.000000
O O5 0.136964 0.750000 0.300000
O O6 0.176617 0.931558 0.430429
O O7 0.209144 0.976233 0.253257
O O8 0.090122 0.018542 0.324996
O O9 0.131810 0.750000 0.936228
O O10 0.210657 0.981180 0.922926
O O11 0.092096 0.991070 0.858448
O O12 0.233434 0.250000 0.991057
O O13 0.260713 0.484134 0.088317
O O14 0.413028 0.750000 0.275605
O O15 0.334767 0.963579 0.219231
O O16 0.462282 0.989973 0.200086
O O17 0.481646 0.750000 0.794122
O O18 0.242048 0.250000 0.660442
#
# Coordination Sequence:
#
# PCOD8254674 Si02
#       7
#     8   8   8   8   8   8   8
#     4  11  22  35  54  84 121 159 197 245 305 368
#     4  10  22  42  64  89 125 165 205 252 314 376
#     4  12  23  36  58  88 122 161 204 251 305 368
#     4  11  23  41  64  92 123 160 208 259 312 369
#     4  11  22  40  64  88 122 164 204 252 311 369
#     4  11  24  39  58  90 125 160 208 258 308 371
#     4  10  22  42  66  94 124 160 209 258 313 376
#
# _framework density 20.473189999999999
#
# number of rings (size 3 to 8) (size 9 to 14) (size 15 to 20)
#    0.000    1.143    2.857    3.857    0.000    6.857 
#    0.000    0.714    0.000    0.000    0.000    0.000 
#    0.000    0.000    0.000    0.000    0.000    0.000 
#
# Total GULP energy -694321.215753 kJ/mol
# GULP energy per Si atom -12398.593138 kJ/mol
# Density = 2.042659 g / cm^3
# Si number density = 20.473190 Si / 1000 Ang^3
#
#
#
# Elastic Constant Matrix: (Units=GPa)
#
#
# Indices 1 2 3 4 5 6 
#
# 1 100.8116 32.7412 5.9776 0.0000 0.0000 0.0000
# 2 32.7412 87.2285 23.5128 0.0000 0.0000 0.0000
# 3 5.9776 23.5128 57.0008 0.0000 0.0000 0.0000
# 4 0.0000 0.0000 0.0000 28.7619 0.0000 0.0000
# 5 0.0000 0.0000 0.0000 0.0000 25.8767 0.0000
# 6 0.0000 0.0000 0.0000 0.0000 0.0000 36.2062
#
#
#
# Elastic Compliance Matrix: (Units=1/GPa)
#
#
# Indices 1 2 3 4 5 6 
#
# 1 0.011317 -0.004419 0.000636 0.000000 0.000000 0.000000
# 2 -0.004419 0.014624 -0.005569 0.000000 0.000000 0.000000
# 3 0.000636 -0.005569 0.019774 0.000000 0.000000 0.000000
# 4 0.000000 0.000000 0.000000 0.034768 0.000000 0.000000
# 5 0.000000 0.000000 0.000000 0.000000 0.038645 0.000000
# 6 0.000000 0.000000 0.000000 0.000000 0.000000 0.027620
#
#
# Mechanical properties :
#
#
# Convention : Reuss Voigt Hill
#
# Bulk Modulus (GPa) = 37.02200 41.05601 39.03901
# Shear Modulus (GPa) = 28.66055 30.35624 29.50839
#
# Velocity S-wave (km/s) = 3.74559 3.85480 3.80059
# Velocity P-wave (km/s) = 6.06864 6.31742 6.19428
#
# Compressibility (1/GPa) = 0.02701096
#
# Stress axis : x y z
#
# Youngs Moduli (GPa) = 88.36207 68.38036 50.57117
#
# Poissons Ratio (x) = 0.30220 -0.03217
# Poissons Ratio (y) = 0.39050 0.28163
# Poissons Ratio (z) = -0.05621 0.38081
#
# Static dielectric constant tensor:
#      x y z
#    x 4.028460 0.000000 0.000000 
#    y 0.000000 3.701020 0.000000 
#    z 0.000000 0.000000 3.633470 
# 
# 
# High freq. dielectric constant tensor:
#      x y z
#    x 1.813650 0.000000 0.000000 
#    y 0.000000 1.805510 0.000000 
#    z 0.000000 0.000000 1.780060 
# 
# From -- ./inp_files/20330.got.cif
#   From: 2010.03.12/outbox.cif.g09.slc.cpg/sg62_11_cif.got.tgz:20330.got - 2010.04.10 19:12:36.
