data_PCOD8254015
_publ_section_title
;
Structure prediction by ZEFSAII (Michael W. Deem and Ramdas Pophale) SiO2 
 PCOD8254015
Probable space group: P N M A
;
_chemical_formula_sum "Si O2"
_cell_formula_units_Z 48
_cell_length_a 13.844133
_cell_length_b 8.979820
_cell_length_c 20.207415
_cell_angle_alpha 90.000000
_cell_angle_beta 90.000000
_cell_angle_gamma 90.000000
_cell_volume 2512.141829
_symmetry_space_group_name_H-M "P N M A"
_symmetry_group_IT_number 62
_symmetry_cell_setting 'orthorhombic'
loop_
_space_group_symop_operation_xyz
x,y,z
1/2-x,-y,1/2+z
1/2+x,1/2-y,1/2-z
-x,1/2+y,-z
-x,-y,-z
1/2+x,y,1/2-z
1/2-x,1/2+y,1/2+z
x,1/2-y,z
loop_
_atom_site_type_symbol
_atom_site_label
_atom_site_fract_x
_atom_site_fract_y
_atom_site_fract_z
Si Si1 0.561872 0.422526 0.444603
Si Si2 0.045375 0.575765 0.309500
Si Si3 0.050797 0.082619 0.558403
Si Si4 0.555044 0.923064 0.687703
Si Si5 0.739970 0.920256 0.494394
Si Si6 0.743837 0.074860 0.636813
O O1 0.500000 0.500000 0.500000
O O2 0.573170 0.250000 0.461291
O O3 0.511382 0.451163 0.375381
O O4 0.665811 0.499290 0.445579
O O5 0.028880 0.750000 0.295439
O O6 0.157847 0.540962 0.323401
O O7 0.981298 0.516973 0.371097
O O8 0.008156 0.482450 0.247939
O O9 0.011783 0.250000 0.555364
O O10 0.164400 0.071925 0.549182
O O11 0.000000 0.000000 0.500000
O O12 0.578892 0.750000 0.697910
O O13 0.655948 0.009908 0.679947
O O14 0.708692 0.750000 0.508648
O O15 0.749357 0.000353 0.564819
O O16 0.728363 0.250000 0.626645
#
# Coordination Sequence:
#
# PCOD8254015 Si02
#       6
#     8   8   8   8   8   8
#     4  11  23  39  61  89 121 158 206 256 306 365
#     4  10  23  42  63  91 125 164 208 250 306 372
#     4  10  21  38  61  91 123 158 205 254 301 362
#     4  11  25  42  62  91 126 162 206 257 310 368
#     4  11  22  36  61  94 126 160 204 257 307 364
#     4  11  22  39  65  90 121 164 206 252 307 371
#
# _framework density 19.107199999999999
#
# number of rings (size 3 to 8) (size 9 to 14) (size 15 to 20)
#    0.000    1.333    3.333    2.000    0.000    6.000 
#    0.000    5.000    0.000    0.000    0.000    0.000 
#    0.000    0.000    0.000    0.000    0.000    0.000 
#
# Total GULP energy -595317.488275 kJ/mol
# GULP energy per Si atom -12402.447672 kJ/mol
# Density = 1.906371 g / cm^3
# Si number density = 19.107200 Si / 1000 Ang^3
#
#
#
# Elastic Constant Matrix: (Units=GPa)
#
#
# Indices 1 2 3 4 5 6 
#
# 1 124.2975 74.0133 67.6789 0.0000 0.0000 0.0000
# 2 74.0133 125.1565 79.9168 0.0000 0.0000 0.0000
# 3 67.6789 79.9168 128.9471 0.0000 0.0000 0.0000
# 4 0.0000 0.0000 0.0000 34.4031 0.0000 0.0000
# 5 0.0000 0.0000 0.0000 0.0000 31.4525 0.0000
# 6 0.0000 0.0000 0.0000 0.0000 0.0000 33.1714
#
#
#
# Elastic Compliance Matrix: (Units=1/GPa)
#
#
# Indices 1 2 3 4 5 6 
#
# 1 0.013302 -0.005640 -0.003486 0.000000 0.000000 0.000000
# 2 -0.005640 0.015615 -0.006717 0.000000 0.000000 0.000000
# 3 -0.003486 -0.006717 0.013748 0.000000 0.000000 0.000000
# 4 0.000000 0.000000 0.000000 0.029067 0.000000 0.000000
# 5 0.000000 0.000000 0.000000 0.000000 0.031794 0.000000
# 6 0.000000 0.000000 0.000000 0.000000 0.000000 0.030146
#
#
# Mechanical properties :
#
#
# Convention : Reuss Voigt Hill
#
# Bulk Modulus (GPa) = 91.09449 91.29100 91.19274
# Shear Modulus (GPa) = 29.58283 30.25822 29.92052
#
# Velocity S-wave (km/s) = 3.93906 3.98377 3.96148
# Velocity P-wave (km/s) = 8.27449 8.30919 8.29186
#
# Compressibility (1/GPa) = 0.01097761
#
# Stress axis : x y z
#
# Youngs Moduli (GPa) = 75.17760 64.04293 72.74013
#
# Poissons Ratio (x) = 0.36123 0.25356
# Poissons Ratio (y) = 0.42403 0.48859
# Poissons Ratio (z) = 0.26206 0.43017
#
# Static dielectric constant tensor:
#      x y z
#    x 3.194070 0.000000 0.000000 
#    y 0.000000 3.774020 0.000000 
#    z 0.000000 0.000000 3.352480 
# 
# 
# High freq. dielectric constant tensor:
#      x y z
#    x 1.760050 0.000000 0.000000 
#    y 0.000000 1.754150 0.000000 
#    z 0.000000 0.000000 1.742400 
# 
# From -- ./inp_files/23756.got.cif
#   From: 2010.03.12/outbox.cif.g09.slc.cpg/sg62_12_cif.got.tgz:23756.got - 2010.04.10 19:12:36.
