data_PCOD8254755
_publ_section_title
;
Structure prediction by ZEFSAII (Michael W. Deem and Ramdas Pophale) SiO2 
 PCOD8254755
Probable space group: P N M A
;
_chemical_formula_sum "Si O2"
_cell_formula_units_Z 40
_cell_length_a 14.933848
_cell_length_b 13.253910
_cell_length_c 9.276786
_cell_angle_alpha 90.000000
_cell_angle_beta 90.000000
_cell_angle_gamma 90.000000
_cell_volume 1836.171669
_symmetry_space_group_name_H-M "P N M A"
_symmetry_group_IT_number 62
_symmetry_cell_setting 'orthorhombic'
loop_
_space_group_symop_operation_xyz
x,y,z
1/2-x,-y,1/2+z
1/2+x,1/2-y,1/2-z
-x,1/2+y,-z
-x,-y,-z
1/2+x,y,1/2-z
1/2-x,1/2+y,1/2+z
x,1/2-y,z
loop_
_atom_site_type_symbol
_atom_site_label
_atom_site_fract_x
_atom_site_fract_y
_atom_site_fract_z
Si Si1 0.218602 0.130619 0.541304
Si Si2 0.890561 0.132604 0.354932
Si Si3 0.283513 0.962788 0.730091
Si Si4 0.518981 0.024902 0.338230
Si Si5 0.011642 0.365922 0.608981
O O1 0.244713 0.250000 0.525265
O O2 0.240237 0.066554 0.395545
O O3 0.114160 0.118062 0.569132
O O4 0.271205 0.080798 0.679217
O O5 0.891202 0.250000 0.366108
O O6 0.788974 0.095385 0.367901
O O7 0.940433 0.100763 0.208497
O O8 0.948977 0.085200 0.484914
O O9 0.383139 0.925604 0.688872
O O10 0.500000 0.000000 0.500000
O O11 0.512622 0.919288 0.256569
O O12 0.987977 0.250000 0.630878
#
# Coordination Sequence:
#
# PCOD8254755 Si02
#       5
#     8   8   8   8   8
#     4  11  24  45  71 102 140 184 234 287 344 413
#     4  11  23  43  69  98 133 180 234 283 343 415
#     4  12  24  41  72 101 140 182 231 284 353 414
#     4  12  25  41  66 100 139 176 223 288 355 407
#     4  10  22  45  71  92 129 183 231 277 338 411
#
# _framework density 21.784455000000001
#
# number of rings (size 3 to 8) (size 9 to 14) (size 15 to 20)
#    0.000    0.800    4.000    3.600    0.000    2.400 
#    0.000    2.000    0.000    0.000    0.000    0.000 
#    0.000    0.000    0.000    0.000    0.000    0.000 
#
# Total GULP energy -495889.895223 kJ/mol
# GULP energy per Si atom -12397.247381 kJ/mol
# Density = 2.173487 g / cm^3
# Si number density = 21.784455 Si / 1000 Ang^3
#
#
#
# Elastic Constant Matrix: (Units=GPa)
#
#
# Indices 1 2 3 4 5 6 
#
# 1 114.4941 35.3944 24.2473 0.0000 0.0000 0.0000
# 2 35.3944 80.3822 57.3059 0.0000 0.0000 0.0000
# 3 24.2473 57.3059 115.5799 0.0000 0.0000 0.0000
# 4 0.0000 0.0000 0.0000 30.6581 0.0000 0.0000
# 5 0.0000 0.0000 0.0000 0.0000 25.8520 0.0000
# 6 0.0000 0.0000 0.0000 0.0000 0.0000 32.1796
#
#
#
# Elastic Compliance Matrix: (Units=1/GPa)
#
#
# Indices 1 2 3 4 5 6 
#
# 1 0.010112 -0.004548 0.000133 0.000000 0.000000 0.000000
# 2 -0.004548 0.021287 -0.009601 0.000000 0.000000 0.000000
# 3 0.000133 -0.009601 0.013384 0.000000 0.000000 0.000000
# 4 0.000000 0.000000 0.000000 0.032618 0.000000 0.000000
# 5 0.000000 0.000000 0.000000 0.000000 0.038682 0.000000
# 6 0.000000 0.000000 0.000000 0.000000 0.000000 0.031076
#
#
# Mechanical properties :
#
#
# Convention : Reuss Voigt Hill
#
# Bulk Modulus (GPa) = 59.68791 60.48351 60.08571
# Shear Modulus (GPa) = 27.65914 30.63850 29.14882
#
# Velocity S-wave (km/s) = 3.56711 3.75432 3.66191
# Velocity P-wave (km/s) = 6.66517 6.82774 6.74695
#
# Compressibility (1/GPa) = 0.01675381
#
# Stress axis : x y z
#
# Youngs Moduli (GPa) = 98.89593 46.97624 74.71565
#
# Poissons Ratio (x) = 0.21363 -0.00997
# Poissons Ratio (y) = 0.44973 0.71731
# Poissons Ratio (z) = -0.01320 0.45100
#
# Static dielectric constant tensor:
#      x y z
#    x 4.289140 0.000000 0.000000 
#    y 0.000000 4.184160 0.000000 
#    z 0.000000 0.000000 4.085690 
# 
# 
# High freq. dielectric constant tensor:
#      x y z
#    x 1.872720 0.000000 0.000000 
#    y 0.000000 1.858960 0.000000 
#    z 0.000000 0.000000 1.851610 
# 
# From -- ./inp_files/6131.got.cif
#   From: 2010.03.12/outbox.cif.g09.slc.cpg/sg62_4_cif.got.tgz:6131.got - 2010.04.10 19:12:36.
