data_PCOD8254499
_publ_section_title
;
Structure prediction by ZEFSAII (Michael W. Deem and Ramdas Pophale) SiO2 
 PCOD8254499
Probable space group: P N M A
;
_chemical_formula_sum "Si O2"
_cell_formula_units_Z 56
_cell_length_a 32.026462
_cell_length_b 14.078561
_cell_length_c 5.669172
_cell_angle_alpha 90.000000
_cell_angle_beta 90.000000
_cell_angle_gamma 90.000000
_cell_volume 2556.153115
_symmetry_space_group_name_H-M "P N M A"
_symmetry_group_IT_number 62
_symmetry_cell_setting 'orthorhombic'
loop_
_space_group_symop_operation_xyz
x,y,z
1/2-x,-y,1/2+z
1/2+x,1/2-y,1/2-z
-x,1/2+y,-z
-x,-y,-z
1/2+x,y,1/2-z
1/2-x,1/2+y,1/2+z
x,1/2-y,z
loop_
_atom_site_type_symbol
_atom_site_label
_atom_site_fract_x
_atom_site_fract_y
_atom_site_fract_z
Si Si1 0.036160 0.638505 0.442380
Si Si2 0.342622 0.575220 0.367593
Si Si3 0.796499 0.024468 0.753787
Si Si4 0.383779 0.028635 0.989243
Si Si5 0.727503 0.356850 0.937305
Si Si6 0.909796 0.645313 0.804265
Si Si7 0.999336 0.358651 0.056496
O O1 0.027783 0.750000 0.433262
O O2 0.085607 0.617760 0.461146
O O3 0.015353 0.597090 0.686825
O O4 0.019045 0.594806 0.188896
O O5 0.307658 0.509700 0.485719
O O6 0.367794 0.643625 0.540839
O O7 0.375371 0.499730 0.258607
O O8 0.318345 0.641029 0.181505
O O9 0.839269 0.054287 0.625225
O O10 0.772509 0.934604 0.642378
O O11 0.765547 0.114952 0.761435
O O12 0.407019 0.936037 0.888300
O O13 0.734963 0.250000 0.032740
O O14 0.912130 0.750000 0.683603
O O15 0.950846 0.629776 0.963486
O O16 0.984503 0.250000 0.059753
#
# Coordination Sequence:
#
# PCOD8254499 Si02
#       7
#     8   8   8   8   8   8   8
#     4  10  22  42  64  91 130 175 220 268 325 385
#     4  10  22  40  61  89 126 160 200 266 318 383
#     4  10  22  42  59  91 129 152 209 271 308 394
#     4  10  24  38  63  91 124 165 211 261 321 376
#     4  11  22  40  68  91 119 167 205 255 335 394
#     4  10  22  39  60  92 128 164 209 263 320 383
#     4   9  21  39  63  91 129 173 218 271 322 380
#
# _framework density 21.907921000000002
#
# number of rings (size 3 to 8) (size 9 to 14) (size 15 to 20)
#    0.000    2.000    1.429    0.429    6.000    8.000 
#    0.000    0.714    0.000    0.000    0.000    0.000 
#    0.000    0.000    0.000    0.000    0.000    0.000 
#
# Total GULP energy -693846.960630 kJ/mol
# GULP energy per Si atom -12390.124297 kJ/mol
# Density = 2.185806 g / cm^3
# Si number density = 21.907921 Si / 1000 Ang^3
#
#
#
# Elastic Constant Matrix: (Units=GPa)
#
#
# Indices 1 2 3 4 5 6 
#
# 1 104.4967 28.4884 22.4630 0.0000 0.0000 0.0000
# 2 28.4884 33.0452 29.1961 0.0000 0.0000 0.0000
# 3 22.4630 29.1961 103.8166 0.0000 0.0000 0.0000
# 4 0.0000 0.0000 0.0000 18.2046 0.0000 0.0000
# 5 0.0000 0.0000 0.0000 0.0000 30.1758 0.0000
# 6 0.0000 0.0000 0.0000 0.0000 0.0000 34.5264
#
#
#
# Elastic Compliance Matrix: (Units=1/GPa)
#
#
# Indices 1 2 3 4 5 6 
#
# 1 0.012525 -0.011181 0.000435 0.000000 0.000000 0.000000
# 2 -0.011181 0.050249 -0.011712 0.000000 0.000000 0.000000
# 3 0.000435 -0.011712 0.012832 0.000000 0.000000 0.000000
# 4 0.000000 0.000000 0.000000 0.054931 0.000000 0.000000
# 5 0.000000 0.000000 0.000000 0.000000 0.033139 0.000000
# 6 0.000000 0.000000 0.000000 0.000000 0.000000 0.028963
#
#
# Mechanical properties :
#
#
# Convention : Reuss Voigt Hill
#
# Bulk Modulus (GPa) = 32.58621 44.62815 38.60718
# Shear Modulus (GPa) = 20.17866 27.32877 23.75371
#
# Velocity S-wave (km/s) = 3.03820 3.53574 3.29637
# Velocity P-wave (km/s) = 5.21670 6.08963 5.66999
#
# Compressibility (1/GPa) = 0.03068783
#
# Stress axis : x y z
#
# Youngs Moduli (GPa) = 79.84272 19.90087 77.92965
#
# Poissons Ratio (x) = 0.22252 -0.03387
# Poissons Ratio (y) = 0.89276 0.91272
# Poissons Ratio (z) = -0.03470 0.23308
#
# Static dielectric constant tensor:
#      x y z
#    x 4.076710 0.000000 0.000000 
#    y 0.000000 3.583800 0.000000 
#    z 0.000000 0.000000 4.156440 
# 
# 
# High freq. dielectric constant tensor:
#      x y z
#    x 1.874000 0.000000 0.000000 
#    y 0.000000 1.833670 0.000000 
#    z 0.000000 0.000000 1.859540 
# 
# From -- ./inp_files/3582.got.cif
#   From: 2010.03.12/outbox.cif.g09.slc.cpg/sg62_2_cif.got.tgz:3582.got - 2010.04.10 19:12:36.
