data_PCOD8254031
_publ_section_title
;
Structure prediction by ZEFSAII (Michael W. Deem and Ramdas Pophale) SiO2 
 PCOD8254031
Probable space group: P N M A
;
_chemical_formula_sum "Si O2"
_cell_formula_units_Z 48
_cell_length_a 28.382274
_cell_length_b 8.837447
_cell_length_c 9.436719
_cell_angle_alpha 90.000000
_cell_angle_beta 90.000000
_cell_angle_gamma 90.000000
_cell_volume 2366.982428
_symmetry_space_group_name_H-M "P N M A"
_symmetry_group_IT_number 62
_symmetry_cell_setting 'orthorhombic'
loop_
_space_group_symop_operation_xyz
x,y,z
1/2-x,-y,1/2+z
1/2+x,1/2-y,1/2-z
-x,1/2+y,-z
-x,-y,-z
1/2+x,y,1/2-z
1/2-x,1/2+y,1/2+z
x,1/2-y,z
loop_
_atom_site_type_symbol
_atom_site_label
_atom_site_fract_x
_atom_site_fract_y
_atom_site_fract_z
Si Si1 0.013570 0.071400 0.645866
Si Si2 0.700838 0.927844 0.980187
Si Si3 0.111725 0.922614 0.694648
Si Si4 0.718387 0.571539 0.300108
Si Si5 0.130080 0.923634 0.012338
Si Si6 0.963359 0.928047 0.894198
O O1 0.009000 0.250000 0.643025
O O2 0.066349 0.029423 0.692851
O O3 0.000000 0.000000 0.500000
O O4 0.973291 0.002800 0.744334
O O5 0.709679 0.750000 0.973763
O O6 0.709278 0.989965 0.139893
O O7 0.647453 0.966828 0.931918
O O8 0.734568 0.002881 0.864812
O O9 0.094303 0.750000 0.676494
O O10 0.138739 0.942355 0.844394
O O11 0.724030 0.750000 0.295781
O O12 0.676025 0.522769 0.403094
O O13 0.116975 0.750000 0.049742
O O14 0.089254 0.035671 0.059886
O O15 0.971392 0.750000 0.888638
O O16 0.000000 0.000000 0.000000
#
# Coordination Sequence:
#
# PCOD8254031 Si02
#       6
#     8   8   8   8   8   8
#     4  12  26  43  64  92 128 168 212 263 316 374
#     4  10  22  40  63  92 125 163 206 256 312 371
#     4  10  21  39  62  89 124 165 210 259 314 372
#     4  10  22  40  63  93 125 163 206 255 312 371
#     4  10  21  38  62  90 124 165 210 259 313 370
#     4  12  24  41  64  94 128 168 214 259 311 371
#
# _framework density 20.278986
#
# number of rings (size 3 to 8) (size 9 to 14) (size 15 to 20)
#    0.000    1.333    1.667    4.000    2.333    3.333 
#    0.000    0.000    0.000    0.000    0.000    0.000 
#    0.000    0.000    0.000    0.000    0.000    0.000 
#
# Total GULP energy -595325.746948 kJ/mol
# GULP energy per Si atom -12402.619728 kJ/mol
# Density = 2.023283 g / cm^3
# Si number density = 20.278986 Si / 1000 Ang^3
#
#
#
# Elastic Constant Matrix: (Units=GPa)
#
#
# Indices 1 2 3 4 5 6 
#
# 1 72.7678 28.2324 20.7145 0.0000 0.0000 0.0000
# 2 28.2324 105.3023 30.5908 0.0000 0.0000 0.0000
# 3 20.7145 30.5908 123.3859 0.0000 0.0000 0.0000
# 4 0.0000 0.0000 0.0000 31.5487 0.0000 0.0000
# 5 0.0000 0.0000 0.0000 0.0000 43.9943 0.0000
# 6 0.0000 0.0000 0.0000 0.0000 0.0000 38.3506
#
#
#
# Elastic Compliance Matrix: (Units=1/GPa)
#
#
# Indices 1 2 3 4 5 6 
#
# 1 0.015666 -0.003703 -0.001712 0.000000 0.000000 0.000000
# 2 -0.003703 0.011109 -0.002133 0.000000 0.000000 0.000000
# 3 -0.001712 -0.002133 0.008921 0.000000 0.000000 0.000000
# 4 0.000000 0.000000 0.000000 0.031697 0.000000 0.000000
# 5 0.000000 0.000000 0.000000 0.000000 0.022730 0.000000
# 6 0.000000 0.000000 0.000000 0.000000 0.000000 0.026075
#
#
# Mechanical properties :
#
#
# Convention : Reuss Voigt Hill
#
# Bulk Modulus (GPa) = 48.54154 51.17016 49.85585
# Shear Modulus (GPa) = 36.18985 37.57329 36.88157
#
# Velocity S-wave (km/s) = 4.22903 4.30911 4.26926
# Velocity P-wave (km/s) = 6.91629 7.07430 6.99574
#
# Compressibility (1/GPa) = 0.02060091
#
# Stress axis : x y z
#
# Youngs Moduli (GPa) = 63.83101 90.01912 112.09766
#
# Poissons Ratio (x) = 0.33333 0.19192
# Poissons Ratio (y) = 0.23636 0.23905
# Poissons Ratio (z) = 0.10928 0.19197
#
# Static dielectric constant tensor:
#      x y z
#    x 3.432500 0.000000 0.000000 
#    y 0.000000 3.739620 0.000000 
#    z 0.000000 0.000000 4.095540 
# 
# 
# High freq. dielectric constant tensor:
#      x y z
#    x 1.795070 0.000000 0.000000 
#    y 0.000000 1.785130 0.000000 
#    z 0.000000 0.000000 1.811890 
# 
# From -- ./inp_files/10238.got.cif
#   From: 2010.03.12/outbox.cif.g09.slc.cpg/sg62_6_cif.got.tgz:10238.got - 2010.04.10 19:12:36.
