data_PCOD8254372
_publ_section_title
;
Structure prediction by ZEFSAII (Michael W. Deem and Ramdas Pophale) SiO2 
 PCOD8254372
Probable space group: P N M A
;
_chemical_formula_sum "Si O2"
_cell_formula_units_Z 64
_cell_length_a 10.955213
_cell_length_b 24.252484
_cell_length_c 11.682528
_cell_angle_alpha 90.000000
_cell_angle_beta 90.000000
_cell_angle_gamma 90.000000
_cell_volume 3103.944042
_symmetry_space_group_name_H-M "P N M A"
_symmetry_group_IT_number 62
_symmetry_cell_setting 'orthorhombic'
loop_
_space_group_symop_operation_xyz
x,y,z
1/2-x,-y,1/2+z
1/2+x,1/2-y,1/2-z
-x,1/2+y,-z
-x,-y,-z
1/2+x,y,1/2-z
1/2-x,1/2+y,1/2+z
x,1/2-y,z
loop_
_atom_site_type_symbol
_atom_site_label
_atom_site_fract_x
_atom_site_fract_y
_atom_site_fract_z
Si Si1 0.814417 0.933114 0.277451
Si Si2 0.361549 0.354436 0.596277
Si Si3 0.698186 0.938073 0.806390
Si Si4 0.238217 0.615176 0.461904
Si Si5 0.518517 0.647063 0.173267
Si Si6 0.062173 0.379200 0.283273
Si Si7 0.866263 0.809112 0.506833
Si Si8 0.061027 0.184923 0.058696
O O1 0.711140 0.910162 0.366713
O O2 0.793342 0.913582 0.148895
O O3 0.949305 0.910983 0.305607
O O4 0.815088 0.998067 0.281041
O O5 0.415199 0.328562 0.714222
O O6 0.276147 0.314896 0.521531
O O7 0.474213 0.359073 0.508590
O O8 0.816308 0.916083 0.736686
O O9 0.567872 0.910553 0.773092
O O10 0.727519 0.930595 0.939725
O O11 0.307702 0.669641 0.506927
O O12 0.107158 0.638139 0.432416
O O13 0.423297 0.690404 0.121452
O O14 0.079105 0.355444 0.410350
O O15 0.057790 0.328926 0.193121
O O16 0.887403 0.750000 0.565410
O O17 0.033020 0.250000 0.039210
#
# Coordination Sequence:
#
# PCOD8254372 Si02
#       8
#     8   8   8   8   8   8   8   8
#     4  10  23  41  69  96 131 173 217 275 337 387
#     4  10  22  41  62  97 131 163 219 273 320 404
#     4  11  25  42  70  96 133 181 217 273 340 390
#     4  10  22  42  62  95 133 167 219 269 320 410
#     4  10  21  42  62  93 134 160 218 274 316 402
#     4  11  25  45  64 101 134 168 237 271 321 412
#     4  11  23  41  66  92 127 173 214 274 335 384
#     4  11  23  42  68  94 134 178 216 277 339 388
#
# _framework density 20.618928
#
# number of rings (size 3 to 8) (size 9 to 14) (size 15 to 20)
#    0.000    1.500    2.500    1.500    3.500    5.000 
#    0.000    5.625    0.000    0.000    0.000    0.000 
#    0.000    0.000    0.000    0.000    0.000    0.000 
#
# Total GULP energy -792881.860698 kJ/mol
# GULP energy per Si atom -12388.779073 kJ/mol
# Density = 2.057200 g / cm^3
# Si number density = 20.618928 Si / 1000 Ang^3
#
#
#
# Elastic Constant Matrix: (Units=GPa)
#
#
# Indices 1 2 3 4 5 6 
#
# 1 123.7210 39.5058 37.5746 0.0000 0.0000 0.0000
# 2 39.5058 115.7244 38.6324 0.0000 0.0000 0.0000
# 3 37.5746 38.6324 95.6282 0.0000 0.0000 0.0000
# 4 0.0000 0.0000 0.0000 13.4574 0.0000 0.0000
# 5 0.0000 0.0000 0.0000 0.0000 37.5036 0.0000
# 6 0.0000 0.0000 0.0000 0.0000 0.0000 14.8582
#
#
#
# Elastic Compliance Matrix: (Units=1/GPa)
#
#
# Indices 1 2 3 4 5 6 
#
# 1 0.009704 -0.002358 -0.002861 0.000000 0.000000 0.000000
# 2 -0.002358 0.010561 -0.003340 0.000000 0.000000 0.000000
# 3 -0.002861 -0.003340 0.012930 0.000000 0.000000 0.000000
# 4 0.000000 0.000000 0.000000 0.074308 0.000000 0.000000
# 5 0.000000 0.000000 0.000000 0.000000 0.026664 0.000000
# 6 0.000000 0.000000 0.000000 0.000000 0.000000 0.067303
#
#
# Mechanical properties :
#
#
# Convention : Reuss Voigt Hill
#
# Bulk Modulus (GPa) = 62.19298 62.94438 62.56868
# Shear Modulus (GPa) = 22.32658 27.78789 25.05724
#
# Velocity S-wave (km/s) = 3.29419 3.67507 3.48983
# Velocity P-wave (km/s) = 6.68562 6.97151 6.83006
#
# Compressibility (1/GPa) = 0.01607898
#
# Stress axis : x y z
#
# Youngs Moduli (GPa) = 103.04635 94.68631 77.33671
#
# Poissons Ratio (x) = 0.22326 0.22122
# Poissons Ratio (y) = 0.24298 0.25831
# Poissons Ratio (z) = 0.29476 0.31626
#
# Static dielectric constant tensor:
#      x y z
#    x 4.104760 0.000000 0.000000 
#    y 0.000000 3.362380 0.000000 
#    z 0.000000 0.000000 3.806600 
# 
# 
# High freq. dielectric constant tensor:
#      x y z
#    x 1.831780 0.000000 0.000000 
#    y 0.000000 1.776280 0.000000 
#    z 0.000000 0.000000 1.820830 
# 
# From -- ./inp_files/12544.got.cif
#   From: 2010.03.12/outbox.cif.g09.slc.cpg/sg62_7_cif.got.tgz:12544.got - 2010.04.10 19:12:36.
