data_PCOD8254936
_publ_section_title
;
Structure prediction by ZEFSAII (Michael W. Deem and Ramdas Pophale) SiO2 
 PCOD8254936
Probable space group: P N M A
;
_chemical_formula_sum "Si O2"
_cell_formula_units_Z 64
_cell_length_a 8.544308
_cell_length_b 17.679904
_cell_length_c 18.917470
_cell_angle_alpha 90.000000
_cell_angle_beta 90.000000
_cell_angle_gamma 90.000000
_cell_volume 2857.721167
_symmetry_space_group_name_H-M "P N M A"
_symmetry_group_IT_number 62
_symmetry_cell_setting 'orthorhombic'
loop_
_space_group_symop_operation_xyz
x,y,z
1/2-x,-y,1/2+z
1/2+x,1/2-y,1/2-z
-x,1/2+y,-z
-x,-y,-z
1/2+x,y,1/2-z
1/2-x,1/2+y,1/2+z
x,1/2-y,z
loop_
_atom_site_type_symbol
_atom_site_label
_atom_site_fract_x
_atom_site_fract_y
_atom_site_fract_z
Si Si1 0.669893 0.835061 0.680709
Si Si2 0.828385 0.664155 0.071996
Si Si3 0.817324 0.952986 0.304923
Si Si4 0.811467 0.159399 0.912910
Si Si5 0.325521 0.601980 0.943288
Si Si6 0.347993 0.166253 0.064233
Si Si7 0.329773 0.605227 0.686944
Si Si8 0.175365 0.539888 0.345538
O O1 0.637852 0.750000 0.707508
O O2 0.751254 0.831020 0.604042
O O3 0.789088 0.880557 0.731065
O O4 0.511648 0.882122 0.675823
O O5 0.800604 0.750000 0.094042
O O6 0.698678 0.619269 0.115829
O O7 0.005301 0.640470 0.088433
O O8 0.794537 0.649888 0.989269
O O9 0.764028 0.873880 0.340810
O O10 0.793004 0.955862 0.220815
O O11 0.999395 0.969231 0.318165
O O12 0.714023 0.020767 0.338280
O O13 0.778885 0.250000 0.918193
O O14 0.738540 0.111569 0.977614
O O15 0.513266 0.606545 0.946867
O O16 0.278712 0.524149 0.903384
O O17 0.417665 0.250000 0.052083
O O18 0.274519 0.163151 0.142001
#
# Coordination Sequence:
#
# PCOD8254936 Si02
#       8
#     8   8   8   8   8   8   8   8
#     4  12  24  40  63  94 139 184 234 284 344 413
#     4  10  25  47  73 104 137 179 233 291 355 420
#     4  12  26  47  71 102 141 184 235 290 350 415
#     4  11  26  48  75 105 139 183 237 293 354 421
#     4  12  25  42  70 103 139 181 228 284 349 415
#     4  11  22  41  66  97 139 179 225 280 339 412
#     4  12  24  41  61  97 135 187 231 283 339 413
#     4  12  26  46  72 102 139 186 232 292 350 422
#
# _framework density 22.395465000000002
#
# number of rings (size 3 to 8) (size 9 to 14) (size 15 to 20)
#    0.000    0.500    2.500    6.000    3.500    4.500 
#    0.000    0.000    0.000    0.000    0.000    0.000 
#    0.000    0.000    0.000    0.000    0.000    0.000 
#
# Total GULP energy -793754.252429 kJ/mol
# GULP energy per Si atom -12402.410194 kJ/mol
# Density = 2.234449 g / cm^3
# Si number density = 22.395465 Si / 1000 Ang^3
#
#
#
# Elastic Constant Matrix: (Units=GPa)
#
#
# Indices 1 2 3 4 5 6 
#
# 1 79.6363 34.3034 8.1940 0.0000 0.0000 0.0000
# 2 34.3034 101.6626 46.3537 0.0000 0.0000 0.0000
# 3 8.1940 46.3537 82.6058 0.0000 0.0000 0.0000
# 4 0.0000 0.0000 0.0000 35.0126 0.0000 0.0000
# 5 0.0000 0.0000 0.0000 0.0000 39.2029 0.0000
# 6 0.0000 0.0000 0.0000 0.0000 0.0000 34.2308
#
#
#
# Elastic Compliance Matrix: (Units=1/GPa)
#
#
# Indices 1 2 3 4 5 6 
#
# 1 0.014890 -0.005847 0.001804 0.000000 0.000000 0.000000
# 2 -0.005847 0.015514 -0.008126 0.000000 0.000000 0.000000
# 3 0.001804 -0.008126 0.016486 0.000000 0.000000 0.000000
# 4 0.000000 0.000000 0.000000 0.028561 0.000000 0.000000
# 5 0.000000 0.000000 0.000000 0.000000 0.025508 0.000000
# 6 0.000000 0.000000 0.000000 0.000000 0.000000 0.029213
#
#
# Mechanical properties :
#
#
# Convention : Reuss Voigt Hill
#
# Bulk Modulus (GPa) = 44.33911 49.06743 46.70327
# Shear Modulus (GPa) = 30.85873 33.35951 32.10912
#
# Velocity S-wave (km/s) = 3.71604 3.86368 3.79057
# Velocity P-wave (km/s) = 6.18491 6.47001 6.32907
#
# Compressibility (1/GPa) = 0.02255345
#
# Stress axis : x y z
#
# Youngs Moduli (GPa) = 67.15934 64.45676 60.65577
#
# Poissons Ratio (x) = 0.37686 -0.10941
# Poissons Ratio (y) = 0.39266 0.49288
# Poissons Ratio (z) = -0.12115 0.52376
#
# Static dielectric constant tensor:
#      x y z
#    x 3.953560 0.000000 0.000000 
#    y 0.000000 4.055090 0.000000 
#    z 0.000000 0.000000 4.098610 
# 
# 
# High freq. dielectric constant tensor:
#      x y z
#    x 1.889230 0.000000 0.000000 
#    y 0.000000 1.885420 0.000000 
#    z 0.000000 0.000000 1.884120 
# 
# From -- ./inp_files/26157.got.cif
#   From: 2010.03.12/outbox.cif.g09.slc.cpg/sg62_14_cif.got.tgz:26157.got - 2010.04.10 19:12:36.
