data_PCOD8254666
_publ_section_title
;
Structure prediction by ZEFSAII (Michael W. Deem and Ramdas Pophale) SiO2 
 PCOD8254666
Probable space group: P N M A
;
_chemical_formula_sum "Si O2"
_cell_formula_units_Z 64
_cell_length_a 15.435591
_cell_length_b 8.435888
_cell_length_c 24.002757
_cell_angle_alpha 90.000000
_cell_angle_beta 90.000000
_cell_angle_gamma 90.000000
_cell_volume 3125.469002
_symmetry_space_group_name_H-M "P N M A"
_symmetry_group_IT_number 62
_symmetry_cell_setting 'orthorhombic'
loop_
_space_group_symop_operation_xyz
x,y,z
1/2-x,-y,1/2+z
1/2+x,1/2-y,1/2-z
-x,1/2+y,-z
-x,-y,-z
1/2+x,y,1/2-z
1/2-x,1/2+y,1/2+z
x,1/2-y,z
loop_
_atom_site_type_symbol
_atom_site_label
_atom_site_fract_x
_atom_site_fract_y
_atom_site_fract_z
Si Si1 0.502045 0.937759 0.562082
Si Si2 0.163661 0.433824 0.132020
Si Si3 0.843710 0.064622 0.635521
Si Si4 0.914445 0.067530 0.250259
Si Si5 0.998499 0.062631 0.561882
Si Si6 0.399809 0.065944 0.745511
Si Si7 0.844904 0.934785 0.360891
Si Si8 0.650736 0.434640 0.638692
O O1 0.512971 0.750000 0.564409
O O2 0.414394 0.992851 0.592740
O O3 0.500000 0.000000 0.500000
O O4 0.583253 0.018153 0.591650
O O5 0.182244 0.250000 0.122457
O O6 0.138485 0.462772 0.195780
O O7 0.249695 0.529647 0.114793
O O8 0.862935 0.250000 0.638673
O O9 0.913821 0.990135 0.593004
O O10 0.856899 0.998848 0.698012
O O11 0.746648 0.027324 0.614773
O O12 0.943818 0.250000 0.251298
O O13 0.854884 0.029476 0.303241
O O14 0.860612 0.035764 0.194469
O O15 0.997391 0.954154 0.250373
O O16 0.994380 0.250000 0.559697
O O17 0.084109 0.005433 0.594667
O O18 0.000000 0.000000 0.500000
O O19 0.377889 0.250000 0.734570
O O20 0.856278 0.750000 0.348522
O O21 0.641387 0.250000 0.653494
#
# Coordination Sequence:
#
# PCOD8254666 Si02
#       8
#     8   8   8   8   8   8   8   8
#     4  11  25  44  64  88 123 164 210 262 313 368
#     4  11  24  41  62  93 129 160 201 259 316 369
#     4   9  20  39  62  90 122 157 201 248 299 363
#     4  12  23  37  60  93 131 164 200 254 313 368
#     4  10  22  42  63  87 120 158 205 257 306 364
#     4  11  20  37  65  92 124 166 207 247 302 376
#     4  11  23  41  65  91 123 165 211 254 305 375
#     4  11  22  39  66  94 122 163 207 252 310 372
#
# _framework density 20.476925999999999
#
# number of rings (size 3 to 8) (size 9 to 14) (size 15 to 20)
#    0.000    1.250    2.500    3.750    0.000    4.500 
#    0.000    6.875    0.000    0.000    0.000    0.000 
#    0.000    0.000    0.000    0.000    0.000    0.000 
#
# Total GULP energy -793896.320300 kJ/mol
# GULP energy per Si atom -12404.630005 kJ/mol
# Density = 2.043032 g / cm^3
# Si number density = 20.476926 Si / 1000 Ang^3
#
#
#
# Elastic Constant Matrix: (Units=GPa)
#
#
# Indices 1 2 3 4 5 6 
#
# 1 168.2674 25.9746 74.9218 0.0000 0.0000 0.0000
# 2 25.9746 51.3322 23.7630 0.0000 0.0000 0.0000
# 3 74.9218 23.7630 159.8240 0.0000 0.0000 0.0000
# 4 0.0000 0.0000 0.0000 31.7154 0.0000 0.0000
# 5 0.0000 0.0000 0.0000 0.0000 13.0180 0.0000
# 6 0.0000 0.0000 0.0000 0.0000 0.0000 28.3385
#
#
#
# Elastic Compliance Matrix: (Units=1/GPa)
#
#
# Indices 1 2 3 4 5 6 
#
# 1 0.007780 -0.002415 -0.003288 0.000000 0.000000 0.000000
# 2 -0.002415 0.021670 -0.002090 0.000000 0.000000 0.000000
# 3 -0.003288 -0.002090 0.008109 0.000000 0.000000 0.000000
# 4 0.000000 0.000000 0.000000 0.031530 0.000000 0.000000
# 5 0.000000 0.000000 0.000000 0.000000 0.076816 0.000000
# 6 0.000000 0.000000 0.000000 0.000000 0.000000 0.035288
#
#
# Mechanical properties :
#
#
# Convention : Reuss Voigt Hill
#
# Bulk Modulus (GPa) = 45.50881 69.86028 57.68454
# Shear Modulus (GPa) = 24.49744 31.59867 28.04806
#
# Velocity S-wave (km/s) = 3.46257 3.93254 3.70501
# Velocity P-wave (km/s) = 6.18535 7.40341 6.82162
#
# Compressibility (1/GPa) = 0.02197377
#
# Stress axis : x y z
#
# Youngs Moduli (GPa) = 128.54156 46.14609 123.32072
#
# Poissons Ratio (x) = 0.11142 0.40547
# Poissons Ratio (y) = 0.31036 0.25776
# Poissons Ratio (z) = 0.42263 0.09645
#
# Static dielectric constant tensor:
#      x y z
#    x 3.989140 0.000000 0.000000 
#    y 0.000000 3.530420 0.000000 
#    z 0.000000 0.000000 3.957340 
# 
# 
# High freq. dielectric constant tensor:
#      x y z
#    x 1.816650 0.000000 0.000000 
#    y 0.000000 1.791340 0.000000 
#    z 0.000000 0.000000 1.797050 
# 
# From -- ./inp_files/29790.got.cif
#   From: 2010.03.12/outbox.cif.g09.slc.cpg/sg62_15_cif.got.tgz:29790.got - 2010.04.10 19:12:36.
