data_PCOD8254483
_publ_section_title
;
Structure prediction by ZEFSAII (Michael W. Deem and Ramdas Pophale) SiO2 
 PCOD8254483
Probable space group: P N M A
;
_chemical_formula_sum "Si O2"
_cell_formula_units_Z 48
_cell_length_a 30.544369
_cell_length_b 8.994230
_cell_length_c 8.936592
_cell_angle_alpha 90.000000
_cell_angle_beta 90.000000
_cell_angle_gamma 90.000000
_cell_volume 2455.088079
_symmetry_space_group_name_H-M "P N M A"
_symmetry_group_IT_number 62
_symmetry_cell_setting 'orthorhombic'
loop_
_space_group_symop_operation_xyz
x,y,z
1/2-x,-y,1/2+z
1/2+x,1/2-y,1/2-z
-x,1/2+y,-z
-x,-y,-z
1/2+x,y,1/2-z
1/2-x,1/2+y,1/2+z
x,1/2-y,z
loop_
_atom_site_type_symbol
_atom_site_label
_atom_site_fract_x
_atom_site_fract_y
_atom_site_fract_z
Si Si1 0.224092 0.077358 0.222401
Si Si2 0.964721 0.584908 0.304802
Si Si3 0.359633 0.924970 0.916811
Si Si4 0.623014 0.573666 0.773061
Si Si5 0.801272 0.576347 0.114811
Si Si6 0.047027 0.414270 0.341540
O O1 0.235947 0.250000 0.245243
O O2 0.182259 0.031816 0.320290
O O3 0.264760 0.976971 0.268642
O O4 0.214389 0.039995 0.051347
O O5 0.960341 0.750000 0.236878
O O6 0.926051 0.482845 0.240070
O O7 0.961906 0.589482 0.482429
O O8 0.012312 0.520385 0.258128
O O9 0.361831 0.750000 0.956072
O O10 0.402884 0.969793 0.820306
O O11 0.357768 0.015480 0.070197
O O12 0.623016 0.750000 0.774368
O O13 0.653868 0.512352 0.641736
O O14 0.810009 0.750000 0.139503
O O15 0.041031 0.250000 0.273135
#
# Coordination Sequence:
#
# PCOD8254483 Si02
#       6
#     8   8   8   8   8   8
#     4  10  22  39  58  80 105 136 173 212 258 311
#     4   9  16  27  45  71 104 139 174 215 260 303
#     4   9  18  34  55  79 109 141 174 215 261 308
#     4  11  21  33  52  78 107 139 177 218 260 309
#     4  11  23  38  56  78 105 136 171 213 260 310
#     4   8  14  25  44  72 104 137 171 210 257 304
#
# _framework density 19.551233
#
# number of rings (size 3 to 8) (size 9 to 14) (size 15 to 20)
#    0.000    2.333    0.000    4.500    0.000    8.667 
#    0.000    0.000    0.000    1.000    0.000    0.000 
#    0.000    0.000    0.000    0.000    0.000    0.000 
#
# Total GULP energy -595203.587378 kJ/mol
# GULP energy per Si atom -12400.074737 kJ/mol
# Density = 1.950673 g / cm^3
# Si number density = 19.551233 Si / 1000 Ang^3
#
#
#
# Elastic Constant Matrix: (Units=GPa)
#
#
# Indices 1 2 3 4 5 6 
#
# 1 55.2904 11.9796 -12.6666 0.0000 0.0000 0.0000
# 2 11.9796 91.3189 9.9352 0.0000 0.0000 0.0000
# 3 -12.6666 9.9352 26.0355 0.0000 0.0000 0.0000
# 4 0.0000 0.0000 0.0000 20.5943 0.0000 0.0000
# 5 0.0000 0.0000 0.0000 0.0000 19.0282 0.0000
# 6 0.0000 0.0000 0.0000 0.0000 0.0000 37.6431
#
#
#
# Elastic Compliance Matrix: (Units=1/GPa)
#
#
# Indices 1 2 3 4 5 6 
#
# 1 0.021787 -0.004185 0.012197 0.000000 0.000000 0.000000
# 2 -0.004185 0.012229 -0.006703 0.000000 0.000000 0.000000
# 3 0.012197 -0.006703 0.046901 0.000000 0.000000 0.000000
# 4 0.000000 0.000000 0.000000 0.048557 0.000000 0.000000
# 5 0.000000 0.000000 0.000000 0.000000 0.052554 0.000000
# 6 0.000000 0.000000 0.000000 0.000000 0.000000 0.026565
#
#
# Mechanical properties :
#
#
# Convention : Reuss Voigt Hill
#
# Bulk Modulus (GPa) = 11.97103 21.23790 16.60446
# Shear Modulus (GPa) = 21.38399 26.34624 23.86511
#
# Velocity S-wave (km/s) = 3.31076 3.67488 3.49756
# Velocity P-wave (km/s) = 4.55533 5.37518 4.98215
#
# Compressibility (1/GPa) = 0.08353501
#
# Stress axis : x y z
#
# Youngs Moduli (GPa) = 45.89827 81.77356 21.32164
#
# Poissons Ratio (x) = 0.34223 -0.26006
# Poissons Ratio (y) = 0.19209 0.14291
# Poissons Ratio (z) = -0.55981 0.54810
#
# Static dielectric constant tensor:
#      x y z
#    x 3.923700 0.000000 0.000000 
#    y 0.000000 3.626970 0.000000 
#    z 0.000000 0.000000 3.138850 
# 
# 
# High freq. dielectric constant tensor:
#      x y z
#    x 1.781890 0.000000 0.000000 
#    y 0.000000 1.762140 0.000000 
#    z 0.000000 0.000000 1.716140 
# 
# From -- ./inp_files/10231.got.cif
#   From: 2010.03.12/outbox.cif.g09.slc.cpg/sg62_6_cif.got.tgz:10231.got - 2010.04.10 19:12:36.
