data_PCOD8254462
_publ_section_title
;
Structure prediction by ZEFSAII (Michael W. Deem and Ramdas Pophale) SiO2 
 PCOD8254462
Probable space group: P N M A
;
_chemical_formula_sum "Si O2"
_cell_formula_units_Z 48
_cell_length_a 22.628847
_cell_length_b 9.334264
_cell_length_c 11.690594
_cell_angle_alpha 90.000000
_cell_angle_beta 90.000000
_cell_angle_gamma 90.000000
_cell_volume 2469.329724
_symmetry_space_group_name_H-M "P N M A"
_symmetry_group_IT_number 62
_symmetry_cell_setting 'orthorhombic'
loop_
_space_group_symop_operation_xyz
x,y,z
1/2-x,-y,1/2+z
1/2+x,1/2-y,1/2-z
-x,1/2+y,-z
-x,-y,-z
1/2+x,y,1/2-z
1/2-x,1/2+y,1/2+z
x,1/2-y,z
loop_
_atom_site_type_symbol
_atom_site_label
_atom_site_fract_x
_atom_site_fract_y
_atom_site_fract_z
Si Si1 0.850433 0.082919 0.301398
Si Si2 0.155607 0.406540 0.918532
Si Si3 0.885851 0.579398 0.717413
Si Si4 0.277240 0.920369 0.628573
Si Si5 0.437512 0.079961 0.993869
Si Si6 0.042647 0.403869 0.071634
O O1 0.843833 0.250000 0.279366
O O2 0.787751 0.019255 0.344126
O O3 0.903219 0.049557 0.388296
O O4 0.865284 0.010440 0.181371
O O5 0.173971 0.250000 0.868491
O O6 0.206780 0.475169 0.999759
O O7 0.102598 0.382896 0.004732
O O8 0.886182 0.750000 0.691214
O O9 0.823515 0.529500 0.773344
O O10 0.896333 0.486827 0.604284
O O11 0.940170 0.538076 0.802511
O O12 0.278586 0.750000 0.623545
O O13 0.446598 0.250000 0.973822
O O14 0.500000 0.000000 0.000000
O O15 0.011000 0.250000 0.085935
O O16 0.000000 0.500000 0.000000
#
# Coordination Sequence:
#
# PCOD8254462 Si02
#       6
#     8   8   8   8   8   8
#     4  10  22  38  58  84 114 149 186 234 286 337
#     4   9  19  36  57  82 111 144 183 227 279 340
#     4   9  19  38  61  83 112 149 187 231 286 344
#     4   8  17  37  61  84 114 147 180 229 293 345
#     4  11  25  41  58  83 118 158 199 240 285 340
#     4   9  19  34  55  82 109 142 181 227 280 329
#
# _framework density 19.438472999999998
#
# number of rings (size 3 to 8) (size 9 to 14) (size 15 to 20)
#    0.000    2.667    0.000    2.500    4.667    2.667 
#    0.000    3.333    0.000    0.000    0.000    0.000 
#    0.000    0.000    0.000    0.000    0.000    0.000 
#
# Total GULP energy -594856.996109 kJ/mol
# GULP energy per Si atom -12392.854086 kJ/mol
# Density = 1.939423 g / cm^3
# Si number density = 19.438473 Si / 1000 Ang^3
#
#
#
# Elastic Constant Matrix: (Units=GPa)
#
#
# Indices 1 2 3 4 5 6 
#
# 1 72.5463 27.5143 20.7944 0.0000 0.0000 0.0000
# 2 27.5143 59.9452 44.5019 0.0000 0.0000 0.0000
# 3 20.7944 44.5019 114.2708 0.0000 0.0000 0.0000
# 4 0.0000 0.0000 0.0000 32.4301 0.0000 0.0000
# 5 0.0000 0.0000 0.0000 0.0000 16.9349 0.0000
# 6 0.0000 0.0000 0.0000 0.0000 0.0000 25.4057
#
#
#
# Elastic Compliance Matrix: (Units=1/GPa)
#
#
# Indices 1 2 3 4 5 6 
#
# 1 0.016690 -0.007604 -0.000076 0.000000 0.000000 0.000000
# 2 -0.007604 0.026931 -0.009104 0.000000 0.000000 0.000000
# 3 -0.000076 -0.009104 0.012311 0.000000 0.000000 0.000000
# 4 0.000000 0.000000 0.000000 0.030836 0.000000 0.000000
# 5 0.000000 0.000000 0.000000 0.000000 0.059050 0.000000
# 6 0.000000 0.000000 0.000000 0.000000 0.000000 0.039361
#
#
# Mechanical properties :
#
#
# Convention : Reuss Voigt Hill
#
# Bulk Modulus (GPa) = 44.71696 48.04262 46.37979
# Shear Modulus (GPa) = 22.10420 25.21756 23.66088
#
# Velocity S-wave (km/s) = 3.37580 3.60571 3.49265
# Velocity P-wave (km/s) = 6.18458 6.48874 6.33849
#
# Compressibility (1/GPa) = 0.02236288
#
# Stress axis : x y z
#
# Youngs Moduli (GPa) = 59.91574 37.13181 81.23130
#
# Poissons Ratio (x) = 0.28237 0.00615
# Poissons Ratio (y) = 0.45562 0.73955
# Poissons Ratio (z) = 0.00454 0.33806
#
# Static dielectric constant tensor:
#      x y z
#    x 9.315870 0.000000 0.000000 
#    y 0.000000 3.305490 0.000000 
#    z 0.000000 0.000000 4.817910 
# 
# 
# High freq. dielectric constant tensor:
#      x y z
#    x 1.759670 0.000000 0.000000 
#    y 0.000000 1.734320 0.000000 
#    z 0.000000 0.000000 1.763300 
# 
# From -- ./inp_files/15095.got.cif
#   From: 2010.03.12/outbox.cif.g09.slc.cpg/sg62_8_cif.got.tgz:15095.got - 2010.04.10 19:12:36.
