data_PCOD8254340
_publ_section_title
;
Structure prediction by ZEFSAII (Michael W. Deem and Ramdas Pophale) SiO2 
 PCOD8254340
Probable space group: P N M A
;
_chemical_formula_sum "Si O2"
_cell_formula_units_Z 64
_cell_length_a 17.712787
_cell_length_b 18.858944
_cell_length_c 9.646382
_cell_angle_alpha 90.000000
_cell_angle_beta 90.000000
_cell_angle_gamma 90.000000
_cell_volume 3222.320448
_symmetry_space_group_name_H-M "P N M A"
_symmetry_group_IT_number 62
_symmetry_cell_setting 'orthorhombic'
loop_
_space_group_symop_operation_xyz
x,y,z
1/2-x,-y,1/2+z
1/2+x,1/2-y,1/2-z
-x,1/2+y,-z
-x,-y,-z
1/2+x,y,1/2-z
1/2-x,1/2+y,1/2+z
x,1/2-y,z
loop_
_atom_site_type_symbol
_atom_site_label
_atom_site_fract_x
_atom_site_fract_y
_atom_site_fract_z
Si Si1 0.847410 0.828044 0.480606
Si Si2 0.457987 0.922047 0.653107
Si Si3 0.321424 0.829849 0.699829
Si Si4 0.511408 0.667899 0.134141
Si Si5 0.792960 0.445713 0.288120
Si Si6 0.544705 0.562448 0.920230
Si Si7 0.059519 0.912937 0.102514
Si Si8 0.720606 0.561395 0.465806
O O1 0.822268 0.750000 0.428353
O O2 0.853157 0.827618 0.645336
O O3 0.926266 0.848656 0.411274
O O4 0.788827 0.886494 0.432672
O O5 0.381977 0.878322 0.618306
O O6 0.490301 0.903985 0.804470
O O7 0.518629 0.897839 0.541254
O O8 0.446233 0.006022 0.649687
O O9 0.316606 0.750000 0.638056
O O10 0.237682 0.864919 0.692867
O O11 0.532756 0.750000 0.124289
O O12 0.522687 0.640311 0.288769
O O13 0.565298 0.623844 0.030363
O O14 0.876295 0.460557 0.349311
O O15 0.732681 0.493334 0.369623
O O16 0.789090 0.464367 0.124853
O O17 0.500000 0.500000 0.000000
O O18 0.147109 0.895251 0.081397
#
# Coordination Sequence:
#
# PCOD8254340 Si02
#       8
#     8   8   8   8   8   8   8   8
#     4   9  20  39  63  88 120 165 217 259 314 390
#     4  11  22  40  64  95 127 171 219 271 329 388
#     4  10  21  41  65  91 125 166 213 270 327 383
#     4  11  24  41  63  94 131 174 218 270 331 398
#     4  11  25  40  65  99 128 168 217 269 330 391
#     4  12  23  40  69  96 127 175 226 274 321 395
#     4  11  24  40  61  96 136 164 217 279 324 392
#     4  11  23  40  65  95 126 168 210 270 329 389
#
# _framework density 19.861463000000001
#
# number of rings (size 3 to 8) (size 9 to 14) (size 15 to 20)
#    0.000    1.250    5.000    0.750    3.500    1.500 
#    0.000    0.000    0.000    0.000    0.000    0.000 
#    0.000    0.000    0.000    0.000    0.000    0.000 
#
# Total GULP energy -793513.854283 kJ/mol
# GULP energy per Si atom -12398.653973 kJ/mol
# Density = 1.981626 g / cm^3
# Si number density = 19.861463 Si / 1000 Ang^3
#
#
#
# Elastic Constant Matrix: (Units=GPa)
#
#
# Indices 1 2 3 4 5 6 
#
# 1 97.6029 32.3296 35.6535 0.0000 0.0000 0.0000
# 2 32.3296 100.5943 44.2026 0.0000 0.0000 0.0000
# 3 35.6535 44.2026 103.4440 0.0000 0.0000 0.0000
# 4 0.0000 0.0000 0.0000 21.5046 0.0000 0.0000
# 5 0.0000 0.0000 0.0000 0.0000 34.6856 0.0000
# 6 0.0000 0.0000 0.0000 0.0000 0.0000 26.7218
#
#
#
# Elastic Compliance Matrix: (Units=1/GPa)
#
#
# Indices 1 2 3 4 5 6 
#
# 1 0.012234 -0.002560 -0.003123 0.000000 0.000000 0.000000
# 2 -0.002560 0.012775 -0.004576 0.000000 0.000000 0.000000
# 3 -0.003123 -0.004576 0.012699 0.000000 0.000000 0.000000
# 4 0.000000 0.000000 0.000000 0.046502 0.000000 0.000000
# 5 0.000000 0.000000 0.000000 0.000000 0.028830 0.000000
# 6 0.000000 0.000000 0.000000 0.000000 0.000000 0.037423
#
#
# Mechanical properties :
#
#
# Convention : Reuss Voigt Hill
#
# Bulk Modulus (GPa) = 58.17453 58.44586 58.31020
# Shear Modulus (GPa) = 28.29487 29.21276 28.75381
#
# Velocity S-wave (km/s) = 3.77850 3.83930 3.80902
# Velocity P-wave (km/s) = 6.95628 7.01029 6.98334
#
# Compressibility (1/GPa) = 0.01718965
#
# Stress axis : x y z
#
# Youngs Moduli (GPa) = 81.73789 78.28088 78.74636
#
# Poissons Ratio (x) = 0.20037 0.24592
# Poissons Ratio (y) = 0.20922 0.36038
# Poissons Ratio (z) = 0.25526 0.35825
#
# Static dielectric constant tensor:
#      x y z
#    x 3.608090 0.000000 0.000000 
#    y 0.000000 3.751040 0.000000 
#    z 0.000000 0.000000 3.613290 
# 
# 
# High freq. dielectric constant tensor:
#      x y z
#    x 1.778630 0.000000 0.000000 
#    y 0.000000 1.770440 0.000000 
#    z 0.000000 0.000000 1.772090 
# 
# From -- ./inp_files/8109.got.cif
#   From: 2010.03.12/outbox.cif.g09.slc.cpg/sg62_5_cif.got.tgz:8109.got - 2010.04.10 19:12:36.
