data_PCOD8254963
_publ_section_title
;
Structure prediction by ZEFSAII (Michael W. Deem and Ramdas Pophale) SiO2 
 PCOD8254963
Probable space group: P N M A
;
_chemical_formula_sum "Si O2"
_cell_formula_units_Z 56
_cell_length_a 19.597767
_cell_length_b 8.670011
_cell_length_c 19.301235
_cell_angle_alpha 90.000000
_cell_angle_beta 90.000000
_cell_angle_gamma 90.000000
_cell_volume 3279.527953
_symmetry_space_group_name_H-M "P N M A"
_symmetry_group_IT_number 62
_symmetry_cell_setting 'orthorhombic'
loop_
_space_group_symop_operation_xyz
x,y,z
1/2-x,-y,1/2+z
1/2+x,1/2-y,1/2-z
-x,1/2+y,-z
-x,-y,-z
1/2+x,y,1/2-z
1/2-x,1/2+y,1/2+z
x,1/2-y,z
loop_
_atom_site_type_symbol
_atom_site_label
_atom_site_fract_x
_atom_site_fract_y
_atom_site_fract_z
Si Si1 0.198442 0.431645 0.977717
Si Si2 0.158142 0.932509 0.733572
Si Si3 0.947932 0.432366 0.054878
Si Si4 0.733622 0.066304 0.370542
Si Si5 0.480399 0.434030 0.291013
Si Si6 0.763834 0.931171 0.649383
Si Si7 0.628188 0.432940 0.258111
O O1 0.185777 0.250000 0.979898
O O2 0.128305 0.514987 0.960512
O O3 0.256115 0.474562 0.921646
O O4 0.225876 0.494514 0.051500
O O5 0.155259 0.750000 0.729935
O O6 0.195175 0.994854 0.663707
O O7 0.081465 0.998624 0.742917
O O8 0.201934 0.979936 0.800612
O O9 0.951066 0.250000 0.051101
O O10 0.970126 0.492235 0.130571
O O11 0.000000 0.500000 0.000000
O O12 0.733394 0.250000 0.368927
O O13 0.670851 0.003677 0.323898
O O14 0.480584 0.250000 0.289863
O O15 0.551534 0.500956 0.260998
O O16 0.761952 0.750000 0.633003
O O17 0.835094 0.979795 0.686081
O O18 0.626146 0.250000 0.263609
#
# Coordination Sequence:
#
# PCOD8254963 Si02
#       7
#     8   8   8   8   8   8   8
#     4  11  20  30  46  69  96 126 157 191 234 282
#     4   8  13  25  45  66  86 113 157 202 231 262
#     4  11  21  32  47  71 101 129 155 186 234 288
#     4   8  15  26  41  63  91 121 153 191 231 272
#     4   9  15  25  45  71  91 113 152 199 234 267
#     4   9  16  29  47  67  89 118 152 192 235 276
#     4   8  14  25  44  67  90 113 148 195 234 266
#
# _framework density 17.075627999999998
#
# number of rings (size 3 to 8) (size 9 to 14) (size 15 to 20)
#    0.000    2.857    1.429    3.429    0.000    2.286 
#    0.000    0.000    0.000   12.857    0.000    0.000 
#    0.000    0.000    0.000    0.000    0.000    0.143 
#
# Total GULP energy -694001.341219 kJ/mol
# GULP energy per Si atom -12392.881093 kJ/mol
# Density = 1.703676 g / cm^3
# Si number density = 17.075628 Si / 1000 Ang^3
#
#
#
# Elastic Constant Matrix: (Units=GPa)
#
#
# Indices 1 2 3 4 5 6 
#
# 1 162.1830 11.7660 86.5755 0.0000 0.0000 0.0000
# 2 11.7660 21.6629 15.7265 0.0000 0.0000 0.0000
# 3 86.5755 15.7265 113.8817 0.0000 0.0000 0.0000
# 4 0.0000 0.0000 0.0000 21.4495 0.0000 0.0000
# 5 0.0000 0.0000 0.0000 0.0000 30.1491 0.0000
# 6 0.0000 0.0000 0.0000 0.0000 0.0000 14.5610
#
#
#
# Elastic Compliance Matrix: (Units=1/GPa)
#
#
# Indices 1 2 3 4 5 6 
#
# 1 0.010377 0.000101 -0.007903 0.000000 0.000000 0.000000
# 2 0.000101 0.051306 -0.007162 0.000000 0.000000 0.000000
# 3 -0.007903 -0.007162 0.015778 0.000000 0.000000 0.000000
# 4 0.000000 0.000000 0.000000 0.046621 0.000000 0.000000
# 5 0.000000 0.000000 0.000000 0.000000 0.033168 0.000000
# 6 0.000000 0.000000 0.000000 0.000000 0.000000 0.068676
#
#
# Mechanical properties :
#
#
# Convention : Reuss Voigt Hill
#
# Bulk Modulus (GPa) = 21.03763 58.42929 39.73346
# Shear Modulus (GPa) = 18.40265 25.47591 21.93928
#
# Velocity S-wave (km/s) = 3.28642 3.86676 3.58834
# Velocity P-wave (km/s) = 5.17182 7.36397 6.36301
#
# Compressibility (1/GPa) = 0.04753387
#
# Stress axis : x y z
#
# Youngs Moduli (GPa) = 96.36447 19.49076 63.37906
#
# Poissons Ratio (x) = -0.00197 0.50088
# Poissons Ratio (y) = -0.00973 0.45391
# Poissons Ratio (z) = 0.76157 0.13959
#
# Static dielectric constant tensor:
#      x y z
#    x 3.620800 0.000000 0.000000 
#    y 0.000000 2.730430 0.000000 
#    z 0.000000 0.000000 3.441400 
# 
# 
# High freq. dielectric constant tensor:
#      x y z
#    x 1.659600 0.000000 0.000000 
#    y 0.000000 1.610510 0.000000 
#    z 0.000000 0.000000 1.653270 
# 
# From -- ./inp_files/24644.got.cif
#   From: 2010.03.12/outbox.cif.g09.slc.cpg/sg62_13_cif.got.tgz:24644.got - 2010.04.10 19:12:36.
