data_PCOD8254559
_publ_section_title
;
Structure prediction by ZEFSAII (Michael W. Deem and Ramdas Pophale) SiO2 
 PCOD8254559
Probable space group: P N M A
;
_chemical_formula_sum "Si O2"
_cell_formula_units_Z 56
_cell_length_a 14.782063
_cell_length_b 8.630784
_cell_length_c 20.981677
_cell_angle_alpha 90.000000
_cell_angle_beta 90.000000
_cell_angle_gamma 90.000000
_cell_volume 2676.858987
_symmetry_space_group_name_H-M "P N M A"
_symmetry_group_IT_number 62
_symmetry_cell_setting 'orthorhombic'
loop_
_space_group_symop_operation_xyz
x,y,z
1/2-x,-y,1/2+z
1/2+x,1/2-y,1/2-z
-x,1/2+y,-z
-x,-y,-z
1/2+x,y,1/2-z
1/2-x,1/2+y,1/2+z
x,1/2-y,z
loop_
_atom_site_type_symbol
_atom_site_label
_atom_site_fract_x
_atom_site_fract_y
_atom_site_fract_z
Si Si1 0.017041 0.569719 0.737969
Si Si2 0.930863 0.928990 0.138491
Si Si3 0.319643 0.430800 0.765676
Si Si4 0.561668 0.070635 0.445960
Si Si5 0.753222 0.072619 0.108078
Si Si6 0.752848 0.426704 0.967656
Si Si7 0.334447 0.570520 0.164754
O O1 0.024707 0.750000 0.753831
O O2 0.075939 0.467169 0.787211
O O3 0.072901 0.527948 0.674101
O O4 0.912459 0.525080 0.738371
O O5 0.912312 0.750000 0.124600
O O6 0.859079 0.031643 0.098964
O O7 0.031950 0.981235 0.118407
O O8 0.340815 0.250000 0.757230
O O9 0.283315 0.459554 0.837157
O O10 0.249019 0.485901 0.710643
O O11 0.541344 0.250000 0.438493
O O12 0.500000 0.000000 0.500000
O O13 0.666280 0.046080 0.458524
O O14 0.739696 0.250000 0.130070
O O15 0.707920 0.045032 0.037961
O O16 0.789444 0.250000 0.964803
O O17 0.684245 0.457678 0.910059
O O18 0.353222 0.750000 0.178941
#
# Coordination Sequence:
#
# PCOD8254559 Si02
#       7
#     8   8   8   8   8   8   8
#     4  12  25  41  65  95 127 162 211 270 321 377
#     4  12  23  38  60  87 123 165 207 254 316 383
#     4  11  23  41  67  94 127 169 215 264 319 383
#     4  12  23  35  55  86 124 163 206 253 311 379
#     4  11  22  38  62  92 127 163 208 259 314 374
#     4  10  22  40  62  89 127 169 209 260 317 380
#     4  10  22  42  66  93 126 167 212 259 320 383
#
# _framework density 20.920041000000001
#
# number of rings (size 3 to 8) (size 9 to 14) (size 15 to 20)
#    0.000    0.857    2.857    5.571    0.000    2.857 
#    0.000    0.714    0.000    0.000    0.000    0.000 
#    0.000    0.000    0.000    0.000    0.000    0.000 
#
# Total GULP energy -694285.933023 kJ/mol
# GULP energy per Si atom -12397.963090 kJ/mol
# Density = 2.087243 g / cm^3
# Si number density = 20.920041 Si / 1000 Ang^3
#
#
#
# Elastic Constant Matrix: (Units=GPa)
#
#
# Indices 1 2 3 4 5 6 
#
# 1 58.9907 13.4988 11.4205 0.0000 0.0000 0.0000
# 2 13.4988 82.8499 18.5284 0.0000 0.0000 0.0000
# 3 11.4205 18.5284 110.0490 0.0000 0.0000 0.0000
# 4 0.0000 0.0000 0.0000 30.2289 0.0000 0.0000
# 5 0.0000 0.0000 0.0000 0.0000 28.2781 0.0000
# 6 0.0000 0.0000 0.0000 0.0000 0.0000 33.8696
#
#
#
# Elastic Compliance Matrix: (Units=1/GPa)
#
#
# Indices 1 2 3 4 5 6 
#
# 1 0.017817 -0.002587 -0.001413 0.000000 0.000000 0.000000
# 2 -0.002587 0.012918 -0.001906 0.000000 0.000000 0.000000
# 3 -0.001413 -0.001906 0.009555 0.000000 0.000000 0.000000
# 4 0.000000 0.000000 0.000000 0.033081 0.000000 0.000000
# 5 0.000000 0.000000 0.000000 0.000000 0.035363 0.000000
# 6 0.000000 0.000000 0.000000 0.000000 0.000000 0.029525
#
#
# Mechanical properties :
#
#
# Convention : Reuss Voigt Hill
#
# Bulk Modulus (GPa) = 35.11713 37.64277 36.37995
# Shear Modulus (GPa) = 31.33531 32.37147 31.85339
#
# Velocity S-wave (km/s) = 3.87442 3.93796 3.90632
# Velocity P-wave (km/s) = 6.06940 6.22169 6.14602
#
# Compressibility (1/GPa) = 0.02847613
#
# Stress axis : x y z
#
# Youngs Moduli (GPa) = 56.12482 77.41220 104.66238
#
# Poissons Ratio (x) = 0.20026 0.14794
# Poissons Ratio (y) = 0.14519 0.19953
# Poissons Ratio (z) = 0.07933 0.14758
#
# Static dielectric constant tensor:
#      x y z
#    x 3.718260 0.000000 0.000000 
#    y 0.000000 3.694500 0.000000 
#    z 0.000000 0.000000 4.101020 
# 
# 
# High freq. dielectric constant tensor:
#      x y z
#    x 1.795360 0.000000 0.000000 
#    y 0.000000 1.821500 0.000000 
#    z 0.000000 0.000000 1.831870 
# 
# From -- ./inp_files/27127.got.cif
#   From: 2010.03.12/outbox.cif.g09.slc.cpg/sg62_14_cif.got.tgz:27127.got - 2010.04.10 19:12:36.
