data_PCOD8254379
_publ_section_title
;
Structure prediction by ZEFSAII (Michael W. Deem and Ramdas Pophale) SiO2 
 PCOD8254379
Probable space group: P N M A
;
_chemical_formula_sum "Si O2"
_cell_formula_units_Z 48
_cell_length_a 8.293531
_cell_length_b 15.477635
_cell_length_c 17.874047
_cell_angle_alpha 90.000000
_cell_angle_beta 90.000000
_cell_angle_gamma 90.000000
_cell_volume 2294.388560
_symmetry_space_group_name_H-M "P N M A"
_symmetry_group_IT_number 62
_symmetry_cell_setting 'orthorhombic'
loop_
_space_group_symop_operation_xyz
x,y,z
1/2-x,-y,1/2+z
1/2+x,1/2-y,1/2-z
-x,1/2+y,-z
-x,-y,-z
1/2+x,y,1/2-z
1/2-x,1/2+y,1/2+z
x,1/2-y,z
loop_
_atom_site_type_symbol
_atom_site_label
_atom_site_fract_x
_atom_site_fract_y
_atom_site_fract_z
Si Si1 0.023153 0.583922 0.837118
Si Si2 0.852556 0.533617 0.048765
Si Si3 0.976349 0.953470 0.292320
Si Si4 0.685411 0.576524 0.909245
Si Si5 0.058991 0.750000 0.639308
Si Si6 0.209465 0.750000 0.787352
Si Si7 0.787599 0.851613 0.172930
O O1 0.164671 0.536854 0.884974
O O2 0.966464 0.527134 0.765836
O O3 0.107742 0.669012 0.811476
O O4 0.865406 0.604632 0.885421
O O5 0.883450 0.623167 0.095795
O O6 0.696304 0.542536 0.995220
O O7 0.000000 0.500000 0.000000
O O8 0.876228 0.879954 0.248877
O O9 0.121420 0.904312 0.332223
O O10 0.874338 0.998611 0.357696
O O11 0.572279 0.662009 0.909053
O O12 0.209588 0.750000 0.697234
O O13 0.889744 0.750000 0.682686
O O14 0.758334 0.750000 0.175621
#
# Coordination Sequence:
#
# PCOD8254379 Si02
#       7
#     8   8   8   8   4   4   8
#     4  10  21  42  65  92 129 172 220 268 330 397
#     4   9  23  43  67  92 129 174 215 258 332 404
#     4  11  22  39  68  95 127 171 226 276 330 390
#     4  11  22  41  64  92 129 173 215 268 335 401
#     4  12  26  34  62  96 132 163 218 275 333 397
#     4  12  24  38  60 100 128 163 216 279 329 391
#     4  11  24  43  68  97 130 172 225 281 328 390
#
# _framework density 20.920607
#
# number of rings (size 3 to 8) (size 9 to 14) (size 15 to 20)
#    0.000    1.333    3.333    2.000    5.833    0.667 
#    1.500    0.000    1.833    0.000    0.000    0.000 
#    0.000    0.000    0.000    0.000    0.000    0.000 
#
# Total GULP energy -594849.462273 kJ/mol
# GULP energy per Si atom -12392.697131 kJ/mol
# Density = 2.087299 g / cm^3
# Si number density = 20.920607 Si / 1000 Ang^3
#
#
#
# Elastic Constant Matrix: (Units=GPa)
#
#
# Indices 1 2 3 4 5 6 
#
# 1 70.7267 41.5101 14.1090 0.0000 0.0000 0.0000
# 2 41.5101 155.8776 53.6188 0.0000 0.0000 0.0000
# 3 14.1090 53.6188 98.4441 0.0000 0.0000 0.0000
# 4 0.0000 0.0000 0.0000 24.4987 0.0000 0.0000
# 5 0.0000 0.0000 0.0000 0.0000 28.0661 0.0000
# 6 0.0000 0.0000 0.0000 0.0000 0.0000 36.3922
#
#
#
# Elastic Compliance Matrix: (Units=1/GPa)
#
#
# Indices 1 2 3 4 5 6 
#
# 1 0.016758 -0.004475 0.000036 0.000000 0.000000 0.000000
# 2 -0.004475 0.009089 -0.004309 0.000000 0.000000 0.000000
# 3 0.000036 -0.004309 0.012500 0.000000 0.000000 0.000000
# 4 0.000000 0.000000 0.000000 0.040819 0.000000 0.000000
# 5 0.000000 0.000000 0.000000 0.000000 0.035630 0.000000
# 6 0.000000 0.000000 0.000000 0.000000 0.000000 0.027478
#
#
# Mechanical properties :
#
#
# Convention : Reuss Voigt Hill
#
# Bulk Modulus (GPa) = 47.96103 60.39158 54.17631
# Shear Modulus (GPa) = 29.99005 32.17876 31.08441
#
# Velocity S-wave (km/s) = 3.79029 3.92616 3.85882
# Velocity P-wave (km/s) = 6.49077 7.03440 6.76804
#
# Compressibility (1/GPa) = 0.02085026
#
# Stress axis : x y z
#
# Youngs Moduli (GPa) = 59.67227 110.02014 79.99986
#
# Poissons Ratio (x) = 0.49233 -0.00284
# Poissons Ratio (y) = 0.26703 0.34474
# Poissons Ratio (z) = -0.00212 0.47410
#
# Static dielectric constant tensor:
#      x y z
#    x 3.777630 0.000000 0.000000 
#    y 0.000000 3.927520 0.000000 
#    z 0.000000 0.000000 4.245820 
# 
# 
# High freq. dielectric constant tensor:
#      x y z
#    x 1.808640 0.000000 0.000000 
#    y 0.000000 1.821910 0.000000 
#    z 0.000000 0.000000 1.825900 
# 
# From -- ./inp_files/22235.got.cif
#   From: 2010.03.12/outbox.cif.g09.slc.cpg/sg62_12_cif.got.tgz:22235.got - 2010.04.10 19:12:36.
