data_PCOD8254438
_publ_section_title
;
Structure prediction by ZEFSAII (Michael W. Deem and Ramdas Pophale) SiO2 
 PCOD8254438
Probable space group: P N M A
;
_chemical_formula_sum "Si O2"
_cell_formula_units_Z 56
_cell_length_a 9.591160
_cell_length_b 21.532497
_cell_length_c 13.011266
_cell_angle_alpha 90.000000
_cell_angle_beta 90.000000
_cell_angle_gamma 90.000000
_cell_volume 2687.107784
_symmetry_space_group_name_H-M "P N M A"
_symmetry_group_IT_number 62
_symmetry_cell_setting 'orthorhombic'
loop_
_space_group_symop_operation_xyz
x,y,z
1/2-x,-y,1/2+z
1/2+x,1/2-y,1/2-z
-x,1/2+y,-z
-x,-y,-z
1/2+x,y,1/2-z
1/2-x,1/2+y,1/2+z
x,1/2-y,z
loop_
_atom_site_type_symbol
_atom_site_label
_atom_site_fract_x
_atom_site_fract_y
_atom_site_fract_z
Si Si1 0.858360 0.931838 0.482017
Si Si2 0.550299 0.097191 0.535421
Si Si3 0.385021 0.180619 0.236191
Si Si4 0.656609 0.942931 0.093351
Si Si5 0.377643 0.895545 0.692645
Si Si6 0.348507 0.032209 0.682872
Si Si7 0.673112 0.681960 0.524308
O O1 0.797873 0.950641 0.370228
O O2 0.799802 0.865877 0.516935
O O3 0.024114 0.922646 0.474270
O O4 0.812850 0.985096 0.563369
O O5 0.711820 0.100992 0.566405
O O6 0.543933 0.086784 0.413205
O O7 0.474207 0.042918 0.601270
O O8 0.457975 0.160076 0.547852
O O9 0.408427 0.250000 0.189835
O O10 0.255806 0.149013 0.177520
O O11 0.521779 0.137188 0.222937
O O12 0.366711 0.186853 0.357383
O O13 0.627370 0.928923 0.213209
O O14 0.333375 0.963197 0.730670
O O15 0.718479 0.750000 0.483944
#
# Coordination Sequence:
#
# PCOD8254438 Si02
#       7
#     8   8   8   8   8   8   8
#     4  10  22  37  57  91 123 156 200 252 312 373
#     4  10  22  38  60  86 121 157 205 249 299 371
#     4  10  22  37  56  86 120 160 204 243 294 372
#     4  11  22  36  59  89 126 150 196 258 314 358
#     4  11  22  35  59  83 123 161 200 244 301 363
#     4  11  22  36  59  88 121 159 198 250 312 367
#     4   9  20  40  62  83 117 163 203 245 305 369
#
# _framework density 20.840250000000001
#
# number of rings (size 3 to 8) (size 9 to 14) (size 15 to 20)
#    0.000    1.714    1.429    2.571    8.000    1.714 
#    0.000    0.714    0.000   13.714    0.000    0.000 
#    0.000    0.000    0.000    0.000    0.000    0.000 
#
# Total GULP energy -693889.199451 kJ/mol
# GULP energy per Si atom -12390.878562 kJ/mol
# Density = 2.079282 g / cm^3
# Si number density = 20.840250 Si / 1000 Ang^3
#
#
#
# Elastic Constant Matrix: (Units=GPa)
#
#
# Indices 1 2 3 4 5 6 
#
# 1 117.0346 33.7249 5.6838 0.0000 0.0000 0.0000
# 2 33.7249 108.4116 -0.2672 0.0000 0.0000 0.0000
# 3 5.6838 -0.2672 59.7239 0.0000 0.0000 0.0000
# 4 0.0000 0.0000 0.0000 10.0041 0.0000 0.0000
# 5 0.0000 0.0000 0.0000 0.0000 31.2594 0.0000
# 6 0.0000 0.0000 0.0000 0.0000 0.0000 18.3167
#
#
#
# Elastic Compliance Matrix: (Units=1/GPa)
#
#
# Indices 1 2 3 4 5 6 
#
# 1 0.009435 -0.002937 -0.000911 0.000000 0.000000 0.000000
# 2 -0.002937 0.010139 0.000325 0.000000 0.000000 0.000000
# 3 -0.000911 0.000325 0.016832 0.000000 0.000000 0.000000
# 4 0.000000 0.000000 0.000000 0.099959 0.000000 0.000000
# 5 0.000000 0.000000 0.000000 0.000000 0.031990 0.000000
# 6 0.000000 0.000000 0.000000 0.000000 0.000000 0.054595
#
#
# Mechanical properties :
#
#
# Convention : Reuss Voigt Hill
#
# Bulk Modulus (GPa) = 34.06149 40.38366 37.22257
# Shear Modulus (GPa) = 20.85219 28.31795 24.58507
#
# Velocity S-wave (km/s) = 3.16662 3.69020 3.43839
# Velocity P-wave (km/s) = 5.45431 6.12997 5.80199
#
# Compressibility (1/GPa) = 0.02935867
#
# Stress axis : x y z
#
# Youngs Moduli (GPa) = 105.98653 98.63233 59.41108
#
# Poissons Ratio (x) = 0.28972 0.05413
# Poissons Ratio (y) = 0.31132 -0.01930
# Poissons Ratio (z) = 0.09656 -0.03205
#
# Static dielectric constant tensor:
#      x y z
#    x 3.830340 0.000000 0.000000 
#    y 0.000000 4.041920 0.000000 
#    z 0.000000 0.000000 3.548830 
# 
# 
# High freq. dielectric constant tensor:
#      x y z
#    x 1.822370 0.000000 0.000000 
#    y 0.000000 1.794510 0.000000 
#    z 0.000000 0.000000 1.799140 
# 
# From -- ./inp_files/17214.got.cif
#   From: 2010.03.12/outbox.cif.g09.slc.cpg/sg62_9_cif.got.tgz:17214.got - 2010.04.10 19:12:36.
