data_PCOD8254720
_publ_section_title
;
Structure prediction by ZEFSAII (Michael W. Deem and Ramdas Pophale) SiO2 
 PCOD8254720
Probable space group: P N M A
;
_chemical_formula_sum "Si O2"
_cell_formula_units_Z 64
_cell_length_a 15.148451
_cell_length_b 8.834238
_cell_length_c 23.817984
_cell_angle_alpha 90.000000
_cell_angle_beta 90.000000
_cell_angle_gamma 90.000000
_cell_volume 3187.442220
_symmetry_space_group_name_H-M "P N M A"
_symmetry_group_IT_number 62
_symmetry_cell_setting 'orthorhombic'
loop_
_space_group_symop_operation_xyz
x,y,z
1/2-x,-y,1/2+z
1/2+x,1/2-y,1/2-z
-x,1/2+y,-z
-x,-y,-z
1/2+x,y,1/2-z
1/2-x,1/2+y,1/2+z
x,1/2-y,z
loop_
_atom_site_type_symbol
_atom_site_label
_atom_site_fract_x
_atom_site_fract_y
_atom_site_fract_z
Si Si1 0.169952 0.421971 0.124970
Si Si2 0.084531 0.573785 0.026152
Si Si3 0.241561 0.075095 0.455045
Si Si4 0.849698 0.926430 0.369728
Si Si5 0.406696 0.921828 0.747836
Si Si6 0.904665 0.571746 0.246669
Si Si7 0.246997 0.928792 0.825607
Si Si8 0.586473 0.572447 0.976064
O O1 0.197008 0.250000 0.109161
O O2 0.094399 0.482932 0.084233
O O3 0.249726 0.536540 0.114563
O O4 0.139741 0.430227 0.188354
O O5 0.069890 0.750000 0.038924
O O6 0.164275 0.546811 0.983172
O O7 0.000000 0.500000 0.000000
O O8 0.213240 0.250000 0.458770
O O9 0.245370 0.021495 0.390343
O O10 0.170907 0.977324 0.488368
O O11 0.867878 0.750000 0.378559
O O12 0.868312 0.980547 0.306831
O O13 0.911215 0.020115 0.411493
O O14 0.433763 0.750000 0.762928
O O15 0.335653 0.985296 0.793258
O O16 0.493717 0.022748 0.744122
O O17 0.899683 0.750000 0.238696
O O18 0.843030 0.498340 0.199256
O O19 0.237896 0.750000 0.818749
O O20 0.578253 0.750000 0.978708
O O21 0.500000 0.500000 0.000000
#
# Coordination Sequence:
#
# PCOD8254720 Si02
#       8
#     8   8   8   8   8   8   8   8
#     4  11  22  40  66  94 122 161 213 263 314 372
#     4  11  24  41  63  92 130 168 209 262 315 375
#     4  10  23  43  65  92 128 168 211 260 316 371
#     4  11  23  42  65  93 128 164 207 261 318 374
#     4  10  23  41  64  92 124 165 211 257 309 374
#     4  11  25  41  63  95 129 165 206 259 315 370
#     4  10  22  43  66  91 125 167 211 256 308 373
#     4  12  26  43  67  95 127 167 212 261 313 376
#
# _framework density 20.078793999999998
#
# number of rings (size 3 to 8) (size 9 to 14) (size 15 to 20)
#    0.000    1.250    2.500    2.625    3.500    4.000 
#    0.000    0.000    0.000    0.000    0.000    0.000 
#    0.000    0.000    0.000    0.000    0.000    0.000 
#
# Total GULP energy -793824.781440 kJ/mol
# GULP energy per Si atom -12403.512210 kJ/mol
# Density = 2.003309 g / cm^3
# Si number density = 20.078794 Si / 1000 Ang^3
#
#
#
# Elastic Constant Matrix: (Units=GPa)
#
#
# Indices 1 2 3 4 5 6 
#
# 1 72.8944 33.5309 3.6816 0.0000 0.0000 0.0000
# 2 33.5309 92.9811 44.6222 0.0000 0.0000 0.0000
# 3 3.6816 44.6222 94.7787 0.0000 0.0000 0.0000
# 4 0.0000 0.0000 0.0000 31.3030 0.0000 0.0000
# 5 0.0000 0.0000 0.0000 0.0000 28.4590 0.0000
# 6 0.0000 0.0000 0.0000 0.0000 0.0000 32.2820
#
#
#
# Elastic Compliance Matrix: (Units=1/GPa)
#
#
# Indices 1 2 3 4 5 6 
#
# 1 0.017035 -0.007526 0.002882 0.000000 0.000000 0.000000
# 2 -0.007526 0.017219 -0.007814 0.000000 0.000000 0.000000
# 3 0.002882 -0.007814 0.014118 0.000000 0.000000 0.000000
# 4 0.000000 0.000000 0.000000 0.031946 0.000000 0.000000
# 5 0.000000 0.000000 0.000000 0.000000 0.035138 0.000000
# 6 0.000000 0.000000 0.000000 0.000000 0.000000 0.030977
#
#
# Mechanical properties :
#
#
# Convention : Reuss Voigt Hill
#
# Bulk Modulus (GPa) = 42.63633 47.14706 44.89170
# Shear Modulus (GPa) = 27.90660 30.33009 29.11835
#
# Velocity S-wave (km/s) = 3.73212 3.89080 3.81229
# Velocity P-wave (km/s) = 6.31286 6.61184 6.46408
#
# Compressibility (1/GPa) = 0.02345417
#
# Stress axis : x y z
#
# Youngs Moduli (GPa) = 58.70327 58.07495 70.83124
#
# Poissons Ratio (x) = 0.43707 -0.20410
# Poissons Ratio (y) = 0.44180 0.55351
# Poissons Ratio (z) = -0.16916 0.45383
#
# Static dielectric constant tensor:
#      x y z
#    x 3.639410 0.000000 0.000000 
#    y 0.000000 3.672290 0.000000 
#    z 0.000000 0.000000 3.996370 
# 
# 
# High freq. dielectric constant tensor:
#      x y z
#    x 1.789720 0.000000 0.000000 
#    y 0.000000 1.785990 0.000000 
#    z 0.000000 0.000000 1.800790 
# 
# From -- ./inp_files/29897.got.cif
#   From: 2010.03.12/outbox.cif.g09.slc.cpg/sg62_15_cif.got.tgz:29897.got - 2010.04.10 19:12:36.
