data_PCOD8254071
_publ_section_title
;
Structure prediction by ZEFSAII (Michael W. Deem and Ramdas Pophale) SiO2 
 PCOD8254071
Probable space group: P N M A
;
_chemical_formula_sum "Si O2"
_cell_formula_units_Z 48
_cell_length_a 8.714665
_cell_length_b 15.809974
_cell_length_c 16.650045
_cell_angle_alpha 90.000000
_cell_angle_beta 90.000000
_cell_angle_gamma 90.000000
_cell_volume 2294.020341
_symmetry_space_group_name_H-M "P N M A"
_symmetry_group_IT_number 62
_symmetry_cell_setting 'orthorhombic'
loop_
_space_group_symop_operation_xyz
x,y,z
1/2-x,-y,1/2+z
1/2+x,1/2-y,1/2-z
-x,1/2+y,-z
-x,-y,-z
1/2+x,y,1/2-z
1/2-x,1/2+y,1/2+z
x,1/2-y,z
loop_
_atom_site_type_symbol
_atom_site_label
_atom_site_fract_x
_atom_site_fract_y
_atom_site_fract_z
Si Si1 0.465126 0.155147 0.785547
Si Si2 0.294981 0.495270 0.845607
Si Si3 0.448844 0.408982 0.249970
Si Si4 0.715297 0.654161 0.363796
Si Si5 0.802060 0.655502 0.863550
Si Si6 0.822857 0.000892 0.980092
O O1 0.420435 0.250000 0.808693
O O2 0.437063 0.140053 0.690088
O O3 0.640687 0.135401 0.805913
O O4 0.344228 0.101300 0.836348
O O5 0.141482 0.515148 0.794810
O O6 0.433077 0.553076 0.813692
O O7 0.275776 0.509375 0.939848
O O8 0.535517 0.356119 0.318719
O O9 0.332906 0.348939 0.202177
O O10 0.720896 0.750000 0.399054
O O11 0.717514 0.586426 0.433743
O O12 0.799684 0.750000 0.901924
O O13 0.777853 0.583571 0.930977
O O14 0.000000 0.000000 0.000000
#
# Coordination Sequence:
#
# PCOD8254071 Si02
#       6
#     8   8   8   8   8   8
#     4  10  21  38  66  96 124 167 215 264 313 371
#     4  11  22  41  66  91 128 167 212 263 313 388
#     4  10  22  42  68  90 120 169 218 262 312 371
#     4  10  23  43  66  95 130 166 214 262 314 379
#     4  11  23  42  66  95 128 165 215 266 314 379
#     4  12  26  41  61  96 130 171 207 256 332 376
#
# _framework density 20.923963000000001
#
# number of rings (size 3 to 8) (size 9 to 14) (size 15 to 20)
#    0.000    1.333    1.667    4.500    2.333    4.000 
#    0.000    3.333    0.000    0.000    0.000    0.000 
#    0.000    0.000    0.000    0.000    0.000    0.000 
#
# Total GULP energy -595180.500285 kJ/mol
# GULP energy per Si atom -12399.593756 kJ/mol
# Density = 2.087634 g / cm^3
# Si number density = 20.923963 Si / 1000 Ang^3
#
#
#
# Elastic Constant Matrix: (Units=GPa)
#
#
# Indices 1 2 3 4 5 6 
#
# 1 76.4156 24.5264 25.6883 0.0000 0.0000 0.0000
# 2 24.5264 140.2067 57.7640 0.0000 0.0000 0.0000
# 3 25.6883 57.7640 111.5807 0.0000 0.0000 0.0000
# 4 0.0000 0.0000 0.0000 19.2164 0.0000 0.0000
# 5 0.0000 0.0000 0.0000 0.0000 32.3905 0.0000
# 6 0.0000 0.0000 0.0000 0.0000 0.0000 24.8365
#
#
#
# Elastic Compliance Matrix: (Units=1/GPa)
#
#
# Indices 1 2 3 4 5 6 
#
# 1 0.014418 -0.001468 -0.002560 0.000000 0.000000 0.000000
# 2 -0.001468 0.009215 -0.004433 0.000000 0.000000 0.000000
# 3 -0.002560 -0.004433 0.011846 0.000000 0.000000 0.000000
# 4 0.000000 0.000000 0.000000 0.052039 0.000000 0.000000
# 5 0.000000 0.000000 0.000000 0.000000 0.030873 0.000000
# 6 0.000000 0.000000 0.000000 0.000000 0.000000 0.040263
#
#
# Mechanical properties :
#
#
# Convention : Reuss Voigt Hill
#
# Bulk Modulus (GPa) = 53.88087 60.46226 57.17157
# Shear Modulus (GPa) = 27.50866 29.97032 28.73949
#
# Velocity S-wave (km/s) = 3.62981 3.78874 3.71012
# Velocity P-wave (km/s) = 6.58590 6.93529 6.76285
#
# Compressibility (1/GPa) = 0.01855946
#
# Stress axis : x y z
#
# Youngs Moduli (GPa) = 69.35869 108.51486 84.41537
#
# Poissons Ratio (x) = 0.15926 0.21606
# Poissons Ratio (y) = 0.10179 0.37420
# Poissons Ratio (z) = 0.17753 0.48102
#
# Static dielectric constant tensor:
#      x y z
#    x 3.960060 0.000000 0.000000 
#    y 0.000000 3.723940 0.000000 
#    z 0.000000 0.000000 3.813750 
# 
# 
# High freq. dielectric constant tensor:
#      x y z
#    x 1.832290 0.000000 0.000000 
#    y 0.000000 1.828030 0.000000 
#    z 0.000000 0.000000 1.804740 
# 
# From -- ./inp_files/22214.got.cif
#   From: 2010.03.12/outbox.cif.g09.slc.cpg/sg62_12_cif.got.tgz:22214.got - 2010.04.10 19:12:36.
