data_PCOD8254722
_publ_section_title
;
Structure prediction by ZEFSAII (Michael W. Deem and Ramdas Pophale) SiO2 
 PCOD8254722
Probable space group: P N M A
;
_chemical_formula_sum "Si O2"
_cell_formula_units_Z 32
_cell_length_a 5.204736
_cell_length_b 17.922248
_cell_length_c 13.876192
_cell_angle_alpha 90.000000
_cell_angle_beta 90.000000
_cell_angle_gamma 90.000000
_cell_volume 1294.379090
_symmetry_space_group_name_H-M "P N M A"
_symmetry_group_IT_number 62
_symmetry_cell_setting 'orthorhombic'
loop_
_space_group_symop_operation_xyz
x,y,z
1/2-x,-y,1/2+z
1/2+x,1/2-y,1/2-z
-x,1/2+y,-z
-x,-y,-z
1/2+x,y,1/2-z
1/2-x,1/2+y,1/2+z
x,1/2-y,z
loop_
_atom_site_type_symbol
_atom_site_label
_atom_site_fract_x
_atom_site_fract_y
_atom_site_fract_z
Si Si1 0.249156 0.467694 0.550510
Si Si2 0.198699 0.337333 0.798889
Si Si3 0.941726 0.163380 0.504899
Si Si4 0.725955 0.911851 0.810427
O O1 0.500000 0.500000 0.500000
O O2 0.209249 0.378448 0.536321
O O3 0.236281 0.500445 0.659571
O O4 0.000000 0.500000 0.500000
O O5 0.433492 0.373750 0.737444
O O6 0.198389 0.250000 0.777179
O O7 0.232130 0.355168 0.911902
O O8 0.015881 0.250000 0.502467
O O9 0.814782 0.139022 0.404815
O O10 0.498989 0.892114 0.736627
#
# Coordination Sequence:
#
# PCOD8254722 Si02
#       4
#     8   8   8   8
#     4  10  22  43  66  92 132 183 238 291 345 417
#     4   9  19  35  56  87 126 166 211 270 345 413
#     4  10  23  43  70 104 141 181 234 304 368 425
#     4  11  24  43  68  99 139 190 236 279 345 433
#
# _framework density 24.722279
#
# number of rings (size 3 to 8) (size 9 to 14) (size 15 to 20)
#    0.000    2.000    0.000    3.000    0.000    9.000 
#    0.000   17.500    0.000    0.000    0.000    0.000 
#    0.000    0.000    0.000    0.000    0.000    0.000 
#
# Total GULP energy -396550.646592 kJ/mol
# GULP energy per Si atom -12392.207706 kJ/mol
# Density = 2.466601 g / cm^3
# Si number density = 24.722279 Si / 1000 Ang^3
#
#
#
# Elastic Constant Matrix: (Units=GPa)
#
#
# Indices 1 2 3 4 5 6 
#
# 1 133.6148 15.0252 41.1060 0.0000 0.0000 0.0000
# 2 15.0252 122.5462 45.0654 0.0000 0.0000 0.0000
# 3 41.1060 45.0654 131.9411 0.0000 0.0000 0.0000
# 4 0.0000 0.0000 0.0000 44.4208 0.0000 0.0000
# 5 0.0000 0.0000 0.0000 0.0000 36.8218 0.0000
# 6 0.0000 0.0000 0.0000 0.0000 0.0000 22.9137
#
#
#
# Elastic Compliance Matrix: (Units=1/GPa)
#
#
# Indices 1 2 3 4 5 6 
#
# 1 0.008278 -0.000076 -0.002553 0.000000 0.000000 0.000000
# 2 -0.000076 0.009333 -0.003164 0.000000 0.000000 0.000000
# 3 -0.002553 -0.003164 0.009455 0.000000 0.000000 0.000000
# 4 0.000000 0.000000 0.000000 0.022512 0.000000 0.000000
# 5 0.000000 0.000000 0.000000 0.000000 0.027158 0.000000
# 6 0.000000 0.000000 0.000000 0.000000 0.000000 0.043642
#
#
# Mechanical properties :
#
#
# Convention : Reuss Voigt Hill
#
# Bulk Modulus (GPa) = 64.59924 65.61057 65.10491
# Shear Modulus (GPa) = 36.46314 39.95831 38.21073
#
# Velocity S-wave (km/s) = 3.84462 4.02467 3.93568
# Velocity P-wave (km/s) = 6.77457 6.94219 6.85889
#
# Compressibility (1/GPa) = 0.01548006
#
# Stress axis : x y z
#
# Youngs Moduli (GPa) = 120.79927 107.14581 105.76139
#
# Poissons Ratio (x) = 0.00815 0.27002
# Poissons Ratio (y) = 0.00919 0.33464
# Poissons Ratio (z) = 0.30841 0.33902
#
# Static dielectric constant tensor:
#      x y z
#    x 4.836800 0.000000 0.000000 
#    y 0.000000 5.103660 0.000000 
#    z 0.000000 0.000000 4.674090 
# 
# 
# High freq. dielectric constant tensor:
#      x y z
#    x 1.994470 0.000000 0.000000 
#    y 0.000000 1.974270 0.000000 
#    z 0.000000 0.000000 1.993340 
# 
# From -- ./inp_files/10641.got.cif
#   From: 2010.03.12/outbox.cif.g09.slc.cpg/sg62_6_cif.got.tgz:10641.got - 2010.04.10 19:12:36.
