data_PCOD8254266
_publ_section_title
;
Structure prediction by ZEFSAII (Michael W. Deem and Ramdas Pophale) SiO2 
 PCOD8254266
Probable space group: P N M A
;
_chemical_formula_sum "Si O2"
_cell_formula_units_Z 64
_cell_length_a 17.599583
_cell_length_b 8.844723
_cell_length_c 20.125288
_cell_angle_alpha 90.000000
_cell_angle_beta 90.000000
_cell_angle_gamma 90.000000
_cell_volume 3132.771492
_symmetry_space_group_name_H-M "P N M A"
_symmetry_group_IT_number 62
_symmetry_cell_setting 'orthorhombic'
loop_
_space_group_symop_operation_xyz
x,y,z
1/2-x,-y,1/2+z
1/2+x,1/2-y,1/2-z
-x,1/2+y,-z
-x,-y,-z
1/2+x,y,1/2-z
1/2-x,1/2+y,1/2+z
x,1/2-y,z
loop_
_atom_site_type_symbol
_atom_site_label
_atom_site_fract_x
_atom_site_fract_y
_atom_site_fract_z
Si Si1 0.168250 0.928105 0.107617
Si Si2 0.917991 0.571987 0.507539
Si Si3 0.924824 0.077904 0.262529
Si Si4 0.581478 0.428547 0.511605
Si Si5 0.167223 0.425815 0.358764
Si Si6 0.837243 0.075686 0.129812
Si Si7 0.082550 0.574472 0.239600
Si Si8 0.171778 0.928592 0.610326
O O1 0.173700 0.750000 0.094640
O O2 0.108688 0.968602 0.165455
O O3 0.249744 0.991362 0.128748
O O4 0.142093 0.009027 0.040647
O O5 0.921431 0.750000 0.492905
O O6 0.890448 0.537425 0.581902
O O7 0.858906 0.493707 0.458497
O O8 0.000000 0.500000 0.500000
O O9 0.954144 0.250000 0.265381
O O10 0.862051 0.056150 0.205905
O O11 0.888067 0.030741 0.332292
O O12 0.996175 0.973337 0.248727
O O13 0.500000 0.500000 0.500000
O O14 0.574597 0.250000 0.504952
O O15 0.609136 0.471963 0.584910
O O16 0.173028 0.250000 0.344229
O O17 0.251248 0.485208 0.376881
O O18 0.138576 0.499328 0.291670
O O19 0.844366 0.250000 0.106572
O O20 0.088929 0.750000 0.252284
O O21 0.184502 0.750000 0.604252
#
# Coordination Sequence:
#
# PCOD8254266 Si02
#       8
#     8   8   8   8   8   8   8   8
#     4  11  24  42  62  89 123 159 199 247 301 358
#     4  11  23  39  60  88 122 162 203 249 301 357
#     4  10  22  39  61  88 120 157 198 243 298 360
#     4  12  25  41  63  91 122 159 201 248 297 353
#     4  10  22  40  62  86 117 156 198 243 297 356
#     4  10  21  40  64  89 118 156 199 246 298 355
#     4  11  24  39  60  89 120 155 199 247 296 351
#     4  11  23  40  63  92 121 156 202 249 299 360
#
# _framework density 20.429193999999999
#
# number of rings (size 3 to 8) (size 9 to 14) (size 15 to 20)
#    0.000    1.250    0.000    5.625    0.000   12.000 
#    0.000    0.000    0.000    0.000    0.000    0.000 
#    0.000    0.000    0.000    0.000    0.000    0.000 
#
# Total GULP energy -794062.155403 kJ/mol
# GULP energy per Si atom -12407.221178 kJ/mol
# Density = 2.038270 g / cm^3
# Si number density = 20.429194 Si / 1000 Ang^3
#
#
#
# Elastic Constant Matrix: (Units=GPa)
#
#
# Indices 1 2 3 4 5 6 
#
# 1 100.3522 29.6031 6.2194 0.0000 0.0000 0.0000
# 2 29.6031 79.7810 38.0058 0.0000 0.0000 0.0000
# 3 6.2194 38.0058 71.0979 0.0000 0.0000 0.0000
# 4 0.0000 0.0000 0.0000 34.3468 0.0000 0.0000
# 5 0.0000 0.0000 0.0000 0.0000 33.3521 0.0000
# 6 0.0000 0.0000 0.0000 0.0000 0.0000 38.5146
#
#
#
# Elastic Compliance Matrix: (Units=1/GPa)
#
#
# Indices 1 2 3 4 5 6 
#
# 1 0.011338 -0.005011 0.001687 0.000000 0.000000 0.000000
# 2 -0.005011 0.019031 -0.009735 0.000000 0.000000 0.000000
# 3 0.001687 -0.009735 0.019121 0.000000 0.000000 0.000000
# 4 0.000000 0.000000 0.000000 0.029115 0.000000 0.000000
# 5 0.000000 0.000000 0.000000 0.000000 0.029983 0.000000
# 6 0.000000 0.000000 0.000000 0.000000 0.000000 0.025964
#
#
# Mechanical properties :
#
#
# Convention : Reuss Voigt Hill
#
# Bulk Modulus (GPa) = 42.78415 44.32087 43.55251
# Shear Modulus (GPa) = 29.68035 33.06957 31.37496
#
# Velocity S-wave (km/s) = 3.81575 4.02772 3.92317
# Velocity P-wave (km/s) = 6.35621 6.58574 6.47199
#
# Compressibility (1/GPa) = 0.02337314
#
# Stress axis : x y z
#
# Youngs Moduli (GPa) = 88.19521 52.54590 52.29747
#
# Poissons Ratio (x) = 0.26329 -0.08821
# Poissons Ratio (y) = 0.44192 0.50911
# Poissons Ratio (z) = -0.14875 0.51152
#
# Static dielectric constant tensor:
#      x y z
#    x 3.777960 0.000000 0.000000 
#    y 0.000000 3.769460 0.000000 
#    z 0.000000 0.000000 3.833940 
# 
# 
# High freq. dielectric constant tensor:
#      x y z
#    x 1.815040 0.000000 0.000000 
#    y 0.000000 1.800990 0.000000 
#    z 0.000000 0.000000 1.812800 
# 
# From -- ./inp_files/27625.got.cif
#   From: 2010.03.12/outbox.cif.g09.slc.cpg/sg62_14_cif.got.tgz:27625.got - 2010.04.10 19:12:36.
