data_PCOD8254909
_publ_section_title
;
Structure prediction by ZEFSAII (Michael W. Deem and Ramdas Pophale) SiO2 
 PCOD8254909
Probable space group: P N M A
;
_chemical_formula_sum "Si O2"
_cell_formula_units_Z 40
_cell_length_a 10.230610
_cell_length_b 27.658522
_cell_length_c 5.032421
_cell_angle_alpha 90.000000
_cell_angle_beta 90.000000
_cell_angle_gamma 90.000000
_cell_volume 1423.991720
_symmetry_space_group_name_H-M "P N M A"
_symmetry_group_IT_number 62
_symmetry_cell_setting 'orthorhombic'
loop_
_space_group_symop_operation_xyz
x,y,z
1/2-x,-y,1/2+z
1/2+x,1/2-y,1/2-z
-x,1/2+y,-z
-x,-y,-z
1/2+x,y,1/2-z
1/2-x,1/2+y,1/2+z
x,1/2-y,z
loop_
_atom_site_type_symbol
_atom_site_label
_atom_site_fract_x
_atom_site_fract_y
_atom_site_fract_z
Si Si1 0.542241 0.378434 0.426966
Si Si2 0.695962 0.059870 0.800311
Si Si3 0.370848 0.196144 0.676232
Si Si4 0.363395 0.452749 0.198469
Si Si5 0.605409 0.303784 0.040206
O O1 0.604431 0.395535 0.708496
O O2 0.415447 0.345244 0.473207
O O3 0.500444 0.425737 0.254030
O O4 0.640596 0.344497 0.258883
O O5 0.819166 0.059313 0.599558
O O6 0.613609 0.010161 0.769770
O O7 0.751198 0.066039 0.097401
O O8 0.403987 0.250000 0.565237
O O9 0.212762 0.190750 0.701337
O O10 0.455751 0.188639 0.942958
O O11 0.620592 0.250000 0.164383
#
# Coordination Sequence:
#
# PCOD8254909 Si02
#       5
#     8   8   8   8   8
#     4  12  24  38  73 102 139 186 253 298 362 436
#     4  10  24  44  66 101 146 190 237 299 367 432
#     4  10  24  44  69 101 145 190 240 302 367 435
#     4  10  24  44  67 100 146 190 237 300 365 433
#     4  10  24  46  69 104 146 192 240 302 368 435
#
# _framework density 28.090049
#
# number of rings (size 3 to 8) (size 9 to 14) (size 15 to 20)
#    0.000    1.600    0.000    2.400    8.400    1.600 
#    0.000   10.000    0.000    0.000    0.000    0.000 
#    0.000    0.000    0.000    0.000    0.000    0.000 
#
# Total GULP energy -495807.366810 kJ/mol
# GULP energy per Si atom -12395.184170 kJ/mol
# Density = 2.802611 g / cm^3
# Si number density = 28.090049 Si / 1000 Ang^3
#
#
#
# Elastic Constant Matrix: (Units=GPa)
#
#
# Indices 1 2 3 4 5 6 
#
# 1 85.2089 35.6937 4.6055 0.0000 0.0000 0.0000
# 2 35.6937 146.9939 -0.7934 0.0000 0.0000 0.0000
# 3 4.6055 -0.7934 38.0940 0.0000 0.0000 0.0000
# 4 0.0000 0.0000 0.0000 33.6786 0.0000 0.0000
# 5 0.0000 0.0000 0.0000 0.0000 27.2974 0.0000
# 6 0.0000 0.0000 0.0000 0.0000 0.0000 32.5348
#
#
#
# Elastic Compliance Matrix: (Units=1/GPa)
#
#
# Indices 1 2 3 4 5 6 
#
# 1 0.013169 -0.003207 -0.001659 0.000000 0.000000 0.000000
# 2 -0.003207 0.007585 0.000546 0.000000 0.000000 0.000000
# 3 -0.001659 0.000546 0.026463 0.000000 0.000000 0.000000
# 4 0.000000 0.000000 0.000000 0.029692 0.000000 0.000000
# 5 0.000000 0.000000 0.000000 0.000000 0.036633 0.000000
# 6 0.000000 0.000000 0.000000 0.000000 0.000000 0.030736
#
#
# Mechanical properties :
#
#
# Convention : Reuss Voigt Hill
#
# Bulk Modulus (GPa) = 25.92260 38.81207 32.36733
# Shear Modulus (GPa) = 30.16099 34.08822 32.12461
#
# Velocity S-wave (km/s) = 3.28033 3.48736 3.38543
# Velocity P-wave (km/s) = 4.85756 5.48294 5.17969
#
# Compressibility (1/GPa) = 0.03857638
#
# Stress axis : x y z
#
# Youngs Moduli (GPa) = 75.93715 131.84600 37.78891
#
# Poissons Ratio (x) = 0.42279 0.06269
# Poissons Ratio (y) = 0.24350 -0.02062
# Poissons Ratio (z) = 0.12597 -0.07194
#
# Static dielectric constant tensor:
#      x y z
#    x 4.732300 0.000000 0.000000 
#    y 0.000000 5.604940 0.000000 
#    z 0.000000 0.000000 4.736210 
# 
# 
# High freq. dielectric constant tensor:
#      x y z
#    x 2.122960 0.000000 0.000000 
#    y 0.000000 2.169260 0.000000 
#    z 0.000000 0.000000 2.109450 
# 
# From -- ./inp_files/597.got.cif
#   From: 2010.03.12/outbox.cif.g09.slc.cpg/sg62_1_cif.got.tgz:597.got - 2010.04.10 19:12:36.
