data_PCOD8254408
_publ_section_title
;
Structure prediction by ZEFSAII (Michael W. Deem and Ramdas Pophale) SiO2 
 PCOD8254408
Probable space group: P N M A
;
_chemical_formula_sum "Si O2"
_cell_formula_units_Z 40
_cell_length_a 10.933065
_cell_length_b 28.569886
_cell_length_c 5.158404
_cell_angle_alpha 90.000000
_cell_angle_beta 90.000000
_cell_angle_gamma 90.000000
_cell_volume 1611.260610
_symmetry_space_group_name_H-M "P N M A"
_symmetry_group_IT_number 62
_symmetry_cell_setting 'orthorhombic'
loop_
_space_group_symop_operation_xyz
x,y,z
1/2-x,-y,1/2+z
1/2+x,1/2-y,1/2-z
-x,1/2+y,-z
-x,-y,-z
1/2+x,y,1/2-z
1/2-x,1/2+y,1/2+z
x,1/2-y,z
loop_
_atom_site_type_symbol
_atom_site_label
_atom_site_fract_x
_atom_site_fract_y
_atom_site_fract_z
Si Si1 0.181280 0.150782 0.128716
Si Si2 0.168676 0.848535 0.143422
Si Si3 0.093475 0.250000 0.213738
Si Si4 0.830953 0.001351 0.205619
Si Si5 0.004828 0.077300 0.021479
Si Si6 0.656889 0.750000 0.489891
O O1 0.282573 0.153034 0.349131
O O2 0.119397 0.201035 0.068921
O O3 0.088645 0.109111 0.210499
O O4 0.234791 0.134454 0.854038
O O5 0.127288 0.794791 0.193829
O O6 0.059608 0.885507 0.169215
O O7 0.195164 0.250000 0.446909
O O8 0.942316 0.250000 0.235576
O O9 0.907315 0.049458 0.196152
O O10 0.776213 0.996913 0.492211
O O11 0.919841 0.957902 0.158997
#
# Coordination Sequence:
#
# PCOD8254408 Si02
#       6
#     8   8   4   8   8   4
#     4  11  24  42  65  98 133 176 223 274 330 401
#     4  11  24  42  65  98 133 176 223 274 330 401
#     4  10  21  44  67 102 142 186 228 280 334 400
#     4  11  26  45  66  96 130 167 218 275 344 406
#     4  11  24  43  70  94 130 173 218 279 334 406
#     4  10  21  44  67 102 142 186 228 280 334 400
#
# _framework density 24.825281
#
# number of rings (size 3 to 8) (size 9 to 14) (size 15 to 20)
#    0.000    1.200    2.000    3.000    0.000    8.000 
#    3.600    2.000    0.000    0.000    0.000    0.000 
#    0.000    0.000    0.000    0.000    0.000    0.000 
#
# Total GULP energy -495568.450082 kJ/mol
# GULP energy per Si atom -12389.211252 kJ/mol
# Density = 2.476878 g / cm^3
# Si number density = 24.825281 Si / 1000 Ang^3
#
#
#
# Elastic Constant Matrix: (Units=GPa)
#
#
# Indices 1 2 3 4 5 6 
#
# 1 101.0142 43.2333 15.9748 0.0000 0.0000 0.0000
# 2 43.2333 180.6743 7.7270 0.0000 0.0000 0.0000
# 3 15.9748 7.7270 57.9157 0.0000 0.0000 0.0000
# 4 0.0000 0.0000 0.0000 8.6938 0.0000 0.0000
# 5 0.0000 0.0000 0.0000 0.0000 11.9929 0.0000
# 6 0.0000 0.0000 0.0000 0.0000 0.0000 56.3174
#
#
#
# Elastic Compliance Matrix: (Units=1/GPa)
#
#
# Indices 1 2 3 4 5 6 
#
# 1 0.011467 -0.002624 -0.002813 0.000000 0.000000 0.000000
# 2 -0.002624 0.006167 -0.000099 0.000000 0.000000 0.000000
# 3 -0.002813 -0.000099 0.018056 0.000000 0.000000 0.000000
# 4 0.000000 0.000000 0.000000 0.115025 0.000000 0.000000
# 5 0.000000 0.000000 0.000000 0.000000 0.083383 0.000000
# 6 0.000000 0.000000 0.000000 0.000000 0.000000 0.017757
#
#
# Mechanical properties :
#
#
# Convention : Reuss Voigt Hill
#
# Bulk Modulus (GPa) = 40.62017 52.60827 46.61422
# Shear Modulus (GPa) = 18.44121 33.57874 26.00998
#
# Velocity S-wave (km/s) = 2.72847 3.68176 3.24036
# Velocity P-wave (km/s) = 5.13069 6.26987 5.72867
#
# Compressibility (1/GPa) = 0.02461831
#
# Stress axis : x y z
#
# Youngs Moduli (GPa) = 87.20388 162.15646 55.38455
#
# Poissons Ratio (x) = 0.42545 0.15580
# Poissons Ratio (y) = 0.22880 0.00549
# Poissons Ratio (z) = 0.24530 0.01607
#
# Static dielectric constant tensor:
#      x y z
#    x 4.773090 0.000000 0.000000 
#    y 0.000000 5.230760 0.000000 
#    z 0.000000 0.000000 3.680490 
# 
# 
# High freq. dielectric constant tensor:
#      x y z
#    x 1.999380 0.000000 0.000000 
#    y 0.000000 2.028430 0.000000 
#    z 0.000000 0.000000 1.935560 
# 
# From -- ./inp_files/628.got.cif
#   From: 2010.03.12/outbox.cif.g09.slc.cpg/sg62_1_cif.got.tgz:628.got - 2010.04.10 19:12:36.
