data_PCOD8254382
_publ_section_title
;
Structure prediction by ZEFSAII (Michael W. Deem and Ramdas Pophale) SiO2 
 PCOD8254382
Probable space group: P N M A
;
_chemical_formula_sum "Si O2"
_cell_formula_units_Z 48
_cell_length_a 9.433448
_cell_length_b 8.581522
_cell_length_c 28.572873
_cell_angle_alpha 90.000000
_cell_angle_beta 90.000000
_cell_angle_gamma 90.000000
_cell_volume 2313.069547
_symmetry_space_group_name_H-M "P N M A"
_symmetry_group_IT_number 62
_symmetry_cell_setting 'orthorhombic'
loop_
_space_group_symop_operation_xyz
x,y,z
1/2-x,-y,1/2+z
1/2+x,1/2-y,1/2-z
-x,1/2+y,-z
-x,-y,-z
1/2+x,y,1/2-z
1/2-x,1/2+y,1/2+z
x,1/2-y,z
loop_
_atom_site_type_symbol
_atom_site_label
_atom_site_fract_x
_atom_site_fract_y
_atom_site_fract_z
Si Si1 0.813046 0.933224 0.121276
Si Si2 0.852002 0.566498 0.013809
Si Si3 0.510618 0.566993 0.699833
Si Si4 0.799141 0.564646 0.279430
Si Si5 0.002823 0.065378 0.637252
Si Si6 0.398315 0.566991 0.038431
O O1 0.840265 0.750000 0.127171
O O2 0.811536 0.980307 0.066718
O O3 0.661493 0.983922 0.143331
O O4 0.940706 0.023349 0.147179
O O5 0.841276 0.750000 0.006950
O O6 0.758054 0.480820 0.975304
O O7 0.000000 0.500000 0.000000
O O8 0.489471 0.750000 0.704805
O O9 0.638910 0.507777 0.732216
O O10 0.362758 0.485377 0.712655
O O11 0.803371 0.750000 0.275293
O O12 0.900199 0.500271 0.320873
O O13 0.013829 0.250000 0.636319
O O14 0.063781 0.995296 0.589010
O O15 0.418627 0.750000 0.040161
O O16 0.500000 0.500000 0.000000
#
# Coordination Sequence:
#
# PCOD8254382 Si02
#       6
#     8   8   8   8   8   8
#     4  10  21  42  66  89 123 171 217 257 311 386
#     4  11  24  41  62  91 128 171 217 265 317 375
#     4  12  26  43  64  97 133 161 203 267 323 365
#     4  11  23  43  70  95 122 168 214 251 308 386
#     4   9  20  39  65  92 120 159 214 260 301 369
#     4  11  21  39  63  93 127 168 214 262 312 367
#
# _framework density 20.751643999999999
#
# number of rings (size 3 to 8) (size 9 to 14) (size 15 to 20)
#    0.000    1.333    1.667    4.000    2.333    2.667 
#    0.000    3.333    0.000    0.000    0.000    0.000 
#    0.000    0.000    0.000    0.000    0.000    0.000 
#
# Total GULP energy -595260.031114 kJ/mol
# GULP energy per Si atom -12401.250648 kJ/mol
# Density = 2.070441 g / cm^3
# Si number density = 20.751644 Si / 1000 Ang^3
#
#
#
# Elastic Constant Matrix: (Units=GPa)
#
#
# Indices 1 2 3 4 5 6 
#
# 1 105.6773 2.5002 17.1854 0.0000 0.0000 0.0000
# 2 2.5002 58.5173 22.7901 0.0000 0.0000 0.0000
# 3 17.1854 22.7901 80.8476 0.0000 0.0000 0.0000
# 4 0.0000 0.0000 0.0000 30.9042 0.0000 0.0000
# 5 0.0000 0.0000 0.0000 0.0000 46.7311 0.0000
# 6 0.0000 0.0000 0.0000 0.0000 0.0000 34.4890
#
#
#
# Elastic Compliance Matrix: (Units=1/GPa)
#
#
# Indices 1 2 3 4 5 6 
#
# 1 0.009812 0.000442 -0.002210 0.000000 0.000000 0.000000
# 2 0.000442 0.019216 -0.005511 0.000000 0.000000 0.000000
# 3 -0.002210 -0.005511 0.014392 0.000000 0.000000 0.000000
# 4 0.000000 0.000000 0.000000 0.032358 0.000000 0.000000
# 5 0.000000 0.000000 0.000000 0.000000 0.021399 0.000000
# 6 0.000000 0.000000 0.000000 0.000000 0.000000 0.028995
#
#
# Mechanical properties :
#
#
# Convention : Reuss Voigt Hill
#
# Bulk Modulus (GPa) = 34.64810 36.66595 35.65703
# Shear Modulus (GPa) = 33.25548 35.92928 34.59238
#
# Velocity S-wave (km/s) = 4.00752 4.16552 4.08728
# Velocity P-wave (km/s) = 6.17628 6.39083 6.28447
#
# Compressibility (1/GPa) = 0.02886161
#
# Stress axis : x y z
#
# Youngs Moduli (GPa) = 101.91877 52.03915 69.48236
#
# Poissons Ratio (x) = -0.02298 0.15356
# Poissons Ratio (y) = -0.04500 0.38290
# Poissons Ratio (z) = 0.22525 0.28677
#
# Static dielectric constant tensor:
#      x y z
#    x 3.875490 0.000000 0.000000 
#    y 0.000000 3.462790 0.000000 
#    z 0.000000 0.000000 3.792680 
# 
# 
# High freq. dielectric constant tensor:
#      x y z
#    x 1.828940 0.000000 0.000000 
#    y 0.000000 1.794970 0.000000 
#    z 0.000000 0.000000 1.826580 
# 
# From -- ./inp_files/32031.got.cif
#   From: 2010.03.12/outbox.cif.g09.slc.cpg/sg62_17_cif.got.tgz:32031.got - 2010.04.10 19:12:36.
