data_PCOD8254977
_publ_section_title
;
Structure prediction by ZEFSAII (Michael W. Deem and Ramdas Pophale) SiO2 
 PCOD8254977
Probable space group: P N M A
;
_chemical_formula_sum "Si O2"
_cell_formula_units_Z 44
_cell_length_a 17.720487
_cell_length_b 9.586932
_cell_length_c 13.664322
_cell_angle_alpha 90.000000
_cell_angle_beta 90.000000
_cell_angle_gamma 90.000000
_cell_volume 2321.364762
_symmetry_space_group_name_H-M "P N M A"
_symmetry_group_IT_number 62
_symmetry_cell_setting 'orthorhombic'
loop_
_space_group_symop_operation_xyz
x,y,z
1/2-x,-y,1/2+z
1/2+x,1/2-y,1/2-z
-x,1/2+y,-z
-x,-y,-z
1/2+x,y,1/2-z
1/2-x,1/2+y,1/2+z
x,1/2-y,z
loop_
_atom_site_type_symbol
_atom_site_label
_atom_site_fract_x
_atom_site_fract_y
_atom_site_fract_z
Si Si1 0.808333 0.750000 0.227963
Si Si2 0.904123 0.513570 0.322104
Si Si3 0.804270 0.750000 0.004483
Si Si4 0.133183 0.750000 0.545430
Si Si5 0.146654 0.750000 0.205931
Si Si6 0.519458 0.750000 0.132572
Si Si7 0.462938 0.404528 0.376640
Si Si8 0.384230 0.018361 0.558618
O O1 0.836748 0.612167 0.284013
O O2 0.837276 0.750000 0.115420
O O3 0.718015 0.750000 0.222387
O O4 0.873911 0.394608 0.394914
O O5 0.938857 0.429164 0.233227
O O6 0.968174 0.611071 0.370681
O O7 0.714205 0.750000 0.005941
O O8 0.834864 0.619886 0.943467
O O9 0.069342 0.750000 0.463645
O O10 0.070135 0.750000 0.269096
O O11 0.155893 0.618450 0.135054
O O12 0.495776 0.250000 0.386828
O O13 0.530001 0.507535 0.404249
O O14 0.390522 0.422171 0.448161
#
# Coordination Sequence:
#
# PCOD8254977 Si02
#       8
#     4   8   4   4   4   4   8   8
#     4  11  24  41  62  89 125 165 205 247 310 375
#     4  11  23  41  67  88 119 166 208 251 304 363
#     4  12  23  40  60  91 129 161 199 250 312 376
#     4  12  25  43  63  87 127 168 207 259 298 351
#     4  12  22  41  60  89 125 162 198 254 308 368
#     4  11  24  41  65  92 116 162 219 252 294 356
#     4  11  20  35  61  95 120 148 194 259 307 363
#     4  11  23  35  63  92 121 154 197 245 318 372
#
# _framework density 18.954367999999999
#
# number of rings (size 3 to 8) (size 9 to 14) (size 15 to 20)
#    0.000    0.727    7.273    1.636    0.000    0.000 
#    0.000    0.000    0.000    0.000    0.000    0.000 
#    0.000    0.000    0.000    0.000    0.000    0.000 
#
# Total GULP energy -545570.577945 kJ/mol
# GULP energy per Si atom -12399.331317 kJ/mol
# Density = 1.891123 g / cm^3
# Si number density = 18.954368 Si / 1000 Ang^3
#
#
#
# Elastic Constant Matrix: (Units=GPa)
#
#
# Indices 1 2 3 4 5 6 
#
# 1 80.9477 28.3152 20.3477 0.0000 0.0000 0.0000
# 2 28.3152 130.5022 43.2855 0.0000 0.0000 0.0000
# 3 20.3477 43.2855 93.4911 0.0000 0.0000 0.0000
# 4 0.0000 0.0000 0.0000 22.9482 0.0000 0.0000
# 5 0.0000 0.0000 0.0000 0.0000 32.0480 0.0000
# 6 0.0000 0.0000 0.0000 0.0000 0.0000 34.3927
#
#
#
# Elastic Compliance Matrix: (Units=1/GPa)
#
#
# Indices 1 2 3 4 5 6 
#
# 1 0.013645 -0.002334 -0.001889 0.000000 0.000000 0.000000
# 2 -0.002334 0.009452 -0.003868 0.000000 0.000000 0.000000
# 3 -0.001889 -0.003868 0.012898 0.000000 0.000000 0.000000
# 4 0.000000 0.000000 0.000000 0.043576 0.000000 0.000000
# 5 0.000000 0.000000 0.000000 0.000000 0.031203 0.000000
# 6 0.000000 0.000000 0.000000 0.000000 0.000000 0.029076
#
#
# Mechanical properties :
#
#
# Convention : Reuss Voigt Hill
#
# Bulk Modulus (GPa) = 50.47273 54.31531 52.39402
# Shear Modulus (GPa) = 30.74314 32.07729 31.41022
#
# Velocity S-wave (km/s) = 4.03172 4.11827 4.07523
# Velocity P-wave (km/s) = 6.95409 7.16461 7.06013
#
# Compressibility (1/GPa) = 0.01981268
#
# Stress axis : x y z
#
# Youngs Moduli (GPa) = 73.28733 105.79590 77.52935
#
# Poissons Ratio (x) = 0.24692 0.14646
# Poissons Ratio (y) = 0.17105 0.29991
# Poissons Ratio (z) = 0.13845 0.40925
#
# Static dielectric constant tensor:
#      x y z
#    x 3.294690 0.000000 0.000000 
#    y 0.000000 3.549530 0.000000 
#    z 0.000000 0.000000 3.443420 
# 
# 
# High freq. dielectric constant tensor:
#      x y z
#    x 1.729900 0.000000 0.000000 
#    y 0.000000 1.749060 0.000000 
#    z 0.000000 0.000000 1.740880 
# 
# From -- ./inp_files/19504.got.cif
#   From: 2010.03.12/outbox.cif.g09.slc.cpg/sg62_10_cif.got.tgz:19504.got - 2010.04.10 19:12:36.
