data_PCOD8254766
_publ_section_title
;
Structure prediction by ZEFSAII (Michael W. Deem and Ramdas Pophale) SiO2 
 PCOD8254766
Probable space group: P N M A
;
_chemical_formula_sum "Si O2"
_cell_formula_units_Z 32
_cell_length_a 9.283277
_cell_length_b 17.245828
_cell_length_c 7.405623
_cell_angle_alpha 90.000000
_cell_angle_beta 90.000000
_cell_angle_gamma 90.000000
_cell_volume 1185.623938
_symmetry_space_group_name_H-M "P N M A"
_symmetry_group_IT_number 62
_symmetry_cell_setting 'orthorhombic'
loop_
_space_group_symop_operation_xyz
x,y,z
1/2-x,-y,1/2+z
1/2+x,1/2-y,1/2-z
-x,1/2+y,-z
-x,-y,-z
1/2+x,y,1/2-z
1/2-x,1/2+y,1/2+z
x,1/2-y,z
loop_
_atom_site_type_symbol
_atom_site_label
_atom_site_fract_x
_atom_site_fract_y
_atom_site_fract_z
Si Si1 0.711798 0.994282 0.020930
Si Si2 0.236144 0.338683 0.158251
Si Si3 0.984608 0.967043 0.208436
Si Si4 0.428269 0.335849 0.476455
O O1 0.888244 0.012287 0.045456
O O2 0.620868 0.014047 0.205787
O O3 0.699510 0.901219 0.985069
O O4 0.641409 0.043477 0.859226
O O5 0.291212 0.250000 0.116877
O O6 0.289910 0.364886 0.359184
O O7 0.063706 0.340321 0.159629
O O8 0.038093 0.882135 0.158395
O O9 0.398632 0.250000 0.546845
#
# Coordination Sequence:
#
# PCOD8254766 Si02
#       4
#     8   8   8   8
#     4  10  23  39  58  83 114 150 191 235 283 337
#     4   9  19  36  58  85 116 148 184 228 280 337
#     4  10  23  39  58  84 114 151 191 234 281 332
#     4   9  19  37  60  86 116 149 186 229 280 337
#
# _framework density 26.990008
#
# number of rings (size 3 to 8) (size 9 to 14) (size 15 to 20)
#    0.000    2.500    0.000    0.000    0.000   15.000 
#    0.000    0.000    0.000    1.500    0.000    0.000 
#    0.000    0.000    0.000    0.000    0.000    0.000 
#
# Total GULP energy -396725.447911 kJ/mol
# GULP energy per Si atom -12397.670247 kJ/mol
# Density = 2.692858 g / cm^3
# Si number density = 26.990008 Si / 1000 Ang^3
#
#
#
# Elastic Constant Matrix: (Units=GPa)
#
#
# Indices 1 2 3 4 5 6 
#
# 1 192.1110 50.4796 71.1286 0.0000 0.0000 0.0000
# 2 50.4796 74.8360 52.5489 0.0000 0.0000 0.0000
# 3 71.1286 52.5489 104.8158 0.0000 0.0000 0.0000
# 4 0.0000 0.0000 0.0000 45.7728 0.0000 0.0000
# 5 0.0000 0.0000 0.0000 0.0000 41.7192 0.0000
# 6 0.0000 0.0000 0.0000 0.0000 0.0000 31.9450
#
#
#
# Elastic Compliance Matrix: (Units=1/GPa)
#
#
# Indices 1 2 3 4 5 6 
#
# 1 0.007178 -0.002194 -0.003771 0.000000 0.000000 0.000000
# 2 -0.002194 0.021293 -0.009186 0.000000 0.000000 0.000000
# 3 -0.003771 -0.009186 0.016705 0.000000 0.000000 0.000000
# 4 0.000000 0.000000 0.000000 0.021847 0.000000 0.000000
# 5 0.000000 0.000000 0.000000 0.000000 0.023970 0.000000
# 6 0.000000 0.000000 0.000000 0.000000 0.000000 0.031304
#
#
# Mechanical properties :
#
#
# Convention : Reuss Voigt Hill
#
# Bulk Modulus (GPa) = 67.23384 80.00853 73.62118
# Shear Modulus (GPa) = 31.73446 37.06111 34.39779
#
# Velocity S-wave (km/s) = 3.43269 3.70961 3.57384
# Velocity P-wave (km/s) = 6.37777 6.93227 6.66079
#
# Compressibility (1/GPa) = 0.01487346
#
# Stress axis : x y z
#
# Youngs Moduli (GPa) = 139.31354 46.96405 59.86125
#
# Poissons Ratio (x) = 0.10303 0.22575
# Poissons Ratio (y) = 0.30562 0.54991
# Poissons Ratio (z) = 0.52539 0.43143
#
# Static dielectric constant tensor:
#      x y z
#    x 5.440590 0.000000 0.000000 
#    y 0.000000 5.107390 0.000000 
#    z 0.000000 0.000000 5.071270 
# 
# 
# High freq. dielectric constant tensor:
#      x y z
#    x 2.119810 0.000000 0.000000 
#    y 0.000000 2.093030 0.000000 
#    z 0.000000 0.000000 2.086170 
# 
# From -- ./inp_files/437.got.cif
#   From: 2010.03.12/outbox.cif.g09.slc.cpg/sg62_1_cif.got.tgz:437.got - 2010.04.10 19:12:36.
