data_PCOD8254432
_publ_section_title
;
Structure prediction by ZEFSAII (Michael W. Deem and Ramdas Pophale) SiO2 
 PCOD8254432
Probable space group: P N M A
;
_chemical_formula_sum "Si O2"
_cell_formula_units_Z 40
_cell_length_a 11.783603
_cell_length_b 9.255070
_cell_length_c 20.549056
_cell_angle_alpha 90.000000
_cell_angle_beta 90.000000
_cell_angle_gamma 90.000000
_cell_volume 2241.040400
_symmetry_space_group_name_H-M "P N M A"
_symmetry_group_IT_number 62
_symmetry_cell_setting 'orthorhombic'
loop_
_space_group_symop_operation_xyz
x,y,z
1/2-x,-y,1/2+z
1/2+x,1/2-y,1/2-z
-x,1/2+y,-z
-x,-y,-z
1/2+x,y,1/2-z
1/2-x,1/2+y,1/2+z
x,1/2-y,z
loop_
_atom_site_type_symbol
_atom_site_label
_atom_site_fract_x
_atom_site_fract_y
_atom_site_fract_z
Si Si1 0.208403 0.919675 0.598242
Si Si2 0.187107 0.413117 0.719577
Si Si3 0.884311 0.919843 0.013794
Si Si4 0.999262 0.586667 0.374943
Si Si5 0.752063 0.578072 0.139182
O O1 0.194039 0.750000 0.606832
O O2 0.294911 0.960694 0.541734
O O3 0.254238 0.989047 0.666277
O O4 0.084724 0.988834 0.580380
O O5 0.236782 0.250000 0.717230
O O6 0.201046 0.479508 0.791661
O O7 0.053634 0.412598 0.698728
O O8 0.907817 0.750000 0.015713
O O9 0.834575 0.977178 0.082287
O O10 0.000000 0.000000 0.000000
O O11 0.001902 0.750000 0.403170
O O12 0.124773 0.518613 0.372788
O O13 0.747851 0.750000 0.139091
#
# Coordination Sequence:
#
# PCOD8254432 Si02
#       5
#     8   8   8   8   8
#     4   9  18  34  51  74 108 140 168 208 269 320
#     4   8  16  31  53  77  99 134 177 216 254 301
#     4  10  22  37  54  77 107 142 177 220 268 316
#     4   8  16  31  53  78  99 130 176 216 255 304
#     4   9  17  33  56  80 103 132 180 226 256 301
#
# _framework density 17.848853999999999
#
# number of rings (size 3 to 8) (size 9 to 14) (size 15 to 20)
#    1.200    2.000    0.000    0.000    0.000    4.000 
#    0.000    7.000    0.000    0.000    0.000    0.000 
#    0.000    0.000    0.000    0.000    0.000    0.000 
#
# Total GULP energy -495538.800396 kJ/mol
# GULP energy per Si atom -12388.470010 kJ/mol
# Density = 1.780823 g / cm^3
# Si number density = 17.848854 Si / 1000 Ang^3
#
#
#
# Elastic Constant Matrix: (Units=GPa)
#
#
# Indices 1 2 3 4 5 6 
#
# 1 97.9366 30.3960 33.7469 0.0000 0.0000 0.0000
# 2 30.3960 46.7116 32.9384 0.0000 0.0000 0.0000
# 3 33.7469 32.9384 109.8183 0.0000 0.0000 0.0000
# 4 0.0000 0.0000 0.0000 23.0023 0.0000 0.0000
# 5 0.0000 0.0000 0.0000 0.0000 28.7702 0.0000
# 6 0.0000 0.0000 0.0000 0.0000 0.0000 24.6816
#
#
#
# Elastic Compliance Matrix: (Units=1/GPa)
#
#
# Indices 1 2 3 4 5 6 
#
# 1 0.013088 -0.007204 -0.001861 0.000000 0.000000 0.000000
# 2 -0.007204 0.031116 -0.007119 0.000000 0.000000 0.000000
# 3 -0.001861 -0.007119 0.011813 0.000000 0.000000 0.000000
# 4 0.000000 0.000000 0.000000 0.043474 0.000000 0.000000
# 5 0.000000 0.000000 0.000000 0.000000 0.034758 0.000000
# 6 0.000000 0.000000 0.000000 0.000000 0.000000 0.040516
#
#
# Mechanical properties :
#
#
# Convention : Reuss Voigt Hill
#
# Bulk Modulus (GPa) = 42.28625 49.84769 46.06697
# Shear Modulus (GPa) = 23.25411 25.78316 24.51863
#
# Velocity S-wave (km/s) = 3.61340 3.80482 3.71034
# Velocity P-wave (km/s) = 6.41495 6.87681 6.64989
#
# Compressibility (1/GPa) = 0.02364835
#
# Stress axis : x y z
#
# Youngs Moduli (GPa) = 76.40648 32.13819 84.65205
#
# Poissons Ratio (x) = 0.23153 0.15755
# Poissons Ratio (y) = 0.55044 0.60263
# Poissons Ratio (z) = 0.14220 0.22879
#
# Static dielectric constant tensor:
#      x y z
#    x 3.219770 0.000000 0.000000 
#    y 0.000000 3.034160 0.000000 
#    z 0.000000 0.000000 3.370960 
# 
# 
# High freq. dielectric constant tensor:
#      x y z
#    x 1.680930 0.000000 0.000000 
#    y 0.000000 1.664580 0.000000 
#    z 0.000000 0.000000 1.686360 
# 
# From -- ./inp_files/26458.got.cif
#   From: 2010.03.12/outbox.cif.g09.slc.cpg/sg62_14_cif.got.tgz:26458.got - 2010.04.10 19:12:36.
