data_PCOD8254602
_publ_section_title
;
Structure prediction by ZEFSAII (Michael W. Deem and Ramdas Pophale) SiO2 
 PCOD8254602
Probable space group: P N M A
;
_chemical_formula_sum "Si O2"
_cell_formula_units_Z 40
_cell_length_a 18.859267
_cell_length_b 18.851979
_cell_length_c 5.154138
_cell_angle_alpha 90.000000
_cell_angle_beta 90.000000
_cell_angle_gamma 90.000000
_cell_volume 1832.473905
_symmetry_space_group_name_H-M "P N M A"
_symmetry_group_IT_number 62
_symmetry_cell_setting 'orthorhombic'
loop_
_space_group_symop_operation_xyz
x,y,z
1/2-x,-y,1/2+z
1/2+x,1/2-y,1/2-z
-x,1/2+y,-z
-x,-y,-z
1/2+x,y,1/2-z
1/2-x,1/2+y,1/2+z
x,1/2-y,z
loop_
_atom_site_type_symbol
_atom_site_label
_atom_site_fract_x
_atom_site_fract_y
_atom_site_fract_z
Si Si1 0.876072 0.890803 0.711908
Si Si2 0.649143 0.669242 0.167671
Si Si3 0.466181 0.411412 0.101151
Si Si4 0.409178 0.038773 0.607921
Si Si5 0.689324 0.170423 0.704766
O O1 0.829702 0.879530 0.450982
O O2 0.958125 0.874970 0.645743
O O3 0.861547 0.970020 0.825770
O O4 0.858591 0.839491 0.950714
O O5 0.633704 0.750000 0.258281
O O6 0.635591 0.612304 0.397789
O O7 0.731270 0.659040 0.095920
O O8 0.595951 0.648730 0.929961
O O9 0.448533 0.465585 0.334773
O O10 0.467843 0.458584 0.839212
O O11 0.678320 0.250000 0.808869
#
# Coordination Sequence:
#
# PCOD8254602 Si02
#       5
#     8   8   8   8   8
#     4  12  23  42  69  96 134 163 220 273 327 389
#     4   9  24  43  64  90 131 174 217 260 321 389
#     4  10  22  41  65  99 124 171 213 270 320 386
#     4  10  22  40  70  94 128 166 219 265 331 375
#     4  11  26  43  62  93 134 176 212 269 329 385
#
# _framework density 21.828415
#
# number of rings (size 3 to 8) (size 9 to 14) (size 15 to 20)
#    1.200    0.400    0.000    4.200    2.800    4.000 
#    0.000    0.000    0.000    0.000    0.000    0.000 
#    0.000    0.000    0.000    0.000    0.000    0.000 
#
# Total GULP energy -495560.734250 kJ/mol
# GULP energy per Si atom -12389.018356 kJ/mol
# Density = 2.177873 g / cm^3
# Si number density = 21.828415 Si / 1000 Ang^3
#
#
#
# Elastic Constant Matrix: (Units=GPa)
#
#
# Indices 1 2 3 4 5 6 
#
# 1 107.1872 60.9743 46.5238 0.0000 0.0000 0.0000
# 2 60.9743 114.0276 44.8309 0.0000 0.0000 0.0000
# 3 46.5238 44.8309 117.5462 0.0000 0.0000 0.0000
# 4 0.0000 0.0000 0.0000 32.1970 0.0000 0.0000
# 5 0.0000 0.0000 0.0000 0.0000 24.5404 0.0000
# 6 0.0000 0.0000 0.0000 0.0000 0.0000 31.4487
#
#
#
# Elastic Compliance Matrix: (Units=1/GPa)
#
#
# Indices 1 2 3 4 5 6 
#
# 1 0.014390 -0.006418 -0.003248 0.000000 0.000000 0.000000
# 2 -0.006418 0.013179 -0.002486 0.000000 0.000000 0.000000
# 3 -0.003248 -0.002486 0.010741 0.000000 0.000000 0.000000
# 4 0.000000 0.000000 0.000000 0.031059 0.000000 0.000000
# 5 0.000000 0.000000 0.000000 0.000000 0.040749 0.000000
# 6 0.000000 0.000000 0.000000 0.000000 0.000000 0.031798
#
#
# Mechanical properties :
#
#
# Convention : Reuss Voigt Hill
#
# Bulk Modulus (GPa) = 71.39621 71.49101 71.44361
# Shear Modulus (GPa) = 29.25885 30.06601 29.66243
#
# Velocity S-wave (km/s) = 3.66512 3.71533 3.69031
# Velocity P-wave (km/s) = 7.11967 7.15733 7.13853
#
# Compressibility (1/GPa) = 0.01400635
#
# Stress axis : x y z
#
# Youngs Moduli (GPa) = 69.49264 75.87727 93.10173
#
# Poissons Ratio (x) = 0.48698 0.30237
# Poissons Ratio (y) = 0.44600 0.23147
# Poissons Ratio (z) = 0.22569 0.18865
#
# Static dielectric constant tensor:
#      x y z
#    x 3.932000 0.000000 0.000000 
#    y 0.000000 3.958250 0.000000 
#    z 0.000000 0.000000 3.741930 
# 
# 
# High freq. dielectric constant tensor:
#      x y z
#    x 1.854110 0.000000 0.000000 
#    y 0.000000 1.860510 0.000000 
#    z 0.000000 0.000000 1.857980 
# 
# From -- ./inp_files/2160.got.cif
#   From: 2010.03.12/outbox.cif.g09.slc.cpg/sg62_2_cif.got.tgz:2160.got - 2010.04.10 19:12:36.
