data_PCOD8254182
_publ_section_title
;
Structure prediction by ZEFSAII (Michael W. Deem and Ramdas Pophale) SiO2 
 PCOD8254182
Probable space group: P N M A
;
_chemical_formula_sum "Si O2"
_cell_formula_units_Z 64
_cell_length_a 17.496293
_cell_length_b 14.351890
_cell_length_c 11.575767
_cell_angle_alpha 90.000000
_cell_angle_beta 90.000000
_cell_angle_gamma 90.000000
_cell_volume 2906.731497
_symmetry_space_group_name_H-M "P N M A"
_symmetry_group_IT_number 62
_symmetry_cell_setting 'orthorhombic'
loop_
_space_group_symop_operation_xyz
x,y,z
1/2-x,-y,1/2+z
1/2+x,1/2-y,1/2-z
-x,1/2+y,-z
-x,-y,-z
1/2+x,y,1/2-z
1/2-x,1/2+y,1/2+z
x,1/2-y,z
loop_
_atom_site_type_symbol
_atom_site_label
_atom_site_fract_x
_atom_site_fract_y
_atom_site_fract_z
Si Si1 0.865301 0.353499 0.122404
Si Si2 0.783365 0.531446 0.621178
Si Si3 0.410138 0.145110 0.623428
Si Si4 0.493608 0.854631 0.755696
Si Si5 0.645042 0.450844 0.351073
Si Si6 0.060149 0.082082 0.492677
Si Si7 0.061314 0.143590 0.752697
Si Si8 0.304067 0.639333 0.412521
O O1 0.831600 0.250000 0.145956
O O2 0.796245 0.420771 0.085135
O O3 0.917875 0.386779 0.231491
O O4 0.924342 0.350178 0.014083
O O5 0.798725 0.575177 0.746655
O O6 0.853255 0.551602 0.534840
O O7 0.772590 0.418904 0.617671
O O8 0.384662 0.250000 0.666729
O O9 0.483317 0.105261 0.692333
O O10 0.347327 0.063611 0.640318
O O11 0.483627 0.750000 0.708300
O O12 0.440700 0.923808 0.683816
O O13 0.473424 0.852847 0.891644
O O14 0.669042 0.390969 0.460684
O O15 0.063598 0.132623 0.615382
O O16 0.000000 0.000000 0.500000
O O17 0.063603 0.250000 0.787517
O O18 0.134483 0.101398 0.818515
O O19 0.287293 0.750000 0.407642
#
# Coordination Sequence:
#
# PCOD8254182 Si02
#       8
#     8   8   8   8   8   8   8   8
#     4  10  22  41  68 100 130 167 219 282 344 399
#     4  11  26  42  65  98 133 177 230 281 348 404
#     4  10  21  39  65 100 130 168 222 278 337 403
#     4  10  22  41  66  96 130 172 223 278 337 403
#     4  11  23  40  66  94 131 180 223 282 337 418
#     4  11  25  43  65  94 133 184 231 276 336 413
#     4  10  22  40  66  97 134 177 224 275 337 411
#     4  11  25  42  65  98 136 177 225 286 349 405
#
# _framework density 22.017856999999999
#
# number of rings (size 3 to 8) (size 9 to 14) (size 15 to 20)
#    0.000    1.500    1.250    3.000    5.250    6.500 
#    0.000    5.000    0.000    0.000    0.000    0.000 
#    0.000    0.000    0.000    0.000    0.000    0.000 
#
# Total GULP energy -792967.741285 kJ/mol
# GULP energy per Si atom -12390.120958 kJ/mol
# Density = 2.196774 g / cm^3
# Si number density = 22.017857 Si / 1000 Ang^3
#
#
#
# Elastic Constant Matrix: (Units=GPa)
#
#
# Indices 1 2 3 4 5 6 
#
# 1 109.6649 36.7110 45.5721 0.0000 0.0000 0.0000
# 2 36.7110 95.0173 12.6454 0.0000 0.0000 0.0000
# 3 45.5721 12.6454 113.9005 0.0000 0.0000 0.0000
# 4 0.0000 0.0000 0.0000 30.3878 0.0000 0.0000
# 5 0.0000 0.0000 0.0000 0.0000 30.7687 0.0000
# 6 0.0000 0.0000 0.0000 0.0000 0.0000 20.8256
#
#
#
# Elastic Compliance Matrix: (Units=1/GPa)
#
#
# Indices 1 2 3 4 5 6 
#
# 1 0.012387 -0.004188 -0.004491 0.000000 0.000000 0.000000
# 2 -0.004188 0.012098 0.000333 0.000000 0.000000 0.000000
# 3 -0.004491 0.000333 0.010540 0.000000 0.000000 0.000000
# 4 0.000000 0.000000 0.000000 0.032908 0.000000 0.000000
# 5 0.000000 0.000000 0.000000 0.000000 0.032501 0.000000
# 6 0.000000 0.000000 0.000000 0.000000 0.000000 0.048018
#
#
# Mechanical properties :
#
#
# Convention : Reuss Voigt Hill
#
# Bulk Modulus (GPa) = 54.55123 56.49329 55.52226
# Shear Modulus (GPa) = 29.19620 31.30670 30.25145
#
# Velocity S-wave (km/s) = 3.64541 3.77487 3.71071
# Velocity P-wave (km/s) = 6.52291 6.68679 6.60536
#
# Compressibility (1/GPa) = 0.01833139
#
# Stress axis : x y z
#
# Youngs Moduli (GPa) = 80.72967 82.65640 94.88029
#
# Poissons Ratio (x) = 0.34618 0.42612
# Poissons Ratio (y) = 0.33811 -0.03155
# Poissons Ratio (z) = 0.36257 -0.02749
#
# Static dielectric constant tensor:
#      x y z
#    x 3.886890 0.000000 0.000000 
#    y 0.000000 4.042140 0.000000 
#    z 0.000000 0.000000 4.854500 
# 
# 
# High freq. dielectric constant tensor:
#      x y z
#    x 1.850190 0.000000 0.000000 
#    y 0.000000 1.877140 0.000000 
#    z 0.000000 0.000000 1.872490 
# 
# From -- ./inp_files/14314.got.cif
#   From: 2010.03.12/outbox.cif.g09.slc.cpg/sg62_8_cif.got.tgz:14314.got - 2010.04.10 19:12:36.
