data_PCOD8254714
_publ_section_title
;
Structure prediction by ZEFSAII (Michael W. Deem and Ramdas Pophale) SiO2 
 PCOD8254714
Probable space group: P N M A
;
_chemical_formula_sum "Si O2"
_cell_formula_units_Z 40
_cell_length_a 8.485458
_cell_length_b 9.993260
_cell_length_c 22.281783
_cell_angle_alpha 90.000000
_cell_angle_beta 90.000000
_cell_angle_gamma 90.000000
_cell_volume 1889.436999
_symmetry_space_group_name_H-M "P N M A"
_symmetry_group_IT_number 62
_symmetry_cell_setting 'orthorhombic'
loop_
_space_group_symop_operation_xyz
x,y,z
1/2-x,-y,1/2+z
1/2+x,1/2-y,1/2-z
-x,1/2+y,-z
-x,-y,-z
1/2+x,y,1/2-z
1/2-x,1/2+y,1/2+z
x,1/2-y,z
loop_
_atom_site_type_symbol
_atom_site_label
_atom_site_fract_x
_atom_site_fract_y
_atom_site_fract_z
Si Si1 0.309562 0.509323 0.618202
Si Si2 0.321994 0.527988 0.380623
Si Si3 0.649785 0.250000 0.299080
Si Si4 0.645632 0.900826 0.999863
Si Si5 0.212589 0.750000 0.829118
Si Si6 0.307308 0.250000 0.798162
Si Si7 0.171079 0.250000 0.670252
O O1 0.490728 0.467832 0.613901
O O2 0.277490 0.617420 0.670617
O O3 0.261587 0.572233 0.555141
O O4 0.202321 0.380507 0.630301
O O5 0.247604 0.586260 0.440385
O O6 0.254616 0.379129 0.370079
O O7 0.273540 0.617687 0.324134
O O8 0.464275 0.250000 0.306443
O O9 0.675481 0.250000 0.228281
O O10 0.579769 0.750000 0.996092
O O11 0.500000 0.000000 0.000000
O O12 0.287091 0.250000 0.726857
O O13 0.491556 0.250000 0.810308
#
# Coordination Sequence:
#
# PCOD8254714 Si02
#       7
#     8   8   4   8   4   4   4
#     4  11  24  45  69  98 132 180 222 278 334 397
#     4  11  24  45  69  97 134 175 228 273 336 398
#     4  10  22  43  64  99 132 169 219 265 329 388
#     4  12  27  46  69 100 136 174 224 279 336 402
#     4  10  24  39  68  97 130 171 215 269 325 394
#     4  12  24  45  64 103 136 179 223 277 333 402
#     4  12  26  41  70  99 138 177 225 275 337 400
#
# _framework density 21.170328000000001
#
# number of rings (size 3 to 8) (size 9 to 14) (size 15 to 20)
#    0.000    0.800    2.000    4.800    2.800    6.400 
#    0.000    0.000    0.000    0.000    0.000    0.000 
#    0.000    0.000    0.000    0.000    0.000    0.000 
#
# Total GULP energy -496331.850033 kJ/mol
# GULP energy per Si atom -12408.296251 kJ/mol
# Density = 2.112214 g / cm^3
# Si number density = 21.170328 Si / 1000 Ang^3
#
#
#
# Elastic Constant Matrix: (Units=GPa)
#
#
# Indices 1 2 3 4 5 6 
#
# 1 77.0017 35.7827 12.2613 0.0000 0.0000 0.0000
# 2 35.7827 160.8816 26.3007 0.0000 0.0000 0.0000
# 3 12.2613 26.3007 91.5001 0.0000 0.0000 0.0000
# 4 0.0000 0.0000 0.0000 45.9778 0.0000 0.0000
# 5 0.0000 0.0000 0.0000 0.0000 30.3705 0.0000
# 6 0.0000 0.0000 0.0000 0.0000 0.0000 31.7768
#
#
#
# Elastic Compliance Matrix: (Units=1/GPa)
#
#
# Indices 1 2 3 4 5 6 
#
# 1 0.014583 -0.003068 -0.001072 0.000000 0.000000 0.000000
# 2 -0.003068 0.007168 -0.001649 0.000000 0.000000 0.000000
# 3 -0.001072 -0.001649 0.011547 0.000000 0.000000 0.000000
# 4 0.000000 0.000000 0.000000 0.021750 0.000000 0.000000
# 5 0.000000 0.000000 0.000000 0.000000 0.032927 0.000000
# 6 0.000000 0.000000 0.000000 0.000000 0.000000 0.031470
#
#
# Mechanical properties :
#
#
# Convention : Reuss Voigt Hill
#
# Bulk Modulus (GPa) = 46.04394 53.11918 49.58156
# Shear Modulus (GPa) = 36.16313 38.62760 37.39536
#
# Velocity S-wave (km/s) = 4.13752 4.27618 4.20742
# Velocity P-wave (km/s) = 6.67996 7.03752 6.86107
#
# Compressibility (1/GPa) = 0.02171839
#
# Stress axis : x y z
#
# Youngs Moduli (GPa) = 68.57162 139.51316 86.60510
#
# Poissons Ratio (x) = 0.42806 0.09286
# Poissons Ratio (y) = 0.21040 0.14282
# Poissons Ratio (z) = 0.07353 0.23008
#
# Static dielectric constant tensor:
#      x y z
#    x 3.762190 0.000000 0.000000 
#    y 0.000000 4.193020 0.000000 
#    z 0.000000 0.000000 4.070540 
# 
# 
# High freq. dielectric constant tensor:
#      x y z
#    x 1.834580 0.000000 0.000000 
#    y 0.000000 1.852000 0.000000 
#    z 0.000000 0.000000 1.839850 
# 
# From -- ./inp_files/28664.got.cif
#   From: 2010.03.12/outbox.cif.g09.slc.cpg/sg62_15_cif.got.tgz:28664.got - 2010.04.10 19:12:36.
