data_PCOD8254965
_publ_section_title
;
Structure prediction by ZEFSAII (Michael W. Deem and Ramdas Pophale) SiO2 
 PCOD8254965
Probable space group: P N M A
;
_chemical_formula_sum "Si O2"
_cell_formula_units_Z 48
_cell_length_a 18.265080
_cell_length_b 8.909501
_cell_length_c 16.684632
_cell_angle_alpha 90.000000
_cell_angle_beta 90.000000
_cell_angle_gamma 90.000000
_cell_volume 2715.136023
_symmetry_space_group_name_H-M "P N M A"
_symmetry_group_IT_number 62
_symmetry_cell_setting 'orthorhombic'
loop_
_space_group_symop_operation_xyz
x,y,z
1/2-x,-y,1/2+z
1/2+x,1/2-y,1/2-z
-x,1/2+y,-z
-x,-y,-z
1/2+x,y,1/2-z
1/2-x,1/2+y,1/2+z
x,1/2-y,z
loop_
_atom_site_type_symbol
_atom_site_label
_atom_site_fract_x
_atom_site_fract_y
_atom_site_fract_z
Si Si1 0.478091 0.928569 0.583278
Si Si2 0.832537 0.927431 0.832610
Si Si3 0.404963 0.573773 0.829419
Si Si4 0.328159 0.428839 0.141558
Si Si5 0.578950 0.927493 0.009516
Si Si6 0.050528 0.572426 0.757704
O O1 0.479798 0.750000 0.575440
O O2 0.396909 0.986040 0.608654
O O3 0.535407 0.985736 0.651791
O O4 0.500000 0.000000 0.500000
O O5 0.831006 0.750000 0.840318
O O6 0.848351 0.970828 0.740518
O O7 0.753883 0.997133 0.856707
O O8 0.402134 0.750000 0.849058
O O9 0.383422 0.480614 0.908121
O O10 0.485839 0.522896 0.802079
O O11 0.324848 0.250000 0.143585
O O12 0.373119 0.486761 0.220172
O O13 0.368333 0.484491 0.061513
O O14 0.569975 0.750000 0.007323
O O15 0.500000 0.000000 0.000000
O O16 0.049418 0.750000 0.761592
#
# Coordination Sequence:
#
# PCOD8254965 Si02
#       6
#     8   8   8   8   8   8
#     4   9  17  31  51  72  94 123 163 202 235 281
#     4   8  16  31  51  70  93 130 168 199 237 291
#     4   9  16  31  51  72  94 122 162 201 238 287
#     4   9  16  29  49  72  96 126 164 201 237 286
#     4  11  20  30  50  76 102 130 163 201 244 294
#     4   8  14  27  48  68  90 122 158 193 232 285
#
# _framework density 17.678673
#
# number of rings (size 3 to 8) (size 9 to 14) (size 15 to 20)
#    0.000    3.000    1.667    2.500    0.000    0.000 
#    3.000    3.333    0.000    3.000    0.000    0.000 
#    0.000    0.000    0.000    0.000    0.000    0.000 
#
# Total GULP energy -594838.890227 kJ/mol
# GULP energy per Si atom -12392.476880 kJ/mol
# Density = 1.763844 g / cm^3
# Si number density = 17.678673 Si / 1000 Ang^3
#
#
#
# Elastic Constant Matrix: (Units=GPa)
#
#
# Indices 1 2 3 4 5 6 
#
# 1 144.9360 19.7903 89.1715 0.0000 0.0000 0.0000
# 2 19.7903 26.3428 27.9943 0.0000 0.0000 0.0000
# 3 89.1715 27.9943 169.3825 0.0000 0.0000 0.0000
# 4 0.0000 0.0000 0.0000 30.9620 0.0000 0.0000
# 5 0.0000 0.0000 0.0000 0.0000 26.5008 0.0000
# 6 0.0000 0.0000 0.0000 0.0000 0.0000 12.8642
#
#
#
# Elastic Compliance Matrix: (Units=1/GPa)
#
#
# Indices 1 2 3 4 5 6 
#
# 1 0.010329 -0.002403 -0.005040 0.000000 0.000000 0.000000
# 2 -0.002403 0.046608 -0.006438 0.000000 0.000000 0.000000
# 3 -0.005040 -0.006438 0.009621 0.000000 0.000000 0.000000
# 4 0.000000 0.000000 0.000000 0.032298 0.000000 0.000000
# 5 0.000000 0.000000 0.000000 0.000000 0.037735 0.000000
# 6 0.000000 0.000000 0.000000 0.000000 0.000000 0.077735
#
#
# Mechanical properties :
#
#
# Convention : Reuss Voigt Hill
#
# Bulk Modulus (GPa) = 25.77640 68.28596 47.03118
# Shear Modulus (GPa) = 19.60629 27.64576 23.62602
#
# Velocity S-wave (km/s) = 3.33383 3.95877 3.65967
# Velocity P-wave (km/s) = 5.42507 7.72048 6.67223
#
# Compressibility (1/GPa) = 0.03879517
#
# Stress axis : x y z
#
# Youngs Moduli (GPa) = 96.81600 21.45553 103.93545
#
# Poissons Ratio (x) = 0.05156 0.52388
# Poissons Ratio (y) = 0.23267 0.66912
# Poissons Ratio (z) = 0.48800 0.13813
#
# Static dielectric constant tensor:
#      x y z
#    x 3.701860 0.000000 0.000000 
#    y 0.000000 2.799570 0.000000 
#    z 0.000000 0.000000 3.555350 
# 
# 
# High freq. dielectric constant tensor:
#      x y z
#    x 1.677690 0.000000 0.000000 
#    y 0.000000 1.631490 0.000000 
#    z 0.000000 0.000000 1.694100 
# 
# From -- ./inp_files/20027.got.cif
#   From: 2010.03.12/outbox.cif.g09.slc.cpg/sg62_11_cif.got.tgz:20027.got - 2010.04.10 19:12:36.
