data_PCOD8254187
_publ_section_title
;
Structure prediction by ZEFSAII (Michael W. Deem and Ramdas Pophale) SiO2 
 PCOD8254187
Probable space group: P N M A
;
_chemical_formula_sum "Si O2"
_cell_formula_units_Z 48
_cell_length_a 11.628025
_cell_length_b 18.422578
_cell_length_c 11.483992
_cell_angle_alpha 90.000000
_cell_angle_beta 90.000000
_cell_angle_gamma 90.000000
_cell_volume 2460.080067
_symmetry_space_group_name_H-M "P N M A"
_symmetry_group_IT_number 62
_symmetry_cell_setting 'orthorhombic'
loop_
_space_group_symop_operation_xyz
x,y,z
1/2-x,-y,1/2+z
1/2+x,1/2-y,1/2-z
-x,1/2+y,-z
-x,-y,-z
1/2+x,y,1/2-z
1/2-x,1/2+y,1/2+z
x,1/2-y,z
loop_
_atom_site_type_symbol
_atom_site_label
_atom_site_fract_x
_atom_site_fract_y
_atom_site_fract_z
Si Si1 0.390389 0.081698 0.075411
Si Si2 0.873006 0.923397 0.916502
Si Si3 0.578042 0.166812 0.190982
Si Si4 0.031769 0.067079 0.649245
Si Si5 0.214469 0.333486 0.533485
Si Si6 0.061891 0.911859 0.101009
O O1 0.257319 0.101747 0.065366
O O2 0.458073 0.151610 0.124254
O O3 0.412856 0.013240 0.161650
O O4 0.431404 0.062290 0.945980
O O5 0.916249 0.888283 0.797382
O O6 0.880691 0.009915 0.915099
O O7 0.950002 0.896174 0.023196
O O8 0.579047 0.250000 0.234029
O O9 0.683648 0.150720 0.102245
O O10 0.132766 0.121652 0.617673
O O11 0.974678 0.096945 0.766039
O O12 0.192629 0.250000 0.562036
O O13 0.345893 0.352600 0.560167
#
# Coordination Sequence:
#
# PCOD8254187 Si02
#       6
#     8   8   8   8   8   8
#     4  10  21  39  65  93 122 163 213 257 310 375
#     4  11  24  37  62  98 127 161 210 259 312 372
#     4  10  23  43  65  92 127 166 210 263 321 371
#     4  10  21  40  66  91 122 164 210 258 309 380
#     4  10  23  43  65  90 126 168 206 259 321 375
#     4  11  24  38  63  97 127 161 210 260 313 375
#
# _framework density 19.511559999999999
#
# number of rings (size 3 to 8) (size 9 to 14) (size 15 to 20)
#    0.000    1.667    3.333    0.000    4.667    2.000 
#    0.000    0.000    0.000    0.000    0.000    0.000 
#    0.000    0.000    0.000    0.000    0.000    0.000 
#
# Total GULP energy -595329.509609 kJ/mol
# GULP energy per Si atom -12402.698117 kJ/mol
# Density = 1.946715 g / cm^3
# Si number density = 19.511560 Si / 1000 Ang^3
#
#
#
# Elastic Constant Matrix: (Units=GPa)
#
#
# Indices 1 2 3 4 5 6 
#
# 1 124.6582 21.6782 43.8447 0.0000 0.0000 0.0000
# 2 21.6782 62.5810 23.4134 0.0000 0.0000 0.0000
# 3 43.8447 23.4134 102.3580 0.0000 0.0000 0.0000
# 4 0.0000 0.0000 0.0000 12.4148 0.0000 0.0000
# 5 0.0000 0.0000 0.0000 0.0000 25.1182 0.0000
# 6 0.0000 0.0000 0.0000 0.0000 0.0000 27.8021
#
#
#
# Elastic Compliance Matrix: (Units=1/GPa)
#
#
# Indices 1 2 3 4 5 6 
#
# 1 0.009661 -0.001967 -0.003689 0.000000 0.000000 0.000000
# 2 -0.001967 0.017875 -0.003246 0.000000 0.000000 0.000000
# 3 -0.003689 -0.003246 0.012092 0.000000 0.000000 0.000000
# 4 0.000000 0.000000 0.000000 0.080549 0.000000 0.000000
# 5 0.000000 0.000000 0.000000 0.000000 0.039812 0.000000
# 6 0.000000 0.000000 0.000000 0.000000 0.000000 0.035968
#
#
# Mechanical properties :
#
#
# Convention : Reuss Voigt Hill
#
# Bulk Modulus (GPa) = 45.81806 51.94110 48.87958
# Shear Modulus (GPa) = 22.62078 26.44443 24.53260
#
# Velocity S-wave (km/s) = 3.40862 3.68546 3.54974
# Velocity P-wave (km/s) = 6.24701 6.69243 6.47355
#
# Compressibility (1/GPa) = 0.02182546
#
# Stress axis : x y z
#
# Youngs Moduli (GPa) = 103.50608 55.94369 82.69819
#
# Poissons Ratio (x) = 0.11002 0.30503
# Poissons Ratio (y) = 0.20357 0.26847
# Poissons Ratio (z) = 0.38178 0.18161
#
# Static dielectric constant tensor:
#      x y z
#    x 3.559030 0.000000 0.000000 
#    y 0.000000 3.477200 0.000000 
#    z 0.000000 0.000000 3.510060 
# 
# 
# High freq. dielectric constant tensor:
#      x y z
#    x 1.765240 0.000000 0.000000 
#    y 0.000000 1.753370 0.000000 
#    z 0.000000 0.000000 1.758330 
# 
# From -- ./inp_files/12254.got.cif
#   From: 2010.03.12/outbox.cif.g09.slc.cpg/sg62_7_cif.got.tgz:12254.got - 2010.04.10 19:12:36.
