data_PCOD8254029
_publ_section_title
;
Structure prediction by ZEFSAII (Michael W. Deem and Ramdas Pophale) SiO2 
 PCOD8254029
Probable space group: P N M A
;
_chemical_formula_sum "Si O2"
_cell_formula_units_Z 64
_cell_length_a 18.184399
_cell_length_b 8.454788
_cell_length_c 20.271359
_cell_angle_alpha 90.000000
_cell_angle_beta 90.000000
_cell_angle_gamma 90.000000
_cell_volume 3116.624923
_symmetry_space_group_name_H-M "P N M A"
_symmetry_group_IT_number 62
_symmetry_cell_setting 'orthorhombic'
loop_
_space_group_symop_operation_xyz
x,y,z
1/2-x,-y,1/2+z
1/2+x,1/2-y,1/2-z
-x,1/2+y,-z
-x,-y,-z
1/2+x,y,1/2-z
1/2-x,1/2+y,1/2+z
x,1/2-y,z
loop_
_atom_site_type_symbol
_atom_site_label
_atom_site_fract_x
_atom_site_fract_y
_atom_site_fract_z
Si Si1 0.956498 0.433205 0.812026
Si Si2 0.962149 0.567393 0.673385
Si Si3 0.792160 0.932465 0.668985
Si Si4 0.290072 0.433861 0.069947
Si Si5 0.461807 0.433522 0.435524
Si Si6 0.210357 0.932439 0.192519
Si Si7 0.949149 0.566024 0.442843
Si Si8 0.303846 0.932921 0.443693
O O1 0.964584 0.250000 0.794133
O O2 0.982994 0.533449 0.749080
O O3 0.872353 0.476053 0.830380
O O4 0.008091 0.473738 0.872773
O O5 0.977477 0.750000 0.657287
O O6 0.877503 0.522031 0.660475
O O7 0.012689 0.459443 0.627545
O O8 0.777734 0.750000 0.652111
O O9 0.766881 0.965664 0.743788
O O10 0.746247 0.041783 0.620199
O O11 0.280677 0.250000 0.085498
O O12 0.266027 0.531539 0.133779
O O13 0.373594 0.471490 0.052861
O O14 0.240601 0.485674 0.008274
O O15 0.500000 0.500000 0.500000
O O16 0.480632 0.250000 0.428050
O O17 0.374919 0.457255 0.439900
O O18 0.216490 0.750000 0.212328
O O19 0.933591 0.750000 0.454191
O O20 0.000000 0.500000 0.500000
O O21 0.327398 0.750000 0.447207
#
# Coordination Sequence:
#
# PCOD8254029 Si02
#       8
#     8   8   8   8   8   8   8   8
#     4  10  21  39  63  91 123 158 198 243 294 352
#     4  10  21  39  63  91 123 158 198 243 294 352
#     4  10  21  38  62  90 121 157 196 241 292 349
#     4  11  24  41  62  88 119 155 197 245 296 352
#     4  12  25  41  62  88 120 157 199 246 297 353
#     4  10  21  38  62  90 121 157 196 241 292 349
#     4  12  25  41  62  88 120 157 199 246 297 353
#     4  11  24  41  62  88 119 155 197 245 296 352
#
# _framework density 20.535034
#
# number of rings (size 3 to 8) (size 9 to 14) (size 15 to 20)
#    0.000    1.250    0.000    6.000    0.000   10.000 
#    0.000    5.000    0.000    0.000    0.000    0.000 
#    0.000    0.000    0.000    0.000    0.000    0.000 
#
# Total GULP energy -794127.187901 kJ/mol
# GULP energy per Si atom -12408.237311 kJ/mol
# Density = 2.048830 g / cm^3
# Si number density = 20.535034 Si / 1000 Ang^3
#
#
#
# Elastic Constant Matrix: (Units=GPa)
#
#
# Indices 1 2 3 4 5 6 
#
# 1 50.3429 23.9287 19.9044 0.0000 0.0000 0.0000
# 2 23.9287 58.0202 21.8742 0.0000 0.0000 0.0000
# 3 19.9044 21.8742 88.6436 0.0000 0.0000 0.0000
# 4 0.0000 0.0000 0.0000 37.5328 0.0000 0.0000
# 5 0.0000 0.0000 0.0000 0.0000 42.0189 0.0000
# 6 0.0000 0.0000 0.0000 0.0000 0.0000 32.3590
#
#
#
# Elastic Compliance Matrix: (Units=1/GPa)
#
#
# Indices 1 2 3 4 5 6 
#
# 1 0.025640 -0.009266 -0.003471 0.000000 0.000000 0.000000
# 2 -0.009266 0.022352 -0.003435 0.000000 0.000000 0.000000
# 3 -0.003471 -0.003435 0.012908 0.000000 0.000000 0.000000
# 4 0.000000 0.000000 0.000000 0.026643 0.000000 0.000000
# 5 0.000000 0.000000 0.000000 0.000000 0.023799 0.000000
# 6 0.000000 0.000000 0.000000 0.000000 0.000000 0.030903
#
#
# Mechanical properties :
#
#
# Convention : Reuss Voigt Hill
#
# Bulk Modulus (GPa) = 35.01826 36.49124 35.75475
# Shear Modulus (GPa) = 27.15788 31.13544 29.14666
#
# Velocity S-wave (km/s) = 3.64058 3.89808 3.77153
# Velocity P-wave (km/s) = 5.89591 6.17000 6.03451
#
# Compressibility (1/GPa) = 0.02855653
#
# Stress axis : x y z
#
# Youngs Moduli (GPa) = 39.00105 44.73882 77.47054
#
# Poissons Ratio (x) = 0.41455 0.26889
# Poissons Ratio (y) = 0.36139 0.26612
# Poissons Ratio (z) = 0.13537 0.15368
#
# Static dielectric constant tensor:
#      x y z
#    x 3.648720 0.000000 0.000000 
#    y 0.000000 3.800270 0.000000 
#    z 0.000000 0.000000 3.729590 
# 
# 
# High freq. dielectric constant tensor:
#      x y z
#    x 1.802940 0.000000 0.000000 
#    y 0.000000 1.814120 0.000000 
#    z 0.000000 0.000000 1.815130 
# 
# From -- ./inp_files/27678.got.cif
#   From: 2010.03.12/outbox.cif.g09.slc.cpg/sg62_14_cif.got.tgz:27678.got - 2010.04.10 19:12:36.
