data_PCOD8254245
_publ_section_title
;
Structure prediction by ZEFSAII (Michael W. Deem and Ramdas Pophale) SiO2 
 PCOD8254245
Probable space group: P N M A
;
_chemical_formula_sum "Si O2"
_cell_formula_units_Z 48
_cell_length_a 16.952480
_cell_length_b 8.496170
_cell_length_c 16.833888
_cell_angle_alpha 90.000000
_cell_angle_beta 90.000000
_cell_angle_gamma 90.000000
_cell_volume 2424.604281
_symmetry_space_group_name_H-M "P N M A"
_symmetry_group_IT_number 62
_symmetry_cell_setting 'orthorhombic'
loop_
_space_group_symop_operation_xyz
x,y,z
1/2-x,-y,1/2+z
1/2+x,1/2-y,1/2-z
-x,1/2+y,-z
-x,-y,-z
1/2+x,y,1/2-z
1/2-x,1/2+y,1/2+z
x,1/2-y,z
loop_
_atom_site_type_symbol
_atom_site_label
_atom_site_fract_x
_atom_site_fract_y
_atom_site_fract_z
Si Si1 0.412495 0.564441 0.004876
Si Si2 0.999906 0.064272 0.912243
Si Si3 0.187447 0.933593 0.647930
Si Si4 0.149358 0.565038 0.186504
Si Si5 0.687982 0.433547 0.147909
Si Si6 0.149457 0.065314 0.813756
O O1 0.413187 0.750000 0.018889
O O2 0.369565 0.481041 0.077336
O O3 0.500000 0.500000 0.000000
O O4 0.368199 0.517437 0.924105
O O5 0.999451 0.250000 0.916213
O O6 0.077435 0.003238 0.866909
O O7 0.922669 0.002447 0.866551
O O8 0.000000 0.000000 0.000000
O O9 0.206307 0.750000 0.644346
O O10 0.269634 0.027371 0.640532
O O11 0.145079 0.973820 0.730685
O O12 0.143734 0.750000 0.202830
O O13 0.144290 0.475927 0.270321
O O14 0.708264 0.250000 0.146576
O O15 0.769529 0.528965 0.139984
O O16 0.143370 0.250000 0.796227
#
# Coordination Sequence:
#
# PCOD8254245 Si02
#       6
#     8   8   8   8   8   8
#     4  11  25  42  62  91 125 158 201 251 301 359
#     4  10  24  40  60  91 122 157 200 247 299 353
#     4  11  23  40  63  91 120 160 204 247 302 358
#     4  10  21  40  63  89 121 160 200 247 302 355
#     4  10  22  40  62  90 119 156 200 246 299 357
#     4  10  21  40  63  90 121 159 201 246 301 358
#
# _framework density 19.797046000000002
#
# number of rings (size 3 to 8) (size 9 to 14) (size 15 to 20)
#    0.000    1.667    0.000    5.500    4.667    5.333 
#    0.000    0.000    0.000    0.000    0.000    0.000 
#    0.000    0.000    0.000    0.000    0.000    0.000 
#
# Total GULP energy -595430.382160 kJ/mol
# GULP energy per Si atom -12404.799628 kJ/mol
# Density = 1.975199 g / cm^3
# Si number density = 19.797046 Si / 1000 Ang^3
#
#
#
# Elastic Constant Matrix: (Units=GPa)
#
#
# Indices 1 2 3 4 5 6 
#
# 1 150.1778 18.3378 99.6878 0.0000 0.0000 0.0000
# 2 18.3378 51.1709 23.5655 0.0000 0.0000 0.0000
# 3 99.6878 23.5655 136.6652 0.0000 0.0000 0.0000
# 4 0.0000 0.0000 0.0000 36.2972 0.0000 0.0000
# 5 0.0000 0.0000 0.0000 0.0000 37.9052 0.0000
# 6 0.0000 0.0000 0.0000 0.0000 0.0000 28.1796
#
#
#
# Elastic Compliance Matrix: (Units=1/GPa)
#
#
# Indices 1 2 3 4 5 6 
#
# 1 0.012914 -0.000315 -0.009366 0.000000 0.000000 0.000000
# 2 -0.000315 0.021236 -0.003432 0.000000 0.000000 0.000000
# 3 -0.009366 -0.003432 0.014741 0.000000 0.000000 0.000000
# 4 0.000000 0.000000 0.000000 0.027550 0.000000 0.000000
# 5 0.000000 0.000000 0.000000 0.000000 0.026382 0.000000
# 6 0.000000 0.000000 0.000000 0.000000 0.000000 0.035487
#
#
# Mechanical properties :
#
#
# Convention : Reuss Voigt Hill
#
# Bulk Modulus (GPa) = 44.12035 69.02178 56.57107
# Shear Modulus (GPa) = 29.05468 33.57126 31.31297
#
# Velocity S-wave (km/s) = 3.83512 4.12244 3.98137
# Velocity P-wave (km/s) = 6.47654 7.58945 7.05497
#
# Compressibility (1/GPa) = 0.02266528
#
# Stress axis : x y z
#
# Youngs Moduli (GPa) = 77.43450 47.09040 67.83999
#
# Poissons Ratio (x) = 0.01483 0.63537
# Poissons Ratio (y) = 0.02438 0.23283
# Poissons Ratio (z) = 0.72523 0.16162
#
# Static dielectric constant tensor:
#      x y z
#    x 3.829960 0.000000 0.000000 
#    y 0.000000 3.703520 0.000000 
#    z 0.000000 0.000000 3.572640 
# 
# 
# High freq. dielectric constant tensor:
#      x y z
#    x 1.782410 0.000000 0.000000 
#    y 0.000000 1.779770 0.000000 
#    z 0.000000 0.000000 1.779190 
# 
# From -- ./inp_files/19623.got.cif
#   From: 2010.03.12/outbox.cif.g09.slc.cpg/sg62_10_cif.got.tgz:19623.got - 2010.04.10 19:12:36.
