data_PCOD8254250
_publ_section_title
;
Structure prediction by ZEFSAII (Michael W. Deem and Ramdas Pophale) SiO2 
 PCOD8254250
Probable space group: P N M A
;
_chemical_formula_sum "Si O2"
_cell_formula_units_Z 56
_cell_length_a 21.978830
_cell_length_b 8.603283
_cell_length_c 14.547566
_cell_angle_alpha 90.000000
_cell_angle_beta 90.000000
_cell_angle_gamma 90.000000
_cell_volume 2750.800630
_symmetry_space_group_name_H-M "P N M A"
_symmetry_group_IT_number 62
_symmetry_cell_setting 'orthorhombic'
loop_
_space_group_symop_operation_xyz
x,y,z
1/2-x,-y,1/2+z
1/2+x,1/2-y,1/2-z
-x,1/2+y,-z
-x,-y,-z
1/2+x,y,1/2-z
1/2-x,1/2+y,1/2+z
x,1/2-y,z
loop_
_atom_site_type_symbol
_atom_site_label
_atom_site_fract_x
_atom_site_fract_y
_atom_site_fract_z
Si Si1 0.723227 0.568440 0.175696
Si Si2 0.046757 0.064801 0.926714
Si Si3 0.095744 0.070487 0.369835
Si Si4 0.180147 0.431069 0.968621
Si Si5 0.881949 0.567363 0.422729
Si Si6 0.480339 0.567272 0.222743
Si Si7 0.758752 0.070173 0.361413
O O1 0.709991 0.750000 0.159446
O O2 0.661573 0.472681 0.168298
O O3 0.770719 0.498066 0.102039
O O4 0.752696 0.542480 0.275047
O O5 0.045109 0.250000 0.930361
O O6 0.113374 0.997292 0.952667
O O7 0.029965 0.000877 0.825268
O O8 0.000000 0.000000 0.000000
O O9 0.083729 0.250000 0.350425
O O10 0.089572 0.031462 0.477628
O O11 0.046710 0.974943 0.312805
O O12 0.176723 0.250000 0.946323
O O13 0.201465 0.463531 0.072317
O O14 0.868073 0.750000 0.411086
O O15 0.820195 0.470349 0.415418
O O16 0.928755 0.502695 0.346355
O O17 0.474128 0.750000 0.225222
O O18 0.759889 0.250000 0.331362
#
# Coordination Sequence:
#
# PCOD8254250 Si02
#       7
#     8   8   8   8   8   8   8
#     4  11  22  40  63  88 121 164 205 247 307 370
#     4  10  22  41  62  86 117 157 205 248 296 356
#     4  11  23  38  60  92 125 156 200 258 309 361
#     4   9  20  40  63  85 118 160 196 242 303 360
#     4  10  21  40  63  90 123 161 202 250 307 369
#     4  10  22  40  62  86 119 165 208 247 302 370
#     4  11  22  37  61  93 123 157 200 250 305 362
#
# _framework density 20.357710999999998
#
# number of rings (size 3 to 8) (size 9 to 14) (size 15 to 20)
#    0.000    1.714    1.429    2.571    2.000    4.000 
#    0.000    3.571    0.000    0.000    0.000    0.000 
#    0.000    0.000    0.000    0.000    0.000    0.000 
#
# Total GULP energy -694617.746330 kJ/mol
# GULP energy per Si atom -12403.888327 kJ/mol
# Density = 2.031138 g / cm^3
# Si number density = 20.357711 Si / 1000 Ang^3
#
#
#
# Elastic Constant Matrix: (Units=GPa)
#
#
# Indices 1 2 3 4 5 6 
#
# 1 132.9661 7.1586 41.4081 0.0000 0.0000 0.0000
# 2 7.1586 17.5759 21.2691 0.0000 0.0000 0.0000
# 3 41.4081 21.2691 102.5960 0.0000 0.0000 0.0000
# 4 0.0000 0.0000 0.0000 30.0538 0.0000 0.0000
# 5 0.0000 0.0000 0.0000 0.0000 38.2982 0.0000
# 6 0.0000 0.0000 0.0000 0.0000 0.0000 27.1103
#
#
#
# Elastic Compliance Matrix: (Units=1/GPa)
#
#
# Indices 1 2 3 4 5 6 
#
# 1 0.008613 0.000933 -0.003670 0.000000 0.000000 0.000000
# 2 0.000933 0.076051 -0.016142 0.000000 0.000000 0.000000
# 3 -0.003670 -0.016142 0.014575 0.000000 0.000000 0.000000
# 4 0.000000 0.000000 0.000000 0.033274 0.000000 0.000000
# 5 0.000000 0.000000 0.000000 0.000000 0.026111 0.000000
# 6 0.000000 0.000000 0.000000 0.000000 0.000000 0.036886
#
#
# Mechanical properties :
#
#
# Convention : Reuss Voigt Hill
#
# Bulk Modulus (GPa) = 16.26557 43.64550 29.95554
# Shear Modulus (GPa) = 19.70353 31.31259 25.50806
#
# Velocity S-wave (km/s) = 3.11443 3.92614 3.54360
# Velocity P-wave (km/s) = 4.57604 6.48372 5.61154
#
# Compressibility (1/GPa) = 0.06147956
#
# Stress axis : x y z
#
# Youngs Moduli (GPa) = 116.09925 13.14912 68.61278
#
# Poissons Ratio (x) = -0.01226 0.25179
# Poissons Ratio (y) = -0.10828 1.10758
# Poissons Ratio (z) = 0.42605 0.21226
#
# Static dielectric constant tensor:
#      x y z
#    x 3.800870 0.000000 0.000000 
#    y 0.000000 3.414900 0.000000 
#    z 0.000000 0.000000 3.898920 
# 
# 
# High freq. dielectric constant tensor:
#      x y z
#    x 1.806360 0.000000 0.000000 
#    y 0.000000 1.773140 0.000000 
#    z 0.000000 0.000000 1.809800 
# 
# From -- ./inp_files/20390.got.cif
#   From: 2010.03.12/outbox.cif.g09.slc.cpg/sg62_11_cif.got.tgz:20390.got - 2010.04.10 19:12:36.
