data_PCOD8254611
_publ_section_title
;
Structure prediction by ZEFSAII (Michael W. Deem and Ramdas Pophale) SiO2 
 PCOD8254611
Probable space group: P N M A
;
_chemical_formula_sum "Si O2"
_cell_formula_units_Z 48
_cell_length_a 18.456277
_cell_length_b 8.349597
_cell_length_c 14.948473
_cell_angle_alpha 90.000000
_cell_angle_beta 90.000000
_cell_angle_gamma 90.000000
_cell_volume 2303.596688
_symmetry_space_group_name_H-M "P N M A"
_symmetry_group_IT_number 62
_symmetry_cell_setting 'orthorhombic'
loop_
_space_group_symop_operation_xyz
x,y,z
1/2-x,-y,1/2+z
1/2+x,1/2-y,1/2-z
-x,1/2+y,-z
-x,-y,-z
1/2+x,y,1/2-z
1/2-x,1/2+y,1/2+z
x,1/2-y,z
loop_
_atom_site_type_symbol
_atom_site_label
_atom_site_fract_x
_atom_site_fract_y
_atom_site_fract_z
Si Si1 0.522468 0.435563 0.904107
Si Si2 0.918143 0.564160 0.739797
Si Si3 0.219020 0.059870 0.995040
Si Si4 0.235122 0.563609 0.301451
Si Si5 0.934663 0.939096 0.940552
Si Si6 0.325748 0.063516 0.149069
O O1 0.542733 0.250000 0.911415
O O2 0.456575 0.457807 0.835326
O O3 0.590195 0.535514 0.868834
O O4 0.500000 0.500000 0.000000
O O5 0.935628 0.750000 0.723169
O O6 0.832256 0.537389 0.735243
O O7 0.945775 0.508077 0.837576
O O8 0.215154 0.250000 0.993601
O O9 0.242230 0.995334 0.898151
O O10 0.140677 0.988046 0.021920
O O11 0.279087 0.000277 0.065220
O O12 0.214512 0.750000 0.306208
O O13 0.302971 0.536258 0.236171
O O14 0.930809 0.750000 0.946234
O O15 0.000000 0.000000 0.000000
O O16 0.311651 0.250000 0.166656
#
# Coordination Sequence:
#
# PCOD8254611 Si02
#       6
#     8   8   8   8   8   8
#     4  12  26  44  66  96 130 167 212 265 322 387
#     4  11  23  43  67  93 128 171 215 261 323 387
#     4   9  20  40  63  87 123 164 204 258 317 369
#     4  11  22  38  64  96 126 165 214 265 321 378
#     4  10  22  41  62  89 123 167 212 260 316 376
#     4  11  22  42  66  92 128 169 211 262 320 382
#
# _framework density 20.836981999999999
#
# number of rings (size 3 to 8) (size 9 to 14) (size 15 to 20)
#    0.000    1.333    1.667    4.000    2.333    2.667 
#    0.000    3.333    0.000    0.000    0.000    0.000 
#    0.000    0.000    0.000    0.000    0.000    0.000 
#
# Total GULP energy -595493.199275 kJ/mol
# GULP energy per Si atom -12406.108318 kJ/mol
# Density = 2.078956 g / cm^3
# Si number density = 20.836982 Si / 1000 Ang^3
#
#
#
# Elastic Constant Matrix: (Units=GPa)
#
#
# Indices 1 2 3 4 5 6 
#
# 1 99.9133 11.3279 36.6997 0.0000 0.0000 0.0000
# 2 11.3279 46.7880 33.5052 0.0000 0.0000 0.0000
# 3 36.6997 33.5052 156.6736 0.0000 0.0000 0.0000
# 4 0.0000 0.0000 0.0000 28.1552 0.0000 0.0000
# 5 0.0000 0.0000 0.0000 0.0000 45.0507 0.0000
# 6 0.0000 0.0000 0.0000 0.0000 0.0000 34.4007
#
#
#
# Elastic Compliance Matrix: (Units=1/GPa)
#
#
# Indices 1 2 3 4 5 6 
#
# 1 0.010988 -0.000965 -0.002367 0.000000 0.000000 0.000000
# 2 -0.000965 0.025323 -0.005189 0.000000 0.000000 0.000000
# 3 -0.002367 -0.005189 0.008047 0.000000 0.000000 0.000000
# 4 0.000000 0.000000 0.000000 0.035517 0.000000 0.000000
# 5 0.000000 0.000000 0.000000 0.000000 0.022197 0.000000
# 6 0.000000 0.000000 0.000000 0.000000 0.000000 0.029069
#
#
# Mechanical properties :
#
#
# Convention : Reuss Voigt Hill
#
# Bulk Modulus (GPa) = 36.61118 51.82672 44.21895
# Shear Modulus (GPa) = 31.78855 36.31077 34.04966
#
# Velocity S-wave (km/s) = 3.91011 4.17899 4.04678
# Velocity P-wave (km/s) = 6.16390 6.94347 6.56527
#
# Compressibility (1/GPa) = 0.02731406
#
# Stress axis : x y z
#
# Youngs Moduli (GPa) = 91.01107 39.49022 124.26971
#
# Poissons Ratio (x) = 0.03810 0.29420
# Poissons Ratio (y) = 0.08782 0.64488
# Poissons Ratio (z) = 0.21546 0.20493
#
# Static dielectric constant tensor:
#      x y z
#    x 3.573340 0.000000 0.000000 
#    y 0.000000 3.497090 0.000000 
#    z 0.000000 0.000000 4.008190 
# 
# 
# High freq. dielectric constant tensor:
#      x y z
#    x 1.823500 0.000000 0.000000 
#    y 0.000000 1.800510 0.000000 
#    z 0.000000 0.000000 1.833570 
# 
# From -- ./inp_files/19530.got.cif
#   From: 2010.03.12/outbox.cif.g09.slc.cpg/sg62_10_cif.got.tgz:19530.got - 2010.04.10 19:12:36.
