data_PCOD8254946
_publ_section_title
;
Structure prediction by ZEFSAII (Michael W. Deem and Ramdas Pophale) SiO2 
 PCOD8254946
Probable space group: P N M A
;
_chemical_formula_sum "Si O2"
_cell_formula_units_Z 32
_cell_length_a 8.196286
_cell_length_b 17.245431
_cell_length_c 8.167217
_cell_angle_alpha 90.000000
_cell_angle_beta 90.000000
_cell_angle_gamma 90.000000
_cell_volume 1154.423747
_symmetry_space_group_name_H-M "P N M A"
_symmetry_group_IT_number 62
_symmetry_cell_setting 'orthorhombic'
loop_
_space_group_symop_operation_xyz
x,y,z
1/2-x,-y,1/2+z
1/2+x,1/2-y,1/2-z
-x,1/2+y,-z
-x,-y,-z
1/2+x,y,1/2-z
1/2-x,1/2+y,1/2+z
x,1/2-y,z
loop_
_atom_site_type_symbol
_atom_site_label
_atom_site_fract_x
_atom_site_fract_y
_atom_site_fract_z
Si Si1 0.832212 0.580464 0.559028
Si Si2 0.507372 0.660975 0.596649
Si Si3 0.685037 0.592952 0.961911
Si Si4 0.647895 0.334396 0.731921
O O1 0.681555 0.624008 0.645868
O O2 0.800928 0.489352 0.554070
O O3 0.861734 0.601034 0.369349
O O4 0.012785 0.603471 0.637768
O O5 0.494155 0.750000 0.662193
O O6 0.346497 0.608562 0.654012
O O7 0.505216 0.659591 0.396363
O O8 0.692809 0.654089 0.112456
O O9 0.659637 0.250000 0.814848
#
# Coordination Sequence:
#
# PCOD8254946 Si02
#       4
#     8   8   8   8
#     4  11  18  31  50  70 106 139 162 203 259 301
#     4   9  19  31  47  71  99 131 166 207 250 293
#     4   9  21  32  45  75 109 128 167 207 251 305
#     4   9  19  33  50  77 106 130 166 211 251 294
#
# _framework density 27.719456999999998
#
# number of rings (size 3 to 8) (size 9 to 14) (size 15 to 20)
#    1.500    1.000    0.000    3.000    0.000    6.000 
#    0.000    0.000    0.000    0.000    0.000    7.000 
#    0.000    0.000    0.000    0.000    0.000    0.000 
#
# Total GULP energy -396553.221654 kJ/mol
# GULP energy per Si atom -12392.288177 kJ/mol
# Density = 2.765637 g / cm^3
# Si number density = 27.719457 Si / 1000 Ang^3
#
#
#
# Elastic Constant Matrix: (Units=GPa)
#
#
# Indices 1 2 3 4 5 6 
#
# 1 235.8663 98.2092 64.9523 0.0000 0.0000 0.0000
# 2 98.2092 146.7923 -8.8980 0.0000 0.0000 0.0000
# 3 64.9523 -8.8980 74.6230 0.0000 0.0000 0.0000
# 4 0.0000 0.0000 0.0000 15.4052 0.0000 0.0000
# 5 0.0000 0.0000 0.0000 0.0000 31.0929 0.0000
# 6 0.0000 0.0000 0.0000 0.0000 0.0000 45.2451
#
#
#
# Elastic Compliance Matrix: (Units=1/GPa)
#
#
# Indices 1 2 3 4 5 6 
#
# 1 0.009775 -0.007107 -0.009356 0.000000 0.000000 0.000000
# 2 -0.007107 0.012029 0.007621 0.000000 0.000000 0.000000
# 3 -0.009356 0.007621 0.022453 0.000000 0.000000 0.000000
# 4 0.000000 0.000000 0.000000 0.064913 0.000000 0.000000
# 5 0.000000 0.000000 0.000000 0.000000 0.032162 0.000000
# 6 0.000000 0.000000 0.000000 0.000000 0.000000 0.022102
#
#
# Mechanical properties :
#
#
# Convention : Reuss Voigt Hill
#
# Bulk Modulus (GPa) = 37.63343 85.08982 61.36162
# Shear Modulus (GPa) = 26.31893 38.54983 32.43438
#
# Velocity S-wave (km/s) = 3.08470 3.73327 3.42438
# Velocity P-wave (km/s) = 5.12769 7.02471 6.14978
#
# Compressibility (1/GPa) = 0.02657212
#
# Stress axis : x y z
#
# Youngs Moduli (GPa) = 102.29746 83.13066 44.53764
#
# Poissons Ratio (x) = 0.59083 0.41670
# Poissons Ratio (y) = 0.72705 -0.33940
# Poissons Ratio (z) = 0.95710 -0.63350
#
# Static dielectric constant tensor:
#      x y z
#    x 5.299270 0.000000 0.000000 
#    y 0.000000 4.497880 0.000000 
#    z 0.000000 0.000000 4.964200 
# 
# 
# High freq. dielectric constant tensor:
#      x y z
#    x 2.149870 0.000000 0.000000 
#    y 0.000000 2.091230 0.000000 
#    z 0.000000 0.000000 2.162480 
# 
# From -- ./inp_files/10930.got.cif
#   From: 2010.03.12/outbox.cif.g09.slc.cpg/sg62_6_cif.got.tgz:10930.got - 2010.04.10 19:12:36.
