data_PCOD8254698
_publ_section_title
;
Structure prediction by ZEFSAII (Michael W. Deem and Ramdas Pophale) SiO2 
 PCOD8254698
Probable space group: P N M A
;
_chemical_formula_sum "Si O2"
_cell_formula_units_Z 48
_cell_length_a 10.910299
_cell_length_b 17.834304
_cell_length_c 11.592212
_cell_angle_alpha 90.000000
_cell_angle_beta 90.000000
_cell_angle_gamma 90.000000
_cell_volume 2255.584663
_symmetry_space_group_name_H-M "P N M A"
_symmetry_group_IT_number 62
_symmetry_cell_setting 'orthorhombic'
loop_
_space_group_symop_operation_xyz
x,y,z
1/2-x,-y,1/2+z
1/2+x,1/2-y,1/2-z
-x,1/2+y,-z
-x,-y,-z
1/2+x,y,1/2-z
1/2-x,1/2+y,1/2+z
x,1/2-y,z
loop_
_atom_site_type_symbol
_atom_site_label
_atom_site_fract_x
_atom_site_fract_y
_atom_site_fract_z
Si Si1 0.184094 0.456134 0.195740
Si Si2 0.449899 0.936476 0.917002
Si Si3 0.301969 0.250000 0.706076
Si Si4 0.429084 0.750000 0.368522
Si Si5 0.617842 0.835103 0.777866
Si Si6 0.235188 0.901875 0.073067
Si Si7 0.494329 0.624553 0.545946
O O1 0.092441 0.477630 0.299393
O O2 0.263220 0.386262 0.241591
O O3 0.262854 0.529989 0.162830
O O4 0.110281 0.434052 0.080634
O O5 0.547467 0.871923 0.886439
O O6 0.339904 0.894094 0.978937
O O7 0.500000 0.000000 0.000000
O O8 0.208520 0.250000 0.814640
O O9 0.452907 0.250000 0.722710
O O10 0.267702 0.177056 0.635171
O O11 0.437023 0.678412 0.450404
O O12 0.655965 0.750000 0.810022
O O13 0.536867 0.832046 0.661836
O O14 0.107613 0.919707 0.009628
#
# Coordination Sequence:
#
# PCOD8254698 Si02
#       7
#     8   8   4   4   8   8   8
#     4  11  24  40  69  99 128 174 224 272 329 409
#     4  11  24  42  66  97 135 170 219 274 334 392
#     4  10  26  44  71  91 131 181 230 274 332 411
#     4  10  22  48  65 103 131 179 226 282 340 397
#     4  11  23  41  66 103 131 170 220 276 330 405
#     4  11  23  45  65  94 133 179 216 271 341 392
#     4  10  22  42  68  94 132 174 218 275 338 397
#
# _framework density 21.280514
#
# number of rings (size 3 to 8) (size 9 to 14) (size 15 to 20)
#    0.000    1.333    4.167    0.500    2.333    4.667 
#    3.000    0.000    0.000    0.000    0.000    0.000 
#    0.000    0.000    0.000    0.000    0.000    0.000 
#
# Total GULP energy -595002.355516 kJ/mol
# GULP energy per Si atom -12395.882407 kJ/mol
# Density = 2.123208 g / cm^3
# Si number density = 21.280514 Si / 1000 Ang^3
#
#
#
# Elastic Constant Matrix: (Units=GPa)
#
#
# Indices 1 2 3 4 5 6 
#
# 1 83.6532 32.5845 47.3911 0.0000 0.0000 0.0000
# 2 32.5845 142.1566 48.9161 0.0000 0.0000 0.0000
# 3 47.3911 48.9161 99.0533 0.0000 0.0000 0.0000
# 4 0.0000 0.0000 0.0000 24.4243 0.0000 0.0000
# 5 0.0000 0.0000 0.0000 0.0000 45.0988 0.0000
# 6 0.0000 0.0000 0.0000 0.0000 0.0000 24.6617
#
#
#
# Elastic Compliance Matrix: (Units=1/GPa)
#
#
# Indices 1 2 3 4 5 6 
#
# 1 0.016593 -0.001291 -0.007301 0.000000 0.000000 0.000000
# 2 -0.001291 0.008575 -0.003617 0.000000 0.000000 0.000000
# 3 -0.007301 -0.003617 0.015375 0.000000 0.000000 0.000000
# 4 0.000000 0.000000 0.000000 0.040943 0.000000 0.000000
# 5 0.000000 0.000000 0.000000 0.000000 0.022174 0.000000
# 6 0.000000 0.000000 0.000000 0.000000 0.000000 0.040549
#
#
# Mechanical properties :
#
#
# Convention : Reuss Voigt Hill
#
# Bulk Modulus (GPa) = 62.01686 64.73850 63.37768
# Shear Modulus (GPa) = 28.73527 31.90171 30.31849
#
# Velocity S-wave (km/s) = 3.67864 3.87603 3.77862
# Velocity P-wave (km/s) = 6.87379 7.10767 6.99171
#
# Compressibility (1/GPa) = 0.01612465
#
# Stress axis : x y z
#
# Youngs Moduli (GPa) = 60.26505 116.61784 65.04051
#
# Poissons Ratio (x) = 0.15056 0.47488
# Poissons Ratio (y) = 0.07781 0.23525
# Poissons Ratio (z) = 0.44002 0.42180
#
# Static dielectric constant tensor:
#      x y z
#    x 4.067330 0.000000 0.000000 
#    y 0.000000 3.723450 0.000000 
#    z 0.000000 0.000000 3.879560 
# 
# 
# High freq. dielectric constant tensor:
#      x y z
#    x 1.839000 0.000000 0.000000 
#    y 0.000000 1.834760 0.000000 
#    z 0.000000 0.000000 1.830990 
# 
# From -- ./inp_files/12288.got.cif
#   From: 2010.03.12/outbox.cif.g09.slc.cpg/sg62_7_cif.got.tgz:12288.got - 2010.04.10 19:12:36.
