data_PCOD8254754
_publ_section_title
;
Structure prediction by ZEFSAII (Michael W. Deem and Ramdas Pophale) SiO2 
 PCOD8254754
Probable space group: P N M A
;
_chemical_formula_sum "Si O2"
_cell_formula_units_Z 32
_cell_length_a 8.810677
_cell_length_b 26.467083
_cell_length_c 4.912839
_cell_angle_alpha 90.000000
_cell_angle_beta 90.000000
_cell_angle_gamma 90.000000
_cell_volume 1145.639269
_symmetry_space_group_name_H-M "P N M A"
_symmetry_group_IT_number 62
_symmetry_cell_setting 'orthorhombic'
loop_
_space_group_symop_operation_xyz
x,y,z
1/2-x,-y,1/2+z
1/2+x,1/2-y,1/2-z
-x,1/2+y,-z
-x,-y,-z
1/2+x,y,1/2-z
1/2-x,1/2+y,1/2+z
x,1/2-y,z
loop_
_atom_site_type_symbol
_atom_site_label
_atom_site_fract_x
_atom_site_fract_y
_atom_site_fract_z
Si Si1 0.772025 0.165139 0.467034
Si Si2 0.742852 0.033708 0.004714
Si Si3 0.011464 0.099038 0.183533
Si Si4 0.398944 0.750000 0.797351
Si Si5 0.900283 0.250000 0.793860
O O1 0.930274 0.141961 0.364071
O O2 0.641613 0.122477 0.516474
O O3 0.706828 0.201372 0.233348
O O4 0.803695 0.198721 0.736327
O O5 0.884189 0.072478 0.996985
O O6 0.588733 0.059559 0.109385
O O7 0.785027 0.986400 0.200356
O O8 0.545959 0.750000 0.604134
O O9 0.451348 0.750000 0.107451
#
# Coordination Sequence:
#
# PCOD8254754 Si02
#       5
#     8   8   8   4   4
#     4  10  22  45  71 106 142 182 240 285 348 412
#     4  11  24  47  69 101 142 183 230 289 366 423
#     4  10  22  45  72 108 136 188 234 297 344 428
#     4  11  24  46  69  99 146 186 226 283 349 410
#     4  11  24  46  69  99 146 186 226 283 349 410
#
# _framework density 27.932006999999999
#
# number of rings (size 3 to 8) (size 9 to 14) (size 15 to 20)
#    0.000    1.500    2.500    1.500    0.000    4.000 
#   18.000    0.000    0.000    0.000    0.000    0.000 
#    0.000    0.000    0.000    0.000    0.000    0.000 
#
# Total GULP energy -396837.472231 kJ/mol
# GULP energy per Si atom -12401.171007 kJ/mol
# Density = 2.786843 g / cm^3
# Si number density = 27.932007 Si / 1000 Ang^3
#
#
#
# Elastic Constant Matrix: (Units=GPa)
#
#
# Indices 1 2 3 4 5 6 
#
# 1 141.3479 32.2090 23.3062 0.0000 0.0000 0.0000
# 2 32.2090 111.3055 -3.3860 0.0000 0.0000 0.0000
# 3 23.3062 -3.3860 51.9898 0.0000 0.0000 0.0000
# 4 0.0000 0.0000 0.0000 484.2970 0.0000 0.0000
# 5 0.0000 0.0000 0.0000 0.0000 43.6885 0.0000
# 6 0.0000 0.0000 0.0000 0.0000 0.0000 69.2679
#
#
#
# Elastic Compliance Matrix: (Units=1/GPa)
#
#
# Indices 1 2 3 4 5 6 
#
# 1 0.008288 -0.002516 -0.003879 0.000000 0.000000 0.000000
# 2 -0.002516 0.009766 0.001764 0.000000 0.000000 0.000000
# 3 -0.003879 0.001764 0.021088 0.000000 0.000000 0.000000
# 4 0.000000 0.000000 0.000000 0.002065 0.000000 0.000000
# 5 0.000000 0.000000 0.000000 0.000000 0.022889 0.000000
# 6 0.000000 0.000000 0.000000 0.000000 0.000000 0.014437
#
#
# Mechanical properties :
#
#
# Convention : Reuss Voigt Hill
#
# Bulk Modulus (GPa) = 33.46774 45.43352 39.45063
# Shear Modulus (GPa) = 51.14792 136.28495 93.71644
#
# Velocity S-wave (km/s) = 4.28385 6.99268 5.79866
# Velocity P-wave (km/s) = 6.03956 9.02762 7.68031
#
# Compressibility (1/GPa) = 0.02987952
#
# Stress axis : x y z
#
# Youngs Moduli (GPa) = 120.66011 102.39513 47.41941
#
# Poissons Ratio (x) = 0.25765 0.18395
# Poissons Ratio (y) = 0.30361 -0.08365
# Poissons Ratio (z) = 0.46806 -0.18063
#
# Static dielectric constant tensor:
#      x y z
#    x 5.421200 0.000000 0.000000 
#    y 0.000000 5.560910 0.000000 
#    z 0.000000 0.000000 4.368660 
# 
# 
# High freq. dielectric constant tensor:
#      x y z
#    x 2.161750 0.000000 0.000000 
#    y 0.000000 2.145820 0.000000 
#    z 0.000000 0.000000 2.095820 
# 
# From -- ./inp_files/230.got.cif
#   From: 2010.03.12/outbox.cif.g09.slc.cpg/sg62_1_cif.got.tgz:230.got - 2010.04.10 19:12:36.
