data_PCOD8254508
_publ_section_title
;
Structure prediction by ZEFSAII (Michael W. Deem and Ramdas Pophale) SiO2 
 PCOD8254508
Probable space group: P N M A
;
_chemical_formula_sum "Si O2"
_cell_formula_units_Z 48
_cell_length_a 19.848153
_cell_length_b 8.436051
_cell_length_c 14.338333
_cell_angle_alpha 90.000000
_cell_angle_beta 90.000000
_cell_angle_gamma 90.000000
_cell_volume 2400.810921
_symmetry_space_group_name_H-M "P N M A"
_symmetry_group_IT_number 62
_symmetry_cell_setting 'orthorhombic'
loop_
_space_group_symop_operation_xyz
x,y,z
1/2-x,-y,1/2+z
1/2+x,1/2-y,1/2-z
-x,1/2+y,-z
-x,-y,-z
1/2+x,y,1/2-z
1/2-x,1/2+y,1/2+z
x,1/2-y,z
loop_
_atom_site_type_symbol
_atom_site_label
_atom_site_fract_x
_atom_site_fract_y
_atom_site_fract_z
Si Si1 0.121101 0.434163 0.017779
Si Si2 0.235729 0.067225 0.517131
Si Si3 0.421164 0.066319 0.327711
Si Si4 0.204853 0.067123 0.725575
Si Si5 0.061334 0.932004 0.203552
Si Si6 0.669727 0.068604 0.171279
O O1 0.103822 0.250000 0.028828
O O2 0.199928 0.457554 0.996671
O O3 0.077146 0.505513 0.933968
O O4 0.103699 0.524807 0.112151
O O5 0.259494 0.250000 0.511705
O O6 0.202282 0.026583 0.615955
O O7 0.180331 0.031057 0.437972
O O8 0.401996 0.250000 0.324009
O O9 0.367986 0.968549 0.267385
O O10 0.495074 0.038873 0.285633
O O11 0.223133 0.250000 0.742849
O O12 0.261040 0.960587 0.773896
O O13 0.039291 0.750000 0.199525
O O14 0.109231 0.959406 0.292456
O O15 0.649053 0.250000 0.188053
#
# Coordination Sequence:
#
# PCOD8254508 Si02
#       6
#     8   8   8   8   8   8
#     4  12  23  37  62  93 126 161 202 251 310 372
#     4  10  22  39  62  91 126 161 204 253 302 358
#     4  12  25  42  62  89 126 164 206 255 311 371
#     4  11  22  39  63  92 124 163 206 253 304 362
#     4  12  25  42  62  89 126 164 206 255 311 371
#     4  11  22  39  63  92 124 163 206 253 304 362
#
# _framework density 19.993244000000001
#
# number of rings (size 3 to 8) (size 9 to 14) (size 15 to 20)
#    0.000    0.667    3.333    6.000    0.000    1.333 
#    0.000    0.833    0.000    0.000    0.000    0.000 
#    0.000    0.000    0.000    0.000    0.000    0.000 
#
# Total GULP energy -595611.304242 kJ/mol
# GULP energy per Si atom -12408.568838 kJ/mol
# Density = 1.994774 g / cm^3
# Si number density = 19.993244 Si / 1000 Ang^3
#
#
#
# Elastic Constant Matrix: (Units=GPa)
#
#
# Indices 1 2 3 4 5 6 
#
# 1 61.7196 -5.9670 4.7477 0.0000 0.0000 0.0000
# 2 -5.9670 75.4996 15.5467 0.0000 0.0000 0.0000
# 3 4.7477 15.5467 91.1471 0.0000 0.0000 0.0000
# 4 0.0000 0.0000 0.0000 23.3548 0.0000 0.0000
# 5 0.0000 0.0000 0.0000 0.0000 30.2712 0.0000
# 6 0.0000 0.0000 0.0000 0.0000 0.0000 33.2714
#
#
#
# Elastic Compliance Matrix: (Units=1/GPa)
#
#
# Indices 1 2 3 4 5 6 
#
# 1 0.016436 0.001529 -0.001117 0.000000 0.000000 0.000000
# 2 0.001529 0.013869 -0.002445 0.000000 0.000000 0.000000
# 3 -0.001117 -0.002445 0.011447 0.000000 0.000000 0.000000
# 4 0.000000 0.000000 0.000000 0.042818 0.000000 0.000000
# 5 0.000000 0.000000 0.000000 0.000000 0.033035 0.000000
# 6 0.000000 0.000000 0.000000 0.000000 0.000000 0.030056
#
#
# Mechanical properties :
#
#
# Convention : Reuss Voigt Hill
#
# Bulk Modulus (GPa) = 26.53535 28.55791 27.54663
# Shear Modulus (GPa) = 30.43421 31.64873 31.04147
#
# Velocity S-wave (km/s) = 3.90580 3.98297 3.94458
# Velocity P-wave (km/s) = 5.80012 5.95541 5.87828
#
# Compressibility (1/GPa) = 0.03768557
#
# Stress axis : x y z
#
# Youngs Moduli (GPa) = 60.84186 72.10069 87.36254
#
# Poissons Ratio (x) = -0.11024 0.09758
# Poissons Ratio (y) = -0.09303 0.21363
# Poissons Ratio (z) = 0.06796 0.17631
#
# Static dielectric constant tensor:
#      x y z
#    x 3.496120 0.000000 0.000000 
#    y 0.000000 3.666000 0.000000 
#    z 0.000000 0.000000 3.782240 
# 
# 
# High freq. dielectric constant tensor:
#      x y z
#    x 1.771640 0.000000 0.000000 
#    y 0.000000 1.790270 0.000000 
#    z 0.000000 0.000000 1.782360 
# 
# From -- ./inp_files/19592.got.cif
#   From: 2010.03.12/outbox.cif.g09.slc.cpg/sg62_10_cif.got.tgz:19592.got - 2010.04.10 19:12:36.
