data_PCOD8254252
_publ_section_title
;
Structure prediction by ZEFSAII (Michael W. Deem and Ramdas Pophale) SiO2 
 PCOD8254252
Probable space group: P N M A
;
_chemical_formula_sum "Si O2"
_cell_formula_units_Z 40
_cell_length_a 17.354386
_cell_length_b 13.429397
_cell_length_c 8.204958
_cell_angle_alpha 90.000000
_cell_angle_beta 90.000000
_cell_angle_gamma 90.000000
_cell_volume 1912.238808
_symmetry_space_group_name_H-M "P N M A"
_symmetry_group_IT_number 62
_symmetry_cell_setting 'orthorhombic'
loop_
_space_group_symop_operation_xyz
x,y,z
1/2-x,-y,1/2+z
1/2+x,1/2-y,1/2-z
-x,1/2+y,-z
-x,-y,-z
1/2+x,y,1/2-z
1/2-x,1/2+y,1/2+z
x,1/2-y,z
loop_
_atom_site_type_symbol
_atom_site_label
_atom_site_fract_x
_atom_site_fract_y
_atom_site_fract_z
Si Si1 0.065826 0.521353 0.127092
Si Si2 0.447205 0.636239 0.186915
Si Si3 0.136636 0.366201 0.360399
Si Si4 0.225105 0.942300 0.039320
Si Si5 0.704396 0.364621 0.629037
O O1 0.105061 0.422301 0.201804
O O2 0.027234 0.581400 0.275782
O O3 0.133447 0.583841 0.035336
O O4 0.000000 0.500000 0.000000
O O5 0.468438 0.750000 0.160588
O O6 0.387123 0.623694 0.337329
O O7 0.409996 0.595998 0.019479
O O8 0.126436 0.250000 0.325667
O O9 0.227285 0.389475 0.393927
O O10 0.231605 0.063410 0.017782
O O11 0.253404 0.902854 0.210722
O O12 0.726103 0.250000 0.589253
#
# Coordination Sequence:
#
# PCOD8254252 Si02
#       5
#     8   8   8   8   8
#     4  12  23  37  66  97 127 156 210 269 322 377
#     4   9  20  39  63  88 125 168 204 254 322 383
#     4  10  23  44  64  86 126 177 215 257 322 387
#     4  11  21  41  64  89 126 171 215 263 310 384
#     4  10  21  40  63  90 127 172 215 260 320 380
#
# _framework density 20.91789
#
# number of rings (size 3 to 8) (size 9 to 14) (size 15 to 20)
#    0.000    1.600    4.000    2.400    0.000    3.200 
#    0.000    0.000    0.000    2.400    0.000    0.000 
#    0.000    0.000    0.000    0.000    0.000    0.000 
#
# Total GULP energy -495691.891693 kJ/mol
# GULP energy per Si atom -12392.297292 kJ/mol
# Density = 2.087028 g / cm^3
# Si number density = 20.917890 Si / 1000 Ang^3
#
#
#
# Elastic Constant Matrix: (Units=GPa)
#
#
# Indices 1 2 3 4 5 6 
#
# 1 149.9385 38.2064 50.2879 0.0000 0.0000 0.0000
# 2 38.2064 64.3987 9.8540 0.0000 0.0000 0.0000
# 3 50.2879 9.8540 55.4138 0.0000 0.0000 0.0000
# 4 0.0000 0.0000 0.0000 33.9894 0.0000 0.0000
# 5 0.0000 0.0000 0.0000 0.0000 36.0333 0.0000
# 6 0.0000 0.0000 0.0000 0.0000 0.0000 22.6147
#
#
#
# Elastic Compliance Matrix: (Units=1/GPa)
#
#
# Indices 1 2 3 4 5 6 
#
# 1 0.011034 -0.005154 -0.009096 0.000000 0.000000 0.000000
# 2 -0.005154 0.018370 0.001411 0.000000 0.000000 0.000000
# 3 -0.009096 0.001411 0.026050 0.000000 0.000000 0.000000
# 4 0.000000 0.000000 0.000000 0.029421 0.000000 0.000000
# 5 0.000000 0.000000 0.000000 0.000000 0.027752 0.000000
# 6 0.000000 0.000000 0.000000 0.000000 0.000000 0.044219
#
#
# Mechanical properties :
#
#
# Convention : Reuss Voigt Hill
#
# Bulk Modulus (GPa) = 33.58610 51.82751 42.70680
# Shear Modulus (GPa) = 25.98071 29.95434 27.96752
#
# Velocity S-wave (km/s) = 3.52807 3.78828 3.66049
# Velocity P-wave (km/s) = 5.71729 6.63062 6.19082
#
# Compressibility (1/GPa) = 0.02977422
#
# Stress axis : x y z
#
# Youngs Moduli (GPa) = 90.63233 54.43590 38.38747
#
# Poissons Ratio (x) = 0.28057 0.34919
# Poissons Ratio (y) = 0.46713 -0.05415
# Poissons Ratio (z) = 0.82443 -0.07679
#
# Static dielectric constant tensor:
#      x y z
#    x 4.214540 0.000000 0.000000 
#    y 0.000000 3.766760 0.000000 
#    z 0.000000 0.000000 3.790450 
# 
# 
# High freq. dielectric constant tensor:
#      x y z
#    x 1.820800 0.000000 0.000000 
#    y 0.000000 1.806630 0.000000 
#    z 0.000000 0.000000 1.820480 
# 
# From -- ./inp_files/6126.got.cif
#   From: 2010.03.12/outbox.cif.g09.slc.cpg/sg62_4_cif.got.tgz:6126.got - 2010.04.10 19:12:36.
