data_PCOD8254855
_publ_section_title
;
Structure prediction by ZEFSAII (Michael W. Deem and Ramdas Pophale) SiO2 
 PCOD8254855
Probable space group: P N M A
;
_chemical_formula_sum "Si O2"
_cell_formula_units_Z 40
_cell_length_a 11.603054
_cell_length_b 17.664527
_cell_length_c 8.896549
_cell_angle_alpha 90.000000
_cell_angle_beta 90.000000
_cell_angle_gamma 90.000000
_cell_volume 1823.458574
_symmetry_space_group_name_H-M "P N M A"
_symmetry_group_IT_number 62
_symmetry_cell_setting 'orthorhombic'
loop_
_space_group_symop_operation_xyz
x,y,z
1/2-x,-y,1/2+z
1/2+x,1/2-y,1/2-z
-x,1/2+y,-z
-x,-y,-z
1/2+x,y,1/2-z
1/2-x,1/2+y,1/2+z
x,1/2-y,z
loop_
_atom_site_type_symbol
_atom_site_label
_atom_site_fract_x
_atom_site_fract_y
_atom_site_fract_z
Si Si1 0.225503 0.435560 0.285869
Si Si2 0.676346 0.662936 0.479687
Si Si3 0.239939 0.658719 0.348993
Si Si4 0.379334 0.457182 0.014728
Si Si5 0.945263 0.917683 0.975334
O O1 0.242638 0.359502 0.381690
O O2 0.214328 0.500789 0.410175
O O3 0.112071 0.421401 0.188705
O O4 0.337622 0.457316 0.186901
O O5 0.685311 0.750000 0.454138
O O6 0.718643 0.628299 0.320627
O O7 0.547538 0.641621 0.523295
O O8 0.249694 0.750000 0.364890
O O9 0.129462 0.629222 0.449738
O O10 0.354939 0.615742 0.404545
O O11 0.500000 0.500000 0.000000
O O12 0.000000 0.000000 0.000000
#
# Coordination Sequence:
#
# PCOD8254855 Si02
#       5
#     8   8   8   8   8
#     4  11  24  40  63  93 126 163 212 271 315 378
#     4  11  24  42  64  93 130 171 213 263 325 386
#     4  10  23  43  67  95 131 172 217 267 320 385
#     4  11  23  41  65  92 125 165 211 259 314 376
#     4  11  23  42  69  95 125 169 216 268 323 383
#
# _framework density 21.936336000000001
#
# number of rings (size 3 to 8) (size 9 to 14) (size 15 to 20)
#    0.000    1.200    0.000    6.600    0.000   10.400 
#    0.000    3.000    0.000    0.000    0.000    0.000 
#    0.000    0.000    0.000    0.000    0.000    0.000 
#
# Total GULP energy -495692.340695 kJ/mol
# GULP energy per Si atom -12392.308517 kJ/mol
# Density = 2.188641 g / cm^3
# Si number density = 21.936336 Si / 1000 Ang^3
#
#
#
# Elastic Constant Matrix: (Units=GPa)
#
#
# Indices 1 2 3 4 5 6 
#
# 1 107.2318 57.0619 43.1286 0.0000 0.0000 0.0000
# 2 57.0619 89.3710 50.6530 0.0000 0.0000 0.0000
# 3 43.1286 50.6530 131.9719 0.0000 0.0000 0.0000
# 4 0.0000 0.0000 0.0000 41.2829 0.0000 0.0000
# 5 0.0000 0.0000 0.0000 0.0000 38.7218 0.0000
# 6 0.0000 0.0000 0.0000 0.0000 0.0000 39.4162
#
#
#
# Elastic Compliance Matrix: (Units=1/GPa)
#
#
# Indices 1 2 3 4 5 6 
#
# 1 0.014353 -0.008314 -0.001499 0.000000 0.000000 0.000000
# 2 -0.008314 0.019116 -0.004620 0.000000 0.000000 0.000000
# 3 -0.001499 -0.004620 0.009841 0.000000 0.000000 0.000000
# 4 0.000000 0.000000 0.000000 0.024223 0.000000 0.000000
# 5 0.000000 0.000000 0.000000 0.000000 0.025825 0.000000
# 6 0.000000 0.000000 0.000000 0.000000 0.000000 0.025370
#
#
# Mechanical properties :
#
#
# Convention : Reuss Voigt Hill
#
# Bulk Modulus (GPa) = 69.24033 70.02907 69.63470
# Shear Modulus (GPa) = 32.80615 35.73292 34.26953
#
# Velocity S-wave (km/s) = 3.87139 4.04039 3.95679
# Velocity P-wave (km/s) = 7.18444 7.33208 7.25864
#
# Compressibility (1/GPa) = 0.01444245
#
# Stress axis : x y z
#
# Youngs Moduli (GPa) = 69.67177 52.31110 101.61952
#
# Poissons Ratio (x) = 0.43493 0.15237
# Poissons Ratio (y) = 0.57928 0.46949
# Poissons Ratio (z) = 0.10447 0.24168
#
# Static dielectric constant tensor:
#      x y z
#    x 3.835480 0.000000 0.000000 
#    y 0.000000 4.150950 0.000000 
#    z 0.000000 0.000000 4.421220 
# 
# 
# High freq. dielectric constant tensor:
#      x y z
#    x 1.859970 0.000000 0.000000 
#    y 0.000000 1.867570 0.000000 
#    z 0.000000 0.000000 1.883640 
# 
# From -- ./inp_files/5005.got.cif
#   From: 2010.03.12/outbox.cif.g09.slc.cpg/sg62_3_cif.got.tgz:5005.got - 2010.04.10 19:12:36.
