data_PCOD8254272
_publ_section_title
;
Structure prediction by ZEFSAII (Michael W. Deem and Ramdas Pophale) SiO2 
 PCOD8254272
Probable space group: P N M A
;
_chemical_formula_sum "Si O2"
_cell_formula_units_Z 56
_cell_length_a 14.599097
_cell_length_b 8.931942
_cell_length_c 21.726746
_cell_angle_alpha 90.000000
_cell_angle_beta 90.000000
_cell_angle_gamma 90.000000
_cell_volume 2833.130475
_symmetry_space_group_name_H-M "P N M A"
_symmetry_group_IT_number 62
_symmetry_cell_setting 'orthorhombic'
loop_
_space_group_symop_operation_xyz
x,y,z
1/2-x,-y,1/2+z
1/2+x,1/2-y,1/2-z
-x,1/2+y,-z
-x,-y,-z
1/2+x,y,1/2-z
1/2-x,1/2+y,1/2+z
x,1/2-y,z
loop_
_atom_site_type_symbol
_atom_site_label
_atom_site_fract_x
_atom_site_fract_y
_atom_site_fract_z
Si Si1 0.423782 0.574015 0.041908
Si Si2 0.821746 0.424345 0.224433
Si Si3 0.414278 0.079523 0.622330
Si Si4 0.879969 0.577934 0.100440
Si Si5 0.387283 0.576287 0.749520
Si Si6 0.282705 0.424961 0.512104
Si Si7 0.454832 0.572880 0.180321
O O1 0.437820 0.750000 0.038668
O O2 0.436075 0.516061 0.111401
O O3 0.500000 0.500000 0.000000
O O4 0.323120 0.528915 0.018434
O O5 0.844044 0.250000 0.230668
O O6 0.851079 0.477988 0.157668
O O7 0.716148 0.460789 0.234026
O O8 0.875402 0.511870 0.276593
O O9 0.402050 0.250000 0.645467
O O10 0.511652 0.059302 0.588405
O O11 0.333872 0.035456 0.575543
O O12 0.410256 0.971270 0.680387
O O13 0.854677 0.750000 0.113863
O O14 0.825679 0.523922 0.041133
O O15 0.410749 0.750000 0.756108
O O16 0.446943 0.486241 0.798594
O O17 0.294549 0.250000 0.496247
O O18 0.453761 0.750000 0.184882
#
# Coordination Sequence:
#
# PCOD8254272 Si02
#       7
#     8   8   8   8   8   8   8
#     4  10  24  43  64  90 122 163 210 259 310 365
#     4  11  24  41  62  92 128 166 207 257 314 370
#     4  10  21  40  64  92 125 162 204 253 311 371
#     4  11  23  38  61  94 125 161 207 254 310 372
#     4  11  24  39  62  93 125 163 206 253 310 370
#     4  10  22  41  63  88 123 165 206 254 311 368
#     4  11  23  42  66  93 124 163 209 257 311 368
#
# _framework density 19.766121999999999
#
# number of rings (size 3 to 8) (size 9 to 14) (size 15 to 20)
#    0.000    1.429    1.429    3.000    2.000    6.286 
#    0.000    0.000    0.000    0.000    0.000    0.000 
#    0.000    0.000    0.000    0.000    0.000    0.000 
#
# Total GULP energy -694723.518378 kJ/mol
# GULP energy per Si atom -12405.777114 kJ/mol
# Density = 1.972113 g / cm^3
# Si number density = 19.766122 Si / 1000 Ang^3
#
#
#
# Elastic Constant Matrix: (Units=GPa)
#
#
# Indices 1 2 3 4 5 6 
#
# 1 131.3208 46.1309 36.7125 0.0000 0.0000 0.0000
# 2 46.1309 65.1780 24.5742 0.0000 0.0000 0.0000
# 3 36.7125 24.5742 63.1520 0.0000 0.0000 0.0000
# 4 0.0000 0.0000 0.0000 31.6924 0.0000 0.0000
# 5 0.0000 0.0000 0.0000 0.0000 25.6766 0.0000
# 6 0.0000 0.0000 0.0000 0.0000 0.0000 947.5563
#
#
#
# Elastic Compliance Matrix: (Units=1/GPa)
#
#
# Indices 1 2 3 4 5 6 
#
# 1 0.010900 -0.006241 -0.003908 0.000000 0.000000 0.000000
# 2 -0.006241 0.021554 -0.004759 0.000000 0.000000 0.000000
# 3 -0.003908 -0.004759 0.019958 0.000000 0.000000 0.000000
# 4 0.000000 0.000000 0.000000 0.031553 0.000000 0.000000
# 5 0.000000 0.000000 0.000000 0.000000 0.038946 0.000000
# 6 0.000000 0.000000 0.000000 0.000000 0.000000 0.001055
#
#
# Mechanical properties :
#
#
# Convention : Reuss Voigt Hill
#
# Bulk Modulus (GPa) = 44.25513 52.72068 48.48791
# Shear Modulus (GPa) = 30.99511 211.13392 121.06451
#
# Velocity S-wave (km/s) = 3.96421 10.34640 7.83463
# Velocity P-wave (km/s) = 6.58721 13.01771 10.31630
#
# Compressibility (1/GPa) = 0.02259625
#
# Stress axis : x y z
#
# Youngs Moduli (GPa) = 91.74427 46.39454 50.10401
#
# Poissons Ratio (x) = 0.28956 0.19580
# Poissons Ratio (y) = 0.57259 0.23845
# Poissons Ratio (z) = 0.35852 0.22080
#
# Static dielectric constant tensor:
#      x y z
#    x 3.841270 0.000000 0.000000 
#    y 0.000000 3.626250 0.000000 
#    z 0.000000 0.000000 4.601770 
# 
# 
# High freq. dielectric constant tensor:
#      x y z
#    x 1.789680 0.000000 0.000000 
#    y 0.000000 1.774690 0.000000 
#    z 0.000000 0.000000 1.777750 
# 
# From -- ./inp_files/27108.got.cif
#   From: 2010.03.12/outbox.cif.g09.slc.cpg/sg62_14_cif.got.tgz:27108.got - 2010.04.10 19:12:36.
