data_PCOD8254938
_publ_section_title
;
Structure prediction by ZEFSAII (Michael W. Deem and Ramdas Pophale) SiO2 
 PCOD8254938
Probable space group: P N M A
;
_chemical_formula_sum "Si O2"
_cell_formula_units_Z 40
_cell_length_a 17.650252
_cell_length_b 10.489976
_cell_length_c 9.634366
_cell_angle_alpha 90.000000
_cell_angle_beta 90.000000
_cell_angle_gamma 90.000000
_cell_volume 1783.809800
_symmetry_space_group_name_H-M "P N M A"
_symmetry_group_IT_number 62
_symmetry_cell_setting 'orthorhombic'
loop_
_space_group_symop_operation_xyz
x,y,z
1/2-x,-y,1/2+z
1/2+x,1/2-y,1/2-z
-x,1/2+y,-z
-x,-y,-z
1/2+x,y,1/2-z
1/2-x,1/2+y,1/2+z
x,1/2-y,z
loop_
_atom_site_type_symbol
_atom_site_label
_atom_site_fract_x
_atom_site_fract_y
_atom_site_fract_z
Si Si1 0.677586 0.387759 0.292011
Si Si2 0.400450 0.750000 0.203399
Si Si3 0.836409 0.028853 0.255230
Si Si4 0.070370 0.750000 0.236562
Si Si5 0.069114 0.250000 0.384937
Si Si6 0.913299 0.461815 0.981037
Si Si7 0.102595 0.750000 0.564194
O O1 0.716994 0.250000 0.311068
O O2 0.745246 0.477898 0.238744
O O3 0.607579 0.377081 0.181819
O O4 0.640353 0.419976 0.440699
O O5 0.357961 0.619419 0.238496
O O6 0.480104 0.750000 0.281745
O O7 0.412974 0.750000 0.042987
O O8 0.857455 0.117647 0.387832
O O9 0.878968 0.094082 0.123645
O O10 0.100426 0.871325 0.151865
O O11 0.098437 0.750000 0.395814
O O12 0.979570 0.250000 0.362720
O O13 0.000000 0.500000 0.000000
#
# Coordination Sequence:
#
# PCOD8254938 Si02
#       7
#     8   4   8   4   4   8   4
#     4  10  26  44  71 104 144 196 247 302 375 442
#     4  11  26  40  73 103 148 183 253 293 384 432
#     4  12  26  48  74 108 150 198 239 317 377 453
#     4  11  27  44  74 115 132 196 254 308 364 459
#     4   9  23  42  67  99 144 184 244 304 356 441
#     4  12  26  46  77 107 152 190 254 309 379 440
#     4  11  24  46  80 101 146 197 253 301 376 442
#
# _framework density 22.423915999999998
#
# number of rings (size 3 to 8) (size 9 to 14) (size 15 to 20)
#    0.600    0.400    3.000    1.800    8.400    2.400 
#    0.000    0.000    0.000    0.000    0.000    0.000 
#    0.000    0.000    0.000    0.000    0.000    0.000 
#
# Total GULP energy -495641.352364 kJ/mol
# GULP energy per Si atom -12391.033809 kJ/mol
# Density = 2.237288 g / cm^3
# Si number density = 22.423916 Si / 1000 Ang^3
#
#
#
# Elastic Constant Matrix: (Units=GPa)
#
#
# Indices 1 2 3 4 5 6 
#
# 1 122.1772 25.1579 49.3058 0.0000 0.0000 0.0000
# 2 25.1579 112.5491 31.6249 0.0000 0.0000 0.0000
# 3 49.3058 31.6249 -110.7116 0.0000 0.0000 0.0000
# 4 0.0000 0.0000 0.0000 41.9051 0.0000 0.0000
# 5 0.0000 0.0000 0.0000 0.0000 34.1019 0.0000
# 6 0.0000 0.0000 0.0000 0.0000 0.0000 38.4435
#
#
#
# Elastic Compliance Matrix: (Units=1/GPa)
#
#
# Indices 1 2 3 4 5 6 
#
# 1 0.007606 -0.002455 0.002686 0.000000 0.000000 0.000000
# 2 -0.002455 0.009017 0.001482 0.000000 0.000000 0.000000
# 3 0.002686 0.001482 -0.007413 0.000000 0.000000 0.000000
# 4 0.000000 0.000000 0.000000 0.023863 0.000000 0.000000
# 5 0.000000 0.000000 0.000000 0.000000 0.029324 0.000000
# 6 0.000000 0.000000 0.000000 0.000000 0.000000 0.026012
#
#
# Mechanical properties :
#
#
# Convention : Reuss Voigt Hill
#
# Bulk Modulus (GPa) = 79.12584 37.35464 58.24024
# Shear Modulus (GPa) = 56.05644 24.08517 40.07080
#
# Velocity S-wave (km/s) = 5.00527 3.28088 4.23184
# Velocity P-wave (km/s) = 8.29257 5.57196 7.06447
#
# Compressibility (1/GPa) = 0.01263810
#
# Stress axis : x y z
#
# Youngs Moduli (GPa) = 131.46990 110.89883 -134.90357
#
# Poissons Ratio (x) = 0.27226 0.36238
# Poissons Ratio (y) = 0.32276 0.19999
# Poissons Ratio (z) = -0.35316 -0.16440
#
# Static dielectric constant tensor:
#      x y z
#    x 4.788450 0.000000 0.000000 
#    y 0.000000 3.997670 0.000000 
#    z 0.000000 0.000000 4.033280 
# 
# 
# High freq. dielectric constant tensor:
#      x y z
#    x 1.892300 0.000000 0.000000 
#    y 0.000000 1.879560 0.000000 
#    z 0.000000 0.000000 1.888900 
# 
# From -- ./inp_files/7338.got.cif
#   From: 2010.03.12/outbox.cif.g09.slc.cpg/sg62_4_cif.got.tgz:7338.got - 2010.04.10 19:12:36.
