data_PCOD8254568
_publ_section_title
;
Structure prediction by ZEFSAII (Michael W. Deem and Ramdas Pophale) SiO2 
 PCOD8254568
Probable space group: P N M A
;
_chemical_formula_sum "Si O2"
_cell_formula_units_Z 40
_cell_length_a 8.744304
_cell_length_b 8.801880
_cell_length_c 24.773851
_cell_angle_alpha 90.000000
_cell_angle_beta 90.000000
_cell_angle_gamma 90.000000
_cell_volume 1906.752007
_symmetry_space_group_name_H-M "P N M A"
_symmetry_group_IT_number 62
_symmetry_cell_setting 'orthorhombic'
loop_
_space_group_symop_operation_xyz
x,y,z
1/2-x,-y,1/2+z
1/2+x,1/2-y,1/2-z
-x,1/2+y,-z
-x,-y,-z
1/2+x,y,1/2-z
1/2-x,1/2+y,1/2+z
x,1/2-y,z
loop_
_atom_site_type_symbol
_atom_site_label
_atom_site_fract_x
_atom_site_fract_y
_atom_site_fract_z
Si Si1 0.677140 0.926865 0.593028
Si Si2 0.166564 0.425025 0.110068
Si Si3 0.335993 0.073924 0.219269
Si Si4 0.846741 0.428377 0.688123
Si Si5 0.657777 0.424981 0.984516
O O1 0.694856 0.750000 0.609046
O O2 0.505346 0.985833 0.602877
O O3 0.716316 0.955478 0.530591
O O4 0.792479 0.026736 0.628432
O O5 0.176858 0.250000 0.093261
O O6 0.213956 0.451476 0.171761
O O7 0.282252 0.514259 0.072150
O O8 0.344895 0.250000 0.236399
O O9 0.285673 0.974274 0.270117
O O10 0.501713 0.021624 0.200764
O O11 0.879730 0.250000 0.691077
O O12 0.623260 0.250000 0.976977
O O13 0.500000 0.500000 0.000000
#
# Coordination Sequence:
#
# PCOD8254568 Si02
#       5
#     8   8   8   8   8
#     4  10  22  41  62  87 120 161 203 244 300 369
#     4  10  22  40  63  88 116 154 202 249 297 357
#     4  11  23  41  64  88 119 162 203 244 301 370
#     4  12  25  40  62  93 124 156 200 256 304 350
#     4  11  23  38  60  88 121 159 200 247 300 358
#
# _framework density 20.978081
#
# number of rings (size 3 to 8) (size 9 to 14) (size 15 to 20)
#    0.000    1.200    0.000    6.000    0.000   10.400 
#    0.000    0.000    0.000    0.000    0.000    0.000 
#    0.000    0.000    0.000    0.000    0.000    0.000 
#
# Total GULP energy -496336.411184 kJ/mol
# GULP energy per Si atom -12408.410280 kJ/mol
# Density = 2.093033 g / cm^3
# Si number density = 20.978081 Si / 1000 Ang^3
#
#
#
# Elastic Constant Matrix: (Units=GPa)
#
#
# Indices 1 2 3 4 5 6 
#
# 1 80.4394 12.2230 -10.8768 0.0000 0.0000 0.0000
# 2 12.2230 78.4231 29.4686 0.0000 0.0000 0.0000
# 3 -10.8768 29.4686 52.9355 0.0000 0.0000 0.0000
# 4 0.0000 0.0000 0.0000 36.9587 0.0000 0.0000
# 5 0.0000 0.0000 0.0000 0.0000 37.7342 0.0000
# 6 0.0000 0.0000 0.0000 0.0000 0.0000 32.9708
#
#
#
# Elastic Compliance Matrix: (Units=1/GPa)
#
#
# Indices 1 2 3 4 5 6 
#
# 1 0.013733 -0.004047 0.005075 0.000000 0.000000 0.000000
# 2 -0.004047 0.017317 -0.010472 0.000000 0.000000 0.000000
# 3 0.005075 -0.010472 0.025763 0.000000 0.000000 0.000000
# 4 0.000000 0.000000 0.000000 0.027057 0.000000 0.000000
# 5 0.000000 0.000000 0.000000 0.000000 0.026501 0.000000
# 6 0.000000 0.000000 0.000000 0.000000 0.000000 0.030330
#
#
# Mechanical properties :
#
#
# Convention : Reuss Voigt Hill
#
# Bulk Modulus (GPa) = 26.36813 30.38085 28.37449
# Shear Modulus (GPa) = 29.03062 33.59829 31.31445
#
# Velocity S-wave (km/s) = 3.72406 4.00633 3.86777
# Velocity P-wave (km/s) = 5.57567 5.99287 5.78803
#
# Compressibility (1/GPa) = 0.03792457
#
# Stress axis : x y z
#
# Youngs Moduli (GPa) = 72.81758 57.74621 38.81492
#
# Poissons Ratio (x) = 0.23372 -0.19698
# Poissons Ratio (y) = 0.29472 0.40647
# Poissons Ratio (z) = -0.36954 0.60471
#
# Static dielectric constant tensor:
#      x y z
#    x 3.842570 0.000000 0.000000 
#    y 0.000000 3.815900 0.000000 
#    z 0.000000 0.000000 3.910690 
# 
# 
# High freq. dielectric constant tensor:
#      x y z
#    x 1.836700 0.000000 0.000000 
#    y 0.000000 1.819530 0.000000 
#    z 0.000000 0.000000 1.833240 
# 
# From -- ./inp_files/28556.got.cif
#   From: 2010.03.12/outbox.cif.g09.slc.cpg/sg62_15_cif.got.tgz:28556.got - 2010.04.10 19:12:36.
