data_PCOD8254671
_publ_section_title
;
Structure prediction by ZEFSAII (Michael W. Deem and Ramdas Pophale) SiO2 
 PCOD8254671
Probable space group: P N M A
;
_chemical_formula_sum "Si O2"
_cell_formula_units_Z 64
_cell_length_a 16.501304
_cell_length_b 8.631343
_cell_length_c 22.087298
_cell_angle_alpha 90.000000
_cell_angle_beta 90.000000
_cell_angle_gamma 90.000000
_cell_volume 3145.858841
_symmetry_space_group_name_H-M "P N M A"
_symmetry_group_IT_number 62
_symmetry_cell_setting 'orthorhombic'
loop_
_space_group_symop_operation_xyz
x,y,z
1/2-x,-y,1/2+z
1/2+x,1/2-y,1/2-z
-x,1/2+y,-z
-x,-y,-z
1/2+x,y,1/2-z
1/2-x,1/2+y,1/2+z
x,1/2-y,z
loop_
_atom_site_type_symbol
_atom_site_label
_atom_site_fract_x
_atom_site_fract_y
_atom_site_fract_z
Si Si1 0.999477 0.067366 0.933511
Si Si2 0.581053 0.569110 0.766211
Si Si3 0.852603 0.932126 0.148641
Si Si4 0.184330 0.431410 0.381294
Si Si5 0.825906 0.429642 0.387953
Si Si6 0.911475 0.930936 0.501597
Si Si7 0.907194 0.428342 0.728205
Si Si8 0.842848 0.429736 0.860102
O O1 0.000533 0.250000 0.938135
O O2 0.920184 0.010513 0.897730
O O3 0.078394 0.008968 0.897418
O O4 0.000000 0.000000 0.000000
O O5 0.559615 0.750000 0.764229
O O6 0.640160 0.524538 0.711380
O O7 0.626583 0.523370 0.827540
O O8 0.500350 0.468637 0.760401
O O9 0.860203 0.750000 0.161637
O O10 0.766318 0.970456 0.119840
O O11 0.204863 0.250000 0.385361
O O12 0.135898 0.492804 0.439637
O O13 0.129554 0.461261 0.322646
O O14 0.837055 0.250000 0.403129
O O15 0.861690 0.528912 0.442114
O O16 0.731683 0.466586 0.380975
O O17 0.921986 0.750000 0.507050
O O18 0.000000 0.000000 0.500000
O O19 0.900411 0.250000 0.707803
O O20 0.857629 0.457101 0.789352
O O21 0.824785 0.250000 0.873690
#
# Coordination Sequence:
#
# PCOD8254671 Si02
#       8
#     8   8   8   8   8   8   8   8
#     4  10  23  42  63  91 127 164 208 256 308 371
#     4  11  23  40  63  93 129 166 206 260 317 369
#     4  11  23  42  65  93 126 165 212 259 308 374
#     4  11  25  42  62  93 128 162 206 261 316 372
#     4  11  25  41  62  93 126 162 209 259 308 369
#     4  11  25  45  67  92 126 166 207 255 311 372
#     4  11  22  40  66  94 125 166 211 257 312 375
#     4  10  22  42  63  90 126 162 205 256 308 367
#
# _framework density 20.344204999999999
#
# number of rings (size 3 to 8) (size 9 to 14) (size 15 to 20)
#    0.000    1.250    1.250    3.750    1.750   11.500 
#    0.000    0.000    0.000    0.000    0.000    0.000 
#    0.000    0.000    0.000    0.000    0.000    0.000 
#
# Total GULP energy -794076.066646 kJ/mol
# GULP energy per Si atom -12407.438541 kJ/mol
# Density = 2.029790 g / cm^3
# Si number density = 20.344205 Si / 1000 Ang^3
#
#
#
# Elastic Constant Matrix: (Units=GPa)
#
#
# Indices 1 2 3 4 5 6 
#
# 1 131.2529 23.2437 47.9273 0.0000 0.0000 0.0000
# 2 23.2437 37.9532 31.2662 0.0000 0.0000 0.0000
# 3 47.9273 31.2662 136.3027 0.0000 0.0000 0.0000
# 4 0.0000 0.0000 0.0000 34.0951 0.0000 0.0000
# 5 0.0000 0.0000 0.0000 0.0000 31.2345 0.0000
# 6 0.0000 0.0000 0.0000 0.0000 0.0000 38.7848
#
#
#
# Elastic Compliance Matrix: (Units=1/GPa)
#
#
# Indices 1 2 3 4 5 6 
#
# 1 0.009130 -0.003634 -0.002377 0.000000 0.000000 0.000000
# 2 -0.003634 0.033934 -0.006506 0.000000 0.000000 0.000000
# 3 -0.002377 -0.006506 0.009665 0.000000 0.000000 0.000000
# 4 0.000000 0.000000 0.000000 0.029330 0.000000 0.000000
# 5 0.000000 0.000000 0.000000 0.000000 0.032016 0.000000
# 6 0.000000 0.000000 0.000000 0.000000 0.000000 0.025783
#
#
# Mechanical properties :
#
#
# Convention : Reuss Voigt Hill
#
# Bulk Modulus (GPa) = 36.10743 56.70925 46.40834
# Shear Modulus (GPa) = 28.71537 34.36100 31.53818
#
# Velocity S-wave (km/s) = 3.76104 4.11418 3.94157
# Velocity P-wave (km/s) = 6.05370 7.10662 6.60119
#
# Compressibility (1/GPa) = 0.02769513
#
# Stress axis : x y z
#
# Youngs Moduli (GPa) = 109.52558 29.46939 103.46753
#
# Poissons Ratio (x) = 0.10708 0.24594
# Poissons Ratio (y) = 0.39796 0.67319
# Poissons Ratio (z) = 0.26034 0.19174
#
# Static dielectric constant tensor:
#      x y z
#    x 3.812720 0.000000 0.000000 
#    y 0.000000 3.618060 0.000000 
#    z 0.000000 0.000000 3.552550 
# 
# 
# High freq. dielectric constant tensor:
#      x y z
#    x 1.810500 0.000000 0.000000 
#    y 0.000000 1.796530 0.000000 
#    z 0.000000 0.000000 1.808180 
# 
# From -- ./inp_files/29847.got.cif
#   From: 2010.03.12/outbox.cif.g09.slc.cpg/sg62_15_cif.got.tgz:29847.got - 2010.04.10 19:12:36.
