data_PCOD8254618
_publ_section_title
;
Structure prediction by ZEFSAII (Michael W. Deem and Ramdas Pophale) SiO2 
 PCOD8254618
Probable space group: P N M A
;
_chemical_formula_sum "Si O2"
_cell_formula_units_Z 48
_cell_length_a 9.531146
_cell_length_b 7.748816
_cell_length_c 33.182904
_cell_angle_alpha 90.000000
_cell_angle_beta 90.000000
_cell_angle_gamma 90.000000
_cell_volume 2450.726581
_symmetry_space_group_name_H-M "P N M A"
_symmetry_group_IT_number 62
_symmetry_cell_setting 'orthorhombic'
loop_
_space_group_symop_operation_xyz
x,y,z
1/2-x,-y,1/2+z
1/2+x,1/2-y,1/2-z
-x,1/2+y,-z
-x,-y,-z
1/2+x,y,1/2-z
1/2-x,1/2+y,1/2+z
x,1/2-y,z
loop_
_atom_site_type_symbol
_atom_site_label
_atom_site_fract_x
_atom_site_fract_y
_atom_site_fract_z
Si Si1 0.068494 0.949683 0.672357
Si Si2 0.334820 0.750000 0.228015
Si Si3 0.501254 0.059218 0.954498
Si Si4 0.481149 0.455532 0.365024
Si Si5 0.175696 0.445183 0.383074
Si Si6 0.246244 0.556525 0.594563
Si Si7 0.024878 0.750000 0.198379
O O1 0.053016 0.750000 0.687108
O O2 0.927870 0.024128 0.650625
O O3 0.192533 0.964653 0.640110
O O4 0.102669 0.074913 0.709022
O O5 0.166110 0.750000 0.225498
O O6 0.385861 0.750000 0.274046
O O7 0.441287 0.250000 0.952371
O O8 0.394163 0.949931 0.927306
O O9 0.660415 0.058811 0.937123
O O10 0.500000 0.000000 0.000000
O O11 0.485449 0.250000 0.353485
O O12 0.330979 0.525701 0.381133
O O13 0.589053 0.490265 0.402258
O O14 0.524024 0.573787 0.327352
O O15 0.195174 0.250000 0.370625
O O16 0.221650 0.750000 0.579016
#
# Coordination Sequence:
#
# PCOD8254618 Si02
#       7
#     8   4   8   8   8   8   4
#     4   9  19  37  61  83 112 153 201 243 297 361
#     4  12  26  40  58  88 120 158 200 260 312 352
#     4  11  22  35  58  90 124 157 193 243 300 356
#     4  10  22  41  63  87 118 158 204 253 299 361
#     4   9  20  37  60  88 115 152 201 249 293 353
#     4   9  18  36  61  84 110 153 200 246 293 357
#     4  12  28  40  60  88 126 154 210 256 308 364
#
# _framework density 19.586027999999999
#
# number of rings (size 3 to 8) (size 9 to 14) (size 15 to 20)
#    0.000    2.000    1.667    2.500    9.333    0.667 
#    0.000    0.833    0.000    0.000    0.000    0.000 
#    0.000    0.000    0.000    0.000    0.000    0.000 
#
# Total GULP energy -594836.899151 kJ/mol
# GULP energy per Si atom -12392.435399 kJ/mol
# Density = 1.954145 g / cm^3
# Si number density = 19.586028 Si / 1000 Ang^3
#
#
#
# Elastic Constant Matrix: (Units=GPa)
#
#
# Indices 1 2 3 4 5 6 
#
# 1 143.6198 20.1166 30.0505 0.0000 0.0000 0.0000
# 2 20.1166 72.3923 21.9292 0.0000 0.0000 0.0000
# 3 30.0505 21.9292 70.8624 0.0000 0.0000 0.0000
# 4 0.0000 0.0000 0.0000 25.6296 0.0000 0.0000
# 5 0.0000 0.0000 0.0000 0.0000 20.2122 0.0000
# 6 0.0000 0.0000 0.0000 0.0000 0.0000 21.5268
#
#
#
# Elastic Compliance Matrix: (Units=1/GPa)
#
#
# Indices 1 2 3 4 5 6 
#
# 1 0.007746 -0.001277 -0.002890 0.000000 0.000000 0.000000
# 2 -0.001277 0.015453 -0.004241 0.000000 0.000000 0.000000
# 3 -0.002890 -0.004241 0.016650 0.000000 0.000000 0.000000
# 4 0.000000 0.000000 0.000000 0.039017 0.000000 0.000000
# 5 0.000000 0.000000 0.000000 0.000000 0.049475 0.000000
# 6 0.000000 0.000000 0.000000 0.000000 0.000000 0.046454
#
#
# Mechanical properties :
#
#
# Convention : Reuss Voigt Hill
#
# Bulk Modulus (GPa) = 43.41392 47.89634 45.65513
# Shear Modulus (GPa) = 25.08930 27.79227 26.44079
#
# Velocity S-wave (km/s) = 3.58296 3.77103 3.67820
# Velocity P-wave (km/s) = 6.27142 6.59305 6.43424
#
# Compressibility (1/GPa) = 0.02303409
#
# Stress axis : x y z
#
# Youngs Moduli (GPa) = 129.09281 64.71200 60.06160
#
# Poissons Ratio (x) = 0.08265 0.17356
# Poissons Ratio (y) = 0.16488 0.25469
# Poissons Ratio (z) = 0.37304 0.27441
#
# Static dielectric constant tensor:
#      x y z
#    x 4.084750 0.000000 0.000000 
#    y 0.000000 3.668600 0.000000 
#    z 0.000000 0.000000 3.150400 
# 
# 
# High freq. dielectric constant tensor:
#      x y z
#    x 1.774830 0.000000 0.000000 
#    y 0.000000 1.768780 0.000000 
#    z 0.000000 0.000000 1.726580 
# 
# From -- ./inp_files/32104.got.cif
#   From: 2010.03.12/outbox.cif.g09.slc.cpg/sg62_17_cif.got.tgz:32104.got - 2010.04.10 19:12:36.
