data_PCOD8254440
_publ_section_title
;
Structure prediction by ZEFSAII (Michael W. Deem and Ramdas Pophale) SiO2 
 PCOD8254440
Probable space group: P N M A
;
_chemical_formula_sum "Si O2"
_cell_formula_units_Z 64
_cell_length_a 10.769262
_cell_length_b 8.998445
_cell_length_c 32.842213
_cell_angle_alpha 90.000000
_cell_angle_beta 90.000000
_cell_angle_gamma 90.000000
_cell_volume 3182.627586
_symmetry_space_group_name_H-M "P N M A"
_symmetry_group_IT_number 62
_symmetry_cell_setting 'orthorhombic'
loop_
_space_group_symop_operation_xyz
x,y,z
1/2-x,-y,1/2+z
1/2+x,1/2-y,1/2-z
-x,1/2+y,-z
-x,-y,-z
1/2+x,y,1/2-z
1/2-x,1/2+y,1/2+z
x,1/2-y,z
loop_
_atom_site_type_symbol
_atom_site_label
_atom_site_fract_x
_atom_site_fract_y
_atom_site_fract_z
Si Si1 0.131468 0.925390 0.009731
Si Si2 0.977990 0.916178 0.690071
Si Si3 0.605917 0.072035 0.029112
Si Si4 0.638862 0.574861 0.114759
Si Si5 0.476428 0.925724 0.719527
Si Si6 0.403753 0.575639 0.351177
Si Si7 0.357267 0.424005 0.600179
Si Si8 0.251544 0.587325 0.666543
O O1 0.111086 0.750000 0.006687
O O2 0.161470 0.981941 0.054891
O O3 0.252733 0.974264 0.983715
O O4 0.000000 0.000000 0.000000
O O5 0.919120 0.750000 0.684793
O O6 0.955568 0.986217 0.734687
O O7 0.124600 0.903184 0.689717
O O8 0.935620 0.026266 0.654763
O O9 0.589643 0.250000 0.027707
O O10 0.588794 0.012449 0.075116
O O11 0.500000 0.000000 0.000000
O O12 0.620868 0.750000 0.107314
O O13 0.780836 0.532161 0.124072
O O14 0.498385 0.750000 0.721427
O O15 0.351459 0.979270 0.697603
O O16 0.590238 0.997026 0.693422
O O17 0.410766 0.750000 0.343156
O O18 0.514318 0.517074 0.380203
O O19 0.353573 0.250000 0.601035
O O20 0.242237 0.485503 0.626391
O O21 0.296259 0.750000 0.652300
#
# Coordination Sequence:
#
# PCOD8254440 Si02
#       8
#     8   8   8   8   8   8   8   8
#     4  10  22  39  63  93 122 156 201 251 305 363
#     4  10  22  37  57  84 115 152 196 244 294 353
#     4  11  25  44  65  93 128 166 209 257 311 374
#     4  11  24  41  61  86 118 159 203 247 300 360
#     4   9  19  35  58  84 114 152 191 239 295 349
#     4   9  19  36  58  85 119 154 193 240 292 349
#     4   9  18  35  58  83 113 148 184 232 289 343
#     4   9  19  35  53  81 113 145 189 233 283 345
#
# _framework density 20.109169999999999
#
# number of rings (size 3 to 8) (size 9 to 14) (size 15 to 20)
#    0.000    2.250    0.000    1.500    3.500    4.500 
#    0.000    2.500    0.000    0.000    0.000    0.000 
#    0.000    0.000    0.000    0.000    0.000    0.000 
#
# Total GULP energy -793183.739099 kJ/mol
# GULP energy per Si atom -12393.495923 kJ/mol
# Density = 2.006340 g / cm^3
# Si number density = 20.109170 Si / 1000 Ang^3
#
#
#
# Elastic Constant Matrix: (Units=GPa)
#
#
# Indices 1 2 3 4 5 6 
#
# 1 62.4551 32.5973 28.8201 0.0000 0.0000 0.0000
# 2 32.5973 46.3662 45.3240 0.0000 0.0000 0.0000
# 3 28.8201 45.3240 151.8923 0.0000 0.0000 0.0000
# 4 0.0000 0.0000 0.0000 33.6558 0.0000 0.0000
# 5 0.0000 0.0000 0.0000 0.0000 29.3956 0.0000
# 6 0.0000 0.0000 0.0000 0.0000 0.0000 29.2600
#
#
#
# Elastic Compliance Matrix: (Units=1/GPa)
#
#
# Indices 1 2 3 4 5 6 
#
# 1 0.025347 -0.018521 0.000717 0.000000 0.000000 0.000000
# 2 -0.018521 0.043983 -0.009610 0.000000 0.000000 0.000000
# 3 0.000717 -0.009610 0.009315 0.000000 0.000000 0.000000
# 4 0.000000 0.000000 0.000000 0.029713 0.000000 0.000000
# 5 0.000000 0.000000 0.000000 0.000000 0.034019 0.000000
# 6 0.000000 0.000000 0.000000 0.000000 0.000000 0.034176
#
#
# Mechanical properties :
#
#
# Convention : Reuss Voigt Hill
#
# Bulk Modulus (GPa) = 41.98686 52.68849 47.33768
# Shear Modulus (GPa) = 20.89250 28.72708 24.80979
#
# Velocity S-wave (km/s) = 3.22678 3.78373 3.51630
# Velocity P-wave (km/s) = 5.89979 6.73401 6.33066
#
# Compressibility (1/GPa) = 0.02381697
#
# Stress axis : x y z
#
# Youngs Moduli (GPa) = 39.45166 22.73618 107.35262
#
# Poissons Ratio (x) = 0.42111 -0.07700
# Poissons Ratio (y) = 0.73070 1.03166
# Poissons Ratio (z) = -0.02830 0.21849
#
# Static dielectric constant tensor:
#      x y z
#    x 3.705110 0.000000 0.000000 
#    y 0.000000 3.613140 0.000000 
#    z 0.000000 0.000000 4.093600 
# 
# 
# High freq. dielectric constant tensor:
#      x y z
#    x 1.783600 0.000000 0.000000 
#    y 0.000000 1.773650 0.000000 
#    z 0.000000 0.000000 1.797850 
# 
# From -- ./inp_files/32499.got.cif
#   From: 2010.03.12/outbox.cif.g09.slc.cpg/sg62_17_cif.got.tgz:32499.got - 2010.04.10 19:12:36.
