data_PCOD8254042
_publ_section_title
;
Structure prediction by ZEFSAII (Michael W. Deem and Ramdas Pophale) SiO2 
 PCOD8254042
Probable space group: P N M A
;
_chemical_formula_sum "Si O2"
_cell_formula_units_Z 64
_cell_length_a 23.949169
_cell_length_b 8.588458
_cell_length_c 15.343644
_cell_angle_alpha 90.000000
_cell_angle_beta 90.000000
_cell_angle_gamma 90.000000
_cell_volume 3155.979390
_symmetry_space_group_name_H-M "P N M A"
_symmetry_group_IT_number 62
_symmetry_cell_setting 'orthorhombic'
loop_
_space_group_symop_operation_xyz
x,y,z
1/2-x,-y,1/2+z
1/2+x,1/2-y,1/2-z
-x,1/2+y,-z
-x,-y,-z
1/2+x,y,1/2-z
1/2-x,1/2+y,1/2+z
x,1/2-y,z
loop_
_atom_site_type_symbol
_atom_site_label
_atom_site_fract_x
_atom_site_fract_y
_atom_site_fract_z
Si Si1 0.129526 0.434253 0.589508
Si Si2 0.249193 0.569144 0.838553
Si Si3 0.137403 0.427500 0.094643
Si Si4 0.136250 0.430070 0.897659
Si Si5 0.248326 0.568471 0.151414
Si Si6 0.445706 0.934827 0.248252
Si Si7 0.643490 0.933730 0.090637
Si Si8 0.929962 0.067129 0.751234
O O1 0.125842 0.250000 0.576415
O O2 0.190955 0.486088 0.620350
O O3 0.085924 0.494176 0.661879
O O4 0.113945 0.520891 0.500016
O O5 0.253354 0.750000 0.814519
O O6 0.190249 0.535072 0.882660
O O7 0.258668 0.465940 0.753197
O O8 0.297307 0.522310 0.906758
O O9 0.131705 0.250000 0.124970
O O10 0.202244 0.475462 0.096847
O O11 0.100329 0.531188 0.158293
O O12 0.115146 0.450916 0.996494
O O13 0.151525 0.250000 0.877619
O O14 0.087347 0.490770 0.834240
O O15 0.238688 0.750000 0.135410
O O16 0.448037 0.750000 0.247623
O O17 0.507937 0.007099 0.250345
O O18 0.652888 0.750000 0.096915
O O19 0.605109 0.997743 0.169475
O O20 0.935364 0.250000 0.741476
#
# Coordination Sequence:
#
# PCOD8254042 Si02
#       8
#     8   8   8   8   8   8   8   8
#     4  10  21  38  63  89 117 154 197 243 294 352
#     4  12  23  36  60  91 121 153 193 240 294 354
#     4  11  23  37  59  90 121 154 194 244 295 344
#     4  10  21  40  63  88 120 156 193 241 297 352
#     4  11  21  37  61  87 118 156 192 234 295 357
#     4   9  19  40  64  85 113 157 205 244 292 351
#     4  11  23  38  58  87 122 158 197 240 292 349
#     4  10  22  40  62  83 114 162 205 243 291 349
#
# _framework density 20.278966
#
# number of rings (size 3 to 8) (size 9 to 14) (size 15 to 20)
#    0.000    1.500    2.500    3.000    0.000    5.500 
#    0.000    1.250    0.000    0.000    0.000    0.000 
#    0.000    0.000    0.000    0.000    0.000    0.000 
#
# Total GULP energy -793913.605278 kJ/mol
# GULP energy per Si atom -12404.900082 kJ/mol
# Density = 2.023281 g / cm^3
# Si number density = 20.278966 Si / 1000 Ang^3
#
#
#
# Elastic Constant Matrix: (Units=GPa)
#
#
# Indices 1 2 3 4 5 6 
#
# 1 142.3478 22.7045 48.5972 0.0000 0.0000 0.0000
# 2 22.7045 26.3913 23.7675 0.0000 0.0000 0.0000
# 3 48.5972 23.7675 118.7938 0.0000 0.0000 0.0000
# 4 0.0000 0.0000 0.0000 26.8097 0.0000 0.0000
# 5 0.0000 0.0000 0.0000 0.0000 15.9564 0.0000
# 6 0.0000 0.0000 0.0000 0.0000 0.0000 12.1293
#
#
#
# Elastic Compliance Matrix: (Units=1/GPa)
#
#
# Indices 1 2 3 4 5 6 
#
# 1 0.008720 -0.005232 -0.002520 0.000000 0.000000 0.000000
# 2 -0.005232 0.049358 -0.007735 0.000000 0.000000 0.000000
# 3 -0.002520 -0.007735 0.010997 0.000000 0.000000 0.000000
# 4 0.000000 0.000000 0.000000 0.037300 0.000000 0.000000
# 5 0.000000 0.000000 0.000000 0.000000 0.062671 0.000000
# 6 0.000000 0.000000 0.000000 0.000000 0.000000 0.082445
#
#
# Mechanical properties :
#
#
# Convention : Reuss Voigt Hill
#
# Bulk Modulus (GPa) = 26.24660 53.07458 39.66059
# Shear Modulus (GPa) = 16.93963 23.80998 20.37481
#
# Velocity S-wave (km/s) = 2.89334 3.43026 3.17318
# Velocity P-wave (km/s) = 4.91251 6.47441 5.74677
#
# Compressibility (1/GPa) = 0.03810018
#
# Stress axis : x y z
#
# Youngs Moduli (GPa) = 114.67845 20.26000 90.93712
#
# Poissons Ratio (x) = 0.10600 0.22921
# Poissons Ratio (y) = 0.59999 0.70339
# Poissons Ratio (z) = 0.28905 0.15671
#
# Static dielectric constant tensor:
#      x y z
#    x 3.861130 0.000000 0.000000 
#    y 0.000000 3.410480 0.000000 
#    z 0.000000 0.000000 3.770780 
# 
# 
# High freq. dielectric constant tensor:
#      x y z
#    x 1.788800 0.000000 0.000000 
#    y 0.000000 1.773140 0.000000 
#    z 0.000000 0.000000 1.805250 
# 
# From -- ./inp_files/20808.got.cif
#   From: 2010.03.12/outbox.cif.g09.slc.cpg/sg62_11_cif.got.tgz:20808.got - 2010.04.10 19:12:36.
