data_PCOD8254572
_publ_section_title
;
Structure prediction by ZEFSAII (Michael W. Deem and Ramdas Pophale) SiO2 
 PCOD8254572
Probable space group: P N M A
;
_chemical_formula_sum "Si O2"
_cell_formula_units_Z 40
_cell_length_a 16.052884
_cell_length_b 13.178116
_cell_length_c 8.655760
_cell_angle_alpha 90.000000
_cell_angle_beta 90.000000
_cell_angle_gamma 90.000000
_cell_volume 1831.098048
_symmetry_space_group_name_H-M "P N M A"
_symmetry_group_IT_number 62
_symmetry_cell_setting 'orthorhombic'
loop_
_space_group_symop_operation_xyz
x,y,z
1/2-x,-y,1/2+z
1/2+x,1/2-y,1/2-z
-x,1/2+y,-z
-x,-y,-z
1/2+x,y,1/2-z
1/2-x,1/2+y,1/2+z
x,1/2-y,z
loop_
_atom_site_type_symbol
_atom_site_label
_atom_site_fract_x
_atom_site_fract_y
_atom_site_fract_z
Si Si1 0.525751 0.633642 0.587799
Si Si2 0.760336 0.061542 0.410000
Si Si3 0.883799 0.632173 0.133188
Si Si4 0.778558 0.132512 0.069049
Si Si5 0.935152 0.026551 0.372060
O O1 0.501131 0.750000 0.591072
O O2 0.463358 0.586135 0.460932
O O3 0.622751 0.614657 0.556442
O O4 0.506861 0.589500 0.755913
O O5 0.755922 0.938966 0.432942
O O6 0.857567 0.092566 0.440929
O O7 0.700497 0.115954 0.533894
O O8 0.740264 0.095837 0.233994
O O9 0.892483 0.750000 0.175256
O O10 0.887931 0.569019 0.291308
O O11 0.754705 0.250000 0.039551
O O12 0.000000 0.000000 0.500000
#
# Coordination Sequence:
#
# PCOD8254572 Si02
#       5
#     8   8   8   8   8
#     4   9  20  40  65  89 121 167 211 260 321 386
#     4  11  22  42  63  94 128 172 213 266 326 381
#     4  11  23  42  66  93 125 169 221 267 322 389
#     4  10  22  40  63  94 127 166 217 266 324 391
#     4  11  25  40  64  93 133 162 210 269 325 389
#
# _framework density 21.844815000000001
#
# number of rings (size 3 to 8) (size 9 to 14) (size 15 to 20)
#    0.000    1.600    4.000    1.200    2.800    2.400 
#    0.000    0.000    0.000    0.000    0.000    0.000 
#    0.000    0.000    0.000    0.000    0.000    0.000 
#
# Total GULP energy -495639.742625 kJ/mol
# GULP energy per Si atom -12390.993566 kJ/mol
# Density = 2.179510 g / cm^3
# Si number density = 21.844815 Si / 1000 Ang^3
#
#
#
# Elastic Constant Matrix: (Units=GPa)
#
#
# Indices 1 2 3 4 5 6 
#
# 1 87.4829 20.3508 55.0829 0.0000 0.0000 0.0000
# 2 20.3508 44.0925 30.1747 0.0000 0.0000 0.0000
# 3 55.0829 30.1747 77.9389 0.0000 0.0000 0.0000
# 4 0.0000 0.0000 0.0000 29.1597 0.0000 0.0000
# 5 0.0000 0.0000 0.0000 0.0000 44.7940 0.0000
# 6 0.0000 0.0000 0.0000 0.0000 0.0000 28.5414
#
#
#
# Elastic Compliance Matrix: (Units=1/GPa)
#
#
# Indices 1 2 3 4 5 6 
#
# 1 0.020608 0.000620 -0.014805 0.000000 0.000000 0.000000
# 2 0.000620 0.030873 -0.012391 0.000000 0.000000 0.000000
# 3 -0.014805 -0.012391 0.028091 0.000000 0.000000 0.000000
# 4 0.000000 0.000000 0.000000 0.034294 0.000000 0.000000
# 5 0.000000 0.000000 0.000000 0.000000 0.022324 0.000000
# 6 0.000000 0.000000 0.000000 0.000000 0.000000 0.035037
#
#
# Mechanical properties :
#
#
# Convention : Reuss Voigt Hill
#
# Bulk Modulus (GPa) = 37.84884 46.74790 42.29837
# Shear Modulus (GPa) = 21.44206 27.42609 24.43408
#
# Velocity S-wave (km/s) = 3.13639 3.54714 3.34807
# Velocity P-wave (km/s) = 5.52085 6.18246 5.86099
#
# Compressibility (1/GPa) = 0.02642089
#
# Stress axis : x y z
#
# Youngs Moduli (GPa) = 48.52400 32.39056 35.59843
#
# Poissons Ratio (x) = -0.02008 0.52703
# Poissons Ratio (y) = -0.03008 0.44110
# Poissons Ratio (z) = 0.71839 0.40135
#
# Static dielectric constant tensor:
#      x y z
#    x 4.067770 0.000000 0.000000 
#    y 0.000000 4.196650 0.000000 
#    z 0.000000 0.000000 3.925950 
# 
# 
# High freq. dielectric constant tensor:
#      x y z
#    x 1.867800 0.000000 0.000000 
#    y 0.000000 1.866120 0.000000 
#    z 0.000000 0.000000 1.846050 
# 
# From -- ./inp_files/6103.got.cif
#   From: 2010.03.12/outbox.cif.g09.slc.cpg/sg62_4_cif.got.tgz:6103.got - 2010.04.10 19:12:36.
