data_PCOD8254875
_publ_section_title
;
Structure prediction by ZEFSAII (Michael W. Deem and Ramdas Pophale) SiO2 
 PCOD8254875
Probable space group: P N M A
;
_chemical_formula_sum "Si O2"
_cell_formula_units_Z 48
_cell_length_a 18.673005
_cell_length_b 8.420437
_cell_length_c 14.672043
_cell_angle_alpha 90.000000
_cell_angle_beta 90.000000
_cell_angle_gamma 90.000000
_cell_volume 2306.956659
_symmetry_space_group_name_H-M "P N M A"
_symmetry_group_IT_number 62
_symmetry_cell_setting 'orthorhombic'
loop_
_space_group_symop_operation_xyz
x,y,z
1/2-x,-y,1/2+z
1/2+x,1/2-y,1/2-z
-x,1/2+y,-z
-x,-y,-z
1/2+x,y,1/2-z
1/2-x,1/2+y,1/2+z
x,1/2-y,z
loop_
_atom_site_type_symbol
_atom_site_label
_atom_site_fract_x
_atom_site_fract_y
_atom_site_fract_z
Si Si1 0.742177 0.566569 0.201117
Si Si2 0.432012 0.935140 0.552634
Si Si3 0.681756 0.567676 0.865050
Si Si4 0.283486 0.432075 0.487297
Si Si5 0.917250 0.435108 0.753223
Si Si6 0.471796 0.936109 0.094933
O O1 0.753175 0.750000 0.225100
O O2 0.797906 0.464404 0.260160
O O3 0.661762 0.511299 0.223235
O O4 0.757855 0.541332 0.095241
O O5 0.422066 0.750000 0.533035
O O6 0.500000 0.000000 0.500000
O O7 0.363643 0.028526 0.516186
O O8 0.442253 0.964256 0.659984
O O9 0.695816 0.750000 0.890197
O O10 0.731476 0.458582 0.927576
O O11 0.599323 0.528679 0.878802
O O12 0.279148 0.250000 0.456878
O O13 0.919686 0.250000 0.778748
O O14 0.969458 0.475993 0.670558
O O15 0.455770 0.750000 0.088428
O O16 0.500000 0.000000 0.000000
#
# Coordination Sequence:
#
# PCOD8254875 Si02
#       6
#     8   8   8   8   8   8
#     4  11  23  42  69  99 132 172 218 272 333 396
#     4  12  26  44  68  96 133 175 223 275 332 400
#     4  12  25  43  66  98 135 175 224 273 326 394
#     4  12  25  44  69  98 133 173 223 277 332 393
#     4  10  23  44  69  97 134 173 218 272 334 395
#     4  11  24  43  68  99 135 175 220 275 334 397
#
# _framework density 20.806633000000001
#
# number of rings (size 3 to 8) (size 9 to 14) (size 15 to 20)
#    0.000    0.667    1.667    6.500    2.333    3.333 
#    0.000    0.000    0.000    0.000    0.000    0.000 
#    0.000    0.000    0.000    0.000    0.000    0.000 
#
# Total GULP energy -595646.426642 kJ/mol
# GULP energy per Si atom -12409.300555 kJ/mol
# Density = 2.075928 g / cm^3
# Si number density = 20.806633 Si / 1000 Ang^3
#
#
#
# Elastic Constant Matrix: (Units=GPa)
#
#
# Indices 1 2 3 4 5 6 
#
# 1 127.2532 43.7295 42.2783 0.0000 0.0000 0.0000
# 2 43.7295 87.9518 31.3069 0.0000 0.0000 0.0000
# 3 42.2783 31.3069 115.3103 0.0000 0.0000 0.0000
# 4 0.0000 0.0000 0.0000 39.8216 0.0000 0.0000
# 5 0.0000 0.0000 0.0000 0.0000 39.5315 0.0000
# 6 0.0000 0.0000 0.0000 0.0000 0.0000 32.5439
#
#
#
# Elastic Compliance Matrix: (Units=1/GPa)
#
#
# Indices 1 2 3 4 5 6 
#
# 1 0.010136 -0.004114 -0.002599 0.000000 0.000000 0.000000
# 2 -0.004114 0.014256 -0.002362 0.000000 0.000000 0.000000
# 3 -0.002599 -0.002362 0.010267 0.000000 0.000000 0.000000
# 4 0.000000 0.000000 0.000000 0.025112 0.000000 0.000000
# 5 0.000000 0.000000 0.000000 0.000000 0.025296 0.000000
# 6 0.000000 0.000000 0.000000 0.000000 0.000000 0.030728
#
#
# Mechanical properties :
#
#
# Convention : Reuss Voigt Hill
#
# Bulk Modulus (GPa) = 60.57891 62.79383 61.68637
# Shear Modulus (GPa) = 35.85561 36.59279 36.22420
#
# Velocity S-wave (km/s) = 4.15574 4.19824 4.17705
# Velocity P-wave (km/s) = 7.22532 7.33114 7.27842
#
# Compressibility (1/GPa) = 0.01650739
#
# Stress axis : x y z
#
# Youngs Moduli (GPa) = 98.66077 70.14457 97.40358
#
# Poissons Ratio (x) = 0.28859 0.25317
# Poissons Ratio (y) = 0.40592 0.23008
# Poissons Ratio (z) = 0.25644 0.16569
#
# Static dielectric constant tensor:
#      x y z
#    x 3.836410 0.000000 0.000000 
#    y 0.000000 3.773940 0.000000 
#    z 0.000000 0.000000 3.916590 
# 
# 
# High freq. dielectric constant tensor:
#      x y z
#    x 1.827690 0.000000 0.000000 
#    y 0.000000 1.823470 0.000000 
#    z 0.000000 0.000000 1.828640 
# 
# From -- ./inp_files/19568.got.cif
#   From: 2010.03.12/outbox.cif.g09.slc.cpg/sg62_10_cif.got.tgz:19568.got - 2010.04.10 19:12:36.
