data_PCOD8254573
_publ_section_title
;
Structure prediction by ZEFSAII (Michael W. Deem and Ramdas Pophale) SiO2 
 PCOD8254573
Probable space group: P N M A
;
_chemical_formula_sum "Si O2"
_cell_formula_units_Z 40
_cell_length_a 14.763444
_cell_length_b 25.966793
_cell_length_c 5.241688
_cell_angle_alpha 90.000000
_cell_angle_beta 90.000000
_cell_angle_gamma 90.000000
_cell_volume 2009.449813
_symmetry_space_group_name_H-M "P N M A"
_symmetry_group_IT_number 62
_symmetry_cell_setting 'orthorhombic'
loop_
_space_group_symop_operation_xyz
x,y,z
1/2-x,-y,1/2+z
1/2+x,1/2-y,1/2-z
-x,1/2+y,-z
-x,-y,-z
1/2+x,y,1/2-z
1/2-x,1/2+y,1/2+z
x,1/2-y,z
loop_
_atom_site_type_symbol
_atom_site_label
_atom_site_fract_x
_atom_site_fract_y
_atom_site_fract_z
Si Si1 0.393259 0.997358 0.032339
Si Si2 0.063871 0.690922 0.390213
Si Si3 0.972505 0.356888 0.112039
Si Si4 0.816702 0.109795 0.413719
Si Si5 0.630355 0.066001 0.452234
O O1 0.365208 0.966910 0.288405
O O2 0.352382 0.053694 0.015193
O O3 0.350396 0.969968 0.788141
O O4 0.500000 0.000000 0.000000
O O5 0.093266 0.750000 0.418578
O O6 0.012588 0.681744 0.123704
O O7 0.152017 0.653691 0.384419
O O8 0.999364 0.673591 0.627728
O O9 0.866554 0.375050 0.144470
O O10 0.032855 0.407405 0.071359
O O11 0.708070 0.109761 0.427699
#
# Coordination Sequence:
#
# PCOD8254573 Si02
#       5
#     8   8   8   8   8
#     4  12  23  39  62  91 129 168 201 244 306 371
#     4  10  22  43  65  85 119 161 207 261 313 352
#     4  10  22  40  64  86 122 160 202 250 306 363
#     4  10  25  38  65  90 129 156 214 246 309 361
#     4  12  24  39  63  94 130 162 204 247 306 369
#
# _framework density 19.905946
#
# number of rings (size 3 to 8) (size 9 to 14) (size 15 to 20)
#    1.200    0.000    2.000    4.800    5.600    0.000 
#    0.000    2.000    0.000    0.000    0.000    0.000 
#    0.000    0.000    0.000    0.000    0.000    0.000 
#
# Total GULP energy -495550.541636 kJ/mol
# GULP energy per Si atom -12388.763541 kJ/mol
# Density = 1.986064 g / cm^3
# Si number density = 19.905946 Si / 1000 Ang^3
#
#
#
# Elastic Constant Matrix: (Units=GPa)
#
#
# Indices 1 2 3 4 5 6 
#
# 1 61.1248 14.2683 13.7700 0.0000 0.0000 0.0000
# 2 14.2683 133.3687 58.5168 0.0000 0.0000 0.0000
# 3 13.7700 58.5168 161.3745 0.0000 0.0000 0.0000
# 4 0.0000 0.0000 0.0000 25.6755 0.0000 0.0000
# 5 0.0000 0.0000 0.0000 0.0000 10.3710 0.0000
# 6 0.0000 0.0000 0.0000 0.0000 0.0000 10.3201
#
#
#
# Elastic Compliance Matrix: (Units=1/GPa)
#
#
# Indices 1 2 3 4 5 6 
#
# 1 0.016897 -0.001397 -0.000935 0.000000 0.000000 0.000000
# 2 -0.001397 0.009032 -0.003156 0.000000 0.000000 0.000000
# 3 -0.000935 -0.003156 0.007421 0.000000 0.000000 0.000000
# 4 0.000000 0.000000 0.000000 0.038948 0.000000 0.000000
# 5 0.000000 0.000000 0.000000 0.000000 0.096423 0.000000
# 6 0.000000 0.000000 0.000000 0.000000 0.000000 0.096899
#
#
# Mechanical properties :
#
#
# Convention : Reuss Voigt Hill
#
# Bulk Modulus (GPa) = 44.69659 58.77538 51.73599
# Shear Modulus (GPa) = 17.60231 27.22750 22.41491
#
# Velocity S-wave (km/s) = 2.97690 3.70240 3.35929
# Velocity P-wave (km/s) = 5.85820 6.91865 6.41039
#
# Compressibility (1/GPa) = 0.02237307
#
# Stress axis : x y z
#
# Youngs Moduli (GPa) = 59.18269 110.71464 134.75341
#
# Poissons Ratio (x) = 0.15471 0.12600
# Poissons Ratio (y) = 0.08270 0.42528
# Poissons Ratio (z) = 0.05534 0.34941
#
# Static dielectric constant tensor:
#      x y z
#    x 3.852900 0.000000 0.000000 
#    y 0.000000 3.516720 0.000000 
#    z 0.000000 0.000000 3.896510 
# 
# 
# High freq. dielectric constant tensor:
#      x y z
#    x 1.750590 0.000000 0.000000 
#    y 0.000000 1.771180 0.000000 
#    z 0.000000 0.000000 1.789820 
# 
# From -- ./inp_files/1075.got.cif
#   From: 2010.03.12/outbox.cif.g09.slc.cpg/sg62_1_cif.got.tgz:1075.got - 2010.04.10 19:12:36.
