data_PCOD8254530
_publ_section_title
;
Structure prediction by ZEFSAII (Michael W. Deem and Ramdas Pophale) SiO2 
 PCOD8254530
Probable space group: P N M A
;
_chemical_formula_sum "Si O2"
_cell_formula_units_Z 40
_cell_length_a 10.304949
_cell_length_b 25.489285
_cell_length_c 6.501542
_cell_angle_alpha 90.000000
_cell_angle_beta 90.000000
_cell_angle_gamma 90.000000
_cell_volume 1707.732613
_symmetry_space_group_name_H-M "P N M A"
_symmetry_group_IT_number 62
_symmetry_cell_setting 'orthorhombic'
loop_
_space_group_symop_operation_xyz
x,y,z
1/2-x,-y,1/2+z
1/2+x,1/2-y,1/2-z
-x,1/2+y,-z
-x,-y,-z
1/2+x,y,1/2-z
1/2-x,1/2+y,1/2+z
x,1/2-y,z
loop_
_atom_site_type_symbol
_atom_site_label
_atom_site_fract_x
_atom_site_fract_y
_atom_site_fract_z
Si Si1 0.356711 0.188669 0.922282
Si Si2 0.376451 0.637060 0.178998
Si Si3 0.209469 0.623722 0.789934
Si Si4 0.897954 0.455993 0.946907
Si Si5 0.740095 0.450345 0.579057
O O1 0.379081 0.250000 0.904342
O O2 0.479743 0.160662 0.814909
O O3 0.224761 0.172448 0.807652
O O4 0.344031 0.173925 0.165049
O O5 0.377848 0.578158 0.285700
O O6 0.328021 0.637021 0.942681
O O7 0.091390 0.597860 0.923604
O O8 0.256360 0.580403 0.631369
O O9 0.770392 0.487977 0.029083
O O10 0.873759 0.442269 0.707257
O O11 0.000000 0.500000 0.000000
#
# Coordination Sequence:
#
# PCOD8254530 Si02
#       5
#     8   8   8   8   8
#     4  11  25  46  72  99 131 177 230 290 350 406
#     4  10  25  44  70  98 137 174 228 284 341 409
#     4  10  24  42  62  99 137 175 225 276 332 411
#     4  11  23  36  64  92 134 179 215 268 329 399
#     4  10  22  40  58  96 134 174 221 268 331 398
#
# _framework density 23.42287
#
# number of rings (size 3 to 8) (size 9 to 14) (size 15 to 20)
#    0.000    1.600    2.000    0.600   11.200    4.000 
#    0.000    0.000    0.000    0.000    0.000    0.000 
#    0.000    0.000    0.000    0.000    0.000    0.000 
#
# Total GULP energy -495540.635693 kJ/mol
# GULP energy per Si atom -12388.515892 kJ/mol
# Density = 2.336956 g / cm^3
# Si number density = 23.422870 Si / 1000 Ang^3
#
#
#
# Elastic Constant Matrix: (Units=GPa)
#
#
# Indices 1 2 3 4 5 6 
#
# 1 26.2376 -17.4220 -3.1570 0.0000 0.0000 0.0000
# 2 -17.4220 81.5685 15.5119 0.0000 0.0000 0.0000
# 3 -3.1570 15.5119 112.8985 0.0000 0.0000 0.0000
# 4 0.0000 0.0000 0.0000 34.1636 0.0000 0.0000
# 5 0.0000 0.0000 0.0000 0.0000 -0.3751 0.0000
# 6 0.0000 0.0000 0.0000 0.0000 0.0000 30.2914
#
#
#
# Elastic Compliance Matrix: (Units=1/GPa)
#
#
# Indices 1 2 3 4 5 6 
#
# 1 0.044412 0.009498 -0.000063 0.000000 0.000000 0.000000
# 2 0.009498 0.014620 -0.001743 0.000000 0.000000 0.000000
# 3 -0.000063 -0.001743 0.009095 0.000000 0.000000 0.000000
# 4 0.000000 0.000000 0.000000 0.029271 0.000000 0.000000
# 5 0.000000 0.000000 0.000000 0.000000 -2.666079 0.000000
# 6 0.000000 0.000000 0.000000 0.000000 0.000000 0.033013
#
#
# Mechanical properties :
#
#
# Convention : Reuss Voigt Hill
#
# Bulk Modulus (GPa) = 11.97452 23.39671 17.68562
# Shear Modulus (GPa) = -1.98160 27.86745 12.94292
#
# Velocity S-wave (km/s) = -0.92079 3.45302 2.35324
# Velocity P-wave (km/s) = 1.99824 5.09002 3.86661
#
# Compressibility (1/GPa) = 0.08351064
#
# Stress axis : x y z
#
# Youngs Moduli (GPa) = 22.51631 68.40069 109.94756
#
# Poissons Ratio (x) = -0.64966 0.00693
# Poissons Ratio (y) = -0.21386 0.19165
# Poissons Ratio (z) = 0.00142 0.11923
#
# Static dielectric constant tensor:
#      x y z
#    x 4.470730 0.000000 0.000000 
#    y 0.000000 5.609950 0.000000 
#    z 0.000000 0.000000 5.217690 
# 
# 
# High freq. dielectric constant tensor:
#      x y z
#    x 1.919800 0.000000 0.000000 
#    y 0.000000 1.921510 0.000000 
#    z 0.000000 0.000000 1.944940 
# 
# From -- ./inp_files/605.got.cif
#   From: 2010.03.12/outbox.cif.g09.slc.cpg/sg62_1_cif.got.tgz:605.got - 2010.04.10 19:12:36.
