data_PCOD8254956
_publ_section_title
;
Structure prediction by ZEFSAII (Michael W. Deem and Ramdas Pophale) SiO2 
 PCOD8254956
Probable space group: P N M A
;
_chemical_formula_sum "Si O2"
_cell_formula_units_Z 64
_cell_length_a 9.849344
_cell_length_b 29.402286
_cell_length_c 13.277663
_cell_angle_alpha 90.000000
_cell_angle_beta 90.000000
_cell_angle_gamma 90.000000
_cell_volume 3845.121304
_symmetry_space_group_name_H-M "P N M A"
_symmetry_group_IT_number 62
_symmetry_cell_setting 'orthorhombic'
loop_
_space_group_symop_operation_xyz
x,y,z
1/2-x,-y,1/2+z
1/2+x,1/2-y,1/2-z
-x,1/2+y,-z
-x,-y,-z
1/2+x,y,1/2-z
1/2-x,1/2+y,1/2+z
x,1/2-y,z
loop_
_atom_site_type_symbol
_atom_site_label
_atom_site_fract_x
_atom_site_fract_y
_atom_site_fract_z
Si Si1 0.942078 0.300730 0.184035
Si Si2 0.312368 0.957162 0.948122
Si Si3 0.744623 0.300331 0.364180
Si Si4 0.567050 0.606233 0.608052
Si Si5 0.223599 0.390823 0.033657
Si Si6 0.810851 0.445172 0.652379
Si Si7 0.066787 0.934304 0.678562
Si Si8 0.389384 0.536243 0.178736
O O1 0.904621 0.250000 0.142916
O O2 0.871295 0.309085 0.291065
O O3 0.894062 0.339833 0.105124
O O4 0.104708 0.305366 0.199228
O O5 0.185383 0.924289 0.936213
O O6 0.441225 0.932710 0.898361
O O7 0.285211 0.005932 0.898517
O O8 0.338024 0.964941 0.064926
O O9 0.754269 0.250000 0.412583
O O10 0.748250 0.336764 0.454458
O O11 0.434841 0.596399 0.541115
O O12 0.533064 0.595806 0.724549
O O13 0.299261 0.416653 0.123698
O O14 0.276605 0.405171 0.924904
O O15 0.717275 0.438190 0.750203
O O16 0.966100 0.438717 0.686364
O O17 0.095229 0.984937 0.718077
#
# Coordination Sequence:
#
# PCOD8254956 Si02
#       8
#     8   8   8   8   8   8   8   8
#     4   9  18  31  47  74 106 136 171 206 253 310
#     4  11  22  36  51  76 107 138 178 213 257 306
#     4   9  18  32  51  75 105 137 169 209 257 311
#     4  11  22  30  53  79 103 145 174 209 253 314
#     4  11  21  34  51  77 107 136 178 211 255 308
#     4  11  23  38  54  74 102 140 176 221 258 305
#     4  11  19  35  50  74 108 142 172 209 255 300
#     4  11  23  37  53  72 105 141 174 217 261 297
#
# _framework density 16.644469999999998
#
# number of rings (size 3 to 8) (size 9 to 14) (size 15 to 20)
#    0.000    1.500    5.000    1.500    5.250    0.500 
#    0.000    0.000    0.000    0.000    0.000    1.750 
#    0.000    0.000    0.000    0.000    0.000    0.000 
#
# Total GULP energy -793609.154318 kJ/mol
# GULP energy per Si atom -12400.143036 kJ/mol
# Density = 1.660659 g / cm^3
# Si number density = 16.644470 Si / 1000 Ang^3
#
#
#
# Elastic Constant Matrix: (Units=GPa)
#
#
# Indices 1 2 3 4 5 6 
#
# 1 94.2953 48.4202 39.5677 0.0000 0.0000 0.0000
# 2 48.4202 69.8805 12.2205 0.0000 0.0000 0.0000
# 3 39.5677 12.2205 63.2230 0.0000 0.0000 0.0000
# 4 0.0000 0.0000 0.0000 20.6275 0.0000 0.0000
# 5 0.0000 0.0000 0.0000 0.0000 26.3934 0.0000
# 6 0.0000 0.0000 0.0000 0.0000 0.0000 23.0029
#
#
#
# Elastic Compliance Matrix: (Units=1/GPa)
#
#
# Indices 1 2 3 4 5 6 
#
# 1 0.022266 -0.013446 -0.011336 0.000000 0.000000 0.000000
# 2 -0.013446 0.022930 0.003983 0.000000 0.000000 0.000000
# 3 -0.011336 0.003983 0.022142 0.000000 0.000000 0.000000
# 4 0.000000 0.000000 0.000000 0.048479 0.000000 0.000000
# 5 0.000000 0.000000 0.000000 0.000000 0.037888 0.000000
# 6 0.000000 0.000000 0.000000 0.000000 0.000000 0.043473
#
#
# Mechanical properties :
#
#
# Convention : Reuss Voigt Hill
#
# Bulk Modulus (GPa) = 38.85031 47.53506 43.19269
# Shear Modulus (GPa) = 20.21372 22.48412 21.34892
#
# Velocity S-wave (km/s) = 3.48866 3.67937 3.58529
# Velocity P-wave (km/s) = 6.29441 6.83165 6.56853
#
# Compressibility (1/GPa) = 0.02573982
#
# Stress axis : x y z
#
# Youngs Moduli (GPa) = 44.91120 43.61058 45.16328
#
# Poissons Ratio (x) = 0.58638 0.51198
# Poissons Ratio (y) = 0.60387 -0.17987
# Poissons Ratio (z) = 0.50912 -0.17369
#
# Static dielectric constant tensor:
#      x y z
#    x 3.312610 0.000000 0.000000 
#    y 0.000000 3.280890 0.000000 
#    z 0.000000 0.000000 2.893380 
# 
# 
# High freq. dielectric constant tensor:
#      x y z
#    x 1.657450 0.000000 0.000000 
#    y 0.000000 1.635260 0.000000 
#    z 0.000000 0.000000 1.608430 
# 
# From -- ./inp_files/17443.got.cif
#   From: 2010.03.12/outbox.cif.g09.slc.cpg/sg62_9_cif.got.tgz:17443.got - 2010.04.10 19:12:36.
