data_PCOD8254149
_publ_section_title
;
Structure prediction by ZEFSAII (Michael W. Deem and Ramdas Pophale) SiO2 
 PCOD8254149
Probable space group: P N M A
;
_chemical_formula_sum "Si O2"
_cell_formula_units_Z 64
_cell_length_a 14.298079
_cell_length_b 9.073802
_cell_length_c 24.951050
_cell_angle_alpha 90.000000
_cell_angle_beta 90.000000
_cell_angle_gamma 90.000000
_cell_volume 3237.097774
_symmetry_space_group_name_H-M "P N M A"
_symmetry_group_IT_number 62
_symmetry_cell_setting 'orthorhombic'
loop_
_space_group_symop_operation_xyz
x,y,z
1/2-x,-y,1/2+z
1/2+x,1/2-y,1/2-z
-x,1/2+y,-z
-x,-y,-z
1/2+x,y,1/2-z
1/2-x,1/2+y,1/2+z
x,1/2-y,z
loop_
_atom_site_type_symbol
_atom_site_label
_atom_site_fract_x
_atom_site_fract_y
_atom_site_fract_z
Si Si1 0.647900 0.577679 0.228051
Si Si2 0.458227 0.424701 0.551891
Si Si3 0.695542 0.079074 0.120109
Si Si4 0.598369 0.423411 0.009314
Si Si5 0.750140 0.424855 0.924497
Si Si6 0.312497 0.577620 0.191465
Si Si7 0.034919 0.580968 0.752410
Si Si8 0.092332 0.582618 0.871211
O O1 0.627418 0.750000 0.226286
O O2 0.657157 0.519586 0.167958
O O3 0.739551 0.540394 0.261940
O O4 0.563681 0.499076 0.258721
O O5 0.500000 0.500000 0.500000
O O6 0.461404 0.250000 0.545263
O O7 0.352600 0.483441 0.559462
O O8 0.518924 0.470511 0.603197
O O9 0.684016 0.250000 0.135869
O O10 0.635946 0.037000 0.068081
O O11 0.804024 0.043994 0.107935
O O12 0.584912 0.250000 0.002156
O O13 0.500000 0.500000 0.000000
O O14 0.673092 0.484789 0.966175
O O15 0.752238 0.250000 0.925448
O O16 0.725685 0.482087 0.865120
O O17 0.335060 0.750000 0.188536
O O18 0.407790 0.492387 0.204077
O O19 0.017624 0.750000 0.737589
O O20 0.091634 0.562340 0.807422
O O21 0.065562 0.750000 0.887337
#
# Coordination Sequence:
#
# PCOD8254149 Si02
#       8
#     8   8   8   8   8   8   8   8
#     4  11  23  38  60  90 124 160 204 255 301 361
#     4  11  22  38  63  91 122 158 202 250 305 367
#     4  10  21  40  62  85 120 161 203 249 305 368
#     4  10  22  40  62  85 115 155 202 252 302 357
#     4   9  20  40  62  84 117 160 197 245 308 363
#     4  10  21  39  62  89 120 157 203 248 300 358
#     4  11  23  38  60  88 122 161 199 246 306 370
#     4  10  21  39  62  89 123 160 198 245 305 369
#
# _framework density 19.770796000000001
#
# number of rings (size 3 to 8) (size 9 to 14) (size 15 to 20)
#    0.000    1.750    1.250    2.625    1.750    5.500 
#    0.000    3.750    0.000    0.000    0.000    0.000 
#    0.000    0.000    0.000    0.000    0.000    0.000 
#
# Total GULP energy -793908.827329 kJ/mol
# GULP energy per Si atom -12404.825427 kJ/mol
# Density = 1.972580 g / cm^3
# Si number density = 19.770796 Si / 1000 Ang^3
#
#
#
# Elastic Constant Matrix: (Units=GPa)
#
#
# Indices 1 2 3 4 5 6 
#
# 1 116.6684 44.2541 39.6966 0.0000 0.0000 0.0000
# 2 44.2541 67.0110 36.4545 0.0000 0.0000 0.0000
# 3 39.6966 36.4545 109.9567 0.0000 0.0000 0.0000
# 4 0.0000 0.0000 0.0000 32.4565 0.0000 0.0000
# 5 0.0000 0.0000 0.0000 0.0000 37.4121 0.0000
# 6 0.0000 0.0000 0.0000 0.0000 0.0000 35.4322
#
#
#
# Elastic Compliance Matrix: (Units=1/GPa)
#
#
# Indices 1 2 3 4 5 6 
#
# 1 0.011801 -0.006681 -0.002046 0.000000 0.000000 0.000000
# 2 -0.006681 0.021989 -0.004878 0.000000 0.000000 0.000000
# 3 -0.002046 -0.004878 0.011450 0.000000 0.000000 0.000000
# 4 0.000000 0.000000 0.000000 0.030810 0.000000 0.000000
# 5 0.000000 0.000000 0.000000 0.000000 0.026729 0.000000
# 6 0.000000 0.000000 0.000000 0.000000 0.000000 0.028223
#
#
# Mechanical properties :
#
#
# Convention : Reuss Voigt Hill
#
# Bulk Modulus (GPa) = 55.45929 59.38296 57.42112
# Shear Modulus (GPa) = 30.44644 32.60887 31.52765
#
# Velocity S-wave (km/s) = 3.92850 4.06562 3.99765
# Velocity P-wave (km/s) = 6.97779 7.22080 7.10033
#
# Compressibility (1/GPa) = 0.01803124
#
# Stress axis : x y z
#
# Youngs Moduli (GPa) = 84.73506 45.47792 87.33422
#
# Poissons Ratio (x) = 0.30383 0.17865
# Poissons Ratio (y) = 0.56610 0.42602
# Poissons Ratio (z) = 0.17334 0.22185
#
# Static dielectric constant tensor:
#      x y z
#    x 3.747850 0.000000 0.000000 
#    y 0.000000 3.462940 0.000000 
#    z 0.000000 0.000000 3.701500 
# 
# 
# High freq. dielectric constant tensor:
#      x y z
#    x 1.783530 0.000000 0.000000 
#    y 0.000000 1.755690 0.000000 
#    z 0.000000 0.000000 1.780890 
# 
# From -- ./inp_files/29776.got.cif
#   From: 2010.03.12/outbox.cif.g09.slc.cpg/sg62_15_cif.got.tgz:29776.got - 2010.04.10 19:12:36.
