data_PCOD8254163
_publ_section_title
;
Structure prediction by ZEFSAII (Michael W. Deem and Ramdas Pophale) SiO2 
 PCOD8254163
Probable space group: P N M A
;
_chemical_formula_sum "Si O2"
_cell_formula_units_Z 48
_cell_length_a 18.542101
_cell_length_b 8.577125
_cell_length_c 15.033558
_cell_angle_alpha 90.000000
_cell_angle_beta 90.000000
_cell_angle_gamma 90.000000
_cell_volume 2390.905765
_symmetry_space_group_name_H-M "P N M A"
_symmetry_group_IT_number 62
_symmetry_cell_setting 'orthorhombic'
loop_
_space_group_symop_operation_xyz
x,y,z
1/2-x,-y,1/2+z
1/2+x,1/2-y,1/2-z
-x,1/2+y,-z
-x,-y,-z
1/2+x,y,1/2-z
1/2-x,1/2+y,1/2+z
x,1/2-y,z
loop_
_atom_site_type_symbol
_atom_site_label
_atom_site_fract_x
_atom_site_fract_y
_atom_site_fract_z
Si Si1 0.844834 0.428643 0.600188
Si Si2 0.077091 0.431560 0.755435
Si Si3 0.183173 0.569560 0.103028
Si Si4 0.836327 0.069411 0.398575
Si Si5 0.075334 0.429395 0.241106
Si Si6 0.680051 0.431185 0.585716
O O1 0.862922 0.250000 0.623638
O O2 0.863670 0.467403 0.498027
O O3 0.893407 0.538513 0.660987
O O4 0.760901 0.463734 0.619448
O O5 0.088586 0.250000 0.736742
O O6 0.099556 0.527209 0.668065
O O7 0.125571 0.486772 0.838229
O O8 0.994593 0.466326 0.777841
O O9 0.168892 0.750000 0.122657
O O10 0.266211 0.531929 0.124392
O O11 0.134280 0.467733 0.167438
O O12 0.162857 0.530910 0.001690
O O13 0.814536 0.250000 0.391297
O O14 0.053084 0.250000 0.234626
O O15 0.670403 0.250000 0.561097
#
# Coordination Sequence:
#
# PCOD8254163 Si02
#       6
#     8   8   8   8   8   8
#     4   9  19  38  62  87 115 147 189 239 288 341
#     4  11  23  39  60  86 119 156 193 236 288 345
#     4  11  22  38  62  88 115 150 192 238 287 341
#     4  10  21  39  63  89 117 149 189 238 287 340
#     4  12  25  39  57  83 118 157 196 239 288 343
#     4   9  20  39  62  87 114 147 189 238 288 340
#
# _framework density 20.076073999999998
#
# number of rings (size 3 to 8) (size 9 to 14) (size 15 to 20)
#    0.000    1.667    0.000    6.000    0.000    7.333 
#    0.000    0.000    0.000    0.000    0.000    0.000 
#    0.000    0.000    0.000    0.000    0.000    0.000 
#
# Total GULP energy -595525.119991 kJ/mol
# GULP energy per Si atom -12406.773333 kJ/mol
# Density = 2.003038 g / cm^3
# Si number density = 20.076074 Si / 1000 Ang^3
#
#
#
# Elastic Constant Matrix: (Units=GPa)
#
#
# Indices 1 2 3 4 5 6 
#
# 1 53.5312 16.7168 27.4552 0.0000 0.0000 0.0000
# 2 16.7168 63.7724 30.7971 0.0000 0.0000 0.0000
# 3 27.4552 30.7971 75.9314 0.0000 0.0000 0.0000
# 4 0.0000 0.0000 0.0000 34.1947 0.0000 0.0000
# 5 0.0000 0.0000 0.0000 0.0000 8.3516 0.0000
# 6 0.0000 0.0000 0.0000 0.0000 0.0000 31.9967
#
#
#
# Elastic Compliance Matrix: (Units=1/GPa)
#
#
# Indices 1 2 3 4 5 6 
#
# 1 0.023258 -0.002531 -0.007383 0.000000 0.000000 0.000000
# 2 -0.002531 0.019776 -0.007106 0.000000 0.000000 0.000000
# 3 -0.007383 -0.007106 0.018721 0.000000 0.000000 0.000000
# 4 0.000000 0.000000 0.000000 0.029244 0.000000 0.000000
# 5 0.000000 0.000000 0.000000 0.000000 0.119738 0.000000
# 6 0.000000 0.000000 0.000000 0.000000 0.000000 0.031253
#
#
# Mechanical properties :
#
#
# Convention : Reuss Voigt Hill
#
# Bulk Modulus (GPa) = 36.08121 38.13035 37.10578
# Shear Modulus (GPa) = 17.52740 22.79299 20.16019
#
# Velocity S-wave (km/s) = 2.95795 3.37312 3.17233
# Velocity P-wave (km/s) = 5.44768 5.84848 5.65163
#
# Compressibility (1/GPa) = 0.02771526
#
# Stress axis : x y z
#
# Youngs Moduli (GPa) = 42.99655 50.56701 53.41522
#
# Poissons Ratio (x) = 0.12800 0.39436
# Poissons Ratio (y) = 0.10883 0.37955
# Poissons Ratio (z) = 0.31744 0.35931
#
# Static dielectric constant tensor:
#      x y z
#    x 3.507540 0.000000 0.000000 
#    y 0.000000 3.533750 0.000000 
#    z 0.000000 0.000000 3.717800 
# 
# 
# High freq. dielectric constant tensor:
#      x y z
#    x 1.777760 0.000000 0.000000 
#    y 0.000000 1.785000 0.000000 
#    z 0.000000 0.000000 1.793750 
# 
# From -- ./inp_files/19514.got.cif
#   From: 2010.03.12/outbox.cif.g09.slc.cpg/sg62_10_cif.got.tgz:19514.got - 2010.04.10 19:12:36.
