data_PCOD8254109
_publ_section_title
;
Structure prediction by ZEFSAII (Michael W. Deem and Ramdas Pophale) SiO2 
 PCOD8254109
Probable space group: P N M A
;
_chemical_formula_sum "Si O2"
_cell_formula_units_Z 64
_cell_length_a 15.179080
_cell_length_b 9.306695
_cell_length_c 23.822812
_cell_angle_alpha 90.000000
_cell_angle_beta 90.000000
_cell_angle_gamma 90.000000
_cell_volume 3365.378801
_symmetry_space_group_name_H-M "P N M A"
_symmetry_group_IT_number 62
_symmetry_cell_setting 'orthorhombic'
loop_
_space_group_symop_operation_xyz
x,y,z
1/2-x,-y,1/2+z
1/2+x,1/2-y,1/2-z
-x,1/2+y,-z
-x,-y,-z
1/2+x,y,1/2-z
1/2-x,1/2+y,1/2+z
x,1/2-y,z
loop_
_atom_site_type_symbol
_atom_site_label
_atom_site_fract_x
_atom_site_fract_y
_atom_site_fract_z
Si Si1 0.756604 0.917890 0.445786
Si Si2 0.093162 0.577914 0.753278
Si Si3 0.911791 0.412940 0.504803
Si Si4 0.259004 0.916685 0.185822
Si Si5 0.585469 0.588133 0.512420
Si Si6 0.332264 0.090856 0.876431
Si Si7 0.833533 0.088926 0.128653
Si Si8 0.589592 0.581035 0.240149
O O1 0.774488 0.750000 0.458534
O O2 0.744687 0.946671 0.379817
O O3 0.669430 0.972401 0.478273
O O4 0.837171 0.010261 0.468551
O O5 0.089145 0.750000 0.746198
O O6 0.158464 0.511512 0.706764
O O7 0.128187 0.527141 0.813808
O O8 0.995789 0.513602 0.751700
O O9 0.921908 0.250000 0.482225
O O10 0.896086 0.411127 0.571003
O O11 0.000000 0.500000 0.500000
O O12 0.281556 0.750000 0.197309
O O13 0.168499 0.960006 0.217216
O O14 0.500000 0.500000 0.500000
O O15 0.569378 0.750000 0.492135
O O16 0.595494 0.579125 0.579366
O O17 0.297318 0.250000 0.862847
O O18 0.382221 0.032423 0.821971
O O19 0.249820 0.996507 0.892745
O O20 0.801438 0.250000 0.138817
O O21 0.566268 0.750000 0.244060
#
# Coordination Sequence:
#
# PCOD8254109 Si02
#       8
#     8   8   8   8   8   8   8   8
#     4  10  22  41  62  86 119 157 197 241 291 350
#     4  11  24  39  59  90 121 154 194 241 297 354
#     4  11  24  40  61  90 119 155 198 244 294 348
#     4  10  22  41  63  86 116 156 199 242 290 347
#     4  10  22  39  60  87 118 155 195 239 290 346
#     4  10  21  39  63  87 111 148 202 248 286 340
#     4  10  21  39  61  85 117 154 194 242 297 347
#     4  10  22  40  62  87 116 155 198 243 291 345
#
# _framework density 19.017177
#
# number of rings (size 3 to 8) (size 9 to 14) (size 15 to 20)
#    0.000    1.750    2.500    0.750    3.500    3.500 
#    0.000    0.000    0.000    0.000    0.000    0.000 
#    0.000    0.000    0.000    0.000    0.000    0.000 
#
# Total GULP energy -793647.906572 kJ/mol
# GULP energy per Si atom -12400.748540 kJ/mol
# Density = 1.897389 g / cm^3
# Si number density = 19.017177 Si / 1000 Ang^3
#
#
#
# Elastic Constant Matrix: (Units=GPa)
#
#
# Indices 1 2 3 4 5 6 
#
# 1 141.0742 70.3030 39.9206 0.0000 0.0000 0.0000
# 2 70.3030 86.2037 37.1040 0.0000 0.0000 0.0000
# 3 39.9206 37.1040 110.5914 0.0000 0.0000 0.0000
# 4 0.0000 0.0000 0.0000 28.7661 0.0000 0.0000
# 5 0.0000 0.0000 0.0000 0.0000 25.4315 0.0000
# 6 0.0000 0.0000 0.0000 0.0000 0.0000 41.3894
#
#
#
# Elastic Compliance Matrix: (Units=1/GPa)
#
#
# Indices 1 2 3 4 5 6 
#
# 1 0.012084 -0.009324 -0.001234 0.000000 0.000000 0.000000
# 2 -0.009324 0.020753 -0.003597 0.000000 0.000000 0.000000
# 3 -0.001234 -0.003597 0.010694 0.000000 0.000000 0.000000
# 4 0.000000 0.000000 0.000000 0.034763 0.000000 0.000000
# 5 0.000000 0.000000 0.000000 0.000000 0.039321 0.000000
# 6 0.000000 0.000000 0.000000 0.000000 0.000000 0.024161
#
#
# Mechanical properties :
#
#
# Convention : Reuss Voigt Hill
#
# Bulk Modulus (GPa) = 65.69519 70.28049 67.98784
# Shear Modulus (GPa) = 28.54522 31.82017 30.18269
#
# Velocity S-wave (km/s) = 3.87851 4.09495 3.98820
# Velocity P-wave (km/s) = 7.39441 7.70680 7.55222
#
# Compressibility (1/GPa) = 0.01522182
#
# Stress axis : x y z
#
# Youngs Moduli (GPa) = 82.75257 48.18595 93.50651
#
# Poissons Ratio (x) = 0.44929 0.11537
# Poissons Ratio (y) = 0.77160 0.33634
# Poissons Ratio (z) = 0.10210 0.17332
#
# Static dielectric constant tensor:
#      x y z
#    x 3.371330 0.000000 0.000000 
#    y 0.000000 3.545330 0.000000 
#    z 0.000000 0.000000 3.805140 
# 
# 
# High freq. dielectric constant tensor:
#      x y z
#    x 1.740550 0.000000 0.000000 
#    y 0.000000 1.738460 0.000000 
#    z 0.000000 0.000000 1.755410 
# 
# From -- ./inp_files/29758.got.cif
#   From: 2010.03.12/outbox.cif.g09.slc.cpg/sg62_15_cif.got.tgz:29758.got - 2010.04.10 19:12:36.
