data_PCOD8254495
_publ_section_title
;
Structure prediction by ZEFSAII (Michael W. Deem and Ramdas Pophale) SiO2 
 PCOD8254495
Probable space group: P N M A
;
_chemical_formula_sum "Si O2"
_cell_formula_units_Z 48
_cell_length_a 8.892824
_cell_length_b 25.672998
_cell_length_c 10.092179
_cell_angle_alpha 90.000000
_cell_angle_beta 90.000000
_cell_angle_gamma 90.000000
_cell_volume 2304.099496
_symmetry_space_group_name_H-M "P N M A"
_symmetry_group_IT_number 62
_symmetry_cell_setting 'orthorhombic'
loop_
_space_group_symop_operation_xyz
x,y,z
1/2-x,-y,1/2+z
1/2+x,1/2-y,1/2-z
-x,1/2+y,-z
-x,-y,-z
1/2+x,y,1/2-z
1/2-x,1/2+y,1/2+z
x,1/2-y,z
loop_
_atom_site_type_symbol
_atom_site_label
_atom_site_fract_x
_atom_site_fract_y
_atom_site_fract_z
Si Si1 0.862974 0.526874 0.148290
Si Si2 0.447016 0.643598 0.373416
Si Si3 0.772238 0.689686 0.363208
Si Si4 0.288975 0.855718 0.651335
Si Si5 0.168028 0.027453 0.145108
Si Si6 0.966144 0.810098 0.614034
O O1 0.930928 0.583911 0.170825
O O2 0.749232 0.515801 0.266989
O O3 0.990443 0.482799 0.149916
O O4 0.775600 0.523911 0.007465
O O5 0.622671 0.655735 0.370443
O O6 0.356261 0.680922 0.275074
O O7 0.384072 0.653788 0.519225
O O8 0.727964 0.750000 0.376986
O O9 0.882325 0.671942 0.480852
O O10 0.302351 0.915061 0.701792
O O11 0.354262 0.817959 0.763137
O O12 0.114461 0.844489 0.627920
O O13 0.013478 0.750000 0.605971
#
# Coordination Sequence:
#
# PCOD8254495 Si02
#       6
#     8   8   8   8   8   8
#     4  10  22  40  61  88 119 154 199 245 296 355
#     4  11  23  40  63  89 121 159 200 249 301 356
#     4  11  24  41  63  91 122 159 202 249 302 359
#     4  11  23  40  62  90 123 159 201 248 299 356
#     4  10  22  39  60  88 119 154 197 245 296 353
#     4  11  24  40  61  89 120 158 201 245 298 358
#
# _framework density 20.832433000000002
#
# number of rings (size 3 to 8) (size 9 to 14) (size 15 to 20)
#    0.000    1.333    0.000    5.000    0.000   11.333 
#    0.000    0.000    0.000    0.000    0.000    0.000 
#    0.000    0.000    0.000    0.000    0.000    0.000 
#
# Total GULP energy -595570.063063 kJ/mol
# GULP energy per Si atom -12407.709647 kJ/mol
# Density = 2.078502 g / cm^3
# Si number density = 20.832433 Si / 1000 Ang^3
#
#
#
# Elastic Constant Matrix: (Units=GPa)
#
#
# Indices 1 2 3 4 5 6 
#
# 1 71.7153 13.6643 16.3277 0.0000 0.0000 0.0000
# 2 13.6643 55.6400 32.4913 0.0000 0.0000 0.0000
# 3 16.3277 32.4913 77.5431 0.0000 0.0000 0.0000
# 4 0.0000 0.0000 0.0000 20.9977 0.0000 0.0000
# 5 0.0000 0.0000 0.0000 0.0000 27.8292 0.0000
# 6 0.0000 0.0000 0.0000 0.0000 0.0000 38.8007
#
#
#
# Elastic Compliance Matrix: (Units=1/GPa)
#
#
# Indices 1 2 3 4 5 6 
#
# 1 0.014888 -0.002417 -0.002122 0.000000 0.000000 0.000000
# 2 -0.002417 0.024187 -0.009626 0.000000 0.000000 0.000000
# 3 -0.002122 -0.009626 0.017376 0.000000 0.000000 0.000000
# 4 0.000000 0.000000 0.000000 0.047624 0.000000 0.000000
# 5 0.000000 0.000000 0.000000 0.000000 0.035933 0.000000
# 6 0.000000 0.000000 0.000000 0.000000 0.000000 0.025773
#
#
# Mechanical properties :
#
#
# Convention : Reuss Voigt Hill
#
# Bulk Modulus (GPa) = 35.55996 36.65165 36.10581
# Shear Modulus (GPa) = 24.57185 27.01987 25.79586
#
# Velocity S-wave (km/s) = 3.43811 3.60531 3.52270
# Velocity P-wave (km/s) = 5.73301 5.91293 5.82366
#
# Compressibility (1/GPa) = 0.02812151
#
# Stress axis : x y z
#
# Youngs Moduli (GPa) = 67.16958 41.34408 57.55010
#
# Poissons Ratio (x) = 0.09993 0.12212
# Poissons Ratio (y) = 0.16235 0.55396
# Poissons Ratio (z) = 0.14254 0.39797
#
# Static dielectric constant tensor:
#      x y z
#    x 3.656380 0.000000 0.000000 
#    y 0.000000 3.758510 0.000000 
#    z 0.000000 0.000000 4.003390 
# 
# 
# High freq. dielectric constant tensor:
#      x y z
#    x 1.817300 0.000000 0.000000 
#    y 0.000000 1.824320 0.000000 
#    z 0.000000 0.000000 1.827480 
# 
# From -- ./inp_files/4494.got.cif
#   From: 2010.03.12/outbox.cif.g09.slc.cpg/sg62_3_cif.got.tgz:4494.got - 2010.04.10 19:12:36.
