data_PCOD8254174
_publ_section_title
;
Structure prediction by ZEFSAII (Michael W. Deem and Ramdas Pophale) SiO2 
 PCOD8254174
Probable space group: P N M A
;
_chemical_formula_sum "Si O2"
_cell_formula_units_Z 48
_cell_length_a 9.656149
_cell_length_b 27.278096
_cell_length_c 8.912082
_cell_angle_alpha 90.000000
_cell_angle_beta 90.000000
_cell_angle_gamma 90.000000
_cell_volume 2347.454514
_symmetry_space_group_name_H-M "P N M A"
_symmetry_group_IT_number 62
_symmetry_cell_setting 'orthorhombic'
loop_
_space_group_symop_operation_xyz
x,y,z
1/2-x,-y,1/2+z
1/2+x,1/2-y,1/2-z
-x,1/2+y,-z
-x,-y,-z
1/2+x,y,1/2-z
1/2-x,1/2+y,1/2+z
x,1/2-y,z
loop_
_atom_site_type_symbol
_atom_site_label
_atom_site_fract_x
_atom_site_fract_y
_atom_site_fract_z
Si Si1 0.305288 0.553309 0.189526
Si Si2 0.725560 0.127441 0.066962
Si Si3 0.837984 0.193258 0.812049
Si Si4 0.379344 0.646952 0.371877
Si Si5 0.025182 0.117021 0.186865
Si Si6 0.534941 0.494635 0.326068
O O1 0.339412 0.593158 0.316120
O O2 0.411617 0.508639 0.211562
O O3 0.154788 0.531875 0.219980
O O4 0.306770 0.577336 0.024117
O O5 0.590265 0.142077 0.164477
O O6 0.858730 0.119790 0.176045
O O7 0.753085 0.171865 0.953219
O O8 0.868407 0.250000 0.839337
O O9 0.744710 0.184859 0.663818
O O10 0.981049 0.164485 0.788573
O O11 0.405586 0.645407 0.548296
O O12 0.077495 0.061283 0.199065
O O13 0.500000 0.500000 0.500000
#
# Coordination Sequence:
#
# PCOD8254174 Si02
#       6
#     8   8   8   8   8   8
#     4  11  22  40  59  87 121 166 210 253 296 350
#     4  10  23  39  57  85 121 159 197 253 307 360
#     4  10  21  41  66  91 114 151 200 252 314 383
#     4  10  21  39  64  87 124 154 199 257 308 360
#     4  11  22  39  57  88 125 162 202 246 307 350
#     4  12  22  38  59  87 125 166 216 253 285 358
#
# _framework density 20.447682
#
# number of rings (size 3 to 8) (size 9 to 14) (size 15 to 20)
#    0.000    1.333    3.333    3.500    0.000    4.667 
#    0.000    4.167    0.000    0.000    0.000    0.000 
#    0.000    0.000    0.000    0.000    0.000    0.000 
#
# Total GULP energy -595200.369741 kJ/mol
# GULP energy per Si atom -12400.007703 kJ/mol
# Density = 2.040114 g / cm^3
# Si number density = 20.447682 Si / 1000 Ang^3
#
#
#
# Elastic Constant Matrix: (Units=GPa)
#
#
# Indices 1 2 3 4 5 6 
#
# 1 110.5100 28.9998 44.4061 0.0000 0.0000 0.0000
# 2 28.9998 86.2617 12.8252 0.0000 0.0000 0.0000
# 3 44.4061 12.8252 52.1816 0.0000 0.0000 0.0000
# 4 0.0000 0.0000 0.0000 19.3060 0.0000 0.0000
# 5 0.0000 0.0000 0.0000 0.0000 42.2809 0.0000
# 6 0.0000 0.0000 0.0000 0.0000 0.0000 24.5196
#
#
#
# Elastic Compliance Matrix: (Units=1/GPa)
#
#
# Indices 1 2 3 4 5 6 
#
# 1 0.014538 -0.003164 -0.011594 0.000000 0.000000 0.000000
# 2 -0.003164 0.012721 -0.000434 0.000000 0.000000 0.000000
# 3 -0.011594 -0.000434 0.029137 0.000000 0.000000 0.000000
# 4 0.000000 0.000000 0.000000 0.051797 0.000000 0.000000
# 5 0.000000 0.000000 0.000000 0.000000 0.023651 0.000000
# 6 0.000000 0.000000 0.000000 0.000000 0.000000 0.040784
#
#
# Mechanical properties :
#
#
# Convention : Reuss Voigt Hill
#
# Bulk Modulus (GPa) = 38.44421 46.82394 42.63408
# Shear Modulus (GPa) = 23.62020 28.06943 25.84482
#
# Velocity S-wave (km/s) = 3.40244 3.70908 3.55906
# Velocity P-wave (km/s) = 5.85470 6.42589 6.14694
#
# Compressibility (1/GPa) = 0.02601172
#
# Stress axis : x y z
#
# Youngs Moduli (GPa) = 68.78510 78.61163 34.32048
#
# Poissons Ratio (x) = 0.24870 0.39792
# Poissons Ratio (y) = 0.21761 0.01490
# Poissons Ratio (z) = 0.79751 0.03414
#
# Static dielectric constant tensor:
#      x y z
#    x 3.918860 0.000000 0.000000 
#    y 0.000000 3.592150 0.000000 
#    z 0.000000 0.000000 3.665620 
# 
# 
# High freq. dielectric constant tensor:
#      x y z
#    x 1.811690 0.000000 0.000000 
#    y 0.000000 1.783020 0.000000 
#    z 0.000000 0.000000 1.788500 
# 
# From -- ./inp_files/4514.got.cif
#   From: 2010.03.12/outbox.cif.g09.slc.cpg/sg62_3_cif.got.tgz:4514.got - 2010.04.10 19:12:36.
