data_PCOD8254133
_publ_section_title
;
Structure prediction by ZEFSAII (Michael W. Deem and Ramdas Pophale) SiO2 
 PCOD8254133
Probable space group: P N M A
;
_chemical_formula_sum "Si O2"
_cell_formula_units_Z 48
_cell_length_a 21.645333
_cell_length_b 8.958318
_cell_length_c 12.312744
_cell_angle_alpha 90.000000
_cell_angle_beta 90.000000
_cell_angle_gamma 90.000000
_cell_volume 2387.512183
_symmetry_space_group_name_H-M "P N M A"
_symmetry_group_IT_number 62
_symmetry_cell_setting 'orthorhombic'
loop_
_space_group_symop_operation_xyz
x,y,z
1/2-x,-y,1/2+z
1/2+x,1/2-y,1/2-z
-x,1/2+y,-z
-x,-y,-z
1/2+x,y,1/2-z
1/2-x,1/2+y,1/2+z
x,1/2-y,z
loop_
_atom_site_type_symbol
_atom_site_label
_atom_site_fract_x
_atom_site_fract_y
_atom_site_fract_z
Si Si1 0.004189 0.582324 0.887109
Si Si2 0.825689 0.427123 0.358525
Si Si3 0.645817 0.917726 0.623920
Si Si4 0.902809 0.423457 0.754829
Si Si5 0.809481 0.926262 0.911609
Si Si6 0.933736 0.076323 0.510230
O O1 0.977641 0.750000 0.899453
O O2 0.073921 0.585709 0.847117
O O3 0.965784 0.494357 0.797837
O O4 0.000000 0.500000 0.000000
O O5 0.831504 0.250000 0.360964
O O6 0.822860 0.481557 0.233349
O O7 0.761774 0.479046 0.413859
O O8 0.884797 0.492586 0.423598
O O9 0.668852 0.750000 0.595449
O O10 0.659276 0.025754 0.523991
O O11 0.902032 0.250000 0.785980
O O12 0.843461 0.499497 0.809357
O O13 0.901650 0.450420 0.626427
O O14 0.815261 0.750000 0.898742
O O15 0.945269 0.250000 0.489109
O O16 0.000000 0.000000 0.500000
#
# Coordination Sequence:
#
# PCOD8254133 Si02
#       6
#     8   8   8   8   8   8
#     4  11  21  35  59  88 120 157 197 245 298 353
#     4   9  21  41  62  86 118 159 200 245 304 361
#     4  10  21  39  62  85 116 154 195 246 301 356
#     4  11  23  38  60  89 125 161 199 250 308 362
#     4  11  23  38  60  88 119 159 204 247 298 359
#     4  10  22  42  66  91 122 159 203 253 306 365
#
# _framework density 20.104610999999998
#
# number of rings (size 3 to 8) (size 9 to 14) (size 15 to 20)
#    0.000    1.667    1.667    2.500    2.333    3.333 
#    0.000    3.333    0.000    0.000    0.000    0.000 
#    0.000    0.000    0.000    0.000    0.000    0.000 
#
# Total GULP energy -595251.712550 kJ/mol
# GULP energy per Si atom -12401.077345 kJ/mol
# Density = 2.005885 g / cm^3
# Si number density = 20.104611 Si / 1000 Ang^3
#
#
#
# Elastic Constant Matrix: (Units=GPa)
#
#
# Indices 1 2 3 4 5 6 
#
# 1 132.2880 41.8601 47.2999 0.0000 0.0000 0.0000
# 2 41.8601 94.6565 45.0032 0.0000 0.0000 0.0000
# 3 47.2999 45.0032 99.5917 0.0000 0.0000 0.0000
# 4 0.0000 0.0000 0.0000 21.7874 0.0000 0.0000
# 5 0.0000 0.0000 0.0000 0.0000 29.5437 0.0000
# 6 0.0000 0.0000 0.0000 0.0000 0.0000 27.7867
#
#
#
# Elastic Compliance Matrix: (Units=1/GPa)
#
#
# Indices 1 2 3 4 5 6 
#
# 1 0.009599 -0.002646 -0.003363 0.000000 0.000000 0.000000
# 2 -0.002646 0.014185 -0.005153 0.000000 0.000000 0.000000
# 3 -0.003363 -0.005153 0.013967 0.000000 0.000000 0.000000
# 4 0.000000 0.000000 0.000000 0.045898 0.000000 0.000000
# 5 0.000000 0.000000 0.000000 0.000000 0.033848 0.000000
# 6 0.000000 0.000000 0.000000 0.000000 0.000000 0.035988
#
#
# Mechanical properties :
#
#
# Convention : Reuss Voigt Hill
#
# Bulk Modulus (GPa) = 64.82579 66.09584 65.46081
# Shear Modulus (GPa) = 27.63167 28.64844 28.14006
#
# Velocity S-wave (km/s) = 3.71131 3.77897 3.74529
# Velocity P-wave (km/s) = 7.11894 7.21028 7.16476
#
# Compressibility (1/GPa) = 0.01542596
#
# Stress axis : x y z
#
# Youngs Moduli (GPa) = 104.17647 70.49909 71.59791
#
# Poissons Ratio (x) = 0.18654 0.24081
# Poissons Ratio (y) = 0.27565 0.36894
# Poissons Ratio (z) = 0.35038 0.36328
#
# Static dielectric constant tensor:
#      x y z
#    x 3.873370 0.000000 0.000000 
#    y 0.000000 3.479700 0.000000 
#    z 0.000000 0.000000 3.700020 
# 
# 
# High freq. dielectric constant tensor:
#      x y z
#    x 1.793970 0.000000 0.000000 
#    y 0.000000 1.770610 0.000000 
#    z 0.000000 0.000000 1.795010 
# 
# From -- ./inp_files/15146.got.cif
#   From: 2010.03.12/outbox.cif.g09.slc.cpg/sg62_8_cif.got.tgz:15146.got - 2010.04.10 19:12:36.
