data_PCOD8254086
_publ_section_title
;
Structure prediction by ZEFSAII (Michael W. Deem and Ramdas Pophale) SiO2 
 PCOD8254086
Probable space group: P N M A
;
_chemical_formula_sum "Si O2"
_cell_formula_units_Z 40
_cell_length_a 9.502897
_cell_length_b 8.690268
_cell_length_c 25.133723
_cell_angle_alpha 90.000000
_cell_angle_beta 90.000000
_cell_angle_gamma 90.000000
_cell_volume 2075.611252
_symmetry_space_group_name_H-M "P N M A"
_symmetry_group_IT_number 62
_symmetry_cell_setting 'orthorhombic'
loop_
_space_group_symop_operation_xyz
x,y,z
1/2-x,-y,1/2+z
1/2+x,1/2-y,1/2-z
-x,1/2+y,-z
-x,-y,-z
1/2+x,y,1/2-z
1/2-x,1/2+y,1/2+z
x,1/2-y,z
loop_
_atom_site_type_symbol
_atom_site_label
_atom_site_fract_x
_atom_site_fract_y
_atom_site_fract_z
Si Si1 0.832107 0.574118 0.593189
Si Si2 0.847118 0.570171 0.005043
Si Si3 0.653285 0.931652 0.908762
Si Si4 0.124829 0.427436 0.287118
Si Si5 0.670993 0.429382 0.796868
O O1 0.805552 0.750000 0.576786
O O2 0.722450 0.470273 0.561317
O O3 0.802459 0.547289 0.655555
O O4 0.991599 0.525061 0.578944
O O5 0.863836 0.750000 0.000426
O O6 0.747332 0.509302 0.957649
O O7 0.000000 0.500000 0.000000
O O8 0.666629 0.750000 0.897935
O O9 0.706899 0.021346 0.856919
O O10 0.077470 0.250000 0.281326
O O11 0.232748 0.471274 0.241753
O O12 0.989452 0.535243 0.282169
O O13 0.701809 0.250000 0.789025
#
# Coordination Sequence:
#
# PCOD8254086 Si02
#       5
#     8   8   8   8   8
#     4   9  19  37  60  82 106 141 186 228 272 330
#     4  11  23  37  56  82 113 146 182 227 278 329
#     4   9  20  39  59  80 109 149 188 222 274 343
#     4  10  21  39  60  82 114 155 188 222 278 345
#     4  11  22  36  58  88 115 143 187 241 281 319
#
# _framework density 19.271431
#
# number of rings (size 3 to 8) (size 9 to 14) (size 15 to 20)
#    0.000    2.000    0.000    4.800    0.000    7.200 
#    0.000    2.000    0.000    0.000    0.000    0.000 
#    0.000    0.000    0.000    0.000    0.000    0.000 
#
# Total GULP energy -496158.636495 kJ/mol
# GULP energy per Si atom -12403.965912 kJ/mol
# Density = 1.922757 g / cm^3
# Si number density = 19.271431 Si / 1000 Ang^3
#
#
#
# Elastic Constant Matrix: (Units=GPa)
#
#
# Indices 1 2 3 4 5 6 
#
# 1 48.5933 11.2439 10.7413 0.0000 0.0000 0.0000
# 2 11.2439 52.2671 16.6821 0.0000 0.0000 0.0000
# 3 10.7413 16.6821 49.9665 0.0000 0.0000 0.0000
# 4 0.0000 0.0000 0.0000 34.1992 0.0000 0.0000
# 5 0.0000 0.0000 0.0000 0.0000 37.3371 0.0000
# 6 0.0000 0.0000 0.0000 0.0000 0.0000 33.2382
#
#
#
# Elastic Compliance Matrix: (Units=1/GPa)
#
#
# Indices 1 2 3 4 5 6 
#
# 1 0.022208 -0.003642 -0.003558 0.000000 0.000000 0.000000
# 2 -0.003642 0.022012 -0.006566 0.000000 0.000000 0.000000
# 3 -0.003558 -0.006566 0.022971 0.000000 0.000000 0.000000
# 4 0.000000 0.000000 0.000000 0.029240 0.000000 0.000000
# 5 0.000000 0.000000 0.000000 0.000000 0.026783 0.000000
# 6 0.000000 0.000000 0.000000 0.000000 0.000000 0.030086
#
#
# Mechanical properties :
#
#
# Convention : Reuss Voigt Hill
#
# Bulk Modulus (GPa) = 25.21550 25.35126 25.28338
# Shear Modulus (GPa) = 25.76641 28.43222 27.09931
#
# Velocity S-wave (km/s) = 3.66050 3.84520 3.75399
# Velocity P-wave (km/s) = 5.56583 5.73564 5.65137
#
# Compressibility (1/GPa) = 0.03965814
#
# Stress axis : x y z
#
# Youngs Moduli (GPa) = 45.02853 45.43050 43.53408
#
# Poissons Ratio (x) = 0.16545 0.15490
# Poissons Ratio (y) = 0.16399 0.28585
# Poissons Ratio (z) = 0.16022 0.29830
#
# Static dielectric constant tensor:
#      x y z
#    x 3.468110 0.000000 0.000000 
#    y 0.000000 3.446090 0.000000 
#    z 0.000000 0.000000 3.655830 
# 
# 
# High freq. dielectric constant tensor:
#      x y z
#    x 1.745320 0.000000 0.000000 
#    y 0.000000 1.751110 0.000000 
#    z 0.000000 0.000000 1.759220 
# 
# From -- ./inp_files/28565.got.cif
#   From: 2010.03.12/outbox.cif.g09.slc.cpg/sg62_15_cif.got.tgz:28565.got - 2010.04.10 19:12:36.
