data_PCOD8254837
_publ_section_title
;
Structure prediction by ZEFSAII (Michael W. Deem and Ramdas Pophale) SiO2 
 PCOD8254837
Probable space group: P N M A
;
_chemical_formula_sum "Si O2"
_cell_formula_units_Z 40
_cell_length_a 22.552349
_cell_length_b 12.661793
_cell_length_c 5.520476
_cell_angle_alpha 90.000000
_cell_angle_beta 90.000000
_cell_angle_gamma 90.000000
_cell_volume 1576.389448
_symmetry_space_group_name_H-M "P N M A"
_symmetry_group_IT_number 62
_symmetry_cell_setting 'orthorhombic'
loop_
_space_group_symop_operation_xyz
x,y,z
1/2-x,-y,1/2+z
1/2+x,1/2-y,1/2-z
-x,1/2+y,-z
-x,-y,-z
1/2+x,y,1/2-z
1/2-x,1/2+y,1/2+z
x,1/2-y,z
loop_
_atom_site_type_symbol
_atom_site_label
_atom_site_fract_x
_atom_site_fract_y
_atom_site_fract_z
Si Si1 0.126951 0.133587 0.427548
Si Si2 0.050265 0.624361 0.863650
Si Si3 0.494271 0.628296 0.135422
Si Si4 0.660923 0.971515 0.436950
Si Si5 0.733401 0.133537 0.727412
O O1 0.116307 0.250000 0.309396
O O2 0.192650 0.126947 0.534744
O O3 0.077256 0.116392 0.635850
O O4 0.118409 0.043089 0.229156
O O5 0.046281 0.750000 0.852224
O O6 0.017801 0.582006 0.109171
O O7 0.118979 0.586976 0.869148
O O8 0.021304 0.575052 0.615610
O O9 0.514190 0.750000 0.123201
O O10 0.697346 0.883211 0.289194
O O11 0.712186 0.045487 0.542622
O O12 0.727625 0.250000 0.609022
#
# Coordination Sequence:
#
# PCOD8254837 Si02
#       5
#     8   8   8   8   8
#     4  10  23  43  67  94 133 176 224 281 341 411
#     4  10  23  42  68 101 140 182 228 282 344 409
#     4   9  21  42  66  98 139 183 225 279 344 409
#     4  12  24  42  68  97 132 175 232 284 347 413
#     4  11  25  45  66  96 133 176 229 288 350 412
#
# _framework density 25.374438999999999
#
# number of rings (size 3 to 8) (size 9 to 14) (size 15 to 20)
#    0.000    1.600    2.000    1.200    5.600    1.600 
#    0.000    0.000    0.000    0.000    0.000    0.000 
#    0.000    0.000    0.000    0.000    0.000    0.000 
#
# Total GULP energy -496020.284728 kJ/mol
# GULP energy per Si atom -12400.507118 kJ/mol
# Density = 2.531669 g / cm^3
# Si number density = 25.374439 Si / 1000 Ang^3
#
#
#
# Elastic Constant Matrix: (Units=GPa)
#
#
# Indices 1 2 3 4 5 6 
#
# 1 129.3147 40.4306 45.3478 0.0000 0.0000 0.0000
# 2 40.4306 61.6920 54.4708 0.0000 0.0000 0.0000
# 3 45.3478 54.4708 121.3252 0.0000 0.0000 0.0000
# 4 0.0000 0.0000 0.0000 39.1572 0.0000 0.0000
# 5 0.0000 0.0000 0.0000 0.0000 39.3017 0.0000
# 6 0.0000 0.0000 0.0000 0.0000 0.0000 -14.8366
#
#
#
# Elastic Compliance Matrix: (Units=1/GPa)
#
#
# Indices 1 2 3 4 5 6 
#
# 1 0.009848 -0.005308 -0.001298 0.000000 0.000000 0.000000
# 2 -0.005308 0.029716 -0.011358 0.000000 0.000000 0.000000
# 3 -0.001298 -0.011358 0.013827 0.000000 0.000000 0.000000
# 4 0.000000 0.000000 0.000000 0.025538 0.000000 0.000000
# 5 0.000000 0.000000 0.000000 0.000000 0.025444 0.000000
# 6 0.000000 0.000000 0.000000 0.000000 0.000000 -0.067401
#
#
# Mechanical properties :
#
#
# Convention : Reuss Voigt Hill
#
# Bulk Modulus (GPa) = 57.26076 65.87003 61.56540
# Shear Modulus (GPa) = 63.51623 24.19666 43.85644
#
# Velocity S-wave (km/s) = 5.00858 3.09137 4.16188
# Velocity P-wave (km/s) = 7.48754 6.22556 6.88552
#
# Compressibility (1/GPa) = 0.01746397
#
# Stress axis : x y z
#
# Youngs Moduli (GPa) = 101.54649 33.65137 72.32470
#
# Poissons Ratio (x) = 0.17862 0.09385
# Poissons Ratio (y) = 0.53901 0.82144
# Poissons Ratio (z) = 0.13177 0.38220
#
# Static dielectric constant tensor:
#      x y z
#    x 4.324680 0.000000 0.000000 
#    y 0.000000 4.889450 0.000000 
#    z 0.000000 0.000000 4.446810 
# 
# 
# High freq. dielectric constant tensor:
#      x y z
#    x 2.011340 0.000000 0.000000 
#    y 0.000000 2.043450 0.000000 
#    z 0.000000 0.000000 1.993370 
# 
# From -- ./inp_files/2659.got.cif
#   From: 2010.03.12/outbox.cif.g09.slc.cpg/sg62_2_cif.got.tgz:2659.got - 2010.04.10 19:12:36.
