data_PCOD8254380
_publ_section_title
;
Structure prediction by ZEFSAII (Michael W. Deem and Ramdas Pophale) SiO2 
 PCOD8254380
Probable space group: P N M A
;
_chemical_formula_sum "Si O2"
_cell_formula_units_Z 40
_cell_length_a 13.041108
_cell_length_b 22.801312
_cell_length_c 5.823160
_cell_angle_alpha 90.000000
_cell_angle_beta 90.000000
_cell_angle_gamma 90.000000
_cell_volume 1731.542087
_symmetry_space_group_name_H-M "P N M A"
_symmetry_group_IT_number 62
_symmetry_cell_setting 'orthorhombic'
loop_
_space_group_symop_operation_xyz
x,y,z
1/2-x,-y,1/2+z
1/2+x,1/2-y,1/2-z
-x,1/2+y,-z
-x,-y,-z
1/2+x,y,1/2-z
1/2-x,1/2+y,1/2+z
x,1/2-y,z
loop_
_atom_site_type_symbol
_atom_site_label
_atom_site_fract_x
_atom_site_fract_y
_atom_site_fract_z
Si Si1 0.435771 0.396207 0.759716
Si Si2 0.194611 0.007325 0.225864
Si Si3 0.452832 0.814289 0.557520
Si Si4 0.376446 0.880092 0.938973
Si Si5 0.743551 0.817634 0.215095
O O1 0.393787 0.459665 0.694085
O O2 0.464424 0.360644 0.530344
O O3 0.352602 0.354201 0.891130
O O4 0.541210 0.408993 0.891737
O O5 0.151147 0.072992 0.240856
O O6 0.243147 0.995499 0.483815
O O7 0.499224 0.750000 0.516743
O O8 0.435305 0.825069 0.826540
O O9 0.340600 0.819911 0.448499
O O10 0.274152 0.855210 0.058181
O O11 0.713422 0.750000 0.269502
#
# Coordination Sequence:
#
# PCOD8254380 Si02
#       5
#     8   8   8   8   8
#     4  11  24  42  67 101 137 185 236 299 360 429
#     4  12  27  47  75 104 145 190 241 295 358 431
#     4  10  23  41  67 100 138 178 236 294 357 431
#     4  11  24  42  68  98 140 184 238 298 360 426
#     4  10  21  42  65  95 138 183 232 295 360 430
#
# _framework density 23.100795999999999
#
# number of rings (size 3 to 8) (size 9 to 14) (size 15 to 20)
#    0.000    1.200    2.000    3.000    5.600    4.800 
#    0.000    2.000    0.000    0.000    0.000    0.000 
#    0.000    0.000    0.000    0.000    0.000    0.000 
#
# Total GULP energy -495526.264280 kJ/mol
# GULP energy per Si atom -12388.156607 kJ/mol
# Density = 2.304822 g / cm^3
# Si number density = 23.100796 Si / 1000 Ang^3
#
#
#
# Elastic Constant Matrix: (Units=GPa)
#
#
# Indices 1 2 3 4 5 6 
#
# 1 62.3879 16.8462 7.2508 0.0000 0.0000 0.0000
# 2 16.8462 111.8648 13.6015 0.0000 0.0000 0.0000
# 3 7.2508 13.6015 89.4400 0.0000 0.0000 0.0000
# 4 0.0000 0.0000 0.0000 35.5957 0.0000 0.0000
# 5 0.0000 0.0000 0.0000 0.0000 15.8505 0.0000
# 6 0.0000 0.0000 0.0000 0.0000 0.0000 42.8004
#
#
#
# Elastic Compliance Matrix: (Units=1/GPa)
#
#
# Indices 1 2 3 4 5 6 
#
# 1 0.016795 -0.002408 -0.000995 0.000000 0.000000 0.000000
# 2 -0.002408 0.009453 -0.001242 0.000000 0.000000 0.000000
# 3 -0.000995 -0.001242 0.011450 0.000000 0.000000 0.000000
# 4 0.000000 0.000000 0.000000 0.028093 0.000000 0.000000
# 5 0.000000 0.000000 0.000000 0.000000 0.063089 0.000000
# 6 0.000000 0.000000 0.000000 0.000000 0.000000 0.023364
#
#
# Mechanical properties :
#
#
# Convention : Reuss Voigt Hill
#
# Bulk Modulus (GPa) = 35.20331 37.67666 36.43998
# Shear Modulus (GPa) = 29.23884 33.91560 31.57722
#
# Velocity S-wave (km/s) = 3.56154 3.83581 3.70122
# Velocity P-wave (km/s) = 5.67317 5.99692 5.83729
#
# Compressibility (1/GPa) = 0.02840642
#
# Stress axis : x y z
#
# Youngs Moduli (GPa) = 59.54266 105.78570 87.33400
#
# Poissons Ratio (x) = 0.25475 0.08692
# Poissons Ratio (y) = 0.14339 0.10850
# Poissons Ratio (z) = 0.05926 0.13142
#
# Static dielectric constant tensor:
#      x y z
#    x 4.156600 0.000000 0.000000 
#    y 0.000000 4.407060 0.000000 
#    z 0.000000 0.000000 4.106110 
# 
# 
# High freq. dielectric constant tensor:
#      x y z
#    x 1.915070 0.000000 0.000000 
#    y 0.000000 1.933230 0.000000 
#    z 0.000000 0.000000 1.897340 
# 
# From -- ./inp_files/593.got.cif
#   From: 2010.03.12/outbox.cif.g09.slc.cpg/sg62_1_cif.got.tgz:593.got - 2010.04.10 19:12:36.
