data_PCOD8254127
_publ_section_title
;
Structure prediction by ZEFSAII (Michael W. Deem and Ramdas Pophale) SiO2 
 PCOD8254127
Probable space group: P N M A
;
_chemical_formula_sum "Si O2"
_cell_formula_units_Z 64
_cell_length_a 23.652504
_cell_length_b 8.578886
_cell_length_c 15.139623
_cell_angle_alpha 90.000000
_cell_angle_beta 90.000000
_cell_angle_gamma 90.000000
_cell_volume 3072.013233
_symmetry_space_group_name_H-M "P N M A"
_symmetry_group_IT_number 62
_symmetry_cell_setting 'orthorhombic'
loop_
_space_group_symop_operation_xyz
x,y,z
1/2-x,-y,1/2+z
1/2+x,1/2-y,1/2-z
-x,1/2+y,-z
-x,-y,-z
1/2+x,y,1/2-z
1/2-x,1/2+y,1/2+z
x,1/2-y,z
loop_
_atom_site_type_symbol
_atom_site_label
_atom_site_fract_x
_atom_site_fract_y
_atom_site_fract_z
Si Si1 0.997893 0.931563 0.172192
Si Si2 0.120044 0.568579 0.111016
Si Si3 0.489505 0.429604 0.140467
Si Si4 0.234528 0.069555 0.156012
Si Si5 0.584313 0.430207 0.003298
Si Si6 0.889550 0.070017 0.093746
Si Si7 0.714136 0.430711 0.016692
Si Si8 0.282802 0.569582 0.327487
O O1 0.991865 0.750000 0.150904
O O2 0.060101 0.992549 0.146823
O O3 0.985935 0.961975 0.274516
O O4 0.954033 0.023902 0.111330
O O5 0.128097 0.750000 0.132484
O O6 0.168375 0.473152 0.161643
O O7 0.125359 0.535653 0.007331
O O8 0.487273 0.250000 0.169660
O O9 0.435690 0.465900 0.078973
O O10 0.547235 0.470814 0.089239
O O11 0.242374 0.250000 0.178017
O O12 0.257851 0.033715 0.059015
O O13 0.269691 0.969495 0.226201
O O14 0.576514 0.250000 0.977316
O O15 0.648401 0.472801 0.025712
O O16 0.880579 0.250000 0.117145
O O17 0.848461 0.968425 0.155276
O O18 0.723792 0.250000 0.993535
O O19 0.742960 0.466989 0.109831
O O20 0.271274 0.750000 0.345826
#
# Coordination Sequence:
#
# PCOD8254127 Si02
#       8
#     8   8   8   8   8   8   8   8
#     4  11  24  40  63  94 127 164 209 259 318 377
#     4  10  23  44  67  93 127 166 209 263 320 381
#     4  10  21  39  61  91 125 163 209 258 311 372
#     4  12  26  43  67  97 131 174 219 267 324 386
#     4   9  21  40  63  88 123 166 206 256 316 373
#     4  11  23  43  68  93 126 166 211 263 319 379
#     4  11  23  43  68  97 132 169 216 270 323 388
#     4  12  26  44  67  97 132 173 218 267 324 386
#
# _framework density 20.833244000000001
#
# number of rings (size 3 to 8) (size 9 to 14) (size 15 to 20)
#    0.000    1.250    1.250    4.125    3.500    3.000 
#    0.000    0.000    0.000    0.000    0.000    0.000 
#    0.000    0.000    0.000    0.000    0.000    0.000 
#
# Total GULP energy -794145.917108 kJ/mol
# GULP energy per Si atom -12408.529955 kJ/mol
# Density = 2.078583 g / cm^3
# Si number density = 20.833244 Si / 1000 Ang^3
#
#
#
# Elastic Constant Matrix: (Units=GPa)
#
#
# Indices 1 2 3 4 5 6 
#
# 1 91.8501 26.7722 2.7771 0.0000 0.0000 0.0000
# 2 26.7722 71.2369 21.1735 0.0000 0.0000 0.0000
# 3 2.7771 21.1735 50.0879 0.0000 0.0000 0.0000
# 4 0.0000 0.0000 0.0000 27.7205 0.0000 0.0000
# 5 0.0000 0.0000 0.0000 0.0000 25.7402 0.0000
# 6 0.0000 0.0000 0.0000 0.0000 0.0000 33.6639
#
#
#
# Elastic Compliance Matrix: (Units=1/GPa)
#
#
# Indices 1 2 3 4 5 6 
#
# 1 0.012319 -0.005063 0.001457 0.000000 0.000000 0.000000
# 2 -0.005063 0.018136 -0.007386 0.000000 0.000000 0.000000
# 3 0.001457 -0.007386 0.023006 0.000000 0.000000 0.000000
# 4 0.000000 0.000000 0.000000 0.036074 0.000000 0.000000
# 5 0.000000 0.000000 0.000000 0.000000 0.038850 0.000000
# 6 0.000000 0.000000 0.000000 0.000000 0.000000 0.029705
#
#
# Mechanical properties :
#
#
# Convention : Reuss Voigt Hill
#
# Bulk Modulus (GPa) = 31.76811 34.95783 33.36297
# Shear Modulus (GPa) = 26.23767 28.25505 27.24636
#
# Velocity S-wave (km/s) = 3.55267 3.68672 3.62032
# Velocity P-wave (km/s) = 5.66661 5.91091 5.79005
#
# Compressibility (1/GPa) = 0.03147811
#
# Stress axis : x y z
#
# Youngs Moduli (GPa) = 81.17580 55.14016 43.46648
#
# Poissons Ratio (x) = 0.27916 -0.06334
# Poissons Ratio (y) = 0.41098 0.32103
# Poissons Ratio (z) = -0.11829 0.40725
#
# Static dielectric constant tensor:
#      x y z
#    x 3.952570 0.000000 0.000000 
#    y 0.000000 3.686400 0.000000 
#    z 0.000000 0.000000 3.631140 
# 
# 
# High freq. dielectric constant tensor:
#      x y z
#    x 1.829260 0.000000 0.000000 
#    y 0.000000 1.817470 0.000000 
#    z 0.000000 0.000000 1.816260 
# 
# From -- ./inp_files/20778.got.cif
#   From: 2010.03.12/outbox.cif.g09.slc.cpg/sg62_11_cif.got.tgz:20778.got - 2010.04.10 19:12:36.
