data_PCOD8254512
_publ_section_title
;
Structure prediction by ZEFSAII (Michael W. Deem and Ramdas Pophale) SiO2 
 PCOD8254512
Probable space group: P N M A
;
_chemical_formula_sum "Si O2"
_cell_formula_units_Z 64
_cell_length_a 11.853444
_cell_length_b 9.003391
_cell_length_c 30.676563
_cell_angle_alpha 90.000000
_cell_angle_beta 90.000000
_cell_angle_gamma 90.000000
_cell_volume 3273.839340
_symmetry_space_group_name_H-M "P N M A"
_symmetry_group_IT_number 62
_symmetry_cell_setting 'orthorhombic'
loop_
_space_group_symop_operation_xyz
x,y,z
1/2-x,-y,1/2+z
1/2+x,1/2-y,1/2-z
-x,1/2+y,-z
-x,-y,-z
1/2+x,y,1/2-z
1/2-x,1/2+y,1/2+z
x,1/2-y,z
loop_
_atom_site_type_symbol
_atom_site_label
_atom_site_fract_x
_atom_site_fract_y
_atom_site_fract_z
Si Si1 0.286087 0.423042 0.703395
Si Si2 0.242564 0.426087 0.039910
Si Si3 0.639206 0.076153 0.879077
Si Si4 0.742172 0.926420 0.547839
Si Si5 0.503390 0.075247 0.330709
Si Si6 0.503705 0.425441 0.427709
Si Si7 0.622023 0.580011 0.123251
Si Si8 0.214366 0.079881 0.799528
O O1 0.311000 0.250000 0.700262
O O2 0.201236 0.474513 0.665255
O O3 0.404830 0.505308 0.700925
O O4 0.235577 0.466179 0.749905
O O5 0.255958 0.250000 0.037332
O O6 0.312673 0.483088 0.080880
O O7 0.110909 0.475059 0.043642
O O8 0.291509 0.500416 0.996148
O O9 0.657755 0.250000 0.888235
O O10 0.508436 0.035990 0.873500
O O11 0.747145 0.750000 0.543548
O O12 0.614129 0.987834 0.553639
O O13 0.817403 0.974489 0.588559
O O14 0.515607 0.250000 0.328819
O O15 0.524062 0.012022 0.379250
O O16 0.379195 0.031010 0.316659
O O17 0.493856 0.250000 0.425315
O O18 0.637076 0.750000 0.107811
O O19 0.674022 0.556608 0.171276
O O20 0.172273 0.250000 0.802597
#
# Coordination Sequence:
#
# PCOD8254512 Si02
#       8
#     8   8   8   8   8   8   8   8
#     4  10  22  39  63  91 121 157 200 248 296 348
#     4  11  22  39  61  87 118 153 194 241 295 352
#     4  10  22  40  60  85 117 155 199 245 292 347
#     4  11  22  39  61  87 118 153 194 241 295 352
#     4  11  21  38  62  90 125 158 195 243 295 354
#     4   9  19  36  58  86 121 153 185 236 292 344
#     4  10  22  40  60  85 117 155 199 245 292 347
#     4  10  22  39  63  91 121 157 200 248 296 348
#
# _framework density 19.548912999999999
#
# number of rings (size 3 to 8) (size 9 to 14) (size 15 to 20)
#    0.000    1.750    2.500    1.500    1.750    1.500 
#    0.000    1.875    0.000    0.000    0.000    0.000 
#    0.000    0.000    0.000    0.000    0.000    0.000 
#
# Total GULP energy -793779.237961 kJ/mol
# GULP energy per Si atom -12402.800593 kJ/mol
# Density = 1.950442 g / cm^3
# Si number density = 19.548913 Si / 1000 Ang^3
#
#
#
# Elastic Constant Matrix: (Units=GPa)
#
#
# Indices 1 2 3 4 5 6 
#
# 1 102.2216 26.6024 27.4054 0.0000 0.0000 0.0000
# 2 26.6024 49.7564 34.3608 0.0000 0.0000 0.0000
# 3 27.4054 34.3608 124.6773 0.0000 0.0000 0.0000
# 4 0.0000 0.0000 0.0000 27.5346 0.0000 0.0000
# 5 0.0000 0.0000 0.0000 0.0000 20.0580 0.0000
# 6 0.0000 0.0000 0.0000 0.0000 0.0000 31.4881
#
#
#
# Elastic Compliance Matrix: (Units=1/GPa)
#
#
# Indices 1 2 3 4 5 6 
#
# 1 0.011469 -0.005423 -0.001026 0.000000 0.000000 0.000000
# 2 -0.005423 0.027386 -0.006356 0.000000 0.000000 0.000000
# 3 -0.001026 -0.006356 0.009998 0.000000 0.000000 0.000000
# 4 0.000000 0.000000 0.000000 0.036318 0.000000 0.000000
# 5 0.000000 0.000000 0.000000 0.000000 0.049855 0.000000
# 6 0.000000 0.000000 0.000000 0.000000 0.000000 0.031758
#
#
# Mechanical properties :
#
#
# Convention : Reuss Voigt Hill
#
# Bulk Modulus (GPa) = 43.02340 50.37693 46.70017
# Shear Modulus (GPa) = 24.98213 28.36859 26.67536
#
# Velocity S-wave (km/s) = 3.57869 3.81354 3.69798
# Velocity P-wave (km/s) = 6.25555 6.72432 6.49416
#
# Compressibility (1/GPa) = 0.02324317
#
# Stress axis : x y z
#
# Youngs Moduli (GPa) = 87.18999 36.51437 100.02098
#
# Poissons Ratio (x) = 0.19803 0.10266
# Poissons Ratio (y) = 0.47285 0.63569
# Poissons Ratio (z) = 0.08949 0.23207
#
# Static dielectric constant tensor:
#      x y z
#    x 3.607150 0.000000 0.000000 
#    y 0.000000 3.376040 0.000000 
#    z 0.000000 0.000000 3.736960 
# 
# 
# High freq. dielectric constant tensor:
#      x y z
#    x 1.764090 0.000000 0.000000 
#    y 0.000000 1.749070 0.000000 
#    z 0.000000 0.000000 1.773600 
# 
# From -- ./inp_files/32607.got.cif
#   From: 2010.03.12/outbox.cif.g09.slc.cpg/sg62_17_cif.got.tgz:32607.got - 2010.04.10 19:12:36.
