data_PCOD8254388
_publ_section_title
;
Structure prediction by ZEFSAII (Michael W. Deem and Ramdas Pophale) SiO2 
 PCOD8254388
Probable space group: P N M A
;
_chemical_formula_sum "Si O2"
_cell_formula_units_Z 48
_cell_length_a 14.615471
_cell_length_b 8.788582
_cell_length_c 18.656150
_cell_angle_alpha 90.000000
_cell_angle_beta 90.000000
_cell_angle_gamma 90.000000
_cell_volume 2396.368762
_symmetry_space_group_name_H-M "P N M A"
_symmetry_group_IT_number 62
_symmetry_cell_setting 'orthorhombic'
loop_
_space_group_symop_operation_xyz
x,y,z
1/2-x,-y,1/2+z
1/2+x,1/2-y,1/2-z
-x,1/2+y,-z
-x,-y,-z
1/2+x,y,1/2-z
1/2-x,1/2+y,1/2+z
x,1/2-y,z
loop_
_atom_site_type_symbol
_atom_site_label
_atom_site_fract_x
_atom_site_fract_y
_atom_site_fract_z
Si Si1 0.760359 0.429943 0.579505
Si Si2 0.720219 0.072661 0.230566
Si Si3 0.905735 0.571007 0.474836
Si Si4 0.883891 0.575402 0.310582
Si Si5 0.451476 0.425132 0.709130
Si Si6 0.947528 0.570558 0.065991
O O1 0.770406 0.250000 0.573104
O O2 0.793235 0.478684 0.657901
O O3 0.821738 0.507908 0.519824
O O4 0.656925 0.486381 0.566588
O O5 0.717875 0.250000 0.212711
O O6 0.814901 0.033125 0.268852
O O7 0.637826 0.028796 0.283517
O O8 0.912725 0.750000 0.484912
O O9 0.887453 0.525868 0.392866
O O10 0.000000 0.500000 0.500000
O O11 0.851468 0.750000 0.300894
O O12 0.984755 0.553624 0.278417
O O13 0.421281 0.250000 0.700235
O O14 0.505294 0.483494 0.639280
O O15 0.950588 0.750000 0.059193
O O16 0.000000 0.500000 0.000000
#
# Coordination Sequence:
#
# PCOD8254388 Si02
#       6
#     8   8   8   8   8   8
#     4  11  23  44  67  91 128 172 212 259 315 380
#     4  12  25  39  63  97 127 161 207 264 317 371
#     4  11  24  41  66  98 128 167 212 261 317 376
#     4  10  22  43  66  90 124 166 210 254 309 377
#     4  10  21  42  67  90 121 168 213 255 314 380
#     4  10  23  41  64  91 125 168 213 260 314 374
#
# _framework density 20.030306
#
# number of rings (size 3 to 8) (size 9 to 14) (size 15 to 20)
#    0.000    1.333    1.667    3.500    2.333    5.333 
#    0.000    0.000    0.000    0.000    0.000    0.000 
#    0.000    0.000    0.000    0.000    0.000    0.000 
#
# Total GULP energy -595527.326401 kJ/mol
# GULP energy per Si atom -12406.819300 kJ/mol
# Density = 1.998472 g / cm^3
# Si number density = 20.030306 Si / 1000 Ang^3
#
#
#
# Elastic Constant Matrix: (Units=GPa)
#
#
# Indices 1 2 3 4 5 6 
#
# 1 85.4209 20.9862 26.5850 0.0000 0.0000 0.0000
# 2 20.9862 50.0107 34.2763 0.0000 0.0000 0.0000
# 3 26.5850 34.2763 121.3667 0.0000 0.0000 0.0000
# 4 0.0000 0.0000 0.0000 36.6744 0.0000 0.0000
# 5 0.0000 0.0000 0.0000 0.0000 37.9352 0.0000
# 6 0.0000 0.0000 0.0000 0.0000 0.0000 37.0176
#
#
#
# Elastic Compliance Matrix: (Units=1/GPa)
#
#
# Indices 1 2 3 4 5 6 
#
# 1 0.013317 -0.004450 -0.001660 0.000000 0.000000 0.000000
# 2 -0.004450 0.026282 -0.006448 0.000000 0.000000 0.000000
# 3 -0.001660 -0.006448 0.010424 0.000000 0.000000 0.000000
# 4 0.000000 0.000000 0.000000 0.027267 0.000000 0.000000
# 5 0.000000 0.000000 0.000000 0.000000 0.026361 0.000000
# 6 0.000000 0.000000 0.000000 0.000000 0.000000 0.027014
#
#
# Mechanical properties :
#
#
# Convention : Reuss Voigt Hill
#
# Bulk Modulus (GPa) = 40.14983 46.72148 43.43565
# Shear Modulus (GPa) = 30.47216 33.98881 32.23049
#
# Velocity S-wave (km/s) = 3.90462 4.12378 4.01569
# Velocity P-wave (km/s) = 6.35737 6.78602 6.57519
#
# Compressibility (1/GPa) = 0.02490671
#
# Stress axis : x y z
#
# Youngs Moduli (GPa) = 75.09329 38.04821 95.93120
#
# Poissons Ratio (x) = 0.16933 0.15926
# Poissons Ratio (y) = 0.33419 0.61855
# Poissons Ratio (z) = 0.12466 0.24533
#
# Static dielectric constant tensor:
#      x y z
#    x 3.696040 0.000000 0.000000 
#    y 0.000000 4.100320 0.000000 
#    z 0.000000 0.000000 3.758860 
# 
# 
# High freq. dielectric constant tensor:
#      x y z
#    x 1.795660 0.000000 0.000000 
#    y 0.000000 1.777230 0.000000 
#    z 0.000000 0.000000 1.794990 
# 
# From -- ./inp_files/23695.got.cif
#   From: 2010.03.12/outbox.cif.g09.slc.cpg/sg62_12_cif.got.tgz:23695.got - 2010.04.10 19:12:36.
