data_PCOD8254959
_publ_section_title
;
Structure prediction by ZEFSAII (Michael W. Deem and Ramdas Pophale) SiO2 
 PCOD8254959
Probable space group: P N M A
;
_chemical_formula_sum "Si O2"
_cell_formula_units_Z 40
_cell_length_a 8.541844
_cell_length_b 18.713357
_cell_length_c 11.907812
_cell_angle_alpha 90.000000
_cell_angle_beta 90.000000
_cell_angle_gamma 90.000000
_cell_volume 1903.422978
_symmetry_space_group_name_H-M "P N M A"
_symmetry_group_IT_number 62
_symmetry_cell_setting 'orthorhombic'
loop_
_space_group_symop_operation_xyz
x,y,z
1/2-x,-y,1/2+z
1/2+x,1/2-y,1/2-z
-x,1/2+y,-z
-x,-y,-z
1/2+x,y,1/2-z
1/2-x,1/2+y,1/2+z
x,1/2-y,z
loop_
_atom_site_type_symbol
_atom_site_label
_atom_site_fract_x
_atom_site_fract_y
_atom_site_fract_z
Si Si1 0.622457 0.066130 0.199460
Si Si2 0.440003 0.089702 0.710907
Si Si3 0.812140 0.394870 0.406277
Si Si4 0.763451 0.830292 0.129257
Si Si5 0.675750 0.969574 0.498112
O O1 0.486158 0.113244 0.143311
O O2 0.680540 0.107845 0.309623
O O3 0.772856 0.064063 0.116353
O O4 0.554313 0.988118 0.230749
O O5 0.610623 0.109893 0.664176
O O6 0.390004 0.150644 0.798389
O O7 0.321132 0.088020 0.603851
O O8 0.776850 0.333151 0.496744
O O9 0.803323 0.469882 0.472031
O O10 0.819498 0.750000 0.156448
O O11 0.500000 0.000000 0.500000
#
# Coordination Sequence:
#
# PCOD8254959 Si02
#       5
#     8   8   8   8   8
#     4  11  22  38  67  99 124 153 199 275 332 367
#     4  11  22  40  64  94 125 160 205 257 319 366
#     4  11  23  38  62  95 124 157 203 258 321 369
#     4  12  26  43  61  86 128 174 213 247 293 379
#     4  11  19  37  64  97 128 154 195 264 326 370
#
# _framework density 21.014773000000002
#
# number of rings (size 3 to 8) (size 9 to 14) (size 15 to 20)
#    0.000    0.800    4.000    6.000    2.800    0.000 
#    0.000    1.000    0.000    0.000    0.000    0.000 
#    0.000    0.000    0.000    0.000    0.000    0.000 
#
# Total GULP energy -496045.135205 kJ/mol
# GULP energy per Si atom -12401.128380 kJ/mol
# Density = 2.096694 g / cm^3
# Si number density = 21.014773 Si / 1000 Ang^3
#
#
#
# Elastic Constant Matrix: (Units=GPa)
#
#
# Indices 1 2 3 4 5 6 
#
# 1 101.7057 19.6371 40.0254 0.0000 0.0000 0.0000
# 2 19.6371 49.2126 27.4953 0.0000 0.0000 0.0000
# 3 40.0254 27.4953 136.7218 0.0000 0.0000 0.0000
# 4 0.0000 0.0000 0.0000 19.4691 0.0000 0.0000
# 5 0.0000 0.0000 0.0000 0.0000 43.4073 0.0000
# 6 0.0000 0.0000 0.0000 0.0000 0.0000 17.2591
#
#
#
# Elastic Compliance Matrix: (Units=1/GPa)
#
#
# Indices 1 2 3 4 5 6 
#
# 1 0.011506 -0.003052 -0.002754 0.000000 0.000000 0.000000
# 2 -0.003052 0.023702 -0.003873 0.000000 0.000000 0.000000
# 3 -0.002754 -0.003873 0.008899 0.000000 0.000000 0.000000
# 4 0.000000 0.000000 0.000000 0.051363 0.000000 0.000000
# 5 0.000000 0.000000 0.000000 0.000000 0.023038 0.000000
# 6 0.000000 0.000000 0.000000 0.000000 0.000000 0.057941
#
#
# Mechanical properties :
#
#
# Convention : Reuss Voigt Hill
#
# Bulk Modulus (GPa) = 40.40808 51.32843 45.86826
# Shear Modulus (GPa) = 24.50300 29.39258 26.94779
#
# Velocity S-wave (km/s) = 3.41836 3.74393 3.58484
# Velocity P-wave (km/s) = 5.90343 6.57018 6.24571
#
# Compressibility (1/GPa) = 0.02474752
#
# Stress axis : x y z
#
# Youngs Moduli (GPa) = 86.91438 42.19104 112.36744
#
# Poissons Ratio (x) = 0.12877 0.30951
# Poissons Ratio (y) = 0.26527 0.43520
# Poissons Ratio (z) = 0.23940 0.16341
#
# Static dielectric constant tensor:
#      x y z
#    x 3.633360 0.000000 0.000000 
#    y 0.000000 3.203910 0.000000 
#    z 0.000000 0.000000 4.452060 
# 
# 
# High freq. dielectric constant tensor:
#      x y z
#    x 1.824950 0.000000 0.000000 
#    y 0.000000 1.757850 0.000000 
#    z 0.000000 0.000000 1.854770 
# 
# From -- ./inp_files/11053.got.cif
#   From: 2010.03.12/outbox.cif.g09.slc.cpg/sg62_6_cif.got.tgz:11053.got - 2010.04.10 19:12:36.
