data_PCOD8254885
_publ_section_title
;
Structure prediction by ZEFSAII (Michael W. Deem and Ramdas Pophale) SiO2 
 PCOD8254885
Probable space group: P N M A
;
_chemical_formula_sum "Si O2"
_cell_formula_units_Z 24
_cell_length_a 4.971890
_cell_length_b 7.553203
_cell_length_c 24.183526
_cell_angle_alpha 90.000000
_cell_angle_beta 90.000000
_cell_angle_gamma 90.000000
_cell_volume 908.180746
_symmetry_space_group_name_H-M "P N M A"
_symmetry_group_IT_number 62
_symmetry_cell_setting 'orthorhombic'
loop_
_space_group_symop_operation_xyz
x,y,z
1/2-x,-y,1/2+z
1/2+x,1/2-y,1/2-z
-x,1/2+y,-z
-x,-y,-z
1/2+x,y,1/2-z
1/2-x,1/2+y,1/2+z
x,1/2-y,z
loop_
_atom_site_type_symbol
_atom_site_label
_atom_site_fract_x
_atom_site_fract_y
_atom_site_fract_z
Si Si1 0.539188 0.959946 0.217553
Si Si2 0.032470 0.750000 0.940554
Si Si3 0.781934 0.554359 0.393459
Si Si4 0.469792 0.250000 0.986964
O O1 0.827100 0.032993 0.236769
O O2 0.537324 0.750000 0.217479
O O3 0.463409 0.026307 0.156010
O O4 0.967194 0.575134 0.904846
O O5 0.842446 0.750000 0.995711
O O6 0.342925 0.750000 0.958127
O O7 0.664485 0.750000 0.376763
O O8 0.964015 0.575409 0.449294
#
# Coordination Sequence:
#
# PCOD8254885 Si02
#       4
#     8   4   8   4
#     4   9  18  34  55  81 110 143 185 232 279 333
#     4  12  22  42  56  86 120 150 190 240 276 338
#     4   9  22  39  60  88 112 155 190 233 286 340
#     4  10  24  38  60  84 118 152 192 232 284 336
#
# _framework density 26.426459000000001
#
# number of rings (size 3 to 8) (size 9 to 14) (size 15 to 20)
#    1.000    1.333    0.000    2.000    0.000    5.333 
#    0.000    1.667    0.000    0.000    0.000    0.000 
#    0.000    0.000    0.000    0.000    0.000    0.000 
#
# Total GULP energy -297515.848813 kJ/mol
# GULP energy per Si atom -12396.493701 kJ/mol
# Density = 2.636631 g / cm^3
# Si number density = 26.426459 Si / 1000 Ang^3
#
#
#
# Elastic Constant Matrix: (Units=GPa)
#
#
# Indices 1 2 3 4 5 6 
#
# 1 54.7263 -11.5728 -16.4231 0.0000 0.0000 0.0000
# 2 -11.5728 74.0768 -9.1373 0.0000 0.0000 0.0000
# 3 -16.4231 -9.1373 63.7335 0.0000 0.0000 0.0000
# 4 0.0000 0.0000 0.0000 10.9800 0.0000 0.0000
# 5 0.0000 0.0000 0.0000 0.0000 19.4398 0.0000
# 6 0.0000 0.0000 0.0000 0.0000 0.0000 15.2181
#
#
#
# Elastic Compliance Matrix: (Units=1/GPa)
#
#
# Indices 1 2 3 4 5 6 
#
# 1 0.020908 0.004002 0.005961 0.000000 0.000000 0.000000
# 2 0.004002 0.014508 0.003111 0.000000 0.000000 0.000000
# 3 0.005961 0.003111 0.017673 0.000000 0.000000 0.000000
# 4 0.000000 0.000000 0.000000 0.091075 0.000000 0.000000
# 5 0.000000 0.000000 0.000000 0.000000 0.051441 0.000000
# 6 0.000000 0.000000 0.000000 0.000000 0.000000 0.065711
#
#
# Mechanical properties :
#
#
# Convention : Reuss Voigt Hill
#
# Bulk Modulus (GPa) = 12.62028 13.14113 12.88070
# Shear Modulus (GPa) = 19.11465 24.43891 21.77678
#
# Velocity S-wave (km/s) = 2.69237 3.04433 2.87375
# Velocity P-wave (km/s) = 3.80146 4.16423 3.98697
#
# Compressibility (1/GPa) = 0.07923754
#
# Stress axis : x y z
#
# Youngs Moduli (GPa) = 47.82866 68.92534 56.58501
#
# Poissons Ratio (x) = -0.27582 -0.33732
# Poissons Ratio (y) = -0.19140 -0.17605
# Poissons Ratio (z) = -0.28512 -0.21444
#
# Static dielectric constant tensor:
#      x y z
#    x 4.334510 0.000000 0.000000 
#    y 0.000000 4.436800 0.000000 
#    z 0.000000 0.000000 4.894240 
# 
# 
# High freq. dielectric constant tensor:
#      x y z
#    x 2.032120 0.000000 0.000000 
#    y 0.000000 2.039390 0.000000 
#    z 0.000000 0.000000 2.065190 
# 
# From -- ./inp_files/28065.got.cif
#   From: 2010.03.12/outbox.cif.g09.slc.cpg/sg62_15_cif.got.tgz:28065.got - 2010.04.10 19:12:36.
