data_PCOD8254293
_publ_section_title
;
Structure prediction by ZEFSAII (Michael W. Deem and Ramdas Pophale) SiO2 
 PCOD8254293
Probable space group: P N M A
;
_chemical_formula_sum "Si O2"
_cell_formula_units_Z 64
_cell_length_a 11.860709
_cell_length_b 17.861412
_cell_length_c 14.296326
_cell_angle_alpha 90.000000
_cell_angle_beta 90.000000
_cell_angle_gamma 90.000000
_cell_volume 3028.662511
_symmetry_space_group_name_H-M "P N M A"
_symmetry_group_IT_number 62
_symmetry_cell_setting 'orthorhombic'
loop_
_space_group_symop_operation_xyz
x,y,z
1/2-x,-y,1/2+z
1/2+x,1/2-y,1/2-z
-x,1/2+y,-z
-x,-y,-z
1/2+x,y,1/2-z
1/2-x,1/2+y,1/2+z
x,1/2-y,z
loop_
_atom_site_type_symbol
_atom_site_label
_atom_site_fract_x
_atom_site_fract_y
_atom_site_fract_z
Si Si1 0.006102 0.592990 0.589283
Si Si2 0.241934 0.608261 0.882970
Si Si3 0.765091 0.941742 0.121417
Si Si4 0.948385 0.836496 0.204937
Si Si5 0.211692 0.834479 0.687905
Si Si6 0.482907 0.425002 0.879312
Si Si7 0.363377 0.565029 0.567026
Si Si8 0.582654 0.898239 0.454598
O O1 0.876600 0.608928 0.613610
O O2 0.039940 0.506877 0.612325
O O3 0.088911 0.645120 0.648227
O O4 0.020168 0.613047 0.480553
O O5 0.191475 0.525890 0.857239
O O6 0.202819 0.662905 0.800428
O O7 0.188245 0.632329 0.983779
O O8 0.641855 0.932151 0.162680
O O9 0.842892 0.877858 0.161073
O O10 0.762333 0.933473 0.008699
O O11 0.920581 0.750000 0.216032
O O12 0.955043 0.870808 0.308062
O O13 0.056377 0.846600 0.135872
O O14 0.240739 0.750000 0.656806
O O15 0.313965 0.889172 0.655094
O O16 0.392607 0.479269 0.591931
O O17 0.475739 0.602212 0.524577
#
# Coordination Sequence:
#
# PCOD8254293 Si02
#       8
#     8   8   8   8   8   8   8   8
#     4  10  23  43  66  95 127 165 221 270 325 385
#     4  10  23  41  68  96 125 173 222 270 321 379
#     4   9  19  41  63  89 121 168 221 270 309 378
#     4  11  24  38  62  99 133 173 214 262 333 391
#     4  12  26  40  63  97 133 172 213 268 333 395
#     4  10  21  40  66  94 125 168 215 267 320 386
#     4   9  19  39  65  90 121 166 224 266 314 376
#     4   9  21  40  65  94 127 168 222 273 313 378
#
# _framework density 21.131439
#
# number of rings (size 3 to 8) (size 9 to 14) (size 15 to 20)
#    0.000    2.000    1.250    1.500    7.000    5.000 
#    0.000    0.000    0.000    0.000    0.000    0.000 
#    0.000    0.000    0.000    0.000    0.000    0.000 
#
# Total GULP energy -793385.888628 kJ/mol
# GULP energy per Si atom -12396.654510 kJ/mol
# Density = 2.108334 g / cm^3
# Si number density = 21.131439 Si / 1000 Ang^3
#
#
#
# Elastic Constant Matrix: (Units=GPa)
#
#
# Indices 1 2 3 4 5 6 
#
# 1 50.7975 36.3300 45.2429 0.0000 0.0000 0.0000
# 2 36.3300 102.4725 47.5373 0.0000 0.0000 0.0000
# 3 45.2429 47.5373 98.7058 0.0000 0.0000 0.0000
# 4 0.0000 0.0000 0.0000 10.1437 0.0000 0.0000
# 5 0.0000 0.0000 0.0000 0.0000 8.6822 0.0000
# 6 0.0000 0.0000 0.0000 0.0000 0.0000 18.4945
#
#
#
# Elastic Compliance Matrix: (Units=1/GPa)
#
#
# Indices 1 2 3 4 5 6 
#
# 1 0.036492 -0.006668 -0.013515 0.000000 0.000000 0.000000
# 2 -0.006668 0.013785 -0.003582 0.000000 0.000000 0.000000
# 3 -0.013515 -0.003582 0.018051 0.000000 0.000000 0.000000
# 4 0.000000 0.000000 0.000000 0.098584 0.000000 0.000000
# 5 0.000000 0.000000 0.000000 0.000000 0.115179 0.000000
# 6 0.000000 0.000000 0.000000 0.000000 0.000000 0.054070
#
#
# Mechanical properties :
#
#
# Convention : Reuss Voigt Hill
#
# Bulk Modulus (GPa) = 48.08421 56.68848 52.38635
# Shear Modulus (GPa) = 12.80001 15.65510 14.22755
#
# Velocity S-wave (km/s) = 2.46383 2.72480 2.59759
# Velocity P-wave (km/s) = 5.55861 6.06500 5.81732
#
# Compressibility (1/GPa) = 0.02079685
#
# Stress axis : x y z
#
# Youngs Moduli (GPa) = 27.40295 72.54450 55.39748
#
# Poissons Ratio (x) = 0.48373 0.74872
# Poissons Ratio (y) = 0.18272 0.19846
# Poissons Ratio (z) = 0.37036 0.25988
#
# Static dielectric constant tensor:
#      x y z
#    x 3.778320 0.000000 0.000000 
#    y 0.000000 3.541510 0.000000 
#    z 0.000000 0.000000 3.870770 
# 
# 
# High freq. dielectric constant tensor:
#      x y z
#    x 1.829620 0.000000 0.000000 
#    y 0.000000 1.800350 0.000000 
#    z 0.000000 0.000000 1.829980 
# 
# From -- ./inp_files/18250.got.cif
#   From: 2010.03.12/outbox.cif.g09.slc.cpg/sg62_10_cif.got.tgz:18250.got - 2010.04.10 19:12:36.
