data_PCOD8254844
_publ_section_title
;
Structure prediction by ZEFSAII (Michael W. Deem and Ramdas Pophale) SiO2 
 PCOD8254844
Probable space group: P N M A
;
_chemical_formula_sum "Si O2"
_cell_formula_units_Z 64
_cell_length_a 30.742085
_cell_length_b 8.658321
_cell_length_c 11.892821
_cell_angle_alpha 90.000000
_cell_angle_beta 90.000000
_cell_angle_gamma 90.000000
_cell_volume 3165.569728
_symmetry_space_group_name_H-M "P N M A"
_symmetry_group_IT_number 62
_symmetry_cell_setting 'orthorhombic'
loop_
_space_group_symop_operation_xyz
x,y,z
1/2-x,-y,1/2+z
1/2+x,1/2-y,1/2-z
-x,1/2+y,-z
-x,-y,-z
1/2+x,y,1/2-z
1/2-x,1/2+y,1/2+z
x,1/2-y,z
loop_
_atom_site_type_symbol
_atom_site_label
_atom_site_fract_x
_atom_site_fract_y
_atom_site_fract_z
Si Si1 0.541682 0.432245 0.761007
Si Si2 0.374689 0.428521 0.621410
Si Si3 0.828317 0.930145 0.490310
Si Si4 0.047849 0.431945 0.259801
Si Si5 0.702202 0.571824 0.213824
Si Si6 0.426553 0.932942 0.002245
Si Si7 0.876437 0.430939 0.137051
Si Si8 0.208103 0.569891 0.723273
O O1 0.539550 0.250000 0.758488
O O2 0.497016 0.499780 0.710878
O O3 0.546514 0.493217 0.889949
O O4 0.581794 0.482851 0.685031
O O5 0.387618 0.250000 0.632289
O O6 0.412561 0.526131 0.679122
O O7 0.328308 0.462655 0.678869
O O8 0.370281 0.479264 0.492263
O O9 0.823281 0.750000 0.459787
O O10 0.877494 0.989350 0.479999
O O11 0.812401 0.957842 0.615875
O O12 0.800193 0.034642 0.407012
O O13 0.043675 0.250000 0.264325
O O14 0.055321 0.502376 0.385299
O O15 0.698056 0.750000 0.176698
O O16 0.751671 0.534550 0.241346
O O17 0.427355 0.750000 0.994258
O O18 0.884245 0.250000 0.151402
O O19 0.833364 0.483215 0.203464
O O20 0.218687 0.750000 0.740780
#
# Coordination Sequence:
#
# PCOD8254844 Si02
#       8
#     8   8   8   8   8   8   8   8
#     4  11  22  39  62  91 122 158 201 249 305 366
#     4  10  23  43  63  86 120 161 205 254 304 358
#     4  11  21  40  66  92 127 164 203 257 309 364
#     4  11  22  39  62  91 122 158 201 249 305 366
#     4  11  24  41  64  95 126 163 208 256 311 371
#     4   9  19  36  60  90 123 157 197 246 304 358
#     4  10  23  43  63  86 120 161 205 254 304 358
#     4  11  24  41  64  95 126 163 208 256 311 371
#
# _framework density 20.217528000000001
#
# number of rings (size 3 to 8) (size 9 to 14) (size 15 to 20)
#    0.000    1.500    2.500    2.250    1.750    2.000 
#    0.000    1.875    0.000    0.000    0.000    0.000 
#    0.000    0.000    0.000    0.000    0.000    0.000 
#
# Total GULP energy -793854.887396 kJ/mol
# GULP energy per Si atom -12403.982616 kJ/mol
# Density = 2.017151 g / cm^3
# Si number density = 20.217528 Si / 1000 Ang^3
#
#
#
# Elastic Constant Matrix: (Units=GPa)
#
#
# Indices 1 2 3 4 5 6 
#
# 1 114.6409 46.5008 19.2322 0.0000 0.0000 0.0000
# 2 46.5008 52.9556 35.3870 0.0000 0.0000 0.0000
# 3 19.2322 35.3870 97.1182 0.0000 0.0000 0.0000
# 4 0.0000 0.0000 0.0000 29.7799 0.0000 0.0000
# 5 0.0000 0.0000 0.0000 0.0000 22.7273 0.0000
# 6 0.0000 0.0000 0.0000 0.0000 0.0000 31.0851
#
#
#
# Elastic Compliance Matrix: (Units=1/GPa)
#
#
# Indices 1 2 3 4 5 6 
#
# 1 0.013908 -0.013711 0.002242 0.000000 0.000000 0.000000
# 2 -0.013711 0.038478 -0.011305 0.000000 0.000000 0.000000
# 3 0.002242 -0.011305 0.013972 0.000000 0.000000 0.000000
# 4 0.000000 0.000000 0.000000 0.033580 0.000000 0.000000
# 5 0.000000 0.000000 0.000000 0.000000 0.044000 0.000000
# 6 0.000000 0.000000 0.000000 0.000000 0.000000 0.032170
#
#
# Mechanical properties :
#
#
# Convention : Reuss Voigt Hill
#
# Bulk Modulus (GPa) = 48.05496 51.88389 49.96942
# Shear Modulus (GPa) = 21.87296 27.62477 24.74886
#
# Velocity S-wave (km/s) = 3.29276 3.70046 3.50255
# Velocity P-wave (km/s) = 6.18684 6.63147 6.41301
#
# Compressibility (1/GPa) = 0.02080951
#
# Stress axis : x y z
#
# Youngs Moduli (GPa) = 71.89964 25.98897 71.57152
#
# Poissons Ratio (x) = 0.35633 -0.16044
# Poissons Ratio (y) = 0.98581 0.80912
# Poissons Ratio (z) = -0.16117 0.29381
#
# Static dielectric constant tensor:
#      x y z
#    x 3.785290 0.000000 0.000000 
#    y 0.000000 3.471510 0.000000 
#    z 0.000000 0.000000 3.798130 
# 
# 
# High freq. dielectric constant tensor:
#      x y z
#    x 1.801440 0.000000 0.000000 
#    y 0.000000 1.780790 0.000000 
#    z 0.000000 0.000000 1.793460 
# 
# From -- ./inp_files/15869.got.cif
#   From: 2010.03.12/outbox.cif.g09.slc.cpg/sg62_8_cif.got.tgz:15869.got - 2010.04.10 19:12:36.
