data_PCOD8254682
_publ_section_title
;
Structure prediction by ZEFSAII (Michael W. Deem and Ramdas Pophale) SiO2 
 PCOD8254682
Probable space group: P N M A
;
_chemical_formula_sum "Si O2"
_cell_formula_units_Z 56
_cell_length_a 13.518174
_cell_length_b 29.115438
_cell_length_c 7.013015
_cell_angle_alpha 90.000000
_cell_angle_beta 90.000000
_cell_angle_gamma 90.000000
_cell_volume 2760.235441
_symmetry_space_group_name_H-M "P N M A"
_symmetry_group_IT_number 62
_symmetry_cell_setting 'orthorhombic'
loop_
_space_group_symop_operation_xyz
x,y,z
1/2-x,-y,1/2+z
1/2+x,1/2-y,1/2-z
-x,1/2+y,-z
-x,-y,-z
1/2+x,y,1/2-z
1/2-x,1/2+y,1/2+z
x,1/2-y,z
loop_
_atom_site_type_symbol
_atom_site_label
_atom_site_fract_x
_atom_site_fract_y
_atom_site_fract_z
Si Si1 0.327153 0.301216 0.764604
Si Si2 0.844276 0.803646 0.939131
Si Si3 0.227340 0.945281 0.983063
Si Si4 0.120536 0.516238 0.636405
Si Si5 0.044017 0.952388 0.255789
Si Si6 0.806246 0.843408 0.527524
Si Si7 0.024373 0.146697 0.765969
O O1 0.370543 0.250000 0.772196
O O2 0.268234 0.306831 0.566345
O O3 0.415183 0.336757 0.784188
O O4 0.254644 0.310818 0.940365
O O5 0.869225 0.750000 0.908571
O O6 0.828429 0.829510 0.741871
O O7 0.935931 0.827790 0.045610
O O8 0.253520 0.892185 0.993990
O O9 0.195340 0.955736 0.767568
O O10 0.324333 0.974101 0.033596
O O11 0.139035 0.958963 0.123930
O O12 0.079731 0.551068 0.476033
O O13 0.029469 0.496129 0.761835
O O14 0.981882 0.907575 0.195058
O O15 0.909172 0.842543 0.416243
#
# Coordination Sequence:
#
# PCOD8254682 Si02
#       7
#     8   8   8   8   8   8   8
#     4  10  22  42  65  91 126 168 207 260 325 383
#     4  10  24  43  65  95 127 164 212 265 323 387
#     4  12  23  41  66  91 127 171 211 259 324 372
#     4  11  25  41  65  94 127 170 212 263 317 377
#     4  11  24  44  62  94 128 162 218 260 311 383
#     4  11  24  40  65  96 127 168 215 266 316 384
#     4  11  23  41  68  93 129 167 210 265 319 382
#
# _framework density 20.288122999999999
#
# number of rings (size 3 to 8) (size 9 to 14) (size 15 to 20)
#    0.000    1.143    4.286    1.286    2.000    5.143 
#    0.000    1.429    0.000    0.000    0.000    0.000 
#    0.000    0.000    0.000    0.000    0.000    0.000 
#
# Total GULP energy -694669.781422 kJ/mol
# GULP energy per Si atom -12404.817525 kJ/mol
# Density = 2.024195 g / cm^3
# Si number density = 20.288123 Si / 1000 Ang^3
#
#
#
# Elastic Constant Matrix: (Units=GPa)
#
#
# Indices 1 2 3 4 5 6 
#
# 1 89.0789 24.7324 29.8370 0.0000 0.0000 0.0000
# 2 24.7324 64.3626 27.7390 0.0000 0.0000 0.0000
# 3 29.8370 27.7390 94.2032 0.0000 0.0000 0.0000
# 4 0.0000 0.0000 0.0000 29.5471 0.0000 0.0000
# 5 0.0000 0.0000 0.0000 0.0000 30.2200 0.0000
# 6 0.0000 0.0000 0.0000 0.0000 0.0000 25.3555
#
#
#
# Elastic Compliance Matrix: (Units=1/GPa)
#
#
# Indices 1 2 3 4 5 6 
#
# 1 0.013315 -0.003778 -0.003105 0.000000 0.000000 0.000000
# 2 -0.003778 0.018868 -0.004359 0.000000 0.000000 0.000000
# 3 -0.003105 -0.004359 0.012882 0.000000 0.000000 0.000000
# 4 0.000000 0.000000 0.000000 0.033844 0.000000 0.000000
# 5 0.000000 0.000000 0.000000 0.000000 0.033091 0.000000
# 6 0.000000 0.000000 0.000000 0.000000 0.000000 0.039439
#
#
# Mechanical properties :
#
#
# Convention : Reuss Voigt Hill
#
# Bulk Modulus (GPa) = 44.28583 45.80683 45.04633
# Shear Modulus (GPa) = 27.55580 28.04692 27.80136
#
# Velocity S-wave (km/s) = 3.68941 3.72214 3.70581
# Velocity P-wave (km/s) = 6.32652 6.41090 6.36885
#
# Compressibility (1/GPa) = 0.02258059
#
# Stress axis : x y z
#
# Youngs Moduli (GPa) = 75.10336 53.00104 77.62630
#
# Poissons Ratio (x) = 0.20026 0.24100
# Poissons Ratio (y) = 0.28378 0.33837
# Poissons Ratio (z) = 0.23317 0.23103
#
# Static dielectric constant tensor:
#      x y z
#    x 3.754220 0.000000 0.000000 
#    y 0.000000 3.688460 0.000000 
#    z 0.000000 0.000000 3.622420 
# 
# 
# High freq. dielectric constant tensor:
#      x y z
#    x 1.805390 0.000000 0.000000 
#    y 0.000000 1.797070 0.000000 
#    z 0.000000 0.000000 1.792330 
# 
# From -- ./inp_files/1262.got.cif
#   From: 2010.03.12/outbox.cif.g09.slc.cpg/sg62_1_cif.got.tgz:1262.got - 2010.04.10 19:12:36.
