data_PCOD8254503
_publ_section_title
;
Structure prediction by ZEFSAII (Michael W. Deem and Ramdas Pophale) SiO2 
 PCOD8254503
Probable space group: P N M A
;
_chemical_formula_sum "Si O2"
_cell_formula_units_Z 64
_cell_length_a 23.799281
_cell_length_b 14.074823
_cell_length_c 8.948691
_cell_angle_alpha 90.000000
_cell_angle_beta 90.000000
_cell_angle_gamma 90.000000
_cell_volume 2997.548998
_symmetry_space_group_name_H-M "P N M A"
_symmetry_group_IT_number 62
_symmetry_cell_setting 'orthorhombic'
loop_
_space_group_symop_operation_xyz
x,y,z
1/2-x,-y,1/2+z
1/2+x,1/2-y,1/2-z
-x,1/2+y,-z
-x,-y,-z
1/2+x,y,1/2-z
1/2-x,1/2+y,1/2+z
x,1/2-y,z
loop_
_atom_site_type_symbol
_atom_site_label
_atom_site_fract_x
_atom_site_fract_y
_atom_site_fract_z
Si Si1 0.886650 0.140692 0.019963
Si Si2 0.392399 0.855875 0.638400
Si Si3 0.489584 0.862463 0.070568
Si Si4 0.303048 0.491715 0.122391
Si Si5 0.091718 0.859566 0.646135
Si Si6 0.469716 0.023960 0.652061
Si Si7 0.866729 0.853457 0.538365
Si Si8 0.308146 0.975094 0.459793
O O1 0.871256 0.250000 0.997497
O O2 0.920039 0.122647 0.177178
O O3 0.828186 0.083398 0.014982
O O4 0.923498 0.104992 0.881530
O O5 0.414113 0.750000 0.590813
O O6 0.354358 0.847010 0.785105
O O7 0.358481 0.902283 0.500972
O O8 0.443074 0.922685 0.695360
O O9 0.494066 0.750000 0.109344
O O10 0.492738 0.929597 0.217543
O O11 0.538315 0.892730 0.952544
O O12 0.429771 0.889107 0.999264
O O13 0.351748 0.414328 0.102436
O O14 0.293765 0.534359 0.286399
O O15 0.318239 0.580571 0.021479
O O16 0.245105 0.448497 0.061018
O O17 0.104368 0.750000 0.615002
O O18 0.500000 0.000000 0.500000
O O19 0.859161 0.750000 0.465120
#
# Coordination Sequence:
#
# PCOD8254503 Si02
#       8
#     8   8   8   8   8   8   8   8
#     4   9  20  40  61  85 118 155 199 248 301 361
#     4  10  23  42  60  85 121 161 207 252 301 363
#     4  10  22  39  61  91 126 159 201 250 298 357
#     4  11  22  39  62  89 123 155 201 254 304 365
#     4   9  20  38  62  88 115 156 203 247 299 356
#     4  11  24  36  57  90 122 163 198 239 300 354
#     4  10  23  40  62  90 122 164 204 251 308 360
#     4  10  23  40  62  90 119 160 201 252 311 361
#
# _framework density 21.350777000000001
#
# number of rings (size 3 to 8) (size 9 to 14) (size 15 to 20)
#    0.000    2.000    0.000    1.875    7.000    4.500 
#    0.000    2.500    0.000    0.000    0.000    0.000 
#    0.000    0.000    0.000    0.000    0.000    0.000 
#
# Total GULP energy -793376.050398 kJ/mol
# GULP energy per Si atom -12396.500787 kJ/mol
# Density = 2.130218 g / cm^3
# Si number density = 21.350777 Si / 1000 Ang^3
#
#
#
# Elastic Constant Matrix: (Units=GPa)
#
#
# Indices 1 2 3 4 5 6 
#
# 1 41.7783 7.8135 5.3023 0.0000 0.0000 0.0000
# 2 7.8135 102.4920 21.6697 0.0000 0.0000 0.0000
# 3 5.3023 21.6697 74.1741 0.0000 0.0000 0.0000
# 4 0.0000 0.0000 0.0000 33.4324 0.0000 0.0000
# 5 0.0000 0.0000 0.0000 0.0000 38.4396 0.0000
# 6 0.0000 0.0000 0.0000 0.0000 0.0000 18.8657
#
#
#
# Elastic Compliance Matrix: (Units=1/GPa)
#
#
# Indices 1 2 3 4 5 6 
#
# 1 0.024396 -0.001589 -0.001280 0.000000 0.000000 0.000000
# 2 -0.001589 0.010503 -0.002955 0.000000 0.000000 0.000000
# 3 -0.001280 -0.002955 0.014436 0.000000 0.000000 0.000000
# 4 0.000000 0.000000 0.000000 0.029911 0.000000 0.000000
# 5 0.000000 0.000000 0.000000 0.000000 0.026015 0.000000
# 6 0.000000 0.000000 0.000000 0.000000 0.000000 0.053006
#
#
# Mechanical properties :
#
#
# Convention : Reuss Voigt Hill
#
# Bulk Modulus (GPa) = 26.53396 32.00171 29.26784
# Shear Modulus (GPa) = 27.40077 30.39146 28.89611
#
# Velocity S-wave (km/s) = 3.58629 3.77694 3.68285
# Velocity P-wave (km/s) = 5.44089 5.83450 5.64113
#
# Compressibility (1/GPa) = 0.03768756
#
# Stress axis : x y z
#
# Youngs Moduli (GPa) = 40.99112 95.21332 69.26895
#
# Poissons Ratio (x) = 0.15132 0.08864
# Poissons Ratio (y) = 0.06515 0.20467
# Poissons Ratio (z) = 0.05245 0.28133
#
# Static dielectric constant tensor:
#      x y z
#    x 3.266360 0.000000 0.000000 
#    y 0.000000 -2.249670 0.000000 
#    z 0.000000 0.000000 2.699560 
# 
# 
# High freq. dielectric constant tensor:
#      x y z
#    x 1.820480 0.000000 0.000000 
#    y 0.000000 1.848690 0.000000 
#    z 0.000000 0.000000 1.840810 
# 
# From -- ./inp_files/9469.got.cif
#   From: 2010.03.12/outbox.cif.g09.slc.cpg/sg62_5_cif.got.tgz:9469.got - 2010.04.10 19:12:36.
