data_PCOD8254339
_publ_section_title
;
Structure prediction by ZEFSAII (Michael W. Deem and Ramdas Pophale) SiO2 
 PCOD8254339
Probable space group: P N M A
;
_chemical_formula_sum "Si O2"
_cell_formula_units_Z 64
_cell_length_a 9.093566
_cell_length_b 22.925301
_cell_length_c 14.954565
_cell_angle_alpha 90.000000
_cell_angle_beta 90.000000
_cell_angle_gamma 90.000000
_cell_volume 3117.619107
_symmetry_space_group_name_H-M "P N M A"
_symmetry_group_IT_number 62
_symmetry_cell_setting 'orthorhombic'
loop_
_space_group_symop_operation_xyz
x,y,z
1/2-x,-y,1/2+z
1/2+x,1/2-y,1/2-z
-x,1/2+y,-z
-x,-y,-z
1/2+x,y,1/2-z
1/2-x,1/2+y,1/2+z
x,1/2-y,z
loop_
_atom_site_type_symbol
_atom_site_label
_atom_site_fract_x
_atom_site_fract_y
_atom_site_fract_z
Si Si1 0.041383 0.635847 0.158160
Si Si2 0.036400 0.598743 0.657798
Si Si3 0.872621 0.610754 0.830642
Si Si4 0.043808 0.637197 0.461748
Si Si5 0.913321 0.487433 0.909498
Si Si6 0.570776 0.478341 0.910878
Si Si7 0.136097 0.182356 0.999868
Si Si8 0.358665 0.815558 0.178749
O O1 0.957800 0.655463 0.245819
O O2 0.011283 0.567163 0.140809
O O3 0.214164 0.645739 0.169224
O O4 0.987618 0.674539 0.074736
O O5 0.199949 0.619927 0.676114
O O6 0.983429 0.623045 0.561196
O O7 0.033249 0.527758 0.663047
O O8 0.937217 0.627947 0.734185
O O9 0.923951 0.544942 0.849343
O O10 0.927328 0.653624 0.909365
O O11 0.216821 0.649934 0.465061
O O12 0.008168 0.583518 0.392179
O O13 0.950596 0.688563 0.414931
O O14 0.744197 0.471774 0.928444
O O15 0.000000 0.500000 0.000000
O O16 0.500000 0.500000 0.000000
O O17 0.170327 0.250000 0.017081
O O18 0.315107 0.750000 0.206773
#
# Coordination Sequence:
#
# PCOD8254339 Si02
#       8
#     8   8   8   8   8   8   8   8
#     4  12  26  43  67  94 131 172 220 271 334 396
#     4   9  21  38  60  91 128 163 204 257 322 384
#     4  10  22  39  62  93 130 165 207 265 322 385
#     4  10  21  41  65  91 123 169 219 268 324 378
#     4  11  22  40  64 100 132 169 216 269 333 398
#     4   9  19  37  60  92 129 166 209 259 325 385
#     4  11  23  44  66  90 126 175 221 270 329 390
#     4  12  25  43  64  94 129 170 220 271 321 393
#
# _framework density 20.528485
#
# number of rings (size 3 to 8) (size 9 to 14) (size 15 to 20)
#    0.000    1.500    2.500    3.000    1.750    3.000 
#    0.000    3.125    0.000    0.000    0.000    0.000 
#    0.000    0.000    0.000    0.000    0.000    0.000 
#
# Total GULP energy -793432.316614 kJ/mol
# GULP energy per Si atom -12397.379947 kJ/mol
# Density = 2.048176 g / cm^3
# Si number density = 20.528485 Si / 1000 Ang^3
#
#
#
# Elastic Constant Matrix: (Units=GPa)
#
#
# Indices 1 2 3 4 5 6 
#
# 1 73.0370 24.0376 54.7378 0.0000 0.0000 0.0000
# 2 24.0376 103.2133 41.6212 0.0000 0.0000 0.0000
# 3 54.7378 41.6212 135.6417 0.0000 0.0000 0.0000
# 4 0.0000 0.0000 0.0000 23.8858 0.0000 0.0000
# 5 0.0000 0.0000 0.0000 0.0000 37.5766 0.0000
# 6 0.0000 0.0000 0.0000 0.0000 0.0000 27.9899
#
#
#
# Elastic Compliance Matrix: (Units=1/GPa)
#
#
# Indices 1 2 3 4 5 6 
#
# 1 0.019854 -0.001590 -0.007524 0.000000 0.000000 0.000000
# 2 -0.001590 0.011184 -0.002790 0.000000 0.000000 0.000000
# 3 -0.007524 -0.002790 0.011265 0.000000 0.000000 0.000000
# 4 0.000000 0.000000 0.000000 0.041866 0.000000 0.000000
# 5 0.000000 0.000000 0.000000 0.000000 0.026612 0.000000
# 6 0.000000 0.000000 0.000000 0.000000 0.000000 0.035727
#
#
# Mechanical properties :
#
#
# Convention : Reuss Voigt Hill
#
# Bulk Modulus (GPa) = 54.06985 61.40948 57.73966
# Shear Modulus (GPa) = 28.33160 30.65683 29.49421
#
# Velocity S-wave (km/s) = 3.71902 3.86862 3.79455
# Velocity P-wave (km/s) = 6.69608 7.06641 6.88374
#
# Compressibility (1/GPa) = 0.01849459
#
# Stress axis : x y z
#
# Youngs Moduli (GPa) = 50.36794 89.41272 88.77112
#
# Poissons Ratio (x) = 0.14214 0.66793
# Poissons Ratio (y) = 0.08007 0.24770
# Poissons Ratio (z) = 0.37898 0.24949
#
# Static dielectric constant tensor:
#      x y z
#    x 3.610680 0.000000 0.000000 
#    y 0.000000 4.582240 0.000000 
#    z 0.000000 0.000000 3.712910 
# 
# 
# High freq. dielectric constant tensor:
#      x y z
#    x 1.799110 0.000000 0.000000 
#    y 0.000000 1.803380 0.000000 
#    z 0.000000 0.000000 1.802200 
# 
# From -- ./inp_files/17353.got.cif
#   From: 2010.03.12/outbox.cif.g09.slc.cpg/sg62_9_cif.got.tgz:17353.got - 2010.04.10 19:12:36.
