data_PCOD8254580
_publ_section_title
;
Structure prediction by ZEFSAII (Michael W. Deem and Ramdas Pophale) SiO2 
 PCOD8254580
Probable space group: P N M A
;
_chemical_formula_sum "Si O2"
_cell_formula_units_Z 48
_cell_length_a 9.632975
_cell_length_b 13.776182
_cell_length_c 16.600472
_cell_angle_alpha 90.000000
_cell_angle_beta 90.000000
_cell_angle_gamma 90.000000
_cell_volume 2202.975876
_symmetry_space_group_name_H-M "P N M A"
_symmetry_group_IT_number 62
_symmetry_cell_setting 'orthorhombic'
loop_
_space_group_symop_operation_xyz
x,y,z
1/2-x,-y,1/2+z
1/2+x,1/2-y,1/2-z
-x,1/2+y,-z
-x,-y,-z
1/2+x,y,1/2-z
1/2-x,1/2+y,1/2+z
x,1/2-y,z
loop_
_atom_site_type_symbol
_atom_site_label
_atom_site_fract_x
_atom_site_fract_y
_atom_site_fract_z
Si Si1 0.770797 0.978969 0.905345
Si Si2 0.010175 0.634938 0.821400
Si Si3 0.249233 0.958594 0.921995
Si Si4 0.661132 0.143393 0.800427
Si Si5 0.645590 0.643167 0.155253
Si Si6 0.489169 0.360718 0.132054
O O1 0.875078 0.899255 0.869751
O O2 0.622987 0.926823 0.912390
O O3 0.759078 0.069784 0.846942
O O4 0.818106 0.027721 0.989903
O O5 0.033055 0.750000 0.836365
O O6 0.994640 0.611752 0.726717
O O7 0.136277 0.570910 0.855535
O O8 0.366949 0.875961 0.915746
O O9 0.325298 0.061368 0.909581
O O10 0.679859 0.250000 0.839715
O O11 0.497739 0.115837 0.798570
O O12 0.718782 0.144186 0.710653
O O13 0.631029 0.750000 0.114515
O O14 0.442934 0.250000 0.124056
#
# Coordination Sequence:
#
# PCOD8254580 Si02
#       6
#     8   8   8   8   8   8
#     4  12  25  42  63 100 132 170 210 267 336 386
#     4  11  25  46  69  95 129 175 226 269 318 386
#     4  12  25  42  63 100 132 170 210 267 336 386
#     4  10  22  40  64  93 126 169 216 261 313 380
#     4  10  22  40  64  93 126 169 216 261 313 380
#     4  11  23  42  71  97 127 171 224 273 320 384
#
# _framework density 21.788709000000001
#
# number of rings (size 3 to 8) (size 9 to 14) (size 15 to 20)
#    0.000    1.000    1.667    5.000    2.333    5.333 
#    0.000    0.000    0.000    0.000    0.000    0.000 
#    0.000    0.000    0.000    0.000    0.000    0.000 
#
# Total GULP energy -595066.094118 kJ/mol
# GULP energy per Si atom -12397.210294 kJ/mol
# Density = 2.173912 g / cm^3
# Si number density = 21.788709 Si / 1000 Ang^3
#
#
#
# Elastic Constant Matrix: (Units=GPa)
#
#
# Indices 1 2 3 4 5 6 
#
# 1 79.2903 16.3766 4.4567 0.0000 0.0000 0.0000
# 2 16.3766 105.9070 24.8040 0.0000 0.0000 0.0000
# 3 4.4567 24.8040 68.1839 0.0000 0.0000 0.0000
# 4 0.0000 0.0000 0.0000 16.0172 0.0000 0.0000
# 5 0.0000 0.0000 0.0000 0.0000 26.4477 0.0000
# 6 0.0000 0.0000 0.0000 0.0000 0.0000 40.4144
#
#
#
# Elastic Compliance Matrix: (Units=1/GPa)
#
#
# Indices 1 2 3 4 5 6 
#
# 1 0.013029 -0.001984 -0.000130 0.000000 0.000000 0.000000
# 2 -0.001984 0.010624 -0.003735 0.000000 0.000000 0.000000
# 3 -0.000130 -0.003735 0.016033 0.000000 0.000000 0.000000
# 4 0.000000 0.000000 0.000000 0.062433 0.000000 0.000000
# 5 0.000000 0.000000 0.000000 0.000000 0.037810 0.000000
# 6 0.000000 0.000000 0.000000 0.000000 0.000000 0.024744
#
#
# Mechanical properties :
#
#
# Convention : Reuss Voigt Hill
#
# Bulk Modulus (GPa) = 35.72953 38.29510 37.01232
# Shear Modulus (GPa) = 26.92502 30.42546 28.67524
#
# Velocity S-wave (km/s) = 3.51911 3.74088 3.63169
# Velocity P-wave (km/s) = 5.73986 6.02268 5.88297
#
# Compressibility (1/GPa) = 0.02798805
#
# Stress axis : x y z
#
# Youngs Moduli (GPa) = 76.75177 94.12782 62.36963
#
# Poissons Ratio (x) = 0.18678 0.00809
# Poissons Ratio (y) = 0.15230 0.23295
# Poissons Ratio (z) = 0.00996 0.35157
#
# Static dielectric constant tensor:
#      x y z
#    x 3.952060 0.000000 0.000000 
#    y 0.000000 4.264590 0.000000 
#    z 0.000000 0.000000 3.692890 
# 
# 
# High freq. dielectric constant tensor:
#      x y z
#    x 1.860130 0.000000 0.000000 
#    y 0.000000 1.879400 0.000000 
#    z 0.000000 0.000000 1.835080 
# 
# From -- ./inp_files/22181.got.cif
#   From: 2010.03.12/outbox.cif.g09.slc.cpg/sg62_12_cif.got.tgz:22181.got - 2010.04.10 19:12:36.
