data_PCOD8254165
_publ_section_title
;
Structure prediction by ZEFSAII (Michael W. Deem and Ramdas Pophale) SiO2 
 PCOD8254165
Probable space group: P N M A
;
_chemical_formula_sum "Si O2"
_cell_formula_units_Z 56
_cell_length_a 13.688046
_cell_length_b 28.770456
_cell_length_c 6.655417
_cell_angle_alpha 90.000000
_cell_angle_beta 90.000000
_cell_angle_gamma 90.000000
_cell_volume 2620.978588
_symmetry_space_group_name_H-M "P N M A"
_symmetry_group_IT_number 62
_symmetry_cell_setting 'orthorhombic'
loop_
_space_group_symop_operation_xyz
x,y,z
1/2-x,-y,1/2+z
1/2+x,1/2-y,1/2-z
-x,1/2+y,-z
-x,-y,-z
1/2+x,y,1/2-z
1/2-x,1/2+y,1/2+z
x,1/2-y,z
loop_
_atom_site_type_symbol
_atom_site_label
_atom_site_fract_x
_atom_site_fract_y
_atom_site_fract_z
Si Si1 0.297229 0.647024 0.202911
Si Si2 0.430115 0.940135 0.696053
Si Si3 0.603135 0.802933 0.197217
Si Si4 0.605873 0.496744 0.668896
Si Si5 0.269626 0.550629 0.020840
Si Si6 0.925251 0.698756 0.015003
Si Si7 0.033868 0.156441 0.382558
O O1 0.202039 0.678805 0.203503
O O2 0.263202 0.594328 0.170803
O O3 0.351089 0.657787 0.415152
O O4 0.372169 0.659314 0.025808
O O5 0.504306 0.982216 0.750470
O O6 0.480640 0.891595 0.758149
O O7 0.410639 0.948299 0.456501
O O8 0.328020 0.941549 0.814528
O O9 0.616582 0.750000 0.124374
O O10 0.527161 0.807380 0.375465
O O11 0.565493 0.833323 0.006388
O O12 0.672712 0.489122 0.861061
O O13 0.659772 0.534033 0.523788
O O14 0.880875 0.750000 0.062639
O O15 0.945803 0.696285 0.778938
#
# Coordination Sequence:
#
# PCOD8254165 Si02
#       7
#     8   8   8   8   8   8   8
#     4  10  23  40  61  89 124 160 200 254 311 364
#     4  10  23  41  60  89 124 165 205 252 310 364
#     4  10  22  40  62  92 124 158 202 253 312 372
#     4  11  22  39  63  88 123 163 206 257 307 361
#     4  11  22  40  61  90 121 158 208 253 303 365
#     4  10  21  39  63  89 122 161 200 251 307 367
#     4  10  22  41  63  90 123 161 209 253 303 375
#
# _framework density 21.366066
#
# number of rings (size 3 to 8) (size 9 to 14) (size 15 to 20)
#    0.000    1.714    1.429    2.143    2.000    4.000 
#    7.714    1.429    0.000    0.000    0.000    0.000 
#    0.000    0.000    0.000    0.000    0.000    0.000 
#
# Total GULP energy -694095.163480 kJ/mol
# GULP energy per Si atom -12394.556491 kJ/mol
# Density = 2.131744 g / cm^3
# Si number density = 21.366066 Si / 1000 Ang^3
#
#
#
# Elastic Constant Matrix: (Units=GPa)
#
#
# Indices 1 2 3 4 5 6 
#
# 1 64.0149 32.1092 2.1979 0.0000 0.0000 0.0000
# 2 32.1092 83.8240 23.2321 0.0000 0.0000 0.0000
# 3 2.1979 23.2321 68.6846 0.0000 0.0000 0.0000
# 4 0.0000 0.0000 0.0000 31.2116 0.0000 0.0000
# 5 0.0000 0.0000 0.0000 0.0000 17.5599 0.0000
# 6 0.0000 0.0000 0.0000 0.0000 0.0000 35.0555
#
#
#
# Elastic Compliance Matrix: (Units=1/GPa)
#
#
# Indices 1 2 3 4 5 6 
#
# 1 0.019610 -0.008097 0.002111 0.000000 0.000000 0.000000
# 2 -0.008097 0.016507 -0.005324 0.000000 0.000000 0.000000
# 3 0.002111 -0.005324 0.016293 0.000000 0.000000 0.000000
# 4 0.000000 0.000000 0.000000 0.032039 0.000000 0.000000
# 5 0.000000 0.000000 0.000000 0.000000 0.056948 0.000000
# 6 0.000000 0.000000 0.000000 0.000000 0.000000 0.028526
#
#
# Mechanical properties :
#
#
# Convention : Reuss Voigt Hill
#
# Bulk Modulus (GPa) = 33.56849 36.84467 35.20658
# Shear Modulus (GPa) = 24.69460 27.36434 26.02947
#
# Velocity S-wave (km/s) = 3.40337 3.58262 3.49415
# Velocity P-wave (km/s) = 5.58473 5.86477 5.72646
#
# Compressibility (1/GPa) = 0.02978984
#
# Stress axis : x y z
#
# Youngs Moduli (GPa) = 50.99386 60.58047 61.37740
#
# Poissons Ratio (x) = 0.49052 -0.12958
# Poissons Ratio (y) = 0.41289 0.32679
# Poissons Ratio (z) = -0.10766 0.32255
#
# Static dielectric constant tensor:
#      x y z
#    x 3.793510 0.000000 0.000000 
#    y 0.000000 3.941770 0.000000 
#    z 0.000000 0.000000 3.801550 
# 
# 
# High freq. dielectric constant tensor:
#      x y z
#    x 1.836910 0.000000 0.000000 
#    y 0.000000 1.838120 0.000000 
#    z 0.000000 0.000000 1.837410 
# 
# From -- ./inp_files/1280.got.cif
#   From: 2010.03.12/outbox.cif.g09.slc.cpg/sg62_1_cif.got.tgz:1280.got - 2010.04.10 19:12:36.
