data_PCOD8254735
_publ_section_title
;
Structure prediction by ZEFSAII (Michael W. Deem and Ramdas Pophale) SiO2 
 PCOD8254735
Probable space group: P N M A
;
_chemical_formula_sum "Si O2"
_cell_formula_units_Z 64
_cell_length_a 8.862404
_cell_length_b 29.637603
_cell_length_c 11.526242
_cell_angle_alpha 90.000000
_cell_angle_beta 90.000000
_cell_angle_gamma 90.000000
_cell_volume 3027.487465
_symmetry_space_group_name_H-M "P N M A"
_symmetry_group_IT_number 62
_symmetry_cell_setting 'orthorhombic'
loop_
_space_group_symop_operation_xyz
x,y,z
1/2-x,-y,1/2+z
1/2+x,1/2-y,1/2-z
-x,1/2+y,-z
-x,-y,-z
1/2+x,y,1/2-z
1/2-x,1/2+y,1/2+z
x,1/2-y,z
loop_
_atom_site_type_symbol
_atom_site_label
_atom_site_fract_x
_atom_site_fract_y
_atom_site_fract_z
Si Si1 0.404223 0.431186 0.018158
Si Si2 0.905352 0.477957 0.702541
Si Si3 0.221046 0.111676 0.440237
Si Si4 0.282340 0.639199 0.387850
Si Si5 0.347268 0.460004 0.261804
Si Si6 0.308955 0.801468 0.601504
Si Si7 0.609624 0.614310 0.326335
Si Si8 0.354406 0.302760 0.335187
O O1 0.459609 0.471575 0.932014
O O2 0.279902 0.407431 0.937438
O O3 0.544193 0.400285 0.060445
O O4 0.308542 0.445119 0.130521
O O5 0.731470 0.492635 0.705301
O O6 0.941282 0.433285 0.774123
O O7 0.979147 0.523541 0.757221
O O8 0.315840 0.080260 0.351630
O O9 0.278388 0.103489 0.569388
O O10 0.244827 0.164478 0.408839
O O11 0.247158 0.676650 0.483879
O O12 0.461266 0.639909 0.368745
O O13 0.195185 0.646892 0.266072
O O14 0.327201 0.750000 0.570519
O O15 0.473294 0.818825 0.644371
O O16 0.184318 0.810163 0.700101
O O17 0.326240 0.250000 0.369622
#
# Coordination Sequence:
#
# PCOD8254735 Si02
#       8
#     8   8   8   8   8   8   8   8
#     4  11  25  44  61  90 136 174 227 286 335 402
#     4  11  24  43  62  87 128 176 225 280 334 397
#     4  12  25  41  66  99 131 175 224 279 334 405
#     4  11  23  45  68  94 129 181 221 276 335 401
#     4  12  25  38  64  94 127 174 228 279 344 393
#     4  10  22  43  70 104 137 170 217 275 338 403
#     4  11  24  43  68  92 131 180 228 269 333 394
#     4  10  23  43  71 103 139 173 213 274 344 407
#
# _framework density 21.139641000000001
#
# number of rings (size 3 to 8) (size 9 to 14) (size 15 to 20)
#    0.000    1.000    2.500    4.875    7.000    0.500 
#    0.000    1.250    0.000    0.000    0.000    0.000 
#    0.000    0.000    0.000    0.000    0.000    0.000 
#
# Total GULP energy -793331.242171 kJ/mol
# GULP energy per Si atom -12395.800659 kJ/mol
# Density = 2.109153 g / cm^3
# Si number density = 21.139641 Si / 1000 Ang^3
#
#
#
# Elastic Constant Matrix: (Units=GPa)
#
#
# Indices 1 2 3 4 5 6 
#
# 1 72.1337 25.8021 35.4736 0.0000 0.0000 0.0000
# 2 25.8021 64.7926 49.5726 0.0000 0.0000 0.0000
# 3 35.4736 49.5726 152.7730 0.0000 0.0000 0.0000
# 4 0.0000 0.0000 0.0000 25.5666 0.0000 0.0000
# 5 0.0000 0.0000 0.0000 0.0000 39.8150 0.0000
# 6 0.0000 0.0000 0.0000 0.0000 0.0000 31.0154
#
#
#
# Elastic Compliance Matrix: (Units=1/GPa)
#
#
# Indices 1 2 3 4 5 6 
#
# 1 0.016749 -0.004915 -0.002294 0.000000 0.000000 0.000000
# 2 -0.004915 0.021973 -0.005989 0.000000 0.000000 0.000000
# 3 -0.002294 -0.005989 0.009022 0.000000 0.000000 0.000000
# 4 0.000000 0.000000 0.000000 0.039114 0.000000 0.000000
# 5 0.000000 0.000000 0.000000 0.000000 0.025116 0.000000
# 6 0.000000 0.000000 0.000000 0.000000 0.000000 0.032242
#
#
# Mechanical properties :
#
#
# Convention : Reuss Voigt Hill
#
# Bulk Modulus (GPa) = 46.84169 56.82175 51.83172
# Shear Modulus (GPa) = 28.13294 31.20280 29.66787
#
# Velocity S-wave (km/s) = 3.65199 3.84609 3.75029
# Velocity P-wave (km/s) = 6.32369 6.83087 6.58217
#
# Compressibility (1/GPa) = 0.02134851
#
# Stress axis : x y z
#
# Youngs Moduli (GPa) = 59.70340 45.51052 110.84391
#
# Poissons Ratio (x) = 0.22366 0.25433
# Poissons Ratio (y) = 0.29342 0.66382
# Poissons Ratio (z) = 0.13699 0.27255
#
# Static dielectric constant tensor:
#      x y z
#    x 3.854170 0.000000 0.000000 
#    y 0.000000 3.722020 0.000000 
#    z 0.000000 0.000000 4.059920 
# 
# 
# High freq. dielectric constant tensor:
#      x y z
#    x 1.832610 0.000000 0.000000 
#    y 0.000000 1.815590 0.000000 
#    z 0.000000 0.000000 1.841160 
# 
# From -- ./inp_files/11562.got.cif
#   From: 2010.03.12/outbox.cif.g09.slc.cpg/sg62_6_cif.got.tgz:11562.got - 2010.04.10 19:12:36.
