data_PCOD8254048
_publ_section_title
;
Structure prediction by ZEFSAII (Michael W. Deem and Ramdas Pophale) SiO2 
 PCOD8254048
Probable space group: P N M A
;
_chemical_formula_sum "Si O2"
_cell_formula_units_Z 40
_cell_length_a 10.725568
_cell_length_b 13.389674
_cell_length_c 12.966403
_cell_angle_alpha 90.000000
_cell_angle_beta 90.000000
_cell_angle_gamma 90.000000
_cell_volume 1862.129239
_symmetry_space_group_name_H-M "P N M A"
_symmetry_group_IT_number 62
_symmetry_cell_setting 'orthorhombic'
loop_
_space_group_symop_operation_xyz
x,y,z
1/2-x,-y,1/2+z
1/2+x,1/2-y,1/2-z
-x,1/2+y,-z
-x,-y,-z
1/2+x,y,1/2-z
1/2-x,1/2+y,1/2+z
x,1/2-y,z
loop_
_atom_site_type_symbol
_atom_site_label
_atom_site_fract_x
_atom_site_fract_y
_atom_site_fract_z
Si Si1 0.389472 0.919334 0.846077
Si Si2 0.700805 0.462847 0.540105
Si Si3 0.946482 0.465437 0.856003
Si Si4 0.926190 0.250000 0.352298
Si Si5 0.203139 0.250000 0.002328
Si Si6 0.294401 0.250000 0.340483
Si Si7 0.569506 0.750000 0.450994
O O1 0.503614 0.851499 0.887633
O O2 0.283442 0.845952 0.803521
O O3 0.327484 0.976055 0.942807
O O4 0.427691 0.003043 0.762242
O O5 0.655359 0.473612 0.422250
O O6 0.586602 0.499436 0.613040
O O7 0.734162 0.347896 0.564747
O O8 0.925012 0.347057 0.876818
O O9 0.785949 0.250000 0.394819
O O10 0.920689 0.250000 0.227237
O O11 0.054192 0.250000 0.022632
O O12 0.319696 0.250000 0.464171
#
# Coordination Sequence:
#
# PCOD8254048 Si02
#       7
#     8   8   8   4   4   4   4
#     4  11  23  37  63  94 129 162 211 269 317 381
#     4  10  21  39  62  89 125 170 214 252 317 384
#     4  10  21  38  63  92 125 169 210 259 312 386
#     4  11  25  36  59  94 126 156 212 273 328 356
#     4  10  23  40  61  89 124 169 208 268 306 380
#     4  11  21  38  61  95 123 161 210 263 310 380
#     4  10  21  40  67  88 123 166 222 252 312 384
#
# _framework density 21.480785999999998
#
# number of rings (size 3 to 8) (size 9 to 14) (size 15 to 20)
#    0.000    1.600    2.000    2.400    8.400    1.600 
#    0.000    0.000    0.000    0.000    0.000    0.000 
#    0.000    0.000    0.000    0.000    0.000    0.000 
#
# Total GULP energy -495740.449400 kJ/mol
# GULP energy per Si atom -12393.511235 kJ/mol
# Density = 2.143189 g / cm^3
# Si number density = 21.480786 Si / 1000 Ang^3
#
#
#
# Elastic Constant Matrix: (Units=GPa)
#
#
# Indices 1 2 3 4 5 6 
#
# 1 72.9392 46.0021 32.1996 0.0000 0.0000 0.0000
# 2 46.0021 133.2278 26.2546 0.0000 0.0000 0.0000
# 3 32.1996 26.2546 58.0196 0.0000 0.0000 0.0000
# 4 0.0000 0.0000 0.0000 24.1581 0.0000 0.0000
# 5 0.0000 0.0000 0.0000 0.0000 29.8972 0.0000
# 6 0.0000 0.0000 0.0000 0.0000 0.0000 36.9025
#
#
#
# Elastic Compliance Matrix: (Units=1/GPa)
#
#
# Indices 1 2 3 4 5 6 
#
# 1 0.021309 -0.005520 -0.009329 0.000000 0.000000 0.000000
# 2 -0.005520 0.009670 -0.001313 0.000000 0.000000 0.000000
# 3 -0.009329 -0.001313 0.023007 0.000000 0.000000 0.000000
# 4 0.000000 0.000000 0.000000 0.041394 0.000000 0.000000
# 5 0.000000 0.000000 0.000000 0.000000 0.033448 0.000000
# 6 0.000000 0.000000 0.000000 0.000000 0.000000 0.027098
#
#
# Mechanical properties :
#
#
# Convention : Reuss Voigt Hill
#
# Bulk Modulus (GPa) = 46.15780 52.56655 49.36218
# Shear Modulus (GPa) = 25.57933 28.84025 27.20979
#
# Velocity S-wave (km/s) = 3.45454 3.66813 3.56294
# Velocity P-wave (km/s) = 6.11935 6.51651 6.32105
#
# Compressibility (1/GPa) = 0.02166481
#
# Stress axis : x y z
#
# Youngs Moduli (GPa) = 46.92777 103.40738 43.46555
#
# Poissons Ratio (x) = 0.57076 0.40547
# Poissons Ratio (y) = 0.25902 0.05706
# Poissons Ratio (z) = 0.43777 0.13575
#
# Static dielectric constant tensor:
#      x y z
#    x 3.888430 0.000000 0.000000 
#    y 0.000000 4.252040 0.000000 
#    z 0.000000 0.000000 3.232180 
# 
# 
# High freq. dielectric constant tensor:
#      x y z
#    x 1.841550 0.000000 0.000000 
#    y 0.000000 1.867250 0.000000 
#    z 0.000000 0.000000 1.795690 
# 
# From -- ./inp_files/12118.got.cif
#   From: 2010.03.12/outbox.cif.g09.slc.cpg/sg62_7_cif.got.tgz:12118.got - 2010.04.10 19:12:36.
