data_PCOD8254315
_publ_section_title
;
Structure prediction by ZEFSAII (Michael W. Deem and Ramdas Pophale) SiO2 
 PCOD8254315
Probable space group: P N M A
;
_chemical_formula_sum "Si O2"
_cell_formula_units_Z 40
_cell_length_a 14.970127
_cell_length_b 9.237136
_cell_length_c 14.808994
_cell_angle_alpha 90.000000
_cell_angle_beta 90.000000
_cell_angle_gamma 90.000000
_cell_volume 2047.803966
_symmetry_space_group_name_H-M "P N M A"
_symmetry_group_IT_number 62
_symmetry_cell_setting 'orthorhombic'
loop_
_space_group_symop_operation_xyz
x,y,z
1/2-x,-y,1/2+z
1/2+x,1/2-y,1/2-z
-x,1/2+y,-z
-x,-y,-z
1/2+x,y,1/2-z
1/2-x,1/2+y,1/2+z
x,1/2-y,z
loop_
_atom_site_type_symbol
_atom_site_label
_atom_site_fract_x
_atom_site_fract_y
_atom_site_fract_z
Si Si1 0.230976 0.579786 0.177819
Si Si2 0.033688 0.914143 0.228619
Si Si3 0.734066 0.414685 0.028171
Si Si4 0.062434 0.913914 0.433428
Si Si5 0.362702 0.416672 0.311288
O O1 0.242600 0.750000 0.196529
O O2 0.132159 0.527239 0.205040
O O3 0.303742 0.496818 0.236551
O O4 0.244475 0.538981 0.073569
O O5 0.022630 0.750000 0.192838
O O6 0.017716 0.920263 0.335577
O O7 0.960857 0.014925 0.181287
O O8 0.698476 0.250000 0.030963
O O9 0.660178 0.518100 0.070695
O O10 0.821976 0.432539 0.088862
O O11 0.070821 0.750000 0.467788
O O12 0.000000 0.000000 0.500000
O O13 0.370472 0.250000 0.282029
#
# Coordination Sequence:
#
# PCOD8254315 Si02
#       5
#     8   8   8   8   8
#     4  10  21  41  63  84 116 160 203 241 290 361
#     4  10  22  39  60  84 115 159 202 239 288 358
#     4  10  22  39  60  86 119 155 195 247 300 350
#     4  11  22  37  59  88 118 154 200 247 295 350
#     4  11  23  38  59  90 123 153 193 252 307 347
#
# _framework density 19.53312
#
# number of rings (size 3 to 8) (size 9 to 14) (size 15 to 20)
#    0.000    1.600    2.000    2.400    0.000    9.600 
#    0.000    0.000    0.000    0.000    0.000    0.000 
#    0.000    0.000    0.000    0.000    0.000    0.000 
#
# Total GULP energy -496213.039276 kJ/mol
# GULP energy per Si atom -12405.325982 kJ/mol
# Density = 1.948866 g / cm^3
# Si number density = 19.533120 Si / 1000 Ang^3
#
#
#
# Elastic Constant Matrix: (Units=GPa)
#
#
# Indices 1 2 3 4 5 6 
#
# 1 94.2891 40.2791 1.8481 0.0000 0.0000 0.0000
# 2 40.2791 87.1859 20.5220 0.0000 0.0000 0.0000
# 3 1.8481 20.5220 68.7206 0.0000 0.0000 0.0000
# 4 0.0000 0.0000 0.0000 26.0887 0.0000 0.0000
# 5 0.0000 0.0000 0.0000 0.0000 34.6236 0.0000
# 6 0.0000 0.0000 0.0000 0.0000 0.0000 39.7845
#
#
#
# Elastic Compliance Matrix: (Units=1/GPa)
#
#
# Indices 1 2 3 4 5 6 
#
# 1 0.013375 -0.006555 0.001598 0.000000 0.000000 0.000000
# 2 -0.006555 0.015550 -0.004467 0.000000 0.000000 0.000000
# 3 0.001598 -0.004467 0.015843 0.000000 0.000000 0.000000
# 4 0.000000 0.000000 0.000000 0.038331 0.000000 0.000000
# 5 0.000000 0.000000 0.000000 0.000000 0.028882 0.000000
# 6 0.000000 0.000000 0.000000 0.000000 0.000000 0.025135
#
#
# Mechanical properties :
#
#
# Convention : Reuss Voigt Hill
#
# Bulk Modulus (GPa) = 38.58321 41.72157 40.15239
# Shear Modulus (GPa) = 30.37600 32.60243 31.48922
#
# Velocity S-wave (km/s) = 3.94776 4.08988 4.01944
# Velocity P-wave (km/s) = 6.36987 6.61124 6.49168
#
# Compressibility (1/GPa) = 0.02591801
#
# Stress axis : x y z
#
# Youngs Moduli (GPa) = 74.76858 64.31012 63.12024
#
# Poissons Ratio (x) = 0.42156 -0.10086
# Poissons Ratio (y) = 0.49011 0.28198
# Poissons Ratio (z) = -0.11947 0.28729
#
# Static dielectric constant tensor:
#      x y z
#    x 3.669270 0.000000 0.000000 
#    y 0.000000 3.768990 0.000000 
#    z 0.000000 0.000000 3.573030 
# 
# 
# High freq. dielectric constant tensor:
#      x y z
#    x 1.767590 0.000000 0.000000 
#    y 0.000000 1.762390 0.000000 
#    z 0.000000 0.000000 1.764430 
# 
# From -- ./inp_files/18590.got.cif
#   From: 2010.03.12/outbox.cif.g09.slc.cpg/sg62_10_cif.got.tgz:18590.got - 2010.04.10 19:12:36.
