data_PCOD8254068
_publ_section_title
;
Structure prediction by ZEFSAII (Michael W. Deem and Ramdas Pophale) SiO2 
 PCOD8254068
Probable space group: P N M A
;
_chemical_formula_sum "Si O2"
_cell_formula_units_Z 48
_cell_length_a 26.589650
_cell_length_b 16.683779
_cell_length_c 5.156208
_cell_angle_alpha 90.000000
_cell_angle_beta 90.000000
_cell_angle_gamma 90.000000
_cell_volume 2287.375565
_symmetry_space_group_name_H-M "P N M A"
_symmetry_group_IT_number 62
_symmetry_cell_setting 'orthorhombic'
loop_
_space_group_symop_operation_xyz
x,y,z
1/2-x,-y,1/2+z
1/2+x,1/2-y,1/2-z
-x,1/2+y,-z
-x,-y,-z
1/2+x,y,1/2-z
1/2-x,1/2+y,1/2+z
x,1/2-y,z
loop_
_atom_site_type_symbol
_atom_site_label
_atom_site_fract_x
_atom_site_fract_y
_atom_site_fract_z
Si Si1 0.723359 0.472072 0.938261
Si Si2 0.865877 0.543237 0.119115
Si Si3 0.952053 0.441801 0.968805
Si Si4 0.318705 0.660702 0.750690
Si Si5 0.969632 0.342525 0.456092
Si Si6 0.580572 0.163697 0.950064
O O1 0.763149 0.477933 0.700567
O O2 0.668534 0.503269 0.833939
O O3 0.717577 0.378792 0.030875
O O4 0.897979 0.486762 0.927215
O O5 0.910730 0.594188 0.245090
O O6 0.822901 0.600392 0.991916
O O7 0.942495 0.390291 0.227939
O O8 0.958017 0.382099 0.731260
O O9 0.000000 0.500000 0.000000
O O10 0.298486 0.750000 0.678574
O O11 0.375802 0.666410 0.840887
O O12 0.952069 0.250000 0.460191
O O13 0.028947 0.351298 0.397942
O O14 0.577957 0.250000 0.803362
#
# Coordination Sequence:
#
# PCOD8254068 Si02
#       6
#     8   8   8   8   8   8
#     4  11  23  43  65  92 125 163 207 253 323 390
#     4  11  22  36  66  94 131 163 207 268 323 383
#     4  12  24  38  64  95 131 168 227 263 318 379
#     4  10  21  38  65  98 129 158 199 261 338 394
#     4  11  24  41  59  85 132 183 222 263 310 369
#     4   9  19  33  54  89 130 168 205 255 323 381
#
# _framework density 20.984749000000001
#
# number of rings (size 3 to 8) (size 9 to 14) (size 15 to 20)
#    0.000    1.333    3.333    2.500    4.667    0.667 
#    0.000    0.000    0.000    6.000    0.000    0.000 
#    0.000    0.000    0.000    0.000    0.000    0.000 
#
# Total GULP energy -594704.192927 kJ/mol
# GULP energy per Si atom -12389.670686 kJ/mol
# Density = 2.093699 g / cm^3
# Si number density = 20.984749 Si / 1000 Ang^3
#
#
#
# Elastic Constant Matrix: (Units=GPa)
#
#
# Indices 1 2 3 4 5 6 
#
# 1 68.6067 42.1522 23.3869 0.0000 0.0000 0.0000
# 2 42.1522 108.9498 45.2023 0.0000 0.0000 0.0000
# 3 23.3869 45.2023 105.3602 0.0000 0.0000 0.0000
# 4 0.0000 0.0000 0.0000 35.4386 0.0000 0.0000
# 5 0.0000 0.0000 0.0000 0.0000 30.9137 0.0000
# 6 0.0000 0.0000 0.0000 0.0000 0.0000 25.1693
#
#
#
# Elastic Compliance Matrix: (Units=1/GPa)
#
#
# Indices 1 2 3 4 5 6 
#
# 1 0.019269 -0.006911 -0.001312 0.000000 0.000000 0.000000
# 2 -0.006911 0.013645 -0.004320 0.000000 0.000000 0.000000
# 3 -0.001312 -0.004320 0.011636 0.000000 0.000000 0.000000
# 4 0.000000 0.000000 0.000000 0.028218 0.000000 0.000000
# 5 0.000000 0.000000 0.000000 0.000000 0.032348 0.000000
# 6 0.000000 0.000000 0.000000 0.000000 0.000000 0.039731
#
#
# Mechanical properties :
#
#
# Convention : Reuss Voigt Hill
#
# Bulk Modulus (GPa) = 51.37751 56.04440 53.71096
# Shear Modulus (GPa) = 28.34144 29.78267 29.06205
#
# Velocity S-wave (km/s) = 3.67900 3.77138 3.72548
# Velocity P-wave (km/s) = 6.52558 6.76237 6.64503
#
# Compressibility (1/GPa) = 0.01946377
#
# Stress axis : x y z
#
# Youngs Moduli (GPa) = 51.89647 73.28946 85.94097
#
# Poissons Ratio (x) = 0.50648 0.11278
# Poissons Ratio (y) = 0.35864 0.37126
# Poissons Ratio (z) = 0.06811 0.31660
#
# Static dielectric constant tensor:
#      x y z
#    x 3.763130 0.000000 0.000000 
#    y 0.000000 4.142300 0.000000 
#    z 0.000000 0.000000 3.782020 
# 
# 
# High freq. dielectric constant tensor:
#      x y z
#    x 1.798850 0.000000 0.000000 
#    y 0.000000 1.814890 0.000000 
#    z 0.000000 0.000000 1.827670 
# 
# From -- ./inp_files/3177.got.cif
#   From: 2010.03.12/outbox.cif.g09.slc.cpg/sg62_2_cif.got.tgz:3177.got - 2010.04.10 19:12:36.
