data_PCOD8254003
_publ_section_title
;
Structure prediction by ZEFSAII (Michael W. Deem and Ramdas Pophale) SiO2 
 PCOD8254003
Probable space group: P N M A
;
_chemical_formula_sum "Si O2"
_cell_formula_units_Z 64
_cell_length_a 9.036969
_cell_length_b 25.060485
_cell_length_c 13.534445
_cell_angle_alpha 90.000000
_cell_angle_beta 90.000000
_cell_angle_gamma 90.000000
_cell_volume 3065.156940
_symmetry_space_group_name_H-M "P N M A"
_symmetry_group_IT_number 62
_symmetry_cell_setting 'orthorhombic'
loop_
_space_group_symop_operation_xyz
x,y,z
1/2-x,-y,1/2+z
1/2+x,1/2-y,1/2-z
-x,1/2+y,-z
-x,-y,-z
1/2+x,y,1/2-z
1/2-x,1/2+y,1/2+z
x,1/2-y,z
loop_
_atom_site_type_symbol
_atom_site_label
_atom_site_fract_x
_atom_site_fract_y
_atom_site_fract_z
Si Si1 0.642054 0.111839 0.041045
Si Si2 0.164357 0.365945 0.160910
Si Si3 0.080676 0.129499 0.673744
Si Si4 0.451735 0.536087 0.312319
Si Si5 0.621279 0.687562 0.309202
Si Si6 0.973279 0.384501 0.975979
Si Si7 0.318713 0.965519 0.794946
Si Si8 0.976429 0.187067 0.322392
O O1 0.599733 0.061581 0.110914
O O2 0.582573 0.166038 0.090478
O O3 0.562031 0.104920 0.935620
O O4 0.819059 0.114918 0.034315
O O5 0.211132 0.421451 0.211248
O O6 0.307128 0.328356 0.157240
O O7 0.030967 0.337004 0.218387
O O8 0.109546 0.377890 0.050323
O O9 0.125910 0.081951 0.747190
O O10 0.208623 0.173839 0.672595
O O11 0.931195 0.159096 0.707815
O O12 0.509196 0.559987 0.415910
O O13 0.588100 0.513880 0.249108
O O14 0.337732 0.488438 0.332708
O O15 0.597248 0.750000 0.301172
O O16 0.522958 0.665055 0.399644
O O17 0.991034 0.250000 0.319026
#
# Coordination Sequence:
#
# PCOD8254003 Si02
#       8
#     8   8   8   8   8   8   8   8
#     4  10  22  40  60  89 122 157 203 251 302 361
#     4  11  23  42  63  91 126 159 203 253 301 362
#     4  10  22  40  58  85 123 156 199 255 302 359
#     4  11  23  40  62  90 122 162 205 250 309 364
#     4  10  21  38  61  86 116 161 206 250 308 363
#     4  10  23  41  62  89 124 160 203 254 302 365
#     4  11  22  38  62  88 119 159 202 247 303 370
#     4  11  24  41  64  92 124 163 203 250 307 361
#
# _framework density 20.879843999999999
#
# number of rings (size 3 to 8) (size 9 to 14) (size 15 to 20)
#    0.000    1.500    0.000    6.750    0.000   10.000 
#    0.000    0.000    0.000    0.000    0.000    0.000 
#    0.000    0.000    0.000    0.000    0.000    0.000 
#
# Total GULP energy -793820.594136 kJ/mol
# GULP energy per Si atom -12403.446783 kJ/mol
# Density = 2.083232 g / cm^3
# Si number density = 20.879844 Si / 1000 Ang^3
#
#
#
# Elastic Constant Matrix: (Units=GPa)
#
#
# Indices 1 2 3 4 5 6 
#
# 1 85.5921 27.3049 39.0067 0.0000 0.0000 0.0000
# 2 27.3049 108.5804 34.9606 0.0000 0.0000 0.0000
# 3 39.0067 34.9606 117.5631 0.0000 0.0000 0.0000
# 4 0.0000 0.0000 0.0000 23.0234 0.0000 0.0000
# 5 0.0000 0.0000 0.0000 0.0000 38.0629 0.0000
# 6 0.0000 0.0000 0.0000 0.0000 0.0000 38.9958
#
#
#
# Elastic Compliance Matrix: (Units=1/GPa)
#
#
# Indices 1 2 3 4 5 6 
#
# 1 0.014258 -0.002281 -0.004052 0.000000 0.000000 0.000000
# 2 -0.002281 0.010550 -0.002381 0.000000 0.000000 0.000000
# 3 -0.004052 -0.002381 0.010559 0.000000 0.000000 0.000000
# 4 0.000000 0.000000 0.000000 0.043434 0.000000 0.000000
# 5 0.000000 0.000000 0.000000 0.000000 0.026272 0.000000
# 6 0.000000 0.000000 0.000000 0.000000 0.000000 0.025644
#
#
# Mechanical properties :
#
#
# Convention : Reuss Voigt Hill
#
# Bulk Modulus (GPa) = 55.74504 57.14224 56.44364
# Shear Modulus (GPa) = 32.44162 34.04730 33.24446
#
# Velocity S-wave (km/s) = 3.94601 4.04249 3.99454
# Velocity P-wave (km/s) = 6.89328 7.01538 6.95460
#
# Compressibility (1/GPa) = 0.01793882
#
# Stress axis : x y z
#
# Youngs Moduli (GPa) = 70.13773 94.78885 94.70983
#
# Poissons Ratio (x) = 0.21618 0.38380
# Poissons Ratio (y) = 0.15996 0.22546
# Poissons Ratio (z) = 0.28423 0.22565
#
# Static dielectric constant tensor:
#      x y z
#    x 3.703180 0.000000 0.000000 
#    y 0.000000 3.723440 0.000000 
#    z 0.000000 0.000000 3.908510 
# 
# 
# High freq. dielectric constant tensor:
#      x y z
#    x 1.815300 0.000000 0.000000 
#    y 0.000000 1.820100 0.000000 
#    z 0.000000 0.000000 1.822300 
# 
# From -- ./inp_files/17351.got.cif
#   From: 2010.03.12/outbox.cif.g09.slc.cpg/sg62_9_cif.got.tgz:17351.got - 2010.04.10 19:12:36.
