data_PCOD8254639
_publ_section_title
;
Structure prediction by ZEFSAII (Michael W. Deem and Ramdas Pophale) SiO2 
 PCOD8254639
Probable space group: P N M A
;
_chemical_formula_sum "Si O2"
_cell_formula_units_Z 64
_cell_length_a 9.561786
_cell_length_b 25.457137
_cell_length_c 13.279678
_cell_angle_alpha 90.000000
_cell_angle_beta 90.000000
_cell_angle_gamma 90.000000
_cell_volume 3232.482065
_symmetry_space_group_name_H-M "P N M A"
_symmetry_group_IT_number 62
_symmetry_cell_setting 'orthorhombic'
loop_
_space_group_symop_operation_xyz
x,y,z
1/2-x,-y,1/2+z
1/2+x,1/2-y,1/2-z
-x,1/2+y,-z
-x,-y,-z
1/2+x,y,1/2-z
1/2-x,1/2+y,1/2+z
x,1/2-y,z
loop_
_atom_site_type_symbol
_atom_site_label
_atom_site_fract_x
_atom_site_fract_y
_atom_site_fract_z
Si Si1 0.696588 0.435541 0.104688
Si Si2 0.456460 0.896057 0.267602
Si Si3 0.423376 0.118793 0.038005
Si Si4 0.186054 0.556708 0.359634
Si Si5 0.129674 0.633449 0.039803
Si Si6 0.598418 0.311836 0.894259
Si Si7 0.251409 0.145066 0.231480
Si Si8 0.481444 0.309517 0.357450
O O1 0.535806 0.422270 0.081323
O O2 0.718693 0.497089 0.114220
O O3 0.744726 0.410391 0.210564
O O4 0.791946 0.415296 0.012799
O O5 0.537729 0.937546 0.196968
O O6 0.304544 0.919869 0.287243
O O7 0.539321 0.889042 0.370121
O O8 0.441384 0.840533 0.210145
O O9 0.328589 0.141310 0.125984
O O10 0.318686 0.089018 0.963095
O O11 0.499116 0.167876 0.984186
O O12 0.241032 0.676405 0.078049
O O13 0.021741 0.660750 0.963692
O O14 0.576016 0.250000 0.879571
O O15 0.331091 0.186479 0.303095
O O16 0.094600 0.164995 0.216586
O O17 0.521881 0.250000 0.379025
#
# Coordination Sequence:
#
# PCOD8254639 Si02
#       8
#     8   8   8   8   8   8   8   8
#     4  10  23  40  65  93 124 170 204 258 319 370
#     4  11  23  43  62  96 129 159 209 263 302 381
#     4  10  22  42  60  92 127 162 210 262 304 383
#     4  11  24  39  67  92 128 166 209 257 317 370
#     4  10  22  42  62  90 129 157 211 259 304 374
#     4  10  22  41  65  91 125 167 202 256 323 367
#     4  11  22  41  60  90 127 157 209 258 304 376
#     4  11  23  38  61  88 120 162 203 254 311 364
#
# _framework density 19.799026999999999
#
# number of rings (size 3 to 8) (size 9 to 14) (size 15 to 20)
#    0.000    1.500    2.500    1.875    1.750    3.500 
#    0.000    0.000    0.000    0.000    0.000    0.000 
#    0.000    0.000    0.000    0.000    0.000    0.000 
#
# Total GULP energy -793938.533489 kJ/mol
# GULP energy per Si atom -12405.289586 kJ/mol
# Density = 1.975396 g / cm^3
# Si number density = 19.799027 Si / 1000 Ang^3
#
#
#
# Elastic Constant Matrix: (Units=GPa)
#
#
# Indices 1 2 3 4 5 6 
#
# 1 75.6983 25.3961 22.7018 0.0000 0.0000 0.0000
# 2 25.3961 118.6967 26.4806 0.0000 0.0000 0.0000
# 3 22.7018 26.4806 90.5669 0.0000 0.0000 0.0000
# 4 0.0000 0.0000 0.0000 19.6353 0.0000 0.0000
# 5 0.0000 0.0000 0.0000 0.0000 43.2336 0.0000
# 6 0.0000 0.0000 0.0000 0.0000 0.0000 15.7637
#
#
#
# Elastic Compliance Matrix: (Units=1/GPa)
#
#
# Indices 1 2 3 4 5 6 
#
# 1 0.014962 -0.002530 -0.003011 0.000000 0.000000 0.000000
# 2 -0.002530 0.009440 -0.002126 0.000000 0.000000 0.000000
# 3 -0.003011 -0.002126 0.012418 0.000000 0.000000 0.000000
# 4 0.000000 0.000000 0.000000 0.050929 0.000000 0.000000
# 5 0.000000 0.000000 0.000000 0.000000 0.023130 0.000000
# 6 0.000000 0.000000 0.000000 0.000000 0.000000 0.063437
#
#
# Mechanical properties :
#
#
# Convention : Reuss Voigt Hill
#
# Bulk Modulus (GPa) = 46.53935 48.23543 47.38739
# Shear Modulus (GPa) = 25.40503 29.75208 27.57855
#
# Velocity S-wave (km/s) = 3.58599 3.88068 3.73624
# Velocity P-wave (km/s) = 6.37986 6.67045 6.52678
#
# Compressibility (1/GPa) = 0.02148719
#
# Stress axis : x y z
#
# Youngs Moduli (GPa) = 66.83644 105.92787 80.52873
#
# Poissons Ratio (x) = 0.26795 0.24246
# Poissons Ratio (y) = 0.16906 0.17122
# Poissons Ratio (z) = 0.20123 0.22522
#
# Static dielectric constant tensor:
#      x y z
#    x 3.724800 0.000000 0.000000 
#    y 0.000000 3.324030 0.000000 
#    z 0.000000 0.000000 3.767480 
# 
# 
# High freq. dielectric constant tensor:
#      x y z
#    x 1.779970 0.000000 0.000000 
#    y 0.000000 1.757420 0.000000 
#    z 0.000000 0.000000 1.788500 
# 
# From -- ./inp_files/17372.got.cif
#   From: 2010.03.12/outbox.cif.g09.slc.cpg/sg62_9_cif.got.tgz:17372.got - 2010.04.10 19:12:36.
