data_PCOD8254231
_publ_section_title
;
Structure prediction by ZEFSAII (Michael W. Deem and Ramdas Pophale) SiO2 
 PCOD8254231
Probable space group: P N M A
;
_chemical_formula_sum "Si O2"
_cell_formula_units_Z 48
_cell_length_a 16.956382
_cell_length_b 23.002288
_cell_length_c 5.489464
_cell_angle_alpha 90.000000
_cell_angle_beta 90.000000
_cell_angle_gamma 90.000000
_cell_volume 2141.086287
_symmetry_space_group_name_H-M "P N M A"
_symmetry_group_IT_number 62
_symmetry_cell_setting 'orthorhombic'
loop_
_space_group_symop_operation_xyz
x,y,z
1/2-x,-y,1/2+z
1/2+x,1/2-y,1/2-z
-x,1/2+y,-z
-x,-y,-z
1/2+x,y,1/2-z
1/2-x,1/2+y,1/2+z
x,1/2-y,z
loop_
_atom_site_type_symbol
_atom_site_label
_atom_site_fract_x
_atom_site_fract_y
_atom_site_fract_z
Si Si1 0.964808 0.415181 0.934227
Si Si2 0.099042 0.965530 0.579018
Si Si3 0.812957 0.684771 0.620232
Si Si4 0.265011 0.112221 0.997675
Si Si5 0.623178 0.408621 0.799856
Si Si6 0.146836 0.685397 0.143647
O O1 0.936549 0.442198 0.674845
O O2 0.918523 0.354938 0.984843
O O3 0.057663 0.401728 0.911679
O O4 0.952471 0.455396 0.173722
O O5 0.185117 0.937500 0.635495
O O6 0.104461 0.034608 0.537948
O O7 0.844607 0.750000 0.672026
O O8 0.803108 0.646610 0.860401
O O9 0.876930 0.651341 0.454190
O O10 0.725619 0.687547 0.512930
O O11 0.212735 0.080760 0.791826
O O12 0.329555 0.158557 0.903771
O O13 0.111803 0.750000 0.179909
#
# Coordination Sequence:
#
# PCOD8254231 Si02
#       6
#     8   8   8   8   8   8
#     4  11  24  44  64  98 135 176 217 271 333 389
#     4  11  25  43  67  96 135 177 222 264 328 402
#     4  10  21  40  62  92 127 168 218 274 328 384
#     4  10  22  38  65  94 129 172 224 271 327 392
#     4  11  26  38  67  95 136 169 219 278 334 385
#     4   9  19  39  63  88 123 172 222 263 319 398
#
# _framework density 22.418526
#
# number of rings (size 3 to 8) (size 9 to 14) (size 15 to 20)
#    0.000    1.667    1.667    1.500    7.000    1.333 
#    0.000    0.000    0.000    0.000    0.000    0.000 
#    0.000    0.000    0.000    0.000    0.000    0.000 
#
# Total GULP energy -594831.826952 kJ/mol
# GULP energy per Si atom -12392.329728 kJ/mol
# Density = 2.236750 g / cm^3
# Si number density = 22.418526 Si / 1000 Ang^3
#
#
#
# Elastic Constant Matrix: (Units=GPa)
#
#
# Indices 1 2 3 4 5 6 
#
# 1 65.4486 43.4329 10.4506 0.0000 0.0000 0.0000
# 2 43.4329 134.5474 17.2377 0.0000 0.0000 0.0000
# 3 10.4506 17.2377 81.0799 0.0000 0.0000 0.0000
# 4 0.0000 0.0000 0.0000 24.2178 0.0000 0.0000
# 5 0.0000 0.0000 0.0000 0.0000 26.0803 0.0000
# 6 0.0000 0.0000 0.0000 0.0000 0.0000 20.5325
#
#
#
# Elastic Compliance Matrix: (Units=1/GPa)
#
#
# Indices 1 2 3 4 5 6 
#
# 1 0.019560 -0.006159 -0.001212 0.000000 0.000000 0.000000
# 2 -0.006159 0.009580 -0.001243 0.000000 0.000000 0.000000
# 3 -0.001212 -0.001243 0.012754 0.000000 0.000000 0.000000
# 4 0.000000 0.000000 0.000000 0.041292 0.000000 0.000000
# 5 0.000000 0.000000 0.000000 0.000000 0.038343 0.000000
# 6 0.000000 0.000000 0.000000 0.000000 0.000000 0.048703
#
#
# Mechanical properties :
#
#
# Convention : Reuss Voigt Hill
#
# Bulk Modulus (GPa) = 40.54064 47.03538 43.78801
# Shear Modulus (GPa) = 25.55186 28.16311 26.85749
#
# Velocity S-wave (km/s) = 3.37970 3.54820 3.46497
# Velocity P-wave (km/s) = 5.77518 6.14918 5.96511
#
# Compressibility (1/GPa) = 0.02466661
#
# Stress axis : x y z
#
# Youngs Moduli (GPa) = 51.12548 104.38792 78.40722
#
# Poissons Ratio (x) = 0.64290 0.09501
# Poissons Ratio (y) = 0.31487 0.09745
# Poissons Ratio (z) = 0.06195 0.12974
#
# Static dielectric constant tensor:
#      x y z
#    x 4.048520 0.000000 0.000000 
#    y 0.000000 4.315230 0.000000 
#    z 0.000000 0.000000 3.901270 
# 
# 
# High freq. dielectric constant tensor:
#      x y z
#    x 1.876840 0.000000 0.000000 
#    y 0.000000 1.889110 0.000000 
#    z 0.000000 0.000000 1.871210 
# 
# From -- ./inp_files/1705.got.cif
#   From: 2010.03.12/outbox.cif.g09.slc.cpg/sg62_1_cif.got.tgz:1705.got - 2010.04.10 19:12:36.
