data_PCOD8254087
_publ_section_title
;
Structure prediction by ZEFSAII (Michael W. Deem and Ramdas Pophale) SiO2 
 PCOD8254087
Probable space group: P N M A
;
_chemical_formula_sum "Si O2"
_cell_formula_units_Z 48
_cell_length_a 15.122281
_cell_length_b 8.579380
_cell_length_c 18.873029
_cell_angle_alpha 90.000000
_cell_angle_beta 90.000000
_cell_angle_gamma 90.000000
_cell_volume 2448.582917
_symmetry_space_group_name_H-M "P N M A"
_symmetry_group_IT_number 62
_symmetry_cell_setting 'orthorhombic'
loop_
_space_group_symop_operation_xyz
x,y,z
1/2-x,-y,1/2+z
1/2+x,1/2-y,1/2-z
-x,1/2+y,-z
-x,-y,-z
1/2+x,y,1/2-z
1/2-x,1/2+y,1/2+z
x,1/2-y,z
loop_
_atom_site_type_symbol
_atom_site_label
_atom_site_fract_x
_atom_site_fract_y
_atom_site_fract_z
Si Si1 0.998267 0.067577 0.327622
Si Si2 0.846985 0.929009 0.416373
Si Si3 0.842550 0.934876 0.577414
Si Si4 0.856058 0.070136 0.920957
Si Si5 0.007919 0.932639 0.832120
Si Si6 0.156381 0.068250 0.927402
O O1 0.011455 0.250000 0.326361
O O2 0.001136 0.003102 0.247876
O O3 0.079648 0.997551 0.372984
O O4 0.904834 0.030220 0.363228
O O5 0.872623 0.750000 0.405361
O O6 0.866486 0.980952 0.496873
O O7 0.744757 0.959538 0.397989
O O8 0.828337 0.750000 0.583594
O O9 0.752432 0.018377 0.601100
O O10 0.883131 0.250000 0.911469
O O11 0.915932 0.962267 0.871798
O O12 0.870427 0.027170 0.002793
O O13 0.030797 0.750000 0.834312
O O14 0.086352 0.030330 0.866812
O O15 0.155066 0.250000 0.945522
#
# Coordination Sequence:
#
# PCOD8254087 Si02
#       6
#     8   8   8   8   8   8
#     4  10  22  37  56  81 113 150 186 223 270 325
#     4   9  19  35  58  84 112 142 178 227 278 322
#     4   9  19  38  59  83 112 143 182 230 274 319
#     4  10  21  39  60  83 110 143 182 230 277 323
#     4  11  23  38  55  80 113 150 185 224 273 327
#     4  11  22  37  59  85 109 142 184 228 275 328
#
# _framework density 19.603176000000001
#
# number of rings (size 3 to 8) (size 9 to 14) (size 15 to 20)
#    0.000    2.000    0.000    4.500    0.000    6.667 
#    0.000    5.000    0.000    0.000    0.000    0.000 
#    0.000    0.000    0.000    0.000    0.000    0.000 
#
# Total GULP energy -595408.423335 kJ/mol
# GULP energy per Si atom -12404.342153 kJ/mol
# Density = 1.955856 g / cm^3
# Si number density = 19.603176 Si / 1000 Ang^3
#
#
#
# Elastic Constant Matrix: (Units=GPa)
#
#
# Indices 1 2 3 4 5 6 
#
# 1 118.0631 19.9632 69.5129 0.0000 0.0000 0.0000
# 2 19.9632 37.0578 11.5501 0.0000 0.0000 0.0000
# 3 69.5129 11.5501 111.1900 0.0000 0.0000 0.0000
# 4 0.0000 0.0000 0.0000 19.9365 0.0000 0.0000
# 5 0.0000 0.0000 0.0000 0.0000 9.7188 0.0000
# 6 0.0000 0.0000 0.0000 0.0000 0.0000 35.3706
#
#
#
# Elastic Compliance Matrix: (Units=1/GPa)
#
#
# Indices 1 2 3 4 5 6 
#
# 1 0.014270 -0.005071 -0.008394 0.000000 0.000000 0.000000
# 2 -0.005071 0.029690 0.000086 0.000000 0.000000 0.000000
# 3 -0.008394 0.000086 0.014233 0.000000 0.000000 0.000000
# 4 0.000000 0.000000 0.000000 0.050159 0.000000 0.000000
# 5 0.000000 0.000000 0.000000 0.000000 0.102893 0.000000
# 6 0.000000 0.000000 0.000000 0.000000 0.000000 0.028272
#
#
# Mechanical properties :
#
#
# Convention : Reuss Voigt Hill
#
# Bulk Modulus (GPa) = 31.81280 52.04036 41.92658
# Shear Modulus (GPa) = 18.06664 24.02416 21.04540
#
# Velocity S-wave (km/s) = 3.03911 3.50455 3.28009
# Velocity P-wave (km/s) = 5.34589 6.55594 5.98159
#
# Compressibility (1/GPa) = 0.03143389
#
# Stress axis : x y z
#
# Youngs Moduli (GPa) = 70.07746 33.68161 70.26115
#
# Poissons Ratio (x) = 0.17080 0.58980
# Poissons Ratio (y) = 0.35536 -0.00605
# Poissons Ratio (z) = 0.58826 -0.00290
#
# Static dielectric constant tensor:
#      x y z
#    x 3.657600 0.000000 0.000000 
#    y 0.000000 3.444960 0.000000 
#    z 0.000000 0.000000 3.641790 
# 
# 
# High freq. dielectric constant tensor:
#      x y z
#    x 1.774520 0.000000 0.000000 
#    y 0.000000 1.758320 0.000000 
#    z 0.000000 0.000000 1.759110 
# 
# From -- ./inp_files/23726.got.cif
#   From: 2010.03.12/outbox.cif.g09.slc.cpg/sg62_12_cif.got.tgz:23726.got - 2010.04.10 19:12:36.
