data_PCOD8254590
_publ_section_title
;
Structure prediction by ZEFSAII (Michael W. Deem and Ramdas Pophale) SiO2 
 PCOD8254590
Probable space group: P N M A
;
_chemical_formula_sum "Si O2"
_cell_formula_units_Z 40
_cell_length_a 8.769215
_cell_length_b 22.812723
_cell_length_c 8.378685
_cell_angle_alpha 90.000000
_cell_angle_beta 90.000000
_cell_angle_gamma 90.000000
_cell_volume 1676.153192
_symmetry_space_group_name_H-M "P N M A"
_symmetry_group_IT_number 62
_symmetry_cell_setting 'orthorhombic'
loop_
_space_group_symop_operation_xyz
x,y,z
1/2-x,-y,1/2+z
1/2+x,1/2-y,1/2-z
-x,1/2+y,-z
-x,-y,-z
1/2+x,y,1/2-z
1/2-x,1/2+y,1/2+z
x,1/2-y,z
loop_
_atom_site_type_symbol
_atom_site_label
_atom_site_fract_x
_atom_site_fract_y
_atom_site_fract_z
Si Si1 0.766452 0.008335 0.262186
Si Si2 0.165794 0.315935 0.182903
Si Si3 0.476991 0.429177 0.811622
Si Si4 0.017373 0.816532 0.521410
Si Si5 0.995921 0.577663 0.935323
O O1 0.854172 0.058648 0.163343
O O2 0.646495 0.039112 0.377711
O O3 0.679956 0.962406 0.141419
O O4 0.881235 0.968778 0.370602
O O5 0.123653 0.250000 0.134226
O O6 0.339867 0.330217 0.137634
O O7 0.136095 0.324836 0.373392
O O8 0.043934 0.354581 0.087981
O O9 0.477780 0.431356 0.620443
O O10 0.484123 0.363192 0.878145
O O11 0.026646 0.750000 0.451758
#
# Coordination Sequence:
#
# PCOD8254590 Si02
#       5
#     8   8   8   8   8
#     4  10  22  40  65  97 135 177 213 260 324 392
#     4  10  22  42  67  96 129 168 212 260 325 400
#     4  11  24  43  67  99 132 168 220 276 320 374
#     4  10  23  44  70  97 128 168 215 268 326 386
#     4  11  23  41  67  99 133 173 220 266 321 384
#
# _framework density 23.864166000000001
#
# number of rings (size 3 to 8) (size 9 to 14) (size 15 to 20)
#    0.000    1.600    0.000    4.800    0.000    7.200 
#    0.000   12.000    0.000    0.000    0.000    0.000 
#    0.000    0.000    0.000    0.000    0.000    0.000 
#
# Total GULP energy -495777.511901 kJ/mol
# GULP energy per Si atom -12394.437798 kJ/mol
# Density = 2.380985 g / cm^3
# Si number density = 23.864166 Si / 1000 Ang^3
#
#
#
# Elastic Constant Matrix: (Units=GPa)
#
#
# Indices 1 2 3 4 5 6 
#
# 1 113.1091 53.1645 45.0469 0.0000 0.0000 0.0000
# 2 53.1645 144.0246 60.6336 0.0000 0.0000 0.0000
# 3 45.0469 60.6336 101.6179 0.0000 0.0000 0.0000
# 4 0.0000 0.0000 0.0000 45.2402 0.0000 0.0000
# 5 0.0000 0.0000 0.0000 0.0000 24.5340 0.0000
# 6 0.0000 0.0000 0.0000 0.0000 0.0000 29.9099
#
#
#
# Elastic Compliance Matrix: (Units=1/GPa)
#
#
# Indices 1 2 3 4 5 6 
#
# 1 0.011530 -0.002810 -0.003434 0.000000 0.000000 0.000000
# 2 -0.002810 0.009957 -0.004696 0.000000 0.000000 0.000000
# 3 -0.003434 -0.004696 0.014165 0.000000 0.000000 0.000000
# 4 0.000000 0.000000 0.000000 0.022104 0.000000 0.000000
# 5 0.000000 0.000000 0.000000 0.000000 0.040760 0.000000
# 6 0.000000 0.000000 0.000000 0.000000 0.000000 0.033434
#
#
# Mechanical properties :
#
#
# Convention : Reuss Voigt Hill
#
# Bulk Modulus (GPa) = 72.61201 75.16019 73.88610
# Shear Modulus (GPa) = 31.56152 33.26392 32.41272
#
# Velocity S-wave (km/s) = 3.64063 3.73753 3.68940
# Velocity P-wave (km/s) = 6.94014 7.08441 7.01265
#
# Compressibility (1/GPa) = 0.01377183
#
# Stress axis : x y z
#
# Youngs Moduli (GPa) = 86.73316 100.42729 70.59641
#
# Poissons Ratio (x) = 0.28222 0.24245
# Poissons Ratio (y) = 0.24374 0.33150
# Poissons Ratio (z) = 0.29786 0.47158
#
# Static dielectric constant tensor:
#      x y z
#    x 4.873980 0.000000 0.000000 
#    y 0.000000 4.802000 0.000000 
#    z 0.000000 0.000000 3.862240 
# 
# 
# High freq. dielectric constant tensor:
#      x y z
#    x 1.962320 0.000000 0.000000 
#    y 0.000000 1.966710 0.000000 
#    z 0.000000 0.000000 1.921380 
# 
# From -- ./inp_files/4285.got.cif
#   From: 2010.03.12/outbox.cif.g09.slc.cpg/sg62_3_cif.got.tgz:4285.got - 2010.04.10 19:12:36.
