data_PCOD8254579
_publ_section_title
;
Structure prediction by ZEFSAII (Michael W. Deem and Ramdas Pophale) SiO2 
 PCOD8254579
Probable space group: P N M A
;
_chemical_formula_sum "Si O2"
_cell_formula_units_Z 40
_cell_length_a 4.938076
_cell_length_b 17.973303
_cell_length_c 18.268560
_cell_angle_alpha 90.000000
_cell_angle_beta 90.000000
_cell_angle_gamma 90.000000
_cell_volume 1621.399301
_symmetry_space_group_name_H-M "P N M A"
_symmetry_group_IT_number 62
_symmetry_cell_setting 'orthorhombic'
loop_
_space_group_symop_operation_xyz
x,y,z
1/2-x,-y,1/2+z
1/2+x,1/2-y,1/2-z
-x,1/2+y,-z
-x,-y,-z
1/2+x,y,1/2-z
1/2-x,1/2+y,1/2+z
x,1/2-y,z
loop_
_atom_site_type_symbol
_atom_site_label
_atom_site_fract_x
_atom_site_fract_y
_atom_site_fract_z
Si Si1 0.384766 0.978444 0.578291
Si Si2 0.574800 0.750000 0.702750
Si Si3 0.201541 0.250000 0.702005
Si Si4 0.306713 0.409277 0.300247
Si Si5 0.307058 0.832906 0.512433
Si Si6 0.685320 0.133466 0.918019
O O1 0.624271 0.970867 0.638511
O O2 0.230993 0.898241 0.571094
O O3 0.500000 0.000000 0.500000
O O4 0.183999 0.045176 0.601027
O O5 0.758515 0.750000 0.776760
O O6 0.648209 0.827366 0.661408
O O7 0.391411 0.250000 0.772728
O O8 0.264185 0.323511 0.655271
O O9 0.002524 0.418814 0.270928
O O10 0.286609 0.750000 0.548453
O O11 0.609522 0.845791 0.483214
O O12 0.109896 0.840048 0.443019
#
# Coordination Sequence:
#
# PCOD8254579 Si02
#       6
#     8   4   4   8   8   8
#     4  10  25  42  69 102 136 175 225 280 341 401
#     4   8  16  34  56  84 118 162 208 256 306 392
#     4  12  24  40  66  94 128 182 232 272 330 398
#     4  10  22  40  64  92 133 172 215 264 333 396
#     4  11  21  41  68  92 128 170 215 273 340 393
#     4  11  23  43  61  93 134 168 217 283 328 390
#
# _framework density 24.670051000000001
#
# number of rings (size 3 to 8) (size 9 to 14) (size 15 to 20)
#    0.000    1.600    2.000    1.800    1.400    8.000 
#    0.000    0.000    0.000    0.000    0.000    0.000 
#    0.000    0.000    0.000    0.000    0.000    0.000 
#
# Total GULP energy -495923.047086 kJ/mol
# GULP energy per Si atom -12398.076177 kJ/mol
# Density = 2.461390 g / cm^3
# Si number density = 24.670051 Si / 1000 Ang^3
#
#
#
# Elastic Constant Matrix: (Units=GPa)
#
#
# Indices 1 2 3 4 5 6 
#
# 1 64.7723 9.4678 -6.5851 0.0000 0.0000 0.0000
# 2 9.4678 196.4357 37.1597 0.0000 0.0000 0.0000
# 3 -6.5851 37.1597 60.7562 0.0000 0.0000 0.0000
# 4 0.0000 0.0000 0.0000 36.6997 0.0000 0.0000
# 5 0.0000 0.0000 0.0000 0.0000 22.1069 0.0000
# 6 0.0000 0.0000 0.0000 0.0000 0.0000 23.3907
#
#
#
# Elastic Compliance Matrix: (Units=1/GPa)
#
#
# Indices 1 2 3 4 5 6 
#
# 1 0.015870 -0.001233 0.002474 0.000000 0.000000 0.000000
# 2 -0.001233 0.005853 -0.003713 0.000000 0.000000 0.000000
# 3 0.002474 -0.003713 0.018998 0.000000 0.000000 0.000000
# 4 0.000000 0.000000 0.000000 0.027248 0.000000 0.000000
# 5 0.000000 0.000000 0.000000 0.000000 0.045235 0.000000
# 6 0.000000 0.000000 0.000000 0.000000 0.000000 0.042752
#
#
# Mechanical properties :
#
#
# Convention : Reuss Voigt Hill
#
# Bulk Modulus (GPa) = 27.95041 44.67210 36.31125
# Shear Modulus (GPa) = 28.93082 35.23426 32.08254
#
# Velocity S-wave (km/s) = 3.42820 3.78328 3.61011
# Velocity P-wave (km/s) = 5.19850 6.10175 5.66815
#
# Compressibility (1/GPa) = 0.03577766
#
# Stress axis : x y z
#
# Youngs Moduli (GPa) = 63.01012 170.86505 52.63589
#
# Poissons Ratio (x) = 0.21067 -0.13023
# Poissons Ratio (y) = 0.07769 0.19545
# Poissons Ratio (z) = -0.15590 0.63445
#
# Static dielectric constant tensor:
#      x y z
#    x 4.139360 0.000000 0.000000 
#    y 0.000000 5.347280 0.000000 
#    z 0.000000 0.000000 3.962140 
# 
# 
# High freq. dielectric constant tensor:
#      x y z
#    x 1.973450 0.000000 0.000000 
#    y 0.000000 1.999230 0.000000 
#    z 0.000000 0.000000 1.957950 
# 
# From -- ./inp_files/21504.got.cif
#   From: 2010.03.12/outbox.cif.g09.slc.cpg/sg62_11_cif.got.tgz:21504.got - 2010.04.10 19:12:36.
