data_PCOD8254080
_publ_section_title
;
Structure prediction by ZEFSAII (Michael W. Deem and Ramdas Pophale) SiO2 
 PCOD8254080
Probable space group: P N M A
;
_chemical_formula_sum "Si O2"
_cell_formula_units_Z 64
_cell_length_a 9.536679
_cell_length_b 19.133512
_cell_length_c 17.909152
_cell_angle_alpha 90.000000
_cell_angle_beta 90.000000
_cell_angle_gamma 90.000000
_cell_volume 3267.885868
_symmetry_space_group_name_H-M "P N M A"
_symmetry_group_IT_number 62
_symmetry_cell_setting 'orthorhombic'
loop_
_space_group_symop_operation_xyz
x,y,z
1/2-x,-y,1/2+z
1/2+x,1/2-y,1/2-z
-x,1/2+y,-z
-x,-y,-z
1/2+x,y,1/2-z
1/2-x,1/2+y,1/2+z
x,1/2-y,z
loop_
_atom_site_type_symbol
_atom_site_label
_atom_site_fract_x
_atom_site_fract_y
_atom_site_fract_z
Si Si1 0.681272 0.450602 0.368178
Si Si2 0.852596 0.670352 0.365467
Si Si3 0.014501 0.953200 0.573477
Si Si4 0.885493 0.667715 0.975592
Si Si5 0.915075 0.592294 0.226107
Si Si6 0.416174 0.403617 0.586875
Si Si7 0.080611 0.828366 0.480550
Si Si8 0.149937 0.500678 0.292292
O O1 0.841832 0.471159 0.383929
O O2 0.641064 0.373626 0.398109
O O3 0.585985 0.511542 0.407040
O O4 0.658536 0.448744 0.278916
O O5 0.806914 0.750000 0.375275
O O6 0.849621 0.652928 0.277563
O O7 0.742322 0.623128 0.409765
O O8 0.006256 0.655669 0.401329
O O9 0.014721 0.873361 0.547048
O O10 0.000000 0.000000 0.500000
O O11 0.883783 0.961042 0.630187
O O12 0.917821 0.750000 0.960663
O O13 0.747749 0.658327 0.027941
O O14 0.015512 0.627332 0.012423
O O15 0.796480 0.539884 0.196583
O O16 0.993803 0.626867 0.156044
O O17 0.025230 0.554429 0.279446
O O18 0.051559 0.750000 0.506740
#
# Coordination Sequence:
#
# PCOD8254080 Si02
#       8
#     8   8   8   8   8   8   8   8
#     4  10  21  39  59  87 119 156 197 246 306 357
#     4  11  22  39  57  81 121 160 196 242 296 363
#     4  11  21  36  66  90 117 156 207 248 300 357
#     4  10  22  39  60  87 118 153 198 250 306 363
#     4  11  22  37  55  82 120 150 195 242 301 353
#     4  11  22  37  58  85 117 156 199 247 301 358
#     4   9  21  39  59  84 115 153 198 247 296 357
#     4  11  21  40  59  87 118 150 198 256 293 356
#
# _framework density 19.584529
#
# number of rings (size 3 to 8) (size 9 to 14) (size 15 to 20)
#    0.000    1.500    3.750    2.250    5.250    1.000 
#    4.500    0.625    0.000    0.000    0.000    0.000 
#    0.000    0.000    0.000    0.000    0.000    0.000 
#
# Total GULP energy -793470.159195 kJ/mol
# GULP energy per Si atom -12397.971237 kJ/mol
# Density = 1.953995 g / cm^3
# Si number density = 19.584529 Si / 1000 Ang^3
#
#
#
# Elastic Constant Matrix: (Units=GPa)
#
#
# Indices 1 2 3 4 5 6 
#
# 1 70.5798 27.3861 22.8296 0.0000 0.0000 0.0000
# 2 27.3861 88.8981 38.8136 0.0000 0.0000 0.0000
# 3 22.8296 38.8136 96.6564 0.0000 0.0000 0.0000
# 4 0.0000 0.0000 0.0000 26.5289 0.0000 0.0000
# 5 0.0000 0.0000 0.0000 0.0000 37.9416 0.0000
# 6 0.0000 0.0000 0.0000 0.0000 0.0000 24.2339
#
#
#
# Elastic Compliance Matrix: (Units=1/GPa)
#
#
# Indices 1 2 3 4 5 6 
#
# 1 0.016485 -0.004097 -0.002249 0.000000 0.000000 0.000000
# 2 -0.004097 0.014658 -0.004919 0.000000 0.000000 0.000000
# 3 -0.002249 -0.004919 0.012852 0.000000 0.000000 0.000000
# 4 0.000000 0.000000 0.000000 0.037695 0.000000 0.000000
# 5 0.000000 0.000000 0.000000 0.000000 0.026356 0.000000
# 6 0.000000 0.000000 0.000000 0.000000 0.000000 0.041264
#
#
# Mechanical properties :
#
#
# Convention : Reuss Voigt Hill
#
# Bulk Modulus (GPa) = 46.58122 48.24366 47.41244
# Shear Modulus (GPa) = 27.93371 28.88123 28.40747
#
# Velocity S-wave (km/s) = 3.78076 3.84434 3.81268
# Velocity P-wave (km/s) = 6.54944 6.66276 6.60634
#
# Compressibility (1/GPa) = 0.02146788
#
# Stress axis : x y z
#
# Youngs Moduli (GPa) = 60.66017 68.22026 77.80783
#
# Poissons Ratio (x) = 0.27948 0.17496
# Poissons Ratio (y) = 0.24851 0.38271
# Poissons Ratio (z) = 0.13640 0.33555
#
# Static dielectric constant tensor:
#      x y z
#    x 3.715350 0.000000 0.000000 
#    y 0.000000 3.530280 0.000000 
#    z 0.000000 0.000000 3.450830 
# 
# 
# High freq. dielectric constant tensor:
#      x y z
#    x 1.771500 0.000000 0.000000 
#    y 0.000000 1.751200 0.000000 
#    z 0.000000 0.000000 1.750480 
# 
# From -- ./inp_files/22583.got.cif
#   From: 2010.03.12/outbox.cif.g09.slc.cpg/sg62_12_cif.got.tgz:22583.got - 2010.04.10 19:12:36.
