data_PCOD8254378
_publ_section_title
;
Structure prediction by ZEFSAII (Michael W. Deem and Ramdas Pophale) SiO2 
 PCOD8254378
Probable space group: P N M A
;
_chemical_formula_sum "Si O2"
_cell_formula_units_Z 56
_cell_length_a 10.956028
_cell_length_b 19.363062
_cell_length_c 12.050861
_cell_angle_alpha 90.000000
_cell_angle_beta 90.000000
_cell_angle_gamma 90.000000
_cell_volume 2556.496760
_symmetry_space_group_name_H-M "P N M A"
_symmetry_group_IT_number 62
_symmetry_cell_setting 'orthorhombic'
loop_
_space_group_symop_operation_xyz
x,y,z
1/2-x,-y,1/2+z
1/2+x,1/2-y,1/2-z
-x,1/2+y,-z
-x,-y,-z
1/2+x,y,1/2-z
1/2-x,1/2+y,1/2+z
x,1/2-y,z
loop_
_atom_site_type_symbol
_atom_site_label
_atom_site_fract_x
_atom_site_fract_y
_atom_site_fract_z
Si Si1 0.918917 0.946895 0.753667
Si Si2 0.913830 0.670171 0.377041
Si Si3 0.331013 0.034935 0.351037
Si Si4 0.070660 0.329740 0.871285
Si Si5 0.804579 0.577221 0.971760
Si Si6 0.168422 0.830630 0.989023
Si Si7 0.966907 0.076048 0.459241
O O1 0.792886 0.986928 0.718048
O O2 0.894004 0.906897 0.868122
O O3 0.047471 0.987633 0.779885
O O4 0.950352 0.900314 0.646005
O O5 0.949257 0.750000 0.378727
O O6 0.920767 0.640274 0.252726
O O7 0.784442 0.655587 0.433348
O O8 0.018251 0.630107 0.442781
O O9 0.331027 0.117341 0.382833
O O10 0.334048 0.995428 0.468689
O O11 0.098146 0.250000 0.867641
O O12 0.943771 0.348258 0.929955
O O13 0.181429 0.362430 0.939536
O O14 0.671425 0.577369 0.919226
O O15 0.163955 0.750000 0.948371
O O16 0.000000 0.000000 0.500000
#
# Coordination Sequence:
#
# PCOD8254378 Si02
#       7
#     8   8   8   8   8   8   8
#     4  12  25  44  67  97 134 167 224 275 325 395
#     4  10  23  42  67  97 133 176 218 272 336 394
#     4  12  25  45  67  97 133 174 224 266 332 402
#     4  10  24  42  64  99 133 169 223 275 328 395
#     4  12  26  41  70  95 130 180 215 275 334 390
#     4  10  21  42  65  91 131 174 216 268 327 389
#     4  12  25  43  65  98 135 171 219 278 334 401
#
# _framework density 21.904975
#
# number of rings (size 3 to 8) (size 9 to 14) (size 15 to 20)
#    0.000    0.857    5.714    0.429    4.000    1.714 
#    0.000    2.857    0.000    0.000    0.000    0.000 
#    0.000    0.000    0.000    0.000    0.000    0.000 
#
# Total GULP energy -693937.992295 kJ/mol
# GULP energy per Si atom -12391.749862 kJ/mol
# Density = 2.185512 g / cm^3
# Si number density = 21.904975 Si / 1000 Ang^3
#
#
#
# Elastic Constant Matrix: (Units=GPa)
#
#
# Indices 1 2 3 4 5 6 
#
# 1 146.8551 28.6328 49.5908 0.0000 0.0000 0.0000
# 2 28.6328 59.0251 39.8356 0.0000 0.0000 0.0000
# 3 49.5908 39.8356 150.3451 0.0000 0.0000 0.0000
# 4 0.0000 0.0000 0.0000 21.6711 0.0000 0.0000
# 5 0.0000 0.0000 0.0000 0.0000 43.9260 0.0000
# 6 0.0000 0.0000 0.0000 0.0000 0.0000 23.3060
#
#
#
# Elastic Compliance Matrix: (Units=1/GPa)
#
#
# Indices 1 2 3 4 5 6 
#
# 1 0.007965 -0.002546 -0.001953 0.000000 0.000000 0.000000
# 2 -0.002546 0.021445 -0.004842 0.000000 0.000000 0.000000
# 3 -0.001953 -0.004842 0.008578 0.000000 0.000000 0.000000
# 4 0.000000 0.000000 0.000000 0.046144 0.000000 0.000000
# 5 0.000000 0.000000 0.000000 0.000000 0.022766 0.000000
# 6 0.000000 0.000000 0.000000 0.000000 0.000000 0.042907
#
#
# Mechanical properties :
#
#
# Convention : Reuss Voigt Hill
#
# Bulk Modulus (GPa) = 51.79553 65.81597 58.80575
# Shear Modulus (GPa) = 28.58389 33.65837 31.12113
#
# Velocity S-wave (km/s) = 3.61626 3.92415 3.77335
# Velocity P-wave (km/s) = 6.41353 7.11641 6.77409
#
# Compressibility (1/GPa) = 0.01930668
#
# Stress axis : x y z
#
# Youngs Moduli (GPa) = 125.54548 46.63080 116.57080
#
# Poissons Ratio (x) = 0.11872 0.22763
# Poissons Ratio (y) = 0.31964 0.56447
# Poissons Ratio (z) = 0.24515 0.22580
#
# Static dielectric constant tensor:
#      x y z
#    x 4.269440 0.000000 0.000000 
#    y 0.000000 3.665550 0.000000 
#    z 0.000000 0.000000 4.207770 
# 
# 
# High freq. dielectric constant tensor:
#      x y z
#    x 1.883330 0.000000 0.000000 
#    y 0.000000 1.826210 0.000000 
#    z 0.000000 0.000000 1.875890 
# 
# From -- ./inp_files/12426.got.cif
#   From: 2010.03.12/outbox.cif.g09.slc.cpg/sg62_7_cif.got.tgz:12426.got - 2010.04.10 19:12:36.
