data_PCOD8254677
_publ_section_title
;
Structure prediction by ZEFSAII (Michael W. Deem and Ramdas Pophale) SiO2 
 PCOD8254677
Probable space group: P N M A
;
_chemical_formula_sum "Si O2"
_cell_formula_units_Z 48
_cell_length_a 9.898086
_cell_length_b 15.314895
_cell_length_c 16.355448
_cell_angle_alpha 90.000000
_cell_angle_beta 90.000000
_cell_angle_gamma 90.000000
_cell_volume 2479.292069
_symmetry_space_group_name_H-M "P N M A"
_symmetry_group_IT_number 62
_symmetry_cell_setting 'orthorhombic'
loop_
_space_group_symop_operation_xyz
x,y,z
1/2-x,-y,1/2+z
1/2+x,1/2-y,1/2-z
-x,1/2+y,-z
-x,-y,-z
1/2+x,y,1/2-z
1/2-x,1/2+y,1/2+z
x,1/2-y,z
loop_
_atom_site_type_symbol
_atom_site_label
_atom_site_fract_x
_atom_site_fract_y
_atom_site_fract_z
Si Si1 0.498026 0.351346 0.197480
Si Si2 0.607788 0.851899 0.198201
Si Si3 0.694442 0.149286 0.343055
Si Si4 0.095642 0.496062 0.423975
Si Si5 0.864728 0.948115 0.009812
Si Si6 0.907040 0.651382 0.170399
O O1 0.524992 0.250000 0.175012
O O2 0.337276 0.370916 0.202386
O O3 0.569505 0.374499 0.283615
O O4 0.566952 0.410519 0.128919
O O5 0.572944 0.750000 0.177734
O O6 0.525237 0.892422 0.275178
O O7 0.766090 0.862644 0.218212
O O8 0.570342 0.912100 0.121548
O O9 0.688104 0.250000 0.368752
O O10 0.684103 0.093632 0.425215
O O11 0.249330 0.488087 0.455420
O O12 0.000000 0.500000 0.500000
O O13 0.897876 0.875886 0.077020
O O14 0.000000 0.000000 0.000000
O O15 0.951693 0.750000 0.166835
#
# Coordination Sequence:
#
# PCOD8254677 Si02
#       6
#     8   8   8   8   8   8
#     4  10  23  41  65  91 120 162 209 259 311 369
#     4   9  20  36  60  86 116 152 193 238 292 355
#     4  10  22  42  65  87 121 165 209 255 310 369
#     4  11  23  40  60  88 121 159 203 248 305 361
#     4  11  24  38  58  92 122 159 202 251 307 360
#     4   9  19  38  59  84 115 154 194 237 294 356
#
# _framework density 19.360365999999999
#
# number of rings (size 3 to 8) (size 9 to 14) (size 15 to 20)
#    0.000    2.000    1.667    0.500    4.667    4.000 
#    0.000    0.833    0.000    0.000    0.000    0.000 
#    0.000    0.000    0.000    0.000    0.000    0.000 
#
# Total GULP energy -595028.032249 kJ/mol
# GULP energy per Si atom -12396.417339 kJ/mol
# Density = 1.931630 g / cm^3
# Si number density = 19.360366 Si / 1000 Ang^3
#
#
#
# Elastic Constant Matrix: (Units=GPa)
#
#
# Indices 1 2 3 4 5 6 
#
# 1 135.8477 43.4487 73.9749 0.0000 0.0000 0.0000
# 2 43.4487 64.7117 45.3669 0.0000 0.0000 0.0000
# 3 73.9749 45.3669 125.2022 0.0000 0.0000 0.0000
# 4 0.0000 0.0000 0.0000 33.7590 0.0000 0.0000
# 5 0.0000 0.0000 0.0000 0.0000 43.6421 0.0000
# 6 0.0000 0.0000 0.0000 0.0000 0.0000 28.7025
#
#
#
# Elastic Compliance Matrix: (Units=1/GPa)
#
#
# Indices 1 2 3 4 5 6 
#
# 1 0.011574 -0.003991 -0.005392 0.000000 0.000000 0.000000
# 2 -0.003991 0.022091 -0.005647 0.000000 0.000000 0.000000
# 3 -0.005392 -0.005647 0.013219 0.000000 0.000000 0.000000
# 4 0.000000 0.000000 0.000000 0.029622 0.000000 0.000000
# 5 0.000000 0.000000 0.000000 0.000000 0.022914 0.000000
# 6 0.000000 0.000000 0.000000 0.000000 0.000000 0.034840
#
#
# Mechanical properties :
#
#
# Convention : Reuss Voigt Hill
#
# Bulk Modulus (GPa) = 59.43630 72.37139 65.90384
# Shear Modulus (GPa) = 29.42419 32.08547 30.75483
#
# Velocity S-wave (km/s) = 3.90271 4.07538 3.98998
# Velocity P-wave (km/s) = 7.14667 7.72058 7.43916
#
# Compressibility (1/GPa) = 0.01682474
#
# Stress axis : x y z
#
# Youngs Moduli (GPa) = 86.40151 45.26650 75.64678
#
# Poissons Ratio (x) = 0.18064 0.40792
# Poissons Ratio (y) = 0.34479 0.42718
# Poissons Ratio (z) = 0.46591 0.25562
#
# Static dielectric constant tensor:
#      x y z
#    x 3.831450 0.000000 0.000000 
#    y 0.000000 3.238690 0.000000 
#    z 0.000000 0.000000 1.275600 
# 
# 
# High freq. dielectric constant tensor:
#      x y z
#    x 1.767760 0.000000 0.000000 
#    y 0.000000 1.751300 0.000000 
#    z 0.000000 0.000000 1.754020 
# 
# From -- ./inp_files/16976.got.cif
#   From: 2010.03.12/outbox.cif.g09.slc.cpg/sg62_9_cif.got.tgz:16976.got - 2010.04.10 19:12:36.
