data_PCOD8254367
_publ_section_title
;
Structure prediction by ZEFSAII (Michael W. Deem and Ramdas Pophale) SiO2 
 PCOD8254367
Probable space group: P N M A
;
_chemical_formula_sum "Si O2"
_cell_formula_units_Z 48
_cell_length_a 9.857774
_cell_length_b 17.138195
_cell_length_c 13.494646
_cell_angle_alpha 90.000000
_cell_angle_beta 90.000000
_cell_angle_gamma 90.000000
_cell_volume 2279.845588
_symmetry_space_group_name_H-M "P N M A"
_symmetry_group_IT_number 62
_symmetry_cell_setting 'orthorhombic'
loop_
_space_group_symop_operation_xyz
x,y,z
1/2-x,-y,1/2+z
1/2+x,1/2-y,1/2-z
-x,1/2+y,-z
-x,-y,-z
1/2+x,y,1/2-z
1/2-x,1/2+y,1/2+z
x,1/2-y,z
loop_
_atom_site_type_symbol
_atom_site_label
_atom_site_fract_x
_atom_site_fract_y
_atom_site_fract_z
Si Si1 0.824657 0.603870 0.845523
Si Si2 0.311259 0.075909 0.616271
Si Si3 0.552558 0.159840 0.966866
Si Si4 0.468766 0.159260 0.189307
Si Si5 0.190259 0.660095 0.321191
Si Si6 0.938629 0.661857 0.043833
O O1 0.805337 0.516509 0.883006
O O2 0.687766 0.636416 0.796376
O O3 0.943307 0.607920 0.764540
O O4 0.861702 0.656642 0.939602
O O5 0.173909 0.106000 0.568190
O O6 0.333175 0.107127 0.726446
O O7 0.435529 0.103007 0.547255
O O8 0.594318 0.250000 0.954328
O O9 0.422118 0.139015 0.901950
O O10 0.517355 0.139272 0.079212
O O11 0.488252 0.250000 0.214619
O O12 0.179853 0.750000 0.288589
O O13 0.336823 0.641442 0.366820
O O14 0.992392 0.750000 0.056179
#
# Coordination Sequence:
#
# PCOD8254367 Si02
#       6
#     8   8   8   8   8   8
#     4  12  28  44  69 100 136 176 223 284 336 386
#     4  12  26  39  65 104 140 169 215 273 345 403
#     4  10  22  43  70  97 129 178 227 273 329 399
#     4  11  25  48  71  95 128 179 235 276 325 391
#     4  10  21  41  68  94 132 178 225 272 331 400
#     4  11  23  45  69  93 133 179 226 276 329 396
#
# _framework density 21.054058999999999
#
# number of rings (size 3 to 8) (size 9 to 14) (size 15 to 20)
#    0.000    1.000    1.667    4.500    7.000    4.667 
#    0.000    0.000    0.000    0.000    0.000    0.000 
#    0.000    0.000    0.000    0.000    0.000    0.000 
#
# Total GULP energy -595611.127418 kJ/mol
# GULP energy per Si atom -12408.565155 kJ/mol
# Density = 2.100614 g / cm^3
# Si number density = 21.054059 Si / 1000 Ang^3
#
#
#
# Elastic Constant Matrix: (Units=GPa)
#
#
# Indices 1 2 3 4 5 6 
#
# 1 73.1575 53.7339 15.0880 0.0000 0.0000 0.0000
# 2 53.7339 66.1930 16.2787 0.0000 0.0000 0.0000
# 3 15.0880 16.2787 78.8938 0.0000 0.0000 0.0000
# 4 0.0000 0.0000 0.0000 3.2693 0.0000 0.0000
# 5 0.0000 0.0000 0.0000 0.0000 42.4702 0.0000
# 6 0.0000 0.0000 0.0000 0.0000 0.0000 12.0964
#
#
#
# Elastic Compliance Matrix: (Units=1/GPa)
#
#
# Indices 1 2 3 4 5 6 
#
# 1 0.033909 -0.027318 -0.000848 0.000000 0.000000 0.000000
# 2 -0.027318 0.037923 -0.002600 0.000000 0.000000 0.000000
# 3 -0.000848 -0.002600 0.013374 0.000000 0.000000 0.000000
# 4 0.000000 0.000000 0.000000 0.305872 0.000000 0.000000
# 5 0.000000 0.000000 0.000000 0.000000 0.023546 0.000000
# 6 0.000000 0.000000 0.000000 0.000000 0.000000 0.082669
#
#
# Mechanical properties :
#
#
# Convention : Reuss Voigt Hill
#
# Bulk Modulus (GPa) = 42.24272 43.16060 42.70166
# Shear Modulus (GPa) = 8.82275 20.44342 14.63308
#
# Velocity S-wave (km/s) = 2.04930 3.11946 2.63919
# Velocity P-wave (km/s) = 5.07020 5.78957 5.44179
#
# Compressibility (1/GPa) = 0.02367272
#
# Stress axis : x y z
#
# Youngs Moduli (GPa) = 29.49077 26.36936 74.77158
#
# Poissons Ratio (x) = 0.72035 0.06342
# Poissons Ratio (y) = 0.80562 0.19444
# Poissons Ratio (z) = 0.02501 0.06857
#
# Static dielectric constant tensor:
#      x y z
#    x 3.937000 0.000000 0.000000 
#    y 0.000000 4.201220 0.000000 
#    z 0.000000 0.000000 3.819330 
# 
# 
# High freq. dielectric constant tensor:
#      x y z
#    x 1.839550 0.000000 0.000000 
#    y 0.000000 1.822150 0.000000 
#    z 0.000000 0.000000 1.833800 
# 
# From -- ./inp_files/16915.got.cif
#   From: 2010.03.12/outbox.cif.g09.slc.cpg/sg62_9_cif.got.tgz:16915.got - 2010.04.10 19:12:36.
