data_PCOD8254424
_publ_section_title
;
Structure prediction by ZEFSAII (Michael W. Deem and Ramdas Pophale) SiO2 
 PCOD8254424
Probable space group: P N M A
;
_chemical_formula_sum "Si O2"
_cell_formula_units_Z 64
_cell_length_a 11.093406
_cell_length_b 17.192204
_cell_length_c 18.266112
_cell_angle_alpha 90.000000
_cell_angle_beta 90.000000
_cell_angle_gamma 90.000000
_cell_volume 3483.714689
_symmetry_space_group_name_H-M "P N M A"
_symmetry_group_IT_number 62
_symmetry_cell_setting 'orthorhombic'
loop_
_space_group_symop_operation_xyz
x,y,z
1/2-x,-y,1/2+z
1/2+x,1/2-y,1/2-z
-x,1/2+y,-z
-x,-y,-z
1/2+x,y,1/2-z
1/2-x,1/2+y,1/2+z
x,1/2-y,z
loop_
_atom_site_type_symbol
_atom_site_label
_atom_site_fract_x
_atom_site_fract_y
_atom_site_fract_z
Si Si1 0.520641 0.160283 0.939490
Si Si2 0.748409 0.909701 0.844620
Si Si3 0.667533 0.417080 0.067447
Si Si4 0.498346 0.968788 0.684576
Si Si5 0.740524 0.837049 0.995965
Si Si6 0.385555 0.975985 0.453144
Si Si7 0.478942 0.517103 0.157188
Si Si8 0.690262 0.840033 0.696015
O O1 0.547306 0.250000 0.918712
O O2 0.541306 0.105987 0.868455
O O3 0.608302 0.136014 0.005458
O O4 0.383208 0.148075 0.962327
O O5 0.717618 0.852368 0.910564
O O6 0.759526 0.859148 0.771038
O O7 0.874803 0.952659 0.858245
O O8 0.649634 0.976438 0.840391
O O9 0.773369 0.467074 0.029584
O O10 0.568481 0.474840 0.101077
O O11 0.721190 0.361403 0.129693
O O12 0.564743 0.886449 0.696464
O O13 0.582744 0.021839 0.633101
O O14 0.469405 0.013968 0.760158
O O15 0.786511 0.750000 0.006546
O O16 0.847339 0.888834 0.028505
O O17 0.500000 0.000000 0.500000
O O18 0.656659 0.750000 0.691142
#
# Coordination Sequence:
#
# PCOD8254424 Si02
#       8
#     8   8   8   8   8   8   8   8
#     4  11  23  38  61  90 115 148 196 256 304 336
#     4  11  20  37  58  87 115 152 194 239 286 361
#     4  11  20  38  59  86 118 155 197 238 291 355
#     4  10  23  38  58  83 114 156 200 233 286 357
#     4  11  22  36  58  88 117 147 193 247 298 347
#     4  11  22  39  61  85 116 159 197 233 285 355
#     4  11  21  38  62  85 115 154 199 241 293 348
#     4  10  22  36  53  84 125 156 183 235 299 357
#
# _framework density 18.371193999999999
#
# number of rings (size 3 to 8) (size 9 to 14) (size 15 to 20)
#    0.000    1.250    5.000    1.875    0.000    1.000 
#    0.000    1.250    0.000    0.750    0.000    0.000 
#    0.000    0.000    0.000    0.000    0.000    0.000 
#
# Total GULP energy -793809.535516 kJ/mol
# GULP energy per Si atom -12403.273992 kJ/mol
# Density = 1.832938 g / cm^3
# Si number density = 18.371194 Si / 1000 Ang^3
#
#
#
# Elastic Constant Matrix: (Units=GPa)
#
#
# Indices 1 2 3 4 5 6 
#
# 1 60.5881 42.4974 -0.6138 0.0000 0.0000 0.0000
# 2 42.4974 137.1876 58.6429 0.0000 0.0000 0.0000
# 3 -0.6138 58.6429 64.2349 0.0000 0.0000 0.0000
# 4 0.0000 0.0000 0.0000 20.4636 0.0000 0.0000
# 5 0.0000 0.0000 0.0000 0.0000 27.8369 0.0000
# 6 0.0000 0.0000 0.0000 0.0000 0.0000 23.7151
#
#
#
# Elastic Compliance Matrix: (Units=1/GPa)
#
#
# Indices 1 2 3 4 5 6 
#
# 1 0.026029 -0.013398 0.012480 0.000000 0.000000 0.000000
# 2 -0.013398 0.018851 -0.017338 0.000000 0.000000 0.000000
# 3 0.012480 -0.017338 0.031516 0.000000 0.000000 0.000000
# 4 0.000000 0.000000 0.000000 0.048867 0.000000 0.000000
# 5 0.000000 0.000000 0.000000 0.000000 0.035924 0.000000
# 6 0.000000 0.000000 0.000000 0.000000 0.000000 0.042167
#
#
# Mechanical properties :
#
#
# Convention : Reuss Voigt Hill
#
# Bulk Modulus (GPa) = 25.07244 51.45152 38.26198
# Shear Modulus (GPa) = 19.75037 25.16874 22.45956
#
# Velocity S-wave (km/s) = 3.28239 3.70538 3.50028
# Velocity P-wave (km/s) = 5.29554 6.80984 6.09986
#
# Compressibility (1/GPa) = 0.03988443
#
# Stress axis : x y z
#
# Youngs Moduli (GPa) = 38.41876 53.04730 31.73016
#
# Poissons Ratio (x) = 0.71073 -0.39601
# Poissons Ratio (y) = 0.51474 0.55014
# Poissons Ratio (z) = -0.47948 0.91974
#
# Static dielectric constant tensor:
#      x y z
#    x 3.476630 0.000000 0.000000 
#    y 0.000000 3.310800 0.000000 
#    z 0.000000 0.000000 3.636960 
# 
# 
# High freq. dielectric constant tensor:
#      x y z
#    x 1.722410 0.000000 0.000000 
#    y 0.000000 1.698270 0.000000 
#    z 0.000000 0.000000 1.716810 
# 
# From -- ./inp_files/23334.got.cif
#   From: 2010.03.12/outbox.cif.g09.slc.cpg/sg62_12_cif.got.tgz:23334.got - 2010.04.10 19:12:36.
