data_PCOD8254506
_publ_section_title
;
Structure prediction by ZEFSAII (Michael W. Deem and Ramdas Pophale) SiO2 
 PCOD8254506
Probable space group: P N M A
;
_chemical_formula_sum "Si O2"
_cell_formula_units_Z 56
_cell_length_a 10.273631
_cell_length_b 21.279299
_cell_length_c 12.210289
_cell_angle_alpha 90.000000
_cell_angle_beta 90.000000
_cell_angle_gamma 90.000000
_cell_volume 2669.360460
_symmetry_space_group_name_H-M "P N M A"
_symmetry_group_IT_number 62
_symmetry_cell_setting 'orthorhombic'
loop_
_space_group_symop_operation_xyz
x,y,z
1/2-x,-y,1/2+z
1/2+x,1/2-y,1/2-z
-x,1/2+y,-z
-x,-y,-z
1/2+x,y,1/2-z
1/2-x,1/2+y,1/2+z
x,1/2-y,z
loop_
_atom_site_type_symbol
_atom_site_label
_atom_site_fract_x
_atom_site_fract_y
_atom_site_fract_z
Si Si1 0.098501 0.549740 0.243002
Si Si2 0.447940 0.439529 0.175821
Si Si3 0.261401 0.501150 0.533388
Si Si4 0.316986 0.397738 0.386637
Si Si5 0.392617 0.820952 0.782553
Si Si6 0.654294 0.404391 0.635992
Si Si7 0.550636 0.178725 0.463845
O O1 0.153098 0.519004 0.134722
O O2 0.207601 0.593695 0.300092
O O3 0.064128 0.490712 0.321567
O O4 0.966529 0.589426 0.220718
O O5 0.361216 0.457008 0.070623
O O6 0.366408 0.444159 0.289400
O O7 0.500160 0.368261 0.167412
O O8 0.221910 0.438032 0.465966
O O9 0.354422 0.541071 0.454657
O O10 0.245692 0.337681 0.334588
O O11 0.429800 0.369149 0.462552
O O12 0.433099 0.750000 0.813822
O O13 0.375204 0.828981 0.652037
O O14 0.642188 0.339484 0.566982
O O15 0.503216 0.250000 0.480190
#
# Coordination Sequence:
#
# PCOD8254506 Si02
#       7
#     8   8   8   8   8   8   8
#     4  12  23  41  60  96 129 161 208 270 321 377
#     4  11  22  38  60  98 133 170 211 263 329 380
#     4  12  21  38  64  94 128 170 210 260 325 389
#     4  11  20  37  64  93 126 169 215 266 319 388
#     4  10  22  39  61  94 133 169 209 262 322 393
#     4  12  24  41  64  91 129 163 215 264 323 381
#     4  10  22  41  65  89 120 169 216 259 321 389
#
# _framework density 20.978808000000001
#
# number of rings (size 3 to 8) (size 9 to 14) (size 15 to 20)
#    0.000    0.857    4.286    5.143    0.000    2.857 
#    0.000    1.429    0.000    0.000    0.000    0.000 
#    0.000    0.000    0.000    0.000    0.000    0.000 
#
# Total GULP energy -694312.170371 kJ/mol
# GULP energy per Si atom -12398.431614 kJ/mol
# Density = 2.093106 g / cm^3
# Si number density = 20.978808 Si / 1000 Ang^3
#
#
#
# Elastic Constant Matrix: (Units=GPa)
#
#
# Indices 1 2 3 4 5 6 
#
# 1 114.1476 47.8541 54.3351 0.0000 0.0000 0.0000
# 2 47.8541 110.0825 48.8061 0.0000 0.0000 0.0000
# 3 54.3351 48.8061 78.1810 0.0000 0.0000 0.0000
# 4 0.0000 0.0000 0.0000 36.6166 0.0000 0.0000
# 5 0.0000 0.0000 0.0000 0.0000 37.9965 0.0000
# 6 0.0000 0.0000 0.0000 0.0000 0.0000 27.4309
#
#
#
# Elastic Compliance Matrix: (Units=1/GPa)
#
#
# Indices 1 2 3 4 5 6 
#
# 1 0.013523 -0.002367 -0.007921 0.000000 0.000000 0.000000
# 2 -0.002367 0.012975 -0.006455 0.000000 0.000000 0.000000
# 3 -0.007921 -0.006455 0.022325 0.000000 0.000000 0.000000
# 4 0.000000 0.000000 0.000000 0.027310 0.000000 0.000000
# 5 0.000000 0.000000 0.000000 0.000000 0.026318 0.000000
# 6 0.000000 0.000000 0.000000 0.000000 0.000000 0.036455
#
#
# Mechanical properties :
#
#
# Convention : Reuss Voigt Hill
#
# Bulk Modulus (GPa) = 65.19712 67.15576 66.17644
# Shear Modulus (GPa) = 28.16818 30.50318 29.33568
#
# Velocity S-wave (km/s) = 3.66826 3.81727 3.74351
# Velocity P-wave (km/s) = 7.00618 7.17701 7.09211
#
# Compressibility (1/GPa) = 0.01533810
#
# Stress axis : x y z
#
# Youngs Moduli (GPa) = 73.94633 77.07236 44.79195
#
# Poissons Ratio (x) = 0.18242 0.35480
# Poissons Ratio (y) = 0.17502 0.28912
# Poissons Ratio (z) = 0.58573 0.49749
#
# Static dielectric constant tensor:
#      x y z
#    x 3.797060 0.000000 0.000000 
#    y 0.000000 3.722680 0.000000 
#    z 0.000000 0.000000 3.925480 
# 
# 
# High freq. dielectric constant tensor:
#      x y z
#    x 1.820300 0.000000 0.000000 
#    y 0.000000 1.802420 0.000000 
#    z 0.000000 0.000000 1.818080 
# 
# From -- ./inp_files/12396.got.cif
#   From: 2010.03.12/outbox.cif.g09.slc.cpg/sg62_7_cif.got.tgz:12396.got - 2010.04.10 19:12:36.
