data_PCOD8254593
_publ_section_title
;
Structure prediction by ZEFSAII (Michael W. Deem and Ramdas Pophale) SiO2 
 PCOD8254593
Probable space group: P N M A
;
_chemical_formula_sum "Si O2"
_cell_formula_units_Z 40
_cell_length_a 9.680011
_cell_length_b 12.609975
_cell_length_c 14.004528
_cell_angle_alpha 90.000000
_cell_angle_beta 90.000000
_cell_angle_gamma 90.000000
_cell_volume 1709.458463
_symmetry_space_group_name_H-M "P N M A"
_symmetry_group_IT_number 62
_symmetry_cell_setting 'orthorhombic'
loop_
_space_group_symop_operation_xyz
x,y,z
1/2-x,-y,1/2+z
1/2+x,1/2-y,1/2-z
-x,1/2+y,-z
-x,-y,-z
1/2+x,y,1/2-z
1/2-x,1/2+y,1/2+z
x,1/2-y,z
loop_
_atom_site_type_symbol
_atom_site_label
_atom_site_fract_x
_atom_site_fract_y
_atom_site_fract_z
Si Si1 0.803518 0.750000 0.630274
Si Si2 0.377798 0.932121 0.543157
Si Si3 0.521597 0.867104 0.204312
Si Si4 0.809893 0.869039 0.156461
Si Si5 0.873483 0.575508 0.474693
Si Si6 0.519473 0.250000 0.320734
O O1 0.823672 0.645555 0.564772
O O2 0.921366 0.750000 0.712621
O O3 0.648695 0.750000 0.675826
O O4 0.323711 0.860437 0.456300
O O5 0.423629 0.856154 0.628895
O O6 0.500000 0.000000 0.500000
O O7 0.253263 0.009892 0.571643
O O8 0.562852 0.750000 0.239499
O O9 0.665320 0.928755 0.182093
O O10 0.437962 0.927983 0.289480
O O11 0.426509 0.852210 0.111335
O O12 0.807503 0.750000 0.197663
O O13 0.000000 0.500000 0.500000
#
# Coordination Sequence:
#
# PCOD8254593 Si02
#       6
#     4   8   8   8   8   4
#     4  12  30  52  77 114 155 204 257 316 390 458
#     4  12  26  46  73 106 145 197 248 305 373 452
#     4  10  22  40  66  98 134 176 224 289 354 421
#     4  10  22  40  66  98 133 175 225 286 355 419
#     4  12  26  46  75 108 147 196 253 306 374 458
#     4  12  30  52  77 110 157 204 255 322 388 462
#
# _framework density 23.399222999999999
#
# number of rings (size 3 to 8) (size 9 to 14) (size 15 to 20)
#    0.000    0.800    6.000    0.000    5.600    3.200 
#    0.000    0.000    0.000    0.000    0.000    0.000 
#    0.000    0.000    0.000    0.000    0.000    0.000 
#
# Total GULP energy -495604.586759 kJ/mol
# GULP energy per Si atom -12390.114669 kJ/mol
# Density = 2.334596 g / cm^3
# Si number density = 23.399223 Si / 1000 Ang^3
#
#
#
# Elastic Constant Matrix: (Units=GPa)
#
#
# Indices 1 2 3 4 5 6 
#
# 1 129.0550 20.4586 -5.1638 0.0000 0.0000 0.0000
# 2 20.4586 77.7939 0.9193 0.0000 0.0000 0.0000
# 3 -5.1638 0.9193 72.3216 0.0000 0.0000 0.0000
# 4 0.0000 0.0000 0.0000 20.7327 0.0000 0.0000
# 5 0.0000 0.0000 0.0000 0.0000 43.5570 0.0000
# 6 0.0000 0.0000 0.0000 0.0000 0.0000 24.8619
#
#
#
# Elastic Compliance Matrix: (Units=1/GPa)
#
#
# Indices 1 2 3 4 5 6 
#
# 1 0.008112 -0.002141 0.000606 0.000000 0.000000 0.000000
# 2 -0.002141 0.013421 -0.000323 0.000000 0.000000 0.000000
# 3 0.000606 -0.000323 0.013875 0.000000 0.000000 0.000000
# 4 0.000000 0.000000 0.000000 0.048233 0.000000 0.000000
# 5 0.000000 0.000000 0.000000 0.000000 0.022958 0.000000
# 6 0.000000 0.000000 0.000000 0.000000 0.000000 0.040222
#
#
# Mechanical properties :
#
#
# Convention : Reuss Voigt Hill
#
# Bulk Modulus (GPa) = 31.55285 34.62208 33.08747
# Shear Modulus (GPa) = 31.03642 35.36075 33.19858
#
# Velocity S-wave (km/s) = 3.64591 3.89162 3.77077
# Velocity P-wave (km/s) = 5.58904 5.91788 5.75581
#
# Compressibility (1/GPa) = 0.03169285
#
# Stress axis : x y z
#
# Youngs Moduli (GPa) = 123.27060 74.50882 72.07451
#
# Poissons Ratio (x) = 0.15949 -0.04371
# Poissons Ratio (y) = 0.26387 0.02331
# Poissons Ratio (z) = -0.07475 0.02410
#
# Static dielectric constant tensor:
#      x y z
#    x 4.903630 0.000000 0.000000 
#    y 0.000000 3.939790 0.000000 
#    z 0.000000 0.000000 4.309100 
# 
# 
# High freq. dielectric constant tensor:
#      x y z
#    x 1.953240 0.000000 0.000000 
#    y 0.000000 1.906560 0.000000 
#    z 0.000000 0.000000 1.925860 
# 
# From -- ./inp_files/16697.got.cif
#   From: 2010.03.12/outbox.cif.g09.slc.cpg/sg62_9_cif.got.tgz:16697.got - 2010.04.10 19:12:36.
