data_PCOD8254126
_publ_section_title
;
Structure prediction by ZEFSAII (Michael W. Deem and Ramdas Pophale) SiO2 
 PCOD8254126
Probable space group: P N M A
;
_chemical_formula_sum "Si O2"
_cell_formula_units_Z 56
_cell_length_a 12.227436
_cell_length_b 13.169877
_cell_length_c 15.727862
_cell_angle_alpha 90.000000
_cell_angle_beta 90.000000
_cell_angle_gamma 90.000000
_cell_volume 2532.717826
_symmetry_space_group_name_H-M "P N M A"
_symmetry_group_IT_number 62
_symmetry_cell_setting 'orthorhombic'
loop_
_space_group_symop_operation_xyz
x,y,z
1/2-x,-y,1/2+z
1/2+x,1/2-y,1/2-z
-x,1/2+y,-z
-x,-y,-z
1/2+x,y,1/2-z
1/2-x,1/2+y,1/2+z
x,1/2-y,z
loop_
_atom_site_type_symbol
_atom_site_label
_atom_site_fract_x
_atom_site_fract_y
_atom_site_fract_z
Si Si1 0.152394 0.955211 0.514640
Si Si2 0.757886 0.131427 0.883138
Si Si3 0.005411 0.129174 0.917437
Si Si4 0.203833 0.133272 0.252373
Si Si5 0.137934 0.365206 0.071071
Si Si6 0.965770 0.538988 0.635978
Si Si7 0.868053 0.539799 0.236301
O O1 0.251391 0.876414 0.516291
O O2 0.055396 0.910150 0.573890
O O3 0.185556 0.066465 0.551031
O O4 0.112379 0.964136 0.418028
O O5 0.746326 0.250000 0.905915
O O6 0.883106 0.093265 0.895676
O O7 0.717825 0.112571 0.786214
O O8 0.014877 0.250000 0.912031
O O9 0.095852 0.085001 0.853308
O O10 0.037988 0.091286 0.013706
O O11 0.240774 0.250000 0.242622
O O12 0.157286 0.084252 0.163688
O O13 0.108611 0.126165 0.322304
O O14 0.310816 0.069553 0.279149
O O15 0.111163 0.250000 0.090762
O O16 0.022529 0.471795 0.708236
#
# Coordination Sequence:
#
# PCOD8254126 Si02
#       7
#     8   8   8   8   8   8   8
#     4  10  21  42  62  87 123 162 206 257 309 367
#     4  10  21  39  61  91 124 155 202 262 309 361
#     4  10  22  39  65  92 121 163 206 255 313 366
#     4  11  23  40  61  91 128 165 206 254 307 371
#     4  10  21  40  60  87 124 163 206 249 306 373
#     4  10  22  39  62  86 119 161 205 250 307 369
#     4  11  21  41  63  90 125 158 209 256 313 366
#
# _framework density 22.110636
#
# number of rings (size 3 to 8) (size 9 to 14) (size 15 to 20)
#    0.000    1.714    2.857    2.143    0.000    2.286 
#    2.571    7.857    0.000    0.857    0.000    0.000 
#    0.000    0.000    0.000    0.000    0.000    0.000 
#
# Total GULP energy -694251.156805 kJ/mol
# GULP energy per Si atom -12397.342086 kJ/mol
# Density = 2.206031 g / cm^3
# Si number density = 22.110636 Si / 1000 Ang^3
#
#
#
# Elastic Constant Matrix: (Units=GPa)
#
#
# Indices 1 2 3 4 5 6 
#
# 1 113.4278 25.0237 45.9574 0.0000 0.0000 0.0000
# 2 25.0237 51.4029 11.0093 0.0000 0.0000 0.0000
# 3 45.9574 11.0093 80.0853 0.0000 0.0000 0.0000
# 4 0.0000 0.0000 0.0000 18.1868 0.0000 0.0000
# 5 0.0000 0.0000 0.0000 0.0000 39.6737 0.0000
# 6 0.0000 0.0000 0.0000 0.0000 0.0000 28.7700
#
#
#
# Elastic Compliance Matrix: (Units=1/GPa)
#
#
# Indices 1 2 3 4 5 6 
#
# 1 0.012494 -0.004684 -0.006526 0.000000 0.000000 0.000000
# 2 -0.004684 0.021801 -0.000309 0.000000 0.000000 0.000000
# 3 -0.006526 -0.000309 0.016274 0.000000 0.000000 0.000000
# 4 0.000000 0.000000 0.000000 0.054985 0.000000 0.000000
# 5 0.000000 0.000000 0.000000 0.000000 0.025206 0.000000
# 6 0.000000 0.000000 0.000000 0.000000 0.000000 0.034758
#
#
# Mechanical properties :
#
#
# Convention : Reuss Voigt Hill
#
# Bulk Modulus (GPa) = 36.32308 45.43297 40.87802
# Shear Modulus (GPa) = 25.28682 28.18782 26.73732
#
# Velocity S-wave (km/s) = 3.38546 3.57438 3.48120
# Velocity P-wave (km/s) = 5.63430 6.13413 5.88952
#
# Compressibility (1/GPa) = 0.02753071
#
# Stress axis : x y z
#
# Youngs Moduli (GPa) = 80.04122 45.86998 61.44829
#
# Poissons Ratio (x) = 0.21487 0.40098
# Poissons Ratio (y) = 0.37495 0.01897
# Poissons Ratio (z) = 0.52231 0.01416
#
# Static dielectric constant tensor:
#      x y z
#    x 4.147750 0.000000 0.000000 
#    y 0.000000 3.680280 0.000000 
#    z 0.000000 0.000000 4.110240 
# 
# 
# High freq. dielectric constant tensor:
#      x y z
#    x 1.878640 0.000000 0.000000 
#    y 0.000000 1.853530 0.000000 
#    z 0.000000 0.000000 1.874750 
# 
# From -- ./inp_files/18086.got.cif
#   From: 2010.03.12/outbox.cif.g09.slc.cpg/sg62_10_cif.got.tgz:18086.got - 2010.04.10 19:12:36.
