data_PCOD8254276
_publ_section_title
;
Structure prediction by ZEFSAII (Michael W. Deem and Ramdas Pophale) SiO2 
 PCOD8254276
Probable space group: P N M A
;
_chemical_formula_sum "Si O2"
_cell_formula_units_Z 40
_cell_length_a 9.253382
_cell_length_b 13.189726
_cell_length_c 16.916516
_cell_angle_alpha 90.000000
_cell_angle_beta 90.000000
_cell_angle_gamma 90.000000
_cell_volume 2064.653557
_symmetry_space_group_name_H-M "P N M A"
_symmetry_group_IT_number 62
_symmetry_cell_setting 'orthorhombic'
loop_
_space_group_symop_operation_xyz
x,y,z
1/2-x,-y,1/2+z
1/2+x,1/2-y,1/2-z
-x,1/2+y,-z
-x,-y,-z
1/2+x,y,1/2-z
1/2-x,1/2+y,1/2+z
x,1/2-y,z
loop_
_atom_site_type_symbol
_atom_site_label
_atom_site_fract_x
_atom_site_fract_y
_atom_site_fract_z
Si Si1 0.150824 0.635093 0.482623
Si Si2 0.495761 0.369082 0.297655
Si Si3 0.692167 0.563100 0.841504
Si Si4 0.829539 0.635508 0.425937
Si Si5 0.637745 0.534812 0.548892
O O1 0.193648 0.750000 0.461976
O O2 0.165010 0.618480 0.575905
O O3 0.259744 0.562077 0.435619
O O4 0.989265 0.610124 0.456258
O O5 0.468651 0.250000 0.300909
O O6 0.664312 0.393359 0.301873
O O7 0.442048 0.414163 0.214918
O O8 0.407043 0.420465 0.367761
O O9 0.708361 0.441975 0.855147
O O10 0.815155 0.750000 0.393923
O O11 0.721291 0.620620 0.499294
O O12 0.500000 0.500000 0.500000
#
# Coordination Sequence:
#
# PCOD8254276 Si02
#       5
#     8   8   8   8   8
#     4  10  21  40  65  91 122 161 205 251 304 360
#     4  12  25  40  61  89 125 161 198 250 312 365
#     4  11  24  41  59  91 125 158 202 251 303 366
#     4  10  22  42  66  88 120 165 208 250 304 364
#     4  11  21  38  62  91 121 157 204 259 295 360
#
# _framework density 19.373709999999999
#
# number of rings (size 3 to 8) (size 9 to 14) (size 15 to 20)
#    0.000    1.200    4.000    4.800    5.600    0.800 
#    0.000    2.000    0.000    0.000    0.000    0.000 
#    0.000    0.000    0.000    0.000    0.000    0.000 
#
# Total GULP energy -496152.233218 kJ/mol
# GULP energy per Si atom -12403.805830 kJ/mol
# Density = 1.932961 g / cm^3
# Si number density = 19.373710 Si / 1000 Ang^3
#
#
#
# Elastic Constant Matrix: (Units=GPa)
#
#
# Indices 1 2 3 4 5 6 
#
# 1 70.2336 21.2407 12.3365 0.0000 0.0000 0.0000
# 2 21.2407 114.1893 22.8910 0.0000 0.0000 0.0000
# 3 12.3365 22.8910 52.5938 0.0000 0.0000 0.0000
# 4 0.0000 0.0000 0.0000 19.2797 0.0000 0.0000
# 5 0.0000 0.0000 0.0000 0.0000 27.6437 0.0000
# 6 0.0000 0.0000 0.0000 0.0000 0.0000 34.5702
#
#
#
# Elastic Compliance Matrix: (Units=1/GPa)
#
#
# Indices 1 2 3 4 5 6 
#
# 1 0.015403 -0.002346 -0.002592 0.000000 0.000000 0.000000
# 2 -0.002346 0.009952 -0.003781 0.000000 0.000000 0.000000
# 3 -0.002592 -0.003781 0.021267 0.000000 0.000000 0.000000
# 4 0.000000 0.000000 0.000000 0.051868 0.000000 0.000000
# 5 0.000000 0.000000 0.000000 0.000000 0.036175 0.000000
# 6 0.000000 0.000000 0.000000 0.000000 0.000000 0.028927
#
#
# Mechanical properties :
#
#
# Convention : Reuss Voigt Hill
#
# Bulk Modulus (GPa) = 34.26495 38.88368 36.57431
# Shear Modulus (GPa) = 26.21136 28.33527 27.27332
#
# Velocity S-wave (km/s) = 3.68222 3.82850 3.75607
# Velocity P-wave (km/s) = 5.98356 6.29739 6.14248
#
# Compressibility (1/GPa) = 0.02918434
#
# Stress axis : x y z
#
# Youngs Moduli (GPa) = 64.92303 100.48542 47.02036
#
# Poissons Ratio (x) = 0.23569 0.12188
# Poissons Ratio (y) = 0.15228 0.17779
# Poissons Ratio (z) = 0.16828 0.37996
#
# Static dielectric constant tensor:
#      x y z
#    x 3.604710 0.000000 0.000000 
#    y 0.000000 3.717610 0.000000 
#    z 0.000000 0.000000 5.126190 
# 
# 
# High freq. dielectric constant tensor:
#      x y z
#    x 1.773160 0.000000 0.000000 
#    y 0.000000 1.768180 0.000000 
#    z 0.000000 0.000000 1.734960 
# 
# From -- ./inp_files/16642.got.cif
#   From: 2010.03.12/outbox.cif.g09.slc.cpg/sg62_9_cif.got.tgz:16642.got - 2010.04.10 19:12:36.
