data_PCOD8254999
_publ_section_title
;
Structure prediction by ZEFSAII (Michael W. Deem and Ramdas Pophale) SiO2 
 PCOD8254999
Probable space group: P N M A
;
_chemical_formula_sum "Si O2"
_cell_formula_units_Z 64
_cell_length_a 19.230857
_cell_length_b 8.672308
_cell_length_c 23.289436
_cell_angle_alpha 90.000000
_cell_angle_beta 90.000000
_cell_angle_gamma 90.000000
_cell_volume 3884.116999
_symmetry_space_group_name_H-M "P N M A"
_symmetry_group_IT_number 62
_symmetry_cell_setting 'orthorhombic'
loop_
_space_group_symop_operation_xyz
x,y,z
1/2-x,-y,1/2+z
1/2+x,1/2-y,1/2-z
-x,1/2+y,-z
-x,-y,-z
1/2+x,y,1/2-z
1/2-x,1/2+y,1/2+z
x,1/2-y,z
loop_
_atom_site_type_symbol
_atom_site_label
_atom_site_fract_x
_atom_site_fract_y
_atom_site_fract_z
Si Si1 0.224502 0.931963 0.164247
Si Si2 0.636952 0.568069 0.441203
Si Si3 0.726737 0.069112 0.664835
Si Si4 0.499116 0.069134 0.251119
Si Si5 0.140624 0.567536 0.273401
Si Si6 0.132026 0.430937 0.936533
Si Si7 0.642443 0.432282 0.772809
Si Si8 0.003505 0.431765 0.117439
O O1 0.220439 0.750000 0.168603
O O2 0.198009 0.987344 0.102132
O O3 0.172570 0.994916 0.213368
O O4 0.304121 0.983773 0.176403
O O5 0.639530 0.750000 0.453330
O O6 0.650865 0.474299 0.498914
O O7 0.562859 0.526526 0.414666
O O8 0.727194 0.250000 0.675070
O O9 0.806052 0.012794 0.676009
O O10 0.699495 0.024364 0.601798
O O11 0.673807 0.003167 0.712807
O O12 0.497617 0.250000 0.250399
O O13 0.499371 0.009021 0.316948
O O14 0.566447 0.010985 0.216740
O O15 0.432115 0.008409 0.216885
O O16 0.129642 0.750000 0.273169
O O17 0.114364 0.250000 0.931297
O O18 0.067613 0.531082 0.915058
O O19 0.632145 0.250000 0.771770
O O20 0.018781 0.250000 0.113327
#
# Coordination Sequence:
#
# PCOD8254999 Si02
#       8
#     8   8   8   8   8   8   8   8
#     4   8  16  30  50  71  90 117 160 201 231 272
#     4  11  21  34  50  69  94 127 163 199 235 273
#     4   8  16  30  50  71  90 117 160 201 231 272
#     4  11  21  30  44  73 104 127 152 191 241 286
#     4   9  16  31  52  70  89 121 160 195 232 280
#     4  11  21  34  50  69  94 127 163 199 235 273
#     4   9  16  31  52  70  89 121 160 195 232 280
#     4  11  22  34  45  65  98 133 167 195 224 274
#
# _framework density 16.477360999999998
#
# number of rings (size 3 to 8) (size 9 to 14) (size 15 to 20)
#    0.000    2.250    2.500    3.375    0.000    1.000 
#    0.000    5.000    0.000    0.000    0.000    0.875 
#    0.000    0.000    0.000    0.000    0.000    0.000 
#
# Total GULP energy -793375.415541 kJ/mol
# GULP energy per Si atom -12396.490868 kJ/mol
# Density = 1.643986 g / cm^3
# Si number density = 16.477361 Si / 1000 Ang^3
#
#
#
# Elastic Constant Matrix: (Units=GPa)
#
#
# Indices 1 2 3 4 5 6 
#
# 1 142.9706 21.8144 56.5188 0.0000 0.0000 0.0000
# 2 21.8144 31.8593 14.7160 0.0000 0.0000 0.0000
# 3 56.5188 14.7160 76.0078 0.0000 0.0000 0.0000
# 4 0.0000 0.0000 0.0000 18.7631 0.0000 0.0000
# 5 0.0000 0.0000 0.0000 0.0000 24.5238 0.0000
# 6 0.0000 0.0000 0.0000 0.0000 0.0000 9.1933
#
#
#
# Elastic Compliance Matrix: (Units=1/GPa)
#
#
# Indices 1 2 3 4 5 6 
#
# 1 0.010323 -0.003869 -0.006927 0.000000 0.000000 0.000000
# 2 -0.003869 0.035921 -0.004078 0.000000 0.000000 0.000000
# 3 -0.006927 -0.004078 0.019097 0.000000 0.000000 0.000000
# 4 0.000000 0.000000 0.000000 0.053296 0.000000 0.000000
# 5 0.000000 0.000000 0.000000 0.000000 0.040777 0.000000
# 6 0.000000 0.000000 0.000000 0.000000 0.000000 0.108775
#
#
# Mechanical properties :
#
#
# Convention : Reuss Voigt Hill
#
# Bulk Modulus (GPa) = 28.09522 48.54844 38.32183
# Shear Modulus (GPa) = 16.13941 21.01527 18.57734
#
# Velocity S-wave (km/s) = 3.13308 3.57515 3.36139
# Velocity P-wave (km/s) = 5.49327 6.82422 6.19459
#
# Compressibility (1/GPa) = 0.03559324
#
# Stress axis : x y z
#
# Youngs Moduli (GPa) = 96.86946 27.83921 52.36396
#
# Poissons Ratio (x) = 0.10770 0.36274
# Poissons Ratio (y) = 0.37476 0.21354
# Poissons Ratio (z) = 0.67104 0.11353
#
# Static dielectric constant tensor:
#      x y z
#    x 3.309730 0.000000 0.000000 
#    y 0.000000 2.879980 0.000000 
#    z 0.000000 0.000000 3.159040 
# 
# 
# High freq. dielectric constant tensor:
#      x y z
#    x 1.634130 0.000000 0.000000 
#    y 0.000000 1.620870 0.000000 
#    z 0.000000 0.000000 1.607070 
# 
# From -- ./inp_files/30036.got.cif
#   From: 2010.03.12/outbox.cif.g09.slc.cpg/sg62_16_cif.got.tgz:30036.got - 2010.04.10 19:12:36.
