data_PCOD8254876
_publ_section_title
;
Structure prediction by ZEFSAII (Michael W. Deem and Ramdas Pophale) SiO2 
 PCOD8254876
Probable space group: P N M A
;
_chemical_formula_sum "Si O2"
_cell_formula_units_Z 48
_cell_length_a 8.707567
_cell_length_b 25.518792
_cell_length_c 9.771047
_cell_angle_alpha 90.000000
_cell_angle_beta 90.000000
_cell_angle_gamma 90.000000
_cell_volume 2171.191045
_symmetry_space_group_name_H-M "P N M A"
_symmetry_group_IT_number 62
_symmetry_cell_setting 'orthorhombic'
loop_
_space_group_symop_operation_xyz
x,y,z
1/2-x,-y,1/2+z
1/2+x,1/2-y,1/2-z
-x,1/2+y,-z
-x,-y,-z
1/2+x,y,1/2-z
1/2-x,1/2+y,1/2+z
x,1/2-y,z
loop_
_atom_site_type_symbol
_atom_site_label
_atom_site_fract_x
_atom_site_fract_y
_atom_site_fract_z
Si Si1 0.070219 0.960915 0.894343
Si Si2 0.002546 0.186824 0.425938
Si Si3 0.996545 0.140880 0.938375
Si Si4 0.599606 0.501937 0.133188
Si Si5 0.339139 0.375615 0.839229
Si Si6 0.834029 0.308788 0.159021
O O1 0.251640 0.966850 0.886767
O O2 0.999017 0.974022 0.748774
O O3 0.031619 0.903640 0.947773
O O4 0.000000 0.000000 0.000000
O O5 0.995453 0.250000 0.450797
O O6 0.173588 0.166181 0.390402
O O7 0.953046 0.155247 0.560744
O O8 0.895817 0.166427 0.300915
O O9 0.166272 0.140415 0.877173
O O10 0.874275 0.141354 0.815542
O O11 0.959787 0.190647 0.035048
O O12 0.642631 0.561977 0.161747
O O13 0.500000 0.500000 0.000000
O O14 0.797632 0.250000 0.198708
#
# Coordination Sequence:
#
# PCOD8254876 Si02
#       6
#     8   8   8   8   8   8
#     4  12  25  46  66  98 136 178 220 275 330 394
#     4  10  23  44  71 101 136 174 222 277 338 401
#     4  12  27  43  70  97 137 177 228 276 337 398
#     4  12  27  43  69  96 135 178 225 274 331 392
#     4  12  25  44  66  98 130 179 222 276 331 395
#     4  10  23  44  70 101 134 173 220 277 335 402
#
# _framework density 22.107679999999998
#
# number of rings (size 3 to 8) (size 9 to 14) (size 15 to 20)
#    0.000    0.667    3.333    3.000    7.000    2.667 
#    0.000    0.000    0.000    0.000    0.000    0.000 
#    0.000    0.000    0.000    0.000    0.000    0.000 
#
# Total GULP energy -595079.100167 kJ/mol
# GULP energy per Si atom -12397.481253 kJ/mol
# Density = 2.205736 g / cm^3
# Si number density = 22.107680 Si / 1000 Ang^3
#
#
#
# Elastic Constant Matrix: (Units=GPa)
#
#
# Indices 1 2 3 4 5 6 
#
# 1 144.7537 17.2669 48.9105 0.0000 0.0000 0.0000
# 2 17.2669 41.5998 22.3922 0.0000 0.0000 0.0000
# 3 48.9105 22.3922 154.0925 0.0000 0.0000 0.0000
# 4 0.0000 0.0000 0.0000 43.1538 0.0000 0.0000
# 5 0.0000 0.0000 0.0000 0.0000 51.1788 0.0000
# 6 0.0000 0.0000 0.0000 0.0000 0.0000 27.7915
#
#
#
# Elastic Compliance Matrix: (Units=1/GPa)
#
#
# Indices 1 2 3 4 5 6 
#
# 1 0.007903 -0.002094 -0.002204 0.000000 0.000000 0.000000
# 2 -0.002094 0.026633 -0.003206 0.000000 0.000000 0.000000
# 3 -0.002204 -0.003206 0.007655 0.000000 0.000000 0.000000
# 4 0.000000 0.000000 0.000000 0.023173 0.000000 0.000000
# 5 0.000000 0.000000 0.000000 0.000000 0.019539 0.000000
# 6 0.000000 0.000000 0.000000 0.000000 0.000000 0.035982
#
#
# Mechanical properties :
#
#
# Convention : Reuss Voigt Hill
#
# Bulk Modulus (GPa) = 36.78658 57.50948 47.14803
# Shear Modulus (GPa) = 34.49371 41.21659 37.85515
#
# Velocity S-wave (km/s) = 3.95430 4.32250 4.14249
# Velocity P-wave (km/s) = 6.12572 7.14016 6.65231
#
# Compressibility (1/GPa) = 0.02718383
#
# Stress axis : x y z
#
# Youngs Moduli (GPa) = 126.53742 37.54720 130.63242
#
# Poissons Ratio (x) = 0.07862 0.28794
# Poissons Ratio (y) = 0.26494 0.41876
# Poissons Ratio (z) = 0.27891 0.12036
#
# Static dielectric constant tensor:
#      x y z
#    x 4.250870 0.000000 0.000000 
#    y 0.000000 3.730030 0.000000 
#    z 0.000000 0.000000 4.446240 
# 
# 
# High freq. dielectric constant tensor:
#      x y z
#    x 1.885730 0.000000 0.000000 
#    y 0.000000 1.865360 0.000000 
#    z 0.000000 0.000000 1.891400 
# 
# From -- ./inp_files/4526.got.cif
#   From: 2010.03.12/outbox.cif.g09.slc.cpg/sg62_3_cif.got.tgz:4526.got - 2010.04.10 19:12:36.
