data_PCOD8254517
_publ_section_title
;
Structure prediction by ZEFSAII (Michael W. Deem and Ramdas Pophale) SiO2 
 PCOD8254517
Probable space group: P N M A
;
_chemical_formula_sum "Si O2"
_cell_formula_units_Z 32
_cell_length_a 18.808316
_cell_length_b 12.691024
_cell_length_c 6.741862
_cell_angle_alpha 90.000000
_cell_angle_beta 90.000000
_cell_angle_gamma 90.000000
_cell_volume 1609.260816
_symmetry_space_group_name_H-M "P N M A"
_symmetry_group_IT_number 62
_symmetry_cell_setting 'orthorhombic'
loop_
_space_group_symop_operation_xyz
x,y,z
1/2-x,-y,1/2+z
1/2+x,1/2-y,1/2-z
-x,1/2+y,-z
-x,-y,-z
1/2+x,y,1/2-z
1/2-x,1/2+y,1/2+z
x,1/2-y,z
loop_
_atom_site_type_symbol
_atom_site_label
_atom_site_fract_x
_atom_site_fract_y
_atom_site_fract_z
Si Si1 0.564768 0.869978 0.897914
Si Si2 0.656276 0.990696 0.592449
Si Si3 0.086200 0.050636 0.299566
Si Si4 0.291220 0.628907 0.065969
O O1 0.579676 0.750000 0.956817
O O2 0.620017 0.902613 0.728344
O O3 0.485038 0.881687 0.817926
O O4 0.577111 0.937799 0.095169
O O5 0.723384 0.941576 0.482597
O O6 0.600306 0.032309 0.431708
O O7 0.678358 0.091245 0.723195
O O8 0.150153 0.116716 0.395139
O O9 0.268513 0.750000 0.084458
#
# Coordination Sequence:
#
# PCOD8254517 Si02
#       4
#     8   8   8   8
#     4  10  22  39  64  91 120 161 204 253 309 361
#     4  11  22  42  59  92 125 158 210 255 298 368
#     4  10  22  42  61  89 127 157 204 257 300 369
#     4  11  23  39  62  89 125 166 203 254 311 359
#
# _framework density 19.884903999999999
#
# number of rings (size 3 to 8) (size 9 to 14) (size 15 to 20)
#    0.000    1.500    2.500    2.250    0.000    4.000 
#    0.000    0.000    0.000    0.000    0.000    0.000 
#    0.000    0.000    0.000    0.000    0.000    0.000 
#
# Total GULP energy -397027.591889 kJ/mol
# GULP energy per Si atom -12407.112247 kJ/mol
# Density = 1.983965 g / cm^3
# Si number density = 19.884904 Si / 1000 Ang^3
#
#
#
# Elastic Constant Matrix: (Units=GPa)
#
#
# Indices 1 2 3 4 5 6 
#
# 1 59.9567 -10.0338 4.6279 0.0000 0.0000 0.0000
# 2 -10.0338 92.0756 20.3611 0.0000 0.0000 0.0000
# 3 4.6279 20.3611 85.5759 0.0000 0.0000 0.0000
# 4 0.0000 0.0000 0.0000 10.9569 0.0000 0.0000
# 5 0.0000 0.0000 0.0000 0.0000 37.2223 0.0000
# 6 0.0000 0.0000 0.0000 0.0000 0.0000 14.1712
#
#
#
# Elastic Compliance Matrix: (Units=1/GPa)
#
#
# Indices 1 2 3 4 5 6 
#
# 1 0.017157 0.002190 -0.001449 0.000000 0.000000 0.000000
# 2 0.002190 0.011743 -0.002913 0.000000 0.000000 0.000000
# 3 -0.001449 -0.002913 0.012457 0.000000 0.000000 0.000000
# 4 0.000000 0.000000 0.000000 0.091267 0.000000 0.000000
# 5 0.000000 0.000000 0.000000 0.000000 0.026866 0.000000
# 6 0.000000 0.000000 0.000000 0.000000 0.000000 0.070565
#
#
# Mechanical properties :
#
#
# Convention : Reuss Voigt Hill
#
# Bulk Modulus (GPa) = 27.01645 29.72429 28.37037
# Shear Modulus (GPa) = 20.26458 27.31362 23.78910
#
# Velocity S-wave (km/s) = 3.19579 3.71021 3.46257
# Velocity P-wave (km/s) = 5.21856 5.77363 5.50310
#
# Compressibility (1/GPa) = 0.03701449
#
# Stress axis : x y z
#
# Youngs Moduli (GPa) = 58.28507 85.15447 80.27691
#
# Poissons Ratio (x) = -0.18649 0.11632
# Poissons Ratio (y) = -0.12765 0.23381
# Poissons Ratio (z) = 0.08445 0.24802
#
# Static dielectric constant tensor:
#      x y z
#    x 3.774910 0.000000 0.000000 
#    y 0.000000 3.438610 0.000000 
#    z 0.000000 0.000000 3.605300 
# 
# 
# High freq. dielectric constant tensor:
#      x y z
#    x 1.792410 0.000000 0.000000 
#    y 0.000000 1.769710 0.000000 
#    z 0.000000 0.000000 1.779310 
# 
# From -- ./inp_files/1454.got.cif
#   From: 2010.03.12/outbox.cif.g09.slc.cpg/sg62_1_cif.got.tgz:1454.got - 2010.04.10 19:12:36.
