data_PCOD8254248
_publ_section_title
;
Structure prediction by ZEFSAII (Michael W. Deem and Ramdas Pophale) SiO2 
 PCOD8254248
Probable space group: P N M A
;
_chemical_formula_sum "Si O2"
_cell_formula_units_Z 48
_cell_length_a 18.565846
_cell_length_b 8.756428
_cell_length_c 14.819243
_cell_angle_alpha 90.000000
_cell_angle_beta 90.000000
_cell_angle_gamma 90.000000
_cell_volume 2409.171652
_symmetry_space_group_name_H-M "P N M A"
_symmetry_group_IT_number 62
_symmetry_cell_setting 'orthorhombic'
loop_
_space_group_symop_operation_xyz
x,y,z
1/2-x,-y,1/2+z
1/2+x,1/2-y,1/2-z
-x,1/2+y,-z
-x,-y,-z
1/2+x,y,1/2-z
1/2-x,1/2+y,1/2+z
x,1/2-y,z
loop_
_atom_site_type_symbol
_atom_site_label
_atom_site_fract_x
_atom_site_fract_y
_atom_site_fract_z
Si Si1 0.177243 0.571303 0.345776
Si Si2 0.086182 0.070019 0.751362
Si Si3 0.709794 0.426643 0.498996
Si Si4 0.234757 0.572404 0.697583
Si Si5 0.564049 0.929691 0.556985
Si Si6 0.979761 0.069943 0.594802
O O1 0.176469 0.750000 0.322002
O O2 0.234126 0.532119 0.423265
O O3 0.196504 0.475146 0.256947
O O4 0.099411 0.513926 0.377632
O O5 0.080833 0.250000 0.766055
O O6 0.036004 0.012666 0.669860
O O7 0.167915 0.027491 0.730178
O O8 0.058939 0.990320 0.841595
O O9 0.686604 0.250000 0.502976
O O10 0.748072 0.467058 0.405387
O O11 0.639437 0.528454 0.510631
O O12 0.216598 0.750000 0.710692
O O13 0.555207 0.750000 0.558113
O O14 0.500000 0.000000 0.500000
O O15 0.982042 0.250000 0.584560
O O16 0.000000 0.000000 0.500000
#
# Coordination Sequence:
#
# PCOD8254248 Si02
#       6
#     8   8   8   8   8   8
#     4  10  21  40  63  89 125 165 204 256 313 368
#     4  11  23  42  65  94 132 171 210 257 317 378
#     4  10  22  41  64  91 127 164 206 260 316 373
#     4  11  23  39  63  95 124 162 211 258 311 372
#     4  12  26  43  65  92 126 168 215 265 319 381
#     4  10  23  41  64  94 127 167 209 256 312 372
#
# _framework density 19.923860000000001
#
# number of rings (size 3 to 8) (size 9 to 14) (size 15 to 20)
#    0.000    1.333    1.667    3.500    2.333    4.667 
#    0.000    0.000    0.000    0.000    0.000    0.000 
#    0.000    0.000    0.000    0.000    0.000    0.000 
#
# Total GULP energy -595522.535028 kJ/mol
# GULP energy per Si atom -12406.719480 kJ/mol
# Density = 1.987851 g / cm^3
# Si number density = 19.923860 Si / 1000 Ang^3
#
#
#
# Elastic Constant Matrix: (Units=GPa)
#
#
# Indices 1 2 3 4 5 6 
#
# 1 114.6121 34.4187 35.9619 0.0000 0.0000 0.0000
# 2 34.4187 82.6994 46.4211 0.0000 0.0000 0.0000
# 3 35.9619 46.4211 118.1539 0.0000 0.0000 0.0000
# 4 0.0000 0.0000 0.0000 32.5331 0.0000 0.0000
# 5 0.0000 0.0000 0.0000 0.0000 37.9844 0.0000
# 6 0.0000 0.0000 0.0000 0.0000 0.0000 28.8147
#
#
#
# Elastic Compliance Matrix: (Units=1/GPa)
#
#
# Indices 1 2 3 4 5 6 
#
# 1 0.010280 -0.003236 -0.001858 0.000000 0.000000 0.000000
# 2 -0.003236 0.016532 -0.005510 0.000000 0.000000 0.000000
# 3 -0.001858 -0.005510 0.011194 0.000000 0.000000 0.000000
# 4 0.000000 0.000000 0.000000 0.030738 0.000000 0.000000
# 5 0.000000 0.000000 0.000000 0.000000 0.026327 0.000000
# 6 0.000000 0.000000 0.000000 0.000000 0.000000 0.034705
#
#
# Mechanical properties :
#
#
# Convention : Reuss Voigt Hill
#
# Bulk Modulus (GPa) = 59.52991 61.00767 60.26879
# Shear Modulus (GPa) = 31.93251 33.11069 32.52160
#
# Velocity S-wave (km/s) = 4.00775 4.08102 4.04455
# Velocity P-wave (km/s) = 7.16656 7.27277 7.21986
#
# Compressibility (1/GPa) = 0.01679828
#
# Stress axis : x y z
#
# Youngs Moduli (GPa) = 97.28021 60.49004 89.33508
#
# Poissons Ratio (x) = 0.19572 0.16594
# Poissons Ratio (y) = 0.31476 0.49226
# Poissons Ratio (z) = 0.18070 0.33332
#
# Static dielectric constant tensor:
#      x y z
#    x 4.072880 0.000000 0.000000 
#    y 0.000000 3.579580 0.000000 
#    z 0.000000 0.000000 3.789690 
# 
# 
# High freq. dielectric constant tensor:
#      x y z
#    x 1.789490 0.000000 0.000000 
#    y 0.000000 1.775540 0.000000 
#    z 0.000000 0.000000 1.795660 
# 
# From -- ./inp_files/19645.got.cif
#   From: 2010.03.12/outbox.cif.g09.slc.cpg/sg62_10_cif.got.tgz:19645.got - 2010.04.10 19:12:36.
