data_PCOD8254990
_publ_section_title
;
Structure prediction by ZEFSAII (Michael W. Deem and Ramdas Pophale) SiO2 
 PCOD8254990
Probable space group: P N M A
;
_chemical_formula_sum "Si O2"
_cell_formula_units_Z 64
_cell_length_a 9.465317
_cell_length_b 21.188667
_cell_length_c 16.192802
_cell_angle_alpha 90.000000
_cell_angle_beta 90.000000
_cell_angle_gamma 90.000000
_cell_volume 3247.587077
_symmetry_space_group_name_H-M "P N M A"
_symmetry_group_IT_number 62
_symmetry_cell_setting 'orthorhombic'
loop_
_space_group_symop_operation_xyz
x,y,z
1/2-x,-y,1/2+z
1/2+x,1/2-y,1/2-z
-x,1/2+y,-z
-x,-y,-z
1/2+x,y,1/2-z
1/2-x,1/2+y,1/2+z
x,1/2-y,z
loop_
_atom_site_type_symbol
_atom_site_label
_atom_site_fract_x
_atom_site_fract_y
_atom_site_fract_z
Si Si1 0.460518 0.994856 0.316546
Si Si2 0.251704 0.442029 0.928807
Si Si3 0.409686 0.134617 0.153119
Si Si4 0.459600 0.993086 0.123959
Si Si5 0.279866 0.677635 0.795174
Si Si6 0.821626 0.041343 0.945594
Si Si7 0.566574 0.622723 0.588938
Si Si8 0.215812 0.320413 0.021402
O O1 0.315259 0.959525 0.340523
O O2 0.488071 0.984121 0.220669
O O3 0.585095 0.960244 0.364283
O O4 0.455185 0.068348 0.342024
O O5 0.406490 0.472520 0.930059
O O6 0.161088 0.476194 0.001749
O O7 0.244906 0.367167 0.944301
O O8 0.559812 0.156277 0.188787
O O9 0.290821 0.134173 0.224676
O O10 0.353088 0.179953 0.080747
O O11 0.419565 0.066100 0.110461
O O12 0.336421 0.948971 0.088049
O O13 0.280197 0.750000 0.765663
O O14 0.185261 0.670685 0.877189
O O15 0.869950 0.098879 0.002489
O O16 0.420881 0.659375 0.574511
O O17 0.194744 0.250000 0.985914
#
# Coordination Sequence:
#
# PCOD8254990 Si02
#       8
#     8   8   8   8   8   8   8   8
#     4  11  20  39  61  90 123 155 197 256 320 375
#     4  11  22  38  61  92 121 164 203 260 321 366
#     4  12  25  41  58  91 131 170 211 251 303 371
#     4  12  24  36  64  94 127 155 204 266 322 367
#     4  12  25  40  58  86 128 174 214 246 294 373
#     4  11  21  38  60  90 121 155 201 260 312 367
#     4  11  21  40  64  88 122 164 205 258 306 369
#     4  12  24  41  62  87 125 171 215 252 303 379
#
# _framework density 19.706938999999998
#
# number of rings (size 3 to 8) (size 9 to 14) (size 15 to 20)
#    0.000    0.500    5.000    5.625    3.500    0.000 
#    0.000    0.000    0.000    0.750    0.000    0.000 
#    0.000    0.000    0.000    0.000    0.000    0.000 
#
# Total GULP energy -793715.950225 kJ/mol
# GULP energy per Si atom -12401.811722 kJ/mol
# Density = 1.966208 g / cm^3
# Si number density = 19.706939 Si / 1000 Ang^3
#
#
#
# Elastic Constant Matrix: (Units=GPa)
#
#
# Indices 1 2 3 4 5 6 
#
# 1 113.2848 35.8496 5.9061 0.0000 0.0000 0.0000
# 2 35.8496 102.2841 21.0270 0.0000 0.0000 0.0000
# 3 5.9061 21.0270 54.0676 0.0000 0.0000 0.0000
# 4 0.0000 0.0000 0.0000 25.7622 0.0000 0.0000
# 5 0.0000 0.0000 0.0000 0.0000 38.3295 0.0000
# 6 0.0000 0.0000 0.0000 0.0000 0.0000 21.7736
#
#
#
# Elastic Compliance Matrix: (Units=1/GPa)
#
#
# Indices 1 2 3 4 5 6 
#
# 1 0.009933 -0.003541 0.000292 0.000000 0.000000 0.000000
# 2 -0.003541 0.011889 -0.004237 0.000000 0.000000 0.000000
# 3 0.000292 -0.004237 0.020111 0.000000 0.000000 0.000000
# 4 0.000000 0.000000 0.000000 0.038817 0.000000 0.000000
# 5 0.000000 0.000000 0.000000 0.000000 0.026090 0.000000
# 6 0.000000 0.000000 0.000000 0.000000 0.000000 0.045927
#
#
# Mechanical properties :
#
#
# Convention : Reuss Voigt Hill
#
# Bulk Modulus (GPa) = 37.09071 43.91132 40.50101
# Shear Modulus (GPa) = 28.29255 30.96332 29.62794
#
# Velocity S-wave (km/s) = 3.79313 3.96812 3.88161
# Velocity P-wave (km/s) = 6.16812 6.58219 6.37852
#
# Compressibility (1/GPa) = 0.02696093
#
# Stress axis : x y z
#
# Youngs Moduli (GPa) = 100.67682 84.11213 49.72375
#
# Poissons Ratio (x) = 0.29788 -0.01453
# Poissons Ratio (y) = 0.35654 0.21067
# Poissons Ratio (z) = -0.02942 0.35636
#
# Static dielectric constant tensor:
#      x y z
#    x 3.843780 0.000000 0.000000 
#    y 0.000000 3.415180 0.000000 
#    z 0.000000 0.000000 3.540040 
# 
# 
# High freq. dielectric constant tensor:
#      x y z
#    x 1.792780 0.000000 0.000000 
#    y 0.000000 1.734180 0.000000 
#    z 0.000000 0.000000 1.761690 
# 
# From -- ./inp_files/22590.got.cif
#   From: 2010.03.12/outbox.cif.g09.slc.cpg/sg62_12_cif.got.tgz:22590.got - 2010.04.10 19:12:36.
