data_PCOD8254952
_publ_section_title
;
Structure prediction by ZEFSAII (Michael W. Deem and Ramdas Pophale) SiO2 
 PCOD8254952
Probable space group: P N M A
;
_chemical_formula_sum "Si O2"
_cell_formula_units_Z 48
_cell_length_a 8.731356
_cell_length_b 19.669858
_cell_length_c 15.244523
_cell_angle_alpha 90.000000
_cell_angle_beta 90.000000
_cell_angle_gamma 90.000000
_cell_volume 2618.163478
_symmetry_space_group_name_H-M "P N M A"
_symmetry_group_IT_number 62
_symmetry_cell_setting 'orthorhombic'
loop_
_space_group_symop_operation_xyz
x,y,z
1/2-x,-y,1/2+z
1/2+x,1/2-y,1/2-z
-x,1/2+y,-z
-x,-y,-z
1/2+x,y,1/2-z
1/2-x,1/2+y,1/2+z
x,1/2-y,z
loop_
_atom_site_type_symbol
_atom_site_label
_atom_site_fract_x
_atom_site_fract_y
_atom_site_fract_z
Si Si1 0.121619 0.538691 0.286207
Si Si2 0.440938 0.329462 0.321162
Si Si3 0.878521 0.984705 0.426397
Si Si4 0.614007 0.583716 0.528999
Si Si5 0.929013 0.944405 0.125344
Si Si6 0.763674 0.909137 0.804472
O O1 0.265085 0.577263 0.332493
O O2 0.170636 0.460600 0.269722
O O3 0.969178 0.546662 0.344362
O O4 0.069834 0.569436 0.192729
O O5 0.426969 0.250000 0.305387
O O6 0.353951 0.349678 0.412015
O O7 0.376814 0.368245 0.236720
O O8 0.615272 0.352662 0.333616
O O9 0.759916 0.932183 0.468672
O O10 0.790483 0.051603 0.392255
O O11 0.000000 0.000000 0.500000
O O12 0.469224 0.596853 0.463325
O O13 0.573635 0.524015 0.598540
#
# Coordination Sequence:
#
# PCOD8254952 Si02
#       6
#     8   8   8   8   8   8
#     4  12  18  32  53  83 114 139 173 228 298 348
#     4  12  25  39  55  77 115 167 200 225 267 342
#     4  12  21  31  56  85 115 146 179 241 303 337
#     4  11  20  34  51  79 110 147 185 234 282 336
#     4  11  19  31  52  79 111 141 173 231 298 336
#     4  12  20  39  55  81 120 148 193 231 279 350
#
# _framework density 18.333462000000001
#
# number of rings (size 3 to 8) (size 9 to 14) (size 15 to 20)
#    0.000    0.333   10.000    1.500    0.000    0.000 
#    0.000    0.000    0.000    0.000    0.000    4.667 
#    0.000    0.000    0.000    0.000    0.000    0.000 
#
# Total GULP energy -594896.820557 kJ/mol
# GULP energy per Si atom -12393.683762 kJ/mol
# Density = 1.829173 g / cm^3
# Si number density = 18.333462 Si / 1000 Ang^3
#
#
#
# Elastic Constant Matrix: (Units=GPa)
#
#
# Indices 1 2 3 4 5 6 
#
# 1 99.9387 19.5439 41.3028 0.0000 0.0000 0.0000
# 2 19.5439 38.7449 10.3742 0.0000 0.0000 0.0000
# 3 41.3028 10.3742 91.0683 0.0000 0.0000 0.0000
# 4 0.0000 0.0000 0.0000 15.7250 0.0000 0.0000
# 5 0.0000 0.0000 0.0000 0.0000 53.2065 0.0000
# 6 0.0000 0.0000 0.0000 0.0000 0.0000 13.7561
#
#
#
# Elastic Compliance Matrix: (Units=1/GPa)
#
#
# Indices 1 2 3 4 5 6 
#
# 1 0.013272 -0.005243 -0.005422 0.000000 0.000000 0.000000
# 2 -0.005243 0.028693 -0.000891 0.000000 0.000000 0.000000
# 3 -0.005422 -0.000891 0.013541 0.000000 0.000000 0.000000
# 4 0.000000 0.000000 0.000000 0.063593 0.000000 0.000000
# 5 0.000000 0.000000 0.000000 0.000000 0.018795 0.000000
# 6 0.000000 0.000000 0.000000 0.000000 0.000000 0.072695
#
#
# Mechanical properties :
#
#
# Convention : Reuss Voigt Hill
#
# Bulk Modulus (GPa) = 30.86909 41.35485 36.11197
# Shear Modulus (GPa) = 20.44991 27.10625 23.77808
#
# Velocity S-wave (km/s) = 3.34345 3.84931 3.60526
# Velocity P-wave (km/s) = 5.63728 6.50863 6.08857
#
# Compressibility (1/GPa) = 0.03239487
#
# Stress axis : x y z
#
# Youngs Moduli (GPa) = 75.34444 34.85158 73.84751
#
# Poissons Ratio (x) = 0.18273 0.40042
# Poissons Ratio (y) = 0.39504 0.06577
# Poissons Ratio (z) = 0.40854 0.03104
#
# Static dielectric constant tensor:
#      x y z
#    x 4.180240 0.000000 0.000000 
#    y 0.000000 2.753350 0.000000 
#    z 0.000000 0.000000 3.929270 
# 
# 
# High freq. dielectric constant tensor:
#      x y z
#    x 1.735240 0.000000 0.000000 
#    y 0.000000 1.618100 0.000000 
#    z 0.000000 0.000000 1.738640 
# 
# From -- ./inp_files/16927.got.cif
#   From: 2010.03.12/outbox.cif.g09.slc.cpg/sg62_9_cif.got.tgz:16927.got - 2010.04.10 19:12:36.
