data_PCOD8254151
_publ_section_title
;
Structure prediction by ZEFSAII (Michael W. Deem and Ramdas Pophale) SiO2 
 PCOD8254151
Probable space group: P N M A
;
_chemical_formula_sum "Si O2"
_cell_formula_units_Z 48
_cell_length_a 9.545570
_cell_length_b 15.141001
_cell_length_c 16.938204
_cell_angle_alpha 90.000000
_cell_angle_beta 90.000000
_cell_angle_gamma 90.000000
_cell_volume 2448.069900
_symmetry_space_group_name_H-M "P N M A"
_symmetry_group_IT_number 62
_symmetry_cell_setting 'orthorhombic'
loop_
_space_group_symop_operation_xyz
x,y,z
1/2-x,-y,1/2+z
1/2+x,1/2-y,1/2-z
-x,1/2+y,-z
-x,-y,-z
1/2+x,y,1/2-z
1/2-x,1/2+y,1/2+z
x,1/2-y,z
loop_
_atom_site_type_symbol
_atom_site_label
_atom_site_fract_x
_atom_site_fract_y
_atom_site_fract_z
Si Si1 0.190858 0.494367 0.838993
Si Si2 0.090387 0.912927 0.983534
Si Si3 0.926473 0.351044 0.433528
Si Si4 0.015130 0.495993 0.682909
Si Si5 0.825740 0.653259 0.037349
Si Si6 0.855198 0.852265 0.430243
O O1 0.164537 0.577786 0.898032
O O2 0.081735 0.499369 0.768594
O O3 0.348291 0.493481 0.806722
O O4 0.158513 0.403713 0.884160
O O5 0.202848 0.893056 0.052156
O O6 0.971741 0.837226 0.988450
O O7 0.000000 0.000000 0.000000
O O8 0.902266 0.250000 0.405374
O O9 0.942511 0.413039 0.358560
O O10 0.793440 0.388833 0.481671
O O11 0.061783 0.358855 0.488128
O O12 0.067934 0.409223 0.636745
O O13 0.774819 0.750000 0.063682
O O14 0.844640 0.750000 0.402144
#
# Coordination Sequence:
#
# PCOD8254151 Si02
#       6
#     8   8   8   8   8   8
#     4  11  25  38  61  89 126 165 204 249 318 380
#     4  10  21  39  62  90 120 162 207 261 304 360
#     4  10  21  41  68  89 114 163 217 263 310 364
#     4  12  24  41  60  90 129 165 201 260 315 378
#     4  10  21  40  64  92 122 155 206 262 310 369
#     4  11  22  40  68  93 118 164 218 259 307 370
#
# _framework density 19.607284
#
# number of rings (size 3 to 8) (size 9 to 14) (size 15 to 20)
#    0.000    1.333    3.333    3.000    7.000    0.667 
#    0.000    2.500    0.000    0.000    0.000    0.000 
#    0.000    0.000    0.000    0.000    0.000    0.000 
#
# Total GULP energy -595080.207896 kJ/mol
# GULP energy per Si atom -12397.504331 kJ/mol
# Density = 1.956266 g / cm^3
# Si number density = 19.607284 Si / 1000 Ang^3
#
#
#
# Elastic Constant Matrix: (Units=GPa)
#
#
# Indices 1 2 3 4 5 6 
#
# 1 138.0713 14.5584 40.8919 0.0000 0.0000 0.0000
# 2 14.5584 78.5221 38.0531 0.0000 0.0000 0.0000
# 3 40.8919 38.0531 99.7747 0.0000 0.0000 0.0000
# 4 0.0000 0.0000 0.0000 18.0838 0.0000 0.0000
# 5 0.0000 0.0000 0.0000 0.0000 40.6374 0.0000
# 6 0.0000 0.0000 0.0000 0.0000 0.0000 25.6863
#
#
#
# Elastic Compliance Matrix: (Units=1/GPa)
#
#
# Indices 1 2 3 4 5 6 
#
# 1 0.008244 0.000134 -0.003430 0.000000 0.000000 0.000000
# 2 0.000134 0.015625 -0.006014 0.000000 0.000000 0.000000
# 3 -0.003430 -0.006014 0.013722 0.000000 0.000000 0.000000
# 4 0.000000 0.000000 0.000000 0.055298 0.000000 0.000000
# 5 0.000000 0.000000 0.000000 0.000000 0.024608 0.000000
# 6 0.000000 0.000000 0.000000 0.000000 0.000000 0.038931
#
#
# Mechanical properties :
#
#
# Convention : Reuss Voigt Hill
#
# Bulk Modulus (GPa) = 52.71243 55.93055 54.32149
# Shear Modulus (GPa) = 27.56756 31.73914 29.65335
#
# Velocity S-wave (km/s) = 3.75372 4.02772 3.89313
# Velocity P-wave (km/s) = 6.76237 7.08642 6.92629
#
# Compressibility (1/GPa) = 0.01897086
#
# Stress axis : x y z
#
# Youngs Moduli (GPa) = 121.29522 64.00015 72.87594
#
# Poissons Ratio (x) = -0.00855 0.24995
# Poissons Ratio (y) = -0.01621 0.43827
# Poissons Ratio (z) = 0.41602 0.38489
#
# Static dielectric constant tensor:
#      x y z
#    x 4.163190 0.000000 0.000000 
#    y 0.000000 3.888780 0.000000 
#    z 0.000000 0.000000 3.331050 
# 
# 
# High freq. dielectric constant tensor:
#      x y z
#    x 1.791420 0.000000 0.000000 
#    y 0.000000 1.767900 0.000000 
#    z 0.000000 0.000000 1.735580 
# 
# From -- ./inp_files/22209.got.cif
#   From: 2010.03.12/outbox.cif.g09.slc.cpg/sg62_12_cif.got.tgz:22209.got - 2010.04.10 19:12:36.
