data_PCOD8254269
_publ_section_title
;
Structure prediction by ZEFSAII (Michael W. Deem and Ramdas Pophale) SiO2 
 PCOD8254269
Probable space group: P N M A
;
_chemical_formula_sum "Si O2"
_cell_formula_units_Z 48
_cell_length_a 18.649327
_cell_length_b 8.442472
_cell_length_c 14.973166
_cell_angle_alpha 90.000000
_cell_angle_beta 90.000000
_cell_angle_gamma 90.000000
_cell_volume 2357.471398
_symmetry_space_group_name_H-M "P N M A"
_symmetry_group_IT_number 62
_symmetry_cell_setting 'orthorhombic'
loop_
_space_group_symop_operation_xyz
x,y,z
1/2-x,-y,1/2+z
1/2+x,1/2-y,1/2-z
-x,1/2+y,-z
-x,-y,-z
1/2+x,y,1/2-z
1/2-x,1/2+y,1/2+z
x,1/2-y,z
loop_
_atom_site_type_symbol
_atom_site_label
_atom_site_fract_x
_atom_site_fract_y
_atom_site_fract_z
Si Si1 0.982374 0.934156 0.403335
Si Si2 0.717591 0.561763 0.508346
Si Si3 0.436481 0.435656 0.559998
Si Si4 0.739204 0.062967 0.204100
Si Si5 0.917844 0.564177 0.748070
Si Si6 0.829460 0.435336 0.371745
O O1 0.001901 0.750000 0.398233
O O2 0.899185 0.958797 0.383762
O O3 0.000000 0.000000 0.500000
O O4 0.028215 0.029642 0.331708
O O5 0.727574 0.750000 0.496052
O O6 0.639552 0.502071 0.477348
O O7 0.729263 0.506242 0.609982
O O8 0.775994 0.467064 0.452560
O O9 0.500000 0.500000 0.500000
O O10 0.438395 0.250000 0.552854
O O11 0.447721 0.486225 0.661986
O O12 0.732435 0.250000 0.205635
O O13 0.660066 0.991986 0.222767
O O14 0.793106 0.004800 0.280450
O O15 0.913268 0.750000 0.764642
O O16 0.849574 0.250000 0.368637
#
# Coordination Sequence:
#
# PCOD8254269 Si02
#       6
#     8   8   8   8   8   8
#     4  12  26  44  65  96 130 169 215 264 320 383
#     4  10  21  40  64  91 125 167 213 265 318 377
#     4  11  24  40  62  92 129 173 221 271 325 384
#     4   9  20  38  63  91 121 161 208 256 315 376
#     4  11  22  42  68  94 130 173 213 264 324 384
#     4  11  22  40  65  95 126 165 211 261 319 381
#
# _framework density 20.360797000000002
#
# number of rings (size 3 to 8) (size 9 to 14) (size 15 to 20)
#    0.000    1.333    1.667    4.000    2.333    2.000 
#    0.000    2.500    0.000    0.000    0.000    0.000 
#    0.000    0.000    0.000    0.000    0.000    0.000 
#
# Total GULP energy -595451.073885 kJ/mol
# GULP energy per Si atom -12405.230706 kJ/mol
# Density = 2.031446 g / cm^3
# Si number density = 20.360797 Si / 1000 Ang^3
#
#
#
# Elastic Constant Matrix: (Units=GPa)
#
#
# Indices 1 2 3 4 5 6 
#
# 1 128.4640 10.2823 60.5101 0.0000 0.0000 0.0000
# 2 10.2823 32.7046 -1.0490 0.0000 0.0000 0.0000
# 3 60.5101 -1.0490 164.9760 0.0000 0.0000 0.0000
# 4 0.0000 0.0000 0.0000 31.2369 0.0000 0.0000
# 5 0.0000 0.0000 0.0000 0.0000 41.8127 0.0000
# 6 0.0000 0.0000 0.0000 0.0000 0.0000 30.9313
#
#
#
# Elastic Compliance Matrix: (Units=1/GPa)
#
#
# Indices 1 2 3 4 5 6 
#
# 1 0.009729 -0.003174 -0.003588 0.000000 0.000000 0.000000
# 2 -0.003174 0.031618 0.001365 0.000000 0.000000 0.000000
# 3 -0.003588 0.001365 0.007386 0.000000 0.000000 0.000000
# 4 0.000000 0.000000 0.000000 0.032013 0.000000 0.000000
# 5 0.000000 0.000000 0.000000 0.000000 0.023916 0.000000
# 6 0.000000 0.000000 0.000000 0.000000 0.000000 0.032330
#
#
# Mechanical properties :
#
#
# Convention : Reuss Voigt Hill
#
# Bulk Modulus (GPa) = 26.35800 51.73682 39.04741
# Shear Modulus (GPa) = 31.16562 37.88956 34.52759
#
# Velocity S-wave (km/s) = 3.91662 4.31850 4.12246
# Velocity P-wave (km/s) = 5.78159 7.09444 6.47140
#
# Compressibility (1/GPa) = 0.03793914
#
# Stress axis : x y z
#
# Youngs Moduli (GPa) = 102.79010 31.62716 135.38504
#
# Poissons Ratio (x) = 0.10038 0.48582
# Poissons Ratio (y) = 0.32623 -0.18482
# Poissons Ratio (z) = 0.36886 -0.04317
#
# Static dielectric constant tensor:
#      x y z
#    x 4.891380 0.000000 0.000000 
#    y 0.000000 3.543000 0.000000 
#    z 0.000000 0.000000 4.043420 
# 
# 
# High freq. dielectric constant tensor:
#      x y z
#    x 1.809140 0.000000 0.000000 
#    y 0.000000 1.784850 0.000000 
#    z 0.000000 0.000000 1.813820 
# 
# From -- ./inp_files/19617.got.cif
#   From: 2010.03.12/outbox.cif.g09.slc.cpg/sg62_10_cif.got.tgz:19617.got - 2010.04.10 19:12:36.
