data_PCOD8254968
_publ_section_title
;
Structure prediction by ZEFSAII (Michael W. Deem and Ramdas Pophale) SiO2 
 PCOD8254968
Probable space group: P N M A
;
_chemical_formula_sum "Si O2"
_cell_formula_units_Z 48
_cell_length_a 19.728614
_cell_length_b 8.963573
_cell_length_c 15.091549
_cell_angle_alpha 90.000000
_cell_angle_beta 90.000000
_cell_angle_gamma 90.000000
_cell_volume 2668.772499
_symmetry_space_group_name_H-M "P N M A"
_symmetry_group_IT_number 62
_symmetry_cell_setting 'orthorhombic'
loop_
_space_group_symop_operation_xyz
x,y,z
1/2-x,-y,1/2+z
1/2+x,1/2-y,1/2-z
-x,1/2+y,-z
-x,-y,-z
1/2+x,y,1/2-z
1/2-x,1/2+y,1/2+z
x,1/2-y,z
loop_
_atom_site_type_symbol
_atom_site_label
_atom_site_fract_x
_atom_site_fract_y
_atom_site_fract_z
Si Si1 0.465172 0.078616 0.581047
Si Si2 0.482479 0.425830 0.772698
Si Si3 0.665179 0.926311 0.196132
Si Si4 0.803943 0.426268 0.503674
Si Si5 0.807816 0.422493 0.889300
Si Si6 0.058637 0.426405 0.557395
O O1 0.483911 0.250000 0.571692
O O2 0.496105 0.012695 0.673346
O O3 0.384705 0.053870 0.580144
O O4 0.500000 0.000000 0.500000
O O5 0.472429 0.250000 0.764063
O O6 0.411288 0.492303 0.809652
O O7 0.543206 0.465119 0.839463
O O8 0.660369 0.750000 0.201867
O O9 0.701573 0.979147 0.287201
O O10 0.704805 0.975007 0.107051
O O11 0.814480 0.250000 0.495406
O O12 0.737485 0.475382 0.451943
O O13 0.868768 0.506242 0.462575
O O14 0.785780 0.250000 0.899078
O O15 0.058472 0.250000 0.540307
O O16 0.000000 0.500000 0.500000
#
# Coordination Sequence:
#
# PCOD8254968 Si02
#       6
#     8   8   8   8   8   8
#     4   9  18  35  59  80 103 137 179 221 262 314
#     4   8  15  31  54  76 100 137 177 209 251 320
#     4   8  15  32  56  74  96 138 181 211 253 318
#     4  11  21  35  55  80 109 140 179 225 269 318
#     4   9  19  37  57  76 103 142 183 218 261 318
#     4  11  20  33  55  82 111 141 177 218 266 319
#
# _framework density 17.985797000000002
#
# number of rings (size 3 to 8) (size 9 to 14) (size 15 to 20)
#    0.000    2.667    1.667    3.000    0.000    0.667 
#    3.000    3.333    0.000    0.000    0.000    0.000 
#    0.000    0.000    0.000    0.000    0.000    0.000 
#
# Total GULP energy -594841.638740 kJ/mol
# GULP energy per Si atom -12392.534140 kJ/mol
# Density = 1.794486 g / cm^3
# Si number density = 17.985797 Si / 1000 Ang^3
#
#
#
# Elastic Constant Matrix: (Units=GPa)
#
#
# Indices 1 2 3 4 5 6 
#
# 1 61.8371 34.0358 65.6938 0.0000 0.0000 0.0000
# 2 34.0358 60.1459 49.1508 0.0000 0.0000 0.0000
# 3 65.6938 49.1508 178.3415 0.0000 0.0000 0.0000
# 4 0.0000 0.0000 0.0000 28.0905 0.0000 0.0000
# 5 0.0000 0.0000 0.0000 0.0000 31.5659 0.0000
# 6 0.0000 0.0000 0.0000 0.0000 0.0000 31.4976
#
#
#
# Elastic Compliance Matrix: (Units=1/GPa)
#
#
# Indices 1 2 3 4 5 6 
#
# 1 0.031063 -0.010619 -0.008516 0.000000 0.000000 0.000000
# 2 -0.010619 0.025090 -0.003003 0.000000 0.000000 0.000000
# 3 -0.008516 -0.003003 0.009572 0.000000 0.000000 0.000000
# 4 0.000000 0.000000 0.000000 0.035599 0.000000 0.000000
# 5 0.000000 0.000000 0.000000 0.000000 0.031680 0.000000
# 6 0.000000 0.000000 0.000000 0.000000 0.000000 0.031748
#
#
# Mechanical properties :
#
#
# Convention : Reuss Voigt Hill
#
# Bulk Modulus (GPa) = 46.62324 66.45391 56.53857
# Shear Modulus (GPa) = 23.12910 28.32708 25.72809
#
# Velocity S-wave (km/s) = 3.58993 3.97289 3.78625
# Velocity P-wave (km/s) = 6.56978 7.62059 7.11461
#
# Compressibility (1/GPa) = 0.02144853
#
# Stress axis : x y z
#
# Youngs Moduli (GPa) = 32.19215 39.85725 104.47448
#
# Poissons Ratio (x) = 0.42326 0.88969
# Poissons Ratio (y) = 0.34186 0.31373
# Poissons Ratio (z) = 0.27414 0.11969
#
# Static dielectric constant tensor:
#      x y z
#    x 3.254710 0.000000 0.000000 
#    y 0.000000 3.078380 0.000000 
#    z 0.000000 0.000000 3.835430 
# 
# 
# High freq. dielectric constant tensor:
#      x y z
#    x 1.678660 0.000000 0.000000 
#    y 0.000000 1.668060 0.000000 
#    z 0.000000 0.000000 1.716730 
# 
# From -- ./inp_files/19599.got.cif
#   From: 2010.03.12/outbox.cif.g09.slc.cpg/sg62_10_cif.got.tgz:19599.got - 2010.04.10 19:12:36.
