data_PCOD8254057
_publ_section_title
;
Structure prediction by ZEFSAII (Michael W. Deem and Ramdas Pophale) SiO2 
 PCOD8254057
Probable space group: P N M A
;
_chemical_formula_sum "Si O2"
_cell_formula_units_Z 48
_cell_length_a 9.925595
_cell_length_b 14.710141
_cell_length_c 16.430826
_cell_angle_alpha 90.000000
_cell_angle_beta 90.000000
_cell_angle_gamma 90.000000
_cell_volume 2399.014001
_symmetry_space_group_name_H-M "P N M A"
_symmetry_group_IT_number 62
_symmetry_cell_setting 'orthorhombic'
loop_
_space_group_symop_operation_xyz
x,y,z
1/2-x,-y,1/2+z
1/2+x,1/2-y,1/2-z
-x,1/2+y,-z
-x,-y,-z
1/2+x,y,1/2-z
1/2-x,1/2+y,1/2+z
x,1/2-y,z
loop_
_atom_site_type_symbol
_atom_site_label
_atom_site_fract_x
_atom_site_fract_y
_atom_site_fract_z
Si Si1 0.736772 0.031720 0.389005
Si Si2 0.348567 0.044738 0.770577
Si Si3 0.920902 0.854584 0.185239
Si Si4 0.241815 0.351651 0.514198
Si Si5 0.040562 0.352520 0.002359
Si Si6 0.475368 0.557945 0.920133
O O1 0.632904 0.076652 0.450820
O O2 0.877056 0.089320 0.388065
O O3 0.671249 0.031595 0.299549
O O4 0.770957 0.927544 0.415249
O O5 0.452877 0.121063 0.741695
O O6 0.205589 0.088107 0.787349
O O7 0.400830 0.000069 0.852312
O O8 0.885883 0.750000 0.196892
O O9 0.957161 0.878022 0.092540
O O10 0.232703 0.250000 0.553346
O O11 0.385795 0.362300 0.468587
O O12 0.123582 0.360005 0.446441
O O13 0.093930 0.250000 0.017485
O O14 0.500000 0.500000 0.000000
#
# Coordination Sequence:
#
# PCOD8254057 Si02
#       6
#     8   8   8   8   8   8
#     4  11  22  39  64  92 130 166 210 265 321 385
#     4  12  23  39  61  93 125 171 212 262 324 378
#     4  11  23  39  60  92 130 161 207 265 325 387
#     4  10  21  38  64  91 121 163 213 259 313 382
#     4  10  22  40  65  96 125 167 214 263 323 384
#     4  10  23  41  58  90 125 169 216 254 319 383
#
# _framework density 20.008220000000001
#
# number of rings (size 3 to 8) (size 9 to 14) (size 15 to 20)
#    0.000    1.333    3.333    3.000    2.333    1.333 
#    0.000    3.333    0.000    0.000    0.000    0.000 
#    0.000    0.000    0.000    0.000    0.000    0.000 
#
# Total GULP energy -595132.932511 kJ/mol
# GULP energy per Si atom -12398.602761 kJ/mol
# Density = 1.996268 g / cm^3
# Si number density = 20.008220 Si / 1000 Ang^3
#
#
#
# Elastic Constant Matrix: (Units=GPa)
#
#
# Indices 1 2 3 4 5 6 
#
# 1 118.3893 31.1043 24.6702 0.0000 0.0000 0.0000
# 2 31.1043 70.0546 36.0904 0.0000 0.0000 0.0000
# 3 24.6702 36.0904 96.0737 0.0000 0.0000 0.0000
# 4 0.0000 0.0000 0.0000 11.6252 0.0000 0.0000
# 5 0.0000 0.0000 0.0000 0.0000 11.4719 0.0000
# 6 0.0000 0.0000 0.0000 0.0000 0.0000 19.9769
#
#
#
# Elastic Compliance Matrix: (Units=1/GPa)
#
#
# Indices 1 2 3 4 5 6 
#
# 1 0.009651 -0.003730 -0.001077 0.000000 0.000000 0.000000
# 2 -0.003730 0.019142 -0.006233 0.000000 0.000000 0.000000
# 3 -0.001077 -0.006233 0.013027 0.000000 0.000000 0.000000
# 4 0.000000 0.000000 0.000000 0.086020 0.000000 0.000000
# 5 0.000000 0.000000 0.000000 0.000000 0.087170 0.000000
# 6 0.000000 0.000000 0.000000 0.000000 0.000000 0.050058
#
#
# Mechanical properties :
#
#
# Convention : Reuss Voigt Hill
#
# Bulk Modulus (GPa) = 50.65998 52.02749 51.34373
# Shear Modulus (GPa) = 17.02261 21.45832 19.24047
#
# Velocity S-wave (km/s) = 2.91998 3.27842 3.10438
# Velocity P-wave (km/s) = 6.06159 6.35533 6.21020
#
# Compressibility (1/GPa) = 0.01973945
#
# Stress axis : x y z
#
# Youngs Moduli (GPa) = 103.61418 52.24163 76.76603
#
# Poissons Ratio (x) = 0.19488 0.08267
# Poissons Ratio (y) = 0.38651 0.47847
# Poissons Ratio (z) = 0.11159 0.32561
#
# Static dielectric constant tensor:
#      x y z
#    x 4.192310 0.000000 0.000000 
#    y 0.000000 3.489890 0.000000 
#    z 0.000000 0.000000 3.632920 
# 
# 
# High freq. dielectric constant tensor:
#      x y z
#    x 1.809450 0.000000 0.000000 
#    y 0.000000 1.756540 0.000000 
#    z 0.000000 0.000000 1.771320 
# 
# From -- ./inp_files/22226.got.cif
#   From: 2010.03.12/outbox.cif.g09.slc.cpg/sg62_12_cif.got.tgz:22226.got - 2010.04.10 19:12:36.
