data_PCOD8254646
_publ_section_title
;
Structure prediction by ZEFSAII (Michael W. Deem and Ramdas Pophale) SiO2 
 PCOD8254646
Probable space group: P N M A
;
_chemical_formula_sum "Si O2"
_cell_formula_units_Z 40
_cell_length_a 26.787756
_cell_length_b 11.694577
_cell_length_c 5.309586
_cell_angle_alpha 90.000000
_cell_angle_beta 90.000000
_cell_angle_gamma 90.000000
_cell_volume 1663.341839
_symmetry_space_group_name_H-M "P N M A"
_symmetry_group_IT_number 62
_symmetry_cell_setting 'orthorhombic'
loop_
_space_group_symop_operation_xyz
x,y,z
1/2-x,-y,1/2+z
1/2+x,1/2-y,1/2-z
-x,1/2+y,-z
-x,-y,-z
1/2+x,y,1/2-z
1/2-x,1/2+y,1/2+z
x,1/2-y,z
loop_
_atom_site_type_symbol
_atom_site_label
_atom_site_fract_x
_atom_site_fract_y
_atom_site_fract_z
Si Si1 0.976016 0.119673 0.689858
Si Si2 0.604818 0.250000 0.499136
Si Si3 0.719982 0.016989 0.067028
Si Si4 0.065516 0.016767 0.874193
Si Si5 0.129650 0.619550 0.577543
Si Si6 0.331384 0.750000 0.998343
O O1 0.994058 0.250000 0.688322
O O2 0.926398 0.107517 0.525902
O O3 0.027203 0.045133 0.636492
O O4 0.960948 0.083624 0.971738
O O5 0.572138 0.365298 0.469492
O O6 0.644383 0.250000 0.276098
O O7 0.628736 0.250000 0.777723
O O8 0.703624 0.140795 0.975172
O O9 0.745466 0.028848 0.339555
O O10 0.673218 0.929445 0.099697
O O11 0.121664 0.968499 0.809848
O O12 0.142301 0.750000 0.653140
#
# Coordination Sequence:
#
# PCOD8254646 Si02
#       6
#     8   4   8   8   8   4
#     4  10  22  41  66 101 143 188 242 290 359 432
#     4  12  24  44  76 104 143 193 238 296 356 431
#     4  12  29  49  76 107 140 186 242 304 367 433
#     4  11  22  41  66 104 142 189 237 295 352 434
#     4  11  25  44  69  99 141 186 238 297 364 431
#     4  12  26  50  76 102 143 187 242 298 366 427
#
# _framework density 24.047975000000001
#
# number of rings (size 3 to 8) (size 9 to 14) (size 15 to 20)
#    0.000    0.800    3.000    3.600    5.600    0.000 
#    0.000    0.000    0.000    0.000    0.000    0.000 
#    0.000    0.000    0.000    0.000    0.000    0.000 
#
# Total GULP energy -495545.242319 kJ/mol
# GULP energy per Si atom -12388.631058 kJ/mol
# Density = 2.399324 g / cm^3
# Si number density = 24.047975 Si / 1000 Ang^3
#
#
#
# Elastic Constant Matrix: (Units=GPa)
#
#
# Indices 1 2 3 4 5 6 
#
# 1 73.9862 38.7938 9.1731 0.0000 0.0000 0.0000
# 2 38.7938 128.6624 1.2750 0.0000 0.0000 0.0000
# 3 9.1731 1.2750 61.6508 0.0000 0.0000 0.0000
# 4 0.0000 0.0000 0.0000 14.6891 0.0000 0.0000
# 5 0.0000 0.0000 0.0000 0.0000 29.8388 0.0000
# 6 0.0000 0.0000 0.0000 0.0000 0.0000 35.9256
#
#
#
# Elastic Compliance Matrix: (Units=1/GPa)
#
#
# Indices 1 2 3 4 5 6 
#
# 1 0.016384 -0.004917 -0.002336 0.000000 0.000000 0.000000
# 2 -0.004917 0.009249 0.000540 0.000000 0.000000 0.000000
# 3 -0.002336 0.000540 0.016557 0.000000 0.000000 0.000000
# 4 0.000000 0.000000 0.000000 0.068078 0.000000 0.000000
# 5 0.000000 0.000000 0.000000 0.000000 0.033513 0.000000
# 6 0.000000 0.000000 0.000000 0.000000 0.000000 0.027835
#
#
# Mechanical properties :
#
#
# Convention : Reuss Voigt Hill
#
# Bulk Modulus (GPa) = 34.76473 40.30922 37.53697
# Shear Modulus (GPa) = 25.68981 30.42788 28.05884
#
# Velocity S-wave (km/s) = 3.27199 3.56096 3.41953
# Velocity P-wave (km/s) = 5.36305 5.80566 5.58874
#
# Compressibility (1/GPa) = 0.02876479
#
# Stress axis : x y z
#
# Youngs Moduli (GPa) = 61.03612 108.11489 60.39819
#
# Poissons Ratio (x) = 0.53158 0.14109
# Poissons Ratio (y) = 0.30010 -0.03263
# Poissons Ratio (z) = 0.14258 -0.05841
#
# Static dielectric constant tensor:
#      x y z
#    x 4.529840 0.000000 0.000000 
#    y 0.000000 4.623540 0.000000 
#    z 0.000000 0.000000 4.084250 
# 
# 
# High freq. dielectric constant tensor:
#      x y z
#    x 1.966750 0.000000 0.000000 
#    y 0.000000 1.981360 0.000000 
#    z 0.000000 0.000000 1.932860 
# 
# From -- ./inp_files/3059.got.cif
#   From: 2010.03.12/outbox.cif.g09.slc.cpg/sg62_2_cif.got.tgz:3059.got - 2010.04.10 19:12:36.
