data_PCOD8254134
_publ_section_title
;
Structure prediction by ZEFSAII (Michael W. Deem and Ramdas Pophale) SiO2 
 PCOD8254134
Probable space group: P N M A
;
_chemical_formula_sum "Si O2"
_cell_formula_units_Z 48
_cell_length_a 17.598939
_cell_length_b 8.920622
_cell_length_c 15.283088
_cell_angle_alpha 90.000000
_cell_angle_beta 90.000000
_cell_angle_gamma 90.000000
_cell_volume 2399.345207
_symmetry_space_group_name_H-M "P N M A"
_symmetry_group_IT_number 62
_symmetry_cell_setting 'orthorhombic'
loop_
_space_group_symop_operation_xyz
x,y,z
1/2-x,-y,1/2+z
1/2+x,1/2-y,1/2-z
-x,1/2+y,-z
-x,-y,-z
1/2+x,y,1/2-z
1/2-x,1/2+y,1/2+z
x,1/2-y,z
loop_
_atom_site_type_symbol
_atom_site_label
_atom_site_fract_x
_atom_site_fract_y
_atom_site_fract_z
Si Si1 0.963941 0.077298 0.741567
Si Si2 0.787922 0.077166 0.725852
Si Si3 0.704743 0.923751 0.572883
Si Si4 0.541816 0.926159 0.919202
Si Si5 0.043975 0.074540 0.921239
Si Si6 0.201251 0.423192 0.598200
O O1 0.981283 0.250000 0.717785
O O2 0.874877 0.046569 0.749447
O O3 0.000808 0.031399 0.832943
O O4 0.000213 0.971902 0.669227
O O5 0.774482 0.250000 0.700290
O O6 0.737748 0.032370 0.809373
O O7 0.766344 0.973491 0.644415
O O8 0.685362 0.750000 0.585807
O O9 0.737196 0.954947 0.476709
O O10 0.629511 0.018977 0.586105
O O11 0.537362 0.750000 0.931111
O O12 0.629116 0.973809 0.917992
O O13 0.500000 0.000000 0.000000
O O14 0.044108 0.250000 0.937550
O O15 0.000000 0.000000 0.000000
O O16 0.175688 0.250000 0.597105
#
# Coordination Sequence:
#
# PCOD8254134 Si02
#       6
#     8   8   8   8   8   8
#     4  10  22  41  63  88 120 158 199 243 295 354
#     4  10  21  39  62  86 115 154 197 241 293 352
#     4  11  23  39  60  88 120 154 196 245 297 353
#     4  12  25  40  61  89 120 156 199 247 299 354
#     4  11  23  40  63  90 122 160 200 244 295 351
#     4  10  22  41  62  85 118 158 198 242 294 352
#
# _framework density 20.005458000000001
#
# number of rings (size 3 to 8) (size 9 to 14) (size 15 to 20)
#    0.000    1.333    0.000    5.500    0.000   13.333 
#    0.000    1.667    0.000    0.000    0.000    0.000 
#    0.000    0.000    0.000    0.000    0.000    0.000 
#
# Total GULP energy -595546.336822 kJ/mol
# GULP energy per Si atom -12407.215350 kJ/mol
# Density = 1.995992 g / cm^3
# Si number density = 20.005458 Si / 1000 Ang^3
#
#
#
# Elastic Constant Matrix: (Units=GPa)
#
#
# Indices 1 2 3 4 5 6 
#
# 1 103.9495 44.8866 31.8329 0.0000 0.0000 0.0000
# 2 44.8866 103.5323 64.7125 0.0000 0.0000 0.0000
# 3 31.8329 64.7125 108.4863 0.0000 0.0000 0.0000
# 4 0.0000 0.0000 0.0000 34.7876 0.0000 0.0000
# 5 0.0000 0.0000 0.0000 0.0000 39.7045 0.0000
# 6 0.0000 0.0000 0.0000 0.0000 0.0000 36.7349
#
#
#
# Elastic Compliance Matrix: (Units=1/GPa)
#
#
# Indices 1 2 3 4 5 6 
#
# 1 0.011865 -0.004733 -0.000659 0.000000 0.000000 0.000000
# 2 -0.004733 0.017289 -0.008924 0.000000 0.000000 0.000000
# 3 -0.000659 -0.008924 0.014734 0.000000 0.000000 0.000000
# 4 0.000000 0.000000 0.000000 0.028746 0.000000 0.000000
# 5 0.000000 0.000000 0.000000 0.000000 0.025186 0.000000
# 6 0.000000 0.000000 0.000000 0.000000 0.000000 0.027222
#
#
# Mechanical properties :
#
#
# Convention : Reuss Voigt Hill
#
# Bulk Modulus (GPa) = 65.54073 66.53690 66.03882
# Shear Modulus (GPa) = 31.49441 33.88116 32.68778
#
# Velocity S-wave (km/s) = 3.97204 4.11980 4.04659
# Velocity P-wave (km/s) = 7.33953 7.48077 7.41048
#
# Compressibility (1/GPa) = 0.01525769
#
# Stress axis : x y z
#
# Youngs Moduli (GPa) = 84.27924 57.84174 67.86921
#
# Poissons Ratio (x) = 0.27374 0.04470
# Poissons Ratio (y) = 0.39886 0.60567
# Poissons Ratio (z) = 0.05551 0.51618
#
# Static dielectric constant tensor:
#      x y z
#    x 3.797810 0.000000 0.000000 
#    y 0.000000 3.674100 0.000000 
#    z 0.000000 0.000000 3.788620 
# 
# 
# High freq. dielectric constant tensor:
#      x y z
#    x 1.798420 0.000000 0.000000 
#    y 0.000000 1.780760 0.000000 
#    z 0.000000 0.000000 1.798850 
# 
# From -- ./inp_files/19627.got.cif
#   From: 2010.03.12/outbox.cif.g09.slc.cpg/sg62_10_cif.got.tgz:19627.got - 2010.04.10 19:12:36.
