data_PCOD8254142
_publ_section_title
;
Structure prediction by ZEFSAII (Michael W. Deem and Ramdas Pophale) SiO2 
 PCOD8254142
Probable space group: P N M A
;
_chemical_formula_sum "Si O2"
_cell_formula_units_Z 32
_cell_length_a 16.152889
_cell_length_b 18.637759
_cell_length_c 4.919048
_cell_angle_alpha 90.000000
_cell_angle_beta 90.000000
_cell_angle_gamma 90.000000
_cell_volume 1480.897366
_symmetry_space_group_name_H-M "P N M A"
_symmetry_group_IT_number 62
_symmetry_cell_setting 'orthorhombic'
loop_
_space_group_symop_operation_xyz
x,y,z
1/2-x,-y,1/2+z
1/2+x,1/2-y,1/2-z
-x,1/2+y,-z
-x,-y,-z
1/2+x,y,1/2-z
1/2-x,1/2+y,1/2+z
x,1/2-y,z
loop_
_atom_site_type_symbol
_atom_site_label
_atom_site_fract_x
_atom_site_fract_y
_atom_site_fract_z
Si Si1 0.220595 0.961357 0.569294
Si Si2 0.679330 0.329834 0.594651
Si Si3 0.535820 0.958103 0.755481
Si Si4 0.931396 0.670793 0.586125
O O1 0.245190 0.885660 0.430450
O O2 0.134652 0.957225 0.731459
O O3 0.215543 0.015889 0.310923
O O4 0.710212 0.250000 0.688136
O O5 0.642223 0.323860 0.298061
O O6 0.609978 0.359501 0.807124
O O7 0.504459 0.876651 0.786426
O O8 0.500000 0.000000 0.500000
O O9 0.500000 0.000000 0.000000
O O10 0.968973 0.750000 0.529329
#
# Coordination Sequence:
#
# PCOD8254142 Si02
#       4
#     8   8   8   8
#     4  12  24  39  61  89 122 160 205 255 307 367
#     4  10  21  39  62  87 119 157 197 246 306 368
#     4  12  24  39  61  89 122 160 206 257 308 368
#     4  10  21  39  62  87 119 157 197 246 306 367
#
# _framework density 21.608519000000001
#
# number of rings (size 3 to 8) (size 9 to 14) (size 15 to 20)
#    0.000    1.000    0.000    9.000    0.000    1.000 
#    0.000    0.000    0.000   15.000    0.000    0.000 
#    0.000    0.000    0.000    0.000    0.000    0.000 
#
# Total GULP energy -396636.888834 kJ/mol
# GULP energy per Si atom -12394.902776 kJ/mol
# Density = 2.155934 g / cm^3
# Si number density = 21.608519 Si / 1000 Ang^3
#
#
#
# Elastic Constant Matrix: (Units=GPa)
#
#
# Indices 1 2 3 4 5 6 
#
# 1 103.8920 64.7392 36.2804 0.0000 0.0000 0.0000
# 2 64.7392 132.5011 46.4450 0.0000 0.0000 0.0000
# 3 36.2804 46.4450 136.7313 0.0000 0.0000 0.0000
# 4 0.0000 0.0000 0.0000 36.0037 0.0000 0.0000
# 5 0.0000 0.0000 0.0000 0.0000 33.1080 0.0000
# 6 0.0000 0.0000 0.0000 0.0000 0.0000 35.5060
#
#
#
# Elastic Compliance Matrix: (Units=1/GPa)
#
#
# Indices 1 2 3 4 5 6 
#
# 1 0.014139 -0.006349 -0.001595 0.000000 0.000000 0.000000
# 2 -0.006349 0.011418 -0.002194 0.000000 0.000000 0.000000
# 3 -0.001595 -0.002194 0.008482 0.000000 0.000000 0.000000
# 4 0.000000 0.000000 0.000000 0.027775 0.000000 0.000000
# 5 0.000000 0.000000 0.000000 0.000000 0.030204 0.000000
# 6 0.000000 0.000000 0.000000 0.000000 0.000000 0.028164
#
#
# Mechanical properties :
#
#
# Convention : Reuss Voigt Hill
#
# Bulk Modulus (GPa) = 72.65722 74.22817 73.44269
# Shear Modulus (GPa) = 34.47190 35.96753 35.21972
#
# Velocity S-wave (km/s) = 3.99844 4.08426 4.04158
# Velocity P-wave (km/s) = 7.41715 7.52778 7.47267
#
# Compressibility (1/GPa) = 0.01376326
#
# Stress axis : x y z
#
# Youngs Moduli (GPa) = 70.72807 87.57950 117.89622
#
# Poissons Ratio (x) = 0.55604 0.18804
# Poissons Ratio (y) = 0.44905 0.25865
# Poissons Ratio (z) = 0.11281 0.19214
#
# Static dielectric constant tensor:
#      x y z
#    x 2.973520 0.000000 0.000000 
#    y 0.000000 4.318780 0.000000 
#    z 0.000000 0.000000 4.021530 
# 
# 
# High freq. dielectric constant tensor:
#      x y z
#    x 1.811610 0.000000 0.000000 
#    y 0.000000 1.864550 0.000000 
#    z 0.000000 0.000000 1.874070 
# 
# From -- ./inp_files/872.got.cif
#   From: 2010.03.12/outbox.cif.g09.slc.cpg/sg62_1_cif.got.tgz:872.got - 2010.04.10 19:12:36.
