data_PCOD8254599
_publ_section_title
;
Structure prediction by ZEFSAII (Michael W. Deem and Ramdas Pophale) SiO2 
 PCOD8254599
Probable space group: P N M A
;
_chemical_formula_sum "Si O2"
_cell_formula_units_Z 40
_cell_length_a 9.318350
_cell_length_b 15.650046
_cell_length_c 13.311203
_cell_angle_alpha 90.000000
_cell_angle_beta 90.000000
_cell_angle_gamma 90.000000
_cell_volume 1941.207424
_symmetry_space_group_name_H-M "P N M A"
_symmetry_group_IT_number 62
_symmetry_cell_setting 'orthorhombic'
loop_
_space_group_symop_operation_xyz
x,y,z
1/2-x,-y,1/2+z
1/2+x,1/2-y,1/2-z
-x,1/2+y,-z
-x,-y,-z
1/2+x,y,1/2-z
1/2-x,1/2+y,1/2+z
x,1/2-y,z
loop_
_atom_site_type_symbol
_atom_site_label
_atom_site_fract_x
_atom_site_fract_y
_atom_site_fract_z
Si Si1 0.901132 0.092499 0.422946
Si Si2 0.713722 0.150121 0.707234
Si Si3 0.506757 0.412492 0.864172
Si Si4 0.591451 0.085223 0.507021
Si Si5 0.174493 0.750000 0.704445
Si Si6 0.483832 0.750000 0.614544
O O1 0.987418 0.122601 0.522496
O O2 0.742401 0.064477 0.455188
O O3 0.899748 0.168560 0.344966
O O4 0.979403 0.014750 0.367358
O O5 0.727399 0.250000 0.685570
O O6 0.871185 0.109389 0.705393
O O7 0.646713 0.131660 0.816422
O O8 0.612582 0.107792 0.623478
O O9 0.515060 0.165434 0.453669
O O10 0.500000 0.000000 0.500000
O O11 0.345608 0.750000 0.688862
O O12 0.131004 0.750000 0.821466
#
# Coordination Sequence:
#
# PCOD8254599 Si02
#       6
#     8   8   8   8   4   4
#     4   9  22  43  63  91 129 173 202 256 321 374
#     4  11  23  40  65  92 125 170 207 260 321 371
#     4  10  23  40  63  93 127 163 216 251 315 380
#     4  10  22  41  67  89 130 166 209 264 312 372
#     4  10  22  40  69  86 128 169 204 259 312 376
#     4  10  22  44  61  96 124 163 216 255 318 374
#
# _framework density 20.605732
#
# number of rings (size 3 to 8) (size 9 to 14) (size 15 to 20)
#    0.000    2.000    1.000    0.600   11.200    1.600 
#    7.200    0.000    2.200    0.000    0.000    0.000 
#    0.000    0.000    0.000    0.000    0.000    0.000 
#
# Total GULP energy -496120.602206 kJ/mol
# GULP energy per Si atom -12403.015055 kJ/mol
# Density = 2.055883 g / cm^3
# Si number density = 20.605732 Si / 1000 Ang^3
#
#
#
# Elastic Constant Matrix: (Units=GPa)
#
#
# Indices 1 2 3 4 5 6 
#
# 1 67.1730 50.2382 32.0338 0.0000 0.0000 0.0000
# 2 50.2382 130.2611 35.3713 0.0000 0.0000 0.0000
# 3 32.0338 35.3713 56.8617 0.0000 0.0000 0.0000
# 4 0.0000 0.0000 0.0000 30.1386 0.0000 0.0000
# 5 0.0000 0.0000 0.0000 0.0000 40.3946 0.0000
# 6 0.0000 0.0000 0.0000 0.0000 0.0000 36.5948
#
#
#
# Elastic Compliance Matrix: (Units=1/GPa)
#
#
# Indices 1 2 3 4 5 6 
#
# 1 0.024607 -0.006890 -0.009577 0.000000 0.000000 0.000000
# 2 -0.006890 0.011166 -0.003065 0.000000 0.000000 0.000000
# 3 -0.009577 -0.003065 0.024888 0.000000 0.000000 0.000000
# 4 0.000000 0.000000 0.000000 0.033180 0.000000 0.000000
# 5 0.000000 0.000000 0.000000 0.000000 0.024756 0.000000
# 6 0.000000 0.000000 0.000000 0.000000 0.000000 0.027326
#
#
# Mechanical properties :
#
#
# Convention : Reuss Voigt Hill
#
# Bulk Modulus (GPa) = 46.29862 54.39803 50.34833
# Shear Modulus (GPa) = 26.01663 30.53577 28.27620
#
# Velocity S-wave (km/s) = 3.55715 3.85373 3.70841
# Velocity P-wave (km/s) = 6.27604 6.80135 6.54397
#
# Compressibility (1/GPa) = 0.02159892
#
# Stress axis : x y z
#
# Youngs Moduli (GPa) = 40.63944 89.55581 40.17979
#
# Poissons Ratio (x) = 0.61701 0.38479
# Poissons Ratio (y) = 0.27999 0.12314
# Poissons Ratio (z) = 0.38919 0.27446
#
# Static dielectric constant tensor:
#      x y z
#    x 3.657540 0.000000 0.000000 
#    y 0.000000 3.712810 0.000000 
#    z 0.000000 0.000000 3.726370 
# 
# 
# High freq. dielectric constant tensor:
#      x y z
#    x 1.799990 0.000000 0.000000 
#    y 0.000000 1.814390 0.000000 
#    z 0.000000 0.000000 1.806290 
# 
# From -- ./inp_files/11117.got.cif
#   From: 2010.03.12/outbox.cif.g09.slc.cpg/sg62_6_cif.got.tgz:11117.got - 2010.04.10 19:12:36.
