data_PCOD8254212
_publ_section_title
;
Structure prediction by ZEFSAII (Michael W. Deem and Ramdas Pophale) SiO2 
 PCOD8254212
Probable space group: P N M A
;
_chemical_formula_sum "Si O2"
_cell_formula_units_Z 56
_cell_length_a 8.375071
_cell_length_b 14.755352
_cell_length_c 21.727040
_cell_angle_alpha 90.000000
_cell_angle_beta 90.000000
_cell_angle_gamma 90.000000
_cell_volume 2684.965043
_symmetry_space_group_name_H-M "P N M A"
_symmetry_group_IT_number 62
_symmetry_cell_setting 'orthorhombic'
loop_
_space_group_symop_operation_xyz
x,y,z
1/2-x,-y,1/2+z
1/2+x,1/2-y,1/2-z
-x,1/2+y,-z
-x,-y,-z
1/2+x,y,1/2-z
1/2-x,1/2+y,1/2+z
x,1/2-y,z
loop_
_atom_site_type_symbol
_atom_site_label
_atom_site_fract_x
_atom_site_fract_y
_atom_site_fract_z
Si Si1 0.403269 0.387830 0.809010
Si Si2 0.213341 0.148927 0.930894
Si Si3 0.520771 0.505084 0.384993
Si Si4 0.749434 0.853313 0.932932
Si Si5 0.048231 0.649380 0.681321
Si Si6 0.270418 0.348572 0.686090
Si Si7 0.230751 0.570043 0.792600
O O1 0.337976 0.360264 0.875545
O O2 0.334332 0.325828 0.754712
O O3 0.591890 0.384475 0.810934
O O4 0.351365 0.486875 0.788282
O O5 0.135551 0.250000 0.926812
O O6 0.080940 0.070075 0.929650
O O7 0.306113 0.138752 0.995966
O O8 0.615960 0.429498 0.422640
O O9 0.628323 0.574203 0.346658
O O10 0.408040 0.445706 0.341342
O O11 0.813485 0.750000 0.920287
O O12 0.598859 0.874893 0.888834
O O13 0.103394 0.750000 0.698354
O O14 0.150147 0.586058 0.726780
O O15 0.855494 0.647823 0.687003
O O16 0.277736 0.250000 0.651976
#
# Coordination Sequence:
#
# PCOD8254212 Si02
#       7
#     8   8   8   8   8   8   8
#     4  11  22  37  59  86 120 153 191 239 291 352
#     4  10  21  40  61  85 118 158 197 238 289 350
#     4  11  23  39  61  88 119 152 194 245 295 348
#     4  10  22  40  62  84 115 157 200 241 288 346
#     4  11  22  38  59  86 118 154 197 247 295 345
#     4  12  23  37  60  90 120 153 191 240 298 355
#     4  11  22  37  59  87 117 153 192 242 301 352
#
# _framework density 20.856881999999999
#
# number of rings (size 3 to 8) (size 9 to 14) (size 15 to 20)
#    0.000    1.143    0.000    8.571    0.000    2.286 
#    0.000    7.857    0.000    3.429    0.000    0.000 
#    0.000    0.000    0.000    0.000    0.000    0.000 
#
# Total GULP energy -693955.417580 kJ/mol
# GULP energy per Si atom -12392.061028 kJ/mol
# Density = 2.080941 g / cm^3
# Si number density = 20.856882 Si / 1000 Ang^3
#
#
#
# Elastic Constant Matrix: (Units=GPa)
#
#
# Indices 1 2 3 4 5 6 
#
# 1 112.3923 29.1032 43.9131 0.0000 0.0000 0.0000
# 2 29.1032 87.6639 53.8108 0.0000 0.0000 0.0000
# 3 43.9131 53.8108 116.7264 0.0000 0.0000 0.0000
# 4 0.0000 0.0000 0.0000 27.8428 0.0000 0.0000
# 5 0.0000 0.0000 0.0000 0.0000 24.8243 0.0000
# 6 0.0000 0.0000 0.0000 0.0000 0.0000 12.3545
#
#
#
# Elastic Compliance Matrix: (Units=1/GPa)
#
#
# Indices 1 2 3 4 5 6 
#
# 1 0.010568 -0.001490 -0.003289 0.000000 0.000000 0.000000
# 2 -0.001490 0.016119 -0.006870 0.000000 0.000000 0.000000
# 3 -0.003289 -0.006870 0.012972 0.000000 0.000000 0.000000
# 4 0.000000 0.000000 0.000000 0.035916 0.000000 0.000000
# 5 0.000000 0.000000 0.000000 0.000000 0.040283 0.000000
# 6 0.000000 0.000000 0.000000 0.000000 0.000000 0.080942
#
#
# Mechanical properties :
#
#
# Convention : Reuss Voigt Hill
#
# Bulk Modulus (GPa) = 61.12230 63.38186 62.25208
# Shear Modulus (GPa) = 22.16785 25.66803 23.91794
#
# Velocity S-wave (km/s) = 3.26368 3.51190 3.39007
# Velocity P-wave (km/s) = 6.60086 6.84832 6.72573
#
# Compressibility (1/GPa) = 0.01636064
#
# Stress axis : x y z
#
# Youngs Moduli (GPa) = 94.62330 62.03846 77.09070
#
# Poissons Ratio (x) = 0.09241 0.25356
# Poissons Ratio (y) = 0.14094 0.52965
# Poissons Ratio (z) = 0.31123 0.42623
#
# Static dielectric constant tensor:
#      x y z
#    x 3.708650 0.000000 0.000000 
#    y 0.000000 4.139530 0.000000 
#    z 0.000000 0.000000 3.726830 
# 
# 
# High freq. dielectric constant tensor:
#      x y z
#    x 1.806530 0.000000 0.000000 
#    y 0.000000 1.843910 0.000000 
#    z 0.000000 0.000000 1.809610 
# 
# From -- ./inp_files/25964.got.cif
#   From: 2010.03.12/outbox.cif.g09.slc.cpg/sg62_13_cif.got.tgz:25964.got - 2010.04.10 19:12:36.
