data_PCOD8254625
_publ_section_title
;
Structure prediction by ZEFSAII (Michael W. Deem and Ramdas Pophale) SiO2 
 PCOD8254625
Probable space group: P N M A
;
_chemical_formula_sum "Si O2"
_cell_formula_units_Z 40
_cell_length_a 7.331192
_cell_length_b 21.990091
_cell_length_c 8.738375
_cell_angle_alpha 90.000000
_cell_angle_beta 90.000000
_cell_angle_gamma 90.000000
_cell_volume 1408.744710
_symmetry_space_group_name_H-M "P N M A"
_symmetry_group_IT_number 62
_symmetry_cell_setting 'orthorhombic'
loop_
_space_group_symop_operation_xyz
x,y,z
1/2-x,-y,1/2+z
1/2+x,1/2-y,1/2-z
-x,1/2+y,-z
-x,-y,-z
1/2+x,y,1/2-z
1/2-x,1/2+y,1/2+z
x,1/2-y,z
loop_
_atom_site_type_symbol
_atom_site_label
_atom_site_fract_x
_atom_site_fract_y
_atom_site_fract_z
Si Si1 0.736709 0.510949 0.998439
Si Si2 0.336989 0.682477 0.074453
Si Si3 0.533629 0.550930 0.722441
Si Si4 0.501871 0.683202 0.631965
Si Si5 0.777580 0.139999 0.606602
O O1 0.550241 0.518816 0.892986
O O2 0.885894 0.509670 0.861892
O O3 0.776614 0.454331 0.115938
O O4 0.782593 0.570587 0.095601
O O5 0.402354 0.750000 0.116316
O O6 0.221715 0.656859 0.216268
O O7 0.517859 0.644100 0.041191
O O8 0.208383 0.681811 0.927412
O O9 0.482187 0.622947 0.738454
O O10 0.474123 0.750000 0.715343
O O11 0.357025 0.681466 0.494068
#
# Coordination Sequence:
#
# PCOD8254625 Si02
#       5
#     8   8   8   8   8
#     4  10  25  43  69  95 133 167 224 274 334 393
#     4  11  21  35  61  95 131 175 220 265 321 384
#     4  10  24  46  65 100 127 175 218 274 331 396
#     4  10  22  41  63  91 133 174 218 268 322 393
#     4  11  22  37  63  95 134 173 218 273 324 389
#
# _framework density 28.394075000000001
#
# number of rings (size 3 to 8) (size 9 to 14) (size 15 to 20)
#    0.000    1.600    2.000    1.800    5.600    2.400 
#    0.000    6.000    0.000    0.000    0.000    0.000 
#    0.000    0.000    0.000    0.000    0.000    0.000 
#
# Total GULP energy -495783.617975 kJ/mol
# GULP energy per Si atom -12394.590449 kJ/mol
# Density = 2.832945 g / cm^3
# Si number density = 28.394075 Si / 1000 Ang^3
#
#
#
# Elastic Constant Matrix: (Units=GPa)
#
#
# Indices 1 2 3 4 5 6 
#
# 1 54.9159 -22.8275 -14.2805 0.0000 0.0000 0.0000
# 2 -22.8275 145.4878 48.1168 0.0000 0.0000 0.0000
# 3 -14.2805 48.1168 109.4895 0.0000 0.0000 0.0000
# 4 0.0000 0.0000 0.0000 29.4042 0.0000 0.0000
# 5 0.0000 0.0000 0.0000 0.0000 33.4554 0.0000
# 6 0.0000 0.0000 0.0000 0.0000 0.0000 27.5871
#
#
#
# Elastic Compliance Matrix: (Units=1/GPa)
#
#
# Indices 1 2 3 4 5 6 
#
# 1 0.019666 0.002618 0.001415 0.000000 0.000000 0.000000
# 2 0.002618 0.008391 -0.003346 0.000000 0.000000 0.000000
# 3 0.001415 -0.003346 0.010788 0.000000 0.000000 0.000000
# 4 0.000000 0.000000 0.000000 0.034009 0.000000 0.000000
# 5 0.000000 0.000000 0.000000 0.000000 0.029891 0.000000
# 6 0.000000 0.000000 0.000000 0.000000 0.000000 0.036249
#
#
# Mechanical properties :
#
#
# Convention : Reuss Voigt Hill
#
# Bulk Modulus (GPa) = 24.86495 36.87899 30.87197
# Shear Modulus (GPa) = 33.10689 38.01497 35.56093
#
# Velocity S-wave (km/s) = 3.41835 3.66298 3.54278
# Velocity P-wave (km/s) = 4.93520 5.55935 5.25655
#
# Compressibility (1/GPa) = 0.04021726
#
# Stress axis : x y z
#
# Youngs Moduli (GPa) = 50.85009 119.17831 92.69336
#
# Poissons Ratio (x) = -0.31198 -0.13112
# Poissons Ratio (y) = -0.13311 0.31015
# Poissons Ratio (z) = -0.07193 0.39877
#
# Static dielectric constant tensor:
#      x y z
#    x 5.686690 0.000000 0.000000 
#    y 0.000000 5.167460 0.000000 
#    z 0.000000 0.000000 5.193920 
# 
# 
# High freq. dielectric constant tensor:
#      x y z
#    x 2.180760 0.000000 0.000000 
#    y 0.000000 2.143000 0.000000 
#    z 0.000000 0.000000 2.152340 
# 
# From -- ./inp_files/4297.got.cif
#   From: 2010.03.12/outbox.cif.g09.slc.cpg/sg62_3_cif.got.tgz:4297.got - 2010.04.10 19:12:36.
