data_PCOD8254258
_publ_section_title
;
Structure prediction by ZEFSAII (Michael W. Deem and Ramdas Pophale) SiO2 
 PCOD8254258
Probable space group: P N M A
;
_chemical_formula_sum "Si O2"
_cell_formula_units_Z 64
_cell_length_a 24.208152
_cell_length_b 8.550830
_cell_length_c 15.377417
_cell_angle_alpha 90.000000
_cell_angle_beta 90.000000
_cell_angle_gamma 90.000000
_cell_volume 3183.122126
_symmetry_space_group_name_H-M "P N M A"
_symmetry_group_IT_number 62
_symmetry_cell_setting 'orthorhombic'
loop_
_space_group_symop_operation_xyz
x,y,z
1/2-x,-y,1/2+z
1/2+x,1/2-y,1/2-z
-x,1/2+y,-z
-x,-y,-z
1/2+x,y,1/2-z
1/2-x,1/2+y,1/2+z
x,1/2-y,z
loop_
_atom_site_type_symbol
_atom_site_label
_atom_site_fract_x
_atom_site_fract_y
_atom_site_fract_z
Si Si1 0.929458 0.064483 0.249627
Si Si2 0.377671 0.068849 0.665924
Si Si3 0.694928 0.933787 0.744586
Si Si4 0.872950 0.569059 0.652391
Si Si5 0.506943 0.064821 0.095861
Si Si6 0.235637 0.929059 0.408250
Si Si7 0.772604 0.567126 0.899814
Si Si8 0.010218 0.064078 0.095394
O O1 0.928285 0.250000 0.255221
O O2 0.867263 0.994233 0.247254
O O3 0.961384 0.999530 0.335590
O O4 0.960962 0.014914 0.161006
O O5 0.378334 0.250000 0.692967
O O6 0.363372 0.957482 0.746242
O O7 0.328732 0.033187 0.598630
O O8 0.435316 0.022112 0.625786
O O9 0.689257 0.750000 0.753221
O O10 0.730844 0.997495 0.825588
O O11 0.724799 0.971517 0.654116
O O12 0.864686 0.750000 0.629602
O O13 0.828591 0.468516 0.600708
O O14 0.933543 0.507545 0.628527
O O15 0.503774 0.250000 0.093081
O O16 0.500000 0.000000 0.000000
O O17 0.246541 0.750000 0.384591
O O18 0.246630 0.967959 0.507599
O O19 0.785339 0.750000 0.885996
O O20 0.018783 0.250000 0.094707
O O21 0.000000 0.000000 0.000000
#
# Coordination Sequence:
#
# PCOD8254258 Si02
#       8
#     8   8   8   8   8   8   8   8
#     4   9  20  40  63  86 120 163 204 245 300 367
#     4  12  24  40  65  93 121 160 213 264 310 366
#     4  10  21  40  64  86 118 167 206 246 305 367
#     4  11  22  41  65  89 123 165 205 255 314 367
#     4  10  22  40  63  91 122 160 202 249 303 361
#     4  11  24  40  61  94 125 158 204 256 305 366
#     4  10  23  41  62  89 125 165 202 250 316 371
#     4  11  23  42  64  92 128 164 207 256 310 373
#
# _framework density 20.106045999999999
#
# number of rings (size 3 to 8) (size 9 to 14) (size 15 to 20)
#    0.000    1.500    2.500    2.250    3.500    2.000 
#    0.000    1.250    0.000    0.000    0.000    0.000 
#    0.000    0.000    0.000    0.000    0.000    0.000 
#
# Total GULP energy -793682.175457 kJ/mol
# GULP energy per Si atom -12401.283992 kJ/mol
# Density = 2.006028 g / cm^3
# Si number density = 20.106046 Si / 1000 Ang^3
#
#
#
# Elastic Constant Matrix: (Units=GPa)
#
#
# Indices 1 2 3 4 5 6 
#
# 1 140.2429 33.9777 34.7721 0.0000 0.0000 0.0000
# 2 33.9777 5.5099 40.0746 0.0000 0.0000 0.0000
# 3 34.7721 40.0746 106.2654 0.0000 0.0000 0.0000
# 4 0.0000 0.0000 0.0000 32.6590 0.0000 0.0000
# 5 0.0000 0.0000 0.0000 0.0000 34.5668 0.0000
# 6 0.0000 0.0000 0.0000 0.0000 0.0000 19.5782
#
#
#
# Elastic Compliance Matrix: (Units=1/GPa)
#
#
# Indices 1 2 3 4 5 6 
#
# 1 0.005741 0.012473 -0.006582 0.000000 0.000000 0.000000
# 2 0.012473 -0.077035 0.024970 0.000000 0.000000 0.000000
# 3 -0.006582 0.024970 0.002148 0.000000 0.000000 0.000000
# 4 0.000000 0.000000 0.000000 0.030619 0.000000 0.000000
# 5 0.000000 0.000000 0.000000 0.000000 0.028930 0.000000
# 6 0.000000 0.000000 0.000000 0.000000 0.000000 0.051077
#
#
# Mechanical properties :
#
#
# Convention : Reuss Voigt Hill
#
# Bulk Modulus (GPa) = -134.66630 52.18524 -41.24053
# Shear Modulus (GPa) = -220.09547 26.90704 -96.59421
#
# Velocity S-wave (km/s) = -10.47401 3.66219 -6.93878
# Velocity P-wave (km/s) = 14.60810 6.62522 9.20606
#
# Compressibility (1/GPa) = -0.00742576
#
# Stress axis : x y z
#
# Youngs Moduli (GPa) = 174.19767 -12.98107 465.64430
#
# Poissons Ratio (x) = 0.16191 3.06494
# Poissons Ratio (y) = -2.17273 -11.62715
# Poissons Ratio (z) = 1.14659 0.32414
#
# Static dielectric constant tensor:
#      x y z
#    x 3.748640 0.000000 0.000000 
#    y 0.000000 3.435630 0.000000 
#    z 0.000000 0.000000 4.066860 
# 
# 
# High freq. dielectric constant tensor:
#      x y z
#    x 1.802550 0.000000 0.000000 
#    y 0.000000 1.766810 0.000000 
#    z 0.000000 0.000000 1.793510 
# 
# From -- ./inp_files/20901.got.cif
#   From: 2010.03.12/outbox.cif.g09.slc.cpg/sg62_11_cif.got.tgz:20901.got - 2010.04.10 19:12:36.
