data_PCOD8254839
_publ_section_title
;
Structure prediction by ZEFSAII (Michael W. Deem and Ramdas Pophale) SiO2 
 PCOD8254839
Probable space group: P N M A
;
_chemical_formula_sum "Si O2"
_cell_formula_units_Z 32
_cell_length_a 10.243127
_cell_length_b 22.194909
_cell_length_c 4.808773
_cell_angle_alpha 90.000000
_cell_angle_beta 90.000000
_cell_angle_gamma 90.000000
_cell_volume 1093.251804
_symmetry_space_group_name_H-M "P N M A"
_symmetry_group_IT_number 62
_symmetry_cell_setting 'orthorhombic'
loop_
_space_group_symop_operation_xyz
x,y,z
1/2-x,-y,1/2+z
1/2+x,1/2-y,1/2-z
-x,1/2+y,-z
-x,-y,-z
1/2+x,y,1/2-z
1/2-x,1/2+y,1/2+z
x,1/2-y,z
loop_
_atom_site_type_symbol
_atom_site_label
_atom_site_fract_x
_atom_site_fract_y
_atom_site_fract_z
Si Si1 0.044706 0.350725 0.074707
Si Si2 0.632312 0.942473 0.840894
Si Si3 0.882210 0.750000 0.557579
Si Si4 0.616693 0.750000 0.332303
Si Si5 0.303551 0.924821 0.161794
O O1 0.142398 0.309425 0.255519
O O2 0.002111 0.408363 0.264313
O O3 0.111374 0.369689 0.782006
O O4 0.918836 0.310468 0.001539
O O5 0.754864 0.917642 0.655820
O O6 0.611666 0.013947 0.796158
O O7 0.669460 0.929079 0.159224
O O8 0.775018 0.750000 0.305375
O O9 0.032489 0.750000 0.450067
#
# Coordination Sequence:
#
# PCOD8254839 Si02
#       5
#     8   8   4   4   8
#     4  11  25  44  73 101 147 193 255 303 375 442
#     4  10  23  42  70 106 149 188 241 302 372 447
#     4  11  28  50  69 114 140 204 248 320 366 445
#     4  11  28  46  75 102 150 192 260 308 376 437
#     4  10  23  42  69 108 147 190 239 303 373 445
#
# _framework density 29.270477
#
# number of rings (size 3 to 8) (size 9 to 14) (size 15 to 20)
#    0.000    1.500    0.000    2.250   10.500    4.000 
#    0.000    7.500    0.000    0.000    0.000    0.000 
#    0.000    0.000    0.000    0.000    0.000    0.000 
#
# Total GULP energy -396932.086212 kJ/mol
# GULP energy per Si atom -12404.127694 kJ/mol
# Density = 2.920386 g / cm^3
# Si number density = 29.270477 Si / 1000 Ang^3
#
#
#
# Elastic Constant Matrix: (Units=GPa)
#
#
# Indices 1 2 3 4 5 6 
#
# 1 94.2153 17.2450 -9.2142 0.0000 0.0000 0.0000
# 2 17.2450 124.4196 -4.9449 0.0000 0.0000 0.0000
# 3 -9.2142 -4.9449 64.4600 0.0000 0.0000 0.0000
# 4 0.0000 0.0000 0.0000 31.0904 0.0000 0.0000
# 5 0.0000 0.0000 0.0000 0.0000 24.9483 0.0000
# 6 0.0000 0.0000 0.0000 0.0000 0.0000 23.8439
#
#
#
# Elastic Compliance Matrix: (Units=1/GPa)
#
#
# Indices 1 2 3 4 5 6 
#
# 1 0.011026 -0.001470 0.001463 0.000000 0.000000 0.000000
# 2 -0.001470 0.008258 0.000423 0.000000 0.000000 0.000000
# 3 0.001463 0.000423 0.015755 0.000000 0.000000 0.000000
# 4 0.000000 0.000000 0.000000 0.032164 0.000000 0.000000
# 5 0.000000 0.000000 0.000000 0.000000 0.040083 0.000000
# 6 0.000000 0.000000 0.000000 0.000000 0.000000 0.041939
#
#
# Mechanical properties :
#
#
# Convention : Reuss Voigt Hill
#
# Bulk Modulus (GPa) = 27.87655 32.14073 30.00864
# Shear Modulus (GPa) = 31.18176 34.64379 32.91278
#
# Velocity S-wave (km/s) = 3.26743 3.44404 3.35690
# Velocity P-wave (km/s) = 4.87640 5.17877 5.02986
#
# Compressibility (1/GPa) = 0.03587245
#
# Stress axis : x y z
#
# Youngs Moduli (GPa) = 90.69318 121.09604 63.47128
#
# Poissons Ratio (x) = 0.17802 -0.09288
# Poissons Ratio (y) = 0.13333 -0.02687
# Poissons Ratio (z) = -0.13272 -0.05127
#
# Static dielectric constant tensor:
#      x y z
#    x 4.750240 0.000000 0.000000 
#    y 0.000000 5.593160 0.000000 
#    z 0.000000 0.000000 5.309250 
# 
# 
# High freq. dielectric constant tensor:
#      x y z
#    x 2.177950 0.000000 0.000000 
#    y 0.000000 2.212440 0.000000 
#    z 0.000000 0.000000 2.193260 
# 
# From -- ./inp_files/465.got.cif
#   From: 2010.03.12/outbox.cif.g09.slc.cpg/sg62_1_cif.got.tgz:465.got - 2010.04.10 19:12:36.
