data_PCOD8254417
_publ_section_title
;
Structure prediction by ZEFSAII (Michael W. Deem and Ramdas Pophale) SiO2 
 PCOD8254417
Probable space group: P N M A
;
_chemical_formula_sum "Si O2"
_cell_formula_units_Z 48
_cell_length_a 11.000090
_cell_length_b 11.106224
_cell_length_c 18.703136
_cell_angle_alpha 90.000000
_cell_angle_beta 90.000000
_cell_angle_gamma 90.000000
_cell_volume 2284.952092
_symmetry_space_group_name_H-M "P N M A"
_symmetry_group_IT_number 62
_symmetry_cell_setting 'orthorhombic'
loop_
_space_group_symop_operation_xyz
x,y,z
1/2-x,-y,1/2+z
1/2+x,1/2-y,1/2-z
-x,1/2+y,-z
-x,-y,-z
1/2+x,y,1/2-z
1/2-x,1/2+y,1/2+z
x,1/2-y,z
loop_
_atom_site_type_symbol
_atom_site_label
_atom_site_fract_x
_atom_site_fract_y
_atom_site_fract_z
Si Si1 0.081440 0.965645 0.162874
Si Si2 0.491838 0.750000 0.194759
Si Si3 0.783067 0.250000 0.805148
Si Si4 0.532545 0.887274 0.948739
Si Si5 0.811871 0.614617 0.957007
Si Si6 0.673662 0.111727 0.615305
Si Si7 0.090718 0.991930 0.325619
O O1 0.194212 0.872405 0.150750
O O2 0.078816 0.025252 0.241829
O O3 0.955564 0.895369 0.153467
O O4 0.096039 0.063005 0.101456
O O5 0.604711 0.750000 0.249565
O O6 0.353552 0.750000 0.227515
O O7 0.510435 0.626318 0.150990
O O8 0.505449 0.750000 0.979074
O O9 0.674165 0.897009 0.930304
O O10 0.457636 0.899712 0.874748
O O11 0.500000 0.000000 0.000000
O O12 0.855563 0.750000 0.965250
O O13 0.828905 0.555079 0.035267
O O14 0.719111 0.250000 0.612946
O O15 0.767561 0.033213 0.661035
#
# Coordination Sequence:
#
# PCOD8254417 Si02
#       7
#     8   4   4   8   8   8   8
#     4  11  24  38  65  93 133 171 227 276 338 399
#     4  10  22  34  62  94 138 172 223 276 347 391
#     4  10  22  36  58 100 130 168 219 286 329 395
#     4  11  24  45  68  99 131 176 223 280 337 410
#     4  10  23  44  66  87 129 177 222 270 349 405
#     4  11  22  41  62  96 131 179 218 282 339 405
#     4  11  24  37  67  95 136 168 228 278 341 397
#
# _framework density 21.007004999999999
#
# number of rings (size 3 to 8) (size 9 to 14) (size 15 to 20)
#    0.000    1.333    3.333    1.500   12.833    0.667 
#    1.500    0.833    0.000    0.000    0.000    0.000 
#    0.000    0.000    0.000    0.000    0.000    0.000 
#
# Total GULP energy -594848.130297 kJ/mol
# GULP energy per Si atom -12392.669381 kJ/mol
# Density = 2.095919 g / cm^3
# Si number density = 21.007005 Si / 1000 Ang^3
#
#
#
# Elastic Constant Matrix: (Units=GPa)
#
#
# Indices 1 2 3 4 5 6 
#
# 1 115.4314 26.7586 30.1319 0.0000 0.0000 0.0000
# 2 26.7586 76.2555 28.9131 0.0000 0.0000 0.0000
# 3 30.1319 28.9131 124.2122 0.0000 0.0000 0.0000
# 4 0.0000 0.0000 0.0000 30.4763 0.0000 0.0000
# 5 0.0000 0.0000 0.0000 0.0000 35.4010 0.0000
# 6 0.0000 0.0000 0.0000 0.0000 0.0000 25.7804
#
#
#
# Elastic Compliance Matrix: (Units=1/GPa)
#
#
# Indices 1 2 3 4 5 6 
#
# 1 0.009755 -0.002770 -0.001721 0.000000 0.000000 0.000000
# 2 -0.002770 0.015170 -0.002859 0.000000 0.000000 0.000000
# 3 -0.001721 -0.002859 0.009134 0.000000 0.000000 0.000000
# 4 0.000000 0.000000 0.000000 0.032812 0.000000 0.000000
# 5 0.000000 0.000000 0.000000 0.000000 0.028248 0.000000
# 6 0.000000 0.000000 0.000000 0.000000 0.000000 0.038789
#
#
# Mechanical properties :
#
#
# Convention : Reuss Voigt Hill
#
# Bulk Modulus (GPa) = 51.66149 54.16738 52.91443
# Shear Modulus (GPa) = 32.24519 33.67124 32.95821
#
# Velocity S-wave (km/s) = 3.92212 4.00791 3.96525
# Velocity P-wave (km/s) = 6.71987 6.87453 6.79764
#
# Compressibility (1/GPa) = 0.01935678
#
# Stress axis : x y z
#
# Youngs Moduli (GPa) = 102.51446 65.91964 109.48263
#
# Poissons Ratio (x) = 0.18262 0.18847
# Poissons Ratio (y) = 0.28399 0.31302
# Poissons Ratio (z) = 0.17648 0.18847
#
# Static dielectric constant tensor:
#      x y z
#    x 3.715150 0.000000 0.000000 
#    y 0.000000 4.230280 0.000000 
#    z 0.000000 0.000000 3.765070 
# 
# 
# High freq. dielectric constant tensor:
#      x y z
#    x 1.827760 0.000000 0.000000 
#    y 0.000000 1.800730 0.000000 
#    z 0.000000 0.000000 1.822020 
# 
# From -- ./inp_files/23070.got.cif
#   From: 2010.03.12/outbox.cif.g09.slc.cpg/sg62_12_cif.got.tgz:23070.got - 2010.04.10 19:12:36.
