data_PCOD8254514
_publ_section_title
;
Structure prediction by ZEFSAII (Michael W. Deem and Ramdas Pophale) SiO2 
 PCOD8254514
Probable space group: P N M A
;
_chemical_formula_sum "Si O2"
_cell_formula_units_Z 64
_cell_length_a 12.343582
_cell_length_b 27.652992
_cell_length_c 9.448743
_cell_angle_alpha 90.000000
_cell_angle_beta 90.000000
_cell_angle_gamma 90.000000
_cell_volume 3225.205347
_symmetry_space_group_name_H-M "P N M A"
_symmetry_group_IT_number 62
_symmetry_cell_setting 'orthorhombic'
loop_
_space_group_symop_operation_xyz
x,y,z
1/2-x,-y,1/2+z
1/2+x,1/2-y,1/2-z
-x,1/2+y,-z
-x,-y,-z
1/2+x,y,1/2-z
1/2-x,1/2+y,1/2+z
x,1/2-y,z
loop_
_atom_site_type_symbol
_atom_site_label
_atom_site_fract_x
_atom_site_fract_y
_atom_site_fract_z
Si Si1 0.738483 0.553582 0.215995
Si Si2 0.756422 0.954857 0.549227
Si Si3 0.257707 0.306269 0.313956
Si Si4 0.571877 0.120497 0.135487
Si Si5 0.237762 0.195223 0.982449
Si Si6 0.075212 0.616578 0.894687
Si Si7 0.421876 0.367096 0.884839
Si Si8 0.572226 0.125457 0.643236
O O1 0.736087 0.540297 0.381510
O O2 0.632952 0.584124 0.173390
O O3 0.848096 0.581597 0.177526
O O4 0.735376 0.506767 0.118771
O O5 0.867707 0.926715 0.577854
O O6 0.661098 0.926188 0.630346
O O7 0.254986 0.250000 0.360024
O O8 0.149192 0.332343 0.370872
O O9 0.364335 0.331576 0.379614
O O10 0.265690 0.311870 0.145977
O O11 0.528362 0.111562 0.293092
O O12 0.464123 0.127459 0.043836
O O13 0.217956 0.250000 0.941163
O O14 0.334619 0.175796 0.884197
O O15 0.128347 0.167542 0.945719
O O16 0.031021 0.608670 0.052551
O O17 0.525084 0.353160 0.789208
#
# Coordination Sequence:
#
# PCOD8254514 Si02
#       8
#     8   8   8   8   8   8   8   8
#     4  11  26  42  64  92 125 160 204 260 305 366
#     4  11  26  42  62  94 125 158 208 258 305 366
#     4  10  22  39  63  97 126 156 210 262 298 357
#     4  11  23  41  64  92 123 168 204 247 309 369
#     4  10  22  39  63  95 126 160 208 258 304 361
#     4  11  23  41  64  92 123 168 204 247 309 369
#     4  11  23  43  63  87 130 165 200 252 311 365
#     4  11  23  43  63  87 130 165 200 252 311 365
#
# _framework density 19.843699000000001
#
# number of rings (size 3 to 8) (size 9 to 14) (size 15 to 20)
#    0.000    1.250    5.000    0.000    3.500    4.000 
#    0.000    1.250    0.000    0.000    0.000    0.000 
#    0.000    0.000    0.000    0.000    0.000    0.000 
#
# Total GULP energy -793796.678921 kJ/mol
# GULP energy per Si atom -12403.073108 kJ/mol
# Density = 1.979853 g / cm^3
# Si number density = 19.843699 Si / 1000 Ang^3
#
#
#
# Elastic Constant Matrix: (Units=GPa)
#
#
# Indices 1 2 3 4 5 6 
#
# 1 79.4646 22.2591 26.7088 0.0000 0.0000 0.0000
# 2 22.2591 77.0516 52.9382 0.0000 0.0000 0.0000
# 3 26.7088 52.9382 89.4491 0.0000 0.0000 0.0000
# 4 0.0000 0.0000 0.0000 27.1913 0.0000 0.0000
# 5 0.0000 0.0000 0.0000 0.0000 41.8828 0.0000
# 6 0.0000 0.0000 0.0000 0.0000 0.0000 12.1939
#
#
#
# Elastic Compliance Matrix: (Units=1/GPa)
#
#
# Indices 1 2 3 4 5 6 
#
# 1 0.014169 -0.001999 -0.003047 0.000000 0.000000 0.000000
# 2 -0.001999 0.022154 -0.012514 0.000000 0.000000 0.000000
# 3 -0.003047 -0.012514 0.019496 0.000000 0.000000 0.000000
# 4 0.000000 0.000000 0.000000 0.036776 0.000000 0.000000
# 5 0.000000 0.000000 0.000000 0.000000 0.023876 0.000000
# 6 0.000000 0.000000 0.000000 0.000000 0.000000 0.082008
#
#
# Mechanical properties :
#
#
# Convention : Reuss Voigt Hill
#
# Bulk Modulus (GPa) = 48.31813 49.97526 49.14670
# Shear Modulus (GPa) = 20.79011 25.85755 23.32383
#
# Velocity S-wave (km/s) = 3.24032 3.61371 3.43210
# Velocity P-wave (km/s) = 6.19692 6.53077 6.36603
#
# Compressibility (1/GPa) = 0.02069617
#
# Stress axis : x y z
#
# Youngs Moduli (GPa) = 70.57903 45.13911 51.29361
#
# Poissons Ratio (x) = 0.09025 0.15631
# Poissons Ratio (y) = 0.14112 0.64189
# Poissons Ratio (z) = 0.21507 0.56488
#
# Static dielectric constant tensor:
#      x y z
#    x 3.685780 0.000000 0.000000 
#    y 0.000000 3.494030 0.000000 
#    z 0.000000 0.000000 3.630410 
# 
# 
# High freq. dielectric constant tensor:
#      x y z
#    x 1.788880 0.000000 0.000000 
#    y 0.000000 1.763360 0.000000 
#    z 0.000000 0.000000 1.783050 
# 
# From -- ./inp_files/5530.got.cif
#   From: 2010.03.12/outbox.cif.g09.slc.cpg/sg62_3_cif.got.tgz:5530.got - 2010.04.10 19:12:36.
