data_PCOD8254184
_publ_section_title
;
Structure prediction by ZEFSAII (Michael W. Deem and Ramdas Pophale) SiO2 
 PCOD8254184
Probable space group: P N M A
;
_chemical_formula_sum "Si O2"
_cell_formula_units_Z 56
_cell_length_a 20.040743
_cell_length_b 18.566033
_cell_length_c 6.343660
_cell_angle_alpha 90.000000
_cell_angle_beta 90.000000
_cell_angle_gamma 90.000000
_cell_volume 2360.330590
_symmetry_space_group_name_H-M "P N M A"
_symmetry_group_IT_number 62
_symmetry_cell_setting 'orthorhombic'
loop_
_space_group_symop_operation_xyz
x,y,z
1/2-x,-y,1/2+z
1/2+x,1/2-y,1/2-z
-x,1/2+y,-z
-x,-y,-z
1/2+x,y,1/2-z
1/2-x,1/2+y,1/2+z
x,1/2-y,z
loop_
_atom_site_type_symbol
_atom_site_label
_atom_site_fract_x
_atom_site_fract_y
_atom_site_fract_z
Si Si1 0.725038 0.423060 0.922526
Si Si2 0.660605 0.566039 0.104576
Si Si3 0.432393 0.454143 0.538672
Si Si4 0.343561 0.671284 0.786275
Si Si5 0.113646 0.408676 0.884414
Si Si6 0.032600 0.328507 0.583923
Si Si7 0.910061 0.335576 0.294489
O O1 0.797142 0.415313 0.816041
O O2 0.675998 0.386062 0.755128
O O3 0.699118 0.502707 0.982114
O O4 0.720832 0.374497 0.134764
O O5 0.588280 0.547718 0.211635
O O6 0.650569 0.630627 0.935093
O O7 0.500000 0.500000 0.500000
O O8 0.379630 0.505878 0.418082
O O9 0.423749 0.375889 0.428328
O O10 0.318048 0.750000 0.717117
O O11 0.382604 0.633351 0.600473
O O12 0.396834 0.676535 0.970926
O O13 0.041976 0.385670 0.776324
O O14 0.014512 0.250000 0.679703
O O15 0.976210 0.353081 0.425190
O O16 0.898108 0.250000 0.256160
#
# Coordination Sequence:
#
# PCOD8254184 Si02
#       7
#     8   8   8   8   8   8   8
#     4  11  25  42  69  96 133 182 236 292 351 422
#     4  12  26  46  70 100 138 186 245 296 361 436
#     4  12  25  41  72 104 136 185 242 294 354 433
#     4  10  21  39  65 102 140 177 227 288 344 410
#     4  11  20  38  65  99 130 178 229 281 341 411
#     4   9  20  38  62  96 141 182 222 276 349 420
#     4  11  26  46  68 103 148 188 231 299 366 431
#
# _framework density 23.725491000000002
#
# number of rings (size 3 to 8) (size 9 to 14) (size 15 to 20)
#    0.000    1.143    2.857    3.000    2.000    2.857 
#    0.000    5.000    0.000    0.000    0.000    0.000 
#    0.000    0.000    0.000    0.000    0.000    0.000 
#
# Total GULP energy -693805.505402 kJ/mol
# GULP energy per Si atom -12389.384025 kJ/mol
# Density = 2.367149 g / cm^3
# Si number density = 23.725491 Si / 1000 Ang^3
#
#
#
# Elastic Constant Matrix: (Units=GPa)
#
#
# Indices 1 2 3 4 5 6 
#
# 1 62.3071 20.5823 14.3778 0.0000 0.0000 0.0000
# 2 20.5823 155.9555 43.4363 0.0000 0.0000 0.0000
# 3 14.3778 43.4363 67.0477 0.0000 0.0000 0.0000
# 4 0.0000 0.0000 0.0000 40.5985 0.0000 0.0000
# 5 0.0000 0.0000 0.0000 0.0000 45.0875 0.0000
# 6 0.0000 0.0000 0.0000 0.0000 0.0000 25.1113
#
#
#
# Elastic Compliance Matrix: (Units=1/GPa)
#
#
# Indices 1 2 3 4 5 6 
#
# 1 0.017173 -0.001514 -0.002702 0.000000 0.000000 0.000000
# 2 -0.001514 0.007957 -0.004830 0.000000 0.000000 0.000000
# 3 -0.002702 -0.004830 0.018623 0.000000 0.000000 0.000000
# 4 0.000000 0.000000 0.000000 0.024631 0.000000 0.000000
# 5 0.000000 0.000000 0.000000 0.000000 0.022179 0.000000
# 6 0.000000 0.000000 0.000000 0.000000 0.000000 0.039823
#
#
# Mechanical properties :
#
#
# Convention : Reuss Voigt Hill
#
# Bulk Modulus (GPa) = 38.96887 49.12257 44.04572
# Shear Modulus (GPa) = 31.84040 35.95373 33.89706
#
# Velocity S-wave (km/s) = 3.66735 3.89704 3.78394
# Velocity P-wave (km/s) = 5.86457 6.40303 6.13970
#
# Compressibility (1/GPa) = 0.02566151
#
# Stress axis : x y z
#
# Youngs Moduli (GPa) = 58.23061 125.67189 53.69568
#
# Poissons Ratio (x) = 0.19026 0.14508
# Poissons Ratio (y) = 0.08816 0.25937
# Poissons Ratio (z) = 0.15733 0.60704
#
# Static dielectric constant tensor:
#      x y z
#    x 4.264490 0.000000 0.000000 
#    y 0.000000 4.714810 0.000000 
#    z 0.000000 0.000000 4.359180 
# 
# 
# High freq. dielectric constant tensor:
#      x y z
#    x 1.933850 0.000000 0.000000 
#    y 0.000000 1.937760 0.000000 
#    z 0.000000 0.000000 1.947430 
# 
# From -- ./inp_files/2825.got.cif
#   From: 2010.03.12/outbox.cif.g09.slc.cpg/sg62_2_cif.got.tgz:2825.got - 2010.04.10 19:12:36.
