data_PCOD8254796
_publ_section_title
;
Structure prediction by ZEFSAII (Michael W. Deem and Ramdas Pophale) SiO2 
 PCOD8254796
Probable space group: P N M A
;
_chemical_formula_sum "Si O2"
_cell_formula_units_Z 40
_cell_length_a 9.222850
_cell_length_b 12.619057
_cell_length_c 17.850641
_cell_angle_alpha 90.000000
_cell_angle_beta 90.000000
_cell_angle_gamma 90.000000
_cell_volume 2077.523109
_symmetry_space_group_name_H-M "P N M A"
_symmetry_group_IT_number 62
_symmetry_cell_setting 'orthorhombic'
loop_
_space_group_symop_operation_xyz
x,y,z
1/2-x,-y,1/2+z
1/2+x,1/2-y,1/2-z
-x,1/2+y,-z
-x,-y,-z
1/2+x,y,1/2-z
1/2-x,1/2+y,1/2+z
x,1/2-y,z
loop_
_atom_site_type_symbol
_atom_site_label
_atom_site_fract_x
_atom_site_fract_y
_atom_site_fract_z
Si Si1 0.347841 0.973961 0.536925
Si Si2 0.288805 0.499242 0.272746
Si Si3 0.339427 0.628873 0.125952
Si Si4 0.334380 0.371192 0.907702
Si Si5 0.935615 0.628081 0.816777
O O1 0.234168 0.931500 0.477282
O O2 0.365869 0.885462 0.601182
O O3 0.500000 0.000000 0.500000
O O4 0.285225 0.081538 0.572930
O O5 0.349484 0.566465 0.203700
O O6 0.213944 0.578977 0.329695
O O7 0.418884 0.440419 0.314388
O O8 0.174657 0.410841 0.246816
O O9 0.297489 0.750000 0.142666
O O10 0.492734 0.620166 0.083962
O O11 0.282142 0.250000 0.908247
O O12 0.971811 0.750000 0.801431
#
# Coordination Sequence:
#
# PCOD8254796 Si02
#       5
#     8   8   8   8   8
#     4  11  23  41  62  91 128 158 205 253 302 372
#     4  11  21  41  62  91 124 156 211 256 303 366
#     4  10  23  41  64  91 124 165 206 252 307 361
#     4  11  22  40  63  90 125 166 205 251 310 365
#     4  11  23  40  62  88 122 162 203 253 309 366
#
# _framework density 19.253696999999999
#
# number of rings (size 3 to 8) (size 9 to 14) (size 15 to 20)
#    0.000    1.200    4.000    2.400    0.000    1.600 
#    0.000    0.000    0.000    0.000    0.000    0.000 
#    0.000    0.000    0.000    0.000    0.000    0.000 
#
# Total GULP energy -496230.732742 kJ/mol
# GULP energy per Si atom -12405.768319 kJ/mol
# Density = 1.920988 g / cm^3
# Si number density = 19.253697 Si / 1000 Ang^3
#
#
#
# Elastic Constant Matrix: (Units=GPa)
#
#
# Indices 1 2 3 4 5 6 
#
# 1 82.8737 31.7154 16.8437 0.0000 0.0000 0.0000
# 2 31.7154 129.1685 30.3855 0.0000 0.0000 0.0000
# 3 16.8437 30.3855 77.1971 0.0000 0.0000 0.0000
# 4 0.0000 0.0000 0.0000 20.3315 0.0000 0.0000
# 5 0.0000 0.0000 0.0000 0.0000 34.0203 0.0000
# 6 0.0000 0.0000 0.0000 0.0000 0.0000 21.4035
#
#
#
# Elastic Compliance Matrix: (Units=1/GPa)
#
#
# Indices 1 2 3 4 5 6 
#
# 1 0.013545 -0.002899 -0.001814 0.000000 0.000000 0.000000
# 2 -0.002899 0.009152 -0.002970 0.000000 0.000000 0.000000
# 3 -0.001814 -0.002970 0.014519 0.000000 0.000000 0.000000
# 4 0.000000 0.000000 0.000000 0.049185 0.000000 0.000000
# 5 0.000000 0.000000 0.000000 0.000000 0.029394 0.000000
# 6 0.000000 0.000000 0.000000 0.000000 0.000000 0.046721
#
#
# Mechanical properties :
#
#
# Convention : Reuss Voigt Hill
#
# Bulk Modulus (GPa) = 45.76773 49.68094 47.72433
# Shear Modulus (GPa) = 27.00294 29.17073 28.08684
#
# Velocity S-wave (km/s) = 3.74903 3.89662 3.82354
# Velocity P-wave (km/s) = 6.52402 6.79000 6.65834
#
# Compressibility (1/GPa) = 0.02184946
#
# Stress axis : x y z
#
# Youngs Moduli (GPa) = 73.82962 109.26284 68.87673
#
# Poissons Ratio (x) = 0.31674 0.12496
# Poissons Ratio (y) = 0.21402 0.20456
# Poissons Ratio (z) = 0.13395 0.32450
#
# Static dielectric constant tensor:
#      x y z
#    x 3.609980 0.000000 0.000000 
#    y 0.000000 3.539720 0.000000 
#    z 0.000000 0.000000 3.566630 
# 
# 
# High freq. dielectric constant tensor:
#      x y z
#    x 1.761550 0.000000 0.000000 
#    y 0.000000 1.753320 0.000000 
#    z 0.000000 0.000000 1.756800 
# 
# From -- ./inp_files/21883.got.cif
#   From: 2010.03.12/outbox.cif.g09.slc.cpg/sg62_11_cif.got.tgz:21883.got - 2010.04.10 19:12:36.
