data_PCOD8254617
_publ_section_title
;
Structure prediction by ZEFSAII (Michael W. Deem and Ramdas Pophale) SiO2 
 PCOD8254617
Probable space group: P N M A
;
_chemical_formula_sum "Si O2"
_cell_formula_units_Z 56
_cell_length_a 21.547208
_cell_length_b 8.971449
_cell_length_c 14.479877
_cell_angle_alpha 90.000000
_cell_angle_beta 90.000000
_cell_angle_gamma 90.000000
_cell_volume 2799.100355
_symmetry_space_group_name_H-M "P N M A"
_symmetry_group_IT_number 62
_symmetry_cell_setting 'orthorhombic'
loop_
_space_group_symop_operation_xyz
x,y,z
1/2-x,-y,1/2+z
1/2+x,1/2-y,1/2-z
-x,1/2+y,-z
-x,-y,-z
1/2+x,y,1/2-z
1/2-x,1/2+y,1/2+z
x,1/2-y,z
loop_
_atom_site_type_symbol
_atom_site_label
_atom_site_fract_x
_atom_site_fract_y
_atom_site_fract_z
Si Si1 0.440429 0.921901 0.601174
Si Si2 0.026160 0.073770 0.591680
Si Si3 0.803595 0.422926 0.194390
Si Si4 0.690796 0.577903 0.096222
Si Si5 0.920466 0.075393 0.078274
Si Si6 0.577976 0.076416 0.194505
Si Si7 0.154832 0.579724 0.606243
O O1 0.441024 0.750000 0.573748
O O2 0.511478 0.981345 0.609148
O O3 0.405399 0.948262 0.697967
O O4 0.402914 0.006965 0.521407
O O5 0.019155 0.250000 0.584710
O O6 0.097327 0.031912 0.606760
O O7 0.000000 0.000000 0.500000
O O8 0.985708 0.011250 0.676137
O O9 0.789498 0.250000 0.173053
O O10 0.752647 0.522602 0.144884
O O11 0.870428 0.473340 0.154787
O O12 0.802671 0.453627 0.304299
O O13 0.679967 0.750000 0.121363
O O14 0.632583 0.484252 0.131228
O O15 0.696128 0.555188 0.985593
O O16 0.919400 0.250000 0.066369
O O17 0.567732 0.250000 0.172090
O O18 0.129846 0.750000 0.610713
#
# Coordination Sequence:
#
# PCOD8254617 Si02
#       7
#     8   8   8   8   8   8   8
#     4   9  19  35  58  86 117 152 189 235 293 351
#     4  12  23  36  60  92 124 157 194 245 303 360
#     4  10  22  41  63  84 115 160 203 245 300 358
#     4  11  24  40  59  85 117 152 198 249 292 349
#     4   9  18  35  58  85 115 150 192 239 288 343
#     4  11  22  38  60  86 120 159 197 241 298 361
#     4  10  22  42  64  86 118 159 201 249 305 363
#
# _framework density 20.006428
#
# number of rings (size 3 to 8) (size 9 to 14) (size 15 to 20)
#    0.000    1.714    1.429    3.000    0.000    6.286 
#    0.000    7.143    0.000    0.000    0.000    0.000 
#    0.000    0.000    0.000    0.000    0.000    0.000 
#
# Total GULP energy -694522.060211 kJ/mol
# GULP energy per Si atom -12402.179647 kJ/mol
# Density = 1.996089 g / cm^3
# Si number density = 20.006428 Si / 1000 Ang^3
#
#
#
# Elastic Constant Matrix: (Units=GPa)
#
#
# Indices 1 2 3 4 5 6 
#
# 1 66.2195 36.4059 44.6770 0.0000 0.0000 0.0000
# 2 36.4059 97.2823 52.2747 0.0000 0.0000 0.0000
# 3 44.6770 52.2747 143.0358 0.0000 0.0000 0.0000
# 4 0.0000 0.0000 0.0000 32.8345 0.0000 0.0000
# 5 0.0000 0.0000 0.0000 0.0000 29.2246 0.0000
# 6 0.0000 0.0000 0.0000 0.0000 0.0000 34.0656
#
#
#
# Elastic Compliance Matrix: (Units=1/GPa)
#
#
# Indices 1 2 3 4 5 6 
#
# 1 0.021228 -0.005452 -0.004638 0.000000 0.000000 0.000000
# 2 -0.005452 0.014192 -0.003484 0.000000 0.000000 0.000000
# 3 -0.004638 -0.003484 0.009713 0.000000 0.000000 0.000000
# 4 0.000000 0.000000 0.000000 0.030456 0.000000 0.000000
# 5 0.000000 0.000000 0.000000 0.000000 0.034218 0.000000
# 6 0.000000 0.000000 0.000000 0.000000 0.000000 0.029355
#
#
# Mechanical properties :
#
#
# Convention : Reuss Voigt Hill
#
# Bulk Modulus (GPa) = 55.60055 63.69473 59.64764
# Shear Modulus (GPa) = 29.01864 30.77028 29.89446
#
# Velocity S-wave (km/s) = 3.81263 3.92601 3.86974
# Velocity P-wave (km/s) = 6.87264 7.24277 7.06013
#
# Compressibility (1/GPa) = 0.01798543
#
# Stress axis : x y z
#
# Youngs Moduli (GPa) = 47.10815 70.46454 102.95385
#
# Poissons Ratio (x) = 0.38416 0.47750
# Poissons Ratio (y) = 0.25682 0.35866
# Poissons Ratio (z) = 0.21849 0.24547
#
# Static dielectric constant tensor:
#      x y z
#    x 3.635710 0.000000 0.000000 
#    y 0.000000 3.631210 0.000000 
#    z 0.000000 0.000000 3.909800 
# 
# 
# High freq. dielectric constant tensor:
#      x y z
#    x 1.763540 0.000000 0.000000 
#    y 0.000000 1.778750 0.000000 
#    z 0.000000 0.000000 1.795850 
# 
# From -- ./inp_files/20395.got.cif
#   From: 2010.03.12/outbox.cif.g09.slc.cpg/sg62_11_cif.got.tgz:20395.got - 2010.04.10 19:12:36.
