data_PCOD8254792
_publ_section_title
;
Structure prediction by ZEFSAII (Michael W. Deem and Ramdas Pophale) SiO2 
 PCOD8254792
Probable space group: P N M A
;
_chemical_formula_sum "Si O2"
_cell_formula_units_Z 48
_cell_length_a 30.525610
_cell_length_b 8.621851
_cell_length_c 8.909234
_cell_angle_alpha 90.000000
_cell_angle_beta 90.000000
_cell_angle_gamma 90.000000
_cell_volume 2344.796895
_symmetry_space_group_name_H-M "P N M A"
_symmetry_group_IT_number 62
_symmetry_cell_setting 'orthorhombic'
loop_
_space_group_symop_operation_xyz
x,y,z
1/2-x,-y,1/2+z
1/2+x,1/2-y,1/2-z
-x,1/2+y,-z
-x,-y,-z
1/2+x,y,1/2-z
1/2-x,1/2+y,1/2+z
x,1/2-y,z
loop_
_atom_site_type_symbol
_atom_site_label
_atom_site_fract_x
_atom_site_fract_y
_atom_site_fract_z
Si Si1 0.212412 0.570698 0.427851
Si Si2 0.459129 0.568662 0.913716
Si Si3 0.122957 0.429170 0.927429
Si Si4 0.630079 0.070284 0.920727
Si Si5 0.041128 0.931028 0.085325
Si Si6 0.705314 0.929364 0.419454
O O1 0.225107 0.750000 0.450842
O O2 0.166057 0.538117 0.504039
O O3 0.209477 0.527169 0.254043
O O4 0.248739 0.462193 0.501533
O O5 0.466018 0.750000 0.898820
O O6 0.454445 0.499862 0.749664
O O7 0.500000 0.500000 0.000000
O O8 0.416184 0.526164 0.007581
O O9 0.110195 0.250000 0.951021
O O10 0.128396 0.470079 0.753872
O O11 0.084985 0.535485 0.993563
O O12 0.168294 0.462769 0.010087
O O13 0.641997 0.250000 0.948002
O O14 0.033796 0.750000 0.100384
O O15 0.000000 0.000000 0.000000
O O16 0.692696 0.750000 0.442051
#
# Coordination Sequence:
#
# PCOD8254792 Si02
#       6
#     8   8   8   8   8   8
#     4  11  24  40  61  89 120 157 202 251 302 360
#     4  11  23  41  65  93 126 165 207 255 311 368
#     4  11  23  41  64  92 124 159 203 252 304 364
#     4  10  23  41  62  89 122 159 200 248 302 364
#     4  12  25  42  64  92 125 163 208 256 309 368
#     4  11  24  41  61  89 123 159 202 250 303 364
#
# _framework density 20.470856999999999
#
# number of rings (size 3 to 8) (size 9 to 14) (size 15 to 20)
#    0.000    1.000    0.000    6.500    0.000   13.333 
#    0.000    0.000    0.000    0.000    0.000    0.000 
#    0.000    0.000    0.000    0.000    0.000    0.000 
#
# Total GULP energy -595609.645389 kJ/mol
# GULP energy per Si atom -12408.534279 kJ/mol
# Density = 2.042426 g / cm^3
# Si number density = 20.470857 Si / 1000 Ang^3
#
#
#
# Elastic Constant Matrix: (Units=GPa)
#
#
# Indices 1 2 3 4 5 6 
#
# 1 129.3450 45.1791 63.7102 0.0000 0.0000 0.0000
# 2 45.1791 53.2438 35.9787 0.0000 0.0000 0.0000
# 3 63.7102 35.9787 150.5457 0.0000 0.0000 0.0000
# 4 0.0000 0.0000 0.0000 7.0331 0.0000 0.0000
# 5 0.0000 0.0000 0.0000 0.0000 -19.1118 0.0000
# 6 0.0000 0.0000 0.0000 0.0000 0.0000 40.0709
#
#
#
# Elastic Compliance Matrix: (Units=1/GPa)
#
#
# Indices 1 2 3 4 5 6 
#
# 1 0.012153 -0.008153 -0.003194 0.000000 0.000000 0.000000
# 2 -0.008153 0.027869 -0.003210 0.000000 0.000000 0.000000
# 3 -0.003194 -0.003210 0.008761 0.000000 0.000000 0.000000
# 4 0.000000 0.000000 0.000000 0.142184 0.000000 0.000000
# 5 0.000000 0.000000 0.000000 0.000000 -0.052324 0.000000
# 6 0.000000 0.000000 0.000000 0.000000 0.000000 0.024956
#
#
# Mechanical properties :
#
#
# Convention : Reuss Voigt Hill
#
# Bulk Modulus (GPa) = 50.84452 69.20784 60.02618
# Shear Modulus (GPa) = 25.09154 18.14953 21.62053
#
# Velocity S-wave (km/s) = 3.50483 2.98082 3.25339
# Velocity P-wave (km/s) = 6.42416 6.76228 6.59539
#
# Compressibility (1/GPa) = 0.01966780
#
# Stress axis : x y z
#
# Youngs Moduli (GPa) = 82.28721 35.88225 114.13603
#
# Poissons Ratio (x) = 0.29256 0.36459
# Poissons Ratio (y) = 0.67091 0.36637
# Poissons Ratio (z) = 0.26285 0.11518
#
# Static dielectric constant tensor:
#      x y z
#    x 3.831830 0.000000 0.000000 
#    y 0.000000 3.613540 0.000000 
#    z 0.000000 0.000000 3.914730 
# 
# 
# High freq. dielectric constant tensor:
#      x y z
#    x 1.816960 0.000000 0.000000 
#    y 0.000000 1.809770 0.000000 
#    z 0.000000 0.000000 1.821920 
# 
# From -- ./inp_files/10237.got.cif
#   From: 2010.03.12/outbox.cif.g09.slc.cpg/sg62_6_cif.got.tgz:10237.got - 2010.04.10 19:12:36.
