data_PCOD8254021
_publ_section_title
;
Structure prediction by ZEFSAII (Michael W. Deem and Ramdas Pophale) SiO2 
 PCOD8254021
Probable space group: P N M A
;
_chemical_formula_sum "Si O2"
_cell_formula_units_Z 64
_cell_length_a 9.779994
_cell_length_b 24.217243
_cell_length_c 13.519576
_cell_angle_alpha 90.000000
_cell_angle_beta 90.000000
_cell_angle_gamma 90.000000
_cell_volume 3202.037099
_symmetry_space_group_name_H-M "P N M A"
_symmetry_group_IT_number 62
_symmetry_cell_setting 'orthorhombic'
loop_
_space_group_symop_operation_xyz
x,y,z
1/2-x,-y,1/2+z
1/2+x,1/2-y,1/2-z
-x,1/2+y,-z
-x,-y,-z
1/2+x,y,1/2-z
1/2-x,1/2+y,1/2+z
x,1/2-y,z
loop_
_atom_site_type_symbol
_atom_site_label
_atom_site_fract_x
_atom_site_fract_y
_atom_site_fract_z
Si Si1 0.386517 0.934999 0.684916
Si Si2 0.537213 0.906881 0.090263
Si Si3 0.265457 0.418978 0.532472
Si Si4 0.186868 0.036909 0.964251
Si Si5 0.638055 0.631022 0.760207
Si Si6 0.037017 0.555818 0.195497
Si Si7 0.443794 0.188526 0.046176
Si Si8 0.760502 0.310217 0.080160
O O1 0.369460 0.937657 0.566389
O O2 0.243373 0.920324 0.737974
O O3 0.493622 0.888623 0.717526
O O4 0.434981 0.993199 0.729432
O O5 0.397902 0.925600 0.036262
O O6 0.656441 0.947536 0.054727
O O7 0.513740 0.907262 0.207736
O O8 0.572115 0.844218 0.057422
O O9 0.325700 0.470142 0.468697
O O10 0.327919 0.421019 0.641996
O O11 0.314329 0.360949 0.486279
O O12 0.094886 0.059988 0.875244
O O13 0.636758 0.654983 0.870495
O O14 0.690405 0.680644 0.691753
O O15 0.382967 0.250000 0.031390
O O16 0.598528 0.191544 0.080847
O O17 0.816003 0.250000 0.043353
#
# Coordination Sequence:
#
# PCOD8254021 Si02
#       8
#     8   8   8   8   8   8   8   8
#     4  11  25  36  63  92 129 163 196 249 309 374
#     4  11  23  37  64  88 116 165 210 250 300 374
#     4  10  22  40  59  89 123 163 204 253 306 363
#     4  11  22  41  59  92 130 160 198 253 312 362
#     4  12  21  40  60  94 121 162 201 244 311 378
#     4  11  24  39  59  90 129 161 198 254 307 365
#     4  10  22  41  60  86 120 158 208 261 302 358
#     4  10  21  38  62  87 118 161 206 252 303 364
#
# _framework density 19.987278
#
# number of rings (size 3 to 8) (size 9 to 14) (size 15 to 20)
#    0.000    1.250    2.500    4.500    7.000    0.000 
#    0.000    0.625    0.000    2.250    0.000    0.000 
#    0.000    0.000    0.000    0.000    0.000    0.000 
#
# Total GULP energy -793689.485544 kJ/mol
# GULP energy per Si atom -12401.398212 kJ/mol
# Density = 1.994179 g / cm^3
# Si number density = 19.987278 Si / 1000 Ang^3
#
#
#
# Elastic Constant Matrix: (Units=GPa)
#
#
# Indices 1 2 3 4 5 6 
#
# 1 68.5878 37.5896 36.4026 0.0000 0.0000 0.0000
# 2 37.5896 127.4378 62.9107 0.0000 0.0000 0.0000
# 3 36.4026 62.9107 118.8178 0.0000 0.0000 0.0000
# 4 0.0000 0.0000 0.0000 28.9452 0.0000 0.0000
# 5 0.0000 0.0000 0.0000 0.0000 25.1076 0.0000
# 6 0.0000 0.0000 0.0000 0.0000 0.0000 15.0891
#
#
#
# Elastic Compliance Matrix: (Units=1/GPa)
#
#
# Indices 1 2 3 4 5 6 
#
# 1 0.018563 -0.003612 -0.003775 0.000000 0.000000 0.000000
# 2 -0.003612 0.011327 -0.004891 0.000000 0.000000 0.000000
# 3 -0.003775 -0.004891 0.012162 0.000000 0.000000 0.000000
# 4 0.000000 0.000000 0.000000 0.034548 0.000000 0.000000
# 5 0.000000 0.000000 0.000000 0.000000 0.039829 0.000000
# 6 0.000000 0.000000 0.000000 0.000000 0.000000 0.066273
#
#
# Mechanical properties :
#
#
# Convention : Reuss Voigt Hill
#
# Bulk Modulus (GPa) = 57.15219 65.40548 61.27884
# Shear Modulus (GPa) = 23.46448 25.69107 24.57778
#
# Velocity S-wave (km/s) = 3.43004 3.58910 3.51047
# Velocity P-wave (km/s) = 6.65908 7.06895 6.86707
#
# Compressibility (1/GPa) = 0.01749714
#
# Stress axis : x y z
#
# Youngs Moduli (GPa) = 53.87123 88.28773 82.22253
#
# Poissons Ratio (x) = 0.31889 0.31037
# Poissons Ratio (y) = 0.19458 0.40211
# Poissons Ratio (z) = 0.20335 0.43177
#
# Static dielectric constant tensor:
#      x y z
#    x 3.668340 0.000000 0.000000 
#    y 0.000000 3.775390 0.000000 
#    z 0.000000 0.000000 3.591800 
# 
# 
# High freq. dielectric constant tensor:
#      x y z
#    x 1.786420 0.000000 0.000000 
#    y 0.000000 1.766820 0.000000 
#    z 0.000000 0.000000 1.775630 
# 
# From -- ./inp_files/17370.got.cif
#   From: 2010.03.12/outbox.cif.g09.slc.cpg/sg62_9_cif.got.tgz:17370.got - 2010.04.10 19:12:36.
