data_PCOD8254510
_publ_section_title
;
Structure prediction by ZEFSAII (Michael W. Deem and Ramdas Pophale) SiO2 
 PCOD8254510
Probable space group: P N M A
;
_chemical_formula_sum "Si O2"
_cell_formula_units_Z 32
_cell_length_a 15.044321
_cell_length_b 21.091705
_cell_length_c 5.199246
_cell_angle_alpha 90.000000
_cell_angle_beta 90.000000
_cell_angle_gamma 90.000000
_cell_volume 1649.774726
_symmetry_space_group_name_H-M "P N M A"
_symmetry_group_IT_number 62
_symmetry_cell_setting 'orthorhombic'
loop_
_space_group_symop_operation_xyz
x,y,z
1/2-x,-y,1/2+z
1/2+x,1/2-y,1/2-z
-x,1/2+y,-z
-x,-y,-z
1/2+x,y,1/2-z
1/2-x,1/2+y,1/2+z
x,1/2-y,z
loop_
_atom_site_type_symbol
_atom_site_label
_atom_site_fract_x
_atom_site_fract_y
_atom_site_fract_z
Si Si1 0.270284 0.537708 0.183397
Si Si2 0.882052 0.369458 0.893354
Si Si3 0.453455 0.320035 0.095507
Si Si4 0.030427 0.063782 0.635285
O O1 0.228219 0.512231 0.448662
O O2 0.213428 0.597483 0.089974
O O3 0.370701 0.558141 0.245584
O O4 0.885312 0.323349 0.645822
O O5 0.961165 0.422424 0.868366
O O6 0.895720 0.329271 0.149346
O O7 0.498125 0.250000 0.102768
O O8 0.527055 0.375826 0.062816
O O9 0.000000 0.000000 0.500000
#
# Coordination Sequence:
#
# PCOD8254510 Si02
#       4
#     8   8   8   8
#     4  12  23  36  62  94 128 156 202 251 315 366
#     4  10  22  39  63  87 121 161 202 247 313 351
#     4  10  22  42  63  84 124 166 206 250 310 367
#     4  10  22  40  64  91 125 154 206 254 308 362
#
# _framework density 19.396588999999999
#
# number of rings (size 3 to 8) (size 9 to 14) (size 15 to 20)
#    1.500    0.000    2.500    3.750    3.500    2.000 
#    0.000    2.500    0.000    0.000    0.000    0.000 
#    0.000    0.000    0.000    0.000    0.000    0.000 
#
# Total GULP energy -396562.752039 kJ/mol
# GULP energy per Si atom -12392.586001 kJ/mol
# Density = 1.935244 g / cm^3
# Si number density = 19.396589 Si / 1000 Ang^3
#
#
#
# Elastic Constant Matrix: (Units=GPa)
#
#
# Indices 1 2 3 4 5 6 
#
# 1 106.6777 25.2506 4.4715 0.0000 0.0000 0.0000
# 2 25.2506 125.9282 16.4153 0.0000 0.0000 0.0000
# 3 4.4715 16.4153 108.7941 0.0000 0.0000 0.0000
# 4 0.0000 0.0000 0.0000 17.0633 0.0000 0.0000
# 5 0.0000 0.0000 0.0000 0.0000 16.1731 0.0000
# 6 0.0000 0.0000 0.0000 0.0000 0.0000 23.4803
#
#
#
# Elastic Compliance Matrix: (Units=1/GPa)
#
#
# Indices 1 2 3 4 5 6 
#
# 1 0.009842 -0.001959 -0.000109 0.000000 0.000000 0.000000
# 2 -0.001959 0.008490 -0.001201 0.000000 0.000000 0.000000
# 3 -0.000109 -0.001201 0.009377 0.000000 0.000000 0.000000
# 4 0.000000 0.000000 0.000000 0.058605 0.000000 0.000000
# 5 0.000000 0.000000 0.000000 0.000000 0.061831 0.000000
# 6 0.000000 0.000000 0.000000 0.000000 0.000000 0.042589
#
#
# Mechanical properties :
#
#
# Convention : Reuss Voigt Hill
#
# Bulk Modulus (GPa) = 47.23107 48.18609 47.70858
# Shear Modulus (GPa) = 24.47015 31.02750 27.74883
#
# Velocity S-wave (km/s) = 3.55571 4.00389 3.78644
# Velocity P-wave (km/s) = 6.42343 6.80230 6.61558
#
# Compressibility (1/GPa) = 0.02117250
#
# Stress axis : x y z
#
# Youngs Moduli (GPa) = 101.60148 117.77994 106.64058
#
# Poissons Ratio (x) = 0.23077 0.01161
# Poissons Ratio (y) = 0.19907 0.12803
# Poissons Ratio (z) = 0.01106 0.14140
#
# Static dielectric constant tensor:
#      x y z
#    x 3.342380 0.000000 0.000000 
#    y 0.000000 3.491460 0.000000 
#    z 0.000000 0.000000 3.508160 
# 
# 
# High freq. dielectric constant tensor:
#      x y z
#    x 1.728890 0.000000 0.000000 
#    y 0.000000 1.748100 0.000000 
#    z 0.000000 0.000000 1.763450 
# 
# From -- ./inp_files/888.got.cif
#   From: 2010.03.12/outbox.cif.g09.slc.cpg/sg62_1_cif.got.tgz:888.got - 2010.04.10 19:12:36.
