data_PCOD8254275
_publ_section_title
;
Structure prediction by ZEFSAII (Michael W. Deem and Ramdas Pophale) SiO2 
 PCOD8254275
Probable space group: P N M A
;
_chemical_formula_sum "Si O2"
_cell_formula_units_Z 40
_cell_length_a 15.320081
_cell_length_b 12.427549
_cell_length_c 9.878598
_cell_angle_alpha 90.000000
_cell_angle_beta 90.000000
_cell_angle_gamma 90.000000
_cell_volume 1880.796718
_symmetry_space_group_name_H-M "P N M A"
_symmetry_group_IT_number 62
_symmetry_cell_setting 'orthorhombic'
loop_
_space_group_symop_operation_xyz
x,y,z
1/2-x,-y,1/2+z
1/2+x,1/2-y,1/2-z
-x,1/2+y,-z
-x,-y,-z
1/2+x,y,1/2-z
1/2-x,1/2+y,1/2+z
x,1/2-y,z
loop_
_atom_site_type_symbol
_atom_site_label
_atom_site_fract_x
_atom_site_fract_y
_atom_site_fract_z
Si Si1 0.671236 0.874260 0.282018
Si Si2 0.867805 0.926079 0.219076
Si Si3 0.963928 0.127686 0.278867
Si Si4 0.915924 0.948206 0.939221
Si Si5 0.977858 0.127307 0.579596
O O1 0.651462 0.750000 0.321407
O O2 0.773042 0.889921 0.261056
O O3 0.611470 0.909726 0.153932
O O4 0.649323 0.955062 0.402875
O O5 0.940052 0.878309 0.319778
O O6 0.884191 0.055921 0.218849
O O7 0.875897 0.880170 0.064553
O O8 0.930580 0.250000 0.283482
O O9 0.987555 0.074075 0.427741
O O10 0.053271 0.122194 0.189998
O O11 0.000000 0.000000 0.000000
O O12 0.966712 0.250000 0.536868
#
# Coordination Sequence:
#
# PCOD8254275 Si02
#       5
#     8   8   8   8   8
#     4  11  24  40  64  95 127 167 214 260 319 386
#     4  11  23  40  66  93 130 167 212 264 322 378
#     4  10  22  40  64  90 125 168 214 266 318 378
#     4  10  22  41  63  94 125 167 209 267 317 368
#     4  10  21  40  65  90 123 169 211 257 317 383
#
# _framework density 21.267582999999998
#
# number of rings (size 3 to 8) (size 9 to 14) (size 15 to 20)
#    0.000    1.600    4.000    1.200    2.800    4.800 
#    0.000    1.000    0.000    0.000    0.000    0.000 
#    0.000    0.000    0.000    0.000    0.000    0.000 
#
# Total GULP energy -495523.631557 kJ/mol
# GULP energy per Si atom -12388.090789 kJ/mol
# Density = 2.121918 g / cm^3
# Si number density = 21.267583 Si / 1000 Ang^3
#
#
#
# Elastic Constant Matrix: (Units=GPa)
#
#
# Indices 1 2 3 4 5 6 
#
# 1 117.7683 11.5991 35.9071 0.0000 0.0000 0.0000
# 2 11.5991 37.8510 13.4551 0.0000 0.0000 0.0000
# 3 35.9071 13.4551 141.4939 0.0000 0.0000 0.0000
# 4 0.0000 0.0000 0.0000 17.0300 0.0000 0.0000
# 5 0.0000 0.0000 0.0000 0.0000 33.3399 0.0000
# 6 0.0000 0.0000 0.0000 0.0000 0.0000 27.9706
#
#
#
# Elastic Compliance Matrix: (Units=1/GPa)
#
#
# Indices 1 2 3 4 5 6 
#
# 1 0.009361 -0.002095 -0.002176 0.000000 0.000000 0.000000
# 2 -0.002095 0.027813 -0.002113 0.000000 0.000000 0.000000
# 3 -0.002176 -0.002113 0.007821 0.000000 0.000000 0.000000
# 4 0.000000 0.000000 0.000000 0.058720 0.000000 0.000000
# 5 0.000000 0.000000 0.000000 0.000000 0.029994 0.000000
# 6 0.000000 0.000000 0.000000 0.000000 0.000000 0.035752
#
#
# Mechanical properties :
#
#
# Convention : Reuss Voigt Hill
#
# Bulk Modulus (GPa) = 31.03144 46.55953 38.79549
# Shear Modulus (GPa) = 25.91063 31.41157 28.66110
#
# Velocity S-wave (km/s) = 3.49422 3.84731 3.67501
# Velocity P-wave (km/s) = 5.55897 6.45565 6.02402
#
# Compressibility (1/GPa) = 0.03222538
#
# Stress axis : x y z
#
# Youngs Moduli (GPa) = 106.82447 35.95502 127.86595
#
# Poissons Ratio (x) = 0.07533 0.27828
# Poissons Ratio (y) = 0.22380 0.27020
# Poissons Ratio (z) = 0.23249 0.07598
#
# Static dielectric constant tensor:
#      x y z
#    x 3.874810 0.000000 0.000000 
#    y 0.000000 4.000420 0.000000 
#    z 0.000000 0.000000 4.509510 
# 
# 
# High freq. dielectric constant tensor:
#      x y z
#    x 1.808690 0.000000 0.000000 
#    y 0.000000 1.839670 0.000000 
#    z 0.000000 0.000000 1.856290 
# 
# From -- ./inp_files/6082.got.cif
#   From: 2010.03.12/outbox.cif.g09.slc.cpg/sg62_4_cif.got.tgz:6082.got - 2010.04.10 19:12:36.
