data_PCOD8254035
_publ_section_title
;
Structure prediction by ZEFSAII (Michael W. Deem and Ramdas Pophale) SiO2 
 PCOD8254035
Probable space group: P N M A
;
_chemical_formula_sum "Si O2"
_cell_formula_units_Z 64
_cell_length_a 14.029170
_cell_length_b 20.004347
_cell_length_c 10.624262
_cell_angle_alpha 90.000000
_cell_angle_beta 90.000000
_cell_angle_gamma 90.000000
_cell_volume 2981.639473
_symmetry_space_group_name_H-M "P N M A"
_symmetry_group_IT_number 62
_symmetry_cell_setting 'orthorhombic'
loop_
_space_group_symop_operation_xyz
x,y,z
1/2-x,-y,1/2+z
1/2+x,1/2-y,1/2-z
-x,1/2+y,-z
-x,-y,-z
1/2+x,y,1/2-z
1/2-x,1/2+y,1/2+z
x,1/2-y,z
loop_
_atom_site_type_symbol
_atom_site_label
_atom_site_fract_x
_atom_site_fract_y
_atom_site_fract_z
Si Si1 0.133536 0.436833 0.250182
Si Si2 0.463189 0.824070 0.326208
Si Si3 0.158034 0.825843 0.459739
Si Si4 0.650597 0.178959 0.420674
Si Si5 0.287406 0.887315 0.251856
Si Si6 0.660044 0.530964 0.681640
Si Si7 0.528936 0.563642 0.920682
Si Si8 0.376372 0.429199 0.598327
O O1 0.104041 0.381832 0.149443
O O2 0.242324 0.430116 0.292360
O O3 0.103900 0.507405 0.188324
O O4 0.072938 0.413905 0.369683
O O5 0.502629 0.750000 0.291263
O O6 0.391204 0.820051 0.441034
O O7 0.388200 0.850330 0.219185
O O8 0.550879 0.872247 0.355954
O O9 0.116851 0.750000 0.448137
O O10 0.235167 0.829237 0.571262
O O11 0.208211 0.845509 0.328876
O O12 0.074352 0.878477 0.492292
O O13 0.626816 0.250000 0.353908
O O14 0.233628 0.906745 0.121899
O O15 0.315870 0.952747 0.333631
O O16 0.593069 0.543985 0.800681
O O17 0.611997 0.555012 0.550110
O O18 0.500000 0.500000 0.000000
#
# Coordination Sequence:
#
# PCOD8254035 Si02
#       8
#     8   8   8   8   8   8   8   8
#     4  11  23  38  66  95 130 171 213 274 334 397
#     4  10  21  38  62  91 125 171 220 262 321 396
#     4  10  21  42  66  92 133 178 220 269 330 401
#     4   9  18  37  64  90 123 167 212 256 318 393
#     4  10  22  38  67  94 127 174 217 272 333 400
#     4  11  24  41  65  98 138 165 222 283 334 392
#     4  12  25  40  65 102 133 177 226 275 334 401
#     4  11  23  41  63  96 131 172 215 281 334 395
#
# _framework density 21.464701000000002
#
# number of rings (size 3 to 8) (size 9 to 14) (size 15 to 20)
#    0.000    1.500    1.250    5.625    5.250    3.000 
#    0.000    1.250    0.000    0.750    0.000    0.000 
#    0.000    0.000    0.000    0.000    0.000    0.000 
#
# Total GULP energy -792995.376817 kJ/mol
# GULP energy per Si atom -12390.552763 kJ/mol
# Density = 2.141585 g / cm^3
# Si number density = 21.464701 Si / 1000 Ang^3
#
#
#
# Elastic Constant Matrix: (Units=GPa)
#
#
# Indices 1 2 3 4 5 6 
#
# 1 107.1859 44.0379 33.3939 0.0000 0.0000 0.0000
# 2 44.0379 138.3262 17.5486 0.0000 0.0000 0.0000
# 3 33.3939 17.5486 55.7327 0.0000 0.0000 0.0000
# 4 0.0000 0.0000 0.0000 15.6933 0.0000 0.0000
# 5 0.0000 0.0000 0.0000 0.0000 36.0660 0.0000
# 6 0.0000 0.0000 0.0000 0.0000 0.0000 40.5875
#
#
#
# Elastic Compliance Matrix: (Units=1/GPa)
#
#
# Indices 1 2 3 4 5 6 
#
# 1 0.012704 -0.003207 -0.006602 0.000000 0.000000 0.000000
# 2 -0.003207 0.008340 -0.000704 0.000000 0.000000 0.000000
# 3 -0.006602 -0.000704 0.022121 0.000000 0.000000 0.000000
# 4 0.000000 0.000000 0.000000 0.063721 0.000000 0.000000
# 5 0.000000 0.000000 0.000000 0.000000 0.027727 0.000000
# 6 0.000000 0.000000 0.000000 0.000000 0.000000 0.024638
#
#
# Mechanical properties :
#
#
# Convention : Reuss Voigt Hill
#
# Bulk Modulus (GPa) = 45.17307 54.57842 49.87574
# Shear Modulus (GPa) = 26.64439 32.22034 29.43236
#
# Velocity S-wave (km/s) = 3.52705 3.87859 3.70699
# Velocity P-wave (km/s) = 6.13822 6.74835 6.45050
#
# Compressibility (1/GPa) = 0.02213708
#
# Stress axis : x y z
#
# Youngs Moduli (GPa) = 78.71469 119.90969 45.20686
#
# Poissons Ratio (x) = 0.38454 0.29847
# Poissons Ratio (y) = 0.25243 0.03184
# Poissons Ratio (z) = 0.51970 0.08446
#
# Static dielectric constant tensor:
#      x y z
#    x 4.032370 0.000000 0.000000 
#    y 0.000000 4.158240 0.000000 
#    z 0.000000 0.000000 3.652000 
# 
# 
# High freq. dielectric constant tensor:
#      x y z
#    x 1.853950 0.000000 0.000000 
#    y 0.000000 1.846680 0.000000 
#    z 0.000000 0.000000 1.821520 
# 
# From -- ./inp_files/13564.got.cif
#   From: 2010.03.12/outbox.cif.g09.slc.cpg/sg62_7_cif.got.tgz:13564.got - 2010.04.10 19:12:36.
