data_PCOD8254782
_publ_section_title
;
Structure prediction by ZEFSAII (Michael W. Deem and Ramdas Pophale) SiO2 
 PCOD8254782
Probable space group: P N M A
;
_chemical_formula_sum "Si O2"
_cell_formula_units_Z 32
_cell_length_a 14.959354
_cell_length_b 12.530967
_cell_length_c 8.530713
_cell_angle_alpha 90.000000
_cell_angle_beta 90.000000
_cell_angle_gamma 90.000000
_cell_volume 1599.126267
_symmetry_space_group_name_H-M "P N M A"
_symmetry_group_IT_number 62
_symmetry_cell_setting 'orthorhombic'
loop_
_space_group_symop_operation_xyz
x,y,z
1/2-x,-y,1/2+z
1/2+x,1/2-y,1/2-z
-x,1/2+y,-z
-x,-y,-z
1/2+x,y,1/2-z
1/2-x,1/2+y,1/2+z
x,1/2-y,z
loop_
_atom_site_type_symbol
_atom_site_label
_atom_site_fract_x
_atom_site_fract_y
_atom_site_fract_z
Si Si1 0.983459 0.934521 0.259074
Si Si2 0.814547 0.875730 0.076042
Si Si3 0.454325 0.632169 0.904971
Si Si4 0.172509 0.504004 0.230750
O O1 0.916638 0.901733 0.121744
O O2 0.968780 0.858459 0.408868
O O3 0.970061 0.057211 0.322217
O O4 0.084610 0.923589 0.190808
O O5 0.800478 0.750000 0.051940
O O6 0.750501 0.918012 0.212996
O O7 0.791824 0.938111 0.917544
O O8 0.461481 0.750000 0.831855
O O9 0.356734 0.581440 0.865434
#
# Coordination Sequence:
#
# PCOD8254782 Si02
#       4
#     8   8   8   8
#     4   9  21  39  61  92 126 154 211 256 294 379
#     4  12  24  41  65  89 124 169 205 258 317 360
#     4   9  18  38  64  88 123 163 195 249 313 358
#     4  10  23  41  59  95 125 156 213 258 295 382
#
# _framework density 20.010926999999999
#
# number of rings (size 3 to 8) (size 9 to 14) (size 15 to 20)
#    1.500    0.500    0.000    3.750    0.000    2.000 
#    0.000    3.750    0.000    0.000    0.000    0.000 
#    0.000    0.000    0.000    0.000    0.000    0.000 
#
# Total GULP energy -396509.693019 kJ/mol
# GULP energy per Si atom -12390.927907 kJ/mol
# Density = 1.996538 g / cm^3
# Si number density = 20.010927 Si / 1000 Ang^3
#
#
#
# Elastic Constant Matrix: (Units=GPa)
#
#
# Indices 1 2 3 4 5 6 
#
# 1 102.5561 47.0809 31.4550 0.0000 0.0000 0.0000
# 2 47.0809 104.2110 30.4987 0.0000 0.0000 0.0000
# 3 31.4550 30.4987 78.2839 0.0000 0.0000 0.0000
# 4 0.0000 0.0000 0.0000 22.6234 0.0000 0.0000
# 5 0.0000 0.0000 0.0000 0.0000 33.5606 0.0000
# 6 0.0000 0.0000 0.0000 0.0000 0.0000 17.7686
#
#
#
# Elastic Compliance Matrix: (Units=1/GPa)
#
#
# Indices 1 2 3 4 5 6 
#
# 1 0.013024 -0.004913 -0.003319 0.000000 0.000000 0.000000
# 2 -0.004913 0.012684 -0.002968 0.000000 0.000000 0.000000
# 3 -0.003319 -0.002968 0.015264 0.000000 0.000000 0.000000
# 4 0.000000 0.000000 0.000000 0.044202 0.000000 0.000000
# 5 0.000000 0.000000 0.000000 0.000000 0.029797 0.000000
# 6 0.000000 0.000000 0.000000 0.000000 0.000000 0.056279
#
#
# Mechanical properties :
#
#
# Convention : Reuss Voigt Hill
#
# Bulk Modulus (GPa) = 53.84203 55.90225 54.87214
# Shear Modulus (GPa) = 25.02005 26.52494 25.77249
#
# Velocity S-wave (km/s) = 3.53982 3.64472 3.59266
# Velocity P-wave (km/s) = 6.60847 6.76081 6.68507
#
# Compressibility (1/GPa) = 0.01857285
#
# Stress axis : x y z
#
# Youngs Moduli (GPa) = 76.78079 78.84019 65.51424
#
# Poissons Ratio (x) = 0.38732 0.21746
# Poissons Ratio (y) = 0.37720 0.19442
# Poissons Ratio (z) = 0.25485 0.23397
#
# Static dielectric constant tensor:
#      x y z
#    x 3.404520 0.000000 0.000000 
#    y 0.000000 3.466900 0.000000 
#    z 0.000000 0.000000 3.394900 
# 
# 
# High freq. dielectric constant tensor:
#      x y z
#    x 1.761910 0.000000 0.000000 
#    y 0.000000 1.774590 0.000000 
#    z 0.000000 0.000000 1.772420 
# 
# From -- ./inp_files/5781.got.cif
#   From: 2010.03.12/outbox.cif.g09.slc.cpg/sg62_3_cif.got.tgz:5781.got - 2010.04.10 19:12:36.
