data_PCOD8254819
_publ_section_title
;
Structure prediction by ZEFSAII (Michael W. Deem and Ramdas Pophale) SiO2 
 PCOD8254819
Probable space group: P N M A
;
_chemical_formula_sum "Si O2"
_cell_formula_units_Z 64
_cell_length_a 9.144219
_cell_length_b 18.786881
_cell_length_c 18.353659
_cell_angle_alpha 90.000000
_cell_angle_beta 90.000000
_cell_angle_gamma 90.000000
_cell_volume 3152.999934
_symmetry_space_group_name_H-M "P N M A"
_symmetry_group_IT_number 62
_symmetry_cell_setting 'orthorhombic'
loop_
_space_group_symop_operation_xyz
x,y,z
1/2-x,-y,1/2+z
1/2+x,1/2-y,1/2-z
-x,1/2+y,-z
-x,-y,-z
1/2+x,y,1/2-z
1/2-x,1/2+y,1/2+z
x,1/2-y,z
loop_
_atom_site_type_symbol
_atom_site_label
_atom_site_fract_x
_atom_site_fract_y
_atom_site_fract_z
Si Si1 0.544227 0.331572 0.468442
Si Si2 0.421878 0.889306 0.268830
Si Si3 0.407854 0.034723 0.201291
Si Si4 0.875904 0.951670 0.086361
Si Si5 0.077428 0.435188 0.156112
Si Si6 0.779850 0.670852 0.486332
Si Si7 0.709867 0.671530 0.328406
Si Si8 0.591129 0.457432 0.058357
O O1 0.606814 0.250000 0.479403
O O2 0.600487 0.388234 0.528532
O O3 0.585472 0.361398 0.388648
O O4 0.370815 0.327548 0.470409
O O5 0.328204 0.912366 0.339283
O O6 0.344925 0.823286 0.228316
O O7 0.586665 0.876373 0.292569
O O8 0.422442 0.950424 0.208567
O O9 0.465454 0.072438 0.275638
O O10 0.238911 0.051915 0.187028
O O11 0.509725 0.055253 0.134017
O O12 0.747645 0.004607 0.063548
O O13 0.020961 0.000545 0.102308
O O14 0.848019 0.750000 0.480945
O O15 0.755921 0.638490 0.405524
O O16 0.893314 0.622216 0.528551
O O17 0.645917 0.750000 0.342900
O O18 0.500000 0.500000 0.000000
#
# Coordination Sequence:
#
# PCOD8254819 Si02
#       8
#     8   8   8   8   8   8   8   8
#     4  11  23  41  67  96 126 172 224 271 331 398
#     4  11  21  37  59  88 124 163 202 261 316 380
#     4  11  24  40  65  98 129 165 218 275 328 396
#     4  11  22  39  66  94 126 168 213 266 322 386
#     4  11  23  43  68  96 130 168 217 271 334 390
#     4  10  23  42  64  91 128 173 219 270 328 394
#     4  11  22  37  58  87 125 169 210 250 316 392
#     4  12  24  39  65 100 130 169 218 270 328 385
#
# _framework density 20.29813
#
# number of rings (size 3 to 8) (size 9 to 14) (size 15 to 20)
#    0.000    1.000    2.500    6.000    1.750    0.500 
#    0.000    3.750    0.000    0.000    0.000    0.000 
#    0.000    0.000    0.000    0.000    0.000    0.000 
#
# Total GULP energy -793349.366773 kJ/mol
# GULP energy per Si atom -12396.083856 kJ/mol
# Density = 2.025193 g / cm^3
# Si number density = 20.298130 Si / 1000 Ang^3
#
#
#
# Elastic Constant Matrix: (Units=GPa)
#
#
# Indices 1 2 3 4 5 6 
#
# 1 101.8208 60.3919 59.7217 0.0000 0.0000 0.0000
# 2 60.3919 97.0648 71.7763 0.0000 0.0000 0.0000
# 3 59.7217 71.7763 129.8319 0.0000 0.0000 0.0000
# 4 0.0000 0.0000 0.0000 31.0316 0.0000 0.0000
# 5 0.0000 0.0000 0.0000 0.0000 38.4405 0.0000
# 6 0.0000 0.0000 0.0000 0.0000 0.0000 23.8332
#
#
#
# Elastic Compliance Matrix: (Units=1/GPa)
#
#
# Indices 1 2 3 4 5 6 
#
# 1 0.016316 -0.007784 -0.003202 0.000000 0.000000 0.000000
# 2 -0.007784 0.021140 -0.008106 0.000000 0.000000 0.000000
# 3 -0.003202 -0.008106 0.013657 0.000000 0.000000 0.000000
# 4 0.000000 0.000000 0.000000 0.032225 0.000000 0.000000
# 5 0.000000 0.000000 0.000000 0.000000 0.026014 0.000000
# 6 0.000000 0.000000 0.000000 0.000000 0.000000 0.041958
#
#
# Mechanical properties :
#
#
# Convention : Reuss Voigt Hill
#
# Bulk Modulus (GPa) = 77.35125 79.16636 78.25881
# Shear Modulus (GPa) = 25.79928 27.78291 26.79110
#
# Velocity S-wave (km/s) = 3.56900 3.70367 3.63696
# Velocity P-wave (km/s) = 7.42792 7.57469 7.50167
#
# Compressibility (1/GPa) = 0.01292804
#
# Stress axis : x y z
#
# Youngs Moduli (GPa) = 61.28967 47.30439 73.22358
#
# Poissons Ratio (x) = 0.36820 0.23447
# Poissons Ratio (y) = 0.47706 0.59358
# Poissons Ratio (z) = 0.19626 0.38347
#
# Static dielectric constant tensor:
#      x y z
#    x 3.596160 0.000000 0.000000 
#    y 0.000000 3.506500 0.000000 
#    z 0.000000 0.000000 4.300430 
# 
# 
# High freq. dielectric constant tensor:
#      x y z
#    x 1.783070 0.000000 0.000000 
#    y 0.000000 1.786350 0.000000 
#    z 0.000000 0.000000 1.809250 
# 
# From -- ./inp_files/22567.got.cif
#   From: 2010.03.12/outbox.cif.g09.slc.cpg/sg62_12_cif.got.tgz:22567.got - 2010.04.10 19:12:36.
