data_PCOD8254970
_publ_section_title
;
Structure prediction by ZEFSAII (Michael W. Deem and Ramdas Pophale) SiO2 
 PCOD8254970
Probable space group: P N M A
;
_chemical_formula_sum "Si O2"
_cell_formula_units_Z 48
_cell_length_a 9.954139
_cell_length_b 16.245410
_cell_length_c 17.020070
_cell_angle_alpha 90.000000
_cell_angle_beta 90.000000
_cell_angle_gamma 90.000000
_cell_volume 2752.299678
_symmetry_space_group_name_H-M "P N M A"
_symmetry_group_IT_number 62
_symmetry_cell_setting 'orthorhombic'
loop_
_space_group_symop_operation_xyz
x,y,z
1/2-x,-y,1/2+z
1/2+x,1/2-y,1/2-z
-x,1/2+y,-z
-x,-y,-z
1/2+x,y,1/2-z
1/2-x,1/2+y,1/2+z
x,1/2-y,z
loop_
_atom_site_type_symbol
_atom_site_label
_atom_site_fract_x
_atom_site_fract_y
_atom_site_fract_z
Si Si1 0.763526 0.979620 0.571191
Si Si2 0.580023 0.156795 0.975993
Si Si3 0.177921 0.156804 0.201152
Si Si4 0.180112 0.602438 0.554406
Si Si5 0.023163 0.467067 0.649902
Si Si6 0.905599 0.439168 0.208739
O O1 0.822138 0.896571 0.531615
O O2 0.626546 0.961798 0.618437
O O3 0.730955 0.048324 0.505695
O O4 0.865864 0.020600 0.633524
O O5 0.634976 0.250000 0.971299
O O6 0.575913 0.118612 0.887544
O O7 0.427999 0.158963 0.009369
O O8 0.178109 0.250000 0.231369
O O9 0.221710 0.155125 0.109537
O O10 0.275332 0.104930 0.256217
O O11 0.028729 0.123130 0.211285
O O12 0.095657 0.541598 0.607528
O O13 0.056935 0.477081 0.742577
#
# Coordination Sequence:
#
# PCOD8254970 Si02
#       6
#     8   8   8   8   8   8
#     4   9  17  32  51  74  98 128 177 206 244 302
#     4   9  16  29  54  77  99 129 169 218 251 287
#     4  11  22  33  48  75 106 133 163 203 259 304
#     4   8  17  32  50  72  99 130 166 207 247 304
#     4   8  16  32  48  72 100 133 173 201 240 307
#     4  11  20  34  51  73 104 140 165 206 245 301
#
# _framework density 17.439961
#
# number of rings (size 3 to 8) (size 9 to 14) (size 15 to 20)
#    0.000    2.667    1.667    3.000    0.000    2.000 
#    0.000    0.000    0.000    5.000    0.000    0.000 
#    0.000    0.000    0.000    0.000    0.000    0.000 
#
# Total GULP energy -594876.633665 kJ/mol
# GULP energy per Si atom -12393.263201 kJ/mol
# Density = 1.740027 g / cm^3
# Si number density = 17.439961 Si / 1000 Ang^3
#
#
#
# Elastic Constant Matrix: (Units=GPa)
#
#
# Indices 1 2 3 4 5 6 
#
# 1 43.5447 -1.1767 3.9071 0.0000 0.0000 0.0000
# 2 -1.1767 59.4465 19.9796 0.0000 0.0000 0.0000
# 3 3.9071 19.9796 55.3144 0.0000 0.0000 0.0000
# 4 0.0000 0.0000 0.0000 17.3799 0.0000 0.0000
# 5 0.0000 0.0000 0.0000 0.0000 25.9953 0.0000
# 6 0.0000 0.0000 0.0000 0.0000 0.0000 18.6970
#
#
#
# Elastic Compliance Matrix: (Units=1/GPa)
#
#
# Indices 1 2 3 4 5 6 
#
# 1 0.023180 0.001149 -0.002052 0.000000 0.000000 0.000000
# 2 0.001149 0.019203 -0.007017 0.000000 0.000000 0.000000
# 3 -0.002052 -0.007017 0.020758 0.000000 0.000000 0.000000
# 4 0.000000 0.000000 0.000000 0.057538 0.000000 0.000000
# 5 0.000000 0.000000 0.000000 0.000000 0.038468 0.000000
# 6 0.000000 0.000000 0.000000 0.000000 0.000000 0.053485
#
#
# Mechanical properties :
#
#
# Convention : Reuss Voigt Hill
#
# Bulk Modulus (GPa) = 21.14189 22.63616 21.88903
# Shear Modulus (GPa) = 20.47163 21.45413 20.96288
#
# Velocity S-wave (km/s) = 3.42984 3.51118 3.47075
# Velocity P-wave (km/s) = 5.27580 5.42637 5.35162
#
# Compressibility (1/GPa) = 0.04729945
#
# Stress axis : x y z
#
# Youngs Moduli (GPa) = 43.14044 52.07508 48.17403
#
# Poissons Ratio (x) = -0.05981 0.09886
# Poissons Ratio (y) = -0.04955 0.33805
# Poissons Ratio (z) = 0.08853 0.36542
#
# Static dielectric constant tensor:
#      x y z
#    x 3.131620 0.000000 0.000000 
#    y 0.000000 3.054620 0.000000 
#    z 0.000000 0.000000 3.693590 
# 
# 
# High freq. dielectric constant tensor:
#      x y z
#    x 1.656110 0.000000 0.000000 
#    y 0.000000 1.650410 0.000000 
#    z 0.000000 0.000000 1.670180 
# 
# From -- ./inp_files/22197.got.cif
#   From: 2010.03.12/outbox.cif.g09.slc.cpg/sg62_12_cif.got.tgz:22197.got - 2010.04.10 19:12:36.
