data_PCOD8254961
_publ_section_title
;
Structure prediction by ZEFSAII (Michael W. Deem and Ramdas Pophale) SiO2 
 PCOD8254961
Probable space group: P N M A
;
_chemical_formula_sum "Si O2"
_cell_formula_units_Z 48
_cell_length_a 8.606686
_cell_length_b 31.117173
_cell_length_c 8.834385
_cell_angle_alpha 90.000000
_cell_angle_beta 90.000000
_cell_angle_gamma 90.000000
_cell_volume 2365.987332
_symmetry_space_group_name_H-M "P N M A"
_symmetry_group_IT_number 62
_symmetry_cell_setting 'orthorhombic'
loop_
_space_group_symop_operation_xyz
x,y,z
1/2-x,-y,1/2+z
1/2+x,1/2-y,1/2-z
-x,1/2+y,-z
-x,-y,-z
1/2+x,y,1/2-z
1/2-x,1/2+y,1/2+z
x,1/2-y,z
loop_
_atom_site_type_symbol
_atom_site_label
_atom_site_fract_x
_atom_site_fract_y
_atom_site_fract_z
Si Si1 0.386940 0.621331 0.653443
Si Si2 0.455731 0.378559 0.039521
Si Si3 0.171467 0.080749 0.681430
Si Si4 0.017051 0.548666 0.045946
Si Si5 0.461474 0.702632 0.456649
Si Si6 0.688371 0.670961 0.213570
O O1 0.415037 0.629403 0.831381
O O2 0.490347 0.581776 0.592642
O O3 0.438543 0.666328 0.581415
O O4 0.207469 0.609868 0.619627
O O5 0.526718 0.416536 0.935704
O O6 0.432290 0.338216 0.925046
O O7 0.112472 0.056039 0.827743
O O8 0.309527 0.054491 0.606312
O O9 0.227944 0.126997 0.738522
O O10 0.000000 0.500000 0.000000
O O11 0.481304 0.750000 0.531083
O O12 0.612463 0.691787 0.359415
O O13 0.314830 0.704489 0.344974
#
# Coordination Sequence:
#
# PCOD8254961 Si02
#       6
#     8   8   8   8   8   8
#     4  11  23  42  61  97 132 170 217 272 335 382
#     4  11  22  39  72  89 129 178 213 267 333 389
#     4  12  20  45  68  93 128 173 222 274 324 395
#     4  12  25  42  67  95 130 174 218 271 337 397
#     4  11  22  38  65  98 131 170 222 272 326 394
#     4  11  19  40  68  91 127 174 220 265 326 384
#
# _framework density 20.287514999999999
#
# number of rings (size 3 to 8) (size 9 to 14) (size 15 to 20)
#    0.000    0.667    8.333    1.500    0.000    2.667 
#    0.000    6.667    0.000    0.000    0.000    0.000 
#    0.000    0.000    0.000    0.000    0.000    0.000 
#
# Total GULP energy -595069.116041 kJ/mol
# GULP energy per Si atom -12397.273251 kJ/mol
# Density = 2.024134 g / cm^3
# Si number density = 20.287515 Si / 1000 Ang^3
#
#
#
# Elastic Constant Matrix: (Units=GPa)
#
#
# Indices 1 2 3 4 5 6 
#
# 1 74.7990 34.0824 22.3467 0.0000 0.0000 0.0000
# 2 34.0824 149.7747 40.3275 0.0000 0.0000 0.0000
# 3 22.3467 40.3275 92.8857 0.0000 0.0000 0.0000
# 4 0.0000 0.0000 0.0000 41.6868 0.0000 0.0000
# 5 0.0000 0.0000 0.0000 0.0000 42.6334 0.0000
# 6 0.0000 0.0000 0.0000 0.0000 0.0000 23.9863
#
#
#
# Elastic Compliance Matrix: (Units=1/GPa)
#
#
# Indices 1 2 3 4 5 6 
#
# 1 0.015401 -0.002839 -0.002473 0.000000 0.000000 0.000000
# 2 -0.002839 0.008084 -0.002827 0.000000 0.000000 0.000000
# 3 -0.002473 -0.002827 0.012588 0.000000 0.000000 0.000000
# 4 0.000000 0.000000 0.000000 0.023988 0.000000 0.000000
# 5 0.000000 0.000000 0.000000 0.000000 0.023456 0.000000
# 6 0.000000 0.000000 0.000000 0.000000 0.000000 0.041691
#
#
# Mechanical properties :
#
#
# Convention : Reuss Voigt Hill
#
# Bulk Modulus (GPa) = 50.51375 56.77472 53.64424
# Shear Modulus (GPa) = 33.76467 36.37480 35.06974
#
# Velocity S-wave (km/s) = 4.08402 4.23894 4.16220
# Velocity P-wave (km/s) = 6.86964 7.21137 7.04258
#
# Compressibility (1/GPa) = 0.01979659
#
# Stress axis : x y z
#
# Youngs Moduli (GPa) = 64.92878 123.70397 79.44028
#
# Poissons Ratio (x) = 0.35119 0.19644
# Poissons Ratio (y) = 0.18433 0.22455
# Poissons Ratio (z) = 0.16055 0.34967
#
# Static dielectric constant tensor:
#      x y z
#    x 4.220090 0.000000 0.000000 
#    y 0.000000 3.563760 0.000000 
#    z 0.000000 0.000000 3.940600 
# 
# 
# High freq. dielectric constant tensor:
#      x y z
#    x 1.810300 0.000000 0.000000 
#    y 0.000000 1.766290 0.000000 
#    z 0.000000 0.000000 1.797350 
# 
# From -- ./inp_files/4511.got.cif
#   From: 2010.03.12/outbox.cif.g09.slc.cpg/sg62_3_cif.got.tgz:4511.got - 2010.04.10 19:12:36.
