data_PCOD8254556
_publ_section_title
;
Structure prediction by ZEFSAII (Michael W. Deem and Ramdas Pophale) SiO2 
 PCOD8254556
Probable space group: P N M A
;
_chemical_formula_sum "Si O2"
_cell_formula_units_Z 40
_cell_length_a 10.015924
_cell_length_b 23.883269
_cell_length_c 8.587300
_cell_angle_alpha 90.000000
_cell_angle_beta 90.000000
_cell_angle_gamma 90.000000
_cell_volume 2054.193857
_symmetry_space_group_name_H-M "P N M A"
_symmetry_group_IT_number 62
_symmetry_cell_setting 'orthorhombic'
loop_
_space_group_symop_operation_xyz
x,y,z
1/2-x,-y,1/2+z
1/2+x,1/2-y,1/2-z
-x,1/2+y,-z
-x,-y,-z
1/2+x,y,1/2-z
1/2-x,1/2+y,1/2+z
x,1/2-y,z
loop_
_atom_site_type_symbol
_atom_site_label
_atom_site_fract_x
_atom_site_fract_y
_atom_site_fract_z
Si Si1 0.880831 0.651136 0.170006
Si Si2 0.065069 0.250000 0.065251
Si Si3 0.359293 0.250000 0.165126
Si Si4 0.618408 0.533415 0.929717
Si Si5 0.383227 0.521404 0.396681
Si Si6 0.089556 0.653893 0.432934
O O1 0.912549 0.586443 0.136403
O O2 0.719867 0.659328 0.180508
O O3 0.955321 0.663678 0.332618
O O4 0.936385 0.693666 0.039327
O O5 0.929088 0.250000 0.165731
O O6 0.197071 0.250000 0.176169
O O7 0.411154 0.302444 0.070371
O O8 0.627363 0.519989 0.748708
O O9 0.500000 0.500000 0.000000
O O10 0.750949 0.511184 0.007852
O O11 0.592294 0.597451 0.968650
O O12 0.500000 0.500000 0.500000
#
# Coordination Sequence:
#
# PCOD8254556 Si02
#       6
#     8   4   4   8   8   8
#     4  10  22  40  62  88 121 160 201 251 302 367
#     4  10  23  42  62  90 122 156 207 252 308 360
#     4  10  23  42  60  90 122 156 205 258 304 358
#     4  11  22  40  61  90 125 162 203 252 304 364
#     4  11  24  39  61  91 124 162 207 253 303 368
#     4  10  22  40  63  89 122 159 205 251 302 365
#
# _framework density 19.472359000000001
#
# number of rings (size 3 to 8) (size 9 to 14) (size 15 to 20)
#    0.000    1.600    2.000    1.800    5.600    1.600 
#    3.600    0.000    0.000    0.000    0.000    0.000 
#    0.000    0.000    0.000    0.000    0.000    0.000 
#
# Total GULP energy -495825.835559 kJ/mol
# GULP energy per Si atom -12395.645889 kJ/mol
# Density = 1.942804 g / cm^3
# Si number density = 19.472359 Si / 1000 Ang^3
#
#
#
# Elastic Constant Matrix: (Units=GPa)
#
#
# Indices 1 2 3 4 5 6 
#
# 1 80.5266 56.0661 46.2852 0.0000 0.0000 0.0000
# 2 56.0661 104.1355 51.7185 0.0000 0.0000 0.0000
# 3 46.2852 51.7185 118.8992 0.0000 0.0000 0.0000
# 4 0.0000 0.0000 0.0000 18.6459 0.0000 0.0000
# 5 0.0000 0.0000 0.0000 0.0000 48.4115 0.0000
# 6 0.0000 0.0000 0.0000 0.0000 0.0000 26.3632
#
#
#
# Elastic Compliance Matrix: (Units=1/GPa)
#
#
# Indices 1 2 3 4 5 6 
#
# 1 0.021417 -0.009426 -0.004237 0.000000 0.000000 0.000000
# 2 -0.009426 0.016398 -0.003463 0.000000 0.000000 0.000000
# 3 -0.004237 -0.003463 0.011566 0.000000 0.000000 0.000000
# 4 0.000000 0.000000 0.000000 0.053631 0.000000 0.000000
# 5 0.000000 0.000000 0.000000 0.000000 0.020656 0.000000
# 6 0.000000 0.000000 0.000000 0.000000 0.000000 0.037932
#
#
# Mechanical properties :
#
#
# Convention : Reuss Voigt Hill
#
# Bulk Modulus (GPa) = 66.10295 67.96677 67.03486
# Shear Modulus (GPa) = 24.88858 28.65021 26.76940
#
# Velocity S-wave (km/s) = 3.57900 3.83995 3.71177
# Velocity P-wave (km/s) = 7.14841 7.39191 7.27118
#
# Compressibility (1/GPa) = 0.01512792
#
# Stress axis : x y z
#
# Youngs Moduli (GPa) = 46.69290 60.98294 86.45863
#
# Poissons Ratio (x) = 0.57485 0.36631
# Poissons Ratio (y) = 0.44015 0.29943
# Poissons Ratio (z) = 0.19783 0.21120
#
# Static dielectric constant tensor:
#      x y z
#    x 4.074570 0.000000 0.000000 
#    y 0.000000 3.576960 0.000000 
#    z 0.000000 0.000000 3.249870 
# 
# 
# High freq. dielectric constant tensor:
#      x y z
#    x 1.771380 0.000000 0.000000 
#    y 0.000000 1.778130 0.000000 
#    z 0.000000 0.000000 1.751360 
# 
# From -- ./inp_files/4318.got.cif
#   From: 2010.03.12/outbox.cif.g09.slc.cpg/sg62_3_cif.got.tgz:4318.got - 2010.04.10 19:12:36.
