data_PCOD8254920
_publ_section_title
;
Structure prediction by ZEFSAII (Michael W. Deem and Ramdas Pophale) SiO2 
 PCOD8254920
Probable space group: P N M A
;
_chemical_formula_sum "Si O2"
_cell_formula_units_Z 40
_cell_length_a 19.097348
_cell_length_b 9.408613
_cell_length_c 10.392727
_cell_angle_alpha 90.000000
_cell_angle_beta 90.000000
_cell_angle_gamma 90.000000
_cell_volume 1867.360580
_symmetry_space_group_name_H-M "P N M A"
_symmetry_group_IT_number 62
_symmetry_cell_setting 'orthorhombic'
loop_
_space_group_symop_operation_xyz
x,y,z
1/2-x,-y,1/2+z
1/2+x,1/2-y,1/2-z
-x,1/2+y,-z
-x,-y,-z
1/2+x,y,1/2-z
1/2-x,1/2+y,1/2+z
x,1/2-y,z
loop_
_atom_site_type_symbol
_atom_site_label
_atom_site_fract_x
_atom_site_fract_y
_atom_site_fract_z
Si Si1 0.416928 0.089200 0.737570
Si Si2 0.723762 0.590137 0.135231
Si Si3 0.800841 0.083796 0.350953
Si Si4 0.574317 0.089166 0.777063
Si Si5 0.429628 0.587992 0.509773
O O1 0.426360 0.250000 0.684672
O O2 0.360798 0.081982 0.851724
O O3 0.493558 0.035805 0.784559
O O4 0.385932 0.990293 0.622181
O O5 0.749486 0.750000 0.169528
O O6 0.758958 0.480213 0.231402
O O7 0.740144 0.555649 0.985575
O O8 0.810458 0.250000 0.326490
O O9 0.877660 0.013007 0.362546
O O10 0.579479 0.250000 0.829686
O O11 0.606051 0.082590 0.630790
O O12 0.500000 0.500000 0.500000
O O13 0.443709 0.750000 0.551485
#
# Coordination Sequence:
#
# PCOD8254920 Si02
#       5
#     8   8   8   8   8
#     4   9  19  37  61  88 120 160 201 248 307 362
#     4  10  24  45  64  88 125 162 203 257 308 364
#     4  11  25  42  63  91 122 162 208 252 307 370
#     4   9  19  36  59  88 123 159 198 250 306 360
#     4   9  17  30  52  85 122 157 195 241 293 353
#
# _framework density 21.42061
#
# number of rings (size 3 to 8) (size 9 to 14) (size 15 to 20)
#    0.000    2.400    0.000    2.400    2.800    7.200 
#    0.000    0.000    0.000    0.000    0.000    0.000 
#    0.000    0.000    0.000    0.000    0.000    0.000 
#
# Total GULP energy -495792.311285 kJ/mol
# GULP energy per Si atom -12394.807782 kJ/mol
# Density = 2.137186 g / cm^3
# Si number density = 21.420610 Si / 1000 Ang^3
#
#
#
# Elastic Constant Matrix: (Units=GPa)
#
#
# Indices 1 2 3 4 5 6 
#
# 1 64.6368 32.3682 26.1336 0.0000 0.0000 0.0000
# 2 32.3682 121.2950 54.1905 0.0000 0.0000 0.0000
# 3 26.1336 54.1905 83.4020 0.0000 0.0000 0.0000
# 4 0.0000 0.0000 0.0000 32.9427 0.0000 0.0000
# 5 0.0000 0.0000 0.0000 0.0000 29.5376 0.0000
# 6 0.0000 0.0000 0.0000 0.0000 0.0000 29.7178
#
#
#
# Elastic Compliance Matrix: (Units=1/GPa)
#
#
# Indices 1 2 3 4 5 6 
#
# 1 0.018623 -0.003329 -0.003672 0.000000 0.000000 0.000000
# 2 -0.003329 0.012212 -0.006891 0.000000 0.000000 0.000000
# 3 -0.003672 -0.006891 0.017619 0.000000 0.000000 0.000000
# 4 0.000000 0.000000 0.000000 0.030356 0.000000 0.000000
# 5 0.000000 0.000000 0.000000 0.000000 0.033855 0.000000
# 6 0.000000 0.000000 0.000000 0.000000 0.000000 0.033650
#
#
# Mechanical properties :
#
#
# Convention : Reuss Voigt Hill
#
# Bulk Modulus (GPa) = 48.38500 54.96872 51.67686
# Shear Modulus (GPa) = 27.62609 28.88238 28.25424
#
# Velocity S-wave (km/s) = 3.59513 3.67597 3.63577
# Velocity P-wave (km/s) = 6.31430 6.61319 6.46547
#
# Compressibility (1/GPa) = 0.02066756
#
# Stress axis : x y z
#
# Youngs Moduli (GPa) = 53.69729 81.88986 56.75843
#
# Poissons Ratio (x) = 0.27260 0.20844
# Poissons Ratio (y) = 0.17875 0.39114
# Poissons Ratio (z) = 0.19720 0.56433
#
# Static dielectric constant tensor:
#      x y z
#    x 3.813150 0.000000 0.000000 
#    y 0.000000 4.080790 0.000000 
#    z 0.000000 0.000000 4.221600 
# 
# 
# High freq. dielectric constant tensor:
#      x y z
#    x 1.840650 0.000000 0.000000 
#    y 0.000000 1.839160 0.000000 
#    z 0.000000 0.000000 1.825960 
# 
# From -- ./inp_files/14605.got.cif
#   From: 2010.03.12/outbox.cif.g09.slc.cpg/sg62_8_cif.got.tgz:14605.got - 2010.04.10 19:12:36.
