data_PCOD8254032
_publ_section_title
;
Structure prediction by ZEFSAII (Michael W. Deem and Ramdas Pophale) SiO2 
 PCOD8254032
Probable space group: P N M A
;
_chemical_formula_sum "Si O2"
_cell_formula_units_Z 48
_cell_length_a 30.066356
_cell_length_b 8.572957
_cell_length_c 9.039512
_cell_angle_alpha 90.000000
_cell_angle_beta 90.000000
_cell_angle_gamma 90.000000
_cell_volume 2330.002712
_symmetry_space_group_name_H-M "P N M A"
_symmetry_group_IT_number 62
_symmetry_cell_setting 'orthorhombic'
loop_
_space_group_symop_operation_xyz
x,y,z
1/2-x,-y,1/2+z
1/2+x,1/2-y,1/2-z
-x,1/2+y,-z
-x,-y,-z
1/2+x,y,1/2-z
1/2-x,1/2+y,1/2+z
x,1/2-y,z
loop_
_atom_site_type_symbol
_atom_site_label
_atom_site_fract_x
_atom_site_fract_y
_atom_site_fract_z
Si Si1 0.451384 0.569290 0.672814
Si Si2 0.216014 0.431927 0.843036
Si Si3 0.127245 0.068953 0.671936
Si Si4 0.447516 0.069093 0.363273
Si Si5 0.701411 0.069370 0.318118
Si Si6 0.623368 0.569899 0.142578
O O1 0.442077 0.750000 0.703027
O O2 0.503040 0.524518 0.690451
O O3 0.434364 0.529217 0.508052
O O4 0.425243 0.469710 0.794489
O O5 0.226951 0.250000 0.820000
O O6 0.171272 0.481077 0.759281
O O7 0.255783 0.534779 0.780478
O O8 0.211363 0.476342 0.013815
O O9 0.116785 0.250000 0.695225
O O10 0.085817 0.969787 0.731176
O O11 0.134373 0.032943 0.500355
O O12 0.445110 0.250000 0.405733
O O13 0.688481 0.250000 0.303529
O O14 0.659783 0.967090 0.266838
O O15 0.625295 0.750000 0.097995
#
# Coordination Sequence:
#
# PCOD8254032 Si02
#       6
#     8   8   8   8   8   8
#     4  10  21  39  62  88 120 158 200 245 297 356
#     4  10  23  41  61  88 119 154 196 240 290 351
#     4  11  23  40  62  87 121 161 200 245 298 356
#     4  10  21  38  62  91 121 155 198 247 297 352
#     4  11  23  40  63  89 119 154 194 242 296 355
#     4  12  25  40  60  87 120 156 200 251 300 354
#
# _framework density 20.600835
#
# number of rings (size 3 to 8) (size 9 to 14) (size 15 to 20)
#    0.000    1.333    0.000    5.500    0.000    9.333 
#    0.000    0.000    0.000    0.000    0.000    0.000 
#    0.000    0.000    0.000    0.000    0.000    0.000 
#
# Total GULP energy -595638.732089 kJ/mol
# GULP energy per Si atom -12409.140252 kJ/mol
# Density = 2.055395 g / cm^3
# Si number density = 20.600835 Si / 1000 Ang^3
#
#
#
# Elastic Constant Matrix: (Units=GPa)
#
#
# Indices 1 2 3 4 5 6 
#
# 1 87.5351 21.4184 25.7188 0.0000 0.0000 0.0000
# 2 21.4184 45.7706 1.9218 0.0000 0.0000 0.0000
# 3 25.7188 1.9218 82.7804 0.0000 0.0000 0.0000
# 4 0.0000 0.0000 0.0000 34.7049 0.0000 0.0000
# 5 0.0000 0.0000 0.0000 0.0000 37.9508 0.0000
# 6 0.0000 0.0000 0.0000 0.0000 0.0000 34.0680
#
#
#
# Elastic Compliance Matrix: (Units=1/GPa)
#
#
# Indices 1 2 3 4 5 6 
#
# 1 0.014273 -0.006499 -0.004283 0.000000 0.000000 0.000000
# 2 -0.006499 0.024829 0.001443 0.000000 0.000000 0.000000
# 3 -0.004283 0.001443 0.013377 0.000000 0.000000 0.000000
# 4 0.000000 0.000000 0.000000 0.028814 0.000000 0.000000
# 5 0.000000 0.000000 0.000000 0.000000 0.026350 0.000000
# 6 0.000000 0.000000 0.000000 0.000000 0.000000 0.029353
#
#
# Mechanical properties :
#
#
# Convention : Reuss Voigt Hill
#
# Bulk Modulus (GPa) = 29.58631 34.91155 32.24893
# Shear Modulus (GPa) = 29.95045 32.47987 31.21516
#
# Velocity S-wave (km/s) = 3.81707 3.97499 3.89683
# Velocity P-wave (km/s) = 5.81546 6.16853 5.99460
#
# Compressibility (1/GPa) = 0.03379941
#
# Stress axis : x y z
#
# Youngs Moduli (GPa) = 70.06364 40.27587 74.75243
#
# Poissons Ratio (x) = 0.26176 0.32020
# Poissons Ratio (y) = 0.45535 -0.10785
# Poissons Ratio (z) = 0.30012 -0.05811
#
# Static dielectric constant tensor:
#      x y z
#    x 3.788630 0.000000 0.000000 
#    y 0.000000 3.665630 0.000000 
#    z 0.000000 0.000000 3.693090 
# 
# 
# High freq. dielectric constant tensor:
#      x y z
#    x 1.816550 0.000000 0.000000 
#    y 0.000000 1.810650 0.000000 
#    z 0.000000 0.000000 1.810400 
# 
# From -- ./inp_files/10176.got.cif
#   From: 2010.03.12/outbox.cif.g09.slc.cpg/sg62_6_cif.got.tgz:10176.got - 2010.04.10 19:12:36.
