data_PCOD8254750
_publ_section_title
;
Structure prediction by ZEFSAII (Michael W. Deem and Ramdas Pophale) SiO2 
 PCOD8254750
Probable space group: P N M A
;
_chemical_formula_sum "Si O2"
_cell_formula_units_Z 32
_cell_length_a 14.012545
_cell_length_b 18.728056
_cell_length_c 4.872920
_cell_angle_alpha 90.000000
_cell_angle_beta 90.000000
_cell_angle_gamma 90.000000
_cell_volume 1278.789322
_symmetry_space_group_name_H-M "P N M A"
_symmetry_group_IT_number 62
_symmetry_cell_setting 'orthorhombic'
loop_
_space_group_symop_operation_xyz
x,y,z
1/2-x,-y,1/2+z
1/2+x,1/2-y,1/2-z
-x,1/2+y,-z
-x,-y,-z
1/2+x,y,1/2-z
1/2-x,1/2+y,1/2+z
x,1/2-y,z
loop_
_atom_site_type_symbol
_atom_site_label
_atom_site_fract_x
_atom_site_fract_y
_atom_site_fract_z
Si Si1 0.835578 0.599053 0.277486
Si Si2 0.881491 0.750000 0.141498
Si Si3 0.347168 0.046875 0.446297
Si Si4 0.489457 0.250000 0.131375
Si Si5 0.953851 0.101865 0.550686
O O1 0.828709 0.538673 0.036109
O O2 0.749971 0.589351 0.494406
O O3 0.931956 0.593830 0.459876
O O4 0.823917 0.675192 0.114593
O O5 0.976050 0.750000 0.948526
O O6 0.913826 0.750000 0.457094
O O7 0.427617 0.080003 0.641344
O O8 0.390931 0.051408 0.141217
O O9 0.425848 0.318490 0.049632
#
# Coordination Sequence:
#
# PCOD8254750 Si02
#       5
#     8   4   8   4   8
#     4  11  26  48  70 105 144 187 241 298 357 432
#     4  10  24  44  72  96 139 188 225 288 360 412
#     4  12  26  43  73 106 139 188 242 294 355 427
#     4  10  22  44  70 104 139 184 237 282 344 430
#     4  11  25  45  72 103 144 189 234 297 358 414
#
# _framework density 25.023667
#
# number of rings (size 3 to 8) (size 9 to 14) (size 15 to 20)
#    0.000    1.000    0.000    6.000    0.000   18.000 
#    0.000    0.000    0.000    1.500    0.000    0.000 
#    0.000    0.000    0.000    0.000    0.000    0.000 
#
# Total GULP energy -396557.149453 kJ/mol
# GULP energy per Si atom -12392.410920 kJ/mol
# Density = 2.496671 g / cm^3
# Si number density = 25.023667 Si / 1000 Ang^3
#
#
#
# Elastic Constant Matrix: (Units=GPa)
#
#
# Indices 1 2 3 4 5 6 
#
# 1 109.1437 42.0667 33.4023 0.0000 0.0000 0.0000
# 2 42.0667 199.8570 23.7693 0.0000 0.0000 0.0000
# 3 33.4023 23.7693 61.3255 0.0000 0.0000 0.0000
# 4 0.0000 0.0000 0.0000 38.0843 0.0000 0.0000
# 5 0.0000 0.0000 0.0000 0.0000 34.3076 0.0000
# 6 0.0000 0.0000 0.0000 0.0000 0.0000 31.1445
#
#
#
# Elastic Compliance Matrix: (Units=1/GPa)
#
#
# Indices 1 2 3 4 5 6 
#
# 1 0.011560 -0.001766 -0.005612 0.000000 0.000000 0.000000
# 2 -0.001766 0.005515 -0.001176 0.000000 0.000000 0.000000
# 3 -0.005612 -0.001176 0.019819 0.000000 0.000000 0.000000
# 4 0.000000 0.000000 0.000000 0.026258 0.000000 0.000000
# 5 0.000000 0.000000 0.000000 0.000000 0.029148 0.000000
# 6 0.000000 0.000000 0.000000 0.000000 0.000000 0.032108
#
#
# Mechanical properties :
#
#
# Convention : Reuss Voigt Hill
#
# Bulk Modulus (GPa) = 50.53877 63.20030 56.86953
# Shear Modulus (GPa) = 33.75830 38.77981 36.26906
#
# Velocity S-wave (km/s) = 3.67693 3.94093 3.81122
# Velocity P-wave (km/s) = 6.18601 6.78372 6.49175
#
# Compressibility (1/GPa) = 0.01978679
#
# Stress axis : x y z
#
# Youngs Moduli (GPa) = 86.50243 181.32055 50.45666
#
# Poissons Ratio (x) = 0.32018 0.28317
# Poissons Ratio (y) = 0.15275 0.05933
# Poissons Ratio (z) = 0.48547 0.21320
#
# Static dielectric constant tensor:
#      x y z
#    x 4.209290 0.000000 0.000000 
#    y 0.000000 5.443080 0.000000 
#    z 0.000000 0.000000 4.172500 
# 
# 
# High freq. dielectric constant tensor:
#      x y z
#    x 1.979380 0.000000 0.000000 
#    y 0.000000 2.024110 0.000000 
#    z 0.000000 0.000000 1.987480 
# 
# From -- ./inp_files/941.got.cif
#   From: 2010.03.12/outbox.cif.g09.slc.cpg/sg62_1_cif.got.tgz:941.got - 2010.04.10 19:12:36.
