data_PCOD8254341
_publ_section_title
;
Structure prediction by ZEFSAII (Michael W. Deem and Ramdas Pophale) SiO2 
 PCOD8254341
Probable space group: P N M A
;
_chemical_formula_sum "Si O2"
_cell_formula_units_Z 64
_cell_length_a 23.588252
_cell_length_b 8.833900
_cell_length_c 15.257463
_cell_angle_alpha 90.000000
_cell_angle_beta 90.000000
_cell_angle_gamma 90.000000
_cell_volume 3179.293067
_symmetry_space_group_name_H-M "P N M A"
_symmetry_group_IT_number 62
_symmetry_cell_setting 'orthorhombic'
loop_
_space_group_symop_operation_xyz
x,y,z
1/2-x,-y,1/2+z
1/2+x,1/2-y,1/2-z
-x,1/2+y,-z
-x,-y,-z
1/2+x,y,1/2-z
1/2-x,1/2+y,1/2+z
x,1/2-y,z
loop_
_atom_site_type_symbol
_atom_site_label
_atom_site_fract_x
_atom_site_fract_y
_atom_site_fract_z
Si Si1 0.955694 0.925605 0.752606
Si Si2 0.633132 0.076658 0.107678
Si Si3 0.853795 0.576559 0.411635
Si Si4 0.250803 0.427816 0.844535
Si Si5 0.128329 0.425990 0.090140
Si Si6 0.750080 0.072574 0.339177
Si Si7 0.143503 0.571699 0.913422
Si Si8 0.575472 0.073168 0.743733
O O1 0.973783 0.750000 0.750586
O O2 0.920526 0.970163 0.665927
O O3 0.918976 0.962519 0.838231
O O4 0.009846 0.031690 0.754901
O O5 0.650249 0.250000 0.128975
O O6 0.685651 0.972499 0.132577
O O7 0.616650 0.053760 0.006094
O O8 0.834757 0.750000 0.398753
O O9 0.797819 0.471689 0.409922
O O10 0.898396 0.527000 0.337595
O O11 0.243500 0.250000 0.851082
O O12 0.233741 0.482113 0.748053
O O13 0.206688 0.502129 0.912300
O O14 0.130038 0.250000 0.065930
O O15 0.188821 0.479613 0.127495
O O16 0.113189 0.519203 0.002970
O O17 0.751185 0.250000 0.319029
O O18 0.148121 0.750000 0.911239
O O19 0.106626 0.518690 0.831661
O O20 0.582755 0.250000 0.724503
#
# Coordination Sequence:
#
# PCOD8254341 Si02
#       8
#     8   8   8   8   8   8   8   8
#     4  10  22  42  65  89 121 163 207 255 305 359
#     4  10  21  41  65  92 124 162 205 249 303 364
#     4  10  22  39  62  91 125 162 201 251 303 357
#     4  12  23  37  61  93 128 162 198 248 307 364
#     4  10  22  41  64  92 125 159 201 251 307 363
#     4  11  21  37  63  92 124 163 201 245 302 367
#     4  12  25  41  64  92 122 162 206 250 308 368
#     4  11  24  42  62  89 123 162 208 259 306 356
#
# _framework density 20.130261999999998
#
# number of rings (size 3 to 8) (size 9 to 14) (size 15 to 20)
#    0.000    1.250    2.500    3.750    0.000    6.000 
#    0.000    0.000    0.000    0.000    0.000    0.000 
#    0.000    0.000    0.000    0.000    0.000    0.000 
#
# Total GULP energy -794014.101795 kJ/mol
# GULP energy per Si atom -12406.470341 kJ/mol
# Density = 2.008444 g / cm^3
# Si number density = 20.130262 Si / 1000 Ang^3
#
#
#
# Elastic Constant Matrix: (Units=GPa)
#
#
# Indices 1 2 3 4 5 6 
#
# 1 97.9410 40.9638 29.6247 0.0000 0.0000 0.0000
# 2 40.9638 101.8246 46.5710 0.0000 0.0000 0.0000
# 3 29.6247 46.5710 113.0359 0.0000 0.0000 0.0000
# 4 0.0000 0.0000 0.0000 25.6652 0.0000 0.0000
# 5 0.0000 0.0000 0.0000 0.0000 13.6772 0.0000
# 6 0.0000 0.0000 0.0000 0.0000 0.0000 34.1118
#
#
#
# Elastic Compliance Matrix: (Units=1/GPa)
#
#
# Indices 1 2 3 4 5 6 
#
# 1 0.012474 -0.004341 -0.001481 0.000000 0.000000 0.000000
# 2 -0.004341 0.013612 -0.004470 0.000000 0.000000 0.000000
# 3 -0.001481 -0.004470 0.011077 0.000000 0.000000 0.000000
# 4 0.000000 0.000000 0.000000 0.038963 0.000000 0.000000
# 5 0.000000 0.000000 0.000000 0.000000 0.073115 0.000000
# 6 0.000000 0.000000 0.000000 0.000000 0.000000 0.029315
#
#
# Mechanical properties :
#
#
# Convention : Reuss Voigt Hill
#
# Bulk Modulus (GPa) = 60.32057 60.79117 60.55587
# Shear Modulus (GPa) = 24.43012 27.73362 26.08187
#
# Velocity S-wave (km/s) = 3.48746 3.71578 3.60343
# Velocity P-wave (km/s) = 6.80049 6.97666 6.88914
#
# Compressibility (1/GPa) = 0.01657809
#
# Stress axis : x y z
#
# Youngs Moduli (GPa) = 80.16872 73.46583 90.28028
#
# Poissons Ratio (x) = 0.31891 0.13367
# Poissons Ratio (y) = 0.34801 0.40359
# Poissons Ratio (z) = 0.11870 0.32842
#
# Static dielectric constant tensor:
#      x y z
#    x 3.553940 0.000000 0.000000 
#    y 0.000000 3.567370 0.000000 
#    z 0.000000 0.000000 3.867500 
# 
# 
# High freq. dielectric constant tensor:
#      x y z
#    x 1.779590 0.000000 0.000000 
#    y 0.000000 1.783690 0.000000 
#    z 0.000000 0.000000 1.801730 
# 
# From -- ./inp_files/20942.got.cif
#   From: 2010.03.12/outbox.cif.g09.slc.cpg/sg62_11_cif.got.tgz:20942.got - 2010.04.10 19:12:36.
