data_PCOD8254656
_publ_section_title
;
Structure prediction by ZEFSAII (Michael W. Deem and Ramdas Pophale) SiO2 
 PCOD8254656
Probable space group: P N M A
;
_chemical_formula_sum "Si O2"
_cell_formula_units_Z 40
_cell_length_a 5.376344
_cell_length_b 11.679240
_cell_length_c 27.028905
_cell_angle_alpha 90.000000
_cell_angle_beta 90.000000
_cell_angle_gamma 90.000000
_cell_volume 1697.188513
_symmetry_space_group_name_H-M "P N M A"
_symmetry_group_IT_number 62
_symmetry_cell_setting 'orthorhombic'
loop_
_space_group_symop_operation_xyz
x,y,z
1/2-x,-y,1/2+z
1/2+x,1/2-y,1/2-z
-x,1/2+y,-z
-x,-y,-z
1/2+x,y,1/2-z
1/2-x,1/2+y,1/2+z
x,1/2-y,z
loop_
_atom_site_type_symbol
_atom_site_label
_atom_site_fract_x
_atom_site_fract_y
_atom_site_fract_z
Si Si1 0.011488 0.750000 0.391015
Si Si2 0.692589 0.381170 0.475475
Si Si3 0.552049 0.507726 0.279128
Si Si4 0.019206 0.750000 0.173478
Si Si5 0.580792 0.619625 0.628254
Si Si6 0.629132 0.518208 0.065065
O O1 0.268187 0.750000 0.359276
O O2 0.990015 0.861987 0.425353
O O3 0.766800 0.750000 0.358357
O O4 0.695703 0.250000 0.492184
O O5 0.527463 0.394231 0.426823
O O6 0.637882 0.454015 0.526597
O O7 0.969342 0.420400 0.461162
O O8 0.792284 0.474125 0.246939
O O9 0.533167 0.641131 0.290886
O O10 0.588530 0.430005 0.328198
O O11 0.656216 0.750000 0.640107
O O12 0.810015 0.532323 0.620241
#
# Coordination Sequence:
#
# PCOD8254656 Si02
#       6
#     4   8   8   4   8   8
#     4  12  24  41  76 106 150 186 232 287 362 419
#     4  10  22  41  66  99 141 186 240 287 354 425
#     4  12  27  47  74 104 138 182 236 298 359 423
#     4  12  24  47  74 108 142 184 226 297 360 433
#     4  11  25  44  68  96 137 187 239 296 354 423
#     4  11  22  41  65 104 140 188 234 290 349 432
#
# _framework density 23.568389
#
# number of rings (size 3 to 8) (size 9 to 14) (size 15 to 20)
#    0.000    0.800    3.000    4.200    2.800    0.800 
#    0.000    0.000    0.000    0.000    0.000    0.000 
#    0.000    0.000    0.000    0.000    0.000    0.000 
#
# Total GULP energy -495525.746908 kJ/mol
# GULP energy per Si atom -12388.143673 kJ/mol
# Density = 2.351475 g / cm^3
# Si number density = 23.568389 Si / 1000 Ang^3
#
#
#
# Elastic Constant Matrix: (Units=GPa)
#
#
# Indices 1 2 3 4 5 6 
#
# 1 88.8820 6.0929 25.6327 0.0000 0.0000 0.0000
# 2 6.0929 128.9192 41.3327 0.0000 0.0000 0.0000
# 3 25.6327 41.3327 85.4217 0.0000 0.0000 0.0000
# 4 0.0000 0.0000 0.0000 49.7740 0.0000 0.0000
# 5 0.0000 0.0000 0.0000 0.0000 36.9021 0.0000
# 6 0.0000 0.0000 0.0000 0.0000 0.0000 11.4131
#
#
#
# Elastic Compliance Matrix: (Units=1/GPa)
#
#
# Indices 1 2 3 4 5 6 
#
# 1 0.012372 0.000717 -0.004059 0.000000 0.000000 0.000000
# 2 0.000717 0.009223 -0.004678 0.000000 0.000000 0.000000
# 3 -0.004059 -0.004678 0.015188 0.000000 0.000000 0.000000
# 4 0.000000 0.000000 0.000000 0.020091 0.000000 0.000000
# 5 0.000000 0.000000 0.000000 0.000000 0.027099 0.000000
# 6 0.000000 0.000000 0.000000 0.000000 0.000000 0.087618
#
#
# Mechanical properties :
#
#
# Convention : Reuss Voigt Hill
#
# Bulk Modulus (GPa) = 48.21001 49.92660 49.06831
# Shear Modulus (GPa) = 25.70090 34.96215 30.33153
#
# Velocity S-wave (km/s) = 3.30583 3.85572 3.59131
# Velocity P-wave (km/s) = 5.92209 6.40716 6.16939
#
# Compressibility (1/GPa) = 0.02074258
#
# Stress axis : x y z
#
# Youngs Moduli (GPa) = 80.82475 108.42930 65.84106
#
# Poissons Ratio (x) = -0.07772 0.26728
# Poissons Ratio (y) = -0.05793 0.30798
# Poissons Ratio (z) = 0.32810 0.50719
#
# Static dielectric constant tensor:
#      x y z
#    x 4.112640 0.000000 0.000000 
#    y 0.000000 4.434390 0.000000 
#    z 0.000000 0.000000 4.575550 
# 
# 
# High freq. dielectric constant tensor:
#      x y z
#    x 1.915360 0.000000 0.000000 
#    y 0.000000 1.953230 0.000000 
#    z 0.000000 0.000000 1.951260 
# 
# From -- ./inp_files/30276.got.cif
#   From: 2010.03.12/outbox.cif.g09.slc.cpg/sg62_16_cif.got.tgz:30276.got - 2010.04.10 19:12:36.
