data_PCOD8254265
_publ_section_title
;
Structure prediction by ZEFSAII (Michael W. Deem and Ramdas Pophale) SiO2 
 PCOD8254265
Probable space group: P N M A
;
_chemical_formula_sum "Si O2"
_cell_formula_units_Z 48
_cell_length_a 18.809288
_cell_length_b 7.617662
_cell_length_c 17.144477
_cell_angle_alpha 90.000000
_cell_angle_beta 90.000000
_cell_angle_gamma 90.000000
_cell_volume 2456.508642
_symmetry_space_group_name_H-M "P N M A"
_symmetry_group_IT_number 62
_symmetry_cell_setting 'orthorhombic'
loop_
_space_group_symop_operation_xyz
x,y,z
1/2-x,-y,1/2+z
1/2+x,1/2-y,1/2-z
-x,1/2+y,-z
-x,-y,-z
1/2+x,y,1/2-z
1/2-x,1/2+y,1/2+z
x,1/2-y,z
loop_
_atom_site_type_symbol
_atom_site_label
_atom_site_fract_x
_atom_site_fract_y
_atom_site_fract_z
Si Si1 0.237004 0.750000 0.260394
Si Si2 0.602765 0.250000 0.719256
Si Si3 0.399540 0.954494 0.536651
Si Si4 0.458460 0.054005 0.380164
Si Si5 0.262741 0.955693 0.633781
Si Si6 0.622400 0.750000 0.103027
Si Si7 0.460125 0.750000 0.114349
Si Si8 0.880456 0.442589 0.453940
O O1 0.313928 0.750000 0.300907
O O2 0.228856 0.572336 0.210725
O O3 0.177696 0.750000 0.327030
O O4 0.568027 0.425871 0.686616
O O5 0.590659 0.250000 0.811181
O O6 0.404736 0.750000 0.516795
O O7 0.463182 0.009698 0.594414
O O8 0.325886 0.007172 0.575594
O O9 0.406330 0.054836 0.454835
O O10 0.460339 0.250000 0.344773
O O11 0.266129 0.750000 0.657018
O O12 0.190891 0.006161 0.589060
O O13 0.542672 0.750000 0.138058
O O14 0.633380 0.577619 0.047499
O O15 0.443274 0.579349 0.062053
O O16 0.903521 0.250000 0.421244
#
# Coordination Sequence:
#
# PCOD8254265 Si02
#       8
#     4   4   8   8   8   4   4   8
#     4  12  26  44  60  98 128 164 202 262 325 373
#     4  12  26  38  62  90 135 161 207 263 314 380
#     4   9  19  37  63  88 125 166 213 253 296 379
#     4  10  22  37  57  94 125 168 208 251 307 368
#     4  10  21  40  64  88 126 167 202 255 318 379
#     4  10  26  42  70  95 127 154 227 269 300 371
#     4  12  22  46  66  93 122 177 204 274 325 356
#     4   9  21  42  67  93 118 166 216 259 309 376
#
# _framework density 19.539926999999999
#
# number of rings (size 3 to 8) (size 9 to 14) (size 15 to 20)
#    0.500    1.333    2.500    0.500    7.000    1.333 
#    1.500    0.000    0.000    0.000    0.000    0.000 
#    0.000    0.000    0.000    0.000    0.000    0.000 
#
# Total GULP energy -595156.068679 kJ/mol
# GULP energy per Si atom -12399.084764 kJ/mol
# Density = 1.949545 g / cm^3
# Si number density = 19.539927 Si / 1000 Ang^3
#
#
#
# Elastic Constant Matrix: (Units=GPa)
#
#
# Indices 1 2 3 4 5 6 
#
# 1 96.5972 31.0685 38.6693 0.0000 0.0000 0.0000
# 2 31.0685 85.0985 37.5522 0.0000 0.0000 0.0000
# 3 38.6693 37.5522 76.7557 0.0000 0.0000 0.0000
# 4 0.0000 0.0000 0.0000 32.9110 0.0000 0.0000
# 5 0.0000 0.0000 0.0000 0.0000 34.7875 0.0000
# 6 0.0000 0.0000 0.0000 0.0000 0.0000 26.6904
#
#
#
# Elastic Compliance Matrix: (Units=1/GPa)
#
#
# Indices 1 2 3 4 5 6 
#
# 1 0.013351 -0.002431 -0.005537 0.000000 0.000000 0.000000
# 2 -0.002431 0.015429 -0.006324 0.000000 0.000000 0.000000
# 3 -0.005537 -0.006324 0.018912 0.000000 0.000000 0.000000
# 4 0.000000 0.000000 0.000000 0.030385 0.000000 0.000000
# 5 0.000000 0.000000 0.000000 0.000000 0.028746 0.000000
# 6 0.000000 0.000000 0.000000 0.000000 0.000000 0.037467
#
#
# Mechanical properties :
#
#
# Convention : Reuss Voigt Hill
#
# Bulk Modulus (GPa) = 52.33311 52.55904 52.44607
# Shear Modulus (GPa) = 27.89533 28.95521 28.42527
#
# Velocity S-wave (km/s) = 3.78247 3.85365 3.81823
# Velocity P-wave (km/s) = 6.77620 6.83795 6.80714
#
# Compressibility (1/GPa) = 0.01910836
#
# Stress axis : x y z
#
# Youngs Moduli (GPa) = 74.90340 64.81209 52.87748
#
# Poissons Ratio (x) = 0.15755 0.29276
# Poissons Ratio (y) = 0.18208 0.33439
# Poissons Ratio (z) = 0.41471 0.40987
#
# Static dielectric constant tensor:
#      x y z
#    x 3.613430 0.000000 0.000000 
#    y 0.000000 3.597670 0.000000 
#    z 0.000000 0.000000 3.329010 
# 
# 
# High freq. dielectric constant tensor:
#      x y z
#    x 1.767270 0.000000 0.000000 
#    y 0.000000 1.763750 0.000000 
#    z 0.000000 0.000000 1.744890 
# 
# From -- ./inp_files/19726.got.cif
#   From: 2010.03.12/outbox.cif.g09.slc.cpg/sg62_10_cif.got.tgz:19726.got - 2010.04.10 19:12:36.
