data_PCOD8254189
_publ_section_title
;
Structure prediction by ZEFSAII (Michael W. Deem and Ramdas Pophale) SiO2 
 PCOD8254189
Probable space group: P N M A
;
_chemical_formula_sum "Si O2"
_cell_formula_units_Z 48
_cell_length_a 23.615842
_cell_length_b 13.812438
_cell_length_c 6.938719
_cell_angle_alpha 90.000000
_cell_angle_beta 90.000000
_cell_angle_gamma 90.000000
_cell_volume 2263.357080
_symmetry_space_group_name_H-M "P N M A"
_symmetry_group_IT_number 62
_symmetry_cell_setting 'orthorhombic'
loop_
_space_group_symop_operation_xyz
x,y,z
1/2-x,-y,1/2+z
1/2+x,1/2-y,1/2-z
-x,1/2+y,-z
-x,-y,-z
1/2+x,y,1/2-z
1/2-x,1/2+y,1/2+z
x,1/2-y,z
loop_
_atom_site_type_symbol
_atom_site_label
_atom_site_fract_x
_atom_site_fract_y
_atom_site_fract_z
Si Si1 0.035926 0.638778 0.684646
Si Si2 0.089046 0.141079 0.232100
Si Si3 0.206603 0.535294 0.670877
Si Si4 0.793608 0.637766 0.580570
Si Si5 0.372664 0.137235 0.879282
Si Si6 0.389949 0.465768 0.481356
O O1 0.048405 0.750000 0.738197
O O2 0.068659 0.611272 0.488600
O O3 0.969250 0.619474 0.653657
O O4 0.057144 0.575192 0.863250
O O5 0.090208 0.250000 0.150781
O O6 0.139299 0.124366 0.384551
O O7 0.094745 0.073960 0.045443
O O8 0.222945 0.425518 0.607844
O O9 0.179518 0.585656 0.484634
O O10 0.261911 0.596383 0.730197
O O11 0.165967 0.533390 0.853493
O O12 0.777202 0.750000 0.545119
O O13 0.359878 0.250000 0.880495
O O14 0.377735 0.101764 0.662841
#
# Coordination Sequence:
#
# PCOD8254189 Si02
#       6
#     8   8   8   8   8   8
#     4   9  20  38  61  92 129 164 210 259 308 376
#     4  10  21  40  61  89 128 168 208 256 315 382
#     4  11  24  44  64  95 126 160 219 265 309 384
#     4  11  24  44  68  92 127 169 208 260 323 381
#     4  10  21  39  65  93 126 167 207 263 317 360
#     4  11  21  39  64  93 124 163 213 261 311 375
#
# _framework density 21.207436999999999
#
# number of rings (size 3 to 8) (size 9 to 14) (size 15 to 20)
#    0.000    1.667    1.667    2.500    0.000    3.333 
#    3.000    0.833    0.000    0.000    0.000    0.000 
#    0.000    0.000    0.000    0.000    0.000    0.000 
#
# Total GULP energy -595361.470674 kJ/mol
# GULP energy per Si atom -12403.363972 kJ/mol
# Density = 2.115917 g / cm^3
# Si number density = 21.207437 Si / 1000 Ang^3
#
#
#
# Elastic Constant Matrix: (Units=GPa)
#
#
# Indices 1 2 3 4 5 6 
#
# 1 101.8530 38.5283 29.5871 0.0000 0.0000 0.0000
# 2 38.5283 139.4750 51.5727 0.0000 0.0000 0.0000
# 3 29.5871 51.5727 103.8137 0.0000 0.0000 0.0000
# 4 0.0000 0.0000 0.0000 38.5059 0.0000 0.0000
# 5 0.0000 0.0000 0.0000 0.0000 14.7215 0.0000
# 6 0.0000 0.0000 0.0000 0.0000 0.0000 27.9495
#
#
#
# Elastic Compliance Matrix: (Units=1/GPa)
#
#
# Indices 1 2 3 4 5 6 
#
# 1 0.011308 -0.002367 -0.002047 0.000000 0.000000 0.000000
# 2 -0.002367 0.009279 -0.003935 0.000000 0.000000 0.000000
# 3 -0.002047 -0.003935 0.012171 0.000000 0.000000 0.000000
# 4 0.000000 0.000000 0.000000 0.025970 0.000000 0.000000
# 5 0.000000 0.000000 0.000000 0.000000 0.067928 0.000000
# 6 0.000000 0.000000 0.000000 0.000000 0.000000 0.035779
#
#
# Mechanical properties :
#
#
# Convention : Reuss Voigt Hill
#
# Bulk Modulus (GPa) = 62.26655 64.94644 63.60649
# Shear Modulus (GPa) = 27.10254 31.26562 29.18408
#
# Velocity S-wave (km/s) = 3.57875 3.84380 3.71364
# Velocity P-wave (km/s) = 6.81917 7.09863 6.96030
#
# Compressibility (1/GPa) = 0.01605999
#
# Stress axis : x y z
#
# Youngs Moduli (GPa) = 88.43293 107.77601 82.16374
#
# Poissons Ratio (x) = 0.25508 0.16819
# Poissons Ratio (y) = 0.20930 0.32330
# Poissons Ratio (z) = 0.18103 0.42408
#
# Static dielectric constant tensor:
#      x y z
#    x 4.004420 0.000000 0.000000 
#    y 0.000000 4.085960 0.000000 
#    z 0.000000 0.000000 3.605400 
# 
# 
# High freq. dielectric constant tensor:
#      x y z
#    x 1.842610 0.000000 0.000000 
#    y 0.000000 1.847080 0.000000 
#    z 0.000000 0.000000 1.817870 
# 
# From -- ./inp_files/3192.got.cif
#   From: 2010.03.12/outbox.cif.g09.slc.cpg/sg62_2_cif.got.tgz:3192.got - 2010.04.10 19:12:36.
