data_PCOD8254391
_publ_section_title
;
Structure prediction by ZEFSAII (Michael W. Deem and Ramdas Pophale) SiO2 
 PCOD8254391
Probable space group: P N M A
;
_chemical_formula_sum "Si O2"
_cell_formula_units_Z 48
_cell_length_a 15.208392
_cell_length_b 17.619472
_cell_length_c 8.615253
_cell_angle_alpha 90.000000
_cell_angle_beta 90.000000
_cell_angle_gamma 90.000000
_cell_volume 2308.576251
_symmetry_space_group_name_H-M "P N M A"
_symmetry_group_IT_number 62
_symmetry_cell_setting 'orthorhombic'
loop_
_space_group_symop_operation_xyz
x,y,z
1/2-x,-y,1/2+z
1/2+x,1/2-y,1/2-z
-x,1/2+y,-z
-x,-y,-z
1/2+x,y,1/2-z
1/2-x,1/2+y,1/2+z
x,1/2-y,z
loop_
_atom_site_type_symbol
_atom_site_label
_atom_site_fract_x
_atom_site_fract_y
_atom_site_fract_z
Si Si1 0.097944 0.662576 0.910829
Si Si2 0.274847 0.591884 0.969782
Si Si3 0.263844 0.563897 0.604922
Si Si4 0.449799 0.923186 0.447688
Si Si5 0.893275 0.338696 0.433846
Si Si6 0.562960 0.160505 0.866762
O O1 0.117777 0.750000 0.901014
O O2 0.179328 0.627260 0.005074
O O3 0.087168 0.628770 0.738138
O O4 0.006724 0.648056 0.996418
O O5 0.280189 0.576201 0.786668
O O6 0.280430 0.517138 0.074266
O O7 0.353458 0.647928 0.020309
O O8 0.355790 0.573912 0.522983
O O9 0.199184 0.623582 0.519446
O O10 0.434530 0.903429 0.267278
O O11 0.500000 0.000000 0.500000
O O12 0.877396 0.250000 0.434827
O O13 0.973614 0.360642 0.543684
O O14 0.563116 0.250000 0.814985
#
# Coordination Sequence:
#
# PCOD8254391 Si02
#       6
#     8   8   8   8   8   8
#     4  10  21  42  67  92 126 170 214 268 328 386
#     4  11  23  41  67  97 131 172 219 272 328 394
#     4  11  24  41  65  97 133 174 218 272 334 388
#     4  12  25  41  62  95 133 169 215 267 322 389
#     4   9  22  42  66  94 126 167 219 269 323 391
#     4  11  25  44  67  97 131 172 222 272 329 392
#
# _framework density 20.792036
#
# number of rings (size 3 to 8) (size 9 to 14) (size 15 to 20)
#    0.000    1.333    1.667    3.000    4.667    4.000 
#    0.000    1.667    0.000    0.000    0.000    0.000 
#    0.000    0.000    0.000    0.000    0.000    0.000 
#
# Total GULP energy -594974.813703 kJ/mol
# GULP energy per Si atom -12395.308619 kJ/mol
# Density = 2.074471 g / cm^3
# Si number density = 20.792036 Si / 1000 Ang^3
#
#
#
# Elastic Constant Matrix: (Units=GPa)
#
#
# Indices 1 2 3 4 5 6 
#
# 1 155.8773 45.4708 48.7077 0.0000 0.0000 0.0000
# 2 45.4708 64.1301 46.6244 0.0000 0.0000 0.0000
# 3 48.7077 46.6244 86.3098 0.0000 0.0000 0.0000
# 4 0.0000 0.0000 0.0000 33.9259 0.0000 0.0000
# 5 0.0000 0.0000 0.0000 0.0000 33.6675 0.0000
# 6 0.0000 0.0000 0.0000 0.0000 0.0000 42.5618
#
#
#
# Elastic Compliance Matrix: (Units=1/GPa)
#
#
# Indices 1 2 3 4 5 6 
#
# 1 0.008406 -0.004135 -0.002510 0.000000 0.000000 0.000000
# 2 -0.004135 0.027713 -0.012637 0.000000 0.000000 0.000000
# 3 -0.002510 -0.012637 0.019829 0.000000 0.000000 0.000000
# 4 0.000000 0.000000 0.000000 0.029476 0.000000 0.000000
# 5 0.000000 0.000000 0.000000 0.000000 0.029702 0.000000
# 6 0.000000 0.000000 0.000000 0.000000 0.000000 0.023495
#
#
# Mechanical properties :
#
#
# Convention : Reuss Voigt Hill
#
# Bulk Modulus (GPa) = 57.52495 65.32478 61.42486
# Shear Modulus (GPa) = 27.32558 33.06532 30.19545
#
# Velocity S-wave (km/s) = 3.62917 3.99217 3.81499
# Velocity P-wave (km/s) = 6.72964 7.26197 7.00087
#
# Compressibility (1/GPa) = 0.01738376
#
# Stress axis : x y z
#
# Youngs Moduli (GPa) = 118.96419 36.08470 50.43184
#
# Poissons Ratio (x) = 0.14923 0.12657
# Poissons Ratio (y) = 0.49197 0.63728
# Poissons Ratio (z) = 0.29858 0.45598
#
# Static dielectric constant tensor:
#      x y z
#    x 4.018630 0.000000 0.000000 
#    y 0.000000 3.939450 0.000000 
#    z 0.000000 0.000000 3.238590 
# 
# 
# High freq. dielectric constant tensor:
#      x y z
#    x 1.833380 0.000000 0.000000 
#    y 0.000000 1.818900 0.000000 
#    z 0.000000 0.000000 1.812880 
# 
# From -- ./inp_files/6516.got.cif
#   From: 2010.03.12/outbox.cif.g09.slc.cpg/sg62_4_cif.got.tgz:6516.got - 2010.04.10 19:12:36.
