data_PCOD8254288
_publ_section_title
;
Structure prediction by ZEFSAII (Michael W. Deem and Ramdas Pophale) SiO2 
 PCOD8254288
Probable space group: P N M A
;
_chemical_formula_sum "Si O2"
_cell_formula_units_Z 64
_cell_length_a 12.723813
_cell_length_b 8.856904
_cell_length_c 29.055913
_cell_angle_alpha 90.000000
_cell_angle_beta 90.000000
_cell_angle_gamma 90.000000
_cell_volume 3274.415154
_symmetry_space_group_name_H-M "P N M A"
_symmetry_group_IT_number 62
_symmetry_cell_setting 'orthorhombic'
loop_
_space_group_symop_operation_xyz
x,y,z
1/2-x,-y,1/2+z
1/2+x,1/2-y,1/2-z
-x,1/2+y,-z
-x,-y,-z
1/2+x,y,1/2-z
1/2-x,1/2+y,1/2+z
x,1/2-y,z
loop_
_atom_site_type_symbol
_atom_site_label
_atom_site_fract_x
_atom_site_fract_y
_atom_site_fract_z
Si Si1 0.794579 0.574897 0.616879
Si Si2 0.608719 0.574151 0.445345
Si Si3 0.333932 0.083182 0.704436
Si Si4 0.993333 0.574086 0.357533
Si Si5 0.391821 0.425900 0.447451
Si Si6 0.727193 0.572245 0.878416
Si Si7 0.037886 0.418669 0.747392
Si Si8 0.730537 0.579008 0.718193
O O1 0.821108 0.750000 0.609380
O O2 0.713615 0.515530 0.577959
O O3 0.733802 0.545303 0.664365
O O4 0.904736 0.486704 0.615247
O O5 0.611868 0.750000 0.433122
O O6 0.495644 0.511026 0.428867
O O7 0.624765 0.540916 0.498973
O O8 0.705242 0.493950 0.420167
O O9 0.291645 0.250000 0.691103
O O10 0.458895 0.083316 0.709226
O O11 0.288206 0.963809 0.668832
O O12 0.304670 0.039301 0.756388
O O13 0.983553 0.750000 0.367697
O O14 0.889365 0.495913 0.377943
O O15 0.007277 0.538764 0.303150
O O16 0.409707 0.250000 0.437190
O O17 0.718258 0.750000 0.884207
O O18 0.088952 0.250000 0.743767
O O19 0.115952 0.551114 0.761076
O O20 0.764987 0.750000 0.728995
#
# Coordination Sequence:
#
# PCOD8254288 Si02
#       8
#     8   8   8   8   8   8   8   8
#     4  10  22  39  59  88 121 156 196 241 291 348
#     4  10  21  40  66  93 120 153 193 241 297 355
#     4  11  22  38  56  80 114 154 199 242 289 342
#     4  11  22  39  60  84 116 158 201 244 292 345
#     4   9  20  41  66  92 123 155 191 240 296 351
#     4  12  25  40  60  87 118 155 198 246 299 354
#     4  10  22  37  54  76 112 155 195 243 290 336
#     4  11  22  34  54  83 116 155 196 236 285 343
#
# _framework density 19.545473999999999
#
# number of rings (size 3 to 8) (size 9 to 14) (size 15 to 20)
#    0.000    1.500    2.500    2.625    1.750    3.000 
#    0.000    0.625    0.000    0.000    0.000    0.000 
#    0.000    0.000    0.000    0.000    0.000    0.000 
#
# Total GULP energy -793429.598744 kJ/mol
# GULP energy per Si atom -12397.337480 kJ/mol
# Density = 1.950099 g / cm^3
# Si number density = 19.545474 Si / 1000 Ang^3
#
#
#
# Elastic Constant Matrix: (Units=GPa)
#
#
# Indices 1 2 3 4 5 6 
#
# 1 128.7153 58.2743 55.3431 0.0000 0.0000 0.0000
# 2 58.2743 99.9847 41.7029 0.0000 0.0000 0.0000
# 3 55.3431 41.7029 76.1260 0.0000 0.0000 0.0000
# 4 0.0000 0.0000 0.0000 28.0019 0.0000 0.0000
# 5 0.0000 0.0000 0.0000 0.0000 38.0496 0.0000
# 6 0.0000 0.0000 0.0000 0.0000 0.0000 34.2235
#
#
#
# Elastic Compliance Matrix: (Units=1/GPa)
#
#
# Indices 1 2 3 4 5 6 
#
# 1 0.012763 -0.004626 -0.006745 0.000000 0.000000 0.000000
# 2 -0.004626 0.014640 -0.004657 0.000000 0.000000 0.000000
# 3 -0.006745 -0.004657 0.020591 0.000000 0.000000 0.000000
# 4 0.000000 0.000000 0.000000 0.035712 0.000000 0.000000
# 5 0.000000 0.000000 0.000000 0.000000 0.026282 0.000000
# 6 0.000000 0.000000 0.000000 0.000000 0.000000 0.029220
#
#
# Mechanical properties :
#
#
# Convention : Reuss Voigt Hill
#
# Bulk Modulus (GPa) = 62.73999 68.38518 65.56259
# Shear Modulus (GPa) = 28.31647 30.02202 29.16924
#
# Velocity S-wave (km/s) = 3.81037 3.92345 3.86732
# Velocity P-wave (km/s) = 7.17828 7.45575 7.31833
#
# Compressibility (1/GPa) = 0.01593880
#
# Stress axis : x y z
#
# Youngs Moduli (GPa) = 78.34924 68.30610 48.56521
#
# Poissons Ratio (x) = 0.31596 0.32757
# Poissons Ratio (y) = 0.36242 0.22618
# Poissons Ratio (z) = 0.52846 0.31811
#
# Static dielectric constant tensor:
#      x y z
#    x 3.701770 0.000000 0.000000 
#    y 0.000000 3.585240 0.000000 
#    z 0.000000 0.000000 3.480830 
# 
# 
# High freq. dielectric constant tensor:
#      x y z
#    x 1.769480 0.000000 0.000000 
#    y 0.000000 1.766410 0.000000 
#    z 0.000000 0.000000 1.746180 
# 
# From -- ./inp_files/32534.got.cif
#   From: 2010.03.12/outbox.cif.g09.slc.cpg/sg62_17_cif.got.tgz:32534.got - 2010.04.10 19:12:36.
