data_PCOD8254034
_publ_section_title
;
Structure prediction by ZEFSAII (Michael W. Deem and Ramdas Pophale) SiO2 
 PCOD8254034
Probable space group: P N M A
;
_chemical_formula_sum "Si O2"
_cell_formula_units_Z 56
_cell_length_a 21.722208
_cell_length_b 8.740641
_cell_length_c 14.589890
_cell_angle_alpha 90.000000
_cell_angle_beta 90.000000
_cell_angle_gamma 90.000000
_cell_volume 2770.124374
_symmetry_space_group_name_H-M "P N M A"
_symmetry_group_IT_number 62
_symmetry_cell_setting 'orthorhombic'
loop_
_space_group_symop_operation_xyz
x,y,z
1/2-x,-y,1/2+z
1/2+x,1/2-y,1/2-z
-x,1/2+y,-z
-x,-y,-z
1/2+x,y,1/2-z
1/2-x,1/2+y,1/2+z
x,1/2-y,z
loop_
_atom_site_type_symbol
_atom_site_label
_atom_site_fract_x
_atom_site_fract_y
_atom_site_fract_z
Si Si1 0.392818 0.569760 0.580252
Si Si2 0.675246 0.070691 0.059905
Si Si3 0.489639 0.930871 0.728575
Si Si4 0.543096 0.569363 0.077174
Si Si5 0.737899 0.925526 0.395963
Si Si6 0.233682 0.425244 0.808810
Si Si7 0.900679 0.929910 0.124853
O O1 0.393891 0.750000 0.582999
O O2 0.439902 0.503806 0.655643
O O3 0.324434 0.519429 0.603494
O O4 0.413862 0.515605 0.479182
O O5 0.660072 0.250000 0.056837
O O6 0.612655 0.977365 0.056832
O O7 0.712290 0.032214 0.152407
O O8 0.715636 0.015243 0.973600
O O9 0.483980 0.750000 0.741108
O O10 0.478227 0.010132 0.824669
O O11 0.557089 0.973962 0.693126
O O12 0.536787 0.750000 0.075121
O O13 0.500000 0.500000 0.000000
O O14 0.720688 0.750000 0.414014
O O15 0.771861 0.949673 0.299639
O O16 0.249861 0.250000 0.832881
O O17 0.169459 0.473834 0.853598
O O18 0.912627 0.750000 0.139616
#
# Coordination Sequence:
#
# PCOD8254034 Si02
#       7
#     8   8   8   8   8   8   8
#     4  10  21  39  62  91 127 167 211 260 313 376
#     4  11  23  41  64  94 128 163 206 260 316 374
#     4  11  24  41  63  94 128 166 211 262 319 381
#     4  12  27  47  69  93 125 167 213 263 316 379
#     4  10  22  37  60  91 123 160 202 254 313 375
#     4  10  21  39  62  90 125 167 214 260 316 378
#     4  10  21  38  62  91 125 168 215 266 320 376
#
# _framework density 20.215699000000001
#
# number of rings (size 3 to 8) (size 9 to 14) (size 15 to 20)
#    0.000    1.429    1.429    3.429    2.000    5.714 
#    0.000    0.000    0.000    0.000    0.000    0.000 
#    0.000    0.000    0.000    0.000    0.000    0.000 
#
# Total GULP energy -694715.708984 kJ/mol
# GULP energy per Si atom -12405.637660 kJ/mol
# Density = 2.016969 g / cm^3
# Si number density = 20.215699 Si / 1000 Ang^3
#
#
#
# Elastic Constant Matrix: (Units=GPa)
#
#
# Indices 1 2 3 4 5 6 
#
# 1 125.1414 39.9389 58.3628 0.0000 0.0000 0.0000
# 2 39.9389 64.8312 32.0428 0.0000 0.0000 0.0000
# 3 58.3628 32.0428 111.0599 0.0000 0.0000 0.0000
# 4 0.0000 0.0000 0.0000 31.6939 0.0000 0.0000
# 5 0.0000 0.0000 0.0000 0.0000 30.1949 0.0000
# 6 0.0000 0.0000 0.0000 0.0000 0.0000 37.6720
#
#
#
# Elastic Compliance Matrix: (Units=1/GPa)
#
#
# Indices 1 2 3 4 5 6 
#
# 1 0.011783 -0.004896 -0.004779 0.000000 0.000000 0.000000
# 2 -0.004896 0.020025 -0.003204 0.000000 0.000000 0.000000
# 3 -0.004779 -0.003204 0.012440 0.000000 0.000000 0.000000
# 4 0.000000 0.000000 0.000000 0.031552 0.000000 0.000000
# 5 0.000000 0.000000 0.000000 0.000000 0.033118 0.000000
# 6 0.000000 0.000000 0.000000 0.000000 0.000000 0.026545
#
#
# Mechanical properties :
#
#
# Convention : Reuss Voigt Hill
#
# Bulk Modulus (GPa) = 54.09034 62.41351 58.25192
# Shear Modulus (GPa) = 29.87126 31.29135 30.58130
#
# Velocity S-wave (km/s) = 3.84816 3.93857 3.89363
# Velocity P-wave (km/s) = 6.82343 7.18498 7.00654
#
# Compressibility (1/GPa) = 0.01848759
#
# Stress axis : x y z
#
# Youngs Moduli (GPa) = 84.87146 49.93784 80.38503
#
# Poissons Ratio (x) = 0.24452 0.38417
# Poissons Ratio (y) = 0.41557 0.25759
# Poissons Ratio (z) = 0.40561 0.16002
#
# Static dielectric constant tensor:
#      x y z
#    x 3.687740 0.000000 0.000000 
#    y 0.000000 3.672200 0.000000 
#    z 0.000000 0.000000 4.079550 
# 
# 
# High freq. dielectric constant tensor:
#      x y z
#    x 1.797870 0.000000 0.000000 
#    y 0.000000 1.784470 0.000000 
#    z 0.000000 0.000000 1.807400 
# 
# From -- ./inp_files/20260.got.cif
#   From: 2010.03.12/outbox.cif.g09.slc.cpg/sg62_11_cif.got.tgz:20260.got - 2010.04.10 19:12:36.
