data_PCOD8254953
_publ_section_title
;
Structure prediction by ZEFSAII (Michael W. Deem and Ramdas Pophale) SiO2 
 PCOD8254953
Probable space group: P N M A
;
_chemical_formula_sum "Si O2"
_cell_formula_units_Z 52
_cell_length_a 12.874589
_cell_length_b 11.085724
_cell_length_c 19.988759
_cell_angle_alpha 90.000000
_cell_angle_beta 90.000000
_cell_angle_gamma 90.000000
_cell_volume 2852.878443
_symmetry_space_group_name_H-M "P N M A"
_symmetry_group_IT_number 62
_symmetry_cell_setting 'orthorhombic'
loop_
_space_group_symop_operation_xyz
x,y,z
1/2-x,-y,1/2+z
1/2+x,1/2-y,1/2-z
-x,1/2+y,-z
-x,-y,-z
1/2+x,y,1/2-z
1/2-x,1/2+y,1/2+z
x,1/2-y,z
loop_
_atom_site_type_symbol
_atom_site_label
_atom_site_fract_x
_atom_site_fract_y
_atom_site_fract_z
Si Si1 0.177276 0.109808 0.338202
Si Si2 0.327932 0.107454 0.164564
Si Si3 0.496224 0.499863 0.921151
Si Si4 0.112774 0.988099 0.808315
Si Si5 0.965248 0.250000 0.651513
Si Si6 0.159213 0.750000 0.230070
Si Si7 0.878079 0.750000 0.228675
Si Si8 0.116272 0.489359 0.196123
O O1 0.169628 0.250000 0.323109
O O2 0.133712 0.040953 0.273869
O O3 0.105963 0.074938 0.400749
O O4 0.297864 0.075266 0.352809
O O5 0.335893 0.250000 0.173778
O O6 0.398694 0.064442 0.103378
O O7 0.207533 0.069962 0.151406
O O8 0.369303 0.042353 0.230604
O O9 0.489043 0.364733 0.893575
O O10 0.500000 0.500000 0.000000
O O11 0.121466 0.131836 0.818093
O O12 0.997014 0.942127 0.828572
O O13 0.023808 0.250000 0.722771
O O14 0.851881 0.250000 0.687068
O O15 0.282359 0.750000 0.219912
O O16 0.113940 0.634017 0.191526
#
# Coordination Sequence:
#
# PCOD8254953 Si02
#       8
#     8   8   8   8   4   4   4   8
#     4  11  22  35  52  81 115 150 187 231 284 342
#     4  11  22  35  52  81 115 150 187 231 284 342
#     4  12  25  40  59  80 112 153 200 243 280 332
#     4  11  19  32  54  85 116 149 182 230 294 348
#     4  12  20  38  52  84 108 150 190 220 296 326
#     4  12  16  30  54  80 120 142 180 236 279 348
#     4  12  16  30  54  80 120 142 180 236 279 348
#     4  11  19  32  54  85 116 149 182 230 294 348
#
# _framework density 18.227205000000001
#
# number of rings (size 3 to 8) (size 9 to 14) (size 15 to 20)
#    0.000    0.615    9.231    2.308    2.154    1.846 
#    0.000    0.000    0.000    0.923    0.000    0.000 
#    0.000    0.000    0.000    0.000    0.000    0.000 
#
# Total GULP energy -644678.910827 kJ/mol
# GULP energy per Si atom -12397.671362 kJ/mol
# Density = 1.818572 g / cm^3
# Si number density = 18.227205 Si / 1000 Ang^3
#
#
#
# Elastic Constant Matrix: (Units=GPa)
#
#
# Indices 1 2 3 4 5 6 
#
# 1 162.1104 22.2907 27.8965 0.0000 0.0000 0.0000
# 2 22.2907 113.0227 12.6385 0.0000 0.0000 0.0000
# 3 27.8965 12.6385 60.2766 0.0000 0.0000 0.0000
# 4 0.0000 0.0000 0.0000 8.6516 0.0000 0.0000
# 5 0.0000 0.0000 0.0000 0.0000 15.3390 0.0000
# 6 0.0000 0.0000 0.0000 0.0000 0.0000 22.2614
#
#
#
# Elastic Compliance Matrix: (Units=1/GPa)
#
#
# Indices 1 2 3 4 5 6 
#
# 1 0.006814 -0.001015 -0.002941 0.000000 0.000000 0.000000
# 2 -0.001015 0.009211 -0.001462 0.000000 0.000000 0.000000
# 3 -0.002941 -0.001462 0.018258 0.000000 0.000000 0.000000
# 4 0.000000 0.000000 0.000000 0.115586 0.000000 0.000000
# 5 0.000000 0.000000 0.000000 0.000000 0.065193 0.000000
# 6 0.000000 0.000000 0.000000 0.000000 0.000000 0.044921
#
#
# Mechanical properties :
#
#
# Convention : Reuss Voigt Hill
#
# Bulk Modulus (GPa) = 42.64705 51.22901 46.93803
# Shear Modulus (GPa) = 17.94465 27.42266 22.68365
#
# Velocity S-wave (km/s) = 3.14108 3.88298 3.53157
# Velocity P-wave (km/s) = 6.05007 6.94768 6.51435
#
# Compressibility (1/GPa) = 0.02344828
#
# Stress axis : x y z
#
# Youngs Moduli (GPa) = 146.75050 108.56090 54.77136
#
# Poissons Ratio (x) = 0.11020 0.16108
# Poissons Ratio (y) = 0.14896 0.08006
# Poissons Ratio (z) = 0.43157 0.15868
#
# Static dielectric constant tensor:
#      x y z
#    x 4.108890 0.000000 0.000000 
#    y 0.000000 3.568210 0.000000 
#    z 0.000000 0.000000 2.770150 
# 
# 
# High freq. dielectric constant tensor:
#      x y z
#    x 1.734810 0.000000 0.000000 
#    y 0.000000 1.730210 0.000000 
#    z 0.000000 0.000000 1.622380 
# 
# From -- ./inp_files/27412.got.cif
#   From: 2010.03.12/outbox.cif.g09.slc.cpg/sg62_14_cif.got.tgz:27412.got - 2010.04.10 19:12:36.
