data_PCOD8254690
_publ_section_title
;
Structure prediction by ZEFSAII (Michael W. Deem and Ramdas Pophale) SiO2 
 PCOD8254690
Probable space group: P N M A
;
_chemical_formula_sum "Si O2"
_cell_formula_units_Z 48
_cell_length_a 10.018447
_cell_length_b 8.625769
_cell_length_c 27.138199
_cell_angle_alpha 90.000000
_cell_angle_beta 90.000000
_cell_angle_gamma 90.000000
_cell_volume 2345.196575
_symmetry_space_group_name_H-M "P N M A"
_symmetry_group_IT_number 62
_symmetry_cell_setting 'orthorhombic'
loop_
_space_group_symop_operation_xyz
x,y,z
1/2-x,-y,1/2+z
1/2+x,1/2-y,1/2-z
-x,1/2+y,-z
-x,-y,-z
1/2+x,y,1/2-z
1/2-x,1/2+y,1/2+z
x,1/2-y,z
loop_
_atom_site_type_symbol
_atom_site_label
_atom_site_fract_x
_atom_site_fract_y
_atom_site_fract_z
Si Si1 0.607193 0.432992 0.536852
Si Si2 0.756465 0.570735 0.708267
Si Si3 0.607969 0.431719 0.036530
Si Si4 0.253159 0.572021 0.187090
Si Si5 0.469517 0.429825 0.860995
Si Si6 0.467553 0.929402 0.354074
O O1 0.500000 0.500000 0.500000
O O2 0.605705 0.250000 0.533159
O O3 0.751155 0.495395 0.521711
O O4 0.571495 0.488784 0.591857
O O5 0.788256 0.750000 0.699009
O O6 0.751871 0.539025 0.766145
O O7 0.872503 0.467616 0.684323
O O8 0.612934 0.528976 0.685709
O O9 0.616828 0.250000 0.028693
O O10 0.570941 0.467687 0.092639
O O11 0.500000 0.500000 0.000000
O O12 0.262113 0.750000 0.205188
O O13 0.379905 0.528760 0.153829
O O14 0.124351 0.542977 0.153377
O O15 0.453701 0.250000 0.875151
O O16 0.428942 0.750000 0.346949
#
# Coordination Sequence:
#
# PCOD8254690 Si02
#       6
#     8   8   8   8   8   8
#     4  11  24  43  69  99 131 170 214 266 322 384
#     4  12  24  39  62  93 129 170 214 264 318 378
#     4  12  26  45  69  98 131 169 215 267 325 388
#     4  10  23  41  64  93 125 168 215 263 317 380
#     4  11  23  42  67  94 128 169 214 265 323 384
#     4  10  22  42  66  91 125 169 213 259 316 383
#
# _framework density 20.467366999999999
#
# number of rings (size 3 to 8) (size 9 to 14) (size 15 to 20)
#    0.000    1.000    1.667    5.000    2.333    6.667 
#    0.000    0.000    0.000    0.000    0.000    0.000 
#    0.000    0.000    0.000    0.000    0.000    0.000 
#
# Total GULP energy -595603.816064 kJ/mol
# GULP energy per Si atom -12408.412835 kJ/mol
# Density = 2.042078 g / cm^3
# Si number density = 20.467367 Si / 1000 Ang^3
#
#
#
# Elastic Constant Matrix: (Units=GPa)
#
#
# Indices 1 2 3 4 5 6 
#
# 1 165.8363 31.8922 49.0070 0.0000 0.0000 0.0000
# 2 31.8922 65.3624 33.5063 0.0000 0.0000 0.0000
# 3 49.0070 33.5063 90.9177 0.0000 0.0000 0.0000
# 4 0.0000 0.0000 0.0000 35.6577 0.0000 0.0000
# 5 0.0000 0.0000 0.0000 0.0000 40.1985 0.0000
# 6 0.0000 0.0000 0.0000 0.0000 0.0000 30.5339
#
#
#
# Elastic Compliance Matrix: (Units=1/GPa)
#
#
# Indices 1 2 3 4 5 6 
#
# 1 0.007363 -0.001921 -0.003261 0.000000 0.000000 0.000000
# 2 -0.001921 0.019364 -0.006101 0.000000 0.000000 0.000000
# 3 -0.003261 -0.006101 0.015005 0.000000 0.000000 0.000000
# 4 0.000000 0.000000 0.000000 0.028044 0.000000 0.000000
# 5 0.000000 0.000000 0.000000 0.000000 0.024877 0.000000
# 6 0.000000 0.000000 0.000000 0.000000 0.000000 0.032750
#
#
# Mechanical properties :
#
#
# Convention : Reuss Voigt Hill
#
# Bulk Modulus (GPa) = 52.17406 61.21417 56.69411
# Shear Modulus (GPa) = 31.97783 35.12542 33.55163
#
# Velocity S-wave (km/s) = 3.95699 4.14716 4.05319
# Velocity P-wave (km/s) = 6.81349 7.27358 7.04729
#
# Compressibility (1/GPa) = 0.01916661
#
# Stress axis : x y z
#
# Youngs Moduli (GPa) = 135.81162 51.64195 66.64417
#
# Poissons Ratio (x) = 0.09921 0.21732
# Poissons Ratio (y) = 0.26090 0.40659
# Poissons Ratio (z) = 0.44287 0.31506
#
# Static dielectric constant tensor:
#      x y z
#    x 3.967090 0.000000 0.000000 
#    y 0.000000 3.729220 0.000000 
#    z 0.000000 0.000000 3.756760 
# 
# 
# High freq. dielectric constant tensor:
#      x y z
#    x 1.820240 0.000000 0.000000 
#    y 0.000000 1.801560 0.000000 
#    z 0.000000 0.000000 1.804530 
# 
# From -- ./inp_files/31988.got.cif
#   From: 2010.03.12/outbox.cif.g09.slc.cpg/sg62_16_cif.got.tgz:31988.got - 2010.04.10 19:12:36.
