data_PCOD8254814
_publ_section_title
;
Structure prediction by ZEFSAII (Michael W. Deem and Ramdas Pophale) SiO2 
 PCOD8254814
Probable space group: P N M A
;
_chemical_formula_sum "Si O2"
_cell_formula_units_Z 32
_cell_length_a 10.149269
_cell_length_b 8.482850
_cell_length_c 17.428575
_cell_angle_alpha 90.000000
_cell_angle_beta 90.000000
_cell_angle_gamma 90.000000
_cell_volume 1500.508399
_symmetry_space_group_name_H-M "P N M A"
_symmetry_group_IT_number 62
_symmetry_cell_setting 'orthorhombic'
loop_
_space_group_symop_operation_xyz
x,y,z
1/2-x,-y,1/2+z
1/2+x,1/2-y,1/2-z
-x,1/2+y,-z
-x,-y,-z
1/2+x,y,1/2-z
1/2-x,1/2+y,1/2+z
x,1/2-y,z
loop_
_atom_site_type_symbol
_atom_site_label
_atom_site_fract_x
_atom_site_fract_y
_atom_site_fract_z
Si Si1 0.466809 0.931118 0.834982
Si Si2 0.233175 0.068092 0.923540
Si Si3 0.520935 0.565905 0.328933
Si Si4 0.785918 0.932351 0.414410
O O1 0.426258 0.750000 0.843481
O O2 0.344179 0.038739 0.859571
O O3 0.504784 0.968539 0.747853
O O4 0.591295 0.963054 0.889131
O O5 0.235887 0.250000 0.948699
O O6 0.092210 0.020698 0.889128
O O7 0.258859 0.958335 0.996232
O O8 0.515454 0.750000 0.308774
O O9 0.659515 0.515615 0.365368
O O10 0.819458 0.750000 0.400444
#
# Coordination Sequence:
#
# PCOD8254814 Si02
#       4
#     8   8   8   8
#     4  12  25  40  61  90 123 160 203 248 295 352
#     4  11  23  41  64  90 122 158 199 247 300 357
#     4  10  23  42  64  90 121 158 198 246 303 358
#     4  11  23  41  64  90 122 158 199 247 300 357
#
# _framework density 21.326104999999998
#
# number of rings (size 3 to 8) (size 9 to 14) (size 15 to 20)
#    0.000    1.000    0.000    6.750    0.000   10.000 
#    0.000    0.000    0.000    0.000    0.000    0.000 
#    0.000    0.000    0.000    0.000    0.000    0.000 
#
# Total GULP energy -397126.134408 kJ/mol
# GULP energy per Si atom -12410.191700 kJ/mol
# Density = 2.127757 g / cm^3
# Si number density = 21.326105 Si / 1000 Ang^3
#
#
#
# Elastic Constant Matrix: (Units=GPa)
#
#
# Indices 1 2 3 4 5 6 
#
# 1 86.0429 21.9980 0.4988 0.0000 0.0000 0.0000
# 2 21.9980 50.2642 21.0470 0.0000 0.0000 0.0000
# 3 0.4988 21.0470 85.5948 0.0000 0.0000 0.0000
# 4 0.0000 0.0000 0.0000 32.4294 0.0000 0.0000
# 5 0.0000 0.0000 0.0000 0.0000 39.0686 0.0000
# 6 0.0000 0.0000 0.0000 0.0000 0.0000 15.1874
#
#
#
# Elastic Compliance Matrix: (Units=1/GPa)
#
#
# Indices 1 2 3 4 5 6 
#
# 1 0.013258 -0.006432 0.001504 0.000000 0.000000 0.000000
# 2 -0.006432 0.025299 -0.006183 0.000000 0.000000 0.000000
# 3 0.001504 -0.006183 0.013195 0.000000 0.000000 0.000000
# 4 0.000000 0.000000 0.000000 0.030836 0.000000 0.000000
# 5 0.000000 0.000000 0.000000 0.000000 0.025596 0.000000
# 6 0.000000 0.000000 0.000000 0.000000 0.000000 0.065844
#
#
# Mechanical properties :
#
#
# Convention : Reuss Voigt Hill
#
# Bulk Modulus (GPa) = 33.86478 34.33216 34.09847
# Shear Modulus (GPa) = 24.26089 29.22763 26.74426
#
# Velocity S-wave (km/s) = 3.37651 3.70606 3.54512
# Velocity P-wave (km/s) = 5.57809 5.86913 5.72546
#
# Compressibility (1/GPa) = 0.02952921
#
# Stress axis : x y z
#
# Youngs Moduli (GPa) = 75.42701 39.52717 75.78850
#
# Poissons Ratio (x) = 0.25425 -0.11401
# Poissons Ratio (y) = 0.48516 0.46863
# Poissons Ratio (z) = -0.11347 0.24441
#
# Static dielectric constant tensor:
#      x y z
#    x 4.017970 0.000000 0.000000 
#    y 0.000000 3.718140 0.000000 
#    z 0.000000 0.000000 3.800710 
# 
# 
# High freq. dielectric constant tensor:
#      x y z
#    x 1.851840 0.000000 0.000000 
#    y 0.000000 1.834830 0.000000 
#    z 0.000000 0.000000 1.846910 
# 
# From -- ./inp_files/17580.got.cif
#   From: 2010.03.12/outbox.cif.g09.slc.cpg/sg62_9_cif.got.tgz:17580.got - 2010.04.10 19:12:36.
