data_PCOD8254928
_publ_section_title
;
Structure prediction by ZEFSAII (Michael W. Deem and Ramdas Pophale) SiO2 
 PCOD8254928
Probable space group: P N M A
;
_chemical_formula_sum "Si O2"
_cell_formula_units_Z 48
_cell_length_a 9.381956
_cell_length_b 25.919325
_cell_length_c 8.369404
_cell_angle_alpha 90.000000
_cell_angle_beta 90.000000
_cell_angle_gamma 90.000000
_cell_volume 2035.221170
_symmetry_space_group_name_H-M "P N M A"
_symmetry_group_IT_number 62
_symmetry_cell_setting 'orthorhombic'
loop_
_space_group_symop_operation_xyz
x,y,z
1/2-x,-y,1/2+z
1/2+x,1/2-y,1/2-z
-x,1/2+y,-z
-x,-y,-z
1/2+x,y,1/2-z
1/2-x,1/2+y,1/2+z
x,1/2-y,z
loop_
_atom_site_type_symbol
_atom_site_label
_atom_site_fract_x
_atom_site_fract_y
_atom_site_fract_z
Si Si1 0.396889 0.250000 0.290311
Si Si2 0.783376 0.388106 0.588851
Si Si3 0.072409 0.344945 0.680752
Si Si4 0.479814 0.844373 0.522454
Si Si5 0.610674 0.250000 0.035246
Si Si6 0.892559 0.457576 0.066334
Si Si7 0.847968 0.010850 0.428573
O O1 0.466513 0.301799 0.357736
O O2 0.448843 0.250000 0.105311
O O3 0.227271 0.250000 0.320425
O O4 0.704360 0.381376 0.762343
O O5 0.693113 0.352578 0.462357
O O6 0.767750 0.446934 0.537878
O O7 0.951083 0.374989 0.581624
O O8 0.137218 0.299623 0.574035
O O9 0.990951 0.324453 0.840648
O O10 0.552450 0.899444 0.554046
O O11 0.855437 0.469750 0.248895
O O12 0.751013 0.460499 0.954874
O O13 0.000000 0.500000 0.000000
O O14 0.000000 0.000000 0.500000
#
# Coordination Sequence:
#
# PCOD8254928 Si02
#       7
#     4   8   8   8   4   8   8
#     4  12  29  50  74 117 161 210 255 348 384 480
#     4  10  25  46  76 114 144 206 256 327 391 473
#     4  10  24  46  81 104 151 198 274 311 395 470
#     4  10  26  47  82 102 165 193 269 324 401 461
#     4  12  29  48  78 117 155 212 273 320 410 464
#     4  12  26  52  75 112 158 204 260 329 401 477
#     4  12  29  43  78 114 159 202 268 321 412 477
#
# _framework density 23.584662999999999
#
# number of rings (size 3 to 8) (size 9 to 14) (size 15 to 20)
#    1.000    0.000    1.667    2.500   11.667    2.000 
#    0.000    0.000    0.000    0.000    0.000    0.000 
#    0.000    0.000    0.000    0.000    0.000    0.000 
#
# Total GULP energy -594735.568060 kJ/mol
# GULP energy per Si atom -12390.324335 kJ/mol
# Density = 2.353098 g / cm^3
# Si number density = 23.584663 Si / 1000 Ang^3
#
#
#
# Elastic Constant Matrix: (Units=GPa)
#
#
# Indices 1 2 3 4 5 6 
#
# 1 133.4364 42.1561 28.7342 0.0000 0.0000 0.0000
# 2 42.1561 129.4761 44.3451 0.0000 0.0000 0.0000
# 3 28.7342 44.3451 115.3594 0.0000 0.0000 0.0000
# 4 0.0000 0.0000 0.0000 37.3652 0.0000 0.0000
# 5 0.0000 0.0000 0.0000 0.0000 44.2930 0.0000
# 6 0.0000 0.0000 0.0000 0.0000 0.0000 38.5577
#
#
#
# Elastic Compliance Matrix: (Units=1/GPa)
#
#
# Indices 1 2 3 4 5 6 
#
# 1 0.008498 -0.002352 -0.001213 0.000000 0.000000 0.000000
# 2 -0.002352 0.009545 -0.003084 0.000000 0.000000 0.000000
# 3 -0.001213 -0.003084 0.010156 0.000000 0.000000 0.000000
# 4 0.000000 0.000000 0.000000 0.026763 0.000000 0.000000
# 5 0.000000 0.000000 0.000000 0.000000 0.022577 0.000000
# 6 0.000000 0.000000 0.000000 0.000000 0.000000 0.025935
#
#
# Mechanical properties :
#
#
# Convention : Reuss Voigt Hill
#
# Bulk Modulus (GPa) = 67.09767 67.63808 67.36787
# Shear Modulus (GPa) = 41.07178 41.57895 41.32536
#
# Velocity S-wave (km/s) = 4.17761 4.20332 4.19049
# Velocity P-wave (km/s) = 7.19593 7.23176 7.21386
#
# Compressibility (1/GPa) = 0.01490365
#
# Stress axis : x y z
#
# Youngs Moduli (GPa) = 117.67064 104.76503 98.46408
#
# Poissons Ratio (x) = 0.24636 0.11942
# Poissons Ratio (y) = 0.27671 0.30361
# Poissons Ratio (z) = 0.14271 0.32304
#
# Static dielectric constant tensor:
#      x y z
#    x 4.325590 0.000000 0.000000 
#    y 0.000000 4.157930 0.000000 
#    z 0.000000 0.000000 4.461760 
# 
# 
# High freq. dielectric constant tensor:
#      x y z
#    x 1.947320 0.000000 0.000000 
#    y 0.000000 1.933360 0.000000 
#    z 0.000000 0.000000 1.925950 
# 
# From -- ./inp_files/4576.got.cif
#   From: 2010.03.12/outbox.cif.g09.slc.cpg/sg62_3_cif.got.tgz:4576.got - 2010.04.10 19:12:36.
