data_PCOD8254604
_publ_section_title
;
Structure prediction by ZEFSAII (Michael W. Deem and Ramdas Pophale) SiO2 
 PCOD8254604
Probable space group: P N M A
;
_chemical_formula_sum "Si O2"
_cell_formula_units_Z 48
_cell_length_a 7.472946
_cell_length_b 21.089973
_cell_length_c 14.582062
_cell_angle_alpha 90.000000
_cell_angle_beta 90.000000
_cell_angle_gamma 90.000000
_cell_volume 2298.194644
_symmetry_space_group_name_H-M "P N M A"
_symmetry_group_IT_number 62
_symmetry_cell_setting 'orthorhombic'
loop_
_space_group_symop_operation_xyz
x,y,z
1/2-x,-y,1/2+z
1/2+x,1/2-y,1/2-z
-x,1/2+y,-z
-x,-y,-z
1/2+x,y,1/2-z
1/2-x,1/2+y,1/2+z
x,1/2-y,z
loop_
_atom_site_type_symbol
_atom_site_label
_atom_site_fract_x
_atom_site_fract_y
_atom_site_fract_z
Si Si1 0.774651 0.490354 0.342596
Si Si2 0.558601 0.871437 0.497529
Si Si3 0.614537 0.549922 0.659113
Si Si4 0.095213 0.379071 0.624397
Si Si5 0.722722 0.949677 0.041545
Si Si6 0.322103 0.750000 0.213724
Si Si7 0.539503 0.250000 0.599327
O O1 0.834994 0.439202 0.265510
O O2 0.562443 0.492473 0.346283
O O3 0.846858 0.560393 0.313434
O O4 0.853375 0.471833 0.442335
O O5 0.588498 0.882262 0.607203
O O6 0.752684 0.872013 0.452271
O O7 0.428849 0.927607 0.465172
O O8 0.455682 0.807547 0.471796
O O9 0.774219 0.510052 0.609779
O O10 0.075217 0.314673 0.683319
O O11 0.903307 0.393367 0.578651
O O12 0.128592 0.750000 0.168330
O O13 0.300373 0.750000 0.325406
#
# Coordination Sequence:
#
# PCOD8254604 Si02
#       7
#     8   8   8   8   8   4   4
#     4  11  22  36  60  93 118 161 201 249 310 357
#     4  10  22  41  57  85 123 157 201 241 305 361
#     4  11  22  38  60  89 124 154 206 253 302 366
#     4  11  22  39  60  87 126 157 201 243 308 359
#     4  11  22  38  63  87 123 160 194 259 303 362
#     4  10  26  38  58  93 115 160 206 234 293 376
#     4  10  24  42  64  83 125 164 194 252 301 350
#
# _framework density 20.885959
#
# number of rings (size 3 to 8) (size 9 to 14) (size 15 to 20)
#    0.000    1.333    3.333    2.500    7.000    1.333 
#    0.000    0.000    0.000    5.000    0.000    0.000 
#    0.000    0.000    0.000    0.000    0.000    0.000 
#
# Total GULP energy -594872.878328 kJ/mol
# GULP energy per Si atom -12393.184965 kJ/mol
# Density = 2.083842 g / cm^3
# Si number density = 20.885959 Si / 1000 Ang^3
#
#
#
# Elastic Constant Matrix: (Units=GPa)
#
#
# Indices 1 2 3 4 5 6 
#
# 1 53.5244 8.9772 15.6008 0.0000 0.0000 0.0000
# 2 8.9772 110.4772 57.0756 0.0000 0.0000 0.0000
# 3 15.6008 57.0756 137.6067 0.0000 0.0000 0.0000
# 4 0.0000 0.0000 0.0000 35.4125 0.0000 0.0000
# 5 0.0000 0.0000 0.0000 0.0000 27.3244 0.0000
# 6 0.0000 0.0000 0.0000 0.0000 0.0000 22.6834
#
#
#
# Elastic Compliance Matrix: (Units=1/GPa)
#
#
# Indices 1 2 3 4 5 6 
#
# 1 0.019349 -0.000559 -0.001962 0.000000 0.000000 0.000000
# 2 -0.000559 0.011536 -0.004722 0.000000 0.000000 0.000000
# 3 -0.001962 -0.004722 0.009448 0.000000 0.000000 0.000000
# 4 0.000000 0.000000 0.000000 0.028239 0.000000 0.000000
# 5 0.000000 0.000000 0.000000 0.000000 0.036597 0.000000
# 6 0.000000 0.000000 0.000000 0.000000 0.000000 0.044085
#
#
# Mechanical properties :
#
#
# Convention : Reuss Voigt Hill
#
# Bulk Modulus (GPa) = 38.68696 51.65729 45.17213
# Shear Modulus (GPa) = 29.01000 31.74773 30.37886
#
# Velocity S-wave (km/s) = 3.73093 3.90301 3.81794
# Velocity P-wave (km/s) = 6.09286 6.71551 6.41175
#
# Compressibility (1/GPa) = 0.02584851
#
# Stress axis : x y z
#
# Youngs Moduli (GPa) = 51.68330 86.68235 105.84337
#
# Poissons Ratio (x) = 0.04843 0.20765
# Poissons Ratio (y) = 0.02887 0.49975
# Poissons Ratio (z) = 0.10140 0.40928
#
# Static dielectric constant tensor:
#      x y z
#    x 3.738110 0.000000 0.000000 
#    y 0.000000 3.777440 0.000000 
#    z 0.000000 0.000000 3.932560 
# 
# 
# High freq. dielectric constant tensor:
#      x y z
#    x 1.833060 0.000000 0.000000 
#    y 0.000000 1.784860 0.000000 
#    z 0.000000 0.000000 1.810950 
# 
# From -- ./inp_files/17103.got.cif
#   From: 2010.03.12/outbox.cif.g09.slc.cpg/sg62_9_cif.got.tgz:17103.got - 2010.04.10 19:12:36.
