data_PCOD8254442
_publ_section_title
;
Structure prediction by ZEFSAII (Michael W. Deem and Ramdas Pophale) SiO2 
 PCOD8254442
Probable space group: P N M A
;
_chemical_formula_sum "Si O2"
_cell_formula_units_Z 40
_cell_length_a 10.065631
_cell_length_b 8.954826
_cell_length_c 23.755578
_cell_angle_alpha 90.000000
_cell_angle_beta 90.000000
_cell_angle_gamma 90.000000
_cell_volume 2141.232165
_symmetry_space_group_name_H-M "P N M A"
_symmetry_group_IT_number 62
_symmetry_cell_setting 'orthorhombic'
loop_
_space_group_symop_operation_xyz
x,y,z
1/2-x,-y,1/2+z
1/2+x,1/2-y,1/2-z
-x,1/2+y,-z
-x,-y,-z
1/2+x,y,1/2-z
1/2-x,1/2+y,1/2+z
x,1/2-y,z
loop_
_atom_site_type_symbol
_atom_site_label
_atom_site_fract_x
_atom_site_fract_y
_atom_site_fract_z
Si Si1 0.524705 0.073195 0.559610
Si Si2 0.788803 0.424969 0.858379
Si Si3 0.154193 0.926460 0.268704
Si Si4 0.528534 0.918813 0.845836
Si Si5 0.742111 0.919623 0.630265
O O1 0.533719 0.250000 0.553312
O O2 0.406105 0.023406 0.600734
O O3 0.500000 0.000000 0.500000
O O4 0.662518 0.012528 0.584119
O O5 0.764425 0.250000 0.862596
O O6 0.825405 0.475544 0.795387
O O7 0.653602 0.507015 0.877102
O O8 0.160081 0.750000 0.276306
O O9 0.009661 0.987271 0.289237
O O10 0.268928 0.002065 0.307907
O O11 0.563901 0.750000 0.828444
O O12 0.399154 0.921771 0.887121
O O13 0.688394 0.750000 0.633548
#
# Coordination Sequence:
#
# PCOD8254442 Si02
#       5
#     8   8   8   8   8
#     4  11  24  42  62  87 117 162 210 253 301 356
#     4  10  22  37  58  86 118 156 202 246 294 361
#     4   9  18  33  56  85 119 155 191 238 298 357
#     4   9  20  35  55  87 119 150 191 238 296 354
#     4   9  20  37  57  86 119 154 194 243 296 356
#
# _framework density 18.680833
#
# number of rings (size 3 to 8) (size 9 to 14) (size 15 to 20)
#    1.200    1.200    0.000    1.800    2.800    3.200 
#    0.000    1.000    0.000    0.000    0.000    0.000 
#    0.000    0.000    0.000    0.000    0.000    0.000 
#
# Total GULP energy -495740.126400 kJ/mol
# GULP energy per Si atom -12393.503160 kJ/mol
# Density = 1.863831 g / cm^3
# Si number density = 18.680833 Si / 1000 Ang^3
#
#
#
# Elastic Constant Matrix: (Units=GPa)
#
#
# Indices 1 2 3 4 5 6 
#
# 1 97.1521 43.5041 31.9676 0.0000 0.0000 0.0000
# 2 43.5041 89.2855 37.3424 0.0000 0.0000 0.0000
# 3 31.9676 37.3424 86.3189 0.0000 0.0000 0.0000
# 4 0.0000 0.0000 0.0000 25.4210 0.0000 0.0000
# 5 0.0000 0.0000 0.0000 0.0000 26.1006 0.0000
# 6 0.0000 0.0000 0.0000 0.0000 0.0000 32.4542
#
#
#
# Elastic Compliance Matrix: (Units=1/GPa)
#
#
# Indices 1 2 3 4 5 6 
#
# 1 0.013648 -0.005538 -0.002659 0.000000 0.000000 0.000000
# 2 -0.005538 0.015921 -0.004837 0.000000 0.000000 0.000000
# 3 -0.002659 -0.004837 0.014662 0.000000 0.000000 0.000000
# 4 0.000000 0.000000 0.000000 0.039338 0.000000 0.000000
# 5 0.000000 0.000000 0.000000 0.000000 0.038313 0.000000
# 6 0.000000 0.000000 0.000000 0.000000 0.000000 0.030813
#
#
# Mechanical properties :
#
#
# Convention : Reuss Voigt Hill
#
# Bulk Modulus (GPa) = 55.05258 55.37607 55.21432
# Shear Modulus (GPa) = 27.05396 27.45800 27.25598
#
# Velocity S-wave (km/s) = 3.80968 3.83802 3.82387
# Velocity P-wave (km/s) = 6.99182 7.02482 7.00834
#
# Compressibility (1/GPa) = 0.01816445
#
# Stress axis : x y z
#
# Youngs Moduli (GPa) = 73.27197 62.80909 68.20360
#
# Poissons Ratio (x) = 0.34783 0.18133
# Poissons Ratio (y) = 0.40577 0.32989
# Poissons Ratio (z) = 0.19480 0.30379
#
# Static dielectric constant tensor:
#      x y z
#    x 5.273140 0.000000 0.000000 
#    y 0.000000 3.467410 0.000000 
#    z 0.000000 0.000000 3.157510 
# 
# 
# High freq. dielectric constant tensor:
#      x y z
#    x 1.724410 0.000000 0.000000 
#    y 0.000000 1.739570 0.000000 
#    z 0.000000 0.000000 1.691500 
# 
# From -- ./inp_files/28590.got.cif
#   From: 2010.03.12/outbox.cif.g09.slc.cpg/sg62_15_cif.got.tgz:28590.got - 2010.04.10 19:12:36.
