data_PCOD8254270
_publ_section_title
;
Structure prediction by ZEFSAII (Michael W. Deem and Ramdas Pophale) SiO2 
 PCOD8254270
Probable space group: P N M A
;
_chemical_formula_sum "Si O2"
_cell_formula_units_Z 64
_cell_length_a 32.210104
_cell_length_b 8.625929
_cell_length_c 11.176491
_cell_angle_alpha 90.000000
_cell_angle_beta 90.000000
_cell_angle_gamma 90.000000
_cell_volume 3105.299397
_symmetry_space_group_name_H-M "P N M A"
_symmetry_group_IT_number 62
_symmetry_cell_setting 'orthorhombic'
loop_
_space_group_symop_operation_xyz
x,y,z
1/2-x,-y,1/2+z
1/2+x,1/2-y,1/2-z
-x,1/2+y,-z
-x,-y,-z
1/2+x,y,1/2-z
1/2-x,1/2+y,1/2+z
x,1/2-y,z
loop_
_atom_site_type_symbol
_atom_site_label
_atom_site_fract_x
_atom_site_fract_y
_atom_site_fract_z
Si Si1 0.880548 0.929156 0.088803
Si Si2 0.832235 0.075799 0.519868
Si Si3 0.400044 0.572271 0.839148
Si Si4 0.233225 0.925672 0.277432
Si Si5 0.987109 0.069708 0.629098
Si Si6 0.318243 0.072951 0.247928
Si Si7 0.524018 0.433242 0.616188
Si Si8 0.654652 0.930038 0.359901
O O1 0.877998 0.750000 0.051567
O O2 0.928009 0.982249 0.102913
O O3 0.855209 0.960568 0.209498
O O4 0.855833 0.036996 0.996229
O O5 0.850111 0.250000 0.531849
O O6 0.793160 0.052153 0.603884
O O7 0.814802 0.039734 0.391162
O O8 0.869182 0.957598 0.550470
O O9 0.414804 0.750000 0.838717
O O10 0.438892 0.460287 0.852744
O O11 0.376966 0.533499 0.716148
O O12 0.248925 0.750000 0.260478
O O13 0.202715 0.974596 0.167307
O O14 0.272684 0.034602 0.297008
O O15 0.997096 0.250000 0.620152
O O16 0.009246 0.003986 0.751907
O O17 0.000000 0.000000 0.500000
O O18 0.329240 0.250000 0.279707
O O19 0.500000 0.500000 0.500000
O O20 0.517735 0.250000 0.612621
O O21 0.647840 0.750000 0.326664
#
# Coordination Sequence:
#
# PCOD8254270 Si02
#       8
#     8   8   8   8   8   8   8   8
#     4  11  24  41  62  91 127 163 203 254 311 370
#     4   9  21  41  61  85 120 161 204 254 306 361
#     4  11  22  38  63  93 122 160 205 251 309 373
#     4   9  20  39  61  86 118 158 201 253 308 360
#     4  11  24  42  64  94 129 167 211 265 319 383
#     4  11  24  39  59  89 122 160 205 252 307 365
#     4  10  24  44  67  95 128 165 209 260 317 381
#     4  10  21  40  64  92 123 160 206 255 304 364
#
# _framework density 20.609929000000001
#
# number of rings (size 3 to 8) (size 9 to 14) (size 15 to 20)
#    0.000    1.750    0.000    4.125    3.500    7.500 
#    0.000    0.000    0.000    0.000    0.000    0.000 
#    0.000    0.000    0.000    0.000    0.000    0.000 
#
# Total GULP energy -793423.978008 kJ/mol
# GULP energy per Si atom -12397.249656 kJ/mol
# Density = 2.056302 g / cm^3
# Si number density = 20.609929 Si / 1000 Ang^3
#
#
#
# Elastic Constant Matrix: (Units=GPa)
#
#
# Indices 1 2 3 4 5 6 
#
# 1 117.3906 25.1834 61.5384 0.0000 0.0000 0.0000
# 2 25.1834 52.8015 33.4703 0.0000 0.0000 0.0000
# 3 61.5384 33.4703 113.5218 0.0000 0.0000 0.0000
# 4 0.0000 0.0000 0.0000 33.1675 0.0000 0.0000
# 5 0.0000 0.0000 0.0000 0.0000 17.2178 0.0000
# 6 0.0000 0.0000 0.0000 0.0000 0.0000 33.2354
#
#
#
# Elastic Compliance Matrix: (Units=1/GPa)
#
#
# Indices 1 2 3 4 5 6 
#
# 1 0.012066 -0.001978 -0.005957 0.000000 0.000000 0.000000
# 2 -0.001978 0.023616 -0.005890 0.000000 0.000000 0.000000
# 3 -0.005957 -0.005890 0.013775 0.000000 0.000000 0.000000
# 4 0.000000 0.000000 0.000000 0.030150 0.000000 0.000000
# 5 0.000000 0.000000 0.000000 0.000000 0.058079 0.000000
# 6 0.000000 0.000000 0.000000 0.000000 0.000000 0.030088
#
#
# Mechanical properties :
#
#
# Convention : Reuss Voigt Hill
#
# Bulk Modulus (GPa) = 45.86179 58.23314 52.04747
# Shear Modulus (GPa) = 24.66746 27.62560 26.14653
#
# Velocity S-wave (km/s) = 3.46334 3.66512 3.56566
# Velocity P-wave (km/s) = 6.18818 6.79905 6.50079
#
# Compressibility (1/GPa) = 0.02180464
#
# Stress axis : x y z
#
# Youngs Moduli (GPa) = 82.87730 42.34353 72.59487
#
# Poissons Ratio (x) = 0.08377 0.43248
# Poissons Ratio (y) = 0.16397 0.42762
# Poissons Ratio (z) = 0.49374 0.24942
#
# Static dielectric constant tensor:
#      x y z
#    x 3.755610 0.000000 0.000000 
#    y 0.000000 3.683220 0.000000 
#    z 0.000000 0.000000 3.935660 
# 
# 
# High freq. dielectric constant tensor:
#      x y z
#    x 1.811050 0.000000 0.000000 
#    y 0.000000 1.800400 0.000000 
#    z 0.000000 0.000000 1.816600 
# 
# From -- ./inp_files/15770.got.cif
#   From: 2010.03.12/outbox.cif.g09.slc.cpg/sg62_8_cif.got.tgz:15770.got - 2010.04.10 19:12:36.
