data_PCOD8254926
_publ_section_title
;
Structure prediction by ZEFSAII (Michael W. Deem and Ramdas Pophale) SiO2 
 PCOD8254926
Probable space group: P N M A
;
_chemical_formula_sum "Si O2"
_cell_formula_units_Z 48
_cell_length_a 11.999422
_cell_length_b 22.009350
_cell_length_c 8.593821
_cell_angle_alpha 90.000000
_cell_angle_beta 90.000000
_cell_angle_gamma 90.000000
_cell_volume 2269.623645
_symmetry_space_group_name_H-M "P N M A"
_symmetry_group_IT_number 62
_symmetry_cell_setting 'orthorhombic'
loop_
_space_group_symop_operation_xyz
x,y,z
1/2-x,-y,1/2+z
1/2+x,1/2-y,1/2-z
-x,1/2+y,-z
-x,-y,-z
1/2+x,y,1/2-z
1/2-x,1/2+y,1/2+z
x,1/2-y,z
loop_
_atom_site_type_symbol
_atom_site_label
_atom_site_fract_x
_atom_site_fract_y
_atom_site_fract_z
Si Si1 0.819451 0.421055 0.971766
Si Si2 0.549389 0.406799 0.659335
Si Si3 0.256805 0.378070 0.055349
Si Si4 0.687992 0.320383 0.122774
Si Si5 0.975190 0.180437 0.569312
Si Si6 0.689684 0.994611 0.770922
O O1 0.778862 0.452371 0.811972
O O2 0.952807 0.416281 0.968373
O O3 0.766592 0.354556 0.997262
O O4 0.775419 0.464163 0.109210
O O5 0.660462 0.386965 0.570265
O O6 0.511846 0.356333 0.779958
O O7 0.571348 0.470614 0.750293
O O8 0.203472 0.345831 0.204755
O O9 0.314212 0.442494 0.098125
O O10 0.351360 0.335874 0.983381
O O11 0.722105 0.250000 0.117296
O O12 0.559564 0.330834 0.074224
O O13 0.977075 0.250000 0.621284
#
# Coordination Sequence:
#
# PCOD8254926 Si02
#       6
#     8   8   8   8   8   8
#     4  11  24  43  67 101 136 179 229 283 344 413
#     4  12  25  44  68 104 140 179 227 283 352 415
#     4  11  26  44  70 102 139 182 225 287 349 413
#     4  10  24  46  70  96 133 181 237 286 342 407
#     4  11  26  46  70  99 135 183 236 287 339 410
#     4  11  23  41  67 100 134 176 221 278 346 414
#
# _framework density 21.148879999999998
#
# number of rings (size 3 to 8) (size 9 to 14) (size 15 to 20)
#    0.000    1.000    3.333    2.000    4.667    4.000 
#    0.000    0.000    0.000    0.000    0.000    0.000 
#    0.000    0.000    0.000    0.000    0.000    0.000 
#
# Total GULP energy -595249.543386 kJ/mol
# GULP energy per Si atom -12401.032154 kJ/mol
# Density = 2.110074 g / cm^3
# Si number density = 21.148880 Si / 1000 Ang^3
#
#
#
# Elastic Constant Matrix: (Units=GPa)
#
#
# Indices 1 2 3 4 5 6 
#
# 1 108.1327 36.3596 58.2241 0.0000 0.0000 0.0000
# 2 36.3596 118.3507 59.5163 0.0000 0.0000 0.0000
# 3 58.2241 59.5163 113.9666 0.0000 0.0000 0.0000
# 4 0.0000 0.0000 0.0000 31.7176 0.0000 0.0000
# 5 0.0000 0.0000 0.0000 0.0000 37.8847 0.0000
# 6 0.0000 0.0000 0.0000 0.0000 0.0000 31.6052
#
#
#
# Elastic Compliance Matrix: (Units=1/GPa)
#
#
# Indices 1 2 3 4 5 6 
#
# 1 0.012824 -0.000875 -0.006095 0.000000 0.000000 0.000000
# 2 -0.000875 0.011518 -0.005568 0.000000 0.000000 0.000000
# 3 -0.006095 -0.005568 0.014796 0.000000 0.000000 0.000000
# 4 0.000000 0.000000 0.000000 0.031528 0.000000 0.000000
# 5 0.000000 0.000000 0.000000 0.000000 0.026396 0.000000
# 6 0.000000 0.000000 0.000000 0.000000 0.000000 0.031640
#
#
# Mechanical properties :
#
#
# Convention : Reuss Voigt Hill
#
# Bulk Modulus (GPa) = 71.10985 72.07221 71.59103
# Shear Modulus (GPa) = 31.55259 32.66484 32.10871
#
# Velocity S-wave (km/s) = 3.86674 3.93430 3.90067
# Velocity P-wave (km/s) = 7.32339 7.40208 7.36284
#
# Compressibility (1/GPa) = 0.01406275
#
# Stress axis : x y z
#
# Youngs Moduli (GPa) = 77.98059 86.81765 67.58561
#
# Poissons Ratio (x) = 0.07595 0.41191
# Poissons Ratio (y) = 0.06822 0.37633
# Poissons Ratio (z) = 0.47526 0.48342
#
# Static dielectric constant tensor:
#      x y z
#    x 3.834100 0.000000 0.000000 
#    y 0.000000 4.096070 0.000000 
#    z 0.000000 0.000000 3.822990 
# 
# 
# High freq. dielectric constant tensor:
#      x y z
#    x 1.824740 0.000000 0.000000 
#    y 0.000000 1.844380 0.000000 
#    z 0.000000 0.000000 1.835030 
# 
# From -- ./inp_files/5290.got.cif
#   From: 2010.03.12/outbox.cif.g09.slc.cpg/sg62_3_cif.got.tgz:5290.got - 2010.04.10 19:12:36.
