data_PCOD8254732
_publ_section_title
;
Structure prediction by ZEFSAII (Michael W. Deem and Ramdas Pophale) SiO2 
 PCOD8254732
Probable space group: P N M A
;
_chemical_formula_sum "Si O2"
_cell_formula_units_Z 64
_cell_length_a 14.693674
_cell_length_b 8.591371
_cell_length_c 24.500693
_cell_angle_alpha 90.000000
_cell_angle_beta 90.000000
_cell_angle_gamma 90.000000
_cell_volume 3092.938198
_symmetry_space_group_name_H-M "P N M A"
_symmetry_group_IT_number 62
_symmetry_cell_setting 'orthorhombic'
loop_
_space_group_symop_operation_xyz
x,y,z
1/2-x,-y,1/2+z
1/2+x,1/2-y,1/2-z
-x,1/2+y,-z
-x,-y,-z
1/2+x,y,1/2-z
1/2-x,1/2+y,1/2+z
x,1/2-y,z
loop_
_atom_site_type_symbol
_atom_site_label
_atom_site_fract_x
_atom_site_fract_y
_atom_site_fract_z
Si Si1 0.043208 0.926178 0.130725
Si Si2 0.131353 0.068559 0.235977
Si Si3 0.596672 0.571722 0.485876
Si Si4 0.996034 0.066246 0.672206
Si Si5 0.172619 0.429549 0.737819
Si Si6 0.365654 0.428342 0.347582
Si Si7 0.050620 0.931882 0.448325
Si Si8 0.743360 0.068975 0.561365
O O1 0.007438 0.750000 0.136564
O O2 0.111347 0.938770 0.079421
O O3 0.094271 0.973584 0.185132
O O4 0.957066 0.037905 0.117903
O O5 0.112939 0.250000 0.227061
O O6 0.081276 0.015880 0.291266
O O7 0.239136 0.038670 0.237344
O O8 0.500000 0.500000 0.500000
O O9 0.601974 0.750000 0.506640
O O10 0.677248 0.472518 0.511855
O O11 0.977789 0.250000 0.676547
O O12 0.986582 0.004897 0.609965
O O13 0.098617 0.025006 0.691643
O O14 0.201958 0.250000 0.732282
O O15 0.124027 0.460722 0.795325
O O16 0.358675 0.250000 0.329337
O O17 0.279179 0.472246 0.384146
O O18 0.035095 0.750000 0.449340
O O19 0.155533 0.977965 0.455632
O O20 0.000000 0.000000 0.500000
O O21 0.734976 0.250000 0.575653
#
# Coordination Sequence:
#
# PCOD8254732 Si02
#       8
#     8   8   8   8   8   8   8   8
#     4  11  23  40  61  87 125 171 209 255 321 384
#     4  12  25  40  63  96 132 166 210 268 321 378
#     4  11  23  38  61  90 125 166 213 263 314 379
#     4  10  22  43  69  93 124 169 217 260 316 387
#     4  11  23  40  65  92 127 172 214 260 319 388
#     4  12  23  37  62  95 128 163 212 268 318 374
#     4  10  24  45  68  94 123 163 213 267 318 375
#     4  11  23  40  64  93 129 172 215 262 325 390
#
# _framework density 20.692297
#
# number of rings (size 3 to 8) (size 9 to 14) (size 15 to 20)
#    0.000    1.000    2.500    4.500    0.000    5.500 
#    0.000    3.750    0.000    0.000    0.000    0.000 
#    0.000    0.000    0.000    0.000    0.000    0.000 
#
# Total GULP energy -793797.638918 kJ/mol
# GULP energy per Si atom -12403.088108 kJ/mol
# Density = 2.064520 g / cm^3
# Si number density = 20.692297 Si / 1000 Ang^3
#
#
#
# Elastic Constant Matrix: (Units=GPa)
#
#
# Indices 1 2 3 4 5 6 
#
# 1 120.4649 33.7204 60.2947 0.0000 0.0000 0.0000
# 2 33.7204 57.4786 31.0258 0.0000 0.0000 0.0000
# 3 60.2947 31.0258 145.1766 0.0000 0.0000 0.0000
# 4 0.0000 0.0000 0.0000 32.2168 0.0000 0.0000
# 5 0.0000 0.0000 0.0000 0.0000 34.9332 0.0000
# 6 0.0000 0.0000 0.0000 0.0000 0.0000 30.5256
#
#
#
# Elastic Compliance Matrix: (Units=1/GPa)
#
#
# Indices 1 2 3 4 5 6 
#
# 1 0.011509 -0.004716 -0.003772 0.000000 0.000000 0.000000
# 2 -0.004716 0.021599 -0.002657 0.000000 0.000000 0.000000
# 3 -0.003772 -0.002657 0.009023 0.000000 0.000000 0.000000
# 4 0.000000 0.000000 0.000000 0.031040 0.000000 0.000000
# 5 0.000000 0.000000 0.000000 0.000000 0.028626 0.000000
# 6 0.000000 0.000000 0.000000 0.000000 0.000000 0.032759
#
#
# Mechanical properties :
#
#
# Convention : Reuss Voigt Hill
#
# Bulk Modulus (GPa) = 50.40315 63.68908 57.04611
# Shear Modulus (GPa) = 30.58854 32.74041 31.66447
#
# Velocity S-wave (km/s) = 3.84898 3.98207 3.91609
# Velocity P-wave (km/s) = 6.64561 7.21030 6.93371
#
# Compressibility (1/GPa) = 0.01984003
#
# Stress axis : x y z
#
# Youngs Moduli (GPa) = 86.88638 46.29898 110.83135
#
# Poissons Ratio (x) = 0.21834 0.41808
# Poissons Ratio (y) = 0.40975 0.29451
# Poissons Ratio (z) = 0.32775 0.12303
#
# Static dielectric constant tensor:
#      x y z
#    x 3.898270 0.000000 0.000000 
#    y 0.000000 3.703560 0.000000 
#    z 0.000000 0.000000 4.474000 
# 
# 
# High freq. dielectric constant tensor:
#      x y z
#    x 1.809830 0.000000 0.000000 
#    y 0.000000 1.811410 0.000000 
#    z 0.000000 0.000000 1.819760 
# 
# From -- ./inp_files/29890.got.cif
#   From: 2010.03.12/outbox.cif.g09.slc.cpg/sg62_15_cif.got.tgz:29890.got - 2010.04.10 19:12:36.
