data_PCOD8254519
_publ_section_title
;
Structure prediction by ZEFSAII (Michael W. Deem and Ramdas Pophale) SiO2 
 PCOD8254519
Probable space group: P N M A
;
_chemical_formula_sum "Si O2"
_cell_formula_units_Z 64
_cell_length_a 12.274512
_cell_length_b 27.007851
_cell_length_c 8.683944
_cell_angle_alpha 90.000000
_cell_angle_beta 90.000000
_cell_angle_gamma 90.000000
_cell_volume 2878.798568
_symmetry_space_group_name_H-M "P N M A"
_symmetry_group_IT_number 62
_symmetry_cell_setting 'orthorhombic'
loop_
_space_group_symop_operation_xyz
x,y,z
1/2-x,-y,1/2+z
1/2+x,1/2-y,1/2-z
-x,1/2+y,-z
-x,-y,-z
1/2+x,y,1/2-z
1/2-x,1/2+y,1/2+z
x,1/2-y,z
loop_
_atom_site_type_symbol
_atom_site_label
_atom_site_fract_x
_atom_site_fract_y
_atom_site_fract_z
Si Si1 0.371475 0.512584 0.038189
Si Si2 0.904514 0.307103 0.883000
Si Si3 0.056255 0.396505 0.406371
Si Si4 0.748549 0.305701 0.375830
Si Si5 0.053242 0.122983 0.063454
Si Si6 0.299796 0.555706 0.363444
Si Si7 0.809040 0.803455 0.540868
Si Si8 0.874948 0.367803 0.601059
O O1 0.346288 0.523813 0.219885
O O2 0.500000 0.500000 0.000000
O O3 0.350561 0.563176 0.942715
O O4 0.278031 0.475634 0.978175
O O5 0.948091 0.250000 0.900366
O O6 0.933533 0.329884 0.717252
O O7 0.773425 0.307906 0.898119
O O8 0.949699 0.347544 0.001886
O O9 0.022016 0.400503 0.228447
O O10 0.096203 0.342896 0.458387
O O11 0.956423 0.407974 0.523904
O O12 0.740611 0.250000 0.439912
O O13 0.639834 0.333910 0.419911
O O14 0.766851 0.307208 0.192993
O O15 0.846400 0.334219 0.454606
O O16 0.095717 0.077949 0.955184
O O17 0.223963 0.602688 0.315025
O O18 0.867982 0.750000 0.537074
#
# Coordination Sequence:
#
# PCOD8254519 Si02
#       8
#     8   8   8   8   8   8   8   8
#     4  12  25  48  75 101 138 177 231 290 354 425
#     4  11  22  37  58  95 136 179 227 277 341 413
#     4  11  22  42  66  95 130 174 224 282 346 415
#     4   9  18  35  57  84 120 167 216 269 328 398
#     4  10  22  39  65  93 129 177 222 283 347 412
#     4  11  25  47  69 101 135 176 230 291 356 422
#     4   9  20  37  60  90 128 173 224 275 330 404
#     4  11  22  38  62  91 132 171 222 279 346 414
#
# _framework density 22.231496
#
# number of rings (size 3 to 8) (size 9 to 14) (size 15 to 20)
#    0.000    1.500    1.250    3.750    0.000    2.500 
#    4.500    3.750    0.000    0.000    0.000    0.000 
#    0.000    0.000    0.000    0.000    0.000    0.000 
#
# Total GULP energy -792891.069003 kJ/mol
# GULP energy per Si atom -12388.922953 kJ/mol
# Density = 2.218090 g / cm^3
# Si number density = 22.231496 Si / 1000 Ang^3
#
#
#
# Elastic Constant Matrix: (Units=GPa)
#
#
# Indices 1 2 3 4 5 6 
#
# 1 59.5298 22.6823 32.3112 0.0000 0.0000 0.0000
# 2 22.6823 93.0729 40.7097 0.0000 0.0000 0.0000
# 3 32.3112 40.7097 99.1462 0.0000 0.0000 0.0000
# 4 0.0000 0.0000 0.0000 36.7969 0.0000 0.0000
# 5 0.0000 0.0000 0.0000 0.0000 31.7748 0.0000
# 6 0.0000 0.0000 0.0000 0.0000 0.0000 32.8772
#
#
#
# Elastic Compliance Matrix: (Units=1/GPa)
#
#
# Indices 1 2 3 4 5 6 
#
# 1 0.020904 -0.002577 -0.005754 0.000000 0.000000 0.000000
# 2 -0.002577 0.013414 -0.004668 0.000000 0.000000 0.000000
# 3 -0.005754 -0.004668 0.013878 0.000000 0.000000 0.000000
# 4 0.000000 0.000000 0.000000 0.027176 0.000000 0.000000
# 5 0.000000 0.000000 0.000000 0.000000 0.031471 0.000000
# 6 0.000000 0.000000 0.000000 0.000000 0.000000 0.030416
#
#
# Mechanical properties :
#
#
# Convention : Reuss Voigt Hill
#
# Bulk Modulus (GPa) = 45.05151 49.23947 47.14549
# Shear Modulus (GPa) = 29.29850 30.69284 29.99567
#
# Velocity S-wave (km/s) = 3.63420 3.71968 3.67719
# Velocity P-wave (km/s) = 6.15781 6.37531 6.26750
#
# Compressibility (1/GPa) = 0.02219681
#
# Stress axis : x y z
#
# Youngs Moduli (GPa) = 47.83885 74.54832 72.05670
#
# Poissons Ratio (x) = 0.19215 0.41461
# Poissons Ratio (y) = 0.12330 0.33635
# Poissons Ratio (z) = 0.27527 0.34798
#
# Static dielectric constant tensor:
#      x y z
#    x 3.751440 0.000000 0.000000 
#    y 0.000000 4.312880 0.000000 
#    z 0.000000 0.000000 4.048150 
# 
# 
# High freq. dielectric constant tensor:
#      x y z
#    x 1.857320 0.000000 0.000000 
#    y 0.000000 1.895390 0.000000 
#    z 0.000000 0.000000 1.874430 
# 
# From -- ./inp_files/5532.got.cif
#   From: 2010.03.12/outbox.cif.g09.slc.cpg/sg62_3_cif.got.tgz:5532.got - 2010.04.10 19:12:36.
