data_PCOD8254931
_publ_section_title
;
Structure prediction by ZEFSAII (Michael W. Deem and Ramdas Pophale) SiO2 
 PCOD8254931
Probable space group: P N M A
;
_chemical_formula_sum "Si O2"
_cell_formula_units_Z 40
_cell_length_a 8.901560
_cell_length_b 22.731368
_cell_length_c 9.219102
_cell_angle_alpha 90.000000
_cell_angle_beta 90.000000
_cell_angle_gamma 90.000000
_cell_volume 1865.435840
_symmetry_space_group_name_H-M "P N M A"
_symmetry_group_IT_number 62
_symmetry_cell_setting 'orthorhombic'
loop_
_space_group_symop_operation_xyz
x,y,z
1/2-x,-y,1/2+z
1/2+x,1/2-y,1/2-z
-x,1/2+y,-z
-x,-y,-z
1/2+x,y,1/2-z
1/2-x,1/2+y,1/2+z
x,1/2-y,z
loop_
_atom_site_type_symbol
_atom_site_label
_atom_site_fract_x
_atom_site_fract_y
_atom_site_fract_z
Si Si1 0.831483 0.847161 0.048401
Si Si2 0.071184 0.250000 0.455742
Si Si3 0.755315 0.750000 0.831841
Si Si4 0.425736 0.514967 0.147241
Si Si5 0.894650 0.967920 0.891782
Si Si6 0.494643 0.349548 0.823383
O O1 0.682122 0.844433 0.147490
O O2 0.966297 0.829012 0.158429
O O3 0.829434 0.805198 0.910780
O O4 0.845996 0.908750 0.968426
O O5 0.209197 0.250000 0.340933
O O6 0.078476 0.191602 0.557314
O O7 0.923434 0.250000 0.354745
O O8 0.248385 0.506869 0.148957
O O9 0.502646 0.465375 0.249149
O O10 0.451632 0.583202 0.180173
O O11 0.500000 0.500000 0.000000
O O12 0.000000 0.000000 0.000000
#
# Coordination Sequence:
#
# PCOD8254931 Si02
#       6
#     8   4   4   8   8   8
#     4  11  24  43  67  96 133 171 226 267 329 392
#     4  10  25  46  68  96 132 170 221 272 334 385
#     4  10  25  44  66  98 126 170 219 278 326 391
#     4  12  24  42  66  98 137 173 218 269 328 389
#     4  12  25  43  65 100 133 175 219 272 328 395
#     4  11  23  45  67  97 134 175 220 270 324 400
#
# _framework density 21.442710000000002
#
# number of rings (size 3 to 8) (size 9 to 14) (size 15 to 20)
#    0.000    0.800    4.000    3.000    2.800    1.600 
#    0.000    0.000    0.000    0.000    0.000    0.000 
#    0.000    0.000    0.000    0.000    0.000    0.000 
#
# Total GULP energy -495685.639403 kJ/mol
# GULP energy per Si atom -12392.140985 kJ/mol
# Density = 2.139391 g / cm^3
# Si number density = 21.442710 Si / 1000 Ang^3
#
#
#
# Elastic Constant Matrix: (Units=GPa)
#
#
# Indices 1 2 3 4 5 6 
#
# 1 97.7795 19.4629 35.4955 0.0000 0.0000 0.0000
# 2 19.4629 88.0836 22.0202 0.0000 0.0000 0.0000
# 3 35.4955 22.0202 130.9640 0.0000 0.0000 0.0000
# 4 0.0000 0.0000 0.0000 20.5290 0.0000 0.0000
# 5 0.0000 0.0000 0.0000 0.0000 49.6401 0.0000
# 6 0.0000 0.0000 0.0000 0.0000 0.0000 24.7143
#
#
#
# Elastic Compliance Matrix: (Units=1/GPa)
#
#
# Indices 1 2 3 4 5 6 
#
# 1 0.011628 -0.001860 -0.002839 0.000000 0.000000 0.000000
# 2 -0.001860 0.012148 -0.001539 0.000000 0.000000 0.000000
# 3 -0.002839 -0.001539 0.008664 0.000000 0.000000 0.000000
# 4 0.000000 0.000000 0.000000 0.048712 0.000000 0.000000
# 5 0.000000 0.000000 0.000000 0.000000 0.020145 0.000000
# 6 0.000000 0.000000 0.000000 0.000000 0.000000 0.040462
#
#
# Mechanical properties :
#
#
# Convention : Reuss Voigt Hill
#
# Bulk Modulus (GPa) = 50.08537 52.30934 51.19735
# Shear Modulus (GPa) = 31.07747 34.96659 33.02203
#
# Velocity S-wave (km/s) = 3.81113 4.04257 3.92856
# Velocity P-wave (km/s) = 6.54024 6.79983 6.67130
#
# Compressibility (1/GPa) = 0.01996591
#
# Stress axis : x y z
#
# Youngs Moduli (GPa) = 86.00093 82.31548 115.42273
#
# Poissons Ratio (x) = 0.15307 0.32767
# Poissons Ratio (y) = 0.15993 0.17759
# Poissons Ratio (z) = 0.24414 0.12665
#
# Static dielectric constant tensor:
#      x y z
#    x 4.000200 0.000000 0.000000 
#    y 0.000000 3.783140 0.000000 
#    z 0.000000 0.000000 4.004900 
# 
# 
# High freq. dielectric constant tensor:
#      x y z
#    x 1.844630 0.000000 0.000000 
#    y 0.000000 1.846580 0.000000 
#    z 0.000000 0.000000 1.860790 
# 
# From -- ./inp_files/4328.got.cif
#   From: 2010.03.12/outbox.cif.g09.slc.cpg/sg62_3_cif.got.tgz:4328.got - 2010.04.10 19:12:36.
