data_PCOD8254383
_publ_section_title
;
Structure prediction by ZEFSAII (Michael W. Deem and Ramdas Pophale) SiO2 
 PCOD8254383
Probable space group: P N M A
;
_chemical_formula_sum "Si O2"
_cell_formula_units_Z 56
_cell_length_a 14.621746
_cell_length_b 8.773757
_cell_length_c 21.724487
_cell_angle_alpha 90.000000
_cell_angle_beta 90.000000
_cell_angle_gamma 90.000000
_cell_volume 2786.983305
_symmetry_space_group_name_H-M "P N M A"
_symmetry_group_IT_number 62
_symmetry_cell_setting 'orthorhombic'
loop_
_space_group_symop_operation_xyz
x,y,z
1/2-x,-y,1/2+z
1/2+x,1/2-y,1/2-z
-x,1/2+y,-z
-x,-y,-z
1/2+x,y,1/2-z
1/2-x,1/2+y,1/2+z
x,1/2-y,z
loop_
_atom_site_type_symbol
_atom_site_label
_atom_site_fract_x
_atom_site_fract_y
_atom_site_fract_z
Si Si1 0.881916 0.928709 0.247197
Si Si2 0.453545 0.930166 0.678281
Si Si3 0.215833 0.929470 0.517703
Si Si4 0.584895 0.069340 0.886013
Si Si5 0.894370 0.573024 0.590880
Si Si6 0.578379 0.428936 0.459023
Si Si7 0.807584 0.573686 0.722875
O O1 0.894690 0.750000 0.244623
O O2 0.900637 0.988639 0.316273
O O3 0.781674 0.971354 0.224537
O O4 0.950496 0.002959 0.199198
O O5 0.461594 0.750000 0.680903
O O6 0.430848 0.991331 0.610401
O O7 0.373028 0.986044 0.723026
O O8 0.202448 0.750000 0.528010
O O9 0.322548 0.974242 0.514643
O O10 0.172395 0.018034 0.575118
O O11 0.171410 0.980264 0.453950
O O12 0.572897 0.250000 0.889570
O O13 0.496674 0.989728 0.915642
O O14 0.893584 0.750000 0.572072
O O15 0.860022 0.545790 0.659555
O O16 0.500000 0.500000 0.500000
O O17 0.564153 0.250000 0.459599
O O18 0.780530 0.750000 0.731601
#
# Coordination Sequence:
#
# PCOD8254383 Si02
#       7
#     8   8   8   8   8   8   8
#     4  11  24  38  61  94 127 160 199 254 313 365
#     4  10  21  42  66  90 120 160 209 252 299 366
#     4  11  24  42  64  90 125 166 208 258 311 367
#     4  11  23  41  63  93 128 164 206 253 310 373
#     4  11  23  40  64  93 124 163 208 256 310 368
#     4  10  24  43  65  91 122 162 208 256 305 363
#     4  10  22  40  64  91 123 164 209 255 305 370
#
# _framework density 20.093409999999999
#
# number of rings (size 3 to 8) (size 9 to 14) (size 15 to 20)
#    0.000    1.429    1.429    3.000    2.000    6.286 
#    0.000    0.000    0.000    0.000    0.000    0.000 
#    0.000    0.000    0.000    0.000    0.000    0.000 
#
# Total GULP energy -694769.441439 kJ/mol
# GULP energy per Si atom -12406.597169 kJ/mol
# Density = 2.004768 g / cm^3
# Si number density = 20.093410 Si / 1000 Ang^3
#
#
#
# Elastic Constant Matrix: (Units=GPa)
#
#
# Indices 1 2 3 4 5 6 
#
# 1 135.9229 28.0499 34.3402 0.0000 0.0000 0.0000
# 2 28.0499 33.9837 21.9153 0.0000 0.0000 0.0000
# 3 34.3402 21.9153 89.7796 0.0000 0.0000 0.0000
# 4 0.0000 0.0000 0.0000 33.0075 0.0000 0.0000
# 5 0.0000 0.0000 0.0000 0.0000 32.3153 0.0000
# 6 0.0000 0.0000 0.0000 0.0000 0.0000 11.2458
#
#
#
# Elastic Compliance Matrix: (Units=1/GPa)
#
#
# Indices 1 2 3 4 5 6 
#
# 1 0.009151 -0.006285 -0.001966 0.000000 0.000000 0.000000
# 2 -0.006285 0.039240 -0.007175 0.000000 0.000000 0.000000
# 3 -0.001966 -0.007175 0.013642 0.000000 0.000000 0.000000
# 4 0.000000 0.000000 0.000000 0.030296 0.000000 0.000000
# 5 0.000000 0.000000 0.000000 0.000000 0.030945 0.000000
# 6 0.000000 0.000000 0.000000 0.000000 0.000000 0.088922
#
#
# Mechanical properties :
#
#
# Convention : Reuss Voigt Hill
#
# Bulk Modulus (GPa) = 32.07035 47.58857 39.82946
# Shear Modulus (GPa) = 19.72842 27.00578 23.36710
#
# Velocity S-wave (km/s) = 3.13682 3.67005 3.41387
# Velocity P-wave (km/s) = 5.39582 6.45710 5.95017
#
# Compressibility (1/GPa) = 0.03118145
#
# Stress axis : x y z
#
# Youngs Moduli (GPa) = 109.27945 25.48394 73.30491
#
# Poissons Ratio (x) = 0.16017 0.14411
# Poissons Ratio (y) = 0.68685 0.52593
# Poissons Ratio (z) = 0.21483 0.18284
#
# Static dielectric constant tensor:
#      x y z
#    x 3.720370 0.000000 0.000000 
#    y 0.000000 3.624780 0.000000 
#    z 0.000000 0.000000 4.023700 
# 
# 
# High freq. dielectric constant tensor:
#      x y z
#    x 1.797630 0.000000 0.000000 
#    y 0.000000 1.782210 0.000000 
#    z 0.000000 0.000000 1.798140 
# 
# From -- ./inp_files/27135.got.cif
#   From: 2010.03.12/outbox.cif.g09.slc.cpg/sg62_14_cif.got.tgz:27135.got - 2010.04.10 19:12:36.
