data_PCOD8254863
_publ_section_title
;
Structure prediction by ZEFSAII (Michael W. Deem and Ramdas Pophale) SiO2 
 PCOD8254863
Probable space group: P N M A
;
_chemical_formula_sum "Si O2"
_cell_formula_units_Z 52
_cell_length_a 15.602803
_cell_length_b 18.614819
_cell_length_c 8.875552
_cell_angle_alpha 90.000000
_cell_angle_beta 90.000000
_cell_angle_gamma 90.000000
_cell_volume 2577.845089
_symmetry_space_group_name_H-M "P N M A"
_symmetry_group_IT_number 62
_symmetry_cell_setting 'orthorhombic'
loop_
_space_group_symop_operation_xyz
x,y,z
1/2-x,-y,1/2+z
1/2+x,1/2-y,1/2-z
-x,1/2+y,-z
-x,-y,-z
1/2+x,y,1/2-z
1/2-x,1/2+y,1/2+z
x,1/2-y,z
loop_
_atom_site_type_symbol
_atom_site_label
_atom_site_fract_x
_atom_site_fract_y
_atom_site_fract_z
Si Si1 0.848803 0.750000 0.641909
Si Si2 0.624799 0.250000 0.810496
Si Si3 0.714084 0.390831 0.296121
Si Si4 0.981740 0.509468 0.173609
Si Si5 0.023392 0.750000 0.526548
Si Si6 0.099195 0.898822 0.629118
Si Si7 0.647556 0.963945 0.172208
Si Si8 0.321898 0.893592 0.351653
O O1 0.819832 0.750000 0.465410
O O2 0.816106 0.681919 0.726507
O O3 0.951735 0.750000 0.656208
O O4 0.648760 0.317054 0.707799
O O5 0.523534 0.250000 0.860929
O O6 0.815892 0.389670 0.272241
O O7 0.673058 0.454127 0.199618
O O8 0.683881 0.395476 0.468398
O O9 0.974837 0.432759 0.263308
O O10 0.892533 0.549710 0.203624
O O11 0.062668 0.555661 0.232610
O O12 0.000000 0.500000 0.000000
O O13 0.077738 0.822638 0.549792
O O14 0.121395 0.956885 0.501213
O O15 0.728369 0.913392 0.216717
#
# Coordination Sequence:
#
# PCOD8254863 Si02
#       8
#     4   4   8   8   4   8   8   8
#     4  10  24  38  66  90 131 169 236 269 335 411
#     4  10  25  40  69  90 132 181 223 280 340 405
#     4  11  22  42  66  99 131 184 220 285 344 409
#     4  12  24  40  67 105 134 174 223 288 341 396
#     4  10  23  44  63  98 125 184 235 273 339 414
#     4  11  24  42  70  94 141 179 234 280 337 431
#     4  11  24  41  69  97 132 181 223 279 347 409
#     4  11  24  44  64  98 139 172 227 284 342 407
#
# _framework density 20.171887000000002
#
# number of rings (size 3 to 8) (size 9 to 14) (size 15 to 20)
#    0.462    0.615    3.077    3.231    2.154    3.077 
#    0.000    0.769    0.000    0.000    0.000    0.000 
#    0.000    0.000    0.000    0.000    0.000    0.000 
#
# Total GULP energy -644606.404972 kJ/mol
# GULP energy per Si atom -12396.277019 kJ/mol
# Density = 2.012598 g / cm^3
# Si number density = 20.171887 Si / 1000 Ang^3
#
#
#
# Elastic Constant Matrix: (Units=GPa)
#
#
# Indices 1 2 3 4 5 6 
#
# 1 130.8270 42.9069 48.8305 0.0000 0.0000 0.0000
# 2 42.9069 138.6199 58.0818 0.0000 0.0000 0.0000
# 3 48.8305 58.0818 65.6149 0.0000 0.0000 0.0000
# 4 0.0000 0.0000 0.0000 43.8148 0.0000 0.0000
# 5 0.0000 0.0000 0.0000 0.0000 36.1240 0.0000
# 6 0.0000 0.0000 0.0000 0.0000 0.0000 37.0299
#
#
#
# Elastic Compliance Matrix: (Units=1/GPa)
#
#
# Indices 1 2 3 4 5 6 
#
# 1 0.010584 0.000039 -0.007910 0.000000 0.000000 0.000000
# 2 0.000039 0.011467 -0.010179 0.000000 0.000000 0.000000
# 3 -0.007910 -0.010179 0.030138 0.000000 0.000000 0.000000
# 4 0.000000 0.000000 0.000000 0.022823 0.000000 0.000000
# 5 0.000000 0.000000 0.000000 0.000000 0.027682 0.000000
# 6 0.000000 0.000000 0.000000 0.000000 0.000000 0.027005
#
#
# Mechanical properties :
#
#
# Convention : Reuss Voigt Hill
#
# Bulk Modulus (GPa) = 62.16441 70.52225 66.34333
# Shear Modulus (GPa) = 29.21171 35.74324 32.47747
#
# Velocity S-wave (km/s) = 3.80957 4.21400 4.01688
# Velocity P-wave (km/s) = 7.08764 7.66248 7.38066
#
# Compressibility (1/GPa) = 0.01608638
#
# Stress axis : x y z
#
# Youngs Moduli (GPa) = 94.48625 87.20532 33.18072
#
# Poissons Ratio (x) = -0.00336 0.26247
# Poissons Ratio (y) = -0.00364 0.33776
# Poissons Ratio (z) = 0.74742 0.88769
#
# Static dielectric constant tensor:
#      x y z
#    x 4.245990 0.000000 0.000000 
#    y 0.000000 3.559690 0.000000 
#    z 0.000000 0.000000 3.711320 
# 
# 
# High freq. dielectric constant tensor:
#      x y z
#    x 1.803660 0.000000 0.000000 
#    y 0.000000 1.786840 0.000000 
#    z 0.000000 0.000000 1.784470 
# 
# From -- ./inp_files/7945.got.cif
#   From: 2010.03.12/outbox.cif.g09.slc.cpg/sg62_4_cif.got.tgz:7945.got - 2010.04.10 19:12:36.
