data_PCOD8254361
_publ_section_title
;
Structure prediction by ZEFSAII (Michael W. Deem and Ramdas Pophale) SiO2 
 PCOD8254361
Probable space group: P N M A
;
_chemical_formula_sum "Si O2"
_cell_formula_units_Z 48
_cell_length_a 14.836146
_cell_length_b 8.531068
_cell_length_c 18.706879
_cell_angle_alpha 90.000000
_cell_angle_beta 90.000000
_cell_angle_gamma 90.000000
_cell_volume 2367.695449
_symmetry_space_group_name_H-M "P N M A"
_symmetry_group_IT_number 62
_symmetry_cell_setting 'orthorhombic'
loop_
_space_group_symop_operation_xyz
x,y,z
1/2-x,-y,1/2+z
1/2+x,1/2-y,1/2-z
-x,1/2+y,-z
-x,-y,-z
1/2+x,y,1/2-z
1/2-x,1/2+y,1/2+z
x,1/2-y,z
loop_
_atom_site_type_symbol
_atom_site_label
_atom_site_fract_x
_atom_site_fract_y
_atom_site_fract_z
Si Si1 0.551574 0.063478 0.932196
Si Si2 0.904773 0.066977 0.022897
Si Si3 0.253842 0.435555 0.582992
Si Si4 0.001669 0.432080 0.283297
Si Si5 0.687197 0.932712 0.260742
Si Si6 0.136615 0.430188 0.826241
O O1 0.545299 0.250000 0.927030
O O2 0.654592 0.003642 0.937366
O O3 0.503636 0.988430 0.864244
O O4 0.500000 0.000000 0.000000
O O5 0.909138 0.250000 0.010036
O O6 0.883062 0.034948 0.105130
O O7 0.826505 0.993229 0.972650
O O8 0.000000 0.000000 0.000000
O O9 0.254962 0.250000 0.578903
O O10 0.276319 0.491112 0.662896
O O11 0.977681 0.250000 0.276468
O O12 0.932684 0.531732 0.236455
O O13 0.102523 0.460521 0.256859
O O14 0.659693 0.750000 0.263078
O O15 0.762756 0.963577 0.201009
O O16 0.123960 0.250000 0.847912
#
# Coordination Sequence:
#
# PCOD8254361 Si02
#       6
#     8   8   8   8   8   8
#     4  11  23  43  65  93 127 169 215 263 318 378
#     4  11  23  40  64  95 129 167 211 263 320 380
#     4   9  20  41  66  90 123 165 210 258 314 372
#     4  12  25  41  64  96 129 167 211 264 319 378
#     4  10  21  41  67  92 122 167 213 260 318 380
#     4  11  23  42  66  93 127 168 213 261 318 380
#
# _framework density 20.272877000000001
#
# number of rings (size 3 to 8) (size 9 to 14) (size 15 to 20)
#    0.000    1.333    1.667    4.000    2.333    2.667 
#    0.000    3.333    0.000    0.000    0.000    0.000 
#    0.000    0.000    0.000    0.000    0.000    0.000 
#
# Total GULP energy -595449.951074 kJ/mol
# GULP energy per Si atom -12405.207314 kJ/mol
# Density = 2.022673 g / cm^3
# Si number density = 20.272877 Si / 1000 Ang^3
#
#
#
# Elastic Constant Matrix: (Units=GPa)
#
#
# Indices 1 2 3 4 5 6 
#
# 1 110.8843 30.4896 24.6407 0.0000 0.0000 0.0000
# 2 30.4896 51.0393 9.2777 0.0000 0.0000 0.0000
# 3 24.6407 9.2777 104.2273 0.0000 0.0000 0.0000
# 4 0.0000 0.0000 0.0000 30.6114 0.0000 0.0000
# 5 0.0000 0.0000 0.0000 0.0000 42.1203 0.0000
# 6 0.0000 0.0000 0.0000 0.0000 0.0000 29.5760
#
#
#
# Elastic Compliance Matrix: (Units=1/GPa)
#
#
# Indices 1 2 3 4 5 6 
#
# 1 0.011222 -0.006324 -0.002090 0.000000 0.000000 0.000000
# 2 -0.006324 0.023478 -0.000595 0.000000 0.000000 0.000000
# 3 -0.002090 -0.000595 0.010141 0.000000 0.000000 0.000000
# 4 0.000000 0.000000 0.000000 0.032668 0.000000 0.000000
# 5 0.000000 0.000000 0.000000 0.000000 0.023741 0.000000
# 6 0.000000 0.000000 0.000000 0.000000 0.000000 0.033811
#
#
# Mechanical properties :
#
#
# Convention : Reuss Voigt Hill
#
# Bulk Modulus (GPa) = 37.27947 43.88521 40.58234
# Shear Modulus (GPa) = 30.86028 33.91107 32.38567
#
# Velocity S-wave (km/s) = 3.90583 4.09434 4.00119
# Velocity P-wave (km/s) = 6.22651 6.63670 6.43487
#
# Compressibility (1/GPa) = 0.02682441
#
# Stress axis : x y z
#
# Youngs Moduli (GPa) = 89.11339 42.59218 98.60480
#
# Poissons Ratio (x) = 0.26934 0.20609
# Poissons Ratio (y) = 0.56352 0.05866
# Poissons Ratio (z) = 0.18625 0.02534
#
# Static dielectric constant tensor:
#      x y z
#    x 3.950900 0.000000 0.000000 
#    y 0.000000 3.755140 0.000000 
#    z 0.000000 0.000000 3.868770 
# 
# 
# High freq. dielectric constant tensor:
#      x y z
#    x 1.809270 0.000000 0.000000 
#    y 0.000000 1.780030 0.000000 
#    z 0.000000 0.000000 1.805560 
# 
# From -- ./inp_files/23707.got.cif
#   From: 2010.03.12/outbox.cif.g09.slc.cpg/sg62_12_cif.got.tgz:23707.got - 2010.04.10 19:12:36.
