data_PCOD8254857
_publ_section_title
;
Structure prediction by ZEFSAII (Michael W. Deem and Ramdas Pophale) SiO2 
 PCOD8254857
Probable space group: P N M A
;
_chemical_formula_sum "Si O2"
_cell_formula_units_Z 48
_cell_length_a 9.006389
_cell_length_b 22.233038
_cell_length_c 11.144761
_cell_angle_alpha 90.000000
_cell_angle_beta 90.000000
_cell_angle_gamma 90.000000
_cell_volume 2231.620132
_symmetry_space_group_name_H-M "P N M A"
_symmetry_group_IT_number 62
_symmetry_cell_setting 'orthorhombic'
loop_
_space_group_symop_operation_xyz
x,y,z
1/2-x,-y,1/2+z
1/2+x,1/2-y,1/2-z
-x,1/2+y,-z
-x,-y,-z
1/2+x,y,1/2-z
1/2-x,1/2+y,1/2+z
x,1/2-y,z
loop_
_atom_site_type_symbol
_atom_site_label
_atom_site_fract_x
_atom_site_fract_y
_atom_site_fract_z
Si Si1 0.343857 0.468086 0.622955
Si Si2 0.083179 0.317159 0.570572
Si Si3 0.757032 0.318599 0.506893
Si Si4 0.871445 0.599032 0.211135
Si Si5 0.235561 0.606396 0.906527
Si Si6 0.090719 0.398376 0.173590
O O1 0.496569 0.431934 0.638363
O O2 0.234203 0.452853 0.733574
O O3 0.272694 0.450800 0.495058
O O4 0.373381 0.538448 0.610842
O O5 0.114147 0.250000 0.617694
O O6 0.062020 0.360601 0.683218
O O7 0.222977 0.336111 0.488388
O O8 0.934299 0.320135 0.491252
O O9 0.701127 0.250000 0.523474
O O10 0.715943 0.357408 0.622724
O O11 0.685307 0.345600 0.387053
O O12 0.368078 0.595414 0.813014
O O13 0.082392 0.617881 0.836952
#
# Coordination Sequence:
#
# PCOD8254857 Si02
#       6
#     8   8   8   8   8   8
#     4  11  24  41  70 100 139 172 225 283 344 405
#     4  10  23  43  67  96 133 174 225 279 335 405
#     4  11  24  42  66  95 134 179 225 276 336 405
#     4  11  21  42  67 103 132 173 219 283 348 399
#     4  11  25  43  65  97 133 177 227 277 334 405
#     4  12  25  43  67  97 138 181 231 276 340 402
#
# _framework density 21.509038
#
# number of rings (size 3 to 8) (size 9 to 14) (size 15 to 20)
#    0.000    1.000    3.333    3.000    2.333    1.333 
#    0.000    4.167    0.000    0.000    0.000    0.000 
#    0.000    0.000    0.000    0.000    0.000    0.000 
#
# Total GULP energy -595430.873344 kJ/mol
# GULP energy per Si atom -12404.809861 kJ/mol
# Density = 2.146008 g / cm^3
# Si number density = 21.509038 Si / 1000 Ang^3
#
#
#
# Elastic Constant Matrix: (Units=GPa)
#
#
# Indices 1 2 3 4 5 6 
#
# 1 73.4968 27.0527 33.0161 0.0000 0.0000 0.0000
# 2 27.0527 92.5091 19.6968 0.0000 0.0000 0.0000
# 3 33.0161 19.6968 104.4463 0.0000 0.0000 0.0000
# 4 0.0000 0.0000 0.0000 25.1879 0.0000 0.0000
# 5 0.0000 0.0000 0.0000 0.0000 46.9555 0.0000
# 6 0.0000 0.0000 0.0000 0.0000 0.0000 30.1188
#
#
#
# Elastic Compliance Matrix: (Units=1/GPa)
#
#
# Indices 1 2 3 4 5 6 
#
# 1 0.017189 -0.004032 -0.004673 0.000000 0.000000 0.000000
# 2 -0.004032 0.012208 -0.001028 0.000000 0.000000 0.000000
# 3 -0.004673 -0.001028 0.011245 0.000000 0.000000 0.000000
# 4 0.000000 0.000000 0.000000 0.039702 0.000000 0.000000
# 5 0.000000 0.000000 0.000000 0.000000 0.021297 0.000000
# 6 0.000000 0.000000 0.000000 0.000000 0.000000 0.033202
#
#
# Mechanical properties :
#
#
# Convention : Reuss Voigt Hill
#
# Bulk Modulus (GPa) = 47.22145 47.77594 47.49869
# Shear Modulus (GPa) = 30.98527 33.16488 32.07508
#
# Velocity S-wave (km/s) = 3.79960 3.93097 3.86584
# Velocity P-wave (km/s) = 6.42271 6.54703 6.48517
#
# Compressibility (1/GPa) = 0.02117682
#
# Stress axis : x y z
#
# Youngs Moduli (GPa) = 58.17544 81.91637 88.92537
#
# Poissons Ratio (x) = 0.33026 0.41558
# Poissons Ratio (y) = 0.23455 0.09139
# Poissons Ratio (z) = 0.27187 0.08419
#
# Static dielectric constant tensor:
#      x y z
#    x 3.930840 0.000000 0.000000 
#    y 0.000000 3.868780 0.000000 
#    z 0.000000 0.000000 3.848970 
# 
# 
# High freq. dielectric constant tensor:
#      x y z
#    x 1.849720 0.000000 0.000000 
#    y 0.000000 1.843100 0.000000 
#    z 0.000000 0.000000 1.850770 
# 
# From -- ./inp_files/11297.got.cif
#   From: 2010.03.12/outbox.cif.g09.slc.cpg/sg62_6_cif.got.tgz:11297.got - 2010.04.10 19:12:36.
