data_PCOD8254468
_publ_section_title
;
Structure prediction by ZEFSAII (Michael W. Deem and Ramdas Pophale) SiO2 
 PCOD8254468
Probable space group: P N M A
;
_chemical_formula_sum "Si O2"
_cell_formula_units_Z 40
_cell_length_a 12.305571
_cell_length_b 16.960056
_cell_length_c 9.598329
_cell_angle_alpha 90.000000
_cell_angle_beta 90.000000
_cell_angle_gamma 90.000000
_cell_volume 2003.201720
_symmetry_space_group_name_H-M "P N M A"
_symmetry_group_IT_number 62
_symmetry_cell_setting 'orthorhombic'
loop_
_space_group_symop_operation_xyz
x,y,z
1/2-x,-y,1/2+z
1/2+x,1/2-y,1/2-z
-x,1/2+y,-z
-x,-y,-z
1/2+x,y,1/2-z
1/2-x,1/2+y,1/2+z
x,1/2-y,z
loop_
_atom_site_type_symbol
_atom_site_label
_atom_site_fract_x
_atom_site_fract_y
_atom_site_fract_z
Si Si1 0.243215 0.660587 0.891257
Si Si2 0.345193 0.903906 0.626252
Si Si3 0.026120 0.661474 0.050130
Si Si4 0.663099 0.487244 0.970866
Si Si5 0.475650 0.029053 0.779208
O O1 0.278657 0.750000 0.925958
O O2 0.264250 0.644777 0.726871
O O3 0.117415 0.646682 0.931422
O O4 0.319463 0.602042 0.978139
O O5 0.406318 0.847874 0.516734
O O6 0.277858 0.970371 0.545555
O O7 0.441588 0.948251 0.706451
O O8 0.035426 0.750000 0.109053
O O9 0.043203 0.603378 0.179599
O O10 0.601715 0.480433 0.822675
O O11 0.595074 0.540007 0.080394
#
# Coordination Sequence:
#
# PCOD8254468 Si02
#       5
#     8   8   8   8   8
#     4  10  22  39  58  87 122 159 199 251 310 357
#     4  11  21  37  64  86 117 161 204 249 294 367
#     4  11  23  38  60  90 123 158 200 252 301 355
#     4  10  22  38  61  87 118 157 199 254 305 355
#     4  10  22  38  59  91 117 153 206 247 296 362
#
# _framework density 19.968032999999998
#
# number of rings (size 3 to 8) (size 9 to 14) (size 15 to 20)
#    0.000    1.600    2.000    2.400    5.600    0.800 
#    0.000    4.000    0.000    1.200    0.000    0.000 
#    0.000    0.000    0.000    0.000    0.000    0.000 
#
# Total GULP energy -495997.569130 kJ/mol
# GULP energy per Si atom -12399.939228 kJ/mol
# Density = 1.992258 g / cm^3
# Si number density = 19.968033 Si / 1000 Ang^3
#
#
#
# Elastic Constant Matrix: (Units=GPa)
#
#
# Indices 1 2 3 4 5 6 
#
# 1 89.9165 49.7599 37.5191 0.0000 0.0000 0.0000
# 2 49.7599 118.1325 52.2162 0.0000 0.0000 0.0000
# 3 37.5191 52.2162 89.5443 0.0000 0.0000 0.0000
# 4 0.0000 0.0000 0.0000 31.1958 0.0000 0.0000
# 5 0.0000 0.0000 0.0000 0.0000 32.2803 0.0000
# 6 0.0000 0.0000 0.0000 0.0000 0.0000 27.4378
#
#
#
# Elastic Compliance Matrix: (Units=1/GPa)
#
#
# Indices 1 2 3 4 5 6 
#
# 1 0.015307 -0.004867 -0.003575 0.000000 0.000000 0.000000
# 2 -0.004867 0.012952 -0.005514 0.000000 0.000000 0.000000
# 3 -0.003575 -0.005514 0.015881 0.000000 0.000000 0.000000
# 4 0.000000 0.000000 0.000000 0.032056 0.000000 0.000000
# 5 0.000000 0.000000 0.000000 0.000000 0.030979 0.000000
# 6 0.000000 0.000000 0.000000 0.000000 0.000000 0.036446
#
#
# Mechanical properties :
#
#
# Convention : Reuss Voigt Hill
#
# Bulk Modulus (GPa) = 61.62265 64.06483 62.84374
# Shear Modulus (GPa) = 28.25788 28.72264 28.49026
#
# Velocity S-wave (km/s) = 3.76594 3.79678 3.78139
# Velocity P-wave (km/s) = 7.05956 7.16757 7.11377
#
# Compressibility (1/GPa) = 0.01622780
#
# Stress axis : x y z
#
# Youngs Moduli (GPa) = 65.33038 77.20634 62.96889
#
# Poissons Ratio (x) = 0.37578 0.22514
# Poissons Ratio (y) = 0.31798 0.34718
# Poissons Ratio (z) = 0.23358 0.42568
#
# Static dielectric constant tensor:
#      x y z
#    x 3.655800 0.000000 0.000000 
#    y 0.000000 3.515150 0.000000 
#    z 0.000000 0.000000 3.623780 
# 
# 
# High freq. dielectric constant tensor:
#      x y z
#    x 1.783580 0.000000 0.000000 
#    y 0.000000 1.774020 0.000000 
#    z 0.000000 0.000000 1.773950 
# 
# From -- ./inp_files/5017.got.cif
#   From: 2010.03.12/outbox.cif.g09.slc.cpg/sg62_3_cif.got.tgz:5017.got - 2010.04.10 19:12:36.
