data_PCOD8254879
_publ_section_title
;
Structure prediction by ZEFSAII (Michael W. Deem and Ramdas Pophale) SiO2 
 PCOD8254879
Probable space group: P N M A
;
_chemical_formula_sum "Si O2"
_cell_formula_units_Z 36
_cell_length_a 13.757662
_cell_length_b 14.108376
_cell_length_c 8.054894
_cell_angle_alpha 90.000000
_cell_angle_beta 90.000000
_cell_angle_gamma 90.000000
_cell_volume 1563.440977
_symmetry_space_group_name_H-M "P N M A"
_symmetry_group_IT_number 62
_symmetry_cell_setting 'orthorhombic'
loop_
_space_group_symop_operation_xyz
x,y,z
1/2-x,-y,1/2+z
1/2+x,1/2-y,1/2-z
-x,1/2+y,-z
-x,-y,-z
1/2+x,y,1/2-z
1/2-x,1/2+y,1/2+z
x,1/2-y,z
loop_
_atom_site_type_symbol
_atom_site_label
_atom_site_fract_x
_atom_site_fract_y
_atom_site_fract_z
Si Si1 0.706945 0.750000 0.517689
Si Si2 0.766823 0.549031 0.662881
Si Si3 0.045228 0.448979 0.160179
Si Si4 0.487579 0.750000 0.540427
Si Si5 0.106649 0.042569 0.642929
Si Si6 0.377452 0.750000 0.210082
O O1 0.733321 0.657203 0.626914
O O2 0.595030 0.750000 0.459667
O O3 0.763261 0.750000 0.340466
O O4 0.838343 0.539938 0.824046
O O5 0.673986 0.481875 0.694903
O O6 0.831572 0.507516 0.513247
O O7 0.021942 0.338780 0.159383
O O8 0.994447 0.487099 0.330069
O O9 0.000000 0.500000 0.000000
O O10 0.401336 0.750000 0.404891
O O11 0.078579 0.153818 0.632506
#
# Coordination Sequence:
#
# PCOD8254879 Si02
#       6
#     4   8   8   4   8   4
#     4  10  23  45  67  98 138 177 222 276 338 398
#     4  11  24  43  68  97 138 174 225 279 334 405
#     4  12  24  42  69  97 133 180 223 280 334 400
#     4  12  23  43  69 100 132 175 232 270 344 394
#     4  11  23  43  63 100 130 180 222 276 339 395
#     4  10  24  38  68  96 136 174 220 278 326 400
#
# _framework density 23.026132
#
# number of rings (size 3 to 8) (size 9 to 14) (size 15 to 20)
#    0.000    0.889    4.444    2.667    3.111    0.000 
#    0.000    1.111    0.000    0.000    0.000    0.000 
#    0.000    0.000    0.000    0.000    0.000    0.000 
#
# Total GULP energy -446190.747616 kJ/mol
# GULP energy per Si atom -12394.187434 kJ/mol
# Density = 2.297372 g / cm^3
# Si number density = 23.026132 Si / 1000 Ang^3
#
#
#
# Elastic Constant Matrix: (Units=GPa)
#
#
# Indices 1 2 3 4 5 6 
#
# 1 115.2701 30.7707 5.6303 0.0000 0.0000 0.0000
# 2 30.7707 128.2842 9.0150 0.0000 0.0000 0.0000
# 3 5.6303 9.0150 46.3731 0.0000 0.0000 0.0000
# 4 0.0000 0.0000 0.0000 19.5812 0.0000 0.0000
# 5 0.0000 0.0000 0.0000 0.0000 50.0855 0.0000
# 6 0.0000 0.0000 0.0000 0.0000 0.0000 22.9933
#
#
#
# Elastic Compliance Matrix: (Units=1/GPa)
#
#
# Indices 1 2 3 4 5 6 
#
# 1 0.009291 -0.002179 -0.000704 0.000000 0.000000 0.000000
# 2 -0.002179 0.008414 -0.001371 0.000000 0.000000 0.000000
# 3 -0.000704 -0.001371 0.021916 0.000000 0.000000 0.000000
# 4 0.000000 0.000000 0.000000 0.051069 0.000000 0.000000
# 5 0.000000 0.000000 0.000000 0.000000 0.019966 0.000000
# 6 0.000000 0.000000 0.000000 0.000000 0.000000 0.043491
#
#
# Mechanical properties :
#
#
# Convention : Reuss Voigt Hill
#
# Bulk Modulus (GPa) = 32.14154 42.30659 37.22407
# Shear Modulus (GPa) = 28.89698 34.83276 31.86487
#
# Velocity S-wave (km/s) = 3.54639 3.89363 3.72406
# Velocity P-wave (km/s) = 5.54601 6.21506 5.89004
#
# Compressibility (1/GPa) = 0.03111239
#
# Stress axis : x y z
#
# Youngs Moduli (GPa) = 107.62637 118.84597 45.62807
#
# Poissons Ratio (x) = 0.25898 0.03214
# Poissons Ratio (y) = 0.23454 0.06256
# Poissons Ratio (z) = 0.07582 0.16296
#
# Static dielectric constant tensor:
#      x y z
#    x 4.451910 0.000000 0.000000 
#    y 0.000000 4.301780 0.000000 
#    z 0.000000 0.000000 4.005270 
# 
# 
# High freq. dielectric constant tensor:
#      x y z
#    x 1.923830 0.000000 0.000000 
#    y 0.000000 1.911230 0.000000 
#    z 0.000000 0.000000 1.899510 
# 
# From -- ./inp_files/6039.got.cif
#   From: 2010.03.12/outbox.cif.g09.slc.cpg/sg62_4_cif.got.tgz:6039.got - 2010.04.10 19:12:36.
