data_PCOD8254567
_publ_section_title
;
Structure prediction by ZEFSAII (Michael W. Deem and Ramdas Pophale) SiO2 
 PCOD8254567
Probable space group: P N M A
;
_chemical_formula_sum "Si O2"
_cell_formula_units_Z 56
_cell_length_a 14.490285
_cell_length_b 8.802735
_cell_length_c 21.563147
_cell_angle_alpha 90.000000
_cell_angle_beta 90.000000
_cell_angle_gamma 90.000000
_cell_volume 2750.468648
_symmetry_space_group_name_H-M "P N M A"
_symmetry_group_IT_number 62
_symmetry_cell_setting 'orthorhombic'
loop_
_space_group_symop_operation_xyz
x,y,z
1/2-x,-y,1/2+z
1/2+x,1/2-y,1/2-z
-x,1/2+y,-z
-x,-y,-z
1/2+x,y,1/2-z
1/2-x,1/2+y,1/2+z
x,1/2-y,z
loop_
_atom_site_type_symbol
_atom_site_label
_atom_site_fract_x
_atom_site_fract_y
_atom_site_fract_z
Si Si1 0.677738 0.074365 0.723195
Si Si2 0.923550 0.926138 0.457027
Si Si3 0.611319 0.926112 0.244739
Si Si4 0.785207 0.074269 0.978456
Si Si5 0.097541 0.423614 0.123950
Si Si6 0.890831 0.424158 0.100910
Si Si7 0.447170 0.071474 0.175445
O O1 0.656549 0.250000 0.737382
O O2 0.785570 0.039420 0.723391
O O3 0.637919 0.032424 0.656641
O O4 0.631008 0.973247 0.775706
O O5 0.946470 0.750000 0.451201
O O6 0.823476 0.954063 0.487563
O O7 0.923708 0.996094 0.389321
O O8 0.000000 0.000000 0.500000
O O9 0.585586 0.750000 0.239031
O O10 0.595333 0.974725 0.315086
O O11 0.547142 0.020273 0.198689
O O12 0.806993 0.250000 0.964558
O O13 0.836900 0.019189 0.040270
O O14 0.820781 0.977259 0.920616
O O15 0.116039 0.250000 0.143384
O O16 0.999985 0.440682 0.088697
O O17 0.864968 0.250000 0.117075
O O18 0.447596 0.250000 0.166517
#
# Coordination Sequence:
#
# PCOD8254567 Si02
#       7
#     8   8   8   8   8   8   8
#     4  11  24  41  64  95 128 168 213 265 323 381
#     4  11  25  45  67  94 128 170 218 269 323 379
#     4  11  24  41  64  94 128 167 211 262 318 382
#     4  10  23  42  64  90 126 172 214 261 318 378
#     4  11  22  38  63  97 129 166 210 257 318 383
#     4  10  22  40  62  93 129 165 209 261 318 382
#     4  12  25  43  67  95 128 170 213 264 320 379
#
# _framework density 20.360167000000001
#
# number of rings (size 3 to 8) (size 9 to 14) (size 15 to 20)
#    0.000    1.143    1.429    4.286    2.000    8.000 
#    0.000    0.000    0.000    0.000    0.000    0.000 
#    0.000    0.000    0.000    0.000    0.000    0.000 
#
# Total GULP energy -694806.433362 kJ/mol
# GULP energy per Si atom -12407.257739 kJ/mol
# Density = 2.031383 g / cm^3
# Si number density = 20.360167 Si / 1000 Ang^3
#
#
#
# Elastic Constant Matrix: (Units=GPa)
#
#
# Indices 1 2 3 4 5 6 
#
# 1 107.7269 50.0388 18.9683 0.0000 0.0000 0.0000
# 2 50.0388 96.7963 29.9544 0.0000 0.0000 0.0000
# 3 18.9683 29.9544 85.3563 0.0000 0.0000 0.0000
# 4 0.0000 0.0000 0.0000 36.9555 0.0000 0.0000
# 5 0.0000 0.0000 0.0000 0.0000 14.1418 0.0000
# 6 0.0000 0.0000 0.0000 0.0000 0.0000 11.5674
#
#
#
# Elastic Compliance Matrix: (Units=1/GPa)
#
#
# Indices 1 2 3 4 5 6 
#
# 1 0.012240 -0.006154 -0.000560 0.000000 0.000000 0.000000
# 2 -0.006154 0.014684 -0.003785 0.000000 0.000000 0.000000
# 3 -0.000560 -0.003785 0.013169 0.000000 0.000000 0.000000
# 4 0.000000 0.000000 0.000000 0.027060 0.000000 0.000000
# 5 0.000000 0.000000 0.000000 0.000000 0.070712 0.000000
# 6 0.000000 0.000000 0.000000 0.000000 0.000000 0.086450
#
#
# Mechanical properties :
#
#
# Convention : Reuss Voigt Hill
#
# Bulk Modulus (GPa) = 52.37639 54.20028 53.28834
# Shear Modulus (GPa) = 19.86670 25.26081 22.56375
#
# Velocity S-wave (km/s) = 3.12711 3.52617 3.33262
# Velocity P-wave (km/s) = 6.23051 6.57701 6.40610
#
# Compressibility (1/GPa) = 0.01909257
#
# Stress axis : x y z
#
# Youngs Moduli (GPa) = 81.69992 68.10260 75.93841
#
# Poissons Ratio (x) = 0.41910 0.04255
# Poissons Ratio (y) = 0.50278 0.28746
# Poissons Ratio (z) = 0.04578 0.25780
#
# Static dielectric constant tensor:
#      x y z
#    x 3.787500 0.000000 0.000000 
#    y 0.000000 3.778000 0.000000 
#    z 0.000000 0.000000 3.648490 
# 
# 
# High freq. dielectric constant tensor:
#      x y z
#    x 1.812970 0.000000 0.000000 
#    y 0.000000 1.804200 0.000000 
#    z 0.000000 0.000000 1.799110 
# 
# From -- ./inp_files/27123.got.cif
#   From: 2010.03.12/outbox.cif.g09.slc.cpg/sg62_14_cif.got.tgz:27123.got - 2010.04.10 19:12:36.
