data_PCOD8254150
_publ_section_title
;
Structure prediction by ZEFSAII (Michael W. Deem and Ramdas Pophale) SiO2 
 PCOD8254150
Probable space group: P N M A
;
_chemical_formula_sum "Si O2"
_cell_formula_units_Z 56
_cell_length_a 14.598184
_cell_length_b 8.892931
_cell_length_c 20.969184
_cell_angle_alpha 90.000000
_cell_angle_beta 90.000000
_cell_angle_gamma 90.000000
_cell_volume 2722.232951
_symmetry_space_group_name_H-M "P N M A"
_symmetry_group_IT_number 62
_symmetry_cell_setting 'orthorhombic'
loop_
_space_group_symop_operation_xyz
x,y,z
1/2-x,-y,1/2+z
1/2+x,1/2-y,1/2-z
-x,1/2+y,-z
-x,-y,-z
1/2+x,y,1/2-z
1/2-x,1/2+y,1/2+z
x,1/2-y,z
loop_
_atom_site_type_symbol
_atom_site_label
_atom_site_fract_x
_atom_site_fract_y
_atom_site_fract_z
Si Si1 0.231529 0.081204 0.965839
Si Si2 0.519850 0.073752 0.727823
Si Si3 0.191070 0.572643 0.234948
Si Si4 0.675153 0.927141 0.659989
Si Si5 0.055305 0.581879 0.446222
Si Si6 0.947494 0.080086 0.350013
Si Si7 0.751432 0.420742 0.392728
O O1 0.192985 0.250000 0.953567
O O2 0.339422 0.085022 0.960698
O O3 0.193923 0.965667 0.913896
O O4 0.208570 0.029390 0.038772
O O5 0.528159 0.250000 0.716697
O O6 0.415201 0.022048 0.737987
O O7 0.572232 0.990403 0.670301
O O8 0.578077 0.021001 0.789131
O O9 0.201420 0.750000 0.244781
O O10 0.249690 0.496214 0.291346
O O11 0.221083 0.529885 0.163666
O O12 0.676946 0.750000 0.669909
O O13 0.016262 0.750000 0.438155
O O14 0.000000 0.500000 0.500000
O O15 0.038256 0.489801 0.381396
O O16 0.968618 0.250000 0.328276
O O17 0.861972 0.073839 0.398522
O O18 0.720945 0.250000 0.376627
#
# Coordination Sequence:
#
# PCOD8254150 Si02
#       7
#     8   8   8   8   8   8   8
#     4  10  22  41  60  84 124 167 205 252 311 371
#     4  11  24  42  64  91 122 163 209 257 312 369
#     4  11  24  42  66  94 125 164 211 258 310 373
#     4  12  25  41  64  95 127 163 208 260 314 369
#     4  11  21  34  54  83 121 161 201 246 303 371
#     4  11  21  36  58  89 122 157 201 251 309 369
#     4  10  21  39  62  89 123 162 203 252 308 363
#
# _framework density 20.571348
#
# number of rings (size 3 to 8) (size 9 to 14) (size 15 to 20)
#    0.000    1.143    2.857    3.857    0.000    8.000 
#    0.000    0.714    0.000    0.000    0.000    0.000 
#    0.000    0.000    0.000    0.000    0.000    0.000 
#
# Total GULP energy -694214.880564 kJ/mol
# GULP energy per Si atom -12396.694296 kJ/mol
# Density = 2.052453 g / cm^3
# Si number density = 20.571348 Si / 1000 Ang^3
#
#
#
# Elastic Constant Matrix: (Units=GPa)
#
#
# Indices 1 2 3 4 5 6 
#
# 1 57.7294 36.7800 14.9340 0.0000 0.0000 0.0000
# 2 36.7800 103.8690 33.2013 0.0000 0.0000 0.0000
# 3 14.9340 33.2013 104.8557 0.0000 0.0000 0.0000
# 4 0.0000 0.0000 0.0000 38.2602 0.0000 0.0000
# 5 0.0000 0.0000 0.0000 0.0000 30.6887 0.0000
# 6 0.0000 0.0000 0.0000 0.0000 0.0000 23.5900
#
#
#
# Elastic Compliance Matrix: (Units=1/GPa)
#
#
# Indices 1 2 3 4 5 6 
#
# 1 0.022422 -0.007698 -0.000756 0.000000 0.000000 0.000000
# 2 -0.007698 0.013355 -0.003132 0.000000 0.000000 0.000000
# 3 -0.000756 -0.003132 0.010636 0.000000 0.000000 0.000000
# 4 0.000000 0.000000 0.000000 0.026137 0.000000 0.000000
# 5 0.000000 0.000000 0.000000 0.000000 0.032585 0.000000
# 6 0.000000 0.000000 0.000000 0.000000 0.000000 0.042391
#
#
# Mechanical properties :
#
#
# Convention : Reuss Voigt Hill
#
# Bulk Modulus (GPa) = 43.02787 48.47609 45.75198
# Shear Modulus (GPa) = 28.01976 30.61038 29.31507
#
# Velocity S-wave (km/s) = 3.69464 3.86166 3.77907
# Velocity P-wave (km/s) = 6.25798 6.59539 6.42890
#
# Compressibility (1/GPa) = 0.02324075
#
# Stress axis : x y z
#
# Youngs Moduli (GPa) = 44.59852 74.88063 94.01720
#
# Poissons Ratio (x) = 0.57644 0.07107
# Poissons Ratio (y) = 0.34332 0.29448
# Poissons Ratio (z) = 0.03371 0.23454
#
# Static dielectric constant tensor:
#      x y z
#    x 2.892730 0.000000 0.000000 
#    y 0.000000 4.241360 0.000000 
#    z 0.000000 0.000000 3.883180 
# 
# 
# High freq. dielectric constant tensor:
#      x y z
#    x 1.787670 0.000000 0.000000 
#    y 0.000000 1.808410 0.000000 
#    z 0.000000 0.000000 1.812430 
# 
# From -- ./inp_files/27139.got.cif
#   From: 2010.03.12/outbox.cif.g09.slc.cpg/sg62_14_cif.got.tgz:27139.got - 2010.04.10 19:12:36.
