data_PCOD8254983
_publ_section_title
;
Structure prediction by ZEFSAII (Michael W. Deem and Ramdas Pophale) SiO2 
 PCOD8254983
Probable space group: P N M A
;
_chemical_formula_sum "Si O2"
_cell_formula_units_Z 40
_cell_length_a 16.012871
_cell_length_b 23.191737
_cell_length_c 4.904916
_cell_angle_alpha 90.000000
_cell_angle_beta 90.000000
_cell_angle_gamma 90.000000
_cell_volume 1821.520472
_symmetry_space_group_name_H-M "P N M A"
_symmetry_group_IT_number 62
_symmetry_cell_setting 'orthorhombic'
loop_
_space_group_symop_operation_xyz
x,y,z
1/2-x,-y,1/2+z
1/2+x,1/2-y,1/2-z
-x,1/2+y,-z
-x,-y,-z
1/2+x,y,1/2-z
1/2-x,1/2+y,1/2+z
x,1/2-y,z
loop_
_atom_site_type_symbol
_atom_site_label
_atom_site_fract_x
_atom_site_fract_y
_atom_site_fract_z
Si Si1 0.820021 0.686489 0.600315
Si Si2 0.559052 0.681947 0.389075
Si Si3 0.611237 0.370756 0.601773
Si Si4 0.339557 0.148483 0.117350
Si Si5 0.763834 0.537594 0.030626
O O1 0.849701 0.750000 0.522661
O O2 0.819122 0.651177 0.318079
O O3 0.730069 0.688493 0.742601
O O4 0.886562 0.661170 0.812352
O O5 0.537319 0.750000 0.423973
O O6 0.480538 0.643228 0.281038
O O7 0.582941 0.651741 0.674752
O O8 0.633298 0.675041 0.171380
O O9 0.641256 0.436827 0.554707
O O10 0.302462 0.084439 0.080555
O O11 0.767672 0.484593 0.821883
#
# Coordination Sequence:
#
# PCOD8254983 Si02
#       5
#     8   8   8   8   8
#     4  11  20  37  60  89 122 164 208 250 298 370
#     4  12  23  40  61  95 137 164 187 248 320 382
#     4  11  24  39  62  93 124 164 211 250 305 376
#     4  11  24  39  62  93 123 163 212 251 305 376
#     4  11  23  45  67  86 117 165 219 273 304 340
#
# _framework density 21.959678
#
# number of rings (size 3 to 8) (size 9 to 14) (size 15 to 20)
#    0.000    0.800    0.000   10.800    0.000    0.000 
#    0.000    6.000    0.000    0.000    0.000    0.000 
#    0.000    0.000    0.000    0.000    0.000    0.000 
#
# Total GULP energy -495929.959684 kJ/mol
# GULP energy per Si atom -12398.248992 kJ/mol
# Density = 2.190970 g / cm^3
# Si number density = 21.959678 Si / 1000 Ang^3
#
#
#
# Elastic Constant Matrix: (Units=GPa)
#
#
# Indices 1 2 3 4 5 6 
#
# 1 70.2014 19.4289 -6.9907 0.0000 0.0000 0.0000
# 2 19.4289 82.9353 14.4050 0.0000 0.0000 0.0000
# 3 -6.9907 14.4050 76.1078 0.0000 0.0000 0.0000
# 4 0.0000 0.0000 0.0000 45.4259 0.0000 0.0000
# 5 0.0000 0.0000 0.0000 0.0000 34.9430 0.0000
# 6 0.0000 0.0000 0.0000 0.0000 0.0000 26.0488
#
#
#
# Elastic Compliance Matrix: (Units=1/GPa)
#
#
# Indices 1 2 3 4 5 6 
#
# 1 0.015579 -0.004031 0.002194 0.000000 0.000000 0.000000
# 2 -0.004031 0.013510 -0.002927 0.000000 0.000000 0.000000
# 3 0.002194 -0.002927 0.013895 0.000000 0.000000 0.000000
# 4 0.000000 0.000000 0.000000 0.022014 0.000000 0.000000
# 5 0.000000 0.000000 0.000000 0.000000 0.028618 0.000000
# 6 0.000000 0.000000 0.000000 0.000000 0.000000 0.038389
#
#
# Mechanical properties :
#
#
# Convention : Reuss Voigt Hill
#
# Bulk Modulus (GPa) = 29.89036 31.43676 30.66356
# Shear Modulus (GPa) = 32.74710 34.77695 33.76203
#
# Velocity S-wave (km/s) = 3.86584 3.98386 3.92529
# Velocity P-wave (km/s) = 5.79373 5.95888 5.87689
#
# Compressibility (1/GPa) = 0.03345560
#
# Stress axis : x y z
#
# Youngs Moduli (GPa) = 64.19020 74.01771 71.96919
#
# Poissons Ratio (x) = 0.29834 -0.15789
# Poissons Ratio (y) = 0.25873 0.21068
# Poissons Ratio (z) = -0.14082 0.21667
#
# Static dielectric constant tensor:
#      x y z
#    x 3.912790 0.000000 0.000000 
#    y 0.000000 3.769520 0.000000 
#    z 0.000000 0.000000 4.151160 
# 
# 
# High freq. dielectric constant tensor:
#      x y z
#    x 1.852350 0.000000 0.000000 
#    y 0.000000 1.848550 0.000000 
#    z 0.000000 0.000000 1.888880 
# 
# From -- ./inp_files/1037.got.cif
#   From: 2010.03.12/outbox.cif.g09.slc.cpg/sg62_1_cif.got.tgz:1037.got - 2010.04.10 19:12:36.
