data_PCOD8254882
_publ_section_title
;
Structure prediction by ZEFSAII (Michael W. Deem and Ramdas Pophale) SiO2 
 PCOD8254882
Probable space group: P N M A
;
_chemical_formula_sum "Si O2"
_cell_formula_units_Z 40
_cell_length_a 14.056558
_cell_length_b 21.923074
_cell_length_c 5.161536
_cell_angle_alpha 90.000000
_cell_angle_beta 90.000000
_cell_angle_gamma 90.000000
_cell_volume 1590.594218
_symmetry_space_group_name_H-M "P N M A"
_symmetry_group_IT_number 62
_symmetry_cell_setting 'orthorhombic'
loop_
_space_group_symop_operation_xyz
x,y,z
1/2-x,-y,1/2+z
1/2+x,1/2-y,1/2-z
-x,1/2+y,-z
-x,-y,-z
1/2+x,y,1/2-z
1/2-x,1/2+y,1/2+z
x,1/2-y,z
loop_
_atom_site_type_symbol
_atom_site_label
_atom_site_fract_x
_atom_site_fract_y
_atom_site_fract_z
Si Si1 0.722167 0.418385 0.922593
Si Si2 0.380806 0.019876 0.306161
Si Si3 0.794991 0.318590 0.582175
Si Si4 0.416418 0.317603 0.409294
Si Si5 0.061389 0.085330 0.189789
O O1 0.831049 0.425457 0.027629
O O2 0.645918 0.391914 0.125353
O O3 0.692942 0.490508 0.896559
O O4 0.720816 0.372407 0.673304
O O5 0.405189 0.959034 0.464792
O O6 0.473885 0.048504 0.167749
O O7 0.749110 0.250000 0.558587
O O8 0.839748 0.340417 0.309496
O O9 0.873066 0.317021 0.806018
O O10 0.445110 0.250000 0.320820
O O11 0.514828 0.354071 0.425663
#
# Coordination Sequence:
#
# PCOD8254882 Si02
#       5
#     8   8   8   8   8
#     4  12  24  40  69  96 143 181 235 283 352 415
#     4  11  25  42  62 104 138 183 230 293 346 418
#     4  10  24  45  71 100 136 180 229 289 346 403
#     4  10  23  45  71  99 135 180 230 288 344 404
#     4  11  25  42  67  99 138 187 229 288 349 422
#
# _framework density 25.147832999999999
#
# number of rings (size 3 to 8) (size 9 to 14) (size 15 to 20)
#    0.000    1.200    4.000    0.600    8.400    0.800 
#    0.000    1.000    0.000    0.000    0.000    0.000 
#    0.000    0.000    0.000    0.000    0.000    0.000 
#
# Total GULP energy -495629.543386 kJ/mol
# GULP energy per Si atom -12390.738585 kJ/mol
# Density = 2.509060 g / cm^3
# Si number density = 25.147833 Si / 1000 Ang^3
#
#
#
# Elastic Constant Matrix: (Units=GPa)
#
#
# Indices 1 2 3 4 5 6 
#
# 1 93.6642 19.6585 -4.5468 0.0000 0.0000 0.0000
# 2 19.6585 101.0455 -5.8171 0.0000 0.0000 0.0000
# 3 -4.5468 -5.8171 41.5331 0.0000 0.0000 0.0000
# 4 0.0000 0.0000 0.0000 44.8848 0.0000 0.0000
# 5 0.0000 0.0000 0.0000 0.0000 22.7483 0.0000
# 6 0.0000 0.0000 0.0000 0.0000 0.0000 17.0131
#
#
#
# Elastic Compliance Matrix: (Units=1/GPa)
#
#
# Indices 1 2 3 4 5 6 
#
# 1 0.011166 -0.002119 0.000926 0.000000 0.000000 0.000000
# 2 -0.002119 0.010379 0.001222 0.000000 0.000000 0.000000
# 3 0.000926 0.001222 0.024350 0.000000 0.000000 0.000000
# 4 0.000000 0.000000 0.000000 0.022279 0.000000 0.000000
# 5 0.000000 0.000000 0.000000 0.000000 0.043959 0.000000
# 6 0.000000 0.000000 0.000000 0.000000 0.000000 0.058778
#
#
# Mechanical properties :
#
#
# Convention : Reuss Voigt Hill
#
# Bulk Modulus (GPa) = 21.76217 28.31466 25.03841
# Shear Modulus (GPa) = 26.85683 32.05912 29.45797
#
# Velocity S-wave (km/s) = 3.27151 3.57434 3.42627
# Velocity P-wave (km/s) = 4.78987 5.32149 5.06266
#
# Compressibility (1/GPa) = 0.04595131
#
# Stress axis : x y z
#
# Youngs Moduli (GPa) = 89.55653 96.34712 41.06843
#
# Poissons Ratio (x) = 0.20417 -0.03801
# Poissons Ratio (y) = 0.18978 -0.05017
# Poissons Ratio (z) = -0.08289 -0.11771
#
# Static dielectric constant tensor:
#      x y z
#    x 4.617030 0.000000 0.000000 
#    y 0.000000 5.222250 0.000000 
#    z 0.000000 0.000000 4.250640 
# 
# 
# High freq. dielectric constant tensor:
#      x y z
#    x 1.993260 0.000000 0.000000 
#    y 0.000000 2.034210 0.000000 
#    z 0.000000 0.000000 1.986720 
# 
# From -- ./inp_files/1044.got.cif
#   From: 2010.03.12/outbox.cif.g09.slc.cpg/sg62_1_cif.got.tgz:1044.got - 2010.04.10 19:12:36.
