data_PCOD8254194
_publ_section_title
;
Structure prediction by ZEFSAII (Michael W. Deem and Ramdas Pophale) SiO2 
 PCOD8254194
Probable space group: P N M A
;
_chemical_formula_sum "Si O2"
_cell_formula_units_Z 56
_cell_length_a 14.358512
_cell_length_b 21.694140
_cell_length_c 8.714262
_cell_angle_alpha 90.000000
_cell_angle_beta 90.000000
_cell_angle_gamma 90.000000
_cell_volume 2714.454005
_symmetry_space_group_name_H-M "P N M A"
_symmetry_group_IT_number 62
_symmetry_cell_setting 'orthorhombic'
loop_
_space_group_symop_operation_xyz
x,y,z
1/2-x,-y,1/2+z
1/2+x,1/2-y,1/2-z
-x,1/2+y,-z
-x,-y,-z
1/2+x,y,1/2-z
1/2-x,1/2+y,1/2+z
x,1/2-y,z
loop_
_atom_site_type_symbol
_atom_site_label
_atom_site_fract_x
_atom_site_fract_y
_atom_site_fract_z
Si Si1 0.153172 0.909310 0.859949
Si Si2 0.844877 0.179766 0.397227
Si Si3 0.360519 0.679262 0.571838
Si Si4 0.984889 0.822202 0.411662
Si Si5 0.361292 0.891063 0.868317
Si Si6 0.988967 0.012861 0.319246
Si Si7 0.506953 0.890817 0.380651
O O1 0.152613 0.843773 0.776290
O O2 0.261523 0.924386 0.895443
O O3 0.108894 0.957530 0.737763
O O4 0.099026 0.902141 0.019427
O O5 0.870220 0.250000 0.382956
O O6 0.746279 0.169337 0.483263
O O7 0.927641 0.149786 0.495117
O O8 0.393332 0.750000 0.540858
O O9 0.360291 0.667580 0.754509
O O10 0.421171 0.626645 0.490554
O O11 0.964014 0.750000 0.435114
O O12 0.011406 0.833005 0.234520
O O13 0.897861 0.864146 0.468568
O O14 0.426698 0.941002 0.783186
O O15 0.000000 0.000000 0.500000
O O16 0.993666 0.951728 0.218612
#
# Coordination Sequence:
#
# PCOD8254194 Si02
#       7
#     8   8   8   8   8   8   8
#     4  11  24  41  66 101 123 168 223 272 327 388
#     4   9  19  39  66  92 126 169 213 260 322 392
#     4  10  21  39  65  96 128 166 213 268 324 388
#     4  11  22  41  64  92 131 176 213 266 331 390
#     4  11  23  43  67  96 128 175 219 268 328 395
#     4  12  24  47  65  90 132 175 220 267 332 392
#     4  12  24  41  64  95 134 167 218 277 327 393
#
# _framework density 20.630299000000001
#
# number of rings (size 3 to 8) (size 9 to 14) (size 15 to 20)
#    0.000    1.143    4.286    1.286    0.000    5.143 
#    5.143    1.429    0.000    0.000    0.000    0.000 
#    0.000    0.000    0.000    0.000    0.000    0.000 
#
# Total GULP energy -693934.063462 kJ/mol
# GULP energy per Si atom -12391.679705 kJ/mol
# Density = 2.058334 g / cm^3
# Si number density = 20.630299 Si / 1000 Ang^3
#
#
#
# Elastic Constant Matrix: (Units=GPa)
#
#
# Indices 1 2 3 4 5 6 
#
# 1 117.2951 65.1601 38.6227 0.0000 0.0000 0.0000
# 2 65.1601 82.3979 42.8629 0.0000 0.0000 0.0000
# 3 38.6227 42.8629 107.9277 0.0000 0.0000 0.0000
# 4 0.0000 0.0000 0.0000 40.2378 0.0000 0.0000
# 5 0.0000 0.0000 0.0000 0.0000 15.1757 0.0000
# 6 0.0000 0.0000 0.0000 0.0000 0.0000 25.2128
#
#
#
# Elastic Compliance Matrix: (Units=1/GPa)
#
#
# Indices 1 2 3 4 5 6 
#
# 1 0.015266 -0.011634 -0.000843 0.000000 0.000000 0.000000
# 2 -0.011634 0.024162 -0.005433 0.000000 0.000000 0.000000
# 3 -0.000843 -0.005433 0.011725 0.000000 0.000000 0.000000
# 4 0.000000 0.000000 0.000000 0.024852 0.000000 0.000000
# 5 0.000000 0.000000 0.000000 0.000000 0.065895 0.000000
# 6 0.000000 0.000000 0.000000 0.000000 0.000000 0.039662
#
#
# Mechanical properties :
#
#
# Convention : Reuss Voigt Hill
#
# Bulk Modulus (GPa) = 65.21310 66.76799 65.99055
# Shear Modulus (GPa) = 22.47270 26.85693 24.66481
#
# Velocity S-wave (km/s) = 3.30404 3.61199 3.46144
# Velocity P-wave (km/s) = 6.79960 7.05901 6.93052
#
# Compressibility (1/GPa) = 0.01533434
#
# Stress axis : x y z
#
# Youngs Moduli (GPa) = 65.50567 41.38677 85.29094
#
# Poissons Ratio (x) = 0.48149 0.07187
# Poissons Ratio (y) = 0.76208 0.46336
# Poissons Ratio (z) = 0.05520 0.22484
#
# Static dielectric constant tensor:
#      x y z
#    x 3.996890 0.000000 0.000000 
#    y 0.000000 3.806350 0.000000 
#    z 0.000000 0.000000 4.055790 
# 
# 
# High freq. dielectric constant tensor:
#      x y z
#    x 1.809240 0.000000 0.000000 
#    y 0.000000 1.811300 0.000000 
#    z 0.000000 0.000000 1.803930 
# 
# From -- ./inp_files/6744.got.cif
#   From: 2010.03.12/outbox.cif.g09.slc.cpg/sg62_4_cif.got.tgz:6744.got - 2010.04.10 19:12:36.
