data_PCOD8254337
_publ_section_title
;
Structure prediction by ZEFSAII (Michael W. Deem and Ramdas Pophale) SiO2 
 PCOD8254337
Probable space group: P N M A
;
_chemical_formula_sum "Si O2"
_cell_formula_units_Z 64
_cell_length_a 24.419951
_cell_length_b 8.908184
_cell_length_c 14.612455
_cell_angle_alpha 90.000000
_cell_angle_beta 90.000000
_cell_angle_gamma 90.000000
_cell_volume 3178.755713
_symmetry_space_group_name_H-M "P N M A"
_symmetry_group_IT_number 62
_symmetry_cell_setting 'orthorhombic'
loop_
_space_group_symop_operation_xyz
x,y,z
1/2-x,-y,1/2+z
1/2+x,1/2-y,1/2-z
-x,1/2+y,-z
-x,-y,-z
1/2+x,y,1/2-z
1/2-x,1/2+y,1/2+z
x,1/2-y,z
loop_
_atom_site_type_symbol
_atom_site_label
_atom_site_fract_x
_atom_site_fract_y
_atom_site_fract_z
Si Si1 0.851034 0.573751 0.865872
Si Si2 0.486874 0.078400 0.405090
Si Si3 0.948926 0.425336 0.548441
Si Si4 0.260384 0.574427 0.161633
Si Si5 0.170099 0.572988 0.514780
Si Si6 0.734229 0.075711 0.624820
Si Si7 0.369627 0.420204 0.457465
Si Si8 0.439381 0.425862 0.742138
O O1 0.847892 0.750000 0.854029
O O2 0.791050 0.508140 0.883499
O O3 0.880669 0.501783 0.778270
O O4 0.885075 0.525499 0.955801
O O5 0.508477 0.250000 0.406259
O O6 0.421341 0.073086 0.389198
O O7 0.500000 0.000000 0.500000
O O8 0.513080 0.991456 0.320759
O O9 0.952398 0.250000 0.530679
O O10 0.890623 0.485158 0.510726
O O11 0.954381 0.464741 0.654673
O O12 0.000000 0.500000 0.500000
O O13 0.256762 0.750000 0.142871
O O14 0.313345 0.509149 0.109341
O O15 0.258714 0.537528 0.268737
O O16 0.170722 0.750000 0.531945
O O17 0.211076 0.531467 0.431067
O O18 0.719800 0.250000 0.609556
O O19 0.683939 0.976012 0.593382
O O20 0.360189 0.250000 0.491961
O O21 0.433291 0.250000 0.724690
#
# Coordination Sequence:
#
# PCOD8254337 Si02
#       8
#     8   8   8   8   8   8   8   8
#     4  12  23  37  61  91 124 164 208 255 313 373
#     4  11  23  38  59  89 126 166 204 253 310 372
#     4  10  24  45  68  92 124 165 212 267 320 372
#     4  11  23  39  62  93 127 165 207 256 311 372
#     4  10  21  41  65  90 122 164 208 259 314 371
#     4  10  22  40  62  89 125 165 205 250 311 373
#     4  11  23  38  59  88 124 162 203 252 308 366
#     4  11  23  41  65  92 123 165 214 265 318 376
#
# _framework density 20.133665000000001
#
# number of rings (size 3 to 8) (size 9 to 14) (size 15 to 20)
#    0.000    1.250    2.500    3.375    0.000    7.000 
#    0.000    6.250    0.000    0.000    0.000    0.000 
#    0.000    0.000    0.000    0.000    0.000    0.000 
#
# Total GULP energy -793789.014801 kJ/mol
# GULP energy per Si atom -12402.953356 kJ/mol
# Density = 2.008784 g / cm^3
# Si number density = 20.133665 Si / 1000 Ang^3
#
#
#
# Elastic Constant Matrix: (Units=GPa)
#
#
# Indices 1 2 3 4 5 6 
#
# 1 144.3111 54.1961 60.7997 0.0000 0.0000 0.0000
# 2 54.1961 101.6322 57.3269 0.0000 0.0000 0.0000
# 3 60.7997 57.3269 106.8240 0.0000 0.0000 0.0000
# 4 0.0000 0.0000 0.0000 34.5139 0.0000 0.0000
# 5 0.0000 0.0000 0.0000 0.0000 33.6728 0.0000
# 6 0.0000 0.0000 0.0000 0.0000 0.0000 37.1482
#
#
#
# Elastic Compliance Matrix: (Units=1/GPa)
#
#
# Indices 1 2 3 4 5 6 
#
# 1 0.009695 -0.002951 -0.003935 0.000000 0.000000 0.000000
# 2 -0.002951 0.015009 -0.006375 0.000000 0.000000 0.000000
# 3 -0.003935 -0.006375 0.015022 0.000000 0.000000 0.000000
# 4 0.000000 0.000000 0.000000 0.028974 0.000000 0.000000
# 5 0.000000 0.000000 0.000000 0.000000 0.029698 0.000000
# 6 0.000000 0.000000 0.000000 0.000000 0.000000 0.026919
#
#
# Mechanical properties :
#
#
# Convention : Reuss Voigt Hill
#
# Bulk Modulus (GPa) = 75.72834 77.49031 76.60933
# Shear Modulus (GPa) = 32.00225 33.09663 32.54944
#
# Velocity S-wave (km/s) = 3.99117 4.05883 4.02514
# Velocity P-wave (km/s) = 7.67683 7.78055 7.72886
#
# Compressibility (1/GPa) = 0.01320510
#
# Stress axis : x y z
#
# Youngs Moduli (GPa) = 103.14244 66.62758 66.56990
#
# Poissons Ratio (x) = 0.19660 0.26193
# Poissons Ratio (y) = 0.30434 0.42439
# Poissons Ratio (z) = 0.40583 0.42475
#
# Static dielectric constant tensor:
#      x y z
#    x 4.245260 0.000000 0.000000 
#    y 0.000000 3.728450 0.000000 
#    z 0.000000 0.000000 3.247140 
# 
# 
# High freq. dielectric constant tensor:
#      x y z
#    x 1.796810 0.000000 0.000000 
#    y 0.000000 1.790090 0.000000 
#    z 0.000000 0.000000 1.784560 
# 
# From -- ./inp_files/20833.got.cif
#   From: 2010.03.12/outbox.cif.g09.slc.cpg/sg62_11_cif.got.tgz:20833.got - 2010.04.10 19:12:36.
