data_PCOD8254528
_publ_section_title
;
Structure prediction by ZEFSAII (Michael W. Deem and Ramdas Pophale) SiO2 
 PCOD8254528
Probable space group: P N M A
;
_chemical_formula_sum "Si O2"
_cell_formula_units_Z 56
_cell_length_a 11.171692
_cell_length_b 12.459635
_cell_length_c 21.663062
_cell_angle_alpha 90.000000
_cell_angle_beta 90.000000
_cell_angle_gamma 90.000000
_cell_volume 3015.394348
_symmetry_space_group_name_H-M "P N M A"
_symmetry_group_IT_number 62
_symmetry_cell_setting 'orthorhombic'
loop_
_space_group_symop_operation_xyz
x,y,z
1/2-x,-y,1/2+z
1/2+x,1/2-y,1/2-z
-x,1/2+y,-z
-x,-y,-z
1/2+x,y,1/2-z
1/2-x,1/2+y,1/2+z
x,1/2-y,z
loop_
_atom_site_type_symbol
_atom_site_label
_atom_site_fract_x
_atom_site_fract_y
_atom_site_fract_z
Si Si1 0.160465 0.873285 0.531496
Si Si2 0.947946 0.750000 0.218707
Si Si3 0.462440 0.870904 0.874050
Si Si4 0.291669 0.448631 0.898432
Si Si5 0.655342 0.371650 0.363572
Si Si6 0.059359 0.475180 0.838756
Si Si7 0.142066 0.629527 0.734444
Si Si8 0.171169 0.750000 0.311039
O O1 0.141225 0.750000 0.513981
O O2 0.168019 0.939546 0.468954
O O3 0.280509 0.887084 0.571102
O O4 0.050303 0.915540 0.572576
O O5 0.983157 0.857500 0.182162
O O6 0.799346 0.750000 0.228967
O O7 0.043018 0.750000 0.275403
O O8 0.423339 0.750000 0.889481
O O9 0.524680 0.875312 0.807717
O O10 0.345575 0.942739 0.870706
O O11 0.148419 0.459245 0.896352
O O12 0.334122 0.352224 0.855238
O O13 0.605982 0.250000 0.357711
O O14 0.550776 0.456876 0.362360
O O15 0.742393 0.396235 0.306582
O O16 0.131589 0.537678 0.785365
O O17 0.152480 0.750000 0.763024
#
# Coordination Sequence:
#
# PCOD8254528 Si02
#       8
#     8   4   8   8   8   8   8   4
#     4   9  18  38  60  78 109 146 190 237 279 344
#     4  10  24  38  56  80 126 152 200 232 280 340
#     4   9  19  34  57  85 112 143 178 236 286 333
#     4  11  21  35  58  83 112 147 192 227 287 330
#     4   9  20  37  58  82 106 144 186 231 291 336
#     4  11  23  35  55  83 115 151 184 232 275 350
#     4   9  19  35  56  83 112 140 181 227 287 337
#     4  10  22  40  58  88 110 166 194 238 278 340
#
# _framework density 18.571369000000001
#
# number of rings (size 3 to 8) (size 9 to 14) (size 15 to 20)
#    0.000    2.286    0.714    3.429    6.000    1.714 
#    0.000    0.000    1.571    0.000    0.000    0.000 
#    0.000    0.000    0.000    0.000    0.000    0.000 
#
# Total GULP energy -694077.405331 kJ/mol
# GULP energy per Si atom -12394.239381 kJ/mol
# Density = 1.852910 g / cm^3
# Si number density = 18.571369 Si / 1000 Ang^3
#
#
#
# Elastic Constant Matrix: (Units=GPa)
#
#
# Indices 1 2 3 4 5 6 
#
# 1 67.1146 36.2015 18.1051 0.0000 0.0000 0.0000
# 2 36.2015 107.6079 20.5062 0.0000 0.0000 0.0000
# 3 18.1051 20.5062 47.2229 0.0000 0.0000 0.0000
# 4 0.0000 0.0000 0.0000 -7.0307 0.0000 0.0000
# 5 0.0000 0.0000 0.0000 0.0000 15.2218 0.0000
# 6 0.0000 0.0000 0.0000 0.0000 0.0000 33.2552
#
#
#
# Elastic Compliance Matrix: (Units=1/GPa)
#
#
# Indices 1 2 3 4 5 6 
#
# 1 0.019217 -0.005518 -0.004972 0.000000 0.000000 0.000000
# 2 -0.005518 0.011716 -0.002972 0.000000 0.000000 0.000000
# 3 -0.004972 -0.002972 0.024373 0.000000 0.000000 0.000000
# 4 0.000000 0.000000 0.000000 -0.142233 0.000000 0.000000
# 5 0.000000 0.000000 0.000000 0.000000 0.065695 0.000000
# 6 0.000000 0.000000 0.000000 0.000000 0.000000 0.030070
#
#
# Mechanical properties :
#
#
# Convention : Reuss Voigt Hill
#
# Bulk Modulus (GPa) = 35.23249 41.28566 38.25908
# Shear Modulus (GPa) = 110.56584 18.09811 64.33197
#
# Velocity S-wave (km/s) = 7.72431 3.12511 5.89200
# Velocity P-wave (km/s) = 9.92803 5.94145 8.18128
#
# Compressibility (1/GPa) = 0.02838289
#
# Stress axis : x y z
#
# Youngs Moduli (GPa) = 52.03637 85.35634 41.02918
#
# Poissons Ratio (x) = 0.47097 0.20399
# Poissons Ratio (y) = 0.28712 0.12194
# Poissons Ratio (z) = 0.25872 0.25367
#
# Static dielectric constant tensor:
#      x y z
#    x 3.404320 0.000000 0.000000 
#    y 0.000000 3.457960 0.000000 
#    z 0.000000 0.000000 3.262420 
# 
# 
# High freq. dielectric constant tensor:
#      x y z
#    x 1.719920 0.000000 0.000000 
#    y 0.000000 1.728030 0.000000 
#    z 0.000000 0.000000 1.706850 
# 
# From -- ./inp_files/26654.got.cif
#   From: 2010.03.12/outbox.cif.g09.slc.cpg/sg62_14_cif.got.tgz:26654.got - 2010.04.10 19:12:36.
