data_PCOD8254173
_publ_section_title
;
Structure prediction by ZEFSAII (Michael W. Deem and Ramdas Pophale) SiO2 
 PCOD8254173
Probable space group: P N M A
;
_chemical_formula_sum "Si O2"
_cell_formula_units_Z 48
_cell_length_a 8.668692
_cell_length_b 13.916767
_cell_length_c 17.833508
_cell_angle_alpha 90.000000
_cell_angle_beta 90.000000
_cell_angle_gamma 90.000000
_cell_volume 2151.437379
_symmetry_space_group_name_H-M "P N M A"
_symmetry_group_IT_number 62
_symmetry_cell_setting 'orthorhombic'
loop_
_space_group_symop_operation_xyz
x,y,z
1/2-x,-y,1/2+z
1/2+x,1/2-y,1/2-z
-x,1/2+y,-z
-x,-y,-z
1/2+x,y,1/2-z
1/2-x,1/2+y,1/2+z
x,1/2-y,z
loop_
_atom_site_type_symbol
_atom_site_label
_atom_site_fract_x
_atom_site_fract_y
_atom_site_fract_z
Si Si1 0.889692 0.750000 0.091390
Si Si2 0.870568 0.250000 0.046013
Si Si3 0.260150 0.953001 0.963349
Si Si4 0.392362 0.750000 0.672865
Si Si5 0.586375 0.454298 0.655665
Si Si6 0.841523 0.250000 0.464507
Si Si7 0.417629 0.447765 0.088215
Si Si8 0.207948 0.450884 0.222391
O O1 0.902097 0.660349 0.148290
O O2 0.726406 0.750000 0.048651
O O3 0.014061 0.750000 0.024526
O O4 0.758344 0.339685 0.038345
O O5 0.941598 0.250000 0.131058
O O6 0.411244 0.991193 0.917168
O O7 0.107402 0.002617 0.928191
O O8 0.284204 0.989005 0.048205
O O9 0.283707 0.750000 0.601329
O O10 0.367664 0.656421 0.726196
O O11 0.418946 0.477876 0.688216
O O12 0.728427 0.504266 0.700901
O O13 0.939698 0.154228 0.453632
O O14 0.364281 0.441798 0.173546
#
# Coordination Sequence:
#
# PCOD8254173 Si02
#       8
#     4   4   8   4   8   4   8   8
#     4  11  24  40  67  96 126 176 229 273 327 402
#     4  11  21  39  66 102 128 170 224 279 336 402
#     4  11  22  37  65  98 131 166 217 276 336 394
#     4   9  20  37  64  94 123 162 212 273 328 398
#     4  12  25  43  65  93 133 179 226 278 335 406
#     4   9  17  36  63  92 125 158 211 265 321 380
#     4  10  21  39  63  99 132 167 212 275 330 397
#     4  11  24  42  64  92 132 176 218 271 340 401
#
# _framework density 22.310668
#
# number of rings (size 3 to 8) (size 9 to 14) (size 15 to 20)
#    0.000    1.333    3.333    2.500    0.000    3.333 
#    0.000    2.500    0.000    0.000    0.000    0.000 
#    0.000    0.000    0.000    0.000    0.000    0.000 
#
# Total GULP energy -594912.692931 kJ/mol
# GULP energy per Si atom -12394.014436 kJ/mol
# Density = 2.225989 g / cm^3
# Si number density = 22.310668 Si / 1000 Ang^3
#
#
#
# Elastic Constant Matrix: (Units=GPa)
#
#
# Indices 1 2 3 4 5 6 
#
# 1 40.2598 3.8932 24.9406 0.0000 0.0000 0.0000
# 2 3.8932 155.8510 38.3139 0.0000 0.0000 0.0000
# 3 24.9406 38.3139 69.6635 0.0000 0.0000 0.0000
# 4 0.0000 0.0000 0.0000 4.0917 0.0000 0.0000
# 5 0.0000 0.0000 0.0000 0.0000 37.0526 0.0000
# 6 0.0000 0.0000 0.0000 0.0000 0.0000 31.8798
#
#
#
# Elastic Compliance Matrix: (Units=1/GPa)
#
#
# Indices 1 2 3 4 5 6 
#
# 1 0.032664 0.002381 -0.013004 0.000000 0.000000 0.000000
# 2 0.002381 0.007593 -0.005028 0.000000 0.000000 0.000000
# 3 -0.013004 -0.005028 0.021776 0.000000 0.000000 0.000000
# 4 0.000000 0.000000 0.000000 0.244398 0.000000 0.000000
# 5 0.000000 0.000000 0.000000 0.000000 0.026989 0.000000
# 6 0.000000 0.000000 0.000000 0.000000 0.000000 0.031368
#
#
# Mechanical properties :
#
#
# Convention : Reuss Voigt Hill
#
# Bulk Modulus (GPa) = 32.54107 44.45220 38.49664
# Shear Modulus (GPa) = 12.30514 27.84659 20.07587
#
# Velocity S-wave (km/s) = 2.35103 3.53672 3.00298
# Velocity P-wave (km/s) = 4.68902 6.05354 5.41443
#
# Compressibility (1/GPa) = 0.03073039
#
# Stress axis : x y z
#
# Youngs Moduli (GPa) = 30.61460 131.69863 45.92246
#
# Poissons Ratio (x) = -0.31355 0.59716
# Poissons Ratio (y) = -0.07289 0.23092
# Poissons Ratio (z) = 0.39810 0.66224
#
# Static dielectric constant tensor:
#      x y z
#    x 3.855910 0.000000 0.000000 
#    y 0.000000 4.123220 0.000000 
#    z 0.000000 0.000000 3.882480 
# 
# 
# High freq. dielectric constant tensor:
#      x y z
#    x 1.884860 0.000000 0.000000 
#    y 0.000000 1.876740 0.000000 
#    z 0.000000 0.000000 1.867290 
# 
# From -- ./inp_files/25890.got.cif
#   From: 2010.03.12/outbox.cif.g09.slc.cpg/sg62_13_cif.got.tgz:25890.got - 2010.04.10 19:12:36.
