data_PCOD8254135
_publ_section_title
;
Structure prediction by ZEFSAII (Michael W. Deem and Ramdas Pophale) SiO2 
 PCOD8254135
Probable space group: P N M A
;
_chemical_formula_sum "Si O2"
_cell_formula_units_Z 56
_cell_length_a 32.879878
_cell_length_b 16.314664
_cell_length_c 5.101361
_cell_angle_alpha 90.000000
_cell_angle_beta 90.000000
_cell_angle_gamma 90.000000
_cell_volume 2736.493299
_symmetry_space_group_name_H-M "P N M A"
_symmetry_group_IT_number 62
_symmetry_cell_setting 'orthorhombic'
loop_
_space_group_symop_operation_xyz
x,y,z
1/2-x,-y,1/2+z
1/2+x,1/2-y,1/2-z
-x,1/2+y,-z
-x,-y,-z
1/2+x,y,1/2-z
1/2-x,1/2+y,1/2+z
x,1/2-y,z
loop_
_atom_site_type_symbol
_atom_site_label
_atom_site_fract_x
_atom_site_fract_y
_atom_site_fract_z
Si Si1 0.505351 0.844121 0.043597
Si Si2 0.638986 0.750000 0.966186
Si Si3 0.753177 0.894650 0.486793
Si Si4 0.705268 0.436794 0.486920
Si Si5 0.408929 0.416402 0.025034
Si Si6 0.952764 0.843995 0.953126
Si Si7 0.308223 0.250000 0.533223
Si Si8 0.612361 0.017941 0.474720
O O1 0.519560 0.750000 0.006987
O O2 0.542941 0.905210 0.009267
O O3 0.487268 0.859529 0.330260
O O4 0.471424 0.866226 0.828674
O O5 0.612411 0.829840 0.018990
O O6 0.676416 0.750000 0.168331
O O7 0.654236 0.750000 0.667595
O O8 0.785879 0.887859 0.720556
O O9 0.718296 0.828966 0.522633
O O10 0.730751 0.980604 0.487770
O O11 0.779013 0.880093 0.224015
O O12 0.658194 0.455110 0.522830
O O13 0.391995 0.480500 0.814127
O O14 0.400244 0.449615 0.314798
O O15 0.937626 0.750000 0.963368
O O16 0.914521 0.901139 0.008326
#
# Coordination Sequence:
#
# PCOD8254135 Si02
#       8
#     8   4   8   8   8   8   4   8
#     4  10  21  41  63  87 128 169 207 250 315 379
#     4  12  24  40  62  96 135 162 189 260 328 364
#     4  10  21  39  62  86 117 160 199 237 311 360
#     4  10  21  40  61  83 122 162 190 250 305 365
#     4  12  24  39  64  95 128 165 204 254 317 373
#     4  10  23  42  63  86 123 172 211 262 316 352
#     4  12  24  40  64  98 121 156 211 256 294 386
#     4  12  25  40  63  96 124 161 219 260 304 368
#
# _framework density 20.464146
#
# number of rings (size 3 to 8) (size 9 to 14) (size 15 to 20)
#    0.000    1.143    0.714    6.000    0.000    5.714 
#    2.571    0.000    0.000    0.000    0.000    0.000 
#    0.000    0.000    0.000    0.000    0.000    0.000 
#
# Total GULP energy -694749.886358 kJ/mol
# GULP energy per Si atom -12406.247971 kJ/mol
# Density = 2.041757 g / cm^3
# Si number density = 20.464146 Si / 1000 Ang^3
#
#
#
# Elastic Constant Matrix: (Units=GPa)
#
#
# Indices 1 2 3 4 5 6 
#
# 1 99.6655 29.8725 18.1603 0.0000 0.0000 0.0000
# 2 29.8725 65.7417 27.5347 0.0000 0.0000 0.0000
# 3 18.1603 27.5347 91.4206 0.0000 0.0000 0.0000
# 4 0.0000 0.0000 0.0000 29.9670 0.0000 0.0000
# 5 0.0000 0.0000 0.0000 0.0000 32.2444 0.0000
# 6 0.0000 0.0000 0.0000 0.0000 0.0000 290.9182
#
#
#
# Elastic Compliance Matrix: (Units=1/GPa)
#
#
# Indices 1 2 3 4 5 6 
#
# 1 0.011670 -0.004957 -0.000825 0.000000 0.000000 0.000000
# 2 -0.004957 0.019512 -0.004892 0.000000 0.000000 0.000000
# 3 -0.000825 -0.004892 0.012576 0.000000 0.000000 0.000000
# 4 0.000000 0.000000 0.000000 0.033370 0.000000 0.000000
# 5 0.000000 0.000000 0.000000 0.000000 0.031013 0.000000
# 6 0.000000 0.000000 0.000000 0.000000 0.000000 0.003437
#
#
# Mechanical properties :
#
#
# Convention : Reuss Voigt Hill
#
# Bulk Modulus (GPa) = 44.62444 45.32921 44.97683
# Shear Modulus (GPa) = 35.61330 82.70995 59.16163
#
# Velocity S-wave (km/s) = 4.17619 6.36433 5.38263
# Velocity P-wave (km/s) = 6.71622 8.72955 7.78821
#
# Compressibility (1/GPa) = 0.02240924
#
# Stress axis : x y z
#
# Youngs Moduli (GPa) = 85.69230 51.24930 79.51762
#
# Poissons Ratio (x) = 0.25404 0.06561
# Poissons Ratio (y) = 0.42478 0.38902
# Poissons Ratio (z) = 0.07071 0.25072
#
# Static dielectric constant tensor:
#      x y z
#    x 3.623340 0.000000 0.000000 
#    y 0.000000 3.544520 0.000000 
#    z 0.000000 0.000000 4.053070 
# 
# 
# High freq. dielectric constant tensor:
#      x y z
#    x 1.801860 0.000000 0.000000 
#    y 0.000000 1.796200 0.000000 
#    z 0.000000 0.000000 1.820130 
# 
# From -- ./inp_files/3627.got.cif
#   From: 2010.03.12/outbox.cif.g09.slc.cpg/sg62_2_cif.got.tgz:3627.got - 2010.04.10 19:12:36.
