data_PCOD8254497
_publ_section_title
;
Structure prediction by ZEFSAII (Michael W. Deem and Ramdas Pophale) SiO2 
 PCOD8254497
Probable space group: P N M A
;
_chemical_formula_sum "Si O2"
_cell_formula_units_Z 56
_cell_length_a 14.341686
_cell_length_b 13.662052
_cell_length_c 12.830462
_cell_angle_alpha 90.000000
_cell_angle_beta 90.000000
_cell_angle_gamma 90.000000
_cell_volume 2513.960435
_symmetry_space_group_name_H-M "P N M A"
_symmetry_group_IT_number 62
_symmetry_cell_setting 'orthorhombic'
loop_
_space_group_symop_operation_xyz
x,y,z
1/2-x,-y,1/2+z
1/2+x,1/2-y,1/2-z
-x,1/2+y,-z
-x,-y,-z
1/2+x,y,1/2-z
1/2-x,1/2+y,1/2+z
x,1/2-y,z
loop_
_atom_site_type_symbol
_atom_site_label
_atom_site_fract_x
_atom_site_fract_y
_atom_site_fract_z
Si Si1 0.626090 0.360459 0.401013
Si Si2 0.004825 0.460824 0.616589
Si Si3 0.013114 0.644940 0.735283
Si Si4 0.777727 0.358469 0.226467
Si Si5 0.218710 0.513412 0.975834
Si Si6 0.323198 0.139140 0.863768
Si Si7 0.702157 0.365209 0.842009
O O1 0.648042 0.250000 0.442828
O O2 0.520878 0.363212 0.355729
O O3 0.699808 0.391284 0.309669
O O4 0.631446 0.443247 0.491118
O O5 0.966342 0.556165 0.675707
O O6 0.934120 0.374446 0.650300
O O7 0.000000 0.500000 0.500000
O O8 0.105156 0.424357 0.656984
O O9 0.975301 0.750000 0.691827
O O10 0.123094 0.642956 0.716928
O O11 0.752822 0.250000 0.183744
O O12 0.793368 0.433746 0.133414
O O13 0.237966 0.595430 0.061509
O O14 0.300388 0.432980 0.960258
O O15 0.303361 0.250000 0.897072
O O16 0.260711 0.112882 0.762497
O O17 0.683982 0.250000 0.856657
#
# Coordination Sequence:
#
# PCOD8254497 Si02
#       7
#     8   8   8   8   8   8   8
#     4  10  22  39  60  88 124 161 205 262 318 379
#     4  12  23  41  65 100 128 169 224 280 325 392
#     4  10  22  40  61  89 122 159 204 260 322 380
#     4  10  22  39  60  88 124 161 205 262 318 379
#     4  12  20  38  64  90 120 168 218 260 322 386
#     4  11  25  43  63  94 136 175 216 272 336 395
#     4  11  25  43  63  94 136 175 216 272 336 395
#
# _framework density 22.27561
#
# number of rings (size 3 to 8) (size 9 to 14) (size 15 to 20)
#    0.000    1.143    1.429    5.571    0.000    1.714 
#    0.000    1.429    0.000    3.429    0.000    0.000 
#    0.000    0.000    0.000    0.000    0.000    0.000 
#
# Total GULP energy -693839.054172 kJ/mol
# GULP energy per Si atom -12389.983110 kJ/mol
# Density = 2.222491 g / cm^3
# Si number density = 22.275610 Si / 1000 Ang^3
#
#
#
# Elastic Constant Matrix: (Units=GPa)
#
#
# Indices 1 2 3 4 5 6 
#
# 1 69.8646 -2.0716 1.6391 0.0000 0.0000 0.0000
# 2 -2.0716 133.9092 49.3952 0.0000 0.0000 0.0000
# 3 1.6391 49.3952 54.3042 0.0000 0.0000 0.0000
# 4 0.0000 0.0000 0.0000 36.9184 0.0000 0.0000
# 5 0.0000 0.0000 0.0000 0.0000 25.8183 0.0000
# 6 0.0000 0.0000 0.0000 0.0000 0.0000 30.0774
#
#
#
# Elastic Compliance Matrix: (Units=1/GPa)
#
#
# Indices 1 2 3 4 5 6 
#
# 1 0.014353 0.000575 -0.000956 0.000000 0.000000 0.000000
# 2 0.000575 0.011262 -0.010261 0.000000 0.000000 0.000000
# 3 -0.000956 -0.010261 0.027777 0.000000 0.000000 0.000000
# 4 0.000000 0.000000 0.000000 0.027087 0.000000 0.000000
# 5 0.000000 0.000000 0.000000 0.000000 0.038732 0.000000
# 6 0.000000 0.000000 0.000000 0.000000 0.000000 0.033248
#
#
# Mechanical properties :
#
#
# Convention : Reuss Voigt Hill
#
# Bulk Modulus (GPa) = 31.14581 39.55595 35.35088
# Shear Modulus (GPa) = 27.10839 32.50383 29.80611
#
# Velocity S-wave (km/s) = 3.49227 3.82405 3.66192
# Velocity P-wave (km/s) = 5.50215 6.10687 5.81238
#
# Compressibility (1/GPa) = 0.03210705
#
# Stress axis : x y z
#
# Youngs Moduli (GPa) = 69.67252 88.79741 36.00103
#
# Poissons Ratio (x) = -0.05103 0.03441
# Poissons Ratio (y) = -0.04004 0.36940
# Poissons Ratio (z) = 0.06660 0.91114
#
# Static dielectric constant tensor:
#      x y z
#    x 3.980050 0.000000 0.000000 
#    y 0.000000 4.707070 0.000000 
#    z 0.000000 0.000000 3.753990 
# 
# 
# High freq. dielectric constant tensor:
#      x y z
#    x 1.870240 0.000000 0.000000 
#    y 0.000000 1.907420 0.000000 
#    z 0.000000 0.000000 1.855790 
# 
# From -- ./inp_files/13409.got.cif
#   From: 2010.03.12/outbox.cif.g09.slc.cpg/sg62_7_cif.got.tgz:13409.got - 2010.04.10 19:12:36.
