data_PCOD8254443
_publ_section_title
;
Structure prediction by ZEFSAII (Michael W. Deem and Ramdas Pophale) SiO2 
 PCOD8254443
Probable space group: P N M A
;
_chemical_formula_sum "Si O2"
_cell_formula_units_Z 36
_cell_length_a 17.131842
_cell_length_b 9.937927
_cell_length_c 11.250635
_cell_angle_alpha 90.000000
_cell_angle_beta 90.000000
_cell_angle_gamma 90.000000
_cell_volume 1915.476808
_symmetry_space_group_name_H-M "P N M A"
_symmetry_group_IT_number 62
_symmetry_cell_setting 'orthorhombic'
loop_
_space_group_symop_operation_xyz
x,y,z
1/2-x,-y,1/2+z
1/2+x,1/2-y,1/2-z
-x,1/2+y,-z
-x,-y,-z
1/2+x,y,1/2-z
1/2-x,1/2+y,1/2+z
x,1/2-y,z
loop_
_atom_site_type_symbol
_atom_site_label
_atom_site_fract_x
_atom_site_fract_y
_atom_site_fract_z
Si Si1 0.024995 0.250000 0.831478
Si Si2 0.187490 0.750000 0.485278
Si Si3 0.375701 0.750000 0.106884
Si Si4 0.866114 0.750000 0.950594
Si Si5 0.089120 0.999899 0.462740
Si Si6 0.711485 0.750000 0.292562
Si Si7 0.598599 0.975985 0.316858
O O1 0.048478 0.250000 0.691890
O O2 0.976420 0.113246 0.854584
O O3 0.100380 0.250000 0.915977
O O4 0.271960 0.750000 0.548480
O O5 0.135649 0.622897 0.522947
O O6 0.193566 0.750000 0.345183
O O7 0.302845 0.750000 0.193766
O O8 0.369408 0.873327 0.018926
O O9 0.898448 0.616645 0.886203
O O10 0.096325 0.008417 0.321924
O O11 0.000000 0.000000 0.500000
O O12 0.674068 0.885159 0.349174
#
# Coordination Sequence:
#
# PCOD8254443 Si02
#       7
#     4   4   4   4   8   4   8
#     4  11  22  39  59  83 114 165 194 229 295 356
#     4  10  22  37  59  89 117 157 188 241 302 344
#     4  12  20  36  60  85 113 150 197 240 291 348
#     4  12  22  39  60  85 123 153 201 243 284 349
#     4  11  21  37  62  87 117 149 196 246 296 345
#     4   9  20  39  60  82 117 155 192 235 298 357
#     4  10  22  40  60  86 117 156 196 243 293 344
#
# _framework density 18.794274999999999
#
# number of rings (size 3 to 8) (size 9 to 14) (size 15 to 20)
#    0.000    1.333    3.333    4.000    0.000    0.000 
#    0.000    0.000    0.000    0.000    0.000    0.000 
#    0.000    0.000    0.000    0.000    0.000    0.000 
#
# Total GULP energy -446323.995395 kJ/mol
# GULP energy per Si atom -12397.888761 kJ/mol
# Density = 1.875150 g / cm^3
# Si number density = 18.794275 Si / 1000 Ang^3
#
#
#
# Elastic Constant Matrix: (Units=GPa)
#
#
# Indices 1 2 3 4 5 6 
#
# 1 120.4459 56.4459 25.1550 0.0000 0.0000 0.0000
# 2 56.4459 175.9022 49.0242 0.0000 0.0000 0.0000
# 3 25.1550 49.0242 66.9550 0.0000 0.0000 0.0000
# 4 0.0000 0.0000 0.0000 34.9694 0.0000 0.0000
# 5 0.0000 0.0000 0.0000 0.0000 29.5215 0.0000
# 6 0.0000 0.0000 0.0000 0.0000 0.0000 27.4988
#
#
#
# Elastic Compliance Matrix: (Units=1/GPa)
#
#
# Indices 1 2 3 4 5 6 
#
# 1 0.009934 -0.002698 -0.001757 0.000000 0.000000 0.000000
# 2 -0.002698 0.007875 -0.004753 0.000000 0.000000 0.000000
# 3 -0.001757 -0.004753 0.019075 0.000000 0.000000 0.000000
# 4 0.000000 0.000000 0.000000 0.028596 0.000000 0.000000
# 5 0.000000 0.000000 0.000000 0.000000 0.033874 0.000000
# 6 0.000000 0.000000 0.000000 0.000000 0.000000 0.036365
#
#
# Mechanical properties :
#
#
# Convention : Reuss Voigt Hill
#
# Bulk Modulus (GPa) = 54.14265 69.39479 61.76872
# Shear Modulus (GPa) = 31.19331 33.90982 32.55157
#
# Velocity S-wave (km/s) = 4.07839 4.25227 4.16624
# Velocity P-wave (km/s) = 7.14481 7.81745 7.48869
#
# Compressibility (1/GPa) = 0.01846973
#
# Stress axis : x y z
#
# Youngs Moduli (GPa) = 100.66648 126.97847 52.42408
#
# Poissons Ratio (x) = 0.34260 0.09209
# Poissons Ratio (y) = 0.27161 0.24915
# Poissons Ratio (z) = 0.17683 0.60348
#
# Static dielectric constant tensor:
#      x y z
#    x 3.538570 0.000000 0.000000 
#    y 0.000000 3.871490 0.000000 
#    z 0.000000 0.000000 3.354440 
# 
# 
# High freq. dielectric constant tensor:
#      x y z
#    x 1.738780 0.000000 0.000000 
#    y 0.000000 1.745930 0.000000 
#    z 0.000000 0.000000 1.718420 
# 
# From -- ./inp_files/13914.got.cif
#   From: 2010.03.12/outbox.cif.g09.slc.cpg/sg62_7_cif.got.tgz:13914.got - 2010.04.10 19:12:36.
