data_PCOD8254663
_publ_section_title
;
Structure prediction by ZEFSAII (Michael W. Deem and Ramdas Pophale) SiO2 
 PCOD8254663
Probable space group: P N M A
;
_chemical_formula_sum "Si O2"
_cell_formula_units_Z 36
_cell_length_a 11.303429
_cell_length_b 13.748405
_cell_length_c 11.163415
_cell_angle_alpha 90.000000
_cell_angle_beta 90.000000
_cell_angle_gamma 90.000000
_cell_volume 1734.840682
_symmetry_space_group_name_H-M "P N M A"
_symmetry_group_IT_number 62
_symmetry_cell_setting 'orthorhombic'
loop_
_space_group_symop_operation_xyz
x,y,z
1/2-x,-y,1/2+z
1/2+x,1/2-y,1/2-z
-x,1/2+y,-z
-x,-y,-z
1/2+x,y,1/2-z
1/2-x,1/2+y,1/2+z
x,1/2-y,z
loop_
_atom_site_type_symbol
_atom_site_label
_atom_site_fract_x
_atom_site_fract_y
_atom_site_fract_z
Si Si1 0.594147 0.462010 0.593453
Si Si2 0.897277 0.250000 0.476422
Si Si3 0.325196 0.557479 0.970952
Si Si4 0.338830 0.750000 0.077841
Si Si5 0.452844 0.059600 0.159588
Si Si6 0.664270 0.250000 0.642710
O O1 0.500000 0.500000 0.500000
O O2 0.725353 0.477242 0.543395
O O3 0.581626 0.533234 0.706290
O O4 0.584072 0.346117 0.616569
O O5 0.890712 0.342144 0.387402
O O6 0.785882 0.250000 0.566876
O O7 0.018626 0.250000 0.554073
O O8 0.403960 0.567272 0.849953
O O9 0.273565 0.660783 0.011832
O O10 0.412650 0.530389 0.079005
O O11 0.305059 0.750000 0.217153
#
# Coordination Sequence:
#
# PCOD8254663 Si02
#       6
#     8   4   8   4   8   4
#     4  12  28  42  67 102 134 171 222 281 330 391
#     4  10  22  42  68  96 128 186 222 262 350 402
#     4  10  22  42  66  96 130 175 216 268 334 383
#     4  10  22  41  68  99 126 177 227 270 320 400
#     4  10  22  42  67  93 134 173 218 268 331 399
#     4  12  24  41  68  95 132 171 223 276 324 398
#
# _framework density 20.751183999999999
#
# number of rings (size 3 to 8) (size 9 to 14) (size 15 to 20)
#    0.000    1.333    4.444    0.000    3.111    4.444 
#    0.000    2.222    0.000    0.000    0.000    0.000 
#    0.000    0.000    0.000    0.000    0.000    0.000 
#
# Total GULP energy -446252.250703 kJ/mol
# GULP energy per Si atom -12395.895853 kJ/mol
# Density = 2.070395 g / cm^3
# Si number density = 20.751184 Si / 1000 Ang^3
#
#
#
# Elastic Constant Matrix: (Units=GPa)
#
#
# Indices 1 2 3 4 5 6 
#
# 1 74.8122 25.8956 42.7304 0.0000 0.0000 0.0000
# 2 25.8956 153.5749 48.0446 0.0000 0.0000 0.0000
# 3 42.7304 48.0446 113.8561 0.0000 0.0000 0.0000
# 4 0.0000 0.0000 0.0000 34.0329 0.0000 0.0000
# 5 0.0000 0.0000 0.0000 0.0000 22.3335 0.0000
# 6 0.0000 0.0000 0.0000 0.0000 0.0000 25.2657
#
#
#
# Elastic Compliance Matrix: (Units=1/GPa)
#
#
# Indices 1 2 3 4 5 6 
#
# 1 0.017149 -0.001012 -0.006009 0.000000 0.000000 0.000000
# 2 -0.001012 0.007561 -0.002811 0.000000 0.000000 0.000000
# 3 -0.006009 -0.002811 0.012224 0.000000 0.000000 0.000000
# 4 0.000000 0.000000 0.000000 0.029383 0.000000 0.000000
# 5 0.000000 0.000000 0.000000 0.000000 0.044776 0.000000
# 6 0.000000 0.000000 0.000000 0.000000 0.000000 0.039579
#
#
# Mechanical properties :
#
#
# Convention : Reuss Voigt Hill
#
# Bulk Modulus (GPa) = 57.89987 63.95384 60.92685
# Shear Modulus (GPa) = 28.39379 31.36460 29.87919
#
# Velocity S-wave (km/s) = 3.70306 3.89197 3.79869
# Velocity P-wave (km/s) = 6.80045 7.14723 6.97599
#
# Compressibility (1/GPa) = 0.01727120
#
# Stress axis : x y z
#
# Youngs Moduli (GPa) = 58.31144 132.24893 81.80304
#
# Poissons Ratio (x) = 0.13380 0.49157
# Poissons Ratio (y) = 0.05900 0.22995
# Poissons Ratio (z) = 0.35041 0.37176
#
# Static dielectric constant tensor:
#      x y z
#    x 3.651620 0.000000 0.000000 
#    y 0.000000 4.000720 0.000000 
#    z 0.000000 0.000000 3.803560 
# 
# 
# High freq. dielectric constant tensor:
#      x y z
#    x 1.795750 0.000000 0.000000 
#    y 0.000000 1.836310 0.000000 
#    z 0.000000 0.000000 1.804240 
# 
# From -- ./inp_files/11887.got.cif
#   From: 2010.03.12/outbox.cif.g09.slc.cpg/sg62_6_cif.got.tgz:11887.got - 2010.04.10 19:12:36.
