data_PCOD8254061
_publ_section_title
;
Structure prediction by ZEFSAII (Michael W. Deem and Ramdas Pophale) SiO2 
 PCOD8254061
Probable space group: P N M A
;
_chemical_formula_sum "Si O2"
_cell_formula_units_Z 64
_cell_length_a 12.292204
_cell_length_b 12.395319
_cell_length_c 20.811085
_cell_angle_alpha 90.000000
_cell_angle_beta 90.000000
_cell_angle_gamma 90.000000
_cell_volume 3170.897402
_symmetry_space_group_name_H-M "P N M A"
_symmetry_group_IT_number 62
_symmetry_cell_setting 'orthorhombic'
loop_
_space_group_symop_operation_xyz
x,y,z
1/2-x,-y,1/2+z
1/2+x,1/2-y,1/2-z
-x,1/2+y,-z
-x,-y,-z
1/2+x,y,1/2-z
1/2-x,1/2+y,1/2+z
x,1/2-y,z
loop_
_atom_site_type_symbol
_atom_site_label
_atom_site_fract_x
_atom_site_fract_y
_atom_site_fract_z
Si Si1 0.465845 0.125966 0.410431
Si Si2 0.940316 0.525960 0.566388
Si Si3 0.077438 0.630766 0.206024
Si Si4 0.812034 0.983477 0.891071
Si Si5 0.328487 0.371962 0.841588
Si Si6 0.875056 0.493565 0.202918
Si Si7 0.115217 0.625219 0.662383
Si Si8 0.262517 0.374591 0.493864
O O1 0.495913 0.250000 0.417026
O O2 0.414111 0.106245 0.340497
O O3 0.376824 0.089936 0.462508
O O4 0.576467 0.060019 0.421641
O O5 0.894993 0.414348 0.596605
O O6 0.837987 0.603761 0.553553
O O7 0.000000 0.500000 0.500000
O O8 0.017777 0.586359 0.616775
O O9 0.092360 0.750000 0.176496
O O10 0.165260 0.552918 0.172876
O O11 0.089898 0.632659 0.282239
O O12 0.955859 0.593102 0.192342
O O13 0.731068 0.885960 0.873533
O O14 0.748022 0.057326 0.941573
O O15 0.284491 0.250000 0.856301
O O16 0.238230 0.459276 0.821776
O O17 0.877609 0.449964 0.275114
O O18 0.097022 0.750000 0.680768
O O19 0.264193 0.250000 0.512288
#
# Coordination Sequence:
#
# PCOD8254061 Si02
#       8
#     8   8   8   8   8   8   8   8
#     4  10  22  40  65  92 125 166 209 263 323 379
#     4  12  25  47  64  93 134 173 224 272 318 392
#     4  10  21  38  64  95 128 163 206 264 328 385
#     4  11  22  41  63  94 130 163 214 265 317 388
#     4  11  23  41  66  95 128 172 217 266 330 386
#     4  11  21  41  63  95 131 164 212 269 319 390
#     4  12  25  41  64  95 131 173 214 263 325 386
#     4  11  23  42  67  92 125 171 215 264 323 382
#
# _framework density 20.18356
#
# number of rings (size 3 to 8) (size 9 to 14) (size 15 to 20)
#    0.000    1.000    5.000    2.250    0.000    1.000 
#    0.000    1.250    0.000    0.000    0.000    0.000 
#    0.000    0.000    0.000    0.000    0.000    0.000 
#
# Total GULP energy -793591.377963 kJ/mol
# GULP energy per Si atom -12399.865281 kJ/mol
# Density = 2.013762 g / cm^3
# Si number density = 20.183560 Si / 1000 Ang^3
#
#
#
# Elastic Constant Matrix: (Units=GPa)
#
#
# Indices 1 2 3 4 5 6 
#
# 1 89.4980 50.3466 31.2050 0.0000 0.0000 0.0000
# 2 50.3466 97.6212 42.5726 0.0000 0.0000 0.0000
# 3 31.2050 42.5726 95.8034 0.0000 0.0000 0.0000
# 4 0.0000 0.0000 0.0000 27.8047 0.0000 0.0000
# 5 0.0000 0.0000 0.0000 0.0000 37.6855 0.0000
# 6 0.0000 0.0000 0.0000 0.0000 0.0000 27.0547
#
#
#
# Elastic Compliance Matrix: (Units=1/GPa)
#
#
# Indices 1 2 3 4 5 6 
#
# 1 0.016019 -0.007425 -0.001918 0.000000 0.000000 0.000000
# 2 -0.007425 0.016148 -0.004757 0.000000 0.000000 0.000000
# 3 -0.001918 -0.004757 0.013177 0.000000 0.000000 0.000000
# 4 0.000000 0.000000 0.000000 0.035965 0.000000 0.000000
# 5 0.000000 0.000000 0.000000 0.000000 0.026535 0.000000
# 6 0.000000 0.000000 0.000000 0.000000 0.000000 0.036962
#
#
# Mechanical properties :
#
#
# Convention : Reuss Voigt Hill
#
# Bulk Modulus (GPa) = 58.33373 59.01900 58.67637
# Shear Modulus (GPa) = 27.97652 29.09557 28.53604
#
# Velocity S-wave (km/s) = 3.72708 3.80089 3.76417
# Velocity P-wave (km/s) = 6.89100 6.96900 6.93011
#
# Compressibility (1/GPa) = 0.01714274
#
# Stress axis : x y z
#
# Youngs Moduli (GPa) = 62.42503 61.92857 75.89113
#
# Poissons Ratio (x) = 0.45983 0.14558
# Poissons Ratio (y) = 0.46351 0.36102
# Poissons Ratio (z) = 0.11974 0.29460
#
# Static dielectric constant tensor:
#      x y z
#    x 3.691540 0.000000 0.000000 
#    y 0.000000 3.635970 0.000000 
#    z 0.000000 0.000000 3.657500 
# 
# 
# High freq. dielectric constant tensor:
#      x y z
#    x 1.797260 0.000000 0.000000 
#    y 0.000000 1.788640 0.000000 
#    z 0.000000 0.000000 1.790430 
# 
# From -- ./inp_files/29479.got.cif
#   From: 2010.03.12/outbox.cif.g09.slc.cpg/sg62_15_cif.got.tgz:29479.got - 2010.04.10 19:12:36.
