data_PCOD8254772
_publ_section_title
;
Structure prediction by ZEFSAII (Michael W. Deem and Ramdas Pophale) SiO2 
 PCOD8254772
Probable space group: P N M A
;
_chemical_formula_sum "Si O2"
_cell_formula_units_Z 32
_cell_length_a 8.893657
_cell_length_b 8.333494
_cell_length_c 20.585296
_cell_angle_alpha 90.000000
_cell_angle_beta 90.000000
_cell_angle_gamma 90.000000
_cell_volume 1525.684097
_symmetry_space_group_name_H-M "P N M A"
_symmetry_group_IT_number 62
_symmetry_cell_setting 'orthorhombic'
loop_
_space_group_symop_operation_xyz
x,y,z
1/2-x,-y,1/2+z
1/2+x,1/2-y,1/2-z
-x,1/2+y,-z
-x,-y,-z
1/2+x,y,1/2-z
1/2-x,1/2+y,1/2+z
x,1/2-y,z
loop_
_atom_site_type_symbol
_atom_site_label
_atom_site_fract_x
_atom_site_fract_y
_atom_site_fract_z
Si Si1 0.081867 0.060644 0.563629
Si Si2 0.926162 0.434116 0.193489
Si Si3 0.099984 0.935831 0.311767
Si Si4 0.076607 0.940619 0.065060
O O1 0.083614 0.250000 0.562888
O O2 0.252110 0.996370 0.565857
O O3 0.994546 0.997788 0.627071
O O4 0.000000 0.000000 0.500000
O O5 0.962087 0.250000 0.209643
O O6 0.748276 0.458873 0.194227
O O7 0.001203 0.546824 0.247261
O O8 0.988805 0.478322 0.123509
O O9 0.143647 0.750000 0.320985
O O10 0.066322 0.750000 0.071129
O O11 0.000000 0.000000 0.000000
#
# Coordination Sequence:
#
# PCOD8254772 Si02
#       4
#     8   8   8   8
#     4  10  23  40  62  89 120 158 203 251 304 365
#     4  12  25  41  63  94 126 161 206 260 315 373
#     4  11  23  42  65  90 122 165 209 254 310 375
#     4  11  23  41  63  91 125 164 208 257 311 373
#
# _framework density 20.974197
#
# number of rings (size 3 to 8) (size 9 to 14) (size 15 to 20)
#    0.000    1.000    0.000    6.750    0.000   10.000 
#    0.000    0.000    0.000    0.000    0.000    0.000 
#    0.000    0.000    0.000    0.000    0.000    0.000 
#
# Total GULP energy -397043.641456 kJ/mol
# GULP energy per Si atom -12407.613795 kJ/mol
# Density = 2.092646 g / cm^3
# Si number density = 20.974197 Si / 1000 Ang^3
#
#
#
# Elastic Constant Matrix: (Units=GPa)
#
#
# Indices 1 2 3 4 5 6 
#
# 1 160.1177 15.7870 64.9636 0.0000 0.0000 0.0000
# 2 15.7870 56.4649 7.0832 0.0000 0.0000 0.0000
# 3 64.9636 7.0832 164.8178 0.0000 0.0000 0.0000
# 4 0.0000 0.0000 0.0000 33.8289 0.0000 0.0000
# 5 0.0000 0.0000 0.0000 0.0000 48.9156 0.0000
# 6 0.0000 0.0000 0.0000 0.0000 0.0000 35.0533
#
#
#
# Elastic Compliance Matrix: (Units=1/GPa)
#
#
# Indices 1 2 3 4 5 6 
#
# 1 0.007604 -0.001760 -0.002922 0.000000 0.000000 0.000000
# 2 -0.001760 0.018213 -0.000089 0.000000 0.000000 0.000000
# 3 -0.002922 -0.000089 0.007223 0.000000 0.000000 0.000000
# 4 0.000000 0.000000 0.000000 0.029561 0.000000 0.000000
# 5 0.000000 0.000000 0.000000 0.000000 0.020443 0.000000
# 6 0.000000 0.000000 0.000000 0.000000 0.000000 0.028528
#
#
# Mechanical properties :
#
#
# Convention : Reuss Voigt Hill
#
# Bulk Modulus (GPa) = 42.55415 61.89643 52.22529
# Shear Modulus (GPa) = 38.77590 43.13067 40.95329
#
# Velocity S-wave (km/s) = 4.30437 4.53964 4.42357
# Velocity P-wave (km/s) = 6.71091 7.55332 7.14454
#
# Compressibility (1/GPa) = 0.02349947
#
# Stress axis : x y z
#
# Youngs Moduli (GPa) = 131.50502 54.90500 138.45215
#
# Poissons Ratio (x) = 0.09661 0.40451
# Poissons Ratio (y) = 0.23139 0.01235
# Poissons Ratio (z) = 0.38421 0.00490
#
# Static dielectric constant tensor:
#      x y z
#    x 4.126770 0.000000 0.000000 
#    y 0.000000 3.738160 0.000000 
#    z 0.000000 0.000000 3.837460 
# 
# 
# High freq. dielectric constant tensor:
#      x y z
#    x 1.840950 0.000000 0.000000 
#    y 0.000000 1.821470 0.000000 
#    z 0.000000 0.000000 1.840370 
# 
# From -- ./inp_files/25535.got.cif
#   From: 2010.03.12/outbox.cif.g09.slc.cpg/sg62_13_cif.got.tgz:25535.got - 2010.04.10 19:12:36.
