data_PCOD8254060
_publ_section_title
;
Structure prediction by ZEFSAII (Michael W. Deem and Ramdas Pophale) SiO2 
 PCOD8254060
Probable space group: P N M A
;
_chemical_formula_sum "Si O2"
_cell_formula_units_Z 56
_cell_length_a 18.641511
_cell_length_b 13.406320
_cell_length_c 11.292942
_cell_angle_alpha 90.000000
_cell_angle_beta 90.000000
_cell_angle_gamma 90.000000
_cell_volume 2822.265004
_symmetry_space_group_name_H-M "P N M A"
_symmetry_group_IT_number 62
_symmetry_cell_setting 'orthorhombic'
loop_
_space_group_symop_operation_xyz
x,y,z
1/2-x,-y,1/2+z
1/2+x,1/2-y,1/2-z
-x,1/2+y,-z
-x,-y,-z
1/2+x,y,1/2-z
1/2-x,1/2+y,1/2+z
x,1/2-y,z
loop_
_atom_site_type_symbol
_atom_site_label
_atom_site_fract_x
_atom_site_fract_y
_atom_site_fract_z
Si Si1 0.579284 0.034189 0.976952
Si Si2 0.069567 0.367397 0.776038
Si Si3 0.689455 0.863286 0.952000
Si Si4 0.099906 0.362035 0.286462
Si Si5 0.325318 0.525980 0.459594
Si Si6 0.048317 0.518299 0.113095
Si Si7 0.260795 0.139510 0.299616
O O1 0.589302 0.082416 0.848552
O O2 0.629653 0.938351 0.000614
O O3 0.596854 0.117438 0.073782
O O4 0.500000 0.000000 0.000000
O O5 0.081662 0.250000 0.767494
O O6 0.122401 0.414819 0.872288
O O7 0.986526 0.388243 0.815805
O O8 0.674077 0.750000 0.996514
O O9 0.684581 0.867591 0.809770
O O10 0.768829 0.894063 0.992885
O O11 0.074756 0.250000 0.262406
O O12 0.046107 0.427674 0.207153
O O13 0.181704 0.380951 0.247196
O O14 0.370146 0.471317 0.565527
O O15 0.281252 0.438527 0.398845
O O16 0.000000 0.500000 0.000000
O O17 0.263694 0.250000 0.356913
#
# Coordination Sequence:
#
# PCOD8254060 Si02
#       7
#     8   8   8   8   8   8   8
#     4  12  24  42  63  90 130 169 210 262 313 375
#     4  11  24  42  62  92 130 171 212 259 319 379
#     4  11  23  40  66  94 125 168 212 259 320 381
#     4  11  22  40  66  93 124 168 210 255 320 383
#     4  11  21  41  69  95 129 162 211 268 321 378
#     4  10  23  40  62  93 126 165 208 262 311 371
#     4  10  21  38  64  95 125 161 207 260 316 379
#
# _framework density 19.842219
#
# number of rings (size 3 to 8) (size 9 to 14) (size 15 to 20)
#    0.000    1.143    5.714    0.857    0.000    4.000 
#    0.000    2.143    0.000    0.000    0.000    0.000 
#    0.000    0.000    0.000    0.000    0.000    0.000 
#
# Total GULP energy -694180.440929 kJ/mol
# GULP energy per Si atom -12396.079302 kJ/mol
# Density = 1.979706 g / cm^3
# Si number density = 19.842219 Si / 1000 Ang^3
#
#
#
# Elastic Constant Matrix: (Units=GPa)
#
#
# Indices 1 2 3 4 5 6 
#
# 1 83.7706 45.1221 26.1021 0.0000 0.0000 0.0000
# 2 45.1221 122.3834 42.9178 0.0000 0.0000 0.0000
# 3 26.1021 42.9178 93.6923 0.0000 0.0000 0.0000
# 4 0.0000 0.0000 0.0000 23.3840 0.0000 0.0000
# 5 0.0000 0.0000 0.0000 0.0000 33.4846 0.0000
# 6 0.0000 0.0000 0.0000 0.0000 0.0000 31.8110
#
#
#
# Elastic Compliance Matrix: (Units=1/GPa)
#
#
# Indices 1 2 3 4 5 6 
#
# 1 0.015200 -0.004907 -0.001987 0.000000 0.000000 0.000000
# 2 -0.004907 0.011319 -0.003818 0.000000 0.000000 0.000000
# 3 -0.001987 -0.003818 0.012976 0.000000 0.000000 0.000000
# 4 0.000000 0.000000 0.000000 0.042764 0.000000 0.000000
# 5 0.000000 0.000000 0.000000 0.000000 0.029864 0.000000
# 6 0.000000 0.000000 0.000000 0.000000 0.000000 0.031436
#
#
# Mechanical properties :
#
#
# Convention : Reuss Voigt Hill
#
# Bulk Modulus (GPa) = 55.33797 58.68115 57.00956
# Shear Modulus (GPa) = 29.23873 30.11621 29.67747
#
# Velocity S-wave (km/s) = 3.84286 3.90010 3.87159
# Velocity P-wave (km/s) = 6.90215 7.06535 6.98423
#
# Compressibility (1/GPa) = 0.01807077
#
# Stress axis : x y z
#
# Youngs Moduli (GPa) = 65.79098 88.34536 77.06801
#
# Poissons Ratio (x) = 0.43354 0.15310
# Poissons Ratio (y) = 0.32286 0.29423
# Poissons Ratio (z) = 0.13070 0.33729
#
# Static dielectric constant tensor:
#      x y z
#    x 3.752330 0.000000 0.000000 
#    y 0.000000 3.600480 0.000000 
#    z 0.000000 0.000000 4.058490 
# 
# 
# High freq. dielectric constant tensor:
#      x y z
#    x 1.776390 0.000000 0.000000 
#    y 0.000000 1.769020 0.000000 
#    z 0.000000 0.000000 1.782790 
# 
# From -- ./inp_files/14784.got.cif
#   From: 2010.03.12/outbox.cif.g09.slc.cpg/sg62_8_cif.got.tgz:14784.got - 2010.04.10 19:12:36.
