data_PCOD8254973
_publ_section_title
;
Structure prediction by ZEFSAII (Michael W. Deem and Ramdas Pophale) SiO2 
 PCOD8254973
Probable space group: P N M A
;
_chemical_formula_sum "Si O2"
_cell_formula_units_Z 64
_cell_length_a 20.740798
_cell_length_b 8.822291
_cell_length_c 19.596868
_cell_angle_alpha 90.000000
_cell_angle_beta 90.000000
_cell_angle_gamma 90.000000
_cell_volume 3585.861471
_symmetry_space_group_name_H-M "P N M A"
_symmetry_group_IT_number 62
_symmetry_cell_setting 'orthorhombic'
loop_
_space_group_symop_operation_xyz
x,y,z
1/2-x,-y,1/2+z
1/2+x,1/2-y,1/2-z
-x,1/2+y,-z
-x,-y,-z
1/2+x,y,1/2-z
1/2-x,1/2+y,1/2+z
x,1/2-y,z
loop_
_atom_site_type_symbol
_atom_site_label
_atom_site_fract_x
_atom_site_fract_y
_atom_site_fract_z
Si Si1 0.307126 0.428337 0.214689
Si Si2 0.188526 0.571557 0.295485
Si Si3 0.771179 0.578480 0.418597
Si Si4 0.381590 0.423749 0.582050
Si Si5 0.931087 0.070642 0.205768
Si Si6 0.074370 0.427612 0.214950
Si Si7 0.730826 0.071661 0.071853
Si Si8 0.124037 0.929981 0.932681
O O1 0.301034 0.250000 0.224641
O O2 0.247713 0.502048 0.254020
O O3 0.306273 0.468548 0.134764
O O4 0.374654 0.490844 0.245039
O O5 0.194576 0.750000 0.291375
O O6 0.121153 0.523096 0.262542
O O7 0.187055 0.516677 0.373758
O O8 0.792345 0.750000 0.402519
O O9 0.694920 0.563197 0.410647
O O10 0.793060 0.533536 0.495171
O O11 0.403335 0.250000 0.594714
O O12 0.414887 0.534699 0.635628
O O13 0.401986 0.484050 0.506624
O O14 0.926443 0.250000 0.201619
O O15 0.920907 0.008057 0.128361
O O16 0.001147 0.022861 0.233602
O O17 0.086188 0.250000 0.226770
O O18 0.725798 0.250000 0.086379
O O19 0.803627 0.011412 0.081315
O O20 0.128154 0.750000 0.936252
#
# Coordination Sequence:
#
# PCOD8254973 Si02
#       8
#     8   8   8   8   8   8   8   8
#     4  11  20  34  58  81 104 139 180 222 265 315
#     4  12  23  35  53  79 109 139 177 226 267 308
#     4   9  18  32  53  82 112 137 167 214 269 320
#     4   9  17  30  50  75 107 143 174 209 256 312
#     4   9  19  34  53  77 104 138 182 221 260 310
#     4  11  22  35  52  75 105 143 182 221 261 313
#     4   9  17  33  57  80 105 139 173 212 268 322
#     4   8  14  29  52  75 104 141 174 208 257 312
#
# _framework density 17.847873
#
# number of rings (size 3 to 8) (size 9 to 14) (size 15 to 20)
#    0.000    2.250    2.500    3.375    0.000    1.000 
#    0.000    4.375    0.000    0.750    0.000    0.000 
#    0.000    0.000    0.000    0.000    0.000    0.000 
#
# Total GULP energy -793417.408824 kJ/mol
# GULP energy per Si atom -12397.147013 kJ/mol
# Density = 1.780725 g / cm^3
# Si number density = 17.847873 Si / 1000 Ang^3
#
#
#
# Elastic Constant Matrix: (Units=GPa)
#
#
# Indices 1 2 3 4 5 6 
#
# 1 95.0443 31.2795 57.9005 0.0000 0.0000 0.0000
# 2 31.2795 63.3528 39.2632 0.0000 0.0000 0.0000
# 3 57.9005 39.2632 120.5377 0.0000 0.0000 0.0000
# 4 0.0000 0.0000 0.0000 31.3283 0.0000 0.0000
# 5 0.0000 0.0000 0.0000 0.0000 23.9790 0.0000
# 6 0.0000 0.0000 0.0000 0.0000 0.0000 9.5189
#
#
#
# Elastic Compliance Matrix: (Units=1/GPa)
#
#
# Indices 1 2 3 4 5 6 
#
# 1 0.015581 -0.003827 -0.006238 0.000000 0.000000 0.000000
# 2 -0.003827 0.020717 -0.004910 0.000000 0.000000 0.000000
# 3 -0.006238 -0.004910 0.012892 0.000000 0.000000 0.000000
# 4 0.000000 0.000000 0.000000 0.031920 0.000000 0.000000
# 5 0.000000 0.000000 0.000000 0.000000 0.041703 0.000000
# 6 0.000000 0.000000 0.000000 0.000000 0.000000 0.105055
#
#
# Mechanical properties :
#
#
# Convention : Reuss Voigt Hill
#
# Bulk Modulus (GPa) = 51.97382 59.53569 55.75475
# Shear Modulus (GPa) = 18.92288 22.99800 20.96044
#
# Velocity S-wave (km/s) = 3.25965 3.59354 3.43066
# Velocity P-wave (km/s) = 6.58413 7.11672 6.85560
#
# Compressibility (1/GPa) = 0.01924046
#
# Stress axis : x y z
#
# Youngs Moduli (GPa) = 64.18123 48.26928 77.56871
#
# Poissons Ratio (x) = 0.18473 0.48385
# Poissons Ratio (y) = 0.24562 0.38086
# Poissons Ratio (z) = 0.40034 0.23700
#
# Static dielectric constant tensor:
#      x y z
#    x 3.248890 0.000000 0.000000 
#    y 0.000000 3.071030 0.000000 
#    z 0.000000 0.000000 3.599680 
# 
# 
# High freq. dielectric constant tensor:
#      x y z
#    x 1.665470 0.000000 0.000000 
#    y 0.000000 1.669290 0.000000 
#    z 0.000000 0.000000 1.699860 
# 
# From -- ./inp_files/27890.got.cif
#   From: 2010.03.12/outbox.cif.g09.slc.cpg/sg62_14_cif.got.tgz:27890.got - 2010.04.10 19:12:36.
