data_PCOD8254055
_publ_section_title
;
Structure prediction by ZEFSAII (Michael W. Deem and Ramdas Pophale) SiO2 
 PCOD8254055
Probable space group: P N M A
;
_chemical_formula_sum "Si O2"
_cell_formula_units_Z 64
_cell_length_a 11.518012
_cell_length_b 29.763704
_cell_length_c 9.121748
_cell_angle_alpha 90.000000
_cell_angle_beta 90.000000
_cell_angle_gamma 90.000000
_cell_volume 3127.105790
_symmetry_space_group_name_H-M "P N M A"
_symmetry_group_IT_number 62
_symmetry_cell_setting 'orthorhombic'
loop_
_space_group_symop_operation_xyz
x,y,z
1/2-x,-y,1/2+z
1/2+x,1/2-y,1/2-z
-x,1/2+y,-z
-x,-y,-z
1/2+x,y,1/2-z
1/2-x,1/2+y,1/2+z
x,1/2-y,z
loop_
_atom_site_type_symbol
_atom_site_label
_atom_site_fract_x
_atom_site_fract_y
_atom_site_fract_z
Si Si1 0.184844 0.377676 0.907500
Si Si2 0.477531 0.545768 0.076145
Si Si3 0.408777 0.371647 0.094163
Si Si4 0.254856 0.411392 0.599275
Si Si5 0.004122 0.547426 0.085267
Si Si6 0.690046 0.843598 0.610505
Si Si7 0.916805 0.700485 0.671841
Si Si8 0.478594 0.801035 0.489713
O O1 0.252280 0.388419 0.758253
O O2 0.107520 0.421486 0.954439
O O3 0.282468 0.364267 0.023799
O O4 0.102122 0.333979 0.892222
O O5 0.339095 0.549489 0.088910
O O6 0.524951 0.542604 0.240672
O O7 0.500000 0.500000 0.000000
O O8 0.537442 0.583562 0.975994
O O9 0.382657 0.372331 0.268594
O O10 0.501973 0.331583 0.070534
O O11 0.379005 0.427664 0.539747
O O12 0.220599 0.375187 0.477287
O O13 0.000000 0.500000 0.000000
O O14 0.778332 0.807526 0.677351
O O15 0.609581 0.819985 0.486505
O O16 0.940961 0.750000 0.609472
O O17 0.950712 0.696876 0.839883
O O18 0.469796 0.750000 0.427950
#
# Coordination Sequence:
#
# PCOD8254055 Si02
#       8
#     8   8   8   8   8   8   8   8
#     4  11  23  44  66  90 135 173 211 268 330 396
#     4  11  26  43  64  97 132 165 222 274 324 396
#     4  11  23  40  64  96 131 174 213 271 332 382
#     4  11  24  43  68  90 132 172 210 268 329 388
#     4  11  26  43  68  97 127 172 216 268 333 393
#     4  11  21  39  67  94 127 170 218 271 325 387
#     4  10  21  38  64 100 130 165 221 275 325 388
#     4  10  21  38  64  96 128 171 220 268 322 386
#
# _framework density 20.466208999999999
#
# number of rings (size 3 to 8) (size 9 to 14) (size 15 to 20)
#    0.000    1.250    5.000    0.375    3.500    2.000 
#    0.000    1.250    0.000    0.000    0.000    0.000 
#    0.000    0.000    0.000    0.000    0.000    0.000 
#
# Total GULP energy -792962.341137 kJ/mol
# GULP energy per Si atom -12390.036580 kJ/mol
# Density = 2.041963 g / cm^3
# Si number density = 20.466209 Si / 1000 Ang^3
#
#
#
# Elastic Constant Matrix: (Units=GPa)
#
#
# Indices 1 2 3 4 5 6 
#
# 1 96.8932 37.4726 34.3412 0.0000 0.0000 0.0000
# 2 37.4726 146.2897 54.6564 0.0000 0.0000 0.0000
# 3 34.3412 54.6564 49.8015 0.0000 0.0000 0.0000
# 4 0.0000 0.0000 0.0000 30.3891 0.0000 0.0000
# 5 0.0000 0.0000 0.0000 0.0000 30.8126 0.0000
# 6 0.0000 0.0000 0.0000 0.0000 0.0000 27.1794
#
#
#
# Elastic Compliance Matrix: (Units=1/GPa)
#
#
# Indices 1 2 3 4 5 6 
#
# 1 0.013659 0.000034 -0.009456 0.000000 0.000000 0.000000
# 2 0.000034 0.011587 -0.012740 0.000000 0.000000 0.000000
# 3 -0.009456 -0.012740 0.040582 0.000000 0.000000 0.000000
# 4 0.000000 0.000000 0.000000 0.032906 0.000000 0.000000
# 5 0.000000 0.000000 0.000000 0.000000 0.032454 0.000000
# 6 0.000000 0.000000 0.000000 0.000000 0.000000 0.036793
#
#
# Mechanical properties :
#
#
# Convention : Reuss Voigt Hill
#
# Bulk Modulus (GPa) = 46.50274 60.65829 53.58051
# Shear Modulus (GPa) = 22.78177 28.77717 25.77947
#
# Velocity S-wave (km/s) = 3.34000 3.75384 3.55295
# Velocity P-wave (km/s) = 6.13556 6.96355 6.56263
#
# Compressibility (1/GPa) = 0.02150411
#
# Stress axis : x y z
#
# Youngs Moduli (GPa) = 73.21227 86.30452 24.64122
#
# Poissons Ratio (x) = -0.00296 0.23301
# Poissons Ratio (y) = -0.00251 0.31393
# Poissons Ratio (z) = 0.69231 1.09952
#
# Static dielectric constant tensor:
#      x y z
#    x 3.947070 0.000000 0.000000 
#    y 0.000000 3.849610 0.000000 
#    z 0.000000 0.000000 3.628660 
# 
# 
# High freq. dielectric constant tensor:
#      x y z
#    x 1.820160 0.000000 0.000000 
#    y 0.000000 1.798380 0.000000 
#    z 0.000000 0.000000 1.785630 
# 
# From -- ./inp_files/5534.got.cif
#   From: 2010.03.12/outbox.cif.g09.slc.cpg/sg62_3_cif.got.tgz:5534.got - 2010.04.10 19:12:36.
