data_PCOD8254577
_publ_section_title
;
Structure prediction by ZEFSAII (Michael W. Deem and Ramdas Pophale) SiO2 
 PCOD8254577
Probable space group: P N M A
;
_chemical_formula_sum "Si O2"
_cell_formula_units_Z 48
_cell_length_a 9.998940
_cell_length_b 16.173604
_cell_length_c 13.701392
_cell_angle_alpha 90.000000
_cell_angle_beta 90.000000
_cell_angle_gamma 90.000000
_cell_volume 2215.773988
_symmetry_space_group_name_H-M "P N M A"
_symmetry_group_IT_number 62
_symmetry_cell_setting 'orthorhombic'
loop_
_space_group_symop_operation_xyz
x,y,z
1/2-x,-y,1/2+z
1/2+x,1/2-y,1/2-z
-x,1/2+y,-z
-x,-y,-z
1/2+x,y,1/2-z
1/2-x,1/2+y,1/2+z
x,1/2-y,z
loop_
_atom_site_type_symbol
_atom_site_label
_atom_site_fract_x
_atom_site_fract_y
_atom_site_fract_z
Si Si1 0.985499 0.846608 0.656653
Si Si2 0.117397 0.845730 0.328391
Si Si3 0.177626 0.345567 0.674509
Si Si4 0.272794 0.396617 0.033191
Si Si5 0.001510 0.844901 0.881325
Si Si6 0.742624 0.084654 0.024686
O O1 0.959517 0.750000 0.635763
O O2 0.968599 0.867825 0.770083
O O3 0.879101 0.901245 0.598377
O O4 0.133913 0.872550 0.624233
O O5 0.103561 0.750000 0.302310
O O6 0.221181 0.888270 0.252395
O O7 0.168571 0.854263 0.437577
O O8 0.970076 0.887300 0.317582
O O9 0.164561 0.250000 0.701142
O O10 0.235164 0.352733 0.565752
O O11 0.127200 0.359547 0.052074
O O12 0.266310 0.494139 0.020423
O O13 0.048743 0.750000 0.889258
O O14 0.119100 0.903635 0.918877
#
# Coordination Sequence:
#
# PCOD8254577 Si02
#       6
#     8   8   8   8   8   8
#     4  11  23  44  71  97 129 177 228 269 320 388
#     4  10  22  40  64  92 125 171 219 262 313 380
#     4  10  22  40  64  92 125 171 219 262 313 380
#     4  12  25  43  64 100 135 170 212 269 339 390
#     4  11  25  44  71  99 129 173 224 275 322 390
#     4  12  25  43  64 100 135 170 212 269 339 390
#
# _framework density 21.662859999999998
#
# number of rings (size 3 to 8) (size 9 to 14) (size 15 to 20)
#    0.000    1.000    1.667    5.000    2.333    5.333 
#    0.000    0.000    0.000    0.000    0.000    0.000 
#    0.000    0.000    0.000    0.000    0.000    0.000 
#
# Total GULP energy -595451.151011 kJ/mol
# GULP energy per Si atom -12405.232313 kJ/mol
# Density = 2.161355 g / cm^3
# Si number density = 21.662860 Si / 1000 Ang^3
#
#
#
# Elastic Constant Matrix: (Units=GPa)
#
#
# Indices 1 2 3 4 5 6 
#
# 1 111.5487 15.0955 44.4214 0.0000 0.0000 0.0000
# 2 15.0955 42.1050 21.9842 0.0000 0.0000 0.0000
# 3 44.4214 21.9842 109.5816 0.0000 0.0000 0.0000
# 4 0.0000 0.0000 0.0000 34.0521 0.0000 0.0000
# 5 0.0000 0.0000 0.0000 0.0000 46.4575 0.0000
# 6 0.0000 0.0000 0.0000 0.0000 0.0000 21.3445
#
#
#
# Elastic Compliance Matrix: (Units=1/GPa)
#
#
# Indices 1 2 3 4 5 6 
#
# 1 0.010808 -0.001773 -0.004025 0.000000 0.000000 0.000000
# 2 -0.001773 0.026820 -0.004662 0.000000 0.000000 0.000000
# 3 -0.004025 -0.004662 0.011693 0.000000 0.000000 0.000000
# 4 0.000000 0.000000 0.000000 0.029367 0.000000 0.000000
# 5 0.000000 0.000000 0.000000 0.000000 0.021525 0.000000
# 6 0.000000 0.000000 0.000000 0.000000 0.000000 0.046850
#
#
# Mechanical properties :
#
#
# Convention : Reuss Voigt Hill
#
# Bulk Modulus (GPa) = 35.21169 47.35974 41.28571
# Shear Modulus (GPa) = 28.17700 32.48642 30.33171
#
# Velocity S-wave (km/s) = 3.61044 3.87672 3.74595
# Velocity P-wave (km/s) = 5.80259 6.47674 6.14891
#
# Compressibility (1/GPa) = 0.02839966
#
# Stress axis : x y z
#
# Youngs Moduli (GPa) = 92.52704 37.28573 85.52357
#
# Poissons Ratio (x) = 0.06611 0.34427
# Poissons Ratio (y) = 0.16405 0.39870
# Poissons Ratio (z) = 0.37246 0.17382
#
# Static dielectric constant tensor:
#      x y z
#    x 4.307800 0.000000 0.000000 
#    y 0.000000 3.702120 0.000000 
#    z 0.000000 0.000000 3.941470 
# 
# 
# High freq. dielectric constant tensor:
#      x y z
#    x 1.868350 0.000000 0.000000 
#    y 0.000000 1.835960 0.000000 
#    z 0.000000 0.000000 1.861200 
# 
# From -- ./inp_files/16955.got.cif
#   From: 2010.03.12/outbox.cif.g09.slc.cpg/sg62_9_cif.got.tgz:16955.got - 2010.04.10 19:12:36.
