data_PCOD8254221
_publ_section_title
;
Structure prediction by ZEFSAII (Michael W. Deem and Ramdas Pophale) SiO2 
 PCOD8254221
Probable space group: P N M A
;
_chemical_formula_sum "Si O2"
_cell_formula_units_Z 40
_cell_length_a 22.847615
_cell_length_b 8.747724
_cell_length_c 10.257012
_cell_angle_alpha 90.000000
_cell_angle_beta 90.000000
_cell_angle_gamma 90.000000
_cell_volume 2050.013909
_symmetry_space_group_name_H-M "P N M A"
_symmetry_group_IT_number 62
_symmetry_cell_setting 'orthorhombic'
loop_
_space_group_symop_operation_xyz
x,y,z
1/2-x,-y,1/2+z
1/2+x,1/2-y,1/2-z
-x,1/2+y,-z
-x,-y,-z
1/2+x,y,1/2-z
1/2-x,1/2+y,1/2+z
x,1/2-y,z
loop_
_atom_site_type_symbol
_atom_site_label
_atom_site_fract_x
_atom_site_fract_y
_atom_site_fract_z
Si Si1 0.694010 0.931159 0.507719
Si Si2 0.503774 0.073570 0.641010
Si Si3 0.382242 0.431095 0.252902
Si Si4 0.875412 0.073171 0.755187
Si Si5 0.173184 0.429880 0.499267
O O1 0.691943 0.750000 0.513361
O O2 0.660169 0.996928 0.633796
O O3 0.661856 0.988904 0.377634
O O4 0.760333 0.991311 0.508987
O O5 0.519164 0.250000 0.622343
O O6 0.443459 0.050926 0.716815
O O7 0.500000 0.000000 0.500000
O O8 0.552847 0.994511 0.728370
O O9 0.385072 0.250000 0.258109
O O10 0.358958 0.483190 0.114354
O O11 0.860481 0.250000 0.725532
O O12 0.859540 0.967958 0.633880
O O13 0.171047 0.250000 0.525755
#
# Coordination Sequence:
#
# PCOD8254221 Si02
#       5
#     8   8   8   8   8
#     4   9  19  38  62  87 119 156 198 244 292 349
#     4  11  22  39  64  90 117 153 200 248 296 355
#     4  11  22  40  63  88 121 160 197 245 302 353
#     4  10  21  40  62  85 118 158 194 239 297 352
#     4  11  23  38  58  90 124 155 198 246 292 352
#
# _framework density 19.512060999999999
#
# number of rings (size 3 to 8) (size 9 to 14) (size 15 to 20)
#    0.000    1.600    2.000    3.000    0.000    2.400 
#    0.000    4.000    0.000    0.000    0.000    0.000 
#    0.000    0.000    0.000    0.000    0.000    0.000 
#
# Total GULP energy -496201.722901 kJ/mol
# GULP energy per Si atom -12405.043073 kJ/mol
# Density = 1.946765 g / cm^3
# Si number density = 19.512061 Si / 1000 Ang^3
#
#
#
# Elastic Constant Matrix: (Units=GPa)
#
#
# Indices 1 2 3 4 5 6 
#
# 1 131.7335 49.3760 62.9221 0.0000 0.0000 0.0000
# 2 49.3760 72.0301 32.8582 0.0000 0.0000 0.0000
# 3 62.9221 32.8582 134.7031 0.0000 0.0000 0.0000
# 4 0.0000 0.0000 0.0000 22.6177 0.0000 0.0000
# 5 0.0000 0.0000 0.0000 0.0000 53.9862 0.0000
# 6 0.0000 0.0000 0.0000 0.0000 0.0000 28.4231
#
#
#
# Elastic Compliance Matrix: (Units=1/GPa)
#
#
# Indices 1 2 3 4 5 6 
#
# 1 0.011869 -0.006309 -0.004005 0.000000 0.000000 0.000000
# 2 -0.006309 0.018975 -0.001682 0.000000 0.000000 0.000000
# 3 -0.004005 -0.001682 0.009705 0.000000 0.000000 0.000000
# 4 0.000000 0.000000 0.000000 0.044213 0.000000 0.000000
# 5 0.000000 0.000000 0.000000 0.000000 0.018523 0.000000
# 6 0.000000 0.000000 0.000000 0.000000 0.000000 0.035183
#
#
# Mechanical properties :
#
#
# Convention : Reuss Voigt Hill
#
# Bulk Modulus (GPa) = 60.39672 69.86435 65.13054
# Shear Modulus (GPa) = 29.76579 33.89275 31.82927
#
# Velocity S-wave (km/s) = 3.91001 4.17227 4.04327
# Velocity P-wave (km/s) = 7.16973 7.68726 7.43300
#
# Compressibility (1/GPa) = 0.01655719
#
# Stress axis : x y z
#
# Youngs Moduli (GPa) = 84.25413 52.70133 103.04162
#
# Poissons Ratio (x) = 0.33249 0.41270
# Poissons Ratio (y) = 0.53155 0.17327
# Poissons Ratio (z) = 0.33746 0.08862
#
# Static dielectric constant tensor:
#      x y z
#    x 3.850200 0.000000 0.000000 
#    y 0.000000 3.464840 0.000000 
#    z 0.000000 0.000000 3.566300 
# 
# 
# High freq. dielectric constant tensor:
#      x y z
#    x 1.776520 0.000000 0.000000 
#    y 0.000000 1.748820 0.000000 
#    z 0.000000 0.000000 1.768850 
# 
# From -- ./inp_files/9085.got.cif
#   From: 2010.03.12/outbox.cif.g09.slc.cpg/sg62_5_cif.got.tgz:9085.got - 2010.04.10 19:12:36.
