data_PCOD8254614
_publ_section_title
;
Structure prediction by ZEFSAII (Michael W. Deem and Ramdas Pophale) SiO2 
 PCOD8254614
Probable space group: P N M A
;
_chemical_formula_sum "Si O2"
_cell_formula_units_Z 40
_cell_length_a 12.159382
_cell_length_b 13.527979
_cell_length_c 11.953674
_cell_angle_alpha 90.000000
_cell_angle_beta 90.000000
_cell_angle_gamma 90.000000
_cell_volume 1966.282122
_symmetry_space_group_name_H-M "P N M A"
_symmetry_group_IT_number 62
_symmetry_cell_setting 'orthorhombic'
loop_
_space_group_symop_operation_xyz
x,y,z
1/2-x,-y,1/2+z
1/2+x,1/2-y,1/2-z
-x,1/2+y,-z
-x,-y,-z
1/2+x,y,1/2-z
1/2-x,1/2+y,1/2+z
x,1/2-y,z
loop_
_atom_site_type_symbol
_atom_site_label
_atom_site_fract_x
_atom_site_fract_y
_atom_site_fract_z
Si Si1 0.264717 0.861967 0.379805
Si Si2 0.210434 0.026819 0.664388
Si Si3 0.109164 0.465741 0.444639
Si Si4 0.419074 0.933083 0.570492
Si Si5 0.968161 0.138831 0.279483
O O1 0.220971 0.750000 0.372820
O O2 0.350792 0.867859 0.481797
O O3 0.316184 0.893054 0.260182
O O4 0.164530 0.936922 0.393495
O O5 0.337744 0.994056 0.653252
O O6 0.134205 0.931087 0.689021
O O7 0.184007 0.078238 0.544487
O O8 0.079139 0.385557 0.350591
O O9 0.000000 0.500000 0.500000
O O10 0.497718 0.867406 0.649312
O O11 0.500000 0.000000 0.500000
O O12 0.929915 0.250000 0.306309
#
# Coordination Sequence:
#
# PCOD8254614 Si02
#       5
#     8   8   8   8   8
#     4  11  22  40  66  94 127 169 207 253 319 378
#     4  10  22  41  62  92 132 162 204 269 311 372
#     4   9  21  39  61  91 126 160 206 258 301 367
#     4  11  22  41  65  91 130 165 211 265 315 372
#     4  11  22  40  67  94 124 168 212 255 316 377
#
# _framework density 20.342960999999999
#
# number of rings (size 3 to 8) (size 9 to 14) (size 15 to 20)
#    0.000    1.600    4.000    0.600    0.000    8.800 
#    0.000    9.000    0.000    0.000    0.000    0.000 
#    0.000    0.000    0.000    0.000    0.000    0.000 
#
# Total GULP energy -495672.230835 kJ/mol
# GULP energy per Si atom -12391.805771 kJ/mol
# Density = 2.029666 g / cm^3
# Si number density = 20.342961 Si / 1000 Ang^3
#
#
#
# Elastic Constant Matrix: (Units=GPa)
#
#
# Indices 1 2 3 4 5 6 
#
# 1 81.9006 24.9824 23.5951 0.0000 0.0000 0.0000
# 2 24.9824 89.1363 47.8639 0.0000 0.0000 0.0000
# 3 23.5951 47.8639 122.1541 0.0000 0.0000 0.0000
# 4 0.0000 0.0000 0.0000 18.4259 0.0000 0.0000
# 5 0.0000 0.0000 0.0000 0.0000 32.6048 0.0000
# 6 0.0000 0.0000 0.0000 0.0000 0.0000 28.4646
#
#
#
# Elastic Compliance Matrix: (Units=1/GPa)
#
#
# Indices 1 2 3 4 5 6 
#
# 1 0.013546 -0.003029 -0.001430 0.000000 0.000000 0.000000
# 2 -0.003029 0.014885 -0.005248 0.000000 0.000000 0.000000
# 3 -0.001430 -0.005248 0.010519 0.000000 0.000000 0.000000
# 4 0.000000 0.000000 0.000000 0.054271 0.000000 0.000000
# 5 0.000000 0.000000 0.000000 0.000000 0.030670 0.000000
# 6 0.000000 0.000000 0.000000 0.000000 0.000000 0.035131
#
#
# Mechanical properties :
#
#
# Convention : Reuss Voigt Hill
#
# Bulk Modulus (GPa) = 51.18285 54.00819 52.59552
# Shear Modulus (GPa) = 27.03468 29.01569 28.02518
#
# Velocity S-wave (km/s) = 3.64942 3.78077 3.71568
# Velocity P-wave (km/s) = 6.55533 6.75762 6.65724
#
# Compressibility (1/GPa) = 0.01953780
#
# Stress axis : x y z
#
# Youngs Moduli (GPa) = 73.82423 67.17959 95.06867
#
# Poissons Ratio (x) = 0.20347 0.13592
# Poissons Ratio (y) = 0.22360 0.49888
# Poissons Ratio (z) = 0.10555 0.35253
#
# Static dielectric constant tensor:
#      x y z
#    x 4.224020 0.000000 0.000000 
#    y 0.000000 3.453560 0.000000 
#    z 0.000000 0.000000 5.727500 
# 
# 
# High freq. dielectric constant tensor:
#      x y z
#    x 1.794050 0.000000 0.000000 
#    y 0.000000 1.757480 0.000000 
#    z 0.000000 0.000000 1.826890 
# 
# From -- ./inp_files/12064.got.cif
#   From: 2010.03.12/outbox.cif.g09.slc.cpg/sg62_7_cif.got.tgz:12064.got - 2010.04.10 19:12:36.
