data_PCOD8254502
_publ_section_title
;
Structure prediction by ZEFSAII (Michael W. Deem and Ramdas Pophale) SiO2 
 PCOD8254502
Probable space group: P N M A
;
_chemical_formula_sum "Si O2"
_cell_formula_units_Z 48
_cell_length_a 13.817031
_cell_length_b 8.869460
_cell_length_c 20.098902
_cell_angle_alpha 90.000000
_cell_angle_beta 90.000000
_cell_angle_gamma 90.000000
_cell_volume 2463.112476
_symmetry_space_group_name_H-M "P N M A"
_symmetry_group_IT_number 62
_symmetry_cell_setting 'orthorhombic'
loop_
_space_group_symop_operation_xyz
x,y,z
1/2-x,-y,1/2+z
1/2+x,1/2-y,1/2-z
-x,1/2+y,-z
-x,-y,-z
1/2+x,y,1/2-z
1/2-x,1/2+y,1/2+z
x,1/2-y,z
loop_
_atom_site_type_symbol
_atom_site_label
_atom_site_fract_x
_atom_site_fract_y
_atom_site_fract_z
Si Si1 0.256995 0.426425 0.738284
Si Si2 0.920243 0.420958 0.320291
Si Si3 0.053441 0.420187 0.195572
Si Si4 0.245854 0.071942 0.890721
Si Si5 0.446065 0.427341 0.438450
Si Si6 0.041575 0.572310 0.433957
O O1 0.236802 0.250000 0.732530
O O2 0.187146 0.514159 0.687934
O O3 0.365029 0.461014 0.714843
O O4 0.243472 0.482266 0.814100
O O5 0.914727 0.250000 0.347051
O O6 0.978939 0.521148 0.371586
O O7 0.968247 0.430252 0.248507
O O8 0.095799 0.250000 0.192754
O O9 0.008465 0.470321 0.125876
O O10 0.231584 0.250000 0.895314
O O11 0.347540 0.021627 0.923155
O O12 0.161935 0.992201 0.932452
O O13 0.500000 0.500000 0.500000
O O14 0.437957 0.250000 0.448700
O O15 0.033866 0.750000 0.440006
O O16 0.000000 0.500000 0.500000
#
# Coordination Sequence:
#
# PCOD8254502 Si02
#       6
#     8   8   8   8   8   8
#     4  11  22  37  63  95 125 161 206 259 311 366
#     4  11  22  39  63  92 124 162 206 257 307 366
#     4  10  22  39  61  90 123 159 204 253 305 365
#     4  10  22  40  63  90 123 161 203 254 312 370
#     4  11  24  42  64  92 125 164 207 254 309 370
#     4  11  24  43  64  93 128 167 209 257 313 372
#
# _framework density 19.487539000000002
#
# number of rings (size 3 to 8) (size 9 to 14) (size 15 to 20)
#    0.000    1.333    3.333    2.000    0.000    5.333 
#    0.000    1.667    0.000    0.000    0.000    0.000 
#    0.000    0.000    0.000    0.000    0.000    0.000 
#
# Total GULP energy -595461.887458 kJ/mol
# GULP energy per Si atom -12405.455989 kJ/mol
# Density = 1.944318 g / cm^3
# Si number density = 19.487539 Si / 1000 Ang^3
#
#
#
# Elastic Constant Matrix: (Units=GPa)
#
#
# Indices 1 2 3 4 5 6 
#
# 1 119.5536 49.1177 42.0864 0.0000 0.0000 0.0000
# 2 49.1177 60.4303 37.0582 0.0000 0.0000 0.0000
# 3 42.0864 37.0582 113.3060 0.0000 0.0000 0.0000
# 4 0.0000 0.0000 0.0000 35.5368 0.0000 0.0000
# 5 0.0000 0.0000 0.0000 0.0000 35.3889 0.0000
# 6 0.0000 0.0000 0.0000 0.0000 0.0000 39.5489
#
#
#
# Elastic Compliance Matrix: (Units=1/GPa)
#
#
# Indices 1 2 3 4 5 6 
#
# 1 0.012812 -0.009376 -0.001692 0.000000 0.000000 0.000000
# 2 -0.009376 0.027561 -0.005532 0.000000 0.000000 0.000000
# 3 -0.001692 -0.005532 0.011263 0.000000 0.000000 0.000000
# 4 0.000000 0.000000 0.000000 0.028140 0.000000 0.000000
# 5 0.000000 0.000000 0.000000 0.000000 0.028257 0.000000
# 6 0.000000 0.000000 0.000000 0.000000 0.000000 0.025285
#
#
# Mechanical properties :
#
#
# Convention : Reuss Voigt Hill
#
# Bulk Modulus (GPa) = 54.23950 61.09051 57.66501
# Shear Modulus (GPa) = 28.95786 33.09673 31.02730
#
# Velocity S-wave (km/s) = 3.85901 4.12558 3.99452
# Velocity P-wave (km/s) = 6.91008 7.35598 7.13651
#
# Compressibility (1/GPa) = 0.01843675
#
# Stress axis : x y z
#
# Youngs Moduli (GPa) = 78.05006 36.28329 88.78250
#
# Poissons Ratio (x) = 0.34019 0.15026
# Poissons Ratio (y) = 0.73179 0.49110
# Poissons Ratio (z) = 0.13210 0.20070
#
# Static dielectric constant tensor:
#      x y z
#    x 3.590860 0.000000 0.000000 
#    y 0.000000 3.517640 0.000000 
#    z 0.000000 0.000000 3.631520 
# 
# 
# High freq. dielectric constant tensor:
#      x y z
#    x 1.770040 0.000000 0.000000 
#    y 0.000000 1.765710 0.000000 
#    z 0.000000 0.000000 1.759710 
# 
# From -- ./inp_files/29259.got.cif
#   From: 2010.03.12/outbox.cif.g09.slc.cpg/sg62_15_cif.got.tgz:29259.got - 2010.04.10 19:12:36.
