data_PCOD8254558
_publ_section_title
;
Structure prediction by ZEFSAII (Michael W. Deem and Ramdas Pophale) SiO2 
 PCOD8254558
Probable space group: P N M A
;
_chemical_formula_sum "Si O2"
_cell_formula_units_Z 48
_cell_length_a 28.555323
_cell_length_b 8.811834
_cell_length_c 9.470594
_cell_angle_alpha 90.000000
_cell_angle_beta 90.000000
_cell_angle_gamma 90.000000
_cell_volume 2383.036000
_symmetry_space_group_name_H-M "P N M A"
_symmetry_group_IT_number 62
_symmetry_cell_setting 'orthorhombic'
loop_
_space_group_symop_operation_xyz
x,y,z
1/2-x,-y,1/2+z
1/2+x,1/2-y,1/2-z
-x,1/2+y,-z
-x,-y,-z
1/2+x,y,1/2-z
1/2-x,1/2+y,1/2+z
x,1/2-y,z
loop_
_atom_site_type_symbol
_atom_site_label
_atom_site_fract_x
_atom_site_fract_y
_atom_site_fract_z
Si Si1 0.036233 0.928911 0.105957
Si Si2 0.870727 0.926405 0.996595
Si Si3 0.701458 0.927220 0.988230
Si Si4 0.784478 0.573699 0.792983
Si Si5 0.013846 0.929319 0.645227
Si Si6 0.380422 0.427414 0.214614
O O1 0.029609 0.750000 0.110661
O O2 0.088191 0.967967 0.059752
O O3 0.025856 0.002174 0.255604
O O4 0.000000 0.000000 0.000000
O O5 0.885102 0.750000 0.994005
O O6 0.827302 0.960438 0.896443
O O7 0.858831 0.976537 0.156311
O O8 0.710328 0.750000 0.007931
O O9 0.738774 0.991382 0.873826
O O10 0.649713 0.962084 0.926403
O O11 0.707560 0.998147 0.141827
O O12 0.778291 0.750000 0.762134
O O13 0.009790 0.750000 0.641173
O O14 0.066149 0.979372 0.689400
O O15 0.000000 0.000000 0.500000
O O16 0.377685 0.250000 0.253176
#
# Coordination Sequence:
#
# PCOD8254558 Si02
#       6
#     8   8   8   8   8   8
#     4  12  24  41  64  91 123 164 209 256 306 366
#     4  11  23  39  62  92 124 162 206 253 307 367
#     4  10  22  41  64  91 124 160 202 250 305 368
#     4  10  23  41  62  93 126 157 201 252 303 364
#     4  11  24  41  61  90 127 166 208 255 306 365
#     4  10  22  40  62  89 121 162 208 252 303 366
#
# _framework density 20.142374
#
# number of rings (size 3 to 8) (size 9 to 14) (size 15 to 20)
#    0.000    1.333    1.667    3.500    2.333    3.333 
#    0.000    0.000    0.000    0.000    0.000    0.000 
#    0.000    0.000    0.000    0.000    0.000    0.000 
#
# Total GULP energy -595298.511118 kJ/mol
# GULP energy per Si atom -12402.052315 kJ/mol
# Density = 2.009653 g / cm^3
# Si number density = 20.142374 Si / 1000 Ang^3
#
#
#
# Elastic Constant Matrix: (Units=GPa)
#
#
# Indices 1 2 3 4 5 6 
#
# 1 79.9495 34.5701 36.7587 0.0000 0.0000 0.0000
# 2 34.5701 78.8585 54.3181 0.0000 0.0000 0.0000
# 3 36.7587 54.3181 161.3236 0.0000 0.0000 0.0000
# 4 0.0000 0.0000 0.0000 43.1620 0.0000 0.0000
# 5 0.0000 0.0000 0.0000 0.0000 36.5500 0.0000
# 6 0.0000 0.0000 0.0000 0.0000 0.0000 27.4403
#
#
#
# Elastic Compliance Matrix: (Units=1/GPa)
#
#
# Indices 1 2 3 4 5 6 
#
# 1 0.015762 -0.005776 -0.001647 0.000000 0.000000 0.000000
# 2 -0.005776 0.018626 -0.004955 0.000000 0.000000 0.000000
# 3 -0.001647 -0.004955 0.008243 0.000000 0.000000 0.000000
# 4 0.000000 0.000000 0.000000 0.023169 0.000000 0.000000
# 5 0.000000 0.000000 0.000000 0.000000 0.027360 0.000000
# 6 0.000000 0.000000 0.000000 0.000000 0.000000 0.036443
#
#
# Mechanical properties :
#
#
# Convention : Reuss Voigt Hill
#
# Bulk Modulus (GPa) = 55.94341 63.49172 59.71757
# Shear Modulus (GPa) = 31.18829 34.39611 32.79220
#
# Velocity S-wave (km/s) = 3.93923 4.13685 4.03925
# Velocity P-wave (km/s) = 6.96594 7.37618 7.17399
#
# Compressibility (1/GPa) = 0.01787521
#
# Stress axis : x y z
#
# Youngs Moduli (GPa) = 63.44190 53.68783 121.32211
#
# Poissons Ratio (x) = 0.31008 0.19981
# Poissons Ratio (y) = 0.36641 0.60121
# Poissons Ratio (z) = 0.10449 0.26605
#
# Static dielectric constant tensor:
#      x y z
#    x 3.610230 0.000000 0.000000 
#    y 0.000000 3.311370 0.000000 
#    z 0.000000 0.000000 3.666000 
# 
# 
# High freq. dielectric constant tensor:
#      x y z
#    x 1.797470 0.000000 0.000000 
#    y 0.000000 1.785150 0.000000 
#    z 0.000000 0.000000 1.802420 
# 
# From -- ./inp_files/10279.got.cif
#   From: 2010.03.12/outbox.cif.g09.slc.cpg/sg62_6_cif.got.tgz:10279.got - 2010.04.10 19:12:36.
