data_PCOD8254791
_publ_section_title
;
Structure prediction by ZEFSAII (Michael W. Deem and Ramdas Pophale) SiO2 
 PCOD8254791
Probable space group: P N M A
;
_chemical_formula_sum "Si O2"
_cell_formula_units_Z 48
_cell_length_a 17.724079
_cell_length_b 8.603712
_cell_length_c 15.133384
_cell_angle_alpha 90.000000
_cell_angle_beta 90.000000
_cell_angle_gamma 90.000000
_cell_volume 2307.733177
_symmetry_space_group_name_H-M "P N M A"
_symmetry_group_IT_number 62
_symmetry_cell_setting 'orthorhombic'
loop_
_space_group_symop_operation_xyz
x,y,z
1/2-x,-y,1/2+z
1/2+x,1/2-y,1/2-z
-x,1/2+y,-z
-x,-y,-z
1/2+x,y,1/2-z
1/2-x,1/2+y,1/2+z
x,1/2-y,z
loop_
_atom_site_type_symbol
_atom_site_label
_atom_site_fract_x
_atom_site_fract_y
_atom_site_fract_z
Si Si1 0.037986 0.927126 0.260675
Si Si2 0.283236 0.433239 0.095172
Si Si3 0.047226 0.429086 0.921248
Si Si4 0.953358 0.431026 0.420204
Si Si5 0.791321 0.431902 0.071864
Si Si6 0.710568 0.932053 0.235269
O O1 0.033555 0.750000 0.294490
O O2 0.124014 0.983361 0.255815
O O3 0.003124 0.946658 0.164911
O O4 0.992415 0.033633 0.327623
O O5 0.276805 0.250000 0.079609
O O6 0.368076 0.496040 0.079793
O O7 0.259857 0.472572 0.194887
O O8 0.227844 0.521845 0.028387
O O9 0.067324 0.250000 0.940873
O O10 0.122725 0.526567 0.907500
O O11 0.000000 0.500000 0.000000
O O12 0.950261 0.250000 0.434650
O O13 0.000000 0.500000 0.500000
O O14 0.778823 0.250000 0.086171
O O15 0.737102 0.526889 0.136927
O O16 0.721417 0.750000 0.253195
#
# Coordination Sequence:
#
# PCOD8254791 Si02
#       6
#     8   8   8   8   8   8
#     4  10  23  41  62  89 122 158 200 247 301 362
#     4  11  24  42  63  91 123 159 205 257 308 365
#     4  11  23  41  65  93 125 163 205 255 309 365
#     4  11  24  40  62  90 121 157 200 248 302 361
#     4  12  25  41  62  91 125 165 209 253 305 367
#     4  11  23  41  64  92 124 160 203 254 308 368
#
# _framework density 20.799630000000001
#
# number of rings (size 3 to 8) (size 9 to 14) (size 15 to 20)
#    0.000    1.000    0.000    6.500    0.000   13.333 
#    0.000    0.000    0.000    0.000    0.000    0.000 
#    0.000    0.000    0.000    0.000    0.000    0.000 
#
# Total GULP energy -595612.105657 kJ/mol
# GULP energy per Si atom -12408.585535 kJ/mol
# Density = 2.075229 g / cm^3
# Si number density = 20.799630 Si / 1000 Ang^3
#
#
#
# Elastic Constant Matrix: (Units=GPa)
#
#
# Indices 1 2 3 4 5 6 
#
# 1 125.7374 45.8867 24.4220 0.0000 0.0000 0.0000
# 2 45.8867 56.9947 21.4367 0.0000 0.0000 0.0000
# 3 24.4220 21.4367 90.4362 0.0000 0.0000 0.0000
# 4 0.0000 0.0000 0.0000 42.3723 0.0000 0.0000
# 5 0.0000 0.0000 0.0000 0.0000 42.1122 0.0000
# 6 0.0000 0.0000 0.0000 0.0000 0.0000 33.3708
#
#
#
# Elastic Compliance Matrix: (Units=1/GPa)
#
#
# Indices 1 2 3 4 5 6 
#
# 1 0.011342 -0.008760 -0.000986 0.000000 0.000000 0.000000
# 2 -0.008760 0.026029 -0.003804 0.000000 0.000000 0.000000
# 3 -0.000986 -0.003804 0.012226 0.000000 0.000000 0.000000
# 4 0.000000 0.000000 0.000000 0.023600 0.000000 0.000000
# 5 0.000000 0.000000 0.000000 0.000000 0.023746 0.000000
# 6 0.000000 0.000000 0.000000 0.000000 0.000000 0.029966
#
#
# Mechanical properties :
#
#
# Convention : Reuss Voigt Hill
#
# Bulk Modulus (GPa) = 44.45429 50.73989 47.59709
# Shear Modulus (GPa) = 30.95803 35.66590 33.31197
#
# Velocity S-wave (km/s) = 3.86216 4.14543 4.00630
# Velocity P-wave (km/s) = 6.42708 6.88189 6.65837
#
# Compressibility (1/GPa) = 0.02249502
#
# Stress axis : x y z
#
# Youngs Moduli (GPa) = 88.17095 38.41834 81.79561
#
# Poissons Ratio (x) = 0.33655 0.08067
# Poissons Ratio (y) = 0.77240 0.31117
# Poissons Ratio (z) = 0.08696 0.14615
#
# Static dielectric constant tensor:
#      x y z
#    x 6.658130 0.000000 0.000000 
#    y 0.000000 3.770320 0.000000 
#    z 0.000000 0.000000 3.666200 
# 
# 
# High freq. dielectric constant tensor:
#      x y z
#    x 1.832560 0.000000 0.000000 
#    y 0.000000 1.819890 0.000000 
#    z 0.000000 0.000000 1.828430 
# 
# From -- ./inp_files/19648.got.cif
#   From: 2010.03.12/outbox.cif.g09.slc.cpg/sg62_10_cif.got.tgz:19648.got - 2010.04.10 19:12:36.
