data_PCOD8254906
_publ_section_title
;
Structure prediction by ZEFSAII (Michael W. Deem and Ramdas Pophale) SiO2 
 PCOD8254906
Probable space group: P N M A
;
_chemical_formula_sum "Si O2"
_cell_formula_units_Z 48
_cell_length_a 28.204396
_cell_length_b 8.779581
_cell_length_c 9.425404
_cell_angle_alpha 90.000000
_cell_angle_beta 90.000000
_cell_angle_gamma 90.000000
_cell_volume 2333.944734
_symmetry_space_group_name_H-M "P N M A"
_symmetry_group_IT_number 62
_symmetry_cell_setting 'orthorhombic'
loop_
_space_group_symop_operation_xyz
x,y,z
1/2-x,-y,1/2+z
1/2+x,1/2-y,1/2-z
-x,1/2+y,-z
-x,-y,-z
1/2+x,y,1/2-z
1/2-x,1/2+y,1/2+z
x,1/2-y,z
loop_
_atom_site_type_symbol
_atom_site_label
_atom_site_fract_x
_atom_site_fract_y
_atom_site_fract_z
Si Si1 0.703625 0.073808 0.972934
Si Si2 0.615383 0.425641 0.789469
Si Si3 0.638978 0.925840 0.504568
Si Si4 0.484574 0.429223 0.144734
Si Si5 0.965165 0.426238 0.889869
Si Si6 0.214972 0.429090 0.199901
O O1 0.718686 0.250000 0.956044
O O2 0.711292 0.019619 0.135185
O O3 0.648785 0.050650 0.927236
O O4 0.734285 0.972637 0.864860
O O5 0.601696 0.250000 0.770535
O O6 0.643782 0.481369 0.650562
O O7 0.567265 0.519577 0.805246
O O8 0.649191 0.750000 0.538712
O O9 0.587899 0.952004 0.438260
O O10 0.675835 0.983280 0.389473
O O11 0.484106 0.250000 0.135168
O O12 0.526697 0.483828 0.245652
O O13 0.500000 0.500000 0.000000
O O14 0.977750 0.250000 0.870323
O O15 0.000000 0.500000 0.000000
O O16 0.206333 0.250000 0.186973
#
# Coordination Sequence:
#
# PCOD8254906 Si02
#       6
#     8   8   8   8   8   8
#     4  10  24  44  65  94 128 162 207 260 317 381
#     4  11  23  42  67  95 128 169 214 265 322 382
#     4  11  24  41  64  95 129 167 212 262 317 381
#     4  12  26  43  64  93 131 173 219 270 323 383
#     4  11  23  41  65  95 129 171 217 266 318 376
#     4  11  24  42  66  95 126 165 208 259 316 377
#
# _framework density 20.566039
#
# number of rings (size 3 to 8) (size 9 to 14) (size 15 to 20)
#    0.000    1.000    1.667    4.500    2.333    7.333 
#    0.000    0.000    0.000    0.000    0.000    0.000 
#    0.000    0.000    0.000    0.000    0.000    0.000 
#
# Total GULP energy -595393.247312 kJ/mol
# GULP energy per Si atom -12404.025986 kJ/mol
# Density = 2.051923 g / cm^3
# Si number density = 20.566039 Si / 1000 Ang^3
#
#
#
# Elastic Constant Matrix: (Units=GPa)
#
#
# Indices 1 2 3 4 5 6 
#
# 1 71.1945 39.1461 24.1590 0.0000 0.0000 0.0000
# 2 39.1461 102.4170 30.1894 0.0000 0.0000 0.0000
# 3 24.1590 30.1894 132.0404 0.0000 0.0000 0.0000
# 4 0.0000 0.0000 0.0000 37.5983 0.0000 0.0000
# 5 0.0000 0.0000 0.0000 0.0000 32.9204 0.0000
# 6 0.0000 0.0000 0.0000 0.0000 0.0000 37.7294
#
#
#
# Elastic Compliance Matrix: (Units=1/GPa)
#
#
# Indices 1 2 3 4 5 6 
#
# 1 0.018202 -0.006407 -0.001865 0.000000 0.000000 0.000000
# 2 -0.006407 0.012725 -0.001737 0.000000 0.000000 0.000000
# 3 -0.001865 -0.001737 0.008312 0.000000 0.000000 0.000000
# 4 0.000000 0.000000 0.000000 0.026597 0.000000 0.000000
# 5 0.000000 0.000000 0.000000 0.000000 0.030376 0.000000
# 6 0.000000 0.000000 0.000000 0.000000 0.000000 0.026505
#
#
# Mechanical properties :
#
#
# Convention : Reuss Voigt Hill
#
# Bulk Modulus (GPa) = 52.03094 54.73787 53.38440
# Shear Modulus (GPa) = 33.52485 35.79346 34.65915
#
# Velocity S-wave (km/s) = 4.04184 4.17635 4.10965
# Velocity P-wave (km/s) = 6.86559 7.06607 6.96655
#
# Compressibility (1/GPa) = 0.01921934
#
# Stress axis : x y z
#
# Youngs Moduli (GPa) = 54.93865 78.58490 120.30920
#
# Poissons Ratio (x) = 0.50352 0.22443
# Poissons Ratio (y) = 0.35201 0.20899
# Poissons Ratio (z) = 0.10248 0.13651
#
# Static dielectric constant tensor:
#      x y z
#    x 5.134370 0.000000 0.000000 
#    y 0.000000 3.833560 0.000000 
#    z 0.000000 0.000000 3.837090 
# 
# 
# High freq. dielectric constant tensor:
#      x y z
#    x 1.813720 0.000000 0.000000 
#    y 0.000000 1.815720 0.000000 
#    z 0.000000 0.000000 1.819890 
# 
# From -- ./inp_files/10252.got.cif
#   From: 2010.03.12/outbox.cif.g09.slc.cpg/sg62_6_cif.got.tgz:10252.got - 2010.04.10 19:12:36.
