data_PCOD8254912
_publ_section_title
;
Structure prediction by ZEFSAII (Michael W. Deem and Ramdas Pophale) SiO2 
 PCOD8254912
Probable space group: P N M A
;
_chemical_formula_sum "Si O2"
_cell_formula_units_Z 40
_cell_length_a 12.303732
_cell_length_b 8.479019
_cell_length_c 18.209925
_cell_angle_alpha 90.000000
_cell_angle_beta 90.000000
_cell_angle_gamma 90.000000
_cell_volume 1899.724520
_symmetry_space_group_name_H-M "P N M A"
_symmetry_group_IT_number 62
_symmetry_cell_setting 'orthorhombic'
loop_
_space_group_symop_operation_xyz
x,y,z
1/2-x,-y,1/2+z
1/2+x,1/2-y,1/2-z
-x,1/2+y,-z
-x,-y,-z
1/2+x,y,1/2-z
1/2-x,1/2+y,1/2+z
x,1/2-y,z
loop_
_atom_site_type_symbol
_atom_site_label
_atom_site_fract_x
_atom_site_fract_y
_atom_site_fract_z
Si Si1 0.055617 0.065295 0.572467
Si Si2 0.964725 0.433011 0.852785
Si Si3 0.119200 0.933506 0.305660
Si Si4 0.191500 0.931060 0.893207
Si Si5 0.783200 0.932301 0.950786
O O1 0.075596 0.250000 0.562942
O O2 0.981714 0.025330 0.642123
O O3 0.170171 0.980958 0.586667
O O4 0.000000 0.000000 0.500000
O O5 0.997651 0.250000 0.852338
O O6 0.911198 0.485042 0.776323
O O7 0.880469 0.464240 0.918102
O O8 0.071173 0.535988 0.864926
O O9 0.149159 0.750000 0.310067
O O10 0.224782 0.032361 0.327950
O O11 0.201404 0.750000 0.917007
O O12 0.223089 0.039187 0.962231
O O13 0.806535 0.750000 0.935116
#
# Coordination Sequence:
#
# PCOD8254912 Si02
#       5
#     8   8   8   8   8
#     4  11  22  40  66  98 129 169 216 266 321 383
#     4  11  25  45  68  95 131 174 218 267 328 392
#     4  10  24  44  67  94 130 173 215 263 325 391
#     4  12  25  43  68  97 131 170 217 271 324 386
#     4  12  25  43  67  97 132 172 219 271 325 385
#
# _framework density 21.055683999999999
#
# number of rings (size 3 to 8) (size 9 to 14) (size 15 to 20)
#    0.000    0.800    2.000    5.400    2.800    2.400 
#    0.000    0.000    0.000    0.000    0.000    0.000 
#    0.000    0.000    0.000    0.000    0.000    0.000 
#
# Total GULP energy -496390.935892 kJ/mol
# GULP energy per Si atom -12409.773397 kJ/mol
# Density = 2.100776 g / cm^3
# Si number density = 21.055684 Si / 1000 Ang^3
#
#
#
# Elastic Constant Matrix: (Units=GPa)
#
#
# Indices 1 2 3 4 5 6 
#
# 1 137.6948 27.1979 27.0758 0.0000 0.0000 0.0000
# 2 27.1979 72.1132 18.1592 0.0000 0.0000 0.0000
# 3 27.0758 18.1592 69.0173 0.0000 0.0000 0.0000
# 4 0.0000 0.0000 0.0000 31.8055 0.0000 0.0000
# 5 0.0000 0.0000 0.0000 0.0000 27.7859 0.0000
# 6 0.0000 0.0000 0.0000 0.0000 0.0000 37.9487
#
#
#
# Elastic Compliance Matrix: (Units=1/GPa)
#
#
# Indices 1 2 3 4 5 6 
#
# 1 0.008258 -0.002462 -0.002592 0.000000 0.000000 0.000000
# 2 -0.002462 0.015585 -0.003135 0.000000 0.000000 0.000000
# 3 -0.002592 -0.003135 0.016331 0.000000 0.000000 0.000000
# 4 0.000000 0.000000 0.000000 0.031441 0.000000 0.000000
# 5 0.000000 0.000000 0.000000 0.000000 0.035989 0.000000
# 6 0.000000 0.000000 0.000000 0.000000 0.000000 0.026351
#
#
# Mechanical properties :
#
#
# Convention : Reuss Voigt Hill
#
# Bulk Modulus (GPa) = 42.02267 47.07678 44.54973
# Shear Modulus (GPa) = 31.59240 33.26752 32.42996
#
# Velocity S-wave (km/s) = 3.87773 3.97921 3.92880
# Velocity P-wave (km/s) = 6.32853 6.59688 6.46410
#
# Compressibility (1/GPa) = 0.02379668
#
# Stress axis : x y z
#
# Youngs Moduli (GPa) = 121.08840 64.16415 61.23407
#
# Poissons Ratio (x) = 0.15797 0.15872
# Poissons Ratio (y) = 0.29812 0.19195
# Poissons Ratio (z) = 0.31387 0.20114
#
# Static dielectric constant tensor:
#      x y z
#    x 3.931020 0.000000 0.000000 
#    y 0.000000 3.764900 0.000000 
#    z 0.000000 0.000000 3.872300 
# 
# 
# High freq. dielectric constant tensor:
#      x y z
#    x 1.841100 0.000000 0.000000 
#    y 0.000000 1.829590 0.000000 
#    z 0.000000 0.000000 1.828190 
# 
# From -- ./inp_files/22775.got.cif
#   From: 2010.03.12/outbox.cif.g09.slc.cpg/sg62_12_cif.got.tgz:22775.got - 2010.04.10 19:12:36.
