data_PCOD8254984
_publ_section_title
;
Structure prediction by ZEFSAII (Michael W. Deem and Ramdas Pophale) SiO2 
 PCOD8254984
Probable space group: P N M A
;
_chemical_formula_sum "Si O2"
_cell_formula_units_Z 64
_cell_length_a 10.026771
_cell_length_b 19.464095
_cell_length_c 18.366723
_cell_angle_alpha 90.000000
_cell_angle_beta 90.000000
_cell_angle_gamma 90.000000
_cell_volume 3584.486822
_symmetry_space_group_name_H-M "P N M A"
_symmetry_group_IT_number 62
_symmetry_cell_setting 'orthorhombic'
loop_
_space_group_symop_operation_xyz
x,y,z
1/2-x,-y,1/2+z
1/2+x,1/2-y,1/2-z
-x,1/2+y,-z
-x,-y,-z
1/2+x,y,1/2-z
1/2-x,1/2+y,1/2+z
x,1/2-y,z
loop_
_atom_site_type_symbol
_atom_site_label
_atom_site_fract_x
_atom_site_fract_y
_atom_site_fract_z
Si Si1 0.745784 0.397992 0.536087
Si Si2 0.160423 0.538541 0.898224
Si Si3 0.261443 0.001630 0.247663
Si Si4 0.004159 0.169647 0.586060
Si Si5 0.519622 0.172059 0.620246
Si Si6 0.989148 0.409788 0.732056
Si Si7 0.719829 0.613120 0.463723
Si Si8 0.845733 0.968096 0.899734
O O1 0.737245 0.471147 0.575163
O O2 0.654290 0.342579 0.576408
O O3 0.702021 0.406344 0.451721
O O4 0.896242 0.371435 0.538637
O O5 0.205961 0.552427 0.815233
O O6 0.003917 0.523039 0.903884
O O7 0.199265 0.602617 0.949355
O O8 0.156778 0.943281 0.271898
O O9 0.397372 0.966596 0.220104
O O10 0.201382 0.047875 0.182499
O O11 0.975503 0.250000 0.581829
O O12 0.144198 0.152699 0.549571
O O13 0.000084 0.147864 0.670405
O O14 0.521584 0.250000 0.647854
O O15 0.509199 0.122977 0.689250
O O16 0.396572 0.161045 0.566374
O O17 0.720230 0.539765 0.423770
#
# Coordination Sequence:
#
# PCOD8254984 Si02
#       8
#     8   8   8   8   8   8   8   8
#     4  11  21  37  57  81 110 154 194 239 280 322
#     4  11  20  37  61  83 114 143 192 245 281 334
#     4  12  20  34  59  84 117 150 180 228 296 342
#     4  12  25  38  51  82 126 156 190 231 273 332
#     4  12  21  36  59  80 110 164 206 221 261 332
#     4  12  21  36  50  84 120 158 191 220 266 342
#     4  11  21  37  57  81 110 154 194 239 280 322
#     4  11  20  37  61  83 114 143 192 245 281 334
#
# _framework density 17.854717000000001
#
# number of rings (size 3 to 8) (size 9 to 14) (size 15 to 20)
#    0.000    0.500    8.750    1.875    0.000    3.000 
#    0.000    3.750    0.000    0.000    0.000    5.250 
#    0.000    0.000    0.000    0.000    0.000    0.000 
#
# Total GULP energy -793832.716511 kJ/mol
# GULP energy per Si atom -12403.636195 kJ/mol
# Density = 1.781408 g / cm^3
# Si number density = 17.854717 Si / 1000 Ang^3
#
#
#
# Elastic Constant Matrix: (Units=GPa)
#
#
# Indices 1 2 3 4 5 6 
#
# 1 52.5930 5.0101 3.3178 0.0000 0.0000 0.0000
# 2 5.0101 36.4532 23.5711 0.0000 0.0000 0.0000
# 3 3.3178 23.5711 105.6804 0.0000 0.0000 0.0000
# 4 0.0000 0.0000 0.0000 19.7793 0.0000 0.0000
# 5 0.0000 0.0000 0.0000 0.0000 30.3730 0.0000
# 6 0.0000 0.0000 0.0000 0.0000 0.0000 21.4746
#
#
#
# Elastic Compliance Matrix: (Units=1/GPa)
#
#
# Indices 1 2 3 4 5 6 
#
# 1 0.019266 -0.002637 -0.000017 0.000000 0.000000 0.000000
# 2 -0.002637 0.032416 -0.007147 0.000000 0.000000 0.000000
# 3 -0.000017 -0.007147 0.011057 0.000000 0.000000 0.000000
# 4 0.000000 0.000000 0.000000 0.050558 0.000000 0.000000
# 5 0.000000 0.000000 0.000000 0.000000 0.032924 0.000000
# 6 0.000000 0.000000 0.000000 0.000000 0.000000 0.046567
#
#
# Mechanical properties :
#
#
# Convention : Reuss Voigt Hill
#
# Bulk Modulus (GPa) = 23.18177 28.72496 25.95337
# Shear Modulus (GPa) = 22.04878 25.18056 23.61467
#
# Velocity S-wave (km/s) = 3.51793 3.75947 3.64070
# Velocity P-wave (km/s) = 5.43257 5.91337 5.67806
#
# Compressibility (1/GPa) = 0.04313734
#
# Stress axis : x y z
#
# Youngs Moduli (GPa) = 51.90437 30.84852 90.43888
#
# Poissons Ratio (x) = 0.08135 0.00151
# Poissons Ratio (y) = 0.13688 0.64640
# Poissons Ratio (z) = 0.00086 0.22049
#
# Static dielectric constant tensor:
#      x y z
#    x 3.431270 0.000000 0.000000 
#    y 0.000000 3.045220 0.000000 
#    z 0.000000 0.000000 3.616450 
# 
# 
# High freq. dielectric constant tensor:
#      x y z
#    x 1.709060 0.000000 0.000000 
#    y 0.000000 1.646520 0.000000 
#    z 0.000000 0.000000 1.697350 
# 
# From -- ./inp_files/22557.got.cif
#   From: 2010.03.12/outbox.cif.g09.slc.cpg/sg62_12_cif.got.tgz:22557.got - 2010.04.10 19:12:36.
