data_PCOD8254384
_publ_section_title
;
Structure prediction by ZEFSAII (Michael W. Deem and Ramdas Pophale) SiO2 
 PCOD8254384
Probable space group: P N M A
;
_chemical_formula_sum "Si O2"
_cell_formula_units_Z 32
_cell_length_a 9.664089
_cell_length_b 15.529756
_cell_length_c 9.333629
_cell_angle_alpha 90.000000
_cell_angle_beta 90.000000
_cell_angle_gamma 90.000000
_cell_volume 1400.799853
_symmetry_space_group_name_H-M "P N M A"
_symmetry_group_IT_number 62
_symmetry_cell_setting 'orthorhombic'
loop_
_space_group_symop_operation_xyz
x,y,z
1/2-x,-y,1/2+z
1/2+x,1/2-y,1/2-z
-x,1/2+y,-z
-x,-y,-z
1/2+x,y,1/2-z
1/2-x,1/2+y,1/2+z
x,1/2-y,z
loop_
_atom_site_type_symbol
_atom_site_label
_atom_site_fract_x
_atom_site_fract_y
_atom_site_fract_z
Si Si1 0.613400 0.147408 0.909443
Si Si2 0.997584 0.407662 0.074512
Si Si3 0.278539 0.852123 0.789139
Si Si4 0.391736 0.154037 0.704824
O O1 0.617880 0.250000 0.887526
O O2 0.477251 0.106984 0.833020
O O3 0.746370 0.106483 0.826217
O O4 0.621080 0.125457 0.076590
O O5 0.871527 0.396076 0.188303
O O6 0.144857 0.390135 0.150131
O O7 0.978133 0.340940 0.943842
O O8 0.000000 0.500000 0.000000
O O9 0.256561 0.750000 0.772330
O O10 0.362776 0.250000 0.757906
#
# Coordination Sequence:
#
# PCOD8254384 Si02
#       4
#     8   8   8   8
#     4   8  16  30  53  80 108 145 199 253 299 360
#     4  11  24  39  60  93 129 166 214 278 335 385
#     4  10  21  42  66  90 124 175 226 266 321 407
#     4   9  17  33  54  81 115 156 204 257 312 376
#
# _framework density 22.844093000000001
#
# number of rings (size 3 to 8) (size 9 to 14) (size 15 to 20)
#    0.000    2.500    0.000    3.750    0.000    6.000 
#    0.000    7.500    0.000    0.000    0.000    0.000 
#    0.000    0.000    0.000    0.000    0.000    0.000 
#
# Total GULP energy -396461.524904 kJ/mol
# GULP energy per Si atom -12389.422653 kJ/mol
# Density = 2.279210 g / cm^3
# Si number density = 22.844093 Si / 1000 Ang^3
#
#
#
# Elastic Constant Matrix: (Units=GPa)
#
#
# Indices 1 2 3 4 5 6 
#
# 1 58.2807 36.5085 23.9273 0.0000 0.0000 0.0000
# 2 36.5085 68.6439 19.2249 0.0000 0.0000 0.0000
# 3 23.9273 19.2249 45.8363 0.0000 0.0000 0.0000
# 4 0.0000 0.0000 0.0000 30.2877 0.0000 0.0000
# 5 0.0000 0.0000 0.0000 0.0000 62.9834 0.0000
# 6 0.0000 0.0000 0.0000 0.0000 0.0000 20.5146
#
#
#
# Elastic Compliance Matrix: (Units=1/GPa)
#
#
# Indices 1 2 3 4 5 6 
#
# 1 0.029221 -0.012769 -0.009898 0.000000 0.000000 0.000000
# 2 -0.012769 0.022087 -0.002598 0.000000 0.000000 0.000000
# 3 -0.009898 -0.002598 0.028073 0.000000 0.000000 0.000000
# 4 0.000000 0.000000 0.000000 0.033017 0.000000 0.000000
# 5 0.000000 0.000000 0.000000 0.000000 0.015877 0.000000
# 6 0.000000 0.000000 0.000000 0.000000 0.000000 0.048746
#
#
# Mechanical properties :
#
#
# Convention : Reuss Voigt Hill
#
# Bulk Modulus (GPa) = 34.66133 36.89803 35.77968
# Shear Modulus (GPa) = 21.08207 28.96383 25.02295
#
# Velocity S-wave (km/s) = 3.04117 3.56461 3.31324
# Velocity P-wave (km/s) = 5.24762 5.75579 5.50757
#
# Compressibility (1/GPa) = 0.02885060
#
# Stress axis : x y z
#
# Youngs Moduli (GPa) = 34.22212 45.27581 35.62082
#
# Poissons Ratio (x) = 0.57813 0.35258
# Poissons Ratio (y) = 0.43698 0.09255
# Poissons Ratio (z) = 0.33873 0.11763
#
# Static dielectric constant tensor:
#      x y z
#    x 4.437830 0.000000 0.000000 
#    y 0.000000 3.662870 0.000000 
#    z 0.000000 0.000000 4.231000 
# 
# 
# High freq. dielectric constant tensor:
#      x y z
#    x 1.902380 0.000000 0.000000 
#    y 0.000000 1.863520 0.000000 
#    z 0.000000 0.000000 1.899270 
# 
# From -- ./inp_files/4957.got.cif
#   From: 2010.03.12/outbox.cif.g09.slc.cpg/sg62_3_cif.got.tgz:4957.got - 2010.04.10 19:12:36.
