data_PCOD8254703
_publ_section_title
;
Structure prediction by ZEFSAII (Michael W. Deem and Ramdas Pophale) SiO2 
 PCOD8254703
Probable space group: P N M A
;
_chemical_formula_sum "Si O2"
_cell_formula_units_Z 40
_cell_length_a 8.720133
_cell_length_b 14.813746
_cell_length_c 12.255412
_cell_angle_alpha 90.000000
_cell_angle_beta 90.000000
_cell_angle_gamma 90.000000
_cell_volume 1583.127593
_symmetry_space_group_name_H-M "P N M A"
_symmetry_group_IT_number 62
_symmetry_cell_setting 'orthorhombic'
loop_
_space_group_symop_operation_xyz
x,y,z
1/2-x,-y,1/2+z
1/2+x,1/2-y,1/2-z
-x,1/2+y,-z
-x,-y,-z
1/2+x,y,1/2-z
1/2-x,1/2+y,1/2+z
x,1/2-y,z
loop_
_atom_site_type_symbol
_atom_site_label
_atom_site_fract_x
_atom_site_fract_y
_atom_site_fract_z
Si Si1 0.640745 0.852458 0.881960
Si Si2 0.849146 0.060068 0.016023
Si Si3 0.819669 0.855873 0.317707
Si Si4 0.039868 0.145994 0.186908
Si Si5 0.135922 0.584844 0.385500
O O1 0.651405 0.750000 0.841698
O O2 0.507491 0.895989 0.805387
O O3 0.803958 0.903399 0.856428
O O4 0.603582 0.852870 0.009104
O O5 0.897095 0.134326 0.105171
O O6 0.701080 0.008291 0.065054
O O7 0.806014 0.111696 0.905079
O O8 0.000000 0.000000 0.000000
O O9 0.858949 0.750000 0.333613
O O10 0.757392 0.869732 0.195501
O O11 0.970286 0.919472 0.327349
O O12 0.081364 0.250000 0.194407
#
# Coordination Sequence:
#
# PCOD8254703 Si02
#       5
#     8   8   8   8   8
#     4  10  22  42  69 103 140 186 242 305 367 442
#     4  12  26  47  74 109 148 195 249 316 385 446
#     4  12  28  51  77 109 152 208 260 313 382 463
#     4  10  23  42  69 100 141 188 239 299 370 447
#     4  12  27  47  76 109 151 197 257 319 379 444
#
# _framework density 25.266439999999999
#
# number of rings (size 3 to 8) (size 9 to 14) (size 15 to 20)
#    0.000    0.800    2.000    4.200    5.600    1.600 
#    0.000    0.000    0.000    0.000    0.000    0.000 
#    0.000    0.000    0.000    0.000    0.000    0.000 
#
# Total GULP energy -495874.362143 kJ/mol
# GULP energy per Si atom -12396.859054 kJ/mol
# Density = 2.520893 g / cm^3
# Si number density = 25.266440 Si / 1000 Ang^3
#
#
#
# Elastic Constant Matrix: (Units=GPa)
#
#
# Indices 1 2 3 4 5 6 
#
# 1 109.7147 -0.7824 54.8877 0.0000 0.0000 0.0000
# 2 -0.7824 37.9203 13.1301 0.0000 0.0000 0.0000
# 3 54.8877 13.1301 169.7428 0.0000 0.0000 0.0000
# 4 0.0000 0.0000 0.0000 24.3851 0.0000 0.0000
# 5 0.0000 0.0000 0.0000 0.0000 52.9131 0.0000
# 6 0.0000 0.0000 0.0000 0.0000 0.0000 31.8885
#
#
#
# Elastic Compliance Matrix: (Units=1/GPa)
#
#
# Indices 1 2 3 4 5 6 
#
# 1 0.010955 0.001493 -0.003658 0.000000 0.000000 0.000000
# 2 0.001493 0.027300 -0.002594 0.000000 0.000000 0.000000
# 3 -0.003658 -0.002594 0.007275 0.000000 0.000000 0.000000
# 4 0.000000 0.000000 0.000000 0.041009 0.000000 0.000000
# 5 0.000000 0.000000 0.000000 0.000000 0.018899 0.000000
# 6 0.000000 0.000000 0.000000 0.000000 0.000000 0.031359
#
#
# Mechanical properties :
#
#
# Convention : Reuss Voigt Hill
#
# Bulk Modulus (GPa) = 27.76948 50.20540 38.98744
# Shear Modulus (GPa) = 31.58164 38.51352 35.04758
#
# Velocity S-wave (km/s) = 3.53929 3.90846 3.72845
# Velocity P-wave (km/s) = 5.26466 6.34678 5.83088
#
# Compressibility (1/GPa) = 0.03601075
#
# Stress axis : x y z
#
# Youngs Moduli (GPa) = 91.28128 36.62976 137.46161
#
# Poissons Ratio (x) = -0.05467 0.50282
# Poissons Ratio (y) = -0.13625 0.35663
# Poissons Ratio (z) = 0.33390 0.09503
#
# Static dielectric constant tensor:
#      x y z
#    x 4.790780 0.000000 0.000000 
#    y 0.000000 4.256100 0.000000 
#    z 0.000000 0.000000 4.762710 
# 
# 
# High freq. dielectric constant tensor:
#      x y z
#    x 2.021680 0.000000 0.000000 
#    y 0.000000 1.993070 0.000000 
#    z 0.000000 0.000000 2.024660 
# 
# From -- ./inp_files/11089.got.cif
#   From: 2010.03.12/outbox.cif.g09.slc.cpg/sg62_6_cif.got.tgz:11089.got - 2010.04.10 19:12:36.
