data_PCOD8254789
_publ_section_title
;
Structure prediction by ZEFSAII (Michael W. Deem and Ramdas Pophale) SiO2 
 PCOD8254789
Probable space group: P N M A
;
_chemical_formula_sum "Si O2"
_cell_formula_units_Z 64
_cell_length_a 27.668026
_cell_length_b 17.885327
_cell_length_c 6.549346
_cell_angle_alpha 90.000000
_cell_angle_beta 90.000000
_cell_angle_gamma 90.000000
_cell_volume 3240.954953
_symmetry_space_group_name_H-M "P N M A"
_symmetry_group_IT_number 62
_symmetry_cell_setting 'orthorhombic'
loop_
_space_group_symop_operation_xyz
x,y,z
1/2-x,-y,1/2+z
1/2+x,1/2-y,1/2-z
-x,1/2+y,-z
-x,-y,-z
1/2+x,y,1/2-z
1/2-x,1/2+y,1/2+z
x,1/2-y,z
loop_
_atom_site_type_symbol
_atom_site_label
_atom_site_fract_x
_atom_site_fract_y
_atom_site_fract_z
Si Si1 0.840141 0.834316 0.926401
Si Si2 0.907143 0.914184 0.214841
Si Si3 0.491384 0.424043 0.876692
Si Si4 0.677093 0.429551 0.033723
Si Si5 0.240560 0.334301 0.741619
Si Si6 0.582932 0.661643 0.859563
Si Si7 0.836804 0.407322 0.640498
Si Si8 0.584517 0.933080 0.473741
O O1 0.844571 0.750000 0.843271
O O2 0.836087 0.892146 0.745627
O O3 0.888442 0.852689 0.054820
O O4 0.792675 0.845180 0.061749
O O5 0.870000 0.920890 0.398150
O O6 0.957989 0.887683 0.308325
O O7 0.912744 0.994273 0.112155
O O8 0.461193 0.441175 0.673525
O O9 0.500000 0.500000 0.000000
O O10 0.464623 0.364517 0.019571
O O11 0.724200 0.390886 0.936313
O O12 0.688808 0.516667 0.064878
O O13 0.236001 0.250000 0.656556
O O14 0.295541 0.348367 0.804561
O O15 0.586816 0.750000 0.873008
O O16 0.578952 0.638011 0.623022
O O17 0.630478 0.625648 0.960203
O O18 0.867129 0.423568 0.843516
#
# Coordination Sequence:
#
# PCOD8254789 Si02
#       8
#     8   8   8   8   8   8   8   8
#     4  10  23  41  61  88 125 161 200 258 315 368
#     4  11  21  39  64  92 120 161 209 253 308 370
#     4  11  23  39  68  92 123 165 210 257 309 374
#     4  11  22  38  65  93 124 161 213 258 307 372
#     4  10  24  41  60  89 128 164 206 259 318 374
#     4  11  25  43  63  95 133 163 207 265 313 368
#     4  11  23  40  67  93 124 169 213 257 309 378
#     4  11  22  40  65  94 123 164 212 253 311 373
#
# _framework density 19.747267999999998
#
# number of rings (size 3 to 8) (size 9 to 14) (size 15 to 20)
#    0.000    1.250    3.750    1.875    1.750    4.500 
#    0.000    1.250    0.000    0.000    0.000    0.000 
#    0.000    0.000    0.000    0.000    0.000    0.000 
#
# Total GULP energy -793919.058950 kJ/mol
# GULP energy per Si atom -12404.985296 kJ/mol
# Density = 1.970232 g / cm^3
# Si number density = 19.747268 Si / 1000 Ang^3
#
#
#
# Elastic Constant Matrix: (Units=GPa)
#
#
# Indices 1 2 3 4 5 6 
#
# 1 102.3884 15.3209 38.3901 0.0000 0.0000 0.0000
# 2 15.3209 109.3205 45.0260 0.0000 0.0000 0.0000
# 3 38.3901 45.0260 101.4100 0.0000 0.0000 0.0000
# 4 0.0000 0.0000 0.0000 26.8225 0.0000 0.0000
# 5 0.0000 0.0000 0.0000 0.0000 15.8407 0.0000
# 6 0.0000 0.0000 0.0000 0.0000 0.0000 21.5451
#
#
#
# Elastic Compliance Matrix: (Units=1/GPa)
#
#
# Indices 1 2 3 4 5 6 
#
# 1 0.011387 0.000220 -0.004408 0.000000 0.000000 0.000000
# 2 0.000220 0.011199 -0.005055 0.000000 0.000000 0.000000
# 3 -0.004408 -0.005055 0.013774 0.000000 0.000000 0.000000
# 4 0.000000 0.000000 0.000000 0.037282 0.000000 0.000000
# 5 0.000000 0.000000 0.000000 0.000000 0.063129 0.000000
# 6 0.000000 0.000000 0.000000 0.000000 0.000000 0.046414
#
#
# Mechanical properties :
#
#
# Convention : Reuss Voigt Hill
#
# Bulk Modulus (GPa) = 55.95298 56.73255 56.34277
# Shear Modulus (GPa) = 24.08132 27.13379 25.60755
#
# Velocity S-wave (km/s) = 3.49589 3.71084 3.60497
# Velocity P-wave (km/s) = 6.68514 6.86674 6.77655
#
# Compressibility (1/GPa) = 0.01787215
#
# Stress axis : x y z
#
# Youngs Moduli (GPa) = 87.82205 89.29512 72.59866
#
# Poissons Ratio (x) = -0.01963 0.32003
# Poissons Ratio (y) = -0.01930 0.36702
# Poissons Ratio (z) = 0.38713 0.45143
#
# Static dielectric constant tensor:
#      x y z
#    x 3.806830 0.000000 0.000000 
#    y 0.000000 3.605520 0.000000 
#    z 0.000000 0.000000 3.756190 
# 
# 
# High freq. dielectric constant tensor:
#      x y z
#    x 1.773670 0.000000 0.000000 
#    y 0.000000 1.770380 0.000000 
#    z 0.000000 0.000000 1.782390 
# 
# From -- ./inp_files/3706.got.cif
#   From: 2010.03.12/outbox.cif.g09.slc.cpg/sg62_2_cif.got.tgz:3706.got - 2010.04.10 19:12:36.
