data_PCOD8254460
_publ_section_title
;
Structure prediction by ZEFSAII (Michael W. Deem and Ramdas Pophale) SiO2 
 PCOD8254460
Probable space group: P N M A
;
_chemical_formula_sum "Si O2"
_cell_formula_units_Z 40
_cell_length_a 28.234619
_cell_length_b 8.838765
_cell_length_c 7.776410
_cell_angle_alpha 90.000000
_cell_angle_beta 90.000000
_cell_angle_gamma 90.000000
_cell_volume 1940.674365
_symmetry_space_group_name_H-M "P N M A"
_symmetry_group_IT_number 62
_symmetry_cell_setting 'orthorhombic'
loop_
_space_group_symop_operation_xyz
x,y,z
1/2-x,-y,1/2+z
1/2+x,1/2-y,1/2-z
-x,1/2+y,-z
-x,-y,-z
1/2+x,y,1/2-z
1/2-x,1/2+y,1/2+z
x,1/2-y,z
loop_
_atom_site_type_symbol
_atom_site_label
_atom_site_fract_x
_atom_site_fract_y
_atom_site_fract_z
Si Si1 0.449037 0.428815 0.522026
Si Si2 0.610679 0.572418 0.808891
Si Si3 0.897869 0.574237 0.657828
Si Si4 0.701262 0.423663 0.682830
Si Si5 0.204721 0.078271 0.212685
O O1 0.500000 0.500000 0.500000
O O2 0.453574 0.250000 0.529298
O O3 0.417071 0.480584 0.361020
O O4 0.426266 0.485505 0.697685
O O5 0.607178 0.750000 0.839881
O O6 0.665593 0.525914 0.792185
O O7 0.587036 0.488839 0.971681
O O8 0.911014 0.750000 0.672721
O O9 0.841835 0.545976 0.676407
O O10 0.692498 0.250000 0.733906
O O11 0.691326 0.453273 0.483617
O O12 0.755089 0.464506 0.725710
O O13 0.222643 0.250000 0.238123
#
# Coordination Sequence:
#
# PCOD8254460 Si02
#       5
#     8   8   8   8   8
#     4  11  25  45  70  97 129 170 216 272 328 387
#     4  11  24  42  65  95 130 168 213 264 323 385
#     4  11  23  42  68  96 130 170 215 267 323 384
#     4  11  22  37  59  88 126 170 215 264 315 374
#     4  10  22  38  57  88 127 168 214 263 316 377
#
# _framework density 20.611393
#
# number of rings (size 3 to 8) (size 9 to 14) (size 15 to 20)
#    0.000    1.200    2.000    3.600    0.000    9.600 
#    0.000    0.000    0.000    0.000    0.000    0.000 
#    0.000    0.000    0.000    0.000    0.000    0.000 
#
# Total GULP energy -496283.017712 kJ/mol
# GULP energy per Si atom -12407.075443 kJ/mol
# Density = 2.056448 g / cm^3
# Si number density = 20.611393 Si / 1000 Ang^3
#
#
#
# Elastic Constant Matrix: (Units=GPa)
#
#
# Indices 1 2 3 4 5 6 
#
# 1 86.3925 38.7853 35.2090 0.0000 0.0000 0.0000
# 2 38.7853 82.4050 48.0988 0.0000 0.0000 0.0000
# 3 35.2090 48.0988 103.7552 0.0000 0.0000 0.0000
# 4 0.0000 0.0000 0.0000 35.6966 0.0000 0.0000
# 5 0.0000 0.0000 0.0000 0.0000 17.9256 0.0000
# 6 0.0000 0.0000 0.0000 0.0000 0.0000 38.1633
#
#
#
# Elastic Compliance Matrix: (Units=1/GPa)
#
#
# Indices 1 2 3 4 5 6 
#
# 1 0.015140 -0.005658 -0.002515 0.000000 0.000000 0.000000
# 2 -0.005658 0.018751 -0.006773 0.000000 0.000000 0.000000
# 3 -0.002515 -0.006773 0.013631 0.000000 0.000000 0.000000
# 4 0.000000 0.000000 0.000000 0.028014 0.000000 0.000000
# 5 0.000000 0.000000 0.000000 0.000000 0.055786 0.000000
# 6 0.000000 0.000000 0.000000 0.000000 0.000000 0.026203
#
#
# Mechanical properties :
#
#
# Convention : Reuss Voigt Hill
#
# Bulk Modulus (GPa) = 56.71668 57.41544 57.06606
# Shear Modulus (GPa) = 25.86728 28.38772 27.12750
#
# Velocity S-wave (km/s) = 3.54644 3.71520 3.63180
# Velocity P-wave (km/s) = 6.65932 6.80590 6.73301
#
# Compressibility (1/GPa) = 0.01763150
#
# Stress axis : x y z
#
# Youngs Moduli (GPa) = 66.04955 53.32929 73.36150
#
# Poissons Ratio (x) = 0.30174 0.18449
# Poissons Ratio (y) = 0.37372 0.49686
# Poissons Ratio (z) = 0.16610 0.36118
#
# Static dielectric constant tensor:
#      x y z
#    x 3.609290 0.000000 0.000000 
#    y 0.000000 3.773010 0.000000 
#    z 0.000000 0.000000 3.871830 
# 
# 
# High freq. dielectric constant tensor:
#      x y z
#    x 1.800540 0.000000 0.000000 
#    y 0.000000 1.813360 0.000000 
#    z 0.000000 0.000000 1.824110 
# 
# From -- ./inp_files/9715.got.cif
#   From: 2010.03.12/outbox.cif.g09.slc.cpg/sg62_5_cif.got.tgz:9715.got - 2010.04.10 19:12:36.
