data_PCOD8254227
_publ_section_title
;
Structure prediction by ZEFSAII (Michael W. Deem and Ramdas Pophale) SiO2 
 PCOD8254227
Probable space group: P N M A
;
_chemical_formula_sum "Si O2"
_cell_formula_units_Z 64
_cell_length_a 24.353605
_cell_length_b 8.899335
_cell_length_c 14.756972
_cell_angle_alpha 90.000000
_cell_angle_beta 90.000000
_cell_angle_gamma 90.000000
_cell_volume 3198.291666
_symmetry_space_group_name_H-M "P N M A"
_symmetry_group_IT_number 62
_symmetry_cell_setting 'orthorhombic'
loop_
_space_group_symop_operation_xyz
x,y,z
1/2-x,-y,1/2+z
1/2+x,1/2-y,1/2-z
-x,1/2+y,-z
-x,-y,-z
1/2+x,y,1/2-z
1/2-x,1/2+y,1/2+z
x,1/2-y,z
loop_
_atom_site_type_symbol
_atom_site_label
_atom_site_fract_x
_atom_site_fract_y
_atom_site_fract_z
Si Si1 0.847509 0.579837 0.869768
Si Si2 0.478475 0.927421 0.407500
Si Si3 0.950165 0.572785 0.553111
Si Si4 0.264550 0.573007 0.170610
Si Si5 0.170790 0.429041 0.496511
Si Si6 0.737590 0.921115 0.640562
Si Si7 0.376485 0.421952 0.456184
Si Si8 0.450790 0.579906 0.740098
O O1 0.828274 0.750000 0.890257
O O2 0.796221 0.472896 0.856766
O O3 0.885765 0.574956 0.781043
O O4 0.883754 0.514922 0.951395
O O5 0.474290 0.750000 0.418983
O O6 0.500000 0.000000 0.500000
O O7 0.418469 0.998984 0.386250
O O8 0.516348 0.964945 0.322239
O O9 0.952189 0.750000 0.539291
O O10 0.891223 0.511247 0.517377
O O11 0.957840 0.527048 0.657151
O O12 0.000000 0.500000 0.500000
O O13 0.267802 0.750000 0.175501
O O14 0.307219 0.512738 0.094252
O O15 0.278088 0.509836 0.269207
O O16 0.173512 0.250000 0.493675
O O17 0.210391 0.488478 0.414926
O O18 0.749742 0.750000 0.669435
O O19 0.685745 0.933089 0.575381
O O20 0.394179 0.250000 0.472253
O O21 0.472729 0.750000 0.725196
#
# Coordination Sequence:
#
# PCOD8254227 Si02
#       8
#     8   8   8   8   8   8   8   8
#     4  11  21  36  61  89 121 160 205 250 306 368
#     4  12  24  38  59  88 125 163 203 249 307 374
#     4  10  22  42  66  88 117 156 205 257 308 363
#     4  11  22  37  60  91 124 159 205 253 304 365
#     4   9  19  40  64  85 117 161 199 243 306 367
#     4  10  21  40  62  87 121 161 202 244 306 370
#     4  11  22  38  61  88 123 160 200 253 308 364
#     4  10  22  40  63  89 118 161 212 259 307 367
#
# _framework density 20.010684999999999
#
# number of rings (size 3 to 8) (size 9 to 14) (size 15 to 20)
#    0.000    1.500    2.500    3.000    0.000    5.000 
#    0.000    5.625    0.000    0.000    0.000    0.000 
#    0.000    0.000    0.000    0.000    0.000    0.000 
#
# Total GULP energy -793653.026612 kJ/mol
# GULP energy per Si atom -12400.828541 kJ/mol
# Density = 1.996514 g / cm^3
# Si number density = 20.010685 Si / 1000 Ang^3
#
#
#
# Elastic Constant Matrix: (Units=GPa)
#
#
# Indices 1 2 3 4 5 6 
#
# 1 119.8168 32.8138 52.9029 0.0000 0.0000 0.0000
# 2 32.8138 80.5517 47.2705 0.0000 0.0000 0.0000
# 3 52.9029 47.2705 138.5738 0.0000 0.0000 0.0000
# 4 0.0000 0.0000 0.0000 33.0452 0.0000 0.0000
# 5 0.0000 0.0000 0.0000 0.0000 30.3153 0.0000
# 6 0.0000 0.0000 0.0000 0.0000 0.0000 32.4642
#
#
#
# Elastic Compliance Matrix: (Units=1/GPa)
#
#
# Indices 1 2 3 4 5 6 
#
# 1 0.010391 -0.002382 -0.003155 0.000000 0.000000 0.000000
# 2 -0.002382 0.016067 -0.004572 0.000000 0.000000 0.000000
# 3 -0.003155 -0.004572 0.009980 0.000000 0.000000 0.000000
# 4 0.000000 0.000000 0.000000 0.030262 0.000000 0.000000
# 5 0.000000 0.000000 0.000000 0.000000 0.032987 0.000000
# 6 0.000000 0.000000 0.000000 0.000000 0.000000 0.030803
#
#
# Mechanical properties :
#
#
# Convention : Reuss Voigt Hill
#
# Bulk Modulus (GPa) = 61.64158 67.21299 64.42729
# Shear Modulus (GPa) = 32.02792 32.89528 32.46160
#
# Velocity S-wave (km/s) = 4.00502 4.05888 4.03204
# Velocity P-wave (km/s) = 7.22898 7.45839 7.34458
#
# Compressibility (1/GPa) = 0.01622282
#
# Stress axis : x y z
#
# Youngs Moduli (GPa) = 96.23530 62.23762 100.19879
#
# Poissons Ratio (x) = 0.14824 0.31608
# Poissons Ratio (y) = 0.22921 0.45808
# Poissons Ratio (z) = 0.30358 0.28453
#
# Static dielectric constant tensor:
#      x y z
#    x 3.807520 0.000000 0.000000 
#    y 0.000000 3.524950 0.000000 
#    z 0.000000 0.000000 3.833390 
# 
# 
# High freq. dielectric constant tensor:
#      x y z
#    x 1.790570 0.000000 0.000000 
#    y 0.000000 1.767520 0.000000 
#    z 0.000000 0.000000 1.782100 
# 
# From -- ./inp_files/20832.got.cif
#   From: 2010.03.12/outbox.cif.g09.slc.cpg/sg62_11_cif.got.tgz:20832.got - 2010.04.10 19:12:36.
