data_PCOD8254458
_publ_section_title
;
Structure prediction by ZEFSAII (Michael W. Deem and Ramdas Pophale) SiO2 
 PCOD8254458
Probable space group: P N M A
;
_chemical_formula_sum "Si O2"
_cell_formula_units_Z 56
_cell_length_a 24.653766
_cell_length_b 8.666170
_cell_length_c 14.123124
_cell_angle_alpha 90.000000
_cell_angle_beta 90.000000
_cell_angle_gamma 90.000000
_cell_volume 3017.458084
_symmetry_space_group_name_H-M "P N M A"
_symmetry_group_IT_number 62
_symmetry_cell_setting 'orthorhombic'
loop_
_space_group_symop_operation_xyz
x,y,z
1/2-x,-y,1/2+z
1/2+x,1/2-y,1/2-z
-x,1/2+y,-z
-x,-y,-z
1/2+x,y,1/2-z
1/2-x,1/2+y,1/2+z
x,1/2-y,z
loop_
_atom_site_type_symbol
_atom_site_label
_atom_site_fract_x
_atom_site_fract_y
_atom_site_fract_z
Si Si1 0.602547 0.072160 0.692319
Si Si2 0.389967 0.075572 0.659318
Si Si3 0.002239 0.068627 0.105232
Si Si4 0.681503 0.928113 0.827499
Si Si5 0.224453 0.928355 0.473311
Si Si6 0.165535 0.922349 0.965339
Si Si7 0.207017 0.068254 0.273687
O O1 0.585101 0.250000 0.694230
O O2 0.551284 0.968180 0.665427
O O3 0.629240 0.023780 0.792081
O O4 0.649208 0.042997 0.615117
O O5 0.390885 0.250000 0.699493
O O6 0.378197 0.076014 0.547909
O O7 0.448786 0.998556 0.668516
O O8 0.345109 0.977040 0.712963
O O9 0.009332 0.250000 0.094418
O O10 0.000000 0.000000 0.000000
O O11 0.672680 0.750000 0.801948
O O12 0.682491 0.953536 0.940653
O O13 0.737603 0.985881 0.778104
O O14 0.240539 0.750000 0.464457
O O15 0.276696 0.025705 0.504545
O O16 0.199947 0.987474 0.375114
O O17 0.169965 0.750000 0.921788
O O18 0.207057 0.250000 0.288125
#
# Coordination Sequence:
#
# PCOD8254458 Si02
#       7
#     8   8   8   8   8   8   8
#     4  12  24  37  58  85 118 155 196 238 289 349
#     4  11  23  38  58  85 119 156 197 239 287 346
#     4  12  24  39  60  85 118 155 195 239 292 346
#     4  10  22  38  57  83 118 155 194 239 289 344
#     4  11  22  37  57  83 117 156 198 240 287 346
#     4  11  21  33  54  83 119 155 191 237 285 343
#     4  11  22  37  58  85 119 155 194 240 292 348
#
# _framework density 18.558665999999999
#
# number of rings (size 3 to 8) (size 9 to 14) (size 15 to 20)
#    0.000    0.857    4.286    4.286    0.000    2.857 
#    0.000    0.000    0.000    0.857    0.000    0.000 
#    0.000    0.000    0.000    0.000    0.000    0.000 
#
# Total GULP energy -694538.485193 kJ/mol
# GULP energy per Si atom -12402.472950 kJ/mol
# Density = 1.851643 g / cm^3
# Si number density = 18.558666 Si / 1000 Ang^3
#
#
#
# Elastic Constant Matrix: (Units=GPa)
#
#
# Indices 1 2 3 4 5 6 
#
# 1 79.2507 8.5789 17.6570 0.0000 0.0000 0.0000
# 2 8.5789 64.4587 21.3940 0.0000 0.0000 0.0000
# 3 17.6570 21.3940 79.2282 0.0000 0.0000 0.0000
# 4 0.0000 0.0000 0.0000 29.2673 0.0000 0.0000
# 5 0.0000 0.0000 0.0000 0.0000 28.9677 0.0000
# 6 0.0000 0.0000 0.0000 0.0000 0.0000 32.4551
#
#
#
# Elastic Compliance Matrix: (Units=1/GPa)
#
#
# Indices 1 2 3 4 5 6 
#
# 1 0.013321 -0.000865 -0.002735 0.000000 0.000000 0.000000
# 2 -0.000865 0.017097 -0.004424 0.000000 0.000000 0.000000
# 3 -0.002735 -0.004424 0.014426 0.000000 0.000000 0.000000
# 4 0.000000 0.000000 0.000000 0.034168 0.000000 0.000000
# 5 0.000000 0.000000 0.000000 0.000000 0.034521 0.000000
# 6 0.000000 0.000000 0.000000 0.000000 0.000000 0.030812
#
#
# Mechanical properties :
#
#
# Convention : Reuss Voigt Hill
#
# Bulk Modulus (GPa) = 34.72720 35.35526 35.04123
# Shear Modulus (GPa) = 29.41307 29.82521 29.61914
#
# Velocity S-wave (km/s) = 3.98536 4.01319 3.99930
# Velocity P-wave (km/s) = 6.31904 6.36915 6.34414
#
# Compressibility (1/GPa) = 0.02879587
#
# Stress axis : x y z
#
# Youngs Moduli (GPa) = 75.06817 58.48885 69.31956
#
# Poissons Ratio (x) = 0.05060 0.18960
# Poissons Ratio (y) = 0.06494 0.30667
# Poissons Ratio (z) = 0.20533 0.25875
#
# Static dielectric constant tensor:
#      x y z
#    x 3.345540 0.000000 0.000000 
#    y 0.000000 3.514080 0.000000 
#    z 0.000000 0.000000 3.305040 
# 
# 
# High freq. dielectric constant tensor:
#      x y z
#    x 1.709630 0.000000 0.000000 
#    y 0.000000 1.733760 0.000000 
#    z 0.000000 0.000000 1.706390 
# 
# From -- ./inp_files/20272.got.cif
#   From: 2010.03.12/outbox.cif.g09.slc.cpg/sg62_11_cif.got.tgz:20272.got - 2010.04.10 19:12:36.
