data_PCOD8254007
_publ_section_title
;
Structure prediction by ZEFSAII (Michael W. Deem and Ramdas Pophale) SiO2 
 PCOD8254007
Probable space group: P N M A
;
_chemical_formula_sum "Si O2"
_cell_formula_units_Z 64
_cell_length_a 8.363512
_cell_length_b 21.623639
_cell_length_c 18.152183
_cell_angle_alpha 90.000000
_cell_angle_beta 90.000000
_cell_angle_gamma 90.000000
_cell_volume 3282.814386
_symmetry_space_group_name_H-M "P N M A"
_symmetry_group_IT_number 62
_symmetry_cell_setting 'orthorhombic'
loop_
_space_group_symop_operation_xyz
x,y,z
1/2-x,-y,1/2+z
1/2+x,1/2-y,1/2-z
-x,1/2+y,-z
-x,-y,-z
1/2+x,y,1/2-z
1/2-x,1/2+y,1/2+z
x,1/2-y,z
loop_
_atom_site_type_symbol
_atom_site_label
_atom_site_fract_x
_atom_site_fract_y
_atom_site_fract_z
Si Si1 0.988597 0.623101 0.088438
Si Si2 0.286110 0.681012 0.290007
Si Si3 0.962097 0.870881 0.338419
Si Si4 0.024187 0.506556 0.700637
Si Si5 0.589636 0.072636 0.066586
Si Si6 0.747249 0.458281 0.495060
Si Si7 0.215521 0.322940 0.518988
Si Si8 0.374658 0.496308 0.650484
O O1 0.913019 0.670816 0.145229
O O2 0.841734 0.587170 0.050605
O O3 0.097105 0.663255 0.032975
O O4 0.103225 0.575723 0.131985
O O5 0.307620 0.750000 0.259908
O O6 0.321114 0.635393 0.221956
O O7 0.106889 0.674117 0.318825
O O8 0.031127 0.940834 0.334820
O O9 0.894445 0.852686 0.417572
O O10 0.211409 0.509926 0.691297
O O11 0.931083 0.558796 0.653563
O O12 0.003663 0.516501 0.788315
O O13 0.717517 0.025282 0.030471
O O14 0.416288 0.070149 0.028107
O O15 0.660899 0.141610 0.055638
O O16 0.624025 0.466002 0.426189
O O17 0.186252 0.250000 0.510309
#
# Coordination Sequence:
#
# PCOD8254007 Si02
#       8
#     8   8   8   8   8   8   8   8
#     4  12  22  37  56  83 118 155 196 243 291 353
#     4  12  24  35  51  75 112 162 202 237 280 348
#     4  12  22  39  53  77 115 158 204 249 290 348
#     4  11  22  37  58  86 117 150 195 245 304 352
#     4  10  21  40  60  87 118 155 195 254 303 354
#     4  10  21  38  61  88 119 150 198 253 314 349
#     4  12  24  39  57  82 117 162 204 241 292 358
#     4  11  22  36  56  88 118 149 187 238 308 355
#
# _framework density 19.495467000000001
#
# number of rings (size 3 to 8) (size 9 to 14) (size 15 to 20)
#    0.000    0.750    3.750    6.375    1.750    0.000 
#    0.000    0.625    0.000    0.000    0.000    8.750 
#    0.000    0.000    0.000    0.000    0.000    0.000 
#
# Total GULP energy -793547.078236 kJ/mol
# GULP energy per Si atom -12399.173097 kJ/mol
# Density = 1.945109 g / cm^3
# Si number density = 19.495467 Si / 1000 Ang^3
#
#
#
# Elastic Constant Matrix: (Units=GPa)
#
#
# Indices 1 2 3 4 5 6 
#
# 1 42.6270 12.5870 4.2524 0.0000 0.0000 0.0000
# 2 12.5870 72.2820 23.7341 0.0000 0.0000 0.0000
# 3 4.2524 23.7341 55.8300 0.0000 0.0000 0.0000
# 4 0.0000 0.0000 0.0000 25.4241 0.0000 0.0000
# 5 0.0000 0.0000 0.0000 0.0000 32.1781 0.0000
# 6 0.0000 0.0000 0.0000 0.0000 0.0000 20.9126
#
#
#
# Elastic Compliance Matrix: (Units=1/GPa)
#
#
# Indices 1 2 3 4 5 6 
#
# 1 0.024731 -0.004286 -0.000061 0.000000 0.000000 0.000000
# 2 -0.004286 0.016822 -0.006825 0.000000 0.000000 0.000000
# 3 -0.000061 -0.006825 0.020818 0.000000 0.000000 0.000000
# 4 0.000000 0.000000 0.000000 0.039333 0.000000 0.000000
# 5 0.000000 0.000000 0.000000 0.000000 0.031077 0.000000
# 6 0.000000 0.000000 0.000000 0.000000 0.000000 0.047818
#
#
# Mechanical properties :
#
#
# Convention : Reuss Voigt Hill
#
# Bulk Modulus (GPa) = 24.98419 27.98734 26.48576
# Shear Modulus (GPa) = 23.11756 24.38066 23.74911
#
# Velocity S-wave (km/s) = 3.44727 3.54019 3.49404
# Velocity P-wave (km/s) = 5.35613 5.57652 5.46743
#
# Compressibility (1/GPa) = 0.04002532
#
# Stress axis : x y z
#
# Youngs Moduli (GPa) = 40.43478 59.44559 48.03647
#
# Poissons Ratio (x) = 0.25481 0.00295
# Poissons Ratio (y) = 0.17332 0.32784
# Poissons Ratio (z) = 0.00249 0.40571
#
# Static dielectric constant tensor:
#      x y z
#    x 3.696180 0.000000 0.000000 
#    y 0.000000 3.336600 0.000000 
#    z 0.000000 0.000000 3.606530 
# 
# 
# High freq. dielectric constant tensor:
#      x y z
#    x 1.778760 0.000000 0.000000 
#    y 0.000000 1.723280 0.000000 
#    z 0.000000 0.000000 1.748480 
# 
# From -- ./inp_files/22547.got.cif
#   From: 2010.03.12/outbox.cif.g09.slc.cpg/sg62_12_cif.got.tgz:22547.got - 2010.04.10 19:12:36.
