data_PCOD8254219
_publ_section_title
;
Structure prediction by ZEFSAII (Michael W. Deem and Ramdas Pophale) SiO2 
 PCOD8254219
Probable space group: P N M A
;
_chemical_formula_sum "Si O2"
_cell_formula_units_Z 64
_cell_length_a 22.165680
_cell_length_b 8.600856
_cell_length_c 17.217370
_cell_angle_alpha 90.000000
_cell_angle_beta 90.000000
_cell_angle_gamma 90.000000
_cell_volume 3282.385219
_symmetry_space_group_name_H-M "P N M A"
_symmetry_group_IT_number 62
_symmetry_cell_setting 'orthorhombic'
loop_
_space_group_symop_operation_xyz
x,y,z
1/2-x,-y,1/2+z
1/2+x,1/2-y,1/2-z
-x,1/2+y,-z
-x,-y,-z
1/2+x,y,1/2-z
1/2-x,1/2+y,1/2+z
x,1/2-y,z
loop_
_atom_site_type_symbol
_atom_site_label
_atom_site_fract_x
_atom_site_fract_y
_atom_site_fract_z
Si Si1 0.529372 0.930867 0.634601
Si Si2 0.371129 0.932237 0.472871
Si Si3 0.067207 0.432127 0.410878
Si Si4 0.396559 0.067873 0.633248
Si Si5 0.607810 0.427350 0.759860
Si Si6 0.658209 0.067492 0.215457
Si Si7 0.059090 0.429666 0.580950
Si Si8 0.279866 0.570785 0.338732
O O1 0.533130 0.750000 0.614715
O O2 0.565850 0.023211 0.568349
O O3 0.460015 0.979939 0.637713
O O4 0.558972 0.962814 0.718472
O O5 0.372905 0.750000 0.490169
O O6 0.314003 0.975784 0.418508
O O7 0.363264 0.024751 0.552973
O O8 0.076148 0.250000 0.406663
O O9 0.110977 0.505345 0.346470
O O10 0.083776 0.492283 0.498174
O O11 0.999192 0.476657 0.391171
O O12 0.408471 0.250000 0.637424
O O13 0.352115 0.018290 0.702937
O O14 0.589790 0.250000 0.738891
O O15 0.608772 0.455726 0.852498
O O16 0.674987 0.462360 0.732209
O O17 0.649316 0.250000 0.229189
O O18 0.723348 0.038011 0.177901
O O19 0.040290 0.250000 0.572349
O O20 0.259399 0.750000 0.341136
#
# Coordination Sequence:
#
# PCOD8254219 Si02
#       8
#     8   8   8   8   8   8   8   8
#     4  11  21  34  56  87 122 153 185 228 284 341
#     4  10  21  40  62  85 116 150 188 233 283 338
#     4   9  19  34  52  78 111 144 177 222 278 332
#     4  12  24  38  58  85 115 149 191 234 287 343
#     4   9  18  34  56  81 110 148 190 232 279 332
#     4  11  23  39  57  80 114 151 191 236 283 335
#     4   9  17  32  55  81 108 138 180 227 275 332
#     4   9  20  39  59  79 109 147 187 231 279 334
#
# _framework density 19.498016
#
# number of rings (size 3 to 8) (size 9 to 14) (size 15 to 20)
#    0.000    2.000    0.000    4.875    0.000    6.000 
#    2.250    0.000    0.000    0.000    0.000    0.000 
#    0.000    0.000    0.000    0.000    0.000    0.000 
#
# Total GULP energy -793607.612082 kJ/mol
# GULP energy per Si atom -12400.118939 kJ/mol
# Density = 1.945364 g / cm^3
# Si number density = 19.498016 Si / 1000 Ang^3
#
#
#
# Elastic Constant Matrix: (Units=GPa)
#
#
# Indices 1 2 3 4 5 6 
#
# 1 77.9839 14.6571 48.7888 0.0000 0.0000 0.0000
# 2 14.6571 52.5474 23.3560 0.0000 0.0000 0.0000
# 3 48.7888 23.3560 130.8295 0.0000 0.0000 0.0000
# 4 0.0000 0.0000 0.0000 25.5070 0.0000 0.0000
# 5 0.0000 0.0000 0.0000 0.0000 19.2666 0.0000
# 6 0.0000 0.0000 0.0000 0.0000 0.0000 28.9147
#
#
#
# Elastic Compliance Matrix: (Units=1/GPa)
#
#
# Indices 1 2 3 4 5 6 
#
# 1 0.016932 -0.002082 -0.005943 0.000000 0.000000 0.000000
# 2 -0.002082 0.020927 -0.002960 0.000000 0.000000 0.000000
# 3 -0.005943 -0.002960 0.010388 0.000000 0.000000 0.000000
# 4 0.000000 0.000000 0.000000 0.039205 0.000000 0.000000
# 5 0.000000 0.000000 0.000000 0.000000 0.051903 0.000000
# 6 0.000000 0.000000 0.000000 0.000000 0.000000 0.034584
#
#
# Mechanical properties :
#
#
# Convention : Reuss Voigt Hill
#
# Bulk Modulus (GPa) = 38.05312 48.32942 43.19127
# Shear Modulus (GPa) = 24.42991 26.37493 25.40242
#
# Velocity S-wave (km/s) = 3.54353 3.68189 3.61338
# Velocity P-wave (km/s) = 6.02503 6.55101 6.29352
#
# Compressibility (1/GPa) = 0.02627905
#
# Stress axis : x y z
#
# Youngs Moduli (GPa) = 59.05848 47.78626 96.26416
#
# Poissons Ratio (x) = 0.09947 0.57208
# Poissons Ratio (y) = 0.12293 0.28490
# Poissons Ratio (z) = 0.35097 0.14143
#
# Static dielectric constant tensor:
#      x y z
#    x 3.337990 0.000000 0.000000 
#    y 0.000000 3.489360 0.000000 
#    z 0.000000 0.000000 3.889180 
# 
# 
# High freq. dielectric constant tensor:
#      x y z
#    x 1.738360 0.000000 0.000000 
#    y 0.000000 1.756650 0.000000 
#    z 0.000000 0.000000 1.774340 
# 
# From -- ./inp_files/21008.got.cif
#   From: 2010.03.12/outbox.cif.g09.slc.cpg/sg62_11_cif.got.tgz:21008.got - 2010.04.10 19:12:36.
