data_PCOD8254532
_publ_section_title
;
Structure prediction by ZEFSAII (Michael W. Deem and Ramdas Pophale) SiO2 
 PCOD8254532
Probable space group: P N M A
;
_chemical_formula_sum "Si O2"
_cell_formula_units_Z 64
_cell_length_a 29.269353
_cell_length_b 9.013108
_cell_length_c 12.505781
_cell_angle_alpha 90.000000
_cell_angle_beta 90.000000
_cell_angle_gamma 90.000000
_cell_volume 3299.123069
_symmetry_space_group_name_H-M "P N M A"
_symmetry_group_IT_number 62
_symmetry_cell_setting 'orthorhombic'
loop_
_space_group_symop_operation_xyz
x,y,z
1/2-x,-y,1/2+z
1/2+x,1/2-y,1/2-z
-x,1/2+y,-z
-x,-y,-z
1/2+x,y,1/2-z
1/2-x,1/2+y,1/2+z
x,1/2-y,z
loop_
_atom_site_type_symbol
_atom_site_label
_atom_site_fract_x
_atom_site_fract_y
_atom_site_fract_z
Si Si1 0.742108 0.922021 0.595507
Si Si2 0.173863 0.084252 0.288864
Si Si3 0.829729 0.420434 0.260320
Si Si4 0.950886 0.427452 0.004488
Si Si5 0.754184 0.909665 0.899238
Si Si6 0.917177 0.424866 0.771709
Si Si7 0.579220 0.074955 0.722160
Si Si8 0.502110 0.574622 0.117261
O O1 0.742551 0.750000 0.623220
O O2 0.794165 0.981162 0.615926
O O3 0.701117 0.990056 0.665207
O O4 0.730290 0.956611 0.474167
O O5 0.154683 0.250000 0.311908
O O6 0.210564 0.088905 0.195598
O O7 0.132178 0.977366 0.265731
O O8 0.845084 0.250000 0.238212
O O9 0.798348 0.431128 0.364944
O O10 0.873376 0.525087 0.275186
O O11 0.954440 0.250000 0.012368
O O12 0.926128 0.477583 0.893917
O O13 0.925316 0.490231 0.108803
O O14 0.000000 0.500000 0.000000
O O15 0.757788 0.750000 0.958572
O O16 0.918749 0.250000 0.769516
O O17 0.954349 0.483907 0.685700
O O18 0.577911 0.250000 0.699281
O O19 0.541032 0.030416 0.809099
O O20 0.504154 0.750000 0.098239
O O21 0.500000 0.500000 0.000000
#
# Coordination Sequence:
#
# PCOD8254532 Si02
#       8
#     8   8   8   8   8   8   8   8
#     4   9  19  36  56  78 112 150 186 233 284 334
#     4   9  20  37  55  81 113 146 187 231 278 337
#     4   9  20  38  56  80 114 151 189 232 286 344
#     4  11  22  39  62  88 121 155 191 239 294 346
#     4   9  19  36  56  79 112 149 188 235 282 335
#     4  10  22  40  59  84 118 151 188 237 286 339
#     4  11  23  40  60  87 120 152 194 244 289 346
#     4  10  23  43  61  83 116 151 191 237 284 338
#
# _framework density 19.399094999999999
#
# number of rings (size 3 to 8) (size 9 to 14) (size 15 to 20)
#    0.000    2.250    1.250    2.250    1.750    5.500 
#    0.000    7.500    0.000    0.000    0.000    0.000 
#    0.000    0.000    0.000    0.000    0.000    0.000 
#
# Total GULP energy -793043.026032 kJ/mol
# GULP energy per Si atom -12391.297282 kJ/mol
# Density = 1.935494 g / cm^3
# Si number density = 19.399095 Si / 1000 Ang^3
#
#
#
# Elastic Constant Matrix: (Units=GPa)
#
#
# Indices 1 2 3 4 5 6 
#
# 1 107.2776 28.5718 15.2362 0.0000 0.0000 0.0000
# 2 28.5718 43.6953 33.4339 0.0000 0.0000 0.0000
# 3 15.2362 33.4339 92.2645 0.0000 0.0000 0.0000
# 4 0.0000 0.0000 0.0000 34.5338 0.0000 0.0000
# 5 0.0000 0.0000 0.0000 0.0000 3.5164 0.0000
# 6 0.0000 0.0000 0.0000 0.0000 0.0000 31.6150
#
#
#
# Elastic Compliance Matrix: (Units=1/GPa)
#
#
# Indices 1 2 3 4 5 6 
#
# 1 0.011372 -0.008300 0.001130 0.000000 0.000000 0.000000
# 2 -0.008300 0.037724 -0.012300 0.000000 0.000000 0.000000
# 3 0.001130 -0.012300 0.015109 0.000000 0.000000 0.000000
# 4 0.000000 0.000000 0.000000 0.028957 0.000000 0.000000
# 5 0.000000 0.000000 0.000000 0.000000 0.284382 0.000000
# 6 0.000000 0.000000 0.000000 0.000000 0.000000 0.031631
#
#
# Mechanical properties :
#
#
# Convention : Reuss Voigt Hill
#
# Bulk Modulus (GPa) = 39.58050 44.19123 41.88587
# Shear Modulus (GPa) = 10.95203 24.99940 17.97572
#
# Velocity S-wave (km/s) = 2.37863 3.59373 3.04736
# Velocity P-wave (km/s) = 5.29069 6.32845 5.83270
#
# Compressibility (1/GPa) = 0.02526497
#
# Stress axis : x y z
#
# Youngs Moduli (GPa) = 87.93649 26.50803 66.18666
#
# Poissons Ratio (x) = 0.22003 -0.07479
# Poissons Ratio (y) = 0.72992 0.81406
# Poissons Ratio (z) = -0.09936 0.32604
#
# Static dielectric constant tensor:
#      x y z
#    x -30.018460 0.000000 0.000000 
#    y 0.000000 3.632760 0.000000 
#    z 0.000000 0.000000 3.842240 
# 
# 
# High freq. dielectric constant tensor:
#      x y z
#    x 1.763840 0.000000 0.000000 
#    y 0.000000 1.744630 0.000000 
#    z 0.000000 0.000000 1.756610 
# 
# From -- ./inp_files/15876.got.cif
#   From: 2010.03.12/outbox.cif.g09.slc.cpg/sg62_8_cif.got.tgz:15876.got - 2010.04.10 19:12:36.
