data_PCOD8254222
_publ_section_title
;
Structure prediction by ZEFSAII (Michael W. Deem and Ramdas Pophale) SiO2 
 PCOD8254222
Probable space group: P N M A
;
_chemical_formula_sum "Si O2"
_cell_formula_units_Z 64
_cell_length_a 30.750207
_cell_length_b 8.967558
_cell_length_c 11.930275
_cell_angle_alpha 90.000000
_cell_angle_beta 90.000000
_cell_angle_gamma 90.000000
_cell_volume 3289.824211
_symmetry_space_group_name_H-M "P N M A"
_symmetry_group_IT_number 62
_symmetry_cell_setting 'orthorhombic'
loop_
_space_group_symop_operation_xyz
x,y,z
1/2-x,-y,1/2+z
1/2+x,1/2-y,1/2-z
-x,1/2+y,-z
-x,-y,-z
1/2+x,y,1/2-z
1/2-x,1/2+y,1/2+z
x,1/2-y,z
loop_
_atom_site_type_symbol
_atom_site_label
_atom_site_fract_x
_atom_site_fract_y
_atom_site_fract_z
Si Si1 0.304162 0.425867 0.989128
Si Si2 0.292448 0.573919 0.545881
Si Si3 0.543149 0.080454 0.464435
Si Si4 0.625767 0.426285 0.602574
Si Si5 0.666832 0.926918 0.253217
Si Si6 0.046470 0.925460 0.487949
Si Si7 0.877702 0.426417 0.344145
Si Si8 0.419872 0.920803 0.769212
O O1 0.307856 0.250000 0.990803
O O2 0.254600 0.476849 0.002501
O O3 0.336134 0.488413 0.085918
O O4 0.319780 0.484571 0.869261
O O5 0.295009 0.750000 0.571609
O O6 0.328784 0.526244 0.455167
O O7 0.297059 0.479238 0.659111
O O8 0.538912 0.250000 0.502506
O O9 0.585829 0.013838 0.526314
O O10 0.545079 0.067178 0.329901
O O11 0.500000 0.000000 0.500000
O O12 0.624075 0.250000 0.616568
O O13 0.622188 0.498668 0.723872
O O14 0.659755 0.750000 0.258524
O O15 0.623733 0.016267 0.286555
O O16 0.039809 0.750000 0.483758
O O17 0.078039 0.970529 0.590308
O O18 0.067688 0.975983 0.372348
O O19 0.000000 0.000000 0.500000
O O20 0.874807 0.250000 0.328592
O O21 0.414440 0.750000 0.808818
#
# Coordination Sequence:
#
# PCOD8254222 Si02
#       8
#     8   8   8   8   8   8   8   8
#     4   9  20  39  61  85 119 158 193 240 302 352
#     4  10  21  40  62  85 120 160 195 244 302 353
#     4  10  23  41  60  86 118 153 196 242 295 351
#     4  10  22  40  59  85 120 157 196 241 293 353
#     4  11  21  38  63  90 119 155 202 252 298 355
#     4  11  24  42  63  90 123 158 200 249 301 356
#     4  10  22  41  60  84 120 158 195 242 295 350
#     4  11  22  41  65  89 119 157 200 248 302 359
#
# _framework density 19.453925999999999
#
# number of rings (size 3 to 8) (size 9 to 14) (size 15 to 20)
#    0.000    1.750    2.500    1.125    3.500    3.000 
#    0.000    1.250    0.000    0.000    0.000    0.000 
#    0.000    0.000    0.000    0.000    0.000    0.000 
#
# Total GULP energy -793648.903235 kJ/mol
# GULP energy per Si atom -12400.764113 kJ/mol
# Density = 1.940965 g / cm^3
# Si number density = 19.453926 Si / 1000 Ang^3
#
#
#
# Elastic Constant Matrix: (Units=GPa)
#
#
# Indices 1 2 3 4 5 6 
#
# 1 135.1853 37.6458 45.5986 0.0000 0.0000 0.0000
# 2 37.6458 43.4700 34.8470 0.0000 0.0000 0.0000
# 3 45.5986 34.8470 126.8503 0.0000 0.0000 0.0000
# 4 0.0000 0.0000 0.0000 37.7276 0.0000 0.0000
# 5 0.0000 0.0000 0.0000 0.0000 27.1007 0.0000
# 6 0.0000 0.0000 0.0000 0.0000 0.0000 28.2207
#
#
#
# Elastic Compliance Matrix: (Units=1/GPa)
#
#
# Indices 1 2 3 4 5 6 
#
# 1 0.009982 -0.007397 -0.001556 0.000000 0.000000 0.000000
# 2 -0.007397 0.034983 -0.006951 0.000000 0.000000 0.000000
# 3 -0.001556 -0.006951 0.010352 0.000000 0.000000 0.000000
# 4 0.000000 0.000000 0.000000 0.026506 0.000000 0.000000
# 5 0.000000 0.000000 0.000000 0.000000 0.036899 0.000000
# 6 0.000000 0.000000 0.000000 0.000000 0.000000 0.035435
#
#
# Mechanical properties :
#
#
# Convention : Reuss Voigt Hill
#
# Bulk Modulus (GPa) = 42.53833 60.18758 51.36296
# Shear Modulus (GPa) = 25.79952 31.10407 28.45180
#
# Velocity S-wave (km/s) = 3.64563 4.00291 3.82844
# Velocity P-wave (km/s) = 6.29560 7.23672 6.78250
#
# Compressibility (1/GPa) = 0.02350821
#
# Stress axis : x y z
#
# Youngs Moduli (GPa) = 100.17939 28.58559 96.59776
#
# Poissons Ratio (x) = 0.21145 0.15032
# Poissons Ratio (y) = 0.74105 0.67145
# Poissons Ratio (z) = 0.15590 0.19870
#
# Static dielectric constant tensor:
#      x y z
#    x 15.833380 0.000000 0.000000 
#    y 0.000000 3.372970 0.000000 
#    z 0.000000 0.000000 4.110730 
# 
# 
# High freq. dielectric constant tensor:
#      x y z
#    x 1.769050 0.000000 0.000000 
#    y 0.000000 1.742860 0.000000 
#    z 0.000000 0.000000 1.768870 
# 
# From -- ./inp_files/15802.got.cif
#   From: 2010.03.12/outbox.cif.g09.slc.cpg/sg62_8_cif.got.tgz:15802.got - 2010.04.10 19:12:36.
