data_PCOD8254128
_publ_section_title
;
Structure prediction by ZEFSAII (Michael W. Deem and Ramdas Pophale) SiO2 
 PCOD8254128
Probable space group: P N M A
;
_chemical_formula_sum "Si O2"
_cell_formula_units_Z 56
_cell_length_a 22.300735
_cell_length_b 22.244230
_cell_length_c 5.321590
_cell_angle_alpha 90.000000
_cell_angle_beta 90.000000
_cell_angle_gamma 90.000000
_cell_volume 2639.842189
_symmetry_space_group_name_H-M "P N M A"
_symmetry_group_IT_number 62
_symmetry_cell_setting 'orthorhombic'
loop_
_space_group_symop_operation_xyz
x,y,z
1/2-x,-y,1/2+z
1/2+x,1/2-y,1/2-z
-x,1/2+y,-z
-x,-y,-z
1/2+x,y,1/2-z
1/2-x,1/2+y,1/2+z
x,1/2-y,z
loop_
_atom_site_type_symbol
_atom_site_label
_atom_site_fract_x
_atom_site_fract_y
_atom_site_fract_z
Si Si1 0.801921 0.052816 0.376752
Si Si2 0.066977 0.375708 0.878846
Si Si3 0.096695 0.619118 0.809557
Si Si4 0.483169 0.566618 0.886173
Si Si5 0.443678 0.250000 0.256613
Si Si6 0.674883 0.445529 0.561204
Si Si7 0.903407 0.461216 0.762605
Si Si8 0.481586 0.750000 0.253241
O O1 0.833849 0.097244 0.176705
O O2 0.733314 0.073281 0.402669
O O3 0.845517 0.061082 0.611548
O O4 0.800607 0.982349 0.301794
O O5 0.042399 0.415639 0.653489
O O6 0.139322 0.384793 0.875555
O O7 0.059354 0.307031 0.803689
O O8 0.038383 0.390760 0.153748
O O9 0.095812 0.689430 0.743835
O O10 0.056306 0.580797 0.603983
O O11 0.071044 0.596783 0.081029
O O12 0.462632 0.496162 0.852456
O O13 0.467191 0.250000 0.538812
O O14 0.491901 0.250000 0.030890
O O15 0.623699 0.486205 0.435446
#
# Coordination Sequence:
#
# PCOD8254128 Si02
#       8
#     8   8   8   8   4   8   8   4
#     4  11  21  38  63  91 130 171 214 262 333 391
#     4  11  22  39  67  94 124 169 217 271 314 381
#     4  11  25  39  61  97 128 176 216 265 325 400
#     4  11  22  40  61  98 136 161 205 273 336 384
#     4  12  26  44  67  89 138 174 220 260 318 410
#     4  10  21  39  61  93 127 167 219 264 323 389
#     4  10  22  37  62  94 130 168 209 272 330 392
#     4  12  22  44  67  91 124 178 220 264 324 380
#
# _framework density 21.21339
#
# number of rings (size 3 to 8) (size 9 to 14) (size 15 to 20)
#    0.000    1.143    5.714    0.429    4.000    0.571 
#    0.000    0.714    0.000    0.000    0.000    0.000 
#    0.000    0.000    0.000    0.000    0.000    0.000 
#
# Total GULP energy -693859.260635 kJ/mol
# GULP energy per Si atom -12390.343940 kJ/mol
# Density = 2.116511 g / cm^3
# Si number density = 21.213390 Si / 1000 Ang^3
#
#
#
# Elastic Constant Matrix: (Units=GPa)
#
#
# Indices 1 2 3 4 5 6 
#
# 1 138.8871 49.2579 27.7847 0.0000 0.0000 0.0000
# 2 49.2579 155.2623 22.0220 0.0000 0.0000 0.0000
# 3 27.7847 22.0220 82.1651 0.0000 0.0000 0.0000
# 4 0.0000 0.0000 0.0000 30.6065 0.0000 0.0000
# 5 0.0000 0.0000 0.0000 0.0000 26.2578 0.0000
# 6 0.0000 0.0000 0.0000 0.0000 0.0000 27.3743
#
#
#
# Elastic Compliance Matrix: (Units=1/GPa)
#
#
# Indices 1 2 3 4 5 6 
#
# 1 0.008490 -0.002377 -0.002234 0.000000 0.000000 0.000000
# 2 -0.002377 0.007361 -0.001169 0.000000 0.000000 0.000000
# 3 -0.002234 -0.001169 0.013239 0.000000 0.000000 0.000000
# 4 0.000000 0.000000 0.000000 0.032673 0.000000 0.000000
# 5 0.000000 0.000000 0.000000 0.000000 0.038084 0.000000
# 6 0.000000 0.000000 0.000000 0.000000 0.000000 0.036531
#
#
# Mechanical properties :
#
#
# Convention : Reuss Voigt Hill
#
# Bulk Modulus (GPa) = 57.04348 63.82709 60.43529
# Shear Modulus (GPa) = 32.51398 35.33104 33.92251
#
# Velocity S-wave (km/s) = 3.91923 4.08549 4.00322
# Velocity P-wave (km/s) = 6.88689 7.23936 7.06532
#
# Compressibility (1/GPa) = 0.01753049
#
# Stress axis : x y z
#
# Youngs Moduli (GPa) = 117.78717 135.85979 75.53219
#
# Poissons Ratio (x) = 0.32289 0.16873
# Poissons Ratio (y) = 0.27993 0.08831
# Poissons Ratio (z) = 0.26313 0.15884
#
# Static dielectric constant tensor:
#      x y z
#    x 4.179520 0.000000 0.000000 
#    y 0.000000 3.997160 0.000000 
#    z 0.000000 0.000000 4.311160 
# 
# 
# High freq. dielectric constant tensor:
#      x y z
#    x 1.832100 0.000000 0.000000 
#    y 0.000000 1.810270 0.000000 
#    z 0.000000 0.000000 1.856790 
# 
# From -- ./inp_files/2324.got.cif
#   From: 2010.03.12/outbox.cif.g09.slc.cpg/sg62_2_cif.got.tgz:2324.got - 2010.04.10 19:12:36.
