data_PCOD8254522
_publ_section_title
;
Structure prediction by ZEFSAII (Michael W. Deem and Ramdas Pophale) SiO2 
 PCOD8254522
Probable space group: P N M A
;
_chemical_formula_sum "Si O2"
_cell_formula_units_Z 36
_cell_length_a 14.165914
_cell_length_b 13.970981
_cell_length_c 8.570421
_cell_angle_alpha 90.000000
_cell_angle_beta 90.000000
_cell_angle_gamma 90.000000
_cell_volume 1696.186721
_symmetry_space_group_name_H-M "P N M A"
_symmetry_group_IT_number 62
_symmetry_cell_setting 'orthorhombic'
loop_
_space_group_symop_operation_xyz
x,y,z
1/2-x,-y,1/2+z
1/2+x,1/2-y,1/2-z
-x,1/2+y,-z
-x,-y,-z
1/2+x,y,1/2-z
1/2-x,1/2+y,1/2+z
x,1/2-y,z
loop_
_atom_site_type_symbol
_atom_site_label
_atom_site_fract_x
_atom_site_fract_y
_atom_site_fract_z
Si Si1 0.348568 0.250000 0.769067
Si Si2 0.372314 0.957122 0.346393
Si Si3 0.470423 0.551428 0.843954
Si Si4 0.478859 0.750000 0.994994
Si Si5 0.814943 0.452989 0.834010
Si Si6 0.633135 0.250000 0.699314
O O1 0.360355 0.153836 0.666154
O O2 0.243996 0.250000 0.840938
O O3 0.423104 0.250000 0.910053
O O4 0.295730 0.950369 0.207328
O O5 0.409555 0.847640 0.376171
O O6 0.459087 0.023544 0.296517
O O7 0.324387 0.000968 0.497407
O O8 0.472299 0.663295 0.874803
O O9 0.366310 0.518916 0.794103
O O10 0.500000 0.500000 0.000000
O O11 0.391211 0.750000 0.115440
#
# Coordination Sequence:
#
# PCOD8254522 Si02
#       6
#     4   8   8   4   8   4
#     4  10  22  39  66  94 135 175 215 266 341 384
#     4  11  24  42  67  98 136 174 221 272 332 397
#     4  12  23  42  67  95 129 175 223 271 325 391
#     4  12  24  42  70 100 130 178 224 270 330 394
#     4  11  24  42  67  98 136 174 221 272 332 397
#     4  10  22  39  66  94 135 175 215 266 341 384
#
# _framework density 21.224079
#
# number of rings (size 3 to 8) (size 9 to 14) (size 15 to 20)
#    0.000    0.889    4.444    2.000    6.222    1.778 
#    0.000    2.222    0.000    0.000    0.000    0.000 
#    0.000    0.000    0.000    0.000    0.000    0.000 
#
# Total GULP energy -446426.920206 kJ/mol
# GULP energy per Si atom -12400.747783 kJ/mol
# Density = 2.117577 g / cm^3
# Si number density = 21.224079 Si / 1000 Ang^3
#
#
#
# Elastic Constant Matrix: (Units=GPa)
#
#
# Indices 1 2 3 4 5 6 
#
# 1 71.6053 12.1164 -10.5699 0.0000 0.0000 0.0000
# 2 12.1164 203.1794 37.0590 0.0000 0.0000 0.0000
# 3 -10.5699 37.0590 56.8483 0.0000 0.0000 0.0000
# 4 0.0000 0.0000 0.0000 36.1784 0.0000 0.0000
# 5 0.0000 0.0000 0.0000 0.0000 42.1860 0.0000
# 6 0.0000 0.0000 0.0000 0.0000 0.0000 26.7452
#
#
#
# Elastic Compliance Matrix: (Units=1/GPa)
#
#
# Indices 1 2 3 4 5 6 
#
# 1 0.014788 -0.001570 0.003773 0.000000 0.000000 0.000000
# 2 -0.001570 0.005753 -0.004042 0.000000 0.000000 0.000000
# 3 0.003773 -0.004042 0.020927 0.000000 0.000000 0.000000
# 4 0.000000 0.000000 0.000000 0.027641 0.000000 0.000000
# 5 0.000000 0.000000 0.000000 0.000000 0.023705 0.000000
# 6 0.000000 0.000000 0.000000 0.000000 0.000000 0.037390
#
#
# Mechanical properties :
#
#
# Convention : Reuss Voigt Hill
#
# Bulk Modulus (GPa) = 26.46214 45.42712 35.94463
# Shear Modulus (GPa) = 34.13489 40.55709 37.34599
#
# Velocity S-wave (km/s) = 4.01472 4.37613 4.19931
# Velocity P-wave (km/s) = 5.82973 6.85449 6.36277
#
# Compressibility (1/GPa) = 0.03778984
#
# Stress axis : x y z
#
# Youngs Moduli (GPa) = 67.62211 173.83340 47.78478
#
# Poissons Ratio (x) = 0.27293 -0.18030
# Poissons Ratio (y) = 0.10617 0.19315
# Poissons Ratio (z) = -0.25514 0.70264
#
# Static dielectric constant tensor:
#      x y z
#    x 4.030730 0.000000 0.000000 
#    y 0.000000 4.192480 0.000000 
#    z 0.000000 0.000000 0.373330 
# 
# 
# High freq. dielectric constant tensor:
#      x y z
#    x 1.841130 0.000000 0.000000 
#    y 0.000000 1.852300 0.000000 
#    z 0.000000 0.000000 1.808700 
# 
# From -- ./inp_files/6032.got.cif
#   From: 2010.03.12/outbox.cif.g09.slc.cpg/sg62_4_cif.got.tgz:6032.got - 2010.04.10 19:12:36.
