data_PCOD8254475
_publ_section_title
;
Structure prediction by ZEFSAII (Michael W. Deem and Ramdas Pophale) SiO2 
 PCOD8254475
Probable space group: P N M A
;
_chemical_formula_sum "Si O2"
_cell_formula_units_Z 48
_cell_length_a 11.153108
_cell_length_b 20.081967
_cell_length_c 11.086946
_cell_angle_alpha 90.000000
_cell_angle_beta 90.000000
_cell_angle_gamma 90.000000
_cell_volume 2483.213662
_symmetry_space_group_name_H-M "P N M A"
_symmetry_group_IT_number 62
_symmetry_cell_setting 'orthorhombic'
loop_
_space_group_symop_operation_xyz
x,y,z
1/2-x,-y,1/2+z
1/2+x,1/2-y,1/2-z
-x,1/2+y,-z
-x,-y,-z
1/2+x,y,1/2-z
1/2-x,1/2+y,1/2+z
x,1/2-y,z
loop_
_atom_site_type_symbol
_atom_site_label
_atom_site_fract_x
_atom_site_fract_y
_atom_site_fract_z
Si Si1 0.665252 0.674243 0.488729
Si Si2 0.059770 0.940730 0.154561
Si Si3 0.067901 0.327521 0.433366
Si Si4 0.446131 0.673940 0.657105
Si Si5 0.067051 0.940002 0.436022
Si Si6 0.336959 0.940107 0.515185
O O1 0.659820 0.750000 0.442242
O O2 0.625023 0.628537 0.377696
O O3 0.796643 0.654198 0.532139
O O4 0.578524 0.663173 0.603057
O O5 0.039173 0.944792 0.295653
O O6 0.929771 0.945839 0.094297
O O7 0.143358 0.000890 0.110507
O O8 0.039884 0.250000 0.454406
O O9 0.047115 0.348474 0.295303
O O10 0.978228 0.369113 0.515919
O O11 0.402081 0.750000 0.645663
O O12 0.350256 0.629832 0.584938
O O13 0.207492 0.946054 0.457686
O O14 0.000000 0.000000 0.500000
#
# Coordination Sequence:
#
# PCOD8254475 Si02
#       6
#     8   8   8   8   8   8
#     4   9  19  38  63  86 119 161 194 237 296 350
#     4  10  23  43  62  84 120 153 198 244 295 353
#     4  10  22  38  61  93 124 155 196 245 294 348
#     4   9  19  38  62  90 120 154 197 243 292 346
#     4  12  26  39  63  90 121 154 198 248 296 354
#     4  10  23  40  63  88 114 159 195 242 299 352
#
# _framework density 19.329789999999999
#
# number of rings (size 3 to 8) (size 9 to 14) (size 15 to 20)
#    0.000    2.000    0.000    2.000    7.000    1.333 
#    0.000    0.000    0.000    0.000    0.000    0.000 
#    0.000    0.000    0.000    0.000    0.000    0.000 
#
# Total GULP energy -595450.855945 kJ/mol
# GULP energy per Si atom -12405.226166 kJ/mol
# Density = 1.928579 g / cm^3
# Si number density = 19.329790 Si / 1000 Ang^3
#
#
#
# Elastic Constant Matrix: (Units=GPa)
#
#
# Indices 1 2 3 4 5 6 
#
# 1 98.4072 46.2113 40.7760 0.0000 0.0000 0.0000
# 2 46.2113 99.5349 61.2499 0.0000 0.0000 0.0000
# 3 40.7760 61.2499 157.1869 0.0000 0.0000 0.0000
# 4 0.0000 0.0000 0.0000 30.6604 0.0000 0.0000
# 5 0.0000 0.0000 0.0000 0.0000 19.4997 0.0000
# 6 0.0000 0.0000 0.0000 0.0000 0.0000 29.3380
#
#
#
# Elastic Compliance Matrix: (Units=1/GPa)
#
#
# Indices 1 2 3 4 5 6 
#
# 1 0.013214 -0.005295 -0.001364 0.000000 0.000000 0.000000
# 2 -0.005295 0.015338 -0.004603 0.000000 0.000000 0.000000
# 3 -0.001364 -0.004603 0.008509 0.000000 0.000000 0.000000
# 4 0.000000 0.000000 0.000000 0.032615 0.000000 0.000000
# 5 0.000000 0.000000 0.000000 0.000000 0.051283 0.000000
# 6 0.000000 0.000000 0.000000 0.000000 0.000000 0.034085
#
#
# Mechanical properties :
#
#
# Convention : Reuss Voigt Hill
#
# Bulk Modulus (GPa) = 68.79589 72.40036 70.59813
# Shear Modulus (GPa) = 27.41008 29.69242 28.55125
#
# Velocity S-wave (km/s) = 3.76975 3.92356 3.84742
# Velocity P-wave (km/s) = 7.39026 7.61987 7.50594
#
# Compressibility (1/GPa) = 0.01453575
#
# Stress axis : x y z
#
# Youngs Moduli (GPa) = 75.67833 65.19950 117.51752
#
# Poissons Ratio (x) = 0.34524 0.16035
# Poissons Ratio (y) = 0.40073 0.54091
# Poissons Ratio (z) = 0.10326 0.30010
#
# Static dielectric constant tensor:
#      x y z
#    x 3.498890 0.000000 0.000000 
#    y 0.000000 3.749580 0.000000 
#    z 0.000000 0.000000 3.444670 
# 
# 
# High freq. dielectric constant tensor:
#      x y z
#    x 1.755070 0.000000 0.000000 
#    y 0.000000 1.768220 0.000000 
#    z 0.000000 0.000000 1.749260 
# 
# From -- ./inp_files/12252.got.cif
#   From: 2010.03.12/outbox.cif.g09.slc.cpg/sg62_7_cif.got.tgz:12252.got - 2010.04.10 19:12:36.
