data_PCOD8254078
_publ_section_title
;
Structure prediction by ZEFSAII (Michael W. Deem and Ramdas Pophale) SiO2 
 PCOD8254078
Probable space group: P N M A
;
_chemical_formula_sum "Si O2"
_cell_formula_units_Z 64
_cell_length_a 15.410798
_cell_length_b 11.143192
_cell_length_c 18.991144
_cell_angle_alpha 90.000000
_cell_angle_beta 90.000000
_cell_angle_gamma 90.000000
_cell_volume 3261.263338
_symmetry_space_group_name_H-M "P N M A"
_symmetry_group_IT_number 62
_symmetry_cell_setting 'orthorhombic'
loop_
_space_group_symop_operation_xyz
x,y,z
1/2-x,-y,1/2+z
1/2+x,1/2-y,1/2-z
-x,1/2+y,-z
-x,-y,-z
1/2+x,y,1/2-z
1/2-x,1/2+y,1/2+z
x,1/2-y,z
loop_
_atom_site_type_symbol
_atom_site_label
_atom_site_fract_x
_atom_site_fract_y
_atom_site_fract_z
Si Si1 0.938741 0.387158 0.019400
Si Si2 0.788516 0.985155 0.237992
Si Si3 0.348913 0.619315 0.125700
Si Si4 0.946736 0.114303 0.181259
Si Si5 0.977228 0.392347 0.554414
Si Si6 0.710011 0.481549 0.456584
Si Si7 0.213940 0.886390 0.403857
Si Si8 0.136805 0.112496 0.181150
O O1 0.974598 0.250000 0.003261
O O2 0.915967 0.398864 0.101111
O O3 0.849414 0.403909 0.976362
O O4 0.000000 0.500000 0.000000
O O5 0.873667 0.066966 0.233533
O O6 0.705177 0.049705 0.269039
O O7 0.818804 0.883148 0.292734
O O8 0.763633 0.946803 0.160271
O O9 0.324271 0.750000 0.096489
O O10 0.452025 0.598669 0.116894
O O11 0.299738 0.522774 0.078140
O O12 0.960622 0.250000 0.202715
O O13 0.041464 0.052505 0.192413
O O14 0.974788 0.250000 0.525718
O O15 0.000000 0.500000 0.500000
O O16 0.884737 0.430977 0.586666
O O17 0.730986 0.404812 0.525490
O O18 0.659406 0.397803 0.401509
O O19 0.211851 0.750000 0.382895
O O20 0.136671 0.250000 0.202605
#
# Coordination Sequence:
#
# PCOD8254078 Si02
#       8
#     8   8   8   8   8   8   8   8
#     4  11  22  38  61  91 123 157 199 253 311 369
#     4  11  23  39  61  85 126 161 212 247 322 373
#     4  10  22  40  62  85 120 161 204 255 309 372
#     4  10  21  39  59  84 120 158 204 254 302 365
#     4  10  21  41  64  92 124 162 209 262 318 374
#     4  11  20  38  63  89 120 154 204 252 312 373
#     4  11  23  38  61  92 127 161 206 264 321 377
#     4  10  22  39  60  86 121 163 205 254 310 369
#
# _framework density 19.624296000000001
#
# number of rings (size 3 to 8) (size 9 to 14) (size 15 to 20)
#    0.000    1.500    3.750    1.500    1.750    0.500 
#    0.000    1.875    0.000    0.000    0.000    0.000 
#    0.000    0.000    0.000    0.000    0.000    0.000 
#
# Total GULP energy -792930.793905 kJ/mol
# GULP energy per Si atom -12389.543655 kJ/mol
# Density = 1.957963 g / cm^3
# Si number density = 19.624296 Si / 1000 Ang^3
#
#
#
# Elastic Constant Matrix: (Units=GPa)
#
#
# Indices 1 2 3 4 5 6 
#
# 1 122.4294 17.1283 37.5467 0.0000 0.0000 0.0000
# 2 17.1283 57.1579 7.9162 0.0000 0.0000 0.0000
# 3 37.5467 7.9162 82.9814 0.0000 0.0000 0.0000
# 4 0.0000 0.0000 0.0000 21.2223 0.0000 0.0000
# 5 0.0000 0.0000 0.0000 0.0000 35.0982 0.0000
# 6 0.0000 0.0000 0.0000 0.0000 0.0000 26.2035
#
#
#
# Elastic Compliance Matrix: (Units=1/GPa)
#
#
# Indices 1 2 3 4 5 6 
#
# 1 0.009786 -0.002350 -0.004204 0.000000 0.000000 0.000000
# 2 -0.002350 0.018294 -0.000682 0.000000 0.000000 0.000000
# 3 -0.004204 -0.000682 0.014018 0.000000 0.000000 0.000000
# 4 0.000000 0.000000 0.000000 0.047120 0.000000 0.000000
# 5 0.000000 0.000000 0.000000 0.000000 0.028492 0.000000
# 6 0.000000 0.000000 0.000000 0.000000 0.000000 0.038163
#
#
# Mechanical properties :
#
#
# Convention : Reuss Voigt Hill
#
# Bulk Modulus (GPa) = 36.19702 43.08346 39.64024
# Shear Modulus (GPa) = 27.84695 29.83664 28.84180
#
# Velocity S-wave (km/s) = 3.77105 3.90345 3.83782
# Velocity P-wave (km/s) = 6.11933 6.50521 6.31522
#
# Compressibility (1/GPa) = 0.02762658
#
# Stress axis : x y z
#
# Youngs Moduli (GPa) = 102.18704 54.66235 71.33704
#
# Poissons Ratio (x) = 0.12847 0.29988
# Poissons Ratio (y) = 0.24017 0.04863
# Poissons Ratio (z) = 0.42956 0.03727
#
# Static dielectric constant tensor:
#      x y z
#    x 3.982260 0.000000 0.000000 
#    y 0.000000 3.560200 0.000000 
#    z 0.000000 0.000000 3.555600 
# 
# 
# High freq. dielectric constant tensor:
#      x y z
#    x 1.785210 0.000000 0.000000 
#    y 0.000000 1.756730 0.000000 
#    z 0.000000 0.000000 1.755210 
# 
# From -- ./inp_files/24055.got.cif
#   From: 2010.03.12/outbox.cif.g09.slc.cpg/sg62_13_cif.got.tgz:24055.got - 2010.04.10 19:12:36.
