data_PCOD8254136
_publ_section_title
;
Structure prediction by ZEFSAII (Michael W. Deem and Ramdas Pophale) SiO2 
 PCOD8254136
Probable space group: P N M A
;
_chemical_formula_sum "Si O2"
_cell_formula_units_Z 48
_cell_length_a 20.488028
_cell_length_b 8.725693
_cell_length_c 13.916495
_cell_angle_alpha 90.000000
_cell_angle_beta 90.000000
_cell_angle_gamma 90.000000
_cell_volume 2487.883019
_symmetry_space_group_name_H-M "P N M A"
_symmetry_group_IT_number 62
_symmetry_cell_setting 'orthorhombic'
loop_
_space_group_symop_operation_xyz
x,y,z
1/2-x,-y,1/2+z
1/2+x,1/2-y,1/2-z
-x,1/2+y,-z
-x,-y,-z
1/2+x,y,1/2-z
1/2-x,1/2+y,1/2+z
x,1/2-y,z
loop_
_atom_site_type_symbol
_atom_site_label
_atom_site_fract_x
_atom_site_fract_y
_atom_site_fract_z
Si Si1 0.190545 0.573716 0.437148
Si Si2 0.117268 0.930438 0.750437
Si Si3 0.687020 0.429538 0.451041
Si Si4 0.258576 0.426912 0.732059
Si Si5 0.564065 0.929342 0.544872
Si Si6 0.935105 0.069562 0.456324
O O1 0.190638 0.750000 0.469116
O O2 0.254995 0.500295 0.484007
O O3 0.194739 0.552346 0.323815
O O4 0.125067 0.499647 0.481471
O O5 0.133534 0.750000 0.751361
O O6 0.075981 0.980904 0.844367
O O7 0.075426 0.974432 0.655712
O O8 0.184756 0.022619 0.752651
O O9 0.674701 0.250000 0.468089
O O10 0.706876 0.460982 0.342177
O O11 0.622683 0.521057 0.476825
O O12 0.257907 0.250000 0.698422
O O13 0.555922 0.750000 0.540577
O O14 0.500000 0.000000 0.500000
O O15 0.940093 0.250000 0.469170
O O16 0.000000 0.000000 0.500000
#
# Coordination Sequence:
#
# PCOD8254136 Si02
#       6
#     8   8   8   8   8   8
#     4   9  19  36  59  84 117 154 193 243 300 352
#     4  10  21  39  62  86 118 158 200 248 307 364
#     4  11  21  39  62  87 120 161 200 248 305 356
#     4  11  21  35  60  94 121 153 203 251 299 361
#     4  11  24  41  62  91 124 161 204 253 307 370
#     4  10  21  40  60  84 118 156 195 241 297 357
#
# _framework density 19.293510000000001
#
# number of rings (size 3 to 8) (size 9 to 14) (size 15 to 20)
#    0.000    1.667    3.333    1.500    0.000    2.667 
#    0.000    5.000    0.000    0.000    0.000    0.000 
#    0.000    0.000    0.000    0.000    0.000    0.000 
#
# Total GULP energy -595187.561362 kJ/mol
# GULP energy per Si atom -12399.740862 kJ/mol
# Density = 1.924960 g / cm^3
# Si number density = 19.293510 Si / 1000 Ang^3
#
#
#
# Elastic Constant Matrix: (Units=GPa)
#
#
# Indices 1 2 3 4 5 6 
#
# 1 145.4794 23.9621 52.8025 0.0000 0.0000 0.0000
# 2 23.9621 36.7240 25.9066 0.0000 0.0000 0.0000
# 3 52.8025 25.9066 105.4741 0.0000 0.0000 0.0000
# 4 0.0000 0.0000 0.0000 28.2612 0.0000 0.0000
# 5 0.0000 0.0000 0.0000 0.0000 36.2952 0.0000
# 6 0.0000 0.0000 0.0000 0.0000 0.0000 33.3750
#
#
#
# Elastic Compliance Matrix: (Units=1/GPa)
#
#
# Indices 1 2 3 4 5 6 
#
# 1 0.008691 -0.003147 -0.003578 0.000000 0.000000 0.000000
# 2 -0.003147 0.034076 -0.006795 0.000000 0.000000 0.000000
# 3 -0.003578 -0.006795 0.012941 0.000000 0.000000 0.000000
# 4 0.000000 0.000000 0.000000 0.035384 0.000000 0.000000
# 5 0.000000 0.000000 0.000000 0.000000 0.027552 0.000000
# 6 0.000000 0.000000 0.000000 0.000000 0.000000 0.029963
#
#
# Mechanical properties :
#
#
# Convention : Reuss Voigt Hill
#
# Bulk Modulus (GPa) = 34.87967 54.78001 44.82984
# Shear Modulus (GPa) = 26.99757 31.92001 29.45879
#
# Velocity S-wave (km/s) = 3.74479 4.07190 3.91176
# Velocity P-wave (km/s) = 6.06759 7.11068 6.60974
#
# Compressibility (1/GPa) = 0.02867000
#
# Stress axis : x y z
#
# Youngs Moduli (GPa) = 115.06514 29.34574 77.27344
#
# Poissons Ratio (x) = 0.09234 0.27647
# Poissons Ratio (y) = 0.36207 0.52504
# Poissons Ratio (z) = 0.41169 0.19939
#
# Static dielectric constant tensor:
#      x y z
#    x 3.643660 0.000000 0.000000 
#    y 0.000000 3.486450 0.000000 
#    z 0.000000 0.000000 3.453630 
# 
# 
# High freq. dielectric constant tensor:
#      x y z
#    x 1.752320 0.000000 0.000000 
#    y 0.000000 1.737440 0.000000 
#    z 0.000000 0.000000 1.765410 
# 
# From -- ./inp_files/19624.got.cif
#   From: 2010.03.12/outbox.cif.g09.slc.cpg/sg62_10_cif.got.tgz:19624.got - 2010.04.10 19:12:36.
