data_PCOD8254511
_publ_section_title
;
Structure prediction by ZEFSAII (Michael W. Deem and Ramdas Pophale) SiO2 
 PCOD8254511
Probable space group: P N M A
;
_chemical_formula_sum "Si O2"
_cell_formula_units_Z 64
_cell_length_a 23.420850
_cell_length_b 8.871753
_cell_length_c 15.269483
_cell_angle_alpha 90.000000
_cell_angle_beta 90.000000
_cell_angle_gamma 90.000000
_cell_volume 3172.754198
_symmetry_space_group_name_H-M "P N M A"
_symmetry_group_IT_number 62
_symmetry_cell_setting 'orthorhombic'
loop_
_space_group_symop_operation_xyz
x,y,z
1/2-x,-y,1/2+z
1/2+x,1/2-y,1/2-z
-x,1/2+y,-z
-x,-y,-z
1/2+x,y,1/2-z
1/2-x,1/2+y,1/2+z
x,1/2-y,z
loop_
_atom_site_type_symbol
_atom_site_label
_atom_site_fract_x
_atom_site_fract_y
_atom_site_fract_z
Si Si1 0.994215 0.574908 0.137554
Si Si2 0.003113 0.423835 0.315705
Si Si3 0.730123 0.426485 0.159523
Si Si4 0.705159 0.575606 0.482844
Si Si5 0.115668 0.572133 0.385506
Si Si6 0.787094 0.925421 0.322132
Si Si7 0.914927 0.575161 0.976228
Si Si8 0.389142 0.075598 0.084865
O O1 0.998609 0.750000 0.161202
O O2 0.054958 0.521991 0.099198
O O3 0.978649 0.480228 0.223249
O O4 0.943896 0.540233 0.069289
O O5 0.020709 0.250000 0.309003
O O6 0.954618 0.449093 0.388239
O O7 0.057906 0.520241 0.340227
O O8 0.721477 0.250000 0.170414
O O9 0.668545 0.503881 0.167735
O O10 0.771490 0.485184 0.234975
O O11 0.757247 0.468827 0.066406
O O12 0.686463 0.750000 0.486490
O O13 0.741328 0.538207 0.396959
O O14 0.650575 0.469591 0.481830
O O15 0.119036 0.750000 0.379419
O O16 0.117309 0.516453 0.485826
O O17 0.789417 0.750000 0.299757
O O18 0.849404 0.976977 0.352656
O O19 0.920847 0.750000 0.951600
O O20 0.371236 0.250000 0.093458
#
# Coordination Sequence:
#
# PCOD8254511 Si02
#       8
#     8   8   8   8   8   8   8   8
#     4  10  22  41  61  89 124 160 204 254 307 365
#     4  11  24  40  63  92 123 160 205 253 309 369
#     4  11  24  43  65  93 128 168 210 257 313 371
#     4  10  23  42  64  91 126 167 207 256 314 371
#     4  11  23  42  66  92 124 161 205 256 309 366
#     4  11  24  42  65  94 127 167 212 259 312 370
#     4  10  22  39  63  90 121 162 205 252 309 367
#     4  10  23  43  65  92 124 162 205 254 310 369
#
# _framework density 20.171748000000001
#
# number of rings (size 3 to 8) (size 9 to 14) (size 15 to 20)
#    0.000    1.500    1.250    2.625    3.500    5.000 
#    0.000    0.000    0.000    0.000    0.000    0.000 
#    0.000    0.000    0.000    0.000    0.000    0.000 
#
# Total GULP energy -794101.854770 kJ/mol
# GULP energy per Si atom -12407.841481 kJ/mol
# Density = 2.012584 g / cm^3
# Si number density = 20.171748 Si / 1000 Ang^3
#
#
#
# Elastic Constant Matrix: (Units=GPa)
#
#
# Indices 1 2 3 4 5 6 
#
# 1 72.2316 23.0828 -5.3256 0.0000 0.0000 0.0000
# 2 23.0828 65.3202 24.8839 0.0000 0.0000 0.0000
# 3 -5.3256 24.8839 68.0485 0.0000 0.0000 0.0000
# 4 0.0000 0.0000 0.0000 34.4481 0.0000 0.0000
# 5 0.0000 0.0000 0.0000 0.0000 16.6830 0.0000
# 6 0.0000 0.0000 0.0000 0.0000 0.0000 38.2998
#
#
#
# Elastic Compliance Matrix: (Units=1/GPa)
#
#
# Indices 1 2 3 4 5 6 
#
# 1 0.016482 -0.007338 0.003973 0.000000 0.000000 0.000000
# 2 -0.007338 0.021054 -0.008273 0.000000 0.000000 0.000000
# 3 0.003973 -0.008273 0.018032 0.000000 0.000000 0.000000
# 4 0.000000 0.000000 0.000000 0.029029 0.000000 0.000000
# 5 0.000000 0.000000 0.000000 0.000000 0.059941 0.000000
# 6 0.000000 0.000000 0.000000 0.000000 0.000000 0.026110
#
#
# Mechanical properties :
#
#
# Convention : Reuss Voigt Hill
#
# Bulk Modulus (GPa) = 30.96756 32.32029 31.64392
# Shear Modulus (GPa) = 24.42736 28.75015 26.58875
#
# Velocity S-wave (km/s) = 3.48367 3.77937 3.63453
# Velocity P-wave (km/s) = 5.61841 5.92471 5.77359
#
# Compressibility (1/GPa) = 0.03229186
#
# Stress axis : x y z
#
# Youngs Moduli (GPa) = 60.67101 47.49669 55.45782
#
# Poissons Ratio (x) = 0.34854 -0.22035
# Poissons Ratio (y) = 0.44521 0.45882
# Poissons Ratio (z) = -0.24107 0.39296
#
# Static dielectric constant tensor:
#      x y z
#    x 3.569080 0.000000 0.000000 
#    y 0.000000 3.680870 0.000000 
#    z 0.000000 0.000000 3.792800 
# 
# 
# High freq. dielectric constant tensor:
#      x y z
#    x 1.793640 0.000000 0.000000 
#    y 0.000000 1.795890 0.000000 
#    z 0.000000 0.000000 1.796350 
# 
# From -- ./inp_files/20967.got.cif
#   From: 2010.03.12/outbox.cif.g09.slc.cpg/sg62_11_cif.got.tgz:20967.got - 2010.04.10 19:12:36.
