data_PCOD8254450
_publ_section_title
;
Structure prediction by ZEFSAII (Michael W. Deem and Ramdas Pophale) SiO2 
 PCOD8254450
Probable space group: P N M A
;
_chemical_formula_sum "Si O2"
_cell_formula_units_Z 36
_cell_length_a 12.696808
_cell_length_b 9.928811
_cell_length_c 12.199189
_cell_angle_alpha 90.000000
_cell_angle_beta 90.000000
_cell_angle_gamma 90.000000
_cell_volume 1537.881087
_symmetry_space_group_name_H-M "P N M A"
_symmetry_group_IT_number 62
_symmetry_cell_setting 'orthorhombic'
loop_
_space_group_symop_operation_xyz
x,y,z
1/2-x,-y,1/2+z
1/2+x,1/2-y,1/2-z
-x,1/2+y,-z
-x,-y,-z
1/2+x,y,1/2-z
1/2-x,1/2+y,1/2+z
x,1/2-y,z
loop_
_atom_site_type_symbol
_atom_site_label
_atom_site_fract_x
_atom_site_fract_y
_atom_site_fract_z
Si Si1 0.282833 0.250000 0.596175
Si Si2 0.406658 0.250000 0.809340
Si Si3 0.972135 0.545586 0.725391
Si Si4 0.386677 0.520080 0.548132
Si Si5 0.155523 0.750000 0.744536
Si Si6 0.150068 0.250000 0.407466
Si Si7 0.255509 0.250000 0.003586
O O1 0.303775 0.250000 0.727036
O O2 0.333967 0.377391 0.540463
O O3 0.165107 0.250000 0.541498
O O4 0.479129 0.383002 0.791381
O O5 0.360388 0.250000 0.930956
O O6 0.896134 0.576173 0.828251
O O7 0.917505 0.616902 0.621450
O O8 0.085764 0.612375 0.749699
O O9 0.500000 0.500000 0.500000
O O10 0.316140 0.620691 0.476119
O O11 0.237749 0.750000 0.844305
O O12 0.213461 0.750000 0.629427
#
# Coordination Sequence:
#
# PCOD8254450 Si02
#       7
#     4   4   8   8   4   4   4
#     4  10  22  37  63  88 129 167 204 273 332 376
#     4  10  24  41  59  95 137 170 216 270 335 398
#     4  10  22  41  64  96 132 170 221 274 330 397
#     4  11  21  40  65  97 127 163 218 276 324 383
#     4  11  22  39  69  93 123 178 224 270 328 382
#     4  11  19  41  67  96 124 171 234 270 321 398
#     4  12  23  42  68  94 129 174 220 265 326 404
#
# _framework density 23.408829999999998
#
# number of rings (size 3 to 8) (size 9 to 14) (size 15 to 20)
#    0.000    1.333    2.222    4.000    0.000    0.889 
#    0.000    2.222    9.778    0.000    0.000    0.000 
#    0.000    0.000    0.000    0.000    0.000    0.000 
#
# Total GULP energy -446200.875499 kJ/mol
# GULP energy per Si atom -12394.468764 kJ/mol
# Density = 2.335555 g / cm^3
# Si number density = 23.408830 Si / 1000 Ang^3
#
#
#
# Elastic Constant Matrix: (Units=GPa)
#
#
# Indices 1 2 3 4 5 6 
#
# 1 50.6470 32.3558 -14.2393 0.0000 0.0000 0.0000
# 2 32.3558 175.8201 7.7826 0.0000 0.0000 0.0000
# 3 -14.2393 7.7826 48.8237 0.0000 0.0000 0.0000
# 4 0.0000 0.0000 0.0000 33.6672 0.0000 0.0000
# 5 0.0000 0.0000 0.0000 0.0000 29.9668 0.0000
# 6 0.0000 0.0000 0.0000 0.0000 0.0000 33.9557
#
#
#
# Elastic Compliance Matrix: (Units=1/GPa)
#
#
# Indices 1 2 3 4 5 6 
#
# 1 0.025236 -0.005005 0.008158 0.000000 0.000000 0.000000
# 2 -0.005005 0.006721 -0.002531 0.000000 0.000000 0.000000
# 3 0.008158 -0.002531 0.023264 0.000000 0.000000 0.000000
# 4 0.000000 0.000000 0.000000 0.029703 0.000000 0.000000
# 5 0.000000 0.000000 0.000000 0.000000 0.033370 0.000000
# 6 0.000000 0.000000 0.000000 0.000000 0.000000 0.029450
#
#
# Mechanical properties :
#
#
# Convention : Reuss Voigt Hill
#
# Bulk Modulus (GPa) = 17.71047 36.34323 27.02685
# Shear Modulus (GPa) = 30.24403 36.14406 33.19404
#
# Velocity S-wave (km/s) = 3.59833 3.93368 3.76974
# Velocity P-wave (km/s) = 4.98459 6.01589 5.52436
#
# Compressibility (1/GPa) = 0.05646378
#
# Stress axis : x y z
#
# Youngs Moduli (GPa) = 39.62663 148.79286 42.98404
#
# Poissons Ratio (x) = 0.74473 -0.35065
# Poissons Ratio (y) = 0.19834 0.10879
# Poissons Ratio (z) = -0.32326 0.37660
#
# Static dielectric constant tensor:
#      x y z
#    x 4.011380 0.000000 0.000000 
#    y 0.000000 4.270960 0.000000 
#    z 0.000000 0.000000 7.550950 
# 
# 
# High freq. dielectric constant tensor:
#      x y z
#    x 1.912460 0.000000 0.000000 
#    y 0.000000 1.943180 0.000000 
#    z 0.000000 0.000000 1.921030 
# 
# From -- ./inp_files/11913.got.cif
#   From: 2010.03.12/outbox.cif.g09.slc.cpg/sg62_6_cif.got.tgz:11913.got - 2010.04.10 19:12:36.
