data_PCOD8254001
_publ_section_title
;
Structure prediction by ZEFSAII (Michael W. Deem and Ramdas Pophale) SiO2 
 PCOD8254001
Probable space group: P N M A
;
_chemical_formula_sum "Si O2"
_cell_formula_units_Z 48
_cell_length_a 14.779322
_cell_length_b 9.041393
_cell_length_c 19.408028
_cell_angle_alpha 90.000000
_cell_angle_beta 90.000000
_cell_angle_gamma 90.000000
_cell_volume 2593.410521
_symmetry_space_group_name_H-M "P N M A"
_symmetry_group_IT_number 62
_symmetry_cell_setting 'orthorhombic'
loop_
_space_group_symop_operation_xyz
x,y,z
1/2-x,-y,1/2+z
1/2+x,1/2-y,1/2-z
-x,1/2+y,-z
-x,-y,-z
1/2+x,y,1/2-z
1/2-x,1/2+y,1/2+z
x,1/2-y,z
loop_
_atom_site_type_symbol
_atom_site_label
_atom_site_fract_x
_atom_site_fract_y
_atom_site_fract_z
Si Si1 0.085048 0.420104 0.531572
Si Si2 0.003197 0.075844 0.196992
Si Si3 0.705939 0.079623 0.330109
Si Si4 0.443127 0.922099 0.441122
Si Si5 0.384791 0.578284 0.191426
Si Si6 0.738989 0.417756 0.485982
O O1 0.076558 0.250000 0.513343
O O2 0.088578 0.450279 0.612742
O O3 0.176367 0.479025 0.495976
O O4 0.000000 0.500000 0.500000
O O5 0.986680 0.250000 0.188773
O O6 0.109749 0.040401 0.203817
O O7 0.960480 0.994875 0.131946
O O8 0.956004 0.015086 0.265043
O O9 0.732053 0.250000 0.317623
O O10 0.697231 0.044023 0.411251
O O11 0.782869 0.979032 0.294890
O O12 0.469811 0.750000 0.439527
O O13 0.337171 0.943853 0.456801
O O14 0.500000 0.000000 0.500000
O O15 0.389608 0.750000 0.211957
O O16 0.774274 0.250000 0.486853
#
# Coordination Sequence:
#
# PCOD8254001 Si02
#       6
#     8   8   8   8   8   8
#     4  10  21  38  61  86 112 147 191 235 285 340
#     4  11  22  38  59  85 116 152 193 237 286 343
#     4   9  18  36  59  81 108 148 190 229 280 338
#     4  11  21  35  57  87 120 153 189 234 285 337
#     4  10  22  39  58  85 114 148 191 236 287 342
#     4   9  18  35  57  82 113 146 184 231 279 332
#
# _framework density 18.508447
#
# number of rings (size 3 to 8) (size 9 to 14) (size 15 to 20)
#    0.000    2.000    1.667    2.000    0.000    4.667 
#    3.000    0.000    0.000    0.000    0.000    0.000 
#    0.000    0.000    0.000    0.000    0.000    0.000 
#
# Total GULP energy -595364.592332 kJ/mol
# GULP energy per Si atom -12403.429007 kJ/mol
# Density = 1.846632 g / cm^3
# Si number density = 18.508447 Si / 1000 Ang^3
#
#
#
# Elastic Constant Matrix: (Units=GPa)
#
#
# Indices 1 2 3 4 5 6 
#
# 1 144.5519 86.0631 51.6282 0.0000 0.0000 0.0000
# 2 86.0631 129.7883 49.0446 0.0000 0.0000 0.0000
# 3 51.6282 49.0446 49.5480 0.0000 0.0000 0.0000
# 4 0.0000 0.0000 0.0000 34.0878 0.0000 0.0000
# 5 0.0000 0.0000 0.0000 0.0000 32.9398 0.0000
# 6 0.0000 0.0000 0.0000 0.0000 0.0000 37.2861
#
#
#
# Elastic Compliance Matrix: (Units=1/GPa)
#
#
# Indices 1 2 3 4 5 6 
#
# 1 0.013208 -0.005683 -0.008137 0.000000 0.000000 0.000000
# 2 -0.005683 0.014755 -0.008683 0.000000 0.000000 0.000000
# 3 -0.008137 -0.008683 0.037255 0.000000 0.000000 0.000000
# 4 0.000000 0.000000 0.000000 0.029336 0.000000 0.000000
# 5 0.000000 0.000000 0.000000 0.000000 0.030358 0.000000
# 6 0.000000 0.000000 0.000000 0.000000 0.000000 0.026820
#
#
# Mechanical properties :
#
#
# Convention : Reuss Voigt Hill
#
# Bulk Modulus (GPa) = 49.47531 77.48445 63.47988
# Shear Modulus (GPa) = 24.57313 30.00622 27.28967
#
# Velocity S-wave (km/s) = 3.64768 4.03080 3.84401
# Velocity P-wave (km/s) = 6.67308 7.97611 7.35351
#
# Compressibility (1/GPa) = 0.02021210
#
# Stress axis : x y z
#
# Youngs Moduli (GPa) = 75.71260 67.77552 26.84201
#
# Poissons Ratio (x) = 0.38520 0.21840
# Poissons Ratio (y) = 0.43031 0.23306
# Poissons Ratio (z) = 0.61604 0.58847
#
# Static dielectric constant tensor:
#      x y z
#    x 3.508930 0.000000 0.000000 
#    y 0.000000 3.598520 0.000000 
#    z 0.000000 0.000000 3.726780 
# 
# 
# High freq. dielectric constant tensor:
#      x y z
#    x 1.727710 0.000000 0.000000 
#    y 0.000000 1.730470 0.000000 
#    z 0.000000 0.000000 1.699700 
# 
# From -- ./inp_files/26890.got.cif
#   From: 2010.03.12/outbox.cif.g09.slc.cpg/sg62_14_cif.got.tgz:26890.got - 2010.04.10 19:12:36.
