data_PCOD8254985
_publ_section_title
;
Structure prediction by ZEFSAII (Michael W. Deem and Ramdas Pophale) SiO2 
 PCOD8254985
Probable space group: P N M A
;
_chemical_formula_sum "Si O2"
_cell_formula_units_Z 32
_cell_length_a 10.291144
_cell_length_b 19.579835
_cell_length_c 8.321783
_cell_angle_alpha 90.000000
_cell_angle_beta 90.000000
_cell_angle_gamma 90.000000
_cell_volume 1676.830133
_symmetry_space_group_name_H-M "P N M A"
_symmetry_group_IT_number 62
_symmetry_cell_setting 'orthorhombic'
loop_
_space_group_symop_operation_xyz
x,y,z
1/2-x,-y,1/2+z
1/2+x,1/2-y,1/2-z
-x,1/2+y,-z
-x,-y,-z
1/2+x,y,1/2-z
1/2-x,1/2+y,1/2+z
x,1/2-y,z
loop_
_atom_site_type_symbol
_atom_site_label
_atom_site_fract_x
_atom_site_fract_y
_atom_site_fract_z
Si Si1 0.227949 0.532963 0.133883
Si Si2 0.269324 0.100749 0.293825
Si Si3 0.996345 0.435736 0.622064
Si Si4 0.001707 0.329990 0.361713
O O1 0.207670 0.553112 0.948919
O O2 0.394300 0.443370 0.736614
O O3 0.245284 0.450775 0.144582
O O4 0.359564 0.569095 0.199305
O O5 0.397161 0.146578 0.271198
O O6 0.146116 0.150122 0.307191
O O7 0.000000 0.500000 0.500000
O O8 0.965023 0.366044 0.529068
O O9 0.992793 0.250000 0.388323
#
# Coordination Sequence:
#
# PCOD8254985 Si02
#       4
#     8   8   8   8
#     4  11  20  37  63  91 116 151 204 252 293 341
#     4  11  21  37  61  90 119 155 203 248 296 353
#     4  11  21  40  58  89 122 153 199 249 293 349
#     4  11  23  40  58  85 125 162 195 242 303 360
#
# _framework density 19.083625999999999
#
# number of rings (size 3 to 8) (size 9 to 14) (size 15 to 20)
#    0.000    1.000    7.500    0.750    0.000    6.000 
#    0.000    6.250    0.000    0.000    0.000    0.000 
#    0.000    0.000    0.000    0.000    0.000    0.000 
#
# Total GULP energy -396763.571714 kJ/mol
# GULP energy per Si atom -12398.861616 kJ/mol
# Density = 1.904019 g / cm^3
# Si number density = 19.083626 Si / 1000 Ang^3
#
#
#
# Elastic Constant Matrix: (Units=GPa)
#
#
# Indices 1 2 3 4 5 6 
#
# 1 93.2702 27.8135 28.3065 0.0000 0.0000 0.0000
# 2 27.8135 153.7015 48.0050 0.0000 0.0000 0.0000
# 3 28.3065 48.0050 36.2967 0.0000 0.0000 0.0000
# 4 0.0000 0.0000 0.0000 27.5580 0.0000 0.0000
# 5 0.0000 0.0000 0.0000 0.0000 37.9269 0.0000
# 6 0.0000 0.0000 0.0000 0.0000 0.0000 26.4293
#
#
#
# Elastic Compliance Matrix: (Units=1/GPa)
#
#
# Indices 1 2 3 4 5 6 
#
# 1 0.014251 0.001520 -0.013125 0.000000 0.000000 0.000000
# 2 0.001520 0.011247 -0.016061 0.000000 0.000000 0.000000
# 3 -0.013125 -0.016061 0.059028 0.000000 0.000000 0.000000
# 4 0.000000 0.000000 0.000000 0.036287 0.000000 0.000000
# 5 0.000000 0.000000 0.000000 0.000000 0.026367 0.000000
# 6 0.000000 0.000000 0.000000 0.000000 0.000000 0.037837
#
#
# Mechanical properties :
#
#
# Convention : Reuss Voigt Hill
#
# Bulk Modulus (GPa) = 34.25159 54.61315 44.43237
# Shear Modulus (GPa) = 19.99355 30.32572 25.15963
#
# Velocity S-wave (km/s) = 3.24030 3.99067 3.63490
# Velocity P-wave (km/s) = 5.65566 7.06498 6.39923
#
# Compressibility (1/GPa) = 0.02919572
#
# Stress axis : x y z
#
# Youngs Moduli (GPa) = 70.16823 88.91050 16.94103
#
# Poissons Ratio (x) = -0.13518 0.22235
# Poissons Ratio (y) = -0.10668 0.27209
# Poissons Ratio (z) = 0.92096 1.42799
#
# Static dielectric constant tensor:
#      x y z
#    x 4.109390 0.000000 0.000000 
#    y 0.000000 3.348300 0.000000 
#    z 0.000000 0.000000 3.383350 
# 
# 
# High freq. dielectric constant tensor:
#      x y z
#    x 1.772740 0.000000 0.000000 
#    y 0.000000 1.721940 0.000000 
#    z 0.000000 0.000000 1.726760 
# 
# From -- ./inp_files/11952.got.cif
#   From: 2010.03.12/outbox.cif.g09.slc.cpg/sg62_6_cif.got.tgz:11952.got - 2010.04.10 19:12:36.
