data_PCOD8254329
_publ_section_title
;
Structure prediction by ZEFSAII (Michael W. Deem and Ramdas Pophale) SiO2 
 PCOD8254329
Probable space group: P N M A
;
_chemical_formula_sum "Si O2"
_cell_formula_units_Z 48
_cell_length_a 16.924589
_cell_length_b 8.544439
_cell_length_c 16.906332
_cell_angle_alpha 90.000000
_cell_angle_beta 90.000000
_cell_angle_gamma 90.000000
_cell_volume 2444.843577
_symmetry_space_group_name_H-M "P N M A"
_symmetry_group_IT_number 62
_symmetry_cell_setting 'orthorhombic'
loop_
_space_group_symop_operation_xyz
x,y,z
1/2-x,-y,1/2+z
1/2+x,1/2-y,1/2-z
-x,1/2+y,-z
-x,-y,-z
1/2+x,y,1/2-z
1/2-x,1/2+y,1/2+z
x,1/2-y,z
loop_
_atom_site_type_symbol
_atom_site_label
_atom_site_fract_x
_atom_site_fract_y
_atom_site_fract_z
Si Si1 0.177445 0.066126 0.844016
Si Si2 0.354205 0.067737 0.176663
Si Si3 0.500874 0.933785 0.087086
Si Si4 0.147281 0.933934 0.316416
Si Si5 0.587103 0.934430 0.507332
Si Si6 0.188772 0.565934 0.144634
O O1 0.169057 0.250000 0.827763
O O2 0.269144 0.018158 0.855973
O O3 0.142472 0.976369 0.768787
O O4 0.129466 0.018899 0.920663
O O5 0.370548 0.250000 0.165949
O O6 0.420856 0.972211 0.131765
O O7 0.271168 0.024394 0.136210
O O8 0.511374 0.750000 0.081184
O O9 0.575152 0.010215 0.134788
O O10 0.500000 0.000000 0.000000
O O11 0.136340 0.750000 0.318104
O O12 0.145372 0.990359 0.225065
O O13 0.585723 0.750000 0.521759
O O14 0.633165 0.979578 0.427825
O O15 0.500000 0.000000 0.500000
O O16 0.207469 0.750000 0.148209
#
# Coordination Sequence:
#
# PCOD8254329 Si02
#       6
#     8   8   8   8   8   8
#     4  10  21  41  65  88 119 162 203 249 306 361
#     4  11  23  40  62  91 122 159 204 251 305 363
#     4  11  23  39  61  91 124 161 202 250 304 363
#     4   8  18  38  63  86 113 155 202 243 298 359
#     4  11  24  39  61  94 126 159 203 251 303 362
#     4   9  20  41  64  88 117 158 204 249 302 361
#
# _framework density 19.63316
#
# number of rings (size 3 to 8) (size 9 to 14) (size 15 to 20)
#    0.000    2.000    0.000    4.000    4.667    1.333 
#    0.000    7.500    0.000    0.000    0.000    0.000 
#    0.000    0.000    0.000    0.000    0.000    0.000 
#
# Total GULP energy -595282.993047 kJ/mol
# GULP energy per Si atom -12401.729022 kJ/mol
# Density = 1.958847 g / cm^3
# Si number density = 19.633160 Si / 1000 Ang^3
#
#
#
# Elastic Constant Matrix: (Units=GPa)
#
#
# Indices 1 2 3 4 5 6 
#
# 1 135.2228 18.0924 85.4576 0.0000 0.0000 0.0000
# 2 18.0924 45.6752 8.8867 0.0000 0.0000 0.0000
# 3 85.4576 8.8867 100.9253 0.0000 0.0000 0.0000
# 4 0.0000 0.0000 0.0000 33.5724 0.0000 0.0000
# 5 0.0000 0.0000 0.0000 0.0000 34.3807 0.0000
# 6 0.0000 0.0000 0.0000 0.0000 0.0000 26.5335
#
#
#
# Elastic Compliance Matrix: (Units=1/GPa)
#
#
# Indices 1 2 3 4 5 6 
#
# 1 0.016563 -0.003899 -0.013681 0.000000 0.000000 0.000000
# 2 -0.003899 0.023193 0.001259 0.000000 0.000000 0.000000
# 3 -0.013681 0.001259 0.021382 0.000000 0.000000 0.000000
# 4 0.000000 0.000000 0.000000 0.029786 0.000000 0.000000
# 5 0.000000 0.000000 0.000000 0.000000 0.029086 0.000000
# 6 0.000000 0.000000 0.000000 0.000000 0.000000 0.037688
#
#
# Mechanical properties :
#
#
# Convention : Reuss Voigt Hill
#
# Bulk Modulus (GPa) = 35.09262 56.29963 45.69612
# Shear Modulus (GPa) = 25.02001 30.18977 27.60489
#
# Velocity S-wave (km/s) = 3.57371 3.92560 3.75378
# Velocity P-wave (km/s) = 5.91113 7.02034 6.48948
#
# Compressibility (1/GPa) = 0.02849602
#
# Stress axis : x y z
#
# Youngs Moduli (GPa) = 60.37479 43.11621 46.76818
#
# Poissons Ratio (x) = 0.16811 0.63986
# Poissons Ratio (y) = 0.23540 -0.05889
# Poissons Ratio (z) = 0.82601 -0.05429
#
# Static dielectric constant tensor:
#      x y z
#    x 4.258360 0.000000 0.000000 
#    y 0.000000 3.467470 0.000000 
#    z 0.000000 0.000000 3.604570 
# 
# 
# High freq. dielectric constant tensor:
#      x y z
#    x 1.776420 0.000000 0.000000 
#    y 0.000000 1.755620 0.000000 
#    z 0.000000 0.000000 1.775960 
# 
# From -- ./inp_files/23735.got.cif
#   From: 2010.03.12/outbox.cif.g09.slc.cpg/sg62_12_cif.got.tgz:23735.got - 2010.04.10 19:12:36.
