data_PCOD8254214
_publ_section_title
;
Structure prediction by ZEFSAII (Michael W. Deem and Ramdas Pophale) SiO2 
 PCOD8254214
Probable space group: P N M A
;
_chemical_formula_sum "Si O2"
_cell_formula_units_Z 56
_cell_length_a 13.574913
_cell_length_b 12.532038
_cell_length_c 16.572224
_cell_angle_alpha 90.000000
_cell_angle_beta 90.000000
_cell_angle_gamma 90.000000
_cell_volume 2819.288714
_symmetry_space_group_name_H-M "P N M A"
_symmetry_group_IT_number 62
_symmetry_cell_setting 'orthorhombic'
loop_
_space_group_symop_operation_xyz
x,y,z
1/2-x,-y,1/2+z
1/2+x,1/2-y,1/2-z
-x,1/2+y,-z
-x,-y,-z
1/2+x,y,1/2-z
1/2-x,1/2+y,1/2+z
x,1/2-y,z
loop_
_atom_site_type_symbol
_atom_site_label
_atom_site_fract_x
_atom_site_fract_y
_atom_site_fract_z
Si Si1 0.703548 0.371495 0.055253
Si Si2 0.844939 0.869717 0.942744
Si Si3 0.513194 0.370458 0.160531
Si Si4 0.281332 0.374180 0.736196
Si Si5 0.165371 0.496512 0.602927
Si Si6 0.333212 0.946335 0.383883
Si Si7 0.963543 0.992992 0.816904
O O1 0.738429 0.250000 0.042981
O O2 0.620292 0.381032 0.122274
O O3 0.798509 0.437362 0.084970
O O4 0.660793 0.414906 0.971274
O O5 0.862814 0.750000 0.912574
O O6 0.736231 0.904609 0.916137
O O7 0.924297 0.947563 0.901679
O O8 0.855056 0.872803 0.039161
O O9 0.472412 0.250000 0.151044
O O10 0.442111 0.455215 0.117631
O O11 0.524175 0.395751 0.254872
O O12 0.281199 0.250000 0.714987
O O13 0.201138 0.434234 0.681789
O O14 0.252126 0.392898 0.829533
O O15 0.390556 0.418475 0.719954
O O16 0.431735 0.952704 0.331511
#
# Coordination Sequence:
#
# PCOD8254214 Si02
#       7
#     8   8   8   8   8   8   8
#     4  10  22  39  62  90 123 165 208 255 312 369
#     4  10  22  39  62  90 122 163 207 255 309 367
#     4  11  21  37  63  93 128 165 203 255 313 366
#     4  11  23  40  62  88 123 166 208 258 316 368
#     4  10  21  40  61  89 127 157 209 255 304 373
#     4  11  22  42  62  89 126 162 212 263 305 375
#     4  11  23  41  60  94 127 161 206 265 308 376
#
# _framework density 19.863166
#
# number of rings (size 3 to 8) (size 9 to 14) (size 15 to 20)
#    0.000    1.429    2.857    2.571    0.000    2.286 
#    0.000    0.000    0.000    0.000    0.000    0.000 
#    0.000    0.000    0.000    0.000    0.000    0.000 
#
# Total GULP energy -694684.553347 kJ/mol
# GULP energy per Si atom -12405.081310 kJ/mol
# Density = 1.981796 g / cm^3
# Si number density = 19.863166 Si / 1000 Ang^3
#
#
#
# Elastic Constant Matrix: (Units=GPa)
#
#
# Indices 1 2 3 4 5 6 
#
# 1 84.3224 30.7149 24.1444 0.0000 0.0000 0.0000
# 2 30.7149 98.9731 17.3589 0.0000 0.0000 0.0000
# 3 24.1444 17.3589 107.3736 0.0000 0.0000 0.0000
# 4 0.0000 0.0000 0.0000 19.2655 0.0000 0.0000
# 5 0.0000 0.0000 0.0000 0.0000 30.5763 0.0000
# 6 0.0000 0.0000 0.0000 0.0000 0.0000 18.0588
#
#
#
# Elastic Compliance Matrix: (Units=1/GPa)
#
#
# Indices 1 2 3 4 5 6 
#
# 1 0.014002 -0.003904 -0.002517 0.000000 0.000000 0.000000
# 2 -0.003904 0.011487 -0.000979 0.000000 0.000000 0.000000
# 3 -0.002517 -0.000979 0.010038 0.000000 0.000000 0.000000
# 4 0.000000 0.000000 0.000000 0.051906 0.000000 0.000000
# 5 0.000000 0.000000 0.000000 0.000000 0.032705 0.000000
# 6 0.000000 0.000000 0.000000 0.000000 0.000000 0.055375
#
#
# Mechanical properties :
#
#
# Convention : Reuss Voigt Hill
#
# Bulk Modulus (GPa) = 48.24920 48.34505 48.29713
# Shear Modulus (GPa) = 25.35210 28.14350 26.74780
#
# Velocity S-wave (km/s) = 3.57646 3.76822 3.67359
# Velocity P-wave (km/s) = 6.43415 6.58213 6.50856
#
# Compressibility (1/GPa) = 0.02072573
#
# Stress axis : x y z
#
# Youngs Moduli (GPa) = 71.41808 87.05492 99.62474
#
# Poissons Ratio (x) = 0.33985 0.25080
# Poissons Ratio (y) = 0.27880 0.09756
# Poissons Ratio (z) = 0.17979 0.08525
#
# Static dielectric constant tensor:
#      x y z
#    x 3.470180 0.000000 0.000000 
#    y 0.000000 3.539860 0.000000 
#    z 0.000000 0.000000 3.721270 
# 
# 
# High freq. dielectric constant tensor:
#      x y z
#    x 1.770730 0.000000 0.000000 
#    y 0.000000 1.773880 0.000000 
#    z 0.000000 0.000000 1.788780 
# 
# From -- ./inp_files/18990.got.cif
#   From: 2010.03.12/outbox.cif.g09.slc.cpg/sg62_10_cif.got.tgz:18990.got - 2010.04.10 19:12:36.
