data_PCOD8254700
_publ_section_title
;
Structure prediction by ZEFSAII (Michael W. Deem and Ramdas Pophale) SiO2 
 PCOD8254700
Probable space group: P N M A
;
_chemical_formula_sum "Si O2"
_cell_formula_units_Z 48
_cell_length_a 5.546597
_cell_length_b 13.148617
_cell_length_c 27.001071
_cell_angle_alpha 90.000000
_cell_angle_beta 90.000000
_cell_angle_gamma 90.000000
_cell_volume 1969.190257
_symmetry_space_group_name_H-M "P N M A"
_symmetry_group_IT_number 62
_symmetry_cell_setting 'orthorhombic'
loop_
_space_group_symop_operation_xyz
x,y,z
1/2-x,-y,1/2+z
1/2+x,1/2-y,1/2-z
-x,1/2+y,-z
-x,-y,-z
1/2+x,y,1/2-z
1/2-x,1/2+y,1/2+z
x,1/2-y,z
loop_
_atom_site_type_symbol
_atom_site_label
_atom_site_fract_x
_atom_site_fract_y
_atom_site_fract_z
Si Si1 0.962411 0.370924 0.723729
Si Si2 0.876092 0.132372 0.953615
Si Si3 0.888273 0.973253 0.372053
Si Si4 0.276019 0.366850 0.269826
Si Si5 0.743751 0.535053 0.548830
Si Si6 0.522708 0.135832 0.367264
O O1 0.713496 0.407232 0.750116
O O2 0.964356 0.250000 0.719338
O O3 0.946825 0.418691 0.668801
O O4 0.923214 0.250000 0.961347
O O5 0.775711 0.113032 0.898410
O O6 0.694088 0.089199 0.996453
O O7 0.132060 0.076345 0.960743
O O8 0.728738 0.060919 0.346422
O O9 0.027358 0.027840 0.416466
O O10 0.020609 0.419014 0.254138
O O11 0.266664 0.250000 0.250866
O O12 0.296186 0.374061 0.329450
O O13 0.548005 0.605095 0.577275
O O14 0.625263 0.250000 0.366917
#
# Coordination Sequence:
#
# PCOD8254700 Si02
#       6
#     8   8   8   8   8   8
#     4  10  24  45  72 106 143 184 232 289 354 420
#     4  10  22  42  68  96 132 174 222 282 348 419
#     4  11  24  41  66  99 134 176 229 288 345 415
#     4   9  19  35  55  82 118 165 224 275 326 400
#     4  10  23  42  63  98 132 170 224 282 348 418
#     4  10  23  39  59  89 128 176 223 280 347 415
#
# _framework density 24.375499999999999
#
# number of rings (size 3 to 8) (size 9 to 14) (size 15 to 20)
#    0.000    2.000    0.000    1.500    7.000    4.000 
#    0.000    0.000    0.000    0.000    0.000    0.000 
#    0.000    0.000    0.000    0.000    0.000    0.000 
#
# Total GULP energy -595228.501741 kJ/mol
# GULP energy per Si atom -12400.593786 kJ/mol
# Density = 2.432002 g / cm^3
# Si number density = 24.375500 Si / 1000 Ang^3
#
#
#
# Elastic Constant Matrix: (Units=GPa)
#
#
# Indices 1 2 3 4 5 6 
#
# 1 116.9487 52.2906 33.0485 0.0000 0.0000 0.0000
# 2 52.2906 114.9051 49.6470 0.0000 0.0000 0.0000
# 3 33.0485 49.6470 109.4520 0.0000 0.0000 0.0000
# 4 0.0000 0.0000 0.0000 29.1156 0.0000 0.0000
# 5 0.0000 0.0000 0.0000 0.0000 28.7043 0.0000
# 6 0.0000 0.0000 0.0000 0.0000 0.0000 26.0455
#
#
#
# Elastic Compliance Matrix: (Units=1/GPa)
#
#
# Indices 1 2 3 4 5 6 
#
# 1 0.010880 -0.004393 -0.001293 0.000000 0.000000 0.000000
# 2 -0.004393 0.012598 -0.004388 0.000000 0.000000 0.000000
# 3 -0.001293 -0.004388 0.011517 0.000000 0.000000 0.000000
# 4 0.000000 0.000000 0.000000 0.034346 0.000000 0.000000
# 5 0.000000 0.000000 0.000000 0.000000 0.034838 0.000000
# 6 0.000000 0.000000 0.000000 0.000000 0.000000 0.038394
#
#
# Mechanical properties :
#
#
# Convention : Reuss Voigt Hill
#
# Bulk Modulus (GPa) = 67.34785 67.91978 67.63382
# Shear Modulus (GPa) = 29.82058 30.52772 30.17415
#
# Velocity S-wave (km/s) = 3.50148 3.54276 3.52218
# Velocity P-wave (km/s) = 6.63600 6.68276 6.65942
#
# Compressibility (1/GPa) = 0.01484828
#
# Stress axis : x y z
#
# Youngs Moduli (GPa) = 91.91030 79.37903 86.82751
#
# Poissons Ratio (x) = 0.34870 0.11224
# Poissons Ratio (y) = 0.40374 0.38099
# Poissons Ratio (z) = 0.11881 0.34831
#
# Static dielectric constant tensor:
#      x y z
#    x 4.365050 0.000000 0.000000 
#    y 0.000000 4.317140 0.000000 
#    z 0.000000 0.000000 4.535030 
# 
# 
# High freq. dielectric constant tensor:
#      x y z
#    x 1.959650 0.000000 0.000000 
#    y 0.000000 1.973710 0.000000 
#    z 0.000000 0.000000 1.979300 
# 
# From -- ./inp_files/30401.got.cif
#   From: 2010.03.12/outbox.cif.g09.slc.cpg/sg62_16_cif.got.tgz:30401.got - 2010.04.10 19:12:36.
