data_PCOD8254783
_publ_section_title
;
Structure prediction by ZEFSAII (Michael W. Deem and Ramdas Pophale) SiO2 
 PCOD8254783
Probable space group: P N M A
;
_chemical_formula_sum "Si O2"
_cell_formula_units_Z 56
_cell_length_a 19.757589
_cell_length_b 8.985342
_cell_length_c 16.300633
_cell_angle_alpha 90.000000
_cell_angle_beta 90.000000
_cell_angle_gamma 90.000000
_cell_volume 2893.830092
_symmetry_space_group_name_H-M "P N M A"
_symmetry_group_IT_number 62
_symmetry_cell_setting 'orthorhombic'
loop_
_space_group_symop_operation_xyz
x,y,z
1/2-x,-y,1/2+z
1/2+x,1/2-y,1/2-z
-x,1/2+y,-z
-x,-y,-z
1/2+x,y,1/2-z
1/2-x,1/2+y,1/2+z
x,1/2-y,z
loop_
_atom_site_type_symbol
_atom_site_label
_atom_site_fract_x
_atom_site_fract_y
_atom_site_fract_z
Si Si1 0.811459 0.077686 0.983832
Si Si2 0.518756 0.422720 0.733612
Si Si3 0.221781 0.425858 0.180362
Si Si4 0.859153 0.578458 0.350728
Si Si5 0.873926 0.075853 0.694267
Si Si6 0.662748 0.079372 0.035112
Si Si7 0.549210 0.575545 0.564253
O O1 0.813607 0.250000 0.957501
O O2 0.816514 0.984434 0.900332
O O3 0.742680 0.041320 0.032187
O O4 0.873598 0.034211 0.042138
O O5 0.522120 0.250000 0.709023
O O6 0.572225 0.462251 0.804281
O O7 0.445637 0.467510 0.767036
O O8 0.534543 0.519845 0.654802
O O9 0.219197 0.250000 0.181034
O O10 0.299279 0.477708 0.184568
O O11 0.184908 0.486443 0.260632
O O12 0.837874 0.750000 0.338199
O O13 0.870668 0.546337 0.446866
O O14 0.859715 0.250000 0.701461
O O15 0.873770 0.028284 0.599288
O O16 0.651475 0.250000 0.061444
O O17 0.500000 0.500000 0.500000
O O18 0.536466 0.750000 0.560234
#
# Coordination Sequence:
#
# PCOD8254783 Si02
#       7
#     8   8   8   8   8   8   8
#     4   9  20  39  59  82 116 152 188 238 297 347
#     4  10  23  41  60  85 118 157 197 240 295 355
#     4  11  22  36  59  88 117 151 196 243 288 346
#     4   9  20  41  63  85 116 154 192 241 301 351
#     4  11  23  38  57  84 119 156 195 239 292 349
#     4   9  19  37  60  85 114 149 192 241 293 346
#     4  11  23  38  59  87 120 157 196 242 293 351
#
# _framework density 19.351516
#
# number of rings (size 3 to 8) (size 9 to 14) (size 15 to 20)
#    0.000    2.000    0.000    3.857    2.000    9.143 
#    0.000    0.000    0.000    0.000    0.000    0.000 
#    0.000    0.000    0.000    0.000    0.000    0.000 
#
# Total GULP energy -694675.104245 kJ/mol
# GULP energy per Si atom -12404.912576 kJ/mol
# Density = 1.930747 g / cm^3
# Si number density = 19.351516 Si / 1000 Ang^3
#
#
#
# Elastic Constant Matrix: (Units=GPa)
#
#
# Indices 1 2 3 4 5 6 
#
# 1 38.3030 26.7674 25.7961 0.0000 0.0000 0.0000
# 2 26.7674 84.6803 43.7693 0.0000 0.0000 0.0000
# 3 25.7961 43.7693 100.4127 0.0000 0.0000 0.0000
# 4 0.0000 0.0000 0.0000 38.2975 0.0000 0.0000
# 5 0.0000 0.0000 0.0000 0.0000 36.9692 0.0000
# 6 0.0000 0.0000 0.0000 0.0000 0.0000 19.0946
#
#
#
# Elastic Compliance Matrix: (Units=1/GPa)
#
#
# Indices 1 2 3 4 5 6 
#
# 1 0.035711 -0.008450 -0.005491 0.000000 0.000000 0.000000
# 2 -0.008450 0.017243 -0.005345 0.000000 0.000000 0.000000
# 3 -0.005491 -0.005345 0.013699 0.000000 0.000000 0.000000
# 4 0.000000 0.000000 0.000000 0.026111 0.000000 0.000000
# 5 0.000000 0.000000 0.000000 0.000000 0.027050 0.000000
# 6 0.000000 0.000000 0.000000 0.000000 0.000000 0.052371
#
#
# Mechanical properties :
#
#
# Convention : Reuss Voigt Hill
#
# Bulk Modulus (GPa) = 35.61140 46.22908 40.92024
# Shear Modulus (GPa) = 22.71514 27.34315 25.02914
#
# Velocity S-wave (km/s) = 3.42982 3.76303 3.60028
# Velocity P-wave (km/s) = 5.84185 6.54381 6.20277
#
# Compressibility (1/GPa) = 0.02808090
#
# Stress axis : x y z
#
# Youngs Moduli (GPa) = 28.00281 57.99432 72.99551
#
# Poissons Ratio (x) = 0.49006 0.40080
# Poissons Ratio (y) = 0.23663 0.39018
# Poissons Ratio (z) = 0.15376 0.31000
#
# Static dielectric constant tensor:
#      x y z
#    x 3.726520 0.000000 0.000000 
#    y 0.000000 3.500670 0.000000 
#    z 0.000000 0.000000 3.725880 
# 
# 
# High freq. dielectric constant tensor:
#      x y z
#    x 1.757740 0.000000 0.000000 
#    y 0.000000 1.751790 0.000000 
#    z 0.000000 0.000000 1.760310 
# 
# From -- ./inp_files/20234.got.cif
#   From: 2010.03.12/outbox.cif.g09.slc.cpg/sg62_11_cif.got.tgz:20234.got - 2010.04.10 19:12:36.
