data_PCOD8254919
_publ_section_title
;
Structure prediction by ZEFSAII (Michael W. Deem and Ramdas Pophale) SiO2 
 PCOD8254919
Probable space group: P N M A
;
_chemical_formula_sum "Si O2"
_cell_formula_units_Z 36
_cell_length_a 10.391013
_cell_length_b 18.212679
_cell_length_c 8.496625
_cell_angle_alpha 90.000000
_cell_angle_beta 90.000000
_cell_angle_gamma 90.000000
_cell_volume 1607.970854
_symmetry_space_group_name_H-M "P N M A"
_symmetry_group_IT_number 62
_symmetry_cell_setting 'orthorhombic'
loop_
_space_group_symop_operation_xyz
x,y,z
1/2-x,-y,1/2+z
1/2+x,1/2-y,1/2-z
-x,1/2+y,-z
-x,-y,-z
1/2+x,y,1/2-z
1/2-x,1/2+y,1/2+z
x,1/2-y,z
loop_
_atom_site_type_symbol
_atom_site_label
_atom_site_fract_x
_atom_site_fract_y
_atom_site_fract_z
Si Si1 0.682174 0.750000 0.379599
Si Si2 0.982711 0.985064 0.817145
Si Si3 0.722723 0.900295 0.823932
Si Si4 0.951294 0.750000 0.516302
Si Si5 0.874382 0.250000 0.203181
Si Si6 0.110302 0.871701 0.352875
O O1 0.799864 0.750000 0.502181
O O2 0.574687 0.750000 0.519546
O O3 0.685163 0.676873 0.276256
O O4 0.863820 0.930665 0.783233
O O5 0.113101 0.952621 0.746724
O O6 0.957837 0.060863 0.729433
O O7 0.000000 0.000000 0.000000
O O8 0.711541 0.820644 0.746678
O O9 0.710348 0.897486 0.013772
O O10 0.994098 0.750000 0.697263
O O11 0.000307 0.822565 0.429609
#
# Coordination Sequence:
#
# PCOD8254919 Si02
#       6
#     4   8   8   4   4   8
#     4  11  23  43  74  94 139 185 228 292 354 425
#     4  12  26  44  72 105 142 191 239 292 363 420
#     4  11  26  45  72 102 143 189 233 303 350 429
#     4   9  23  41  70  96 135 187 219 301 343 417
#     4  10  24  46  66 104 132 178 243 283 361 418
#     4  10  24  45  64 103 138 179 238 284 353 423
#
# _framework density 22.388466999999999
#
# number of rings (size 3 to 8) (size 9 to 14) (size 15 to 20)
#    0.000    1.333    0.000    4.000   12.444    0.000 
#    0.000    0.000    0.000    0.000    0.000    0.000 
#    0.000    0.000    0.000    0.000    0.000    0.000 
#
# Total GULP energy -446461.399080 kJ/mol
# GULP energy per Si atom -12401.705530 kJ/mol
# Density = 2.233751 g / cm^3
# Si number density = 22.388467 Si / 1000 Ang^3
#
#
#
# Elastic Constant Matrix: (Units=GPa)
#
#
# Indices 1 2 3 4 5 6 
#
# 1 83.4517 13.7108 22.6602 0.0000 0.0000 0.0000
# 2 13.7108 119.7439 32.1674 0.0000 0.0000 0.0000
# 3 22.6602 32.1674 169.3278 0.0000 0.0000 0.0000
# 4 0.0000 0.0000 0.0000 -16.8689 0.0000 0.0000
# 5 0.0000 0.0000 0.0000 0.0000 27.3992 0.0000
# 6 0.0000 0.0000 0.0000 0.0000 0.0000 15.4102
#
#
#
# Elastic Compliance Matrix: (Units=1/GPa)
#
#
# Indices 1 2 3 4 5 6 
#
# 1 0.012556 -0.001039 -0.001483 0.000000 0.000000 0.000000
# 2 -0.001039 0.008886 -0.001549 0.000000 0.000000 0.000000
# 3 -0.001483 -0.001549 0.006398 0.000000 0.000000 0.000000
# 4 0.000000 0.000000 0.000000 -0.059281 0.000000 0.000000
# 5 0.000000 0.000000 0.000000 0.000000 0.036497 0.000000
# 6 0.000000 0.000000 0.000000 0.000000 0.000000 0.064892
#
#
# Mechanical properties :
#
#
# Convention : Reuss Voigt Hill
#
# Bulk Modulus (GPa) = 50.76528 56.62224 53.69376
# Shear Modulus (GPa) = 59.06082 25.45378 42.25730
#
# Velocity S-wave (km/s) = 5.14172 3.37547 4.34920
# Velocity P-wave (km/s) = 7.61405 6.36691 7.01823
#
# Compressibility (1/GPa) = 0.01969850
#
# Stress axis : x y z
#
# Youngs Moduli (GPa) = 79.64067 112.53284 156.28837
#
# Poissons Ratio (x) = 0.11696 0.23176
# Poissons Ratio (y) = 0.08278 0.24210
# Poissons Ratio (z) = 0.11810 0.17432
#
# Static dielectric constant tensor:
#      x y z
#    x 3.817140 0.000000 0.000000 
#    y 0.000000 4.253410 0.000000 
#    z 0.000000 0.000000 4.399470 
# 
# 
# High freq. dielectric constant tensor:
#      x y z
#    x 1.870750 0.000000 0.000000 
#    y 0.000000 1.901190 0.000000 
#    z 0.000000 0.000000 1.906790 
# 
# From -- ./inp_files/4217.got.cif
#   From: 2010.03.12/outbox.cif.g09.slc.cpg/sg62_3_cif.got.tgz:4217.got - 2010.04.10 19:12:36.
