data_PCOD8254501
_publ_section_title
;
Structure prediction by ZEFSAII (Michael W. Deem and Ramdas Pophale) SiO2 
 PCOD8254501
Probable space group: P N M A
;
_chemical_formula_sum "Si O2"
_cell_formula_units_Z 48
_cell_length_a 20.237045
_cell_length_b 8.573868
_cell_length_c 14.306805
_cell_angle_alpha 90.000000
_cell_angle_beta 90.000000
_cell_angle_gamma 90.000000
_cell_volume 2482.370195
_symmetry_space_group_name_H-M "P N M A"
_symmetry_group_IT_number 62
_symmetry_cell_setting 'orthorhombic'
loop_
_space_group_symop_operation_xyz
x,y,z
1/2-x,-y,1/2+z
1/2+x,1/2-y,1/2-z
-x,1/2+y,-z
-x,-y,-z
1/2+x,y,1/2-z
1/2-x,1/2+y,1/2+z
x,1/2-y,z
loop_
_atom_site_type_symbol
_atom_site_label
_atom_site_fract_x
_atom_site_fract_y
_atom_site_fract_z
Si Si1 0.868830 0.929552 0.503876
Si Si2 0.311171 0.429688 0.692136
Si Si3 0.075527 0.931441 0.676404
Si Si4 0.305348 0.068588 0.309715
Si Si5 0.927293 0.570580 0.703235
Si Si6 0.226864 0.069770 0.002555
O O1 0.846222 0.750000 0.500781
O O2 0.910025 0.967833 0.596248
O O3 0.915281 0.967018 0.416378
O O4 0.804603 0.037111 0.501484
O O5 0.293355 0.250000 0.708412
O O6 0.259909 0.533809 0.750074
O O7 0.385076 0.463507 0.727409
O O8 0.307639 0.468905 0.582959
O O9 0.081756 0.750000 0.649357
O O10 0.130195 0.980438 0.751869
O O11 0.004079 0.969018 0.719860
O O12 0.305034 0.250000 0.335321
O O13 0.307132 0.971065 0.404678
O O14 0.911975 0.750000 0.726707
O O15 0.215801 0.250000 0.025580
#
# Coordination Sequence:
#
# PCOD8254501 Si02
#       6
#     8   8   8   8   8   8
#     4  11  21  34  59  90 125 159 196 247 301 360
#     4  12  24  39  62  90 120 159 203 249 301 358
#     4  10  22  39  61  88 124 164 201 244 303 363
#     4  11  22  39  62  89 122 158 200 250 298 358
#     4  10  22  40  60  88 125 164 201 246 301 360
#     4  12  24  39  61  89 121 157 203 253 300 355
#
# _framework density 19.336359000000002
#
# number of rings (size 3 to 8) (size 9 to 14) (size 15 to 20)
#    0.000    1.000    3.333    4.500    0.000    2.000 
#    0.000    0.833    0.000    0.000    0.000    0.000 
#    0.000    0.000    0.000    0.000    0.000    0.000 
#
# Total GULP energy -595568.666324 kJ/mol
# GULP energy per Si atom -12407.680548 kJ/mol
# Density = 1.929235 g / cm^3
# Si number density = 19.336359 Si / 1000 Ang^3
#
#
#
# Elastic Constant Matrix: (Units=GPa)
#
#
# Indices 1 2 3 4 5 6 
#
# 1 108.0286 17.2198 37.6215 0.0000 0.0000 0.0000
# 2 17.2198 57.9752 12.9203 0.0000 0.0000 0.0000
# 3 37.6215 12.9203 97.2370 0.0000 0.0000 0.0000
# 4 0.0000 0.0000 0.0000 31.6675 0.0000 0.0000
# 5 0.0000 0.0000 0.0000 0.0000 27.8286 0.0000
# 6 0.0000 0.0000 0.0000 0.0000 0.0000 25.7987
#
#
#
# Elastic Compliance Matrix: (Units=1/GPa)
#
#
# Indices 1 2 3 4 5 6 
#
# 1 0.011011 -0.002392 -0.003942 0.000000 0.000000 0.000000
# 2 -0.002392 0.018295 -0.001505 0.000000 0.000000 0.000000
# 3 -0.003942 -0.001505 0.012010 0.000000 0.000000 0.000000
# 4 0.000000 0.000000 0.000000 0.031578 0.000000 0.000000
# 5 0.000000 0.000000 0.000000 0.000000 0.035934 0.000000
# 6 0.000000 0.000000 0.000000 0.000000 0.000000 0.038762
#
#
# Mechanical properties :
#
#
# Convention : Reuss Voigt Hill
#
# Bulk Modulus (GPa) = 39.00803 44.30709 41.65756
# Shear Modulus (GPa) = 29.10125 30.09093 29.59609
#
# Velocity S-wave (km/s) = 3.88364 3.94913 3.91652
# Velocity P-wave (km/s) = 6.35039 6.61497 6.48403
#
# Compressibility (1/GPa) = 0.02563575
#
# Stress axis : x y z
#
# Youngs Moduli (GPa) = 90.81794 54.66063 83.26727
#
# Poissons Ratio (x) = 0.13074 0.32827
# Poissons Ratio (y) = 0.21723 0.12535
# Poissons Ratio (z) = 0.35804 0.08229
#
# Static dielectric constant tensor:
#      x y z
#    x 3.533320 0.000000 0.000000 
#    y 0.000000 3.592640 0.000000 
#    z 0.000000 0.000000 3.585210 
# 
# 
# High freq. dielectric constant tensor:
#      x y z
#    x 1.748340 0.000000 0.000000 
#    y 0.000000 1.757550 0.000000 
#    z 0.000000 0.000000 1.753910 
# 
# From -- ./inp_files/20019.got.cif
#   From: 2010.03.12/outbox.cif.g09.slc.cpg/sg62_11_cif.got.tgz:20019.got - 2010.04.10 19:12:36.
