data_PCOD8254545
_publ_section_title
;
Structure prediction by ZEFSAII (Michael W. Deem and Ramdas Pophale) SiO2 
 PCOD8254545
Probable space group: P N M A
;
_chemical_formula_sum "Si O2"
_cell_formula_units_Z 48
_cell_length_a 17.602118
_cell_length_b 8.941041
_cell_length_c 15.195354
_cell_angle_alpha 90.000000
_cell_angle_beta 90.000000
_cell_angle_gamma 90.000000
_cell_volume 2391.463939
_symmetry_space_group_name_H-M "P N M A"
_symmetry_group_IT_number 62
_symmetry_cell_setting 'orthorhombic'
loop_
_space_group_symop_operation_xyz
x,y,z
1/2-x,-y,1/2+z
1/2+x,1/2-y,1/2-z
-x,1/2+y,-z
-x,-y,-z
1/2+x,y,1/2-z
1/2-x,1/2+y,1/2+z
x,1/2-y,z
loop_
_atom_site_type_symbol
_atom_site_label
_atom_site_fract_x
_atom_site_fract_y
_atom_site_fract_z
Si Si1 0.042000 0.426434 0.081256
Si Si2 0.456693 0.422975 0.921031
Si Si3 0.715798 0.423020 0.409404
Si Si4 0.798579 0.575894 0.566002
Si Si5 0.040837 0.077858 0.760269
Si Si6 0.197972 0.921158 0.767203
O O1 0.034675 0.250000 0.073072
O O2 0.129398 0.478141 0.081124
O O3 0.003652 0.476390 0.171208
O O4 0.000000 0.500000 0.000000
O O5 0.447102 0.250000 0.943833
O O6 0.374488 0.492234 0.906094
O O7 0.505573 0.450160 0.834510
O O8 0.500000 0.500000 0.000000
O O9 0.723890 0.250000 0.436090
O O10 0.768999 0.519637 0.472360
O O11 0.740935 0.450881 0.309258
O O12 0.817407 0.750000 0.558534
O O13 0.735930 0.542144 0.639627
O O14 0.034865 0.250000 0.789591
O O15 0.128368 0.032399 0.755400
O O16 0.169107 0.750000 0.764117
#
# Coordination Sequence:
#
# PCOD8254545 Si02
#       6
#     8   8   8   8   8   8
#     4  11  23  40  63  90 121 158 199 244 296 353
#     4  11  24  41  62  89 121 158 200 247 298 352
#     4  10  22  40  61  86 117 155 198 243 293 350
#     4  11  23  39  61  89 119 154 197 243 295 354
#     4  11  24  40  60  89 121 155 198 246 297 353
#     4  10  22  40  61  85 116 156 198 241 294 354
#
# _framework density 20.071387000000001
#
# number of rings (size 3 to 8) (size 9 to 14) (size 15 to 20)
#    0.000    1.333    0.000    5.000    0.000   12.667 
#    0.000    0.000    0.000    0.000    0.000    0.000 
#    0.000    0.000    0.000    0.000    0.000    0.000 
#
# Total GULP energy -595562.581763 kJ/mol
# GULP energy per Si atom -12407.553787 kJ/mol
# Density = 2.002570 g / cm^3
# Si number density = 20.071387 Si / 1000 Ang^3
#
#
#
# Elastic Constant Matrix: (Units=GPa)
#
#
# Indices 1 2 3 4 5 6 
#
# 1 101.8497 44.8641 14.4273 0.0000 0.0000 0.0000
# 2 44.8641 86.6113 43.1203 0.0000 0.0000 0.0000
# 3 14.4273 43.1203 80.2259 0.0000 0.0000 0.0000
# 4 0.0000 0.0000 0.0000 34.2783 0.0000 0.0000
# 5 0.0000 0.0000 0.0000 0.0000 36.5646 0.0000
# 6 0.0000 0.0000 0.0000 0.0000 0.0000 39.0242
#
#
#
# Elastic Compliance Matrix: (Units=1/GPa)
#
#
# Indices 1 2 3 4 5 6 
#
# 1 0.012896 -0.007544 0.001736 0.000000 0.000000 0.000000
# 2 -0.007544 0.020177 -0.009488 0.000000 0.000000 0.000000
# 3 0.001736 -0.009488 0.017253 0.000000 0.000000 0.000000
# 4 0.000000 0.000000 0.000000 0.029173 0.000000 0.000000
# 5 0.000000 0.000000 0.000000 0.000000 0.027349 0.000000
# 6 0.000000 0.000000 0.000000 0.000000 0.000000 0.025625
#
#
# Mechanical properties :
#
#
# Convention : Reuss Voigt Hill
#
# Bulk Modulus (GPa) = 50.67852 52.61226 51.64539
# Shear Modulus (GPa) = 29.47360 33.05845 31.26602
#
# Velocity S-wave (km/s) = 3.83618 4.06278 3.95110
# Velocity P-wave (km/s) = 6.70266 6.94822 6.82654
#
# Compressibility (1/GPa) = 0.01973223
#
# Stress axis : x y z
#
# Youngs Moduli (GPa) = 77.54592 49.56020 57.96238
#
# Poissons Ratio (x) = 0.37388 -0.10061
# Poissons Ratio (y) = 0.58500 0.54997
# Poissons Ratio (z) = -0.13460 0.47025
#
# Static dielectric constant tensor:
#      x y z
#    x 5.802890 0.000000 0.000000 
#    y 0.000000 3.750360 0.000000 
#    z 0.000000 0.000000 3.697700 
# 
# 
# High freq. dielectric constant tensor:
#      x y z
#    x 1.798590 0.000000 0.000000 
#    y 0.000000 1.791180 0.000000 
#    z 0.000000 0.000000 1.799700 
# 
# From -- ./inp_files/19591.got.cif
#   From: 2010.03.12/outbox.cif.g09.slc.cpg/sg62_10_cif.got.tgz:19591.got - 2010.04.10 19:12:36.
