data_PCOD8254681
_publ_section_title
;
Structure prediction by ZEFSAII (Michael W. Deem and Ramdas Pophale) SiO2 
 PCOD8254681
Probable space group: P N M A
;
_chemical_formula_sum "Si O2"
_cell_formula_units_Z 24
_cell_length_a 4.765267
_cell_length_b 7.942762
_cell_length_c 22.914166
_cell_angle_alpha 90.000000
_cell_angle_beta 90.000000
_cell_angle_gamma 90.000000
_cell_volume 867.287014
_symmetry_space_group_name_H-M "P N M A"
_symmetry_group_IT_number 62
_symmetry_cell_setting 'orthorhombic'
loop_
_space_group_symop_operation_xyz
x,y,z
1/2-x,-y,1/2+z
1/2+x,1/2-y,1/2-z
-x,1/2+y,-z
-x,-y,-z
1/2+x,y,1/2-z
1/2-x,1/2+y,1/2+z
x,1/2-y,z
loop_
_atom_site_type_symbol
_atom_site_label
_atom_site_fract_x
_atom_site_fract_y
_atom_site_fract_z
Si Si1 0.639500 0.055825 0.211669
Si Si2 0.003082 0.750000 0.927824
Si Si3 0.783902 0.569502 0.389020
Si Si4 0.498780 0.250000 0.992627
O O1 0.957997 0.013032 0.229601
O O2 0.601431 0.250000 0.194070
O O3 0.535942 0.949539 0.156987
O O4 0.937289 0.584786 0.888405
O O5 0.825992 0.750000 0.988188
O O6 0.327452 0.750000 0.946236
O O7 0.630505 0.750000 0.376446
O O8 0.931657 0.583410 0.453342
#
# Coordination Sequence:
#
# PCOD8254681 Si02
#       4
#     8   4   8   4
#     4  10  22  42  65  91 125 165 207 260 319 373
#     4  12  22  48  60  94 136 166 210 264 304 384
#     4  10  24  42  67  98 124 172 211 260 317 374
#     4  10  26  40  68  92 130 172 210 256 320 366
#
# _framework density 27.672501
#
# number of rings (size 3 to 8) (size 9 to 14) (size 15 to 20)
#    1.000    0.667    1.667    2.000    0.000    6.667 
#    0.000    0.000    0.000    0.000    0.000    0.000 
#    0.000    0.000    0.000    0.000    0.000    0.000 
#
# Total GULP energy -297646.781654 kJ/mol
# GULP energy per Si atom -12401.949236 kJ/mol
# Density = 2.760952 g / cm^3
# Si number density = 27.672501 Si / 1000 Ang^3
#
#
#
# Elastic Constant Matrix: (Units=GPa)
#
#
# Indices 1 2 3 4 5 6 
#
# 1 52.7450 -0.3490 -21.6180 0.0000 0.0000 0.0000
# 2 -0.3490 145.1806 5.2830 0.0000 0.0000 0.0000
# 3 -21.6180 5.2830 30.0759 0.0000 0.0000 0.0000
# 4 0.0000 0.0000 0.0000 37.3649 0.0000 0.0000
# 5 0.0000 0.0000 0.0000 0.0000 -16.4467 0.0000
# 6 0.0000 0.0000 0.0000 0.0000 0.0000 20.9551
#
#
#
# Elastic Compliance Matrix: (Units=1/GPa)
#
#
# Indices 1 2 3 4 5 6 
#
# 1 0.026937 -0.000644 0.019475 0.000000 0.000000 0.000000
# 2 -0.000644 0.006948 -0.001683 0.000000 0.000000 0.000000
# 3 0.019475 -0.001683 0.047543 0.000000 0.000000 0.000000
# 4 0.000000 0.000000 0.000000 0.026763 0.000000 0.000000
# 5 0.000000 0.000000 0.000000 0.000000 -0.060802 0.000000
# 6 0.000000 0.000000 0.000000 0.000000 0.000000 0.047721
#
#
# Mechanical properties :
#
#
# Convention : Reuss Voigt Hill
#
# Bulk Modulus (GPa) = 8.64131 21.62593 15.13362
# Shear Modulus (GPa) = 50.30761 24.68701 37.49731
#
# Velocity S-wave (km/s) = 4.26838 2.99007 3.68508
# Velocity P-wave (km/s) = 5.23657 4.44439 4.85666
#
# Compressibility (1/GPa) = 0.11572321
#
# Stress axis : x y z
#
# Youngs Moduli (GPa) = 37.12383 143.93299 21.03351
#
# Poissons Ratio (x) = 0.09268 -0.40963
# Poissons Ratio (y) = 0.02390 0.03540
# Poissons Ratio (z) = -0.72298 0.24227
#
# Static dielectric constant tensor:
#      x y z
#    x 4.510600 0.000000 0.000000 
#    y 0.000000 4.915740 0.000000 
#    z 0.000000 0.000000 4.646740 
# 
# 
# High freq. dielectric constant tensor:
#      x y z
#    x 2.095110 0.000000 0.000000 
#    y 0.000000 2.113980 0.000000 
#    z 0.000000 0.000000 2.130920 
# 
# From -- ./inp_files/28067.got.cif
#   From: 2010.03.12/outbox.cif.g09.slc.cpg/sg62_15_cif.got.tgz:28067.got - 2010.04.10 19:12:36.
