data_PCOD8254536
_publ_section_title
;
Structure prediction by ZEFSAII (Michael W. Deem and Ramdas Pophale) SiO2 
 PCOD8254536
Probable space group: P N M A
;
_chemical_formula_sum "Si O2"
_cell_formula_units_Z 40
_cell_length_a 13.048209
_cell_length_b 9.383593
_cell_length_c 15.751692
_cell_angle_alpha 90.000000
_cell_angle_beta 90.000000
_cell_angle_gamma 90.000000
_cell_volume 1928.622718
_symmetry_space_group_name_H-M "P N M A"
_symmetry_group_IT_number 62
_symmetry_cell_setting 'orthorhombic'
loop_
_space_group_symop_operation_xyz
x,y,z
1/2-x,-y,1/2+z
1/2+x,1/2-y,1/2-z
-x,1/2+y,-z
-x,-y,-z
1/2+x,y,1/2-z
1/2-x,1/2+y,1/2+z
x,1/2-y,z
loop_
_atom_site_type_symbol
_atom_site_label
_atom_site_fract_x
_atom_site_fract_y
_atom_site_fract_z
Si Si1 0.467690 0.909406 0.876358
Si Si2 0.500391 0.911080 0.415074
Si Si3 0.152961 0.909247 0.494772
Si Si4 0.599485 0.084448 0.751108
Si Si5 0.726190 0.912322 0.375668
O O1 0.432329 0.750000 0.850103
O O2 0.370264 0.999136 0.910262
O O3 0.514102 0.989142 0.795948
O O4 0.551005 0.898794 0.950099
O O5 0.489608 0.750000 0.446032
O O6 0.407789 0.950743 0.349923
O O7 0.605450 0.933280 0.361555
O O8 0.500000 0.000000 0.500000
O O9 0.189838 0.750000 0.469106
O O10 0.242336 0.985625 0.547243
O O11 0.571382 0.250000 0.766365
O O12 0.712316 0.048635 0.788791
O O13 0.753080 0.750000 0.401828
#
# Coordination Sequence:
#
# PCOD8254536 Si02
#       5
#     8   8   8   8   8
#     4   9  16  27  47  77 112 145 181 230 286 334
#     4  10  22  40  60  83 115 153 193 239 291 347
#     4   9  16  27  47  77 111 147 185 227 278 340
#     4   9  18  35  57  80 109 148 192 238 286 341
#     4   9  18  35  57  79 110 148 189 237 287 340
#
# _framework density 20.740189999999998
#
# number of rings (size 3 to 8) (size 9 to 14) (size 15 to 20)
#    0.000    2.800    0.000    1.200    0.000    6.400 
#    3.600    0.000    0.000    0.000    0.000    0.000 
#    0.000    0.000    0.000    0.000    0.000    0.000 
#
# Total GULP energy -495801.997696 kJ/mol
# GULP energy per Si atom -12395.049942 kJ/mol
# Density = 2.069298 g / cm^3
# Si number density = 20.740190 Si / 1000 Ang^3
#
#
#
# Elastic Constant Matrix: (Units=GPa)
#
#
# Indices 1 2 3 4 5 6 
#
# 1 54.2020 20.7488 33.4714 0.0000 0.0000 0.0000
# 2 20.7488 107.0097 50.9739 0.0000 0.0000 0.0000
# 3 33.4714 50.9739 116.0222 0.0000 0.0000 0.0000
# 4 0.0000 0.0000 0.0000 33.3970 0.0000 0.0000
# 5 0.0000 0.0000 0.0000 0.0000 22.6076 0.0000
# 6 0.0000 0.0000 0.0000 0.0000 0.0000 20.6502
#
#
#
# Elastic Compliance Matrix: (Units=1/GPa)
#
#
# Indices 1 2 3 4 5 6 
#
# 1 0.022668 -0.001619 -0.005828 0.000000 0.000000 0.000000
# 2 -0.001619 0.011934 -0.004776 0.000000 0.000000 0.000000
# 3 -0.005828 -0.004776 0.012399 0.000000 0.000000 0.000000
# 4 0.000000 0.000000 0.000000 0.029943 0.000000 0.000000
# 5 0.000000 0.000000 0.000000 0.000000 0.044233 0.000000
# 6 0.000000 0.000000 0.000000 0.000000 0.000000 0.048426
#
#
# Mechanical properties :
#
#
# Convention : Reuss Voigt Hill
#
# Bulk Modulus (GPa) = 44.33732 54.18025 49.25878
# Shear Modulus (GPa) = 24.80556 26.80027 25.80292
#
# Velocity S-wave (km/s) = 3.46210 3.59860 3.53101
# Velocity P-wave (km/s) = 6.11599 6.59141 6.35814
#
# Compressibility (1/GPa) = 0.02255436
#
# Stress axis : x y z
#
# Youngs Moduli (GPa) = 44.11415 83.79460 80.65285
#
# Poissons Ratio (x) = 0.13566 0.47007
# Poissons Ratio (y) = 0.07142 0.38520
# Poissons Ratio (z) = 0.25711 0.40021
#
# Static dielectric constant tensor:
#      x y z
#    x 3.605570 0.000000 0.000000 
#    y 0.000000 3.950810 0.000000 
#    z 0.000000 0.000000 3.532940 
# 
# 
# High freq. dielectric constant tensor:
#      x y z
#    x 1.790980 0.000000 0.000000 
#    y 0.000000 1.814160 0.000000 
#    z 0.000000 0.000000 1.793740 
# 
# From -- ./inp_files/18596.got.cif
#   From: 2010.03.12/outbox.cif.g09.slc.cpg/sg62_10_cif.got.tgz:18596.got - 2010.04.10 19:12:36.
