data_PCOD8254155
_publ_section_title
;
Structure prediction by ZEFSAII (Michael W. Deem and Ramdas Pophale) SiO2 
 PCOD8254155
Probable space group: P N M A
;
_chemical_formula_sum "Si O2"
_cell_formula_units_Z 64
_cell_length_a 11.956896
_cell_length_b 8.788373
_cell_length_c 30.577502
_cell_angle_alpha 90.000000
_cell_angle_beta 90.000000
_cell_angle_gamma 90.000000
_cell_volume 3213.134729
_symmetry_space_group_name_H-M "P N M A"
_symmetry_group_IT_number 62
_symmetry_cell_setting 'orthorhombic'
loop_
_space_group_symop_operation_xyz
x,y,z
1/2-x,-y,1/2+z
1/2+x,1/2-y,1/2-z
-x,1/2+y,-z
-x,-y,-z
1/2+x,y,1/2-z
1/2-x,1/2+y,1/2+z
x,1/2-y,z
loop_
_atom_site_type_symbol
_atom_site_label
_atom_site_fract_x
_atom_site_fract_y
_atom_site_fract_z
Si Si1 0.341332 0.069893 0.622512
Si Si2 0.759410 0.073357 0.168364
Si Si3 0.411927 0.570509 0.124220
Si Si4 0.514676 0.074054 0.695118
Si Si5 0.497537 0.571430 0.452621
Si Si6 0.253566 0.572821 0.421730
Si Si7 0.455039 0.570833 0.956053
Si Si8 0.559289 0.924449 0.206993
O O1 0.337647 0.250000 0.620173
O O2 0.215217 0.006114 0.624745
O O3 0.408790 0.020815 0.666061
O O4 0.404028 0.007402 0.578837
O O5 0.753347 0.250000 0.156126
O O6 0.882544 0.033223 0.183877
O O7 0.722370 0.971550 0.127393
O O8 0.668343 0.031465 0.205096
O O9 0.413962 0.750000 0.115471
O O10 0.478093 0.489821 0.085603
O O11 0.467375 0.529432 0.170726
O O12 0.544582 0.250000 0.684489
O O13 0.492724 0.048788 0.745802
O O14 0.500000 0.500000 0.500000
O O15 0.509425 0.750000 0.458332
O O16 0.381257 0.527388 0.429945
O O17 0.230099 0.750000 0.429288
O O18 0.174840 0.476910 0.453894
O O19 0.466626 0.750000 0.958169
O O20 0.500000 0.500000 0.000000
O O21 0.596900 0.750000 0.201116
#
# Coordination Sequence:
#
# PCOD8254155 Si02
#       8
#     8   8   8   8   8   8   8   8
#     4   9  19  38  61  88 122 159 202 252 304 356
#     4  12  24  39  62  91 127 166 204 256 315 368
#     4  10  21  39  62  91 125 161 204 255 306 365
#     4  10  21  40  66  93 121 160 210 257 302 363
#     4  10  22  39  61  90 123 159 199 254 308 363
#     4  11  22  42  67  91 121 160 211 261 305 363
#     4  12  26  43  64  92 124 163 206 254 311 368
#     4  10  22  38  65  94 121 162 211 258 305 362
#
# _framework density 19.918243
#
# number of rings (size 3 to 8) (size 9 to 14) (size 15 to 20)
#    0.000    1.500    2.500    2.625    3.500    1.500 
#    0.000    0.625    0.000    0.000    0.000    0.000 
#    0.000    0.000    0.000    0.000    0.000    0.000 
#
# Total GULP energy -793773.382365 kJ/mol
# GULP energy per Si atom -12402.709099 kJ/mol
# Density = 1.987291 g / cm^3
# Si number density = 19.918243 Si / 1000 Ang^3
#
#
#
# Elastic Constant Matrix: (Units=GPa)
#
#
# Indices 1 2 3 4 5 6 
#
# 1 113.4115 44.1725 29.0823 0.0000 0.0000 0.0000
# 2 44.1725 65.4966 40.1912 0.0000 0.0000 0.0000
# 3 29.0823 40.1912 117.0912 0.0000 0.0000 0.0000
# 4 0.0000 0.0000 0.0000 24.5814 0.0000 0.0000
# 5 0.0000 0.0000 0.0000 0.0000 28.4388 0.0000
# 6 0.0000 0.0000 0.0000 0.0000 0.0000 26.4739
#
#
#
# Elastic Compliance Matrix: (Units=1/GPa)
#
#
# Indices 1 2 3 4 5 6 
#
# 1 0.011965 -0.007912 -0.000256 0.000000 0.000000 0.000000
# 2 -0.007912 0.024574 -0.006470 0.000000 0.000000 0.000000
# 3 -0.000256 -0.006470 0.010825 0.000000 0.000000 0.000000
# 4 0.000000 0.000000 0.000000 0.040681 0.000000 0.000000
# 5 0.000000 0.000000 0.000000 0.000000 0.035163 0.000000
# 6 0.000000 0.000000 0.000000 0.000000 0.000000 0.037773
#
#
# Mechanical properties :
#
#
# Convention : Reuss Voigt Hill
#
# Bulk Modulus (GPa) = 55.28613 58.09905 56.69259
# Shear Modulus (GPa) = 25.47292 28.06904 26.77098
#
# Velocity S-wave (km/s) = 3.58001 3.75802 3.67010
# Velocity P-wave (km/s) = 6.70115 6.93270 6.81791
#
# Compressibility (1/GPa) = 0.01808772
#
# Stress axis : x y z
#
# Youngs Moduli (GPa) = 83.57823 40.69269 92.38162
#
# Poissons Ratio (x) = 0.32198 0.02363
# Poissons Ratio (y) = 0.66130 0.59770
# Poissons Ratio (z) = 0.02138 0.26328
#
# Static dielectric constant tensor:
#      x y z
#    x 3.841460 0.000000 0.000000 
#    y 0.000000 3.440870 0.000000 
#    z 0.000000 0.000000 3.689710 
# 
# 
# High freq. dielectric constant tensor:
#      x y z
#    x 1.792000 0.000000 0.000000 
#    y 0.000000 1.754570 0.000000 
#    z 0.000000 0.000000 1.786200 
# 
# From -- ./inp_files/32562.got.cif
#   From: 2010.03.12/outbox.cif.g09.slc.cpg/sg62_17_cif.got.tgz:32562.got - 2010.04.10 19:12:36.
