data_PCOD8254727
_publ_section_title
;
Structure prediction by ZEFSAII (Michael W. Deem and Ramdas Pophale) SiO2 
 PCOD8254727
Probable space group: P N M A
;
_chemical_formula_sum "Si O2"
_cell_formula_units_Z 56
_cell_length_a 14.051871
_cell_length_b 15.275063
_cell_length_c 12.487200
_cell_angle_alpha 90.000000
_cell_angle_beta 90.000000
_cell_angle_gamma 90.000000
_cell_volume 2680.292752
_symmetry_space_group_name_H-M "P N M A"
_symmetry_group_IT_number 62
_symmetry_cell_setting 'orthorhombic'
loop_
_space_group_symop_operation_xyz
x,y,z
1/2-x,-y,1/2+z
1/2+x,1/2-y,1/2-z
-x,1/2+y,-z
-x,-y,-z
1/2+x,y,1/2-z
1/2-x,1/2+y,1/2+z
x,1/2-y,z
loop_
_atom_site_type_symbol
_atom_site_label
_atom_site_fract_x
_atom_site_fract_y
_atom_site_fract_z
Si Si1 0.246148 0.349981 0.529642
Si Si2 0.154580 0.152297 0.005486
Si Si3 0.555113 0.423331 0.304333
Si Si4 0.196689 0.936805 0.237834
Si Si5 0.953042 0.851184 0.571910
Si Si6 0.636212 0.850220 0.045674
Si Si7 0.352817 0.482818 0.375041
O O1 0.274964 0.250000 0.501101
O O2 0.261210 0.365496 0.656067
O O3 0.134981 0.366069 0.507391
O O4 0.308393 0.417260 0.461420
O O5 0.139541 0.250000 0.955354
O O6 0.098350 0.150434 0.117355
O O7 0.267670 0.136265 0.023609
O O8 0.116744 0.076552 0.926273
O O9 0.616033 0.510508 0.326666
O O10 0.570934 0.398355 0.182035
O O11 0.444968 0.436713 0.327725
O O12 0.147229 0.891950 0.338485
O O13 0.280080 0.001598 0.277716
O O14 0.971225 0.750000 0.598169
O O15 0.047496 0.893309 0.517653
O O16 0.611199 0.750000 0.065319
#
# Coordination Sequence:
#
# PCOD8254727 Si02
#       7
#     8   8   8   8   8   8   8
#     4  11  24  44  68  97 134 173 220 276 327 386
#     4  10  22  43  67  91 131 174 219 269 319 387
#     4  12  24  39  64  96 128 170 216 266 325 393
#     4  11  24  41  66  93 127 170 217 272 324 389
#     4  10  23  41  65  97 129 168 218 270 327 389
#     4   9  21  42  65  92 126 168 217 266 322 385
#     4  11  25  44  64  97 133 171 220 271 332 387
#
# _framework density 20.893241
#
# number of rings (size 3 to 8) (size 9 to 14) (size 15 to 20)
#    0.000    1.429    2.857    1.286    4.000    2.286 
#    0.000    0.714    0.000    0.000    0.000    0.000 
#    0.000    0.000    0.000    0.000    0.000    0.000 
#
# Total GULP energy -694487.513647 kJ/mol
# GULP energy per Si atom -12401.562744 kJ/mol
# Density = 2.084569 g / cm^3
# Si number density = 20.893241 Si / 1000 Ang^3
#
#
#
# Elastic Constant Matrix: (Units=GPa)
#
#
# Indices 1 2 3 4 5 6 
#
# 1 101.4707 31.8945 36.0581 0.0000 0.0000 0.0000
# 2 31.8945 83.7901 30.4149 0.0000 0.0000 0.0000
# 3 36.0581 30.4149 74.7582 0.0000 0.0000 0.0000
# 4 0.0000 0.0000 0.0000 28.7390 0.0000 0.0000
# 5 0.0000 0.0000 0.0000 0.0000 39.4174 0.0000
# 6 0.0000 0.0000 0.0000 0.0000 0.0000 27.5310
#
#
#
# Elastic Compliance Matrix: (Units=1/GPa)
#
#
# Indices 1 2 3 4 5 6 
#
# 1 0.012512 -0.003018 -0.004807 0.000000 0.000000 0.000000
# 2 -0.003018 0.014730 -0.004537 0.000000 0.000000 0.000000
# 3 -0.004807 -0.004537 0.017541 0.000000 0.000000 0.000000
# 4 0.000000 0.000000 0.000000 0.034796 0.000000 0.000000
# 5 0.000000 0.000000 0.000000 0.000000 0.025369 0.000000
# 6 0.000000 0.000000 0.000000 0.000000 0.000000 0.036323
#
#
# Mechanical properties :
#
#
# Convention : Reuss Voigt Hill
#
# Bulk Modulus (GPa) = 49.85339 50.75045 50.30192
# Shear Modulus (GPa) = 28.95499 29.91426 29.43463
#
# Velocity S-wave (km/s) = 3.72675 3.78798 3.75749
# Velocity P-wave (km/s) = 6.51391 6.59354 6.55384
#
# Compressibility (1/GPa) = 0.02005882
#
# Stress axis : x y z
#
# Youngs Moduli (GPa) = 79.92459 67.88737 57.00906
#
# Poissons Ratio (x) = 0.20486 0.27405
# Poissons Ratio (y) = 0.24119 0.25867
# Poissons Ratio (z) = 0.38420 0.30803
#
# Static dielectric constant tensor:
#      x y z
#    x 3.899730 0.000000 0.000000 
#    y 0.000000 3.865010 0.000000 
#    z 0.000000 0.000000 3.661980 
# 
# 
# High freq. dielectric constant tensor:
#      x y z
#    x 1.824900 0.000000 0.000000 
#    y 0.000000 1.821870 0.000000 
#    z 0.000000 0.000000 1.814070 
# 
# From -- ./inp_files/13354.got.cif
#   From: 2010.03.12/outbox.cif.g09.slc.cpg/sg62_7_cif.got.tgz:13354.got - 2010.04.10 19:12:36.
