data_PCOD8254309
_publ_section_title
;
Structure prediction by ZEFSAII (Michael W. Deem and Ramdas Pophale) SiO2 
 PCOD8254309
Probable space group: P N M A
;
_chemical_formula_sum "Si O2"
_cell_formula_units_Z 40
_cell_length_a 13.663608
_cell_length_b 9.492159
_cell_length_c 15.094840
_cell_angle_alpha 90.000000
_cell_angle_beta 90.000000
_cell_angle_gamma 90.000000
_cell_volume 1957.757571
_symmetry_space_group_name_H-M "P N M A"
_symmetry_group_IT_number 62
_symmetry_cell_setting 'orthorhombic'
loop_
_space_group_symop_operation_xyz
x,y,z
1/2-x,-y,1/2+z
1/2+x,1/2-y,1/2-z
-x,1/2+y,-z
-x,-y,-z
1/2+x,y,1/2-z
1/2-x,1/2+y,1/2+z
x,1/2-y,z
loop_
_atom_site_type_symbol
_atom_site_label
_atom_site_fract_x
_atom_site_fract_y
_atom_site_fract_z
Si Si1 0.363619 0.250000 0.647113
Si Si2 0.954290 0.750000 0.637891
Si Si3 0.358003 0.250000 0.254007
Si Si4 0.816255 0.250000 0.043284
Si Si5 0.217373 0.452993 0.734967
Si Si6 0.457808 0.750000 0.222164
Si Si7 0.571664 0.750000 0.039185
Si Si8 0.816045 0.990917 0.593047
O O1 0.388092 0.250000 0.541600
O O2 0.298333 0.387419 0.669846
O O3 0.467432 0.250000 0.695766
O O4 0.891585 0.892630 0.648392
O O5 0.034124 0.750000 0.714538
O O6 0.994694 0.750000 0.538661
O O7 0.370077 0.250000 0.361273
O O8 0.294718 0.380915 0.218644
O O9 0.749526 0.110848 0.032532
O O10 0.109968 0.387245 0.723982
O O11 0.252245 0.423754 0.835306
O O12 0.519400 0.750000 0.133151
O O13 0.634485 0.606749 0.029636
#
# Coordination Sequence:
#
# PCOD8254309 Si02
#       8
#     4   4   4   4   8   4   4   8
#     4  11  22  41  68  93 120 176 208 262 312 383
#     4  11  24  34  65  87 133 162 208 257 331 373
#     4  10  22  41  58  94 124 172 206 263 311 380
#     4   9  23  40  63  81 135 164 212 252 324 366
#     4  10  22  40  66  87 131 167 206 260 318 379
#     4  11  22  39  67  97 127 161 220 257 318 377
#     4  12  21  35  61 102 123 153 212 265 316 383
#     4  10  21  41  58  93 126 165 198 268 313 382
#
# _framework density 20.431538
#
# number of rings (size 3 to 8) (size 9 to 14) (size 15 to 20)
#    0.000    1.600    2.000    3.000    8.400    0.000 
#    0.000    4.000    0.000    0.000    0.000    0.000 
#    0.000    0.000    0.000    0.000    0.000    0.000 
#
# Total GULP energy -495975.914352 kJ/mol
# GULP energy per Si atom -12399.397859 kJ/mol
# Density = 2.038503 g / cm^3
# Si number density = 20.431538 Si / 1000 Ang^3
#
#
#
# Elastic Constant Matrix: (Units=GPa)
#
#
# Indices 1 2 3 4 5 6 
#
# 1 49.0202 14.8747 -0.1615 0.0000 0.0000 0.0000
# 2 14.8747 121.0312 13.9160 0.0000 0.0000 0.0000
# 3 -0.1615 13.9160 74.1756 0.0000 0.0000 0.0000
# 4 0.0000 0.0000 0.0000 13.6615 0.0000 0.0000
# 5 0.0000 0.0000 0.0000 0.0000 27.0422 0.0000
# 6 0.0000 0.0000 0.0000 0.0000 0.0000 -35.0757
#
#
#
# Elastic Compliance Matrix: (Units=1/GPa)
#
#
# Indices 1 2 3 4 5 6 
#
# 1 0.021212 -0.002670 0.000547 0.000000 0.000000 0.000000
# 2 -0.002670 0.008781 -0.001653 0.000000 0.000000 0.000000
# 3 0.000547 -0.001653 0.013793 0.000000 0.000000 0.000000
# 4 0.000000 0.000000 0.000000 0.073198 0.000000 0.000000
# 5 0.000000 0.000000 0.000000 0.000000 0.036979 0.000000
# 6 0.000000 0.000000 0.000000 0.000000 0.000000 -0.028510
#
#
# Mechanical properties :
#
#
# Convention : Reuss Voigt Hill
#
# Bulk Modulus (GPa) = 27.59888 33.49835 30.54861
# Shear Modulus (GPa) = 34.46317 15.49879 24.98098
#
# Velocity S-wave (km/s) = 4.11148 2.75721 3.50046
# Velocity P-wave (km/s) = 6.00636 5.15434 5.59659
#
# Compressibility (1/GPa) = 0.03623336
#
# Stress axis : x y z
#
# Youngs Moduli (GPa) = 47.14382 113.88844 72.50129
#
# Poissons Ratio (x) = 0.30406 -0.03966
# Poissons Ratio (y) = 0.12586 0.11985
# Poissons Ratio (z) = -0.02579 0.18827
#
# Static dielectric constant tensor:
#      x y z
#    x 3.722010 0.000000 0.000000 
#    y 0.000000 3.940190 0.000000 
#    z 0.000000 0.000000 3.471120 
# 
# 
# High freq. dielectric constant tensor:
#      x y z
#    x 1.789830 0.000000 0.000000 
#    y 0.000000 1.816290 0.000000 
#    z 0.000000 0.000000 1.785080 
# 
# From -- ./inp_files/18705.got.cif
#   From: 2010.03.12/outbox.cif.g09.slc.cpg/sg62_10_cif.got.tgz:18705.got - 2010.04.10 19:12:36.
