data_PCOD8254689
_publ_section_title
;
Structure prediction by ZEFSAII (Michael W. Deem and Ramdas Pophale) SiO2 
 PCOD8254689
Probable space group: P N M A
;
_chemical_formula_sum "Si O2"
_cell_formula_units_Z 56
_cell_length_a 13.923640
_cell_length_b 22.977221
_cell_length_c 8.851501
_cell_angle_alpha 90.000000
_cell_angle_beta 90.000000
_cell_angle_gamma 90.000000
_cell_volume 2831.830207
_symmetry_space_group_name_H-M "P N M A"
_symmetry_group_IT_number 62
_symmetry_cell_setting 'orthorhombic'
loop_
_space_group_symop_operation_xyz
x,y,z
1/2-x,-y,1/2+z
1/2+x,1/2-y,1/2-z
-x,1/2+y,-z
-x,-y,-z
1/2+x,y,1/2-z
1/2-x,1/2+y,1/2+z
x,1/2-y,z
loop_
_atom_site_type_symbol
_atom_site_label
_atom_site_fract_x
_atom_site_fract_y
_atom_site_fract_z
Si Si1 0.391849 0.375180 0.222013
Si Si2 0.569295 0.402527 0.416091
Si Si3 0.847993 0.499978 0.405924
Si Si4 0.466483 0.816793 0.003891
Si Si5 0.806483 0.817816 0.733435
Si Si6 0.154099 0.513476 0.246136
Si Si7 0.518788 0.411709 0.753799
O O1 0.461067 0.389892 0.361792
O O2 0.358023 0.432529 0.134771
O O3 0.445511 0.334174 0.103216
O O4 0.300727 0.341542 0.290265
O O5 0.641903 0.351237 0.370547
O O6 0.602350 0.463649 0.349573
O O7 0.573362 0.406673 0.595992
O O8 0.833667 0.508515 0.583429
O O9 0.757418 0.528084 0.321890
O O10 0.941603 0.535151 0.354992
O O11 0.477945 0.750000 0.047644
O O12 0.365553 0.829295 0.920344
O O13 0.468732 0.851291 0.160117
O O14 0.804847 0.750000 0.775378
O O15 0.093285 0.572899 0.232598
#
# Coordination Sequence:
#
# PCOD8254689 Si02
#       7
#     8   8   8   8   8   8   8
#     4  11  21  40  65  92 122 168 206 257 313 374
#     4  11  24  39  63  92 128 163 207 256 315 374
#     4  12  24  37  65  92 132 167 203 256 320 378
#     4  10  23  44  66  90 123 167 214 262 319 374
#     4  10  22  42  66  90 121 165 218 262 310 380
#     4  12  24  41  60  94 130 165 208 253 314 382
#     4  12  25  40  62  95 129 165 206 264 317 377
#
# _framework density 19.775196999999999
#
# number of rings (size 3 to 8) (size 9 to 14) (size 15 to 20)
#    0.000    0.857    4.286    3.857    2.000    1.143 
#    0.000    0.000    0.000    2.571    0.000    0.000 
#    0.000    0.000    0.000    0.000    0.000    0.000 
#
# Total GULP energy -694804.441015 kJ/mol
# GULP energy per Si atom -12407.222161 kJ/mol
# Density = 1.973019 g / cm^3
# Si number density = 19.775197 Si / 1000 Ang^3
#
#
#
# Elastic Constant Matrix: (Units=GPa)
#
#
# Indices 1 2 3 4 5 6 
#
# 1 102.0557 28.0194 18.2590 0.0000 0.0000 0.0000
# 2 28.0194 106.3641 39.3970 0.0000 0.0000 0.0000
# 3 18.2590 39.3970 123.6688 0.0000 0.0000 0.0000
# 4 0.0000 0.0000 0.0000 29.0390 0.0000 0.0000
# 5 0.0000 0.0000 0.0000 0.0000 20.8908 0.0000
# 6 0.0000 0.0000 0.0000 0.0000 0.0000 23.6623
#
#
#
# Elastic Compliance Matrix: (Units=1/GPa)
#
#
# Indices 1 2 3 4 5 6 
#
# 1 0.010626 -0.002515 -0.000768 0.000000 0.000000 0.000000
# 2 -0.002515 0.011255 -0.003214 0.000000 0.000000 0.000000
# 3 -0.000768 -0.003214 0.009223 0.000000 0.000000 0.000000
# 4 0.000000 0.000000 0.000000 0.034436 0.000000 0.000000
# 5 0.000000 0.000000 0.000000 0.000000 0.047868 0.000000
# 6 0.000000 0.000000 0.000000 0.000000 0.000000 0.042261
#
#
# Mechanical properties :
#
#
# Convention : Reuss Voigt Hill
#
# Bulk Modulus (GPa) = 55.21526 55.93771 55.57648
# Shear Modulus (GPa) = 28.62039 31.14597 29.88318
#
# Velocity S-wave (km/s) = 3.80845 3.97293 3.89156
# Velocity P-wave (km/s) = 6.87904 7.02807 6.95395
#
# Compressibility (1/GPa) = 0.01811094
#
# Stress axis : x y z
#
# Youngs Moduli (GPa) = 94.10523 88.85212 108.42027
#
# Poissons Ratio (x) = 0.22346 0.08324
# Poissons Ratio (y) = 0.23667 0.34847
# Poissons Ratio (z) = 0.07225 0.28558
#
# Static dielectric constant tensor:
#      x y z
#    x 3.856150 0.000000 0.000000 
#    y 0.000000 3.596310 0.000000 
#    z 0.000000 0.000000 3.527780 
# 
# 
# High freq. dielectric constant tensor:
#      x y z
#    x 1.785570 0.000000 0.000000 
#    y 0.000000 1.768350 0.000000 
#    z 0.000000 0.000000 1.768450 
# 
# From -- ./inp_files/6767.got.cif
#   From: 2010.03.12/outbox.cif.g09.slc.cpg/sg62_4_cif.got.tgz:6767.got - 2010.04.10 19:12:36.
