data_PCOD8254175
_publ_section_title
;
Structure prediction by ZEFSAII (Michael W. Deem and Ramdas Pophale) SiO2 
 PCOD8254175
Probable space group: P N M A
;
_chemical_formula_sum "Si O2"
_cell_formula_units_Z 48
_cell_length_a 15.895418
_cell_length_b 12.574466
_cell_length_c 10.709910
_cell_angle_alpha 90.000000
_cell_angle_beta 90.000000
_cell_angle_gamma 90.000000
_cell_volume 2140.658182
_symmetry_space_group_name_H-M "P N M A"
_symmetry_group_IT_number 62
_symmetry_cell_setting 'orthorhombic'
loop_
_space_group_symop_operation_xyz
x,y,z
1/2-x,-y,1/2+z
1/2+x,1/2-y,1/2-z
-x,1/2+y,-z
-x,-y,-z
1/2+x,y,1/2-z
1/2-x,1/2+y,1/2+z
x,1/2-y,z
loop_
_atom_site_type_symbol
_atom_site_label
_atom_site_fract_x
_atom_site_fract_y
_atom_site_fract_z
Si Si1 0.357211 0.870296 0.445805
Si Si2 0.425476 0.373048 0.810092
Si Si3 0.290714 0.517604 0.943235
Si Si4 0.841686 0.370872 0.201100
Si Si5 0.458189 0.125887 0.534797
Si Si6 0.387331 0.570341 0.170523
O O1 0.346303 0.750000 0.494459
O O2 0.281667 0.940586 0.500591
O O3 0.447345 0.923505 0.489568
O O4 0.352452 0.871305 0.294141
O O5 0.399345 0.250000 0.825881
O O6 0.364410 0.445645 0.889552
O O7 0.419729 0.412191 0.666459
O O8 0.519672 0.390455 0.861926
O O9 0.253087 0.593068 0.834086
O O10 0.326738 0.593945 0.052615
O O11 0.844382 0.250000 0.246053
O O12 0.882706 0.441888 0.309760
O O13 0.894550 0.394232 0.076358
O O14 0.479273 0.250000 0.551843
#
# Coordination Sequence:
#
# PCOD8254175 Si02
#       6
#     8   8   8   8   8   8
#     4   9  19  37  61  88 113 148 202 252 292 343
#     4  10  21  39  64  89 115 154 204 246 291 352
#     4  11  23  36  58  90 120 158 195 241 299 358
#     4  10  23  40  58  87 123 158 197 246 300 351
#     4   8  17  37  62  84 109 151 196 237 288 343
#     4  10  22  39  58  86 121 157 198 246 299 353
#
# _framework density 22.423010000000001
#
# number of rings (size 3 to 8) (size 9 to 14) (size 15 to 20)
#    0.000    2.333    0.000    2.500    4.667    8.667 
#    0.000    0.833    0.000    0.000    0.000    0.000 
#    0.000    0.000    0.000    0.000    0.000    0.000 
#
# Total GULP energy -595186.500206 kJ/mol
# GULP energy per Si atom -12399.718754 kJ/mol
# Density = 2.237197 g / cm^3
# Si number density = 22.423010 Si / 1000 Ang^3
#
#
#
# Elastic Constant Matrix: (Units=GPa)
#
#
# Indices 1 2 3 4 5 6 
#
# 1 88.6946 -4.2441 18.4122 0.0000 0.0000 0.0000
# 2 -4.2441 61.3049 -14.0258 0.0000 0.0000 0.0000
# 3 18.4122 -14.0258 44.5551 0.0000 0.0000 0.0000
# 4 0.0000 0.0000 0.0000 27.8962 0.0000 0.0000
# 5 0.0000 0.0000 0.0000 0.0000 30.5732 0.0000
# 6 0.0000 0.0000 0.0000 0.0000 0.0000 25.1523
#
#
#
# Elastic Compliance Matrix: (Units=1/GPa)
#
#
# Indices 1 2 3 4 5 6 
#
# 1 0.012339 -0.000337 -0.005205 0.000000 0.000000 0.000000
# 2 -0.000337 0.017587 0.005675 0.000000 0.000000 0.000000
# 3 -0.005205 0.005675 0.026382 0.000000 0.000000 0.000000
# 4 0.000000 0.000000 0.000000 0.035847 0.000000 0.000000
# 5 0.000000 0.000000 0.000000 0.000000 0.032708 0.000000
# 6 0.000000 0.000000 0.000000 0.000000 0.000000 0.039758
#
#
# Mechanical properties :
#
#
# Convention : Reuss Voigt Hill
#
# Bulk Modulus (GPa) = 17.67550 21.64879 19.66215
# Shear Modulus (GPa) = 27.29079 29.68516 28.48797
#
# Velocity S-wave (km/s) = 3.49246 3.64245 3.56825
# Velocity P-wave (km/s) = 4.91558 5.23121 5.07585
#
# Compressibility (1/GPa) = 0.05657548
#
# Stress axis : x y z
#
# Youngs Moduli (GPa) = 81.04349 56.85993 37.90508
#
# Poissons Ratio (x) = 0.01914 0.19730
# Poissons Ratio (y) = 0.02728 -0.21513
# Poissons Ratio (z) = 0.42183 -0.32271
#
# Static dielectric constant tensor:
#      x y z
#    x 4.162410 0.000000 0.000000 
#    y 0.000000 4.194430 0.000000 
#    z 0.000000 0.000000 3.755780 
# 
# 
# High freq. dielectric constant tensor:
#      x y z
#    x 1.889240 0.000000 0.000000 
#    y 0.000000 1.894140 0.000000 
#    z 0.000000 0.000000 1.855690 
# 
# From -- ./inp_files/13265.got.cif
#   From: 2010.03.12/outbox.cif.g09.slc.cpg/sg62_7_cif.got.tgz:13265.got - 2010.04.10 19:12:36.
