data_PCOD8254612
_publ_section_title
;
Structure prediction by ZEFSAII (Michael W. Deem and Ramdas Pophale) SiO2 
 PCOD8254612
Probable space group: P N M A
;
_chemical_formula_sum "Si O2"
_cell_formula_units_Z 48
_cell_length_a 18.821173
_cell_length_b 8.399284
_cell_length_c 14.805963
_cell_angle_alpha 90.000000
_cell_angle_beta 90.000000
_cell_angle_gamma 90.000000
_cell_volume 2340.591440
_symmetry_space_group_name_H-M "P N M A"
_symmetry_group_IT_number 62
_symmetry_cell_setting 'orthorhombic'
loop_
_space_group_symop_operation_xyz
x,y,z
1/2-x,-y,1/2+z
1/2+x,1/2-y,1/2-z
-x,1/2+y,-z
-x,-y,-z
1/2+x,y,1/2-z
1/2-x,1/2+y,1/2+z
x,1/2-y,z
loop_
_atom_site_type_symbol
_atom_site_label
_atom_site_fract_x
_atom_site_fract_y
_atom_site_fract_z
Si Si1 0.029976 0.939218 0.093798
Si Si2 0.260737 0.564690 0.293383
Si Si3 0.814394 0.934071 0.877917
Si Si4 0.434150 0.938263 0.055858
Si Si5 0.581724 0.061270 0.743203
Si Si6 0.214592 0.435499 0.476613
O O1 0.039040 0.750000 0.092511
O O2 0.976275 0.997207 0.171698
O O3 0.103703 0.022996 0.113848
O O4 0.000000 0.000000 0.000000
O O5 0.259615 0.750000 0.318621
O O6 0.221232 0.541085 0.198851
O O7 0.340886 0.497698 0.285951
O O8 0.219924 0.466722 0.370145
O O9 0.806307 0.750000 0.852544
O O10 0.776784 0.968753 0.973199
O O11 0.436116 0.750000 0.056070
O O12 0.438297 0.006231 0.157884
O O13 0.361533 0.999364 0.010276
O O14 0.500000 0.000000 0.000000
O O15 0.585075 0.250000 0.747682
O O16 0.223531 0.250000 0.498253
#
# Coordination Sequence:
#
# PCOD8254612 Si02
#       6
#     8   8   8   8   8   8
#     4  11  23  41  66  95 128 168 212 264 324 385
#     4  11  22  41  67  94 126 165 208 262 322 381
#     4  12  25  42  63  94 130 169 217 262 313 383
#     4  10  22  41  62  89 124 163 208 258 312 374
#     4   9  20  41  65  89 122 165 207 252 312 378
#     4  11  23  42  66  94 127 163 209 268 325 379
#
# _framework density 20.507636000000002
#
# number of rings (size 3 to 8) (size 9 to 14) (size 15 to 20)
#    0.000    1.333    1.667    4.000    2.333    2.667 
#    0.000    3.333    0.000    0.000    0.000    0.000 
#    0.000    0.000    0.000    0.000    0.000    0.000 
#
# Total GULP energy -595483.343688 kJ/mol
# GULP energy per Si atom -12405.902994 kJ/mol
# Density = 2.046096 g / cm^3
# Si number density = 20.507636 Si / 1000 Ang^3
#
#
#
# Elastic Constant Matrix: (Units=GPa)
#
#
# Indices 1 2 3 4 5 6 
#
# 1 158.6624 30.6013 59.8892 0.0000 0.0000 0.0000
# 2 30.6013 52.6910 21.1580 0.0000 0.0000 0.0000
# 3 59.8892 21.1580 131.7758 0.0000 0.0000 0.0000
# 4 0.0000 0.0000 0.0000 35.0636 0.0000 0.0000
# 5 0.0000 0.0000 0.0000 0.0000 47.3817 0.0000
# 6 0.0000 0.0000 0.0000 0.0000 0.0000 30.4413
#
#
#
# Elastic Compliance Matrix: (Units=1/GPa)
#
#
# Indices 1 2 3 4 5 6 
#
# 1 0.008163 -0.003475 -0.003152 0.000000 0.000000 0.000000
# 2 -0.003475 0.021766 -0.001915 0.000000 0.000000 0.000000
# 3 -0.003152 -0.001915 0.009329 0.000000 0.000000 0.000000
# 4 0.000000 0.000000 0.000000 0.028520 0.000000 0.000000
# 5 0.000000 0.000000 0.000000 0.000000 0.021105 0.000000
# 6 0.000000 0.000000 0.000000 0.000000 0.000000 0.032850
#
#
# Mechanical properties :
#
#
# Convention : Reuss Voigt Hill
#
# Bulk Modulus (GPa) = 45.10054 62.93625 54.01839
# Shear Modulus (GPa) = 34.19802 38.00936 36.10369
#
# Velocity S-wave (km/s) = 4.08803 4.30981 4.20038
# Velocity P-wave (km/s) = 6.65751 7.45129 7.06556
#
# Compressibility (1/GPa) = 0.02217269
#
# Stress axis : x y z
#
# Youngs Moduli (GPa) = 122.51002 45.94342 107.19717
#
# Poissons Ratio (x) = 0.15965 0.33786
# Poissons Ratio (y) = 0.42572 0.20533
# Poissons Ratio (z) = 0.38612 0.08800
#
# Static dielectric constant tensor:
#      x y z
#    x 3.848220 0.000000 0.000000 
#    y 0.000000 3.540640 0.000000 
#    z 0.000000 0.000000 3.155430 
# 
# 
# High freq. dielectric constant tensor:
#      x y z
#    x 1.815350 0.000000 0.000000 
#    y 0.000000 1.789030 0.000000 
#    z 0.000000 0.000000 1.817930 
# 
# From -- ./inp_files/19653.got.cif
#   From: 2010.03.12/outbox.cif.g09.slc.cpg/sg62_10_cif.got.tgz:19653.got - 2010.04.10 19:12:36.
