data_PCOD8254211
_publ_section_title
;
Structure prediction by ZEFSAII (Michael W. Deem and Ramdas Pophale) SiO2 
 PCOD8254211
Probable space group: P N M A
;
_chemical_formula_sum "Si O2"
_cell_formula_units_Z 48
_cell_length_a 16.656330
_cell_length_b 8.607386
_cell_length_c 17.917140
_cell_angle_alpha 90.000000
_cell_angle_beta 90.000000
_cell_angle_gamma 90.000000
_cell_volume 2568.734882
_symmetry_space_group_name_H-M "P N M A"
_symmetry_group_IT_number 62
_symmetry_cell_setting 'orthorhombic'
loop_
_space_group_symop_operation_xyz
x,y,z
1/2-x,-y,1/2+z
1/2+x,1/2-y,1/2-z
-x,1/2+y,-z
-x,-y,-z
1/2+x,y,1/2-z
1/2-x,1/2+y,1/2+z
x,1/2-y,z
loop_
_atom_site_type_symbol
_atom_site_label
_atom_site_fract_x
_atom_site_fract_y
_atom_site_fract_z
Si Si1 0.736860 0.066261 0.446371
Si Si2 0.663160 0.431683 0.663514
Si Si3 0.177407 0.568109 0.407995
Si Si4 0.586177 0.932582 0.518316
Si Si5 0.641407 0.568078 0.822451
Si Si6 0.001399 0.565011 0.417336
O O1 0.726339 0.250000 0.453418
O O2 0.794475 0.999092 0.511995
O O3 0.777886 0.020658 0.367676
O O4 0.649209 0.990956 0.455558
O O5 0.650298 0.250000 0.650350
O O6 0.757176 0.478715 0.654516
O O7 0.610548 0.518266 0.601743
O O8 0.635986 0.476230 0.745642
O O9 0.174082 0.750000 0.419964
O O10 0.088576 0.514121 0.384174
O O11 0.581640 0.750000 0.513838
O O12 0.500000 0.000000 0.500000
O O13 0.640645 0.750000 0.805883
O O14 0.563753 0.523681 0.869280
O O15 0.987010 0.750000 0.415616
O O16 0.000000 0.500000 0.500000
#
# Coordination Sequence:
#
# PCOD8254211 Si02
#       6
#     8   8   8   8   8   8
#     4   9  18  36  59  81 113 152 190 235 284 335
#     4  10  21  40  61  83 114 154 193 240 294 341
#     4   8  16  34  57  79 108 148 188 228 279 335
#     4  11  22  39  63  89 114 149 197 242 290 346
#     4  11  22  38  57  85 121 156 192 238 291 345
#     4  11  20  34  57  87 118 154 192 236 288 345
#
# _framework density 18.686243000000001
#
# number of rings (size 3 to 8) (size 9 to 14) (size 15 to 20)
#    0.000    2.000    1.667    4.000    0.000    1.333 
#    3.000    2.500    0.000    0.000    0.000    0.000 
#    0.000    0.000    0.000    0.000    0.000    0.000 
#
# Total GULP energy -595041.454944 kJ/mol
# GULP energy per Si atom -12396.696978 kJ/mol
# Density = 1.864371 g / cm^3
# Si number density = 18.686243 Si / 1000 Ang^3
#
#
#
# Elastic Constant Matrix: (Units=GPa)
#
#
# Indices 1 2 3 4 5 6 
#
# 1 148.6576 33.9057 49.2999 0.0000 0.0000 0.0000
# 2 33.9057 61.8289 16.5680 0.0000 0.0000 0.0000
# 3 49.2999 16.5680 83.8585 0.0000 0.0000 0.0000
# 4 0.0000 0.0000 0.0000 30.2226 0.0000 0.0000
# 5 0.0000 0.0000 0.0000 0.0000 25.3143 0.0000
# 6 0.0000 0.0000 0.0000 0.0000 0.0000 29.6401
#
#
#
# Elastic Compliance Matrix: (Units=1/GPa)
#
#
# Indices 1 2 3 4 5 6 
#
# 1 0.009116 -0.003762 -0.004616 0.000000 0.000000 0.000000
# 2 -0.003762 0.018630 -0.001469 0.000000 0.000000 0.000000
# 3 -0.004616 -0.001469 0.014929 0.000000 0.000000 0.000000
# 4 0.000000 0.000000 0.000000 0.033088 0.000000 0.000000
# 5 0.000000 0.000000 0.000000 0.000000 0.039503 0.000000
# 6 0.000000 0.000000 0.000000 0.000000 0.000000 0.033738
#
#
# Mechanical properties :
#
#
# Convention : Reuss Voigt Hill
#
# Bulk Modulus (GPa) = 43.51447 54.87690 49.19569
# Shear Modulus (GPa) = 28.35142 30.00684 29.17913
#
# Velocity S-wave (km/s) = 3.89940 4.01162 3.95591
# Velocity P-wave (km/s) = 6.60388 7.13364 6.87386
#
# Compressibility (1/GPa) = 0.02298086
#
# Stress axis : x y z
#
# Youngs Moduli (GPa) = 109.70164 53.67588 66.98508
#
# Poissons Ratio (x) = 0.20193 0.30919
# Poissons Ratio (y) = 0.41269 0.09841
# Poissons Ratio (z) = 0.50636 0.07886
#
# Static dielectric constant tensor:
#      x y z
#    x 3.945680 0.000000 0.000000 
#    y 0.000000 3.393100 0.000000 
#    z 0.000000 0.000000 3.352670 
# 
# 
# High freq. dielectric constant tensor:
#      x y z
#    x 1.737210 0.000000 0.000000 
#    y 0.000000 1.721860 0.000000 
#    z 0.000000 0.000000 1.711430 
# 
# From -- ./inp_files/24235.got.cif
#   From: 2010.03.12/outbox.cif.g09.slc.cpg/sg62_13_cif.got.tgz:24235.got - 2010.04.10 19:12:36.
