data_PCOD8254118
_publ_section_title
;
Structure prediction by ZEFSAII (Michael W. Deem and Ramdas Pophale) SiO2 
 PCOD8254118
Probable space group: P N M A
;
_chemical_formula_sum "Si O2"
_cell_formula_units_Z 64
_cell_length_a 14.505566
_cell_length_b 8.638650
_cell_length_c 25.268689
_cell_angle_alpha 90.000000
_cell_angle_beta 90.000000
_cell_angle_gamma 90.000000
_cell_volume 3166.381711
_symmetry_space_group_name_H-M "P N M A"
_symmetry_group_IT_number 62
_symmetry_cell_setting 'orthorhombic'
loop_
_space_group_symop_operation_xyz
x,y,z
1/2-x,-y,1/2+z
1/2+x,1/2-y,1/2-z
-x,1/2+y,-z
-x,-y,-z
1/2+x,y,1/2-z
1/2-x,1/2+y,1/2+z
x,1/2-y,z
loop_
_atom_site_type_symbol
_atom_site_label
_atom_site_fract_x
_atom_site_fract_y
_atom_site_fract_z
Si Si1 0.952353 0.431783 0.448985
Si Si2 0.445219 0.925516 0.762285
Si Si3 0.296651 0.566465 0.386988
Si Si4 0.601156 0.065776 0.508607
Si Si5 0.867387 0.568489 0.225855
Si Si6 0.250462 0.566118 0.575514
Si Si7 0.727800 0.072444 0.305330
Si Si8 0.592327 0.930569 0.129296
O O1 0.948740 0.250000 0.455127
O O2 0.848505 0.497723 0.444054
O O3 0.000000 0.500000 0.500000
O O4 0.009537 0.475574 0.397069
O O5 0.447661 0.750000 0.783983
O O6 0.377747 0.940335 0.712425
O O7 0.544564 0.972372 0.742313
O O8 0.410067 0.038573 0.808265
O O9 0.297013 0.750000 0.385711
O O10 0.358191 0.504073 0.435537
O O11 0.336716 0.504465 0.331565
O O12 0.190606 0.511556 0.393816
O O13 0.596475 0.250000 0.508270
O O14 0.668554 0.002678 0.462442
O O15 0.500000 0.000000 0.500000
O O16 0.889930 0.750000 0.224496
O O17 0.788257 0.537146 0.268365
O O18 0.250926 0.750000 0.573752
O O19 0.267599 0.507667 0.635058
O O20 0.763444 0.250000 0.301927
O O21 0.577752 0.750000 0.118074
#
# Coordination Sequence:
#
# PCOD8254118 Si02
#       8
#     8   8   8   8   8   8   8   8
#     4  11  22  38  62  91 122 159 202 248 305 368
#     4  11  23  37  57  88 123 158 197 248 308 372
#     4   9  20  38  60  85 118 156 197 245 306 363
#     4  10  21  40  62  85 114 154 199 245 295 351
#     4  11  22  38  60  87 119 161 205 250 302 365
#     4   9  20  39  61  82 115 159 197 239 300 362
#     4  10  21  39  61  87 120 158 200 249 305 362
#     4  11  21  39  64  90 121 159 201 250 306 369
#
# _framework density 20.212343000000001
#
# number of rings (size 3 to 8) (size 9 to 14) (size 15 to 20)
#    0.000    1.750    1.250    3.000    1.750    3.500 
#    0.000    5.625    0.000    0.000    0.000    0.000 
#    0.000    0.000    0.000    0.000    0.000    0.000 
#
# Total GULP energy -793780.601313 kJ/mol
# GULP energy per Si atom -12402.821896 kJ/mol
# Density = 2.016634 g / cm^3
# Si number density = 20.212343 Si / 1000 Ang^3
#
#
#
# Elastic Constant Matrix: (Units=GPa)
#
#
# Indices 1 2 3 4 5 6 
#
# 1 154.8481 20.6962 68.8164 0.0000 0.0000 0.0000
# 2 20.6962 32.5540 15.8166 0.0000 0.0000 0.0000
# 3 68.8164 15.8166 159.8162 0.0000 0.0000 0.0000
# 4 0.0000 0.0000 0.0000 26.7065 0.0000 0.0000
# 5 0.0000 0.0000 0.0000 0.0000 41.5674 0.0000
# 6 0.0000 0.0000 0.0000 0.0000 0.0000 28.7110
#
#
#
# Elastic Compliance Matrix: (Units=1/GPa)
#
#
# Indices 1 2 3 4 5 6 
#
# 1 0.008404 -0.003766 -0.003246 0.000000 0.000000 0.000000
# 2 -0.003766 0.033957 -0.001739 0.000000 0.000000 0.000000
# 3 -0.003246 -0.001739 0.007827 0.000000 0.000000 0.000000
# 4 0.000000 0.000000 0.000000 0.037444 0.000000 0.000000
# 5 0.000000 0.000000 0.000000 0.000000 0.024057 0.000000
# 6 0.000000 0.000000 0.000000 0.000000 0.000000 0.034830
#
#
# Mechanical properties :
#
#
# Convention : Reuss Voigt Hill
#
# Bulk Modulus (GPa) = 30.59372 61.98630 46.29001
# Shear Modulus (GPa) = 28.58509 35.52291 32.05400
#
# Velocity S-wave (km/s) = 3.76472 4.19679 3.98661
# Velocity P-wave (km/s) = 5.83665 7.36330 6.64397
#
# Compressibility (1/GPa) = 0.03268644
#
# Stress axis : x y z
#
# Youngs Moduli (GPa) = 118.99406 29.44882 127.76260
#
# Poissons Ratio (x) = 0.11089 0.41471
# Poissons Ratio (y) = 0.44809 0.22221
# Poissons Ratio (z) = 0.38625 0.05122
#
# Static dielectric constant tensor:
#      x y z
#    x 3.431930 0.000000 0.000000 
#    y 0.000000 3.399020 0.000000 
#    z 0.000000 0.000000 3.930970 
# 
# 
# High freq. dielectric constant tensor:
#      x y z
#    x 1.804130 0.000000 0.000000 
#    y 0.000000 1.763220 0.000000 
#    z 0.000000 0.000000 1.801610 
# 
# From -- ./inp_files/29835.got.cif
#   From: 2010.03.12/outbox.cif.g09.slc.cpg/sg62_15_cif.got.tgz:29835.got - 2010.04.10 19:12:36.
