data_PCOD8254242
_publ_section_title
;
Structure prediction by ZEFSAII (Michael W. Deem and Ramdas Pophale) SiO2 
 PCOD8254242
Probable space group: P N M A
;
_chemical_formula_sum "Si O2"
_cell_formula_units_Z 56
_cell_length_a 31.832793
_cell_length_b 12.782395
_cell_length_c 5.407399
_cell_angle_alpha 90.000000
_cell_angle_beta 90.000000
_cell_angle_gamma 90.000000
_cell_volume 2200.267052
_symmetry_space_group_name_H-M "P N M A"
_symmetry_group_IT_number 62
_symmetry_cell_setting 'orthorhombic'
loop_
_space_group_symop_operation_xyz
x,y,z
1/2-x,-y,1/2+z
1/2+x,1/2-y,1/2-z
-x,1/2+y,-z
-x,-y,-z
1/2+x,y,1/2-z
1/2-x,1/2+y,1/2+z
x,1/2-y,z
loop_
_atom_site_type_symbol
_atom_site_label
_atom_site_fract_x
_atom_site_fract_y
_atom_site_fract_z
Si Si1 0.874997 0.371589 0.289546
Si Si2 0.879817 0.872647 0.562873
Si Si3 0.661604 0.868674 0.286030
Si Si4 0.341294 0.869242 0.434150
Si Si5 0.041114 0.633401 0.956826
Si Si6 0.033365 0.043004 0.310656
Si Si7 0.750807 0.938153 0.165646
O O1 0.861379 0.250000 0.302900
O O2 0.862061 0.424419 0.552174
O O3 0.925345 0.384607 0.264185
O O4 0.849910 0.422779 0.051792
O O5 0.869219 0.750000 0.552966
O O6 0.864118 0.924302 0.302959
O O7 0.929908 0.888375 0.571585
O O8 0.855162 0.921525 0.802526
O O9 0.644889 0.750000 0.305629
O O10 0.711400 0.867184 0.242343
O O11 0.357095 0.750000 0.443943
O O12 0.291241 0.869646 0.402533
O O13 0.045498 0.750000 0.064279
O O14 0.993023 0.616245 0.876070
O O15 0.054429 0.554637 0.172203
O O16 0.000000 0.000000 0.500000
O O17 0.762006 0.003624 0.411907
#
# Coordination Sequence:
#
# PCOD8254242 Si02
#       7
#     8   8   8   8   8   8   8
#     4   9  20  38  63  92 119 163 212 252 319 385
#     4  10  23  44  72  99 133 177 231 290 345 407
#     4  10  21  40  63  88 122 165 209 256 311 387
#     4  10  23  45  70  96 130 181 229 279 338 404
#     4  10  24  44  65  94 136 177 221 278 337 412
#     4  11  26  43  65 103 130 176 229 279 351 408
#     4  12  25  40  59  97 131 168 215 269 335 384
#
# _framework density 25.451453000000001
#
# number of rings (size 3 to 8) (size 9 to 14) (size 15 to 20)
#    0.000    1.714    0.000    2.571    6.000    4.571 
#    0.000    5.714    0.000    0.000    0.000    0.000 
#    0.000    0.000    0.000    0.000    0.000    0.000 
#
# Total GULP energy -694543.515071 kJ/mol
# GULP energy per Si atom -12402.562769 kJ/mol
# Density = 2.539352 g / cm^3
# Si number density = 25.451453 Si / 1000 Ang^3
#
#
#
# Elastic Constant Matrix: (Units=GPa)
#
#
# Indices 1 2 3 4 5 6 
#
# 1 151.2265 13.4473 68.0226 0.0000 0.0000 0.0000
# 2 13.4473 37.3563 57.1768 0.0000 0.0000 0.0000
# 3 68.0226 57.1768 228.9039 0.0000 0.0000 0.0000
# 4 0.0000 0.0000 0.0000 26.6107 0.0000 0.0000
# 5 0.0000 0.0000 0.0000 0.0000 52.4911 0.0000
# 6 0.0000 0.0000 0.0000 0.0000 0.0000 27.7331
#
#
#
# Elastic Compliance Matrix: (Units=1/GPa)
#
#
# Indices 1 2 3 4 5 6 
#
# 1 0.007665 0.001177 -0.002572 0.000000 0.000000 0.000000
# 2 0.001177 0.043519 -0.011220 0.000000 0.000000 0.000000
# 3 -0.002572 -0.011220 0.007936 0.000000 0.000000 0.000000
# 4 0.000000 0.000000 0.000000 0.037579 0.000000 0.000000
# 5 0.000000 0.000000 0.000000 0.000000 0.019051 0.000000
# 6 0.000000 0.000000 0.000000 0.000000 0.000000 0.036058
#
#
# Mechanical properties :
#
#
# Convention : Reuss Voigt Hill
#
# Bulk Modulus (GPa) = 29.50764 77.19780 53.35272
# Shear Modulus (GPa) = 26.54875 39.95632 33.25253
#
# Velocity S-wave (km/s) = 3.23323 3.96650 3.61849
# Velocity P-wave (km/s) = 5.05542 7.16762 6.20209
#
# Compressibility (1/GPa) = 0.03388953
#
# Stress axis : x y z
#
# Youngs Moduli (GPa) = 130.46830 22.97854 126.01590
#
# Poissons Ratio (x) = -0.02705 0.32408
# Poissons Ratio (y) = -0.15358 1.41392
# Poissons Ratio (z) = 0.33553 0.25782
#
# Static dielectric constant tensor:
#      x y z
#    x 4.521490 0.000000 0.000000 
#    y 0.000000 4.579650 0.000000 
#    z 0.000000 0.000000 5.242530 
# 
# 
# High freq. dielectric constant tensor:
#      x y z
#    x 2.012610 0.000000 0.000000 
#    y 0.000000 2.035270 0.000000 
#    z 0.000000 0.000000 2.038540 
# 
# From -- ./inp_files/3600.got.cif
#   From: 2010.03.12/outbox.cif.g09.slc.cpg/sg62_2_cif.got.tgz:3600.got - 2010.04.10 19:12:36.
