data_PCOD8255922
_publ_section_title
;
Structure prediction by ZEFSAII (Michael W. Deem and Ramdas Pophale) SiO2 
 PCOD8255922
Probable space group: C M C M
;
_chemical_formula_sum "Si O2"
_cell_formula_units_Z 64
_cell_length_a 8.734840
_cell_length_b 18.889083
_cell_length_c 20.980990
_cell_angle_alpha 90.000000
_cell_angle_beta 90.000000
_cell_angle_gamma 90.000000
_cell_volume 3461.718954
_symmetry_space_group_name_H-M "C M C M"
_symmetry_group_IT_number 63
_symmetry_cell_setting 'orthorhombic'
loop_
_space_group_symop_operation_xyz
x,y,z
-x,-y,1/2+z
x,-y,-z
-x,y,1/2-z
-x,-y,-z
x,y,1/2-z
-x,y,z
x,-y,1/2+z
1/2+x,1/2+y,z
1/2-x,1/2-y,1/2+z
1/2+x,1/2-y,-z
1/2-x,1/2+y,1/2-z
1/2-x,1/2-y,-z
1/2+x,1/2+y,1/2-z
1/2-x,1/2+y,z
1/2+x,1/2-y,1/2+z
loop_
_atom_site_type_symbol
_atom_site_label
_atom_site_fract_x
_atom_site_fract_y
_atom_site_fract_z
Si Si1 0.316133 0.325253 0.886271
Si Si2 0.667396 0.334326 0.750000
Si Si3 0.681578 0.420815 0.001469
Si Si4 0.180985 0.172668 0.880357
Si Si5 0.830411 0.333604 0.250000
O O1 0.500000 0.320289 0.883817
O O2 0.251946 0.354713 0.817323
O O3 0.252912 0.247440 0.900043
O O4 0.254715 0.377534 0.940720
O O5 0.500000 0.369761 0.750000
O O6 0.654705 0.250096 0.750000
O O7 0.500000 0.423246 0.996807
O O8 0.733827 0.383230 0.066316
O O9 0.750266 0.500000 0.000000
O O10 0.239964 0.142048 0.813064
O O11 0.000000 0.181478 0.877320
O O12 0.000000 0.367863 0.250000
#
# Coordination Sequence:
#
# PCOD8255922 Si02
#       5
#    16   8  16  16   8
#     4   9  16  29  49  70  95 128 164 199 239 287
#     4   7  12  23  42  67  87 111 151 191 226 270
#     4   9  18  31  46  68 100 134 167 202 236 277
#     4  10  18  29  49  75  99 123 158 204 245 282
#     4   9  17  31  50  71  97 125 155 195 244 298
#
# _framework density 18.487926999999999
#
# number of rings (size 3 to 8) (size 9 to 14) (size 15 to 20)
#    0.000    3.000    0.000    3.375    0.000    0.000 
#    0.000    2.500    0.000   12.750    0.000    0.000 
#    0.000    0.000    0.000    0.000    0.000    0.000 
#
# Total GULP energy -396516.710060 kJ/mol
# GULP energy per Si atom -12391.147189 kJ/mol
# Density = 1.844585 g / cm^3
# Si number density = 18.487927 Si / 1000 Ang^3
#
#
#
# Elastic Constant Matrix: (Units=GPa)
#
#
# Indices 1 2 3 4 5 6 
#
# 1 42.2093 21.2651 32.2192 0.0000 0.0000 0.0000
# 2 21.2651 109.1132 90.3313 0.0000 0.0000 0.0000
# 3 32.2192 90.3313 208.9248 0.0000 0.0000 0.0000
# 4 0.0000 0.0000 0.0000 7.0534 0.0000 0.0000
# 5 0.0000 0.0000 0.0000 0.0000 20.9519 0.0000
# 6 0.0000 0.0000 0.0000 0.0000 0.0000 15.5757
#
#
#
# Elastic Compliance Matrix: (Units=1/GPa)
#
#
# Indices 1 2 3 4 5 6 
#
# 1 0.027418 -0.002871 -0.002987 0.000000 0.000000 0.000000
# 2 -0.002871 0.014575 -0.005859 0.000000 0.000000 0.000000
# 3 -0.002987 -0.005859 0.007780 0.000000 0.000000 0.000000
# 4 0.000000 0.000000 0.000000 0.141775 0.000000 0.000000
# 5 0.000000 0.000000 0.000000 0.000000 0.047728 0.000000
# 6 0.000000 0.000000 0.000000 0.000000 0.000000 0.064203
#
#
# Mechanical properties :
#
#
# Convention : Reuss Voigt Hill
#
# Bulk Modulus (GPa) = 37.96566 71.98649 54.97608
# Shear Modulus (GPa) = 14.89464 23.14499 19.01981
#
# Velocity S-wave (km/s) = 2.84146 3.54205 3.21092
# Velocity P-wave (km/s) = 5.59868 7.46658 6.59905
#
# Compressibility (1/GPa) = 0.02633959
#
# Stress axis : x y z
#
# Youngs Moduli (GPa) = 36.47278 68.61269 128.53135
#
# Poissons Ratio (x) = 0.19695 0.38393
# Poissons Ratio (y) = 0.10470 0.75304
# Poissons Ratio (z) = 0.10895 0.40199
#
# Static dielectric constant tensor:
#      x y z
#    x 3.099610 0.000000 0.000000 
#    y 0.000000 3.199380 0.000000 
#    z 0.000000 0.000000 4.028780 
# 
# 
# High freq. dielectric constant tensor:
#      x y z
#    x 1.681730 0.000000 0.000000 
#    y 0.000000 1.678580 0.000000 
#    z 0.000000 0.000000 1.746110 
# 
# From -- ./inp_files/50356.got.cif
#   From: 2010.03.12/outbox.cif.g09.slc.cpg/sg63_26_cif.got.tgz:50356.got - 2010.04.10 19:34:48.
