data_PCOD8255580
_publ_section_title
;
Structure prediction by ZEFSAII (Michael W. Deem and Ramdas Pophale) SiO2 
 PCOD8255580
Probable space group: C M C M
;
_chemical_formula_sum "Si O2"
_cell_formula_units_Z 112
_cell_length_a 13.160637
_cell_length_b 13.993988
_cell_length_c 31.410238
_cell_angle_alpha 90.000000
_cell_angle_beta 90.000000
_cell_angle_gamma 90.000000
_cell_volume 5784.817133
_symmetry_space_group_name_H-M "C M C M"
_symmetry_group_IT_number 63
_symmetry_cell_setting 'orthorhombic'
loop_
_space_group_symop_operation_xyz
x,y,z
-x,-y,1/2+z
x,-y,-z
-x,y,1/2-z
-x,-y,-z
x,y,1/2-z
-x,y,z
x,-y,1/2+z
1/2+x,1/2+y,z
1/2-x,1/2-y,1/2+z
1/2+x,1/2-y,-z
1/2-x,1/2+y,1/2-z
1/2-x,1/2-y,-z
1/2+x,1/2+y,1/2-z
1/2-x,1/2+y,z
1/2+x,1/2-y,1/2+z
loop_
_atom_site_type_symbol
_atom_site_label
_atom_site_fract_x
_atom_site_fract_y
_atom_site_fract_z
Si Si1 0.618460 0.774477 0.200772
Si Si2 0.118431 0.186070 0.611144
Si Si3 0.703685 0.344845 0.480464
Si Si4 0.250071 0.143038 0.141512
Si Si5 0.291855 0.935439 0.149406
Si Si6 0.612981 0.349116 0.934144
Si Si7 0.611481 0.121052 0.565206
O O1 0.637853 0.752630 0.250000
O O2 0.500000 0.773815 0.189262
O O3 0.672298 0.693005 0.173366
O O4 0.666786 0.877197 0.189853
O O5 0.133684 0.178768 0.560255
O O6 0.156953 0.288573 0.628346
O O7 0.181018 0.103030 0.635056
O O8 0.000000 0.174976 0.622191
O O9 0.750000 0.250000 0.500000
O O10 0.637734 0.390585 0.518586
O O11 0.799063 0.412872 0.466890
O O12 0.191304 0.106586 0.099289
O O13 0.289870 0.046107 0.163380
O O14 0.372777 0.924229 0.111310
O O15 0.500000 0.383909 0.922893
O O16 0.622193 0.234990 0.929960
O O17 0.500000 0.092463 0.547638
#
# Coordination Sequence:
#
# PCOD8255580 Si02
#       7
#    16  16  16  16  16  16  16
#     4  10  21  40  66  90 111 140 180 225 276 339
#     4  10  20  35  52  78 112 152 193 232 272 326
#     4   9  15  30  49  77 107 147 194 239 279 319
#     4  11  21  36  57  85 114 146 183 232 276 336
#     4  10  21  36  57  81 118 145 181 226 283 334
#     4  10  17  30  55  78 104 149 196 237 279 322
#     4   9  16  30  53  75 104 148 191 232 275 320
#
# _framework density 19.361027
#
# number of rings (size 3 to 8) (size 9 to 14) (size 15 to 20)
#    0.000    2.143    5.714    1.286    0.000    3.429 
#    0.000    2.857    0.000   12.000    0.000    0.000 
#    0.000    0.000    0.000    0.000    0.000    0.000 
#
# Total GULP energy -694160.152540 kJ/mol
# GULP energy per Si atom -12395.717010 kJ/mol
# Density = 1.931696 g / cm^3
# Si number density = 19.361027 Si / 1000 Ang^3
#
#
#
# Elastic Constant Matrix: (Units=GPa)
#
#
# Indices 1 2 3 4 5 6 
#
# 1 120.8942 33.0109 38.7268 0.0000 0.0000 0.0000
# 2 33.0109 82.2309 27.5787 0.0000 0.0000 0.0000
# 3 38.7268 27.5787 88.0195 0.0000 0.0000 0.0000
# 4 0.0000 0.0000 0.0000 8.4204 0.0000 0.0000
# 5 0.0000 0.0000 0.0000 0.0000 26.9987 0.0000
# 6 0.0000 0.0000 0.0000 0.0000 0.0000 9.3144
#
#
#
# Elastic Compliance Matrix: (Units=1/GPa)
#
#
# Indices 1 2 3 4 5 6 
#
# 1 0.010211 -0.002897 -0.003585 0.000000 0.000000 0.000000
# 2 -0.002897 0.014411 -0.003241 0.000000 0.000000 0.000000
# 3 -0.003585 -0.003241 0.013954 0.000000 0.000000 0.000000
# 4 0.000000 0.000000 0.000000 0.118759 0.000000 0.000000
# 5 0.000000 0.000000 0.000000 0.000000 0.037039 0.000000
# 6 0.000000 0.000000 0.000000 0.000000 0.000000 0.107361
#
#
# Mechanical properties :
#
#
# Convention : Reuss Voigt Hill
#
# Bulk Modulus (GPa) = 52.27242 54.41972 53.34607
# Shear Modulus (GPa) = 15.26454 21.73524 18.49989
#
# Velocity S-wave (km/s) = 2.81092 3.35420 3.09451
# Velocity P-wave (km/s) = 6.13127 6.57037 6.35461
#
# Compressibility (1/GPa) = 0.01913055
#
# Stress axis : x y z
#
# Youngs Moduli (GPa) = 97.93258 69.39313 71.66483
#
# Poissons Ratio (x) = 0.20102 0.25692
# Poissons Ratio (y) = 0.28369 0.23224
# Poissons Ratio (z) = 0.35109 0.22488
#
# Static dielectric constant tensor:
#      x y z
#    x 3.778940 0.000000 0.000000 
#    y 0.000000 3.258220 0.000000 
#    z 0.000000 0.000000 3.710700 
# 
# 
# High freq. dielectric constant tensor:
#      x y z
#    x 1.760570 0.000000 0.000000 
#    y 0.000000 1.729400 0.000000 
#    z 0.000000 0.000000 1.735840 
# 
# From -- ./inp_files/73548.got.cif
#   From: 2010.03.12/outbox.cif.g09.slc.cpg/sg63_37_cif.got.tgz:73548.got - 2010.04.10 19:34:48.
