data_PCOD8255344
_publ_section_title
;
Structure prediction by ZEFSAII (Michael W. Deem and Ramdas Pophale) SiO2 
 PCOD8255344
Probable space group: C M C M
;
_chemical_formula_sum "Si O2"
_cell_formula_units_Z 112
_cell_length_a 20.382818
_cell_length_b 10.307515
_cell_length_c 25.269161
_cell_angle_alpha 90.000000
_cell_angle_beta 90.000000
_cell_angle_gamma 90.000000
_cell_volume 5308.954761
_symmetry_space_group_name_H-M "C M C M"
_symmetry_group_IT_number 63
_symmetry_cell_setting 'orthorhombic'
loop_
_space_group_symop_operation_xyz
x,y,z
-x,-y,1/2+z
x,-y,-z
-x,y,1/2-z
-x,-y,-z
x,y,1/2-z
-x,y,z
x,-y,1/2+z
1/2+x,1/2+y,z
1/2-x,1/2-y,1/2+z
1/2+x,1/2-y,-z
1/2-x,1/2+y,1/2-z
1/2-x,1/2-y,-z
1/2+x,1/2+y,1/2-z
1/2-x,1/2+y,z
1/2+x,1/2-y,1/2+z
loop_
_atom_site_type_symbol
_atom_site_label
_atom_site_fract_x
_atom_site_fract_y
_atom_site_fract_z
Si Si1 0.072975 0.604312 0.959902
Si Si2 0.649017 0.676840 0.993571
Si Si3 0.812795 0.863623 0.309545
Si Si4 0.270463 0.093338 0.456753
Si Si5 0.928626 0.558438 0.358752
Si Si6 0.289249 0.922743 0.837113
Si Si7 0.924952 0.152726 0.607548
O O1 0.075952 0.559293 0.899496
O O2 0.000000 0.632944 0.979180
O O3 0.104402 0.500000 0.000000
O O4 0.109859 0.739595 0.964009
O O5 0.701462 0.761191 0.959608
O O6 0.601399 0.606901 0.950465
O O7 0.692101 0.583939 0.031317
O O8 0.839673 0.846533 0.250000
O O9 0.775183 0.730060 0.326469
O O10 0.875673 0.897450 0.346399
O O11 0.761083 0.982854 0.307631
O O12 0.283833 0.038849 0.398701
O O13 0.305588 0.000000 0.500000
O O14 0.865748 0.550668 0.319416
O O15 0.924138 0.690942 0.392706
O O16 0.000000 0.553607 0.328927
O O17 0.000000 0.101280 0.616418
#
# Coordination Sequence:
#
# PCOD8255344 Si02
#       7
#    16  16  16  16  16  16  16
#     4  10  16  24  44  73 108 148 190 228 276 340
#     4  11  19  30  49  80 116 155 194 235 284 356
#     4  11  24  42  65  90 114 154 206 263 320 364
#     4  11  22  31  50  81 121 163 200 229 287 360
#     4   9  17  29  51  84 118 153 192 243 298 351
#     4  11  22  40  62  90 125 157 199 255 305 369
#     4  10  19  35  57  86 119 153 199 256 306 354
#
# _framework density 21.096432
#
# number of rings (size 3 to 8) (size 9 to 14) (size 15 to 20)
#    0.000    1.571    4.286    3.000    4.000    0.286 
#    0.000    0.000    0.000    9.857    0.000    0.000 
#    0.000    0.000    0.000    0.000    0.000    0.000 
#
# Total GULP energy -693841.403492 kJ/mol
# GULP energy per Si atom -12390.025062 kJ/mol
# Density = 2.104842 g / cm^3
# Si number density = 21.096432 Si / 1000 Ang^3
#
#
#
# Elastic Constant Matrix: (Units=GPa)
#
#
# Indices 1 2 3 4 5 6 
#
# 1 166.5004 32.1773 20.4025 0.0000 0.0000 0.0000
# 2 32.1773 42.2971 -4.5178 0.0000 0.0000 0.0000
# 3 20.4025 -4.5178 59.0028 0.0000 0.0000 0.0000
# 4 0.0000 0.0000 0.0000 15.3069 0.0000 0.0000
# 5 0.0000 0.0000 0.0000 0.0000 17.8779 0.0000
# 6 0.0000 0.0000 0.0000 0.0000 0.0000 28.1647
#
#
#
# Elastic Compliance Matrix: (Units=1/GPa)
#
#
# Indices 1 2 3 4 5 6 
#
# 1 0.007558 -0.006079 -0.003079 0.000000 0.000000 0.000000
# 2 -0.006079 0.028726 0.004301 0.000000 0.000000 0.000000
# 3 -0.003079 0.004301 0.018342 0.000000 0.000000 0.000000
# 4 0.000000 0.000000 0.000000 0.065330 0.000000 0.000000
# 5 0.000000 0.000000 0.000000 0.000000 0.055935 0.000000
# 6 0.000000 0.000000 0.000000 0.000000 0.000000 0.035505
#
#
# Mechanical properties :
#
#
# Convention : Reuss Voigt Hill
#
# Bulk Modulus (GPa) = 22.26468 40.43604 31.35036
# Shear Modulus (GPa) = 21.17924 26.91911 24.04918
#
# Velocity S-wave (km/s) = 3.17192 3.57599 3.38000
# Velocity P-wave (km/s) = 4.89810 6.02156 5.48865
#
# Compressibility (1/GPa) = 0.04491419
#
# Stress axis : x y z
#
# Youngs Moduli (GPa) = 132.31022 34.81175 54.51859
#
# Poissons Ratio (x) = 0.21161 0.16786
# Poissons Ratio (y) = 0.80426 -0.23451
# Poissons Ratio (z) = 0.40737 -0.14974
#
# Static dielectric constant tensor:
#      x y z
#    x 4.300730 0.000000 0.000000 
#    y 0.000000 3.547850 0.000000 
#    z 0.000000 0.000000 3.404220 
# 
# 
# High freq. dielectric constant tensor:
#      x y z
#    x 1.852800 0.000000 0.000000 
#    y 0.000000 1.795370 0.000000 
#    z 0.000000 0.000000 1.787530 
# 
# From -- ./inp_files/64622.got.cif
#   From: 2010.03.12/outbox.cif.g09.slc.cpg/sg63_33_cif.got.tgz:64622.got - 2010.04.10 19:34:48.
