data_PCOD8255631
_publ_section_title
;
Structure prediction by ZEFSAII (Michael W. Deem and Ramdas Pophale) SiO2 
 PCOD8255631
Probable space group: C M C M
;
_chemical_formula_sum "Si O2"
_cell_formula_units_Z 80
_cell_length_a 24.107707
_cell_length_b 12.440827
_cell_length_c 18.387598
_cell_angle_alpha 90.000000
_cell_angle_beta 90.000000
_cell_angle_gamma 90.000000
_cell_volume 5514.804938
_symmetry_space_group_name_H-M "C M C M"
_symmetry_group_IT_number 63
_symmetry_cell_setting 'orthorhombic'
loop_
_space_group_symop_operation_xyz
x,y,z
-x,-y,1/2+z
x,-y,-z
-x,y,1/2-z
-x,-y,-z
x,y,1/2-z
-x,y,z
x,-y,1/2+z
1/2+x,1/2+y,z
1/2-x,1/2-y,1/2+z
1/2+x,1/2-y,-z
1/2-x,1/2+y,1/2-z
1/2-x,1/2-y,-z
1/2+x,1/2+y,1/2-z
1/2-x,1/2+y,z
1/2+x,1/2-y,1/2+z
loop_
_atom_site_type_symbol
_atom_site_label
_atom_site_fract_x
_atom_site_fract_y
_atom_site_fract_z
Si Si1 0.825951 0.967236 0.667913
Si Si2 0.939592 0.175711 0.012847
Si Si3 0.826822 0.225101 0.060701
Si Si4 0.242532 0.093865 0.552533
Si Si5 0.060826 0.028853 0.615568
O O1 0.803859 0.957035 0.750000
O O2 0.824257 0.849482 0.631873
O O3 0.785967 0.047616 0.624497
O O4 0.888419 0.015764 0.671392
O O5 0.890377 0.254752 0.039046
O O6 0.000000 0.231342 0.024400
O O7 0.935059 0.068147 0.059379
O O8 0.932732 0.140662 0.928668
O O9 0.794642 0.334786 0.077537
O O10 0.802162 0.164108 0.990869
O O11 0.264947 0.000000 0.500000
O O12 0.000000 0.027169 0.654662
#
# Coordination Sequence:
#
# PCOD8255631 Si02
#       5
#    16  16  16  16  16
#     4  10  18  26  38  60  87 109 131 164 204 246
#     4   8  12  21  40  60  77 101 135 169 200 237
#     4   9  16  28  44  58  77 108 142 168 201 243
#     4   9  17  29  43  58  77 107 142 173 199 238
#     4   8  13  22  36  56  83 109 130 157 196 244
#
# _framework density 14.506406
#
# number of rings (size 3 to 8) (size 9 to 14) (size 15 to 20)
#    0.000    3.200    2.000    1.200    0.000    1.200 
#    0.000    0.000    0.000    0.600    0.000    0.000 
#    0.000    0.000    0.000    1.000    0.000    0.000 
#
# Total GULP energy -495619.570276 kJ/mol
# GULP energy per Si atom -12390.489257 kJ/mol
# Density = 1.447339 g / cm^3
# Si number density = 14.506406 Si / 1000 Ang^3
#
#
#
# Elastic Constant Matrix: (Units=GPa)
#
#
# Indices 1 2 3 4 5 6 
#
# 1 122.4061 52.2370 37.3818 0.0000 0.0000 0.0000
# 2 52.2370 53.9093 25.8839 0.0000 0.0000 0.0000
# 3 37.3818 25.8839 77.1797 0.0000 0.0000 0.0000
# 4 0.0000 0.0000 0.0000 8.9729 0.0000 0.0000
# 5 0.0000 0.0000 0.0000 0.0000 13.0397 0.0000
# 6 0.0000 0.0000 0.0000 0.0000 0.0000 20.7001
#
#
#
# Elastic Compliance Matrix: (Units=1/GPa)
#
#
# Indices 1 2 3 4 5 6 
#
# 1 0.014398 -0.012638 -0.002735 0.000000 0.000000 0.000000
# 2 -0.012638 0.033203 -0.005014 0.000000 0.000000 0.000000
# 3 -0.002735 -0.005014 0.015963 0.000000 0.000000 0.000000
# 4 0.000000 0.000000 0.000000 0.111447 0.000000 0.000000
# 5 0.000000 0.000000 0.000000 0.000000 0.076689 0.000000
# 6 0.000000 0.000000 0.000000 0.000000 0.000000 0.048309
#
#
# Mechanical properties :
#
#
# Convention : Reuss Voigt Hill
#
# Bulk Modulus (GPa) = 43.87993 53.83337 48.85665
# Shear Modulus (GPa) = 14.35208 17.74203 16.04706
#
# Velocity S-wave (km/s) = 3.14882 3.50100 3.32957
# Velocity P-wave (km/s) = 6.59806 7.31665 6.96663
#
# Compressibility (1/GPa) = 0.02278946
#
# Stress axis : x y z
#
# Youngs Moduli (GPa) = 69.45285 30.11738 62.64421
#
# Poissons Ratio (x) = 0.38063 0.17135
# Poissons Ratio (y) = 0.87777 0.31411
# Poissons Ratio (z) = 0.18997 0.15101
#
# Static dielectric constant tensor:
#      x y z
#    x 3.155460 0.000000 0.000000 
#    y 0.000000 2.512750 0.000000 
#    z 0.000000 0.000000 2.557270 
# 
# 
# High freq. dielectric constant tensor:
#      x y z
#    x 1.565030 0.000000 0.000000 
#    y 0.000000 1.505280 0.000000 
#    z 0.000000 0.000000 1.532550 
# 
# From -- ./inp_files/46991.got.cif
#   From: 2010.03.12/outbox.cif.g09.slc.cpg/sg63_24_cif.got.tgz:46991.got - 2010.04.10 19:34:48.
