data_PCOD8255252
_publ_section_title
;
Structure prediction by ZEFSAII (Michael W. Deem and Ramdas Pophale) SiO2 
 PCOD8255252
Probable space group: P N M A
;
_chemical_formula_sum "Si O2"
_cell_formula_units_Z 40
_cell_length_a 8.560083
_cell_length_b 21.427534
_cell_length_c 9.903589
_cell_angle_alpha 90.000000
_cell_angle_beta 90.000000
_cell_angle_gamma 90.000000
_cell_volume 1816.530848
_symmetry_space_group_name_H-M "P N M A"
_symmetry_group_IT_number 62
_symmetry_cell_setting 'orthorhombic'
loop_
_space_group_symop_operation_xyz
x,y,z
1/2-x,-y,1/2+z
1/2+x,1/2-y,1/2-z
-x,1/2+y,-z
-x,-y,-z
1/2+x,y,1/2-z
1/2-x,1/2+y,1/2+z
x,1/2-y,z
loop_
_atom_site_type_symbol
_atom_site_label
_atom_site_fract_x
_atom_site_fract_y
_atom_site_fract_z
Si Si1 0.968959 0.750000 0.346190
Si Si2 0.112669 0.750000 0.063367
Si Si3 0.597486 0.881995 0.093047
Si Si4 0.771489 0.579868 0.828118
Si Si5 0.274871 0.937085 0.170794
Si Si6 0.893766 0.379489 0.076498
O O1 0.785892 0.750000 0.376500
O O2 0.048565 0.690013 0.413334
O O3 0.988711 0.750000 0.184973
O O4 0.079514 0.809175 0.970482
O O5 0.453808 0.925779 0.133738
O O6 0.733775 0.892119 0.203208
O O7 0.654295 0.901724 0.946624
O O8 0.747421 0.508234 0.786443
O O9 0.733828 0.620798 0.695852
O O10 0.948160 0.591071 0.868916
O O11 0.162769 0.922167 0.046159
#
# Coordination Sequence:
#
# PCOD8255252 Si02
#       6
#     4   4   8   8   8   8
#     4  12  24  47  71 102 136 176 244 288 338 419
#     4  12  28  47  77  98 148 176 244 290 352 423
#     4  12  24  42  76 102 139 191 236 293 353 408
#     4  12  27  45  70 105 148 182 235 291 360 422
#     4  12  23  46  71 107 141 188 237 290 349 426
#     4  12  26  46  69 103 141 190 232 292 355 417
#
# _framework density 22.019997
#
# number of rings (size 3 to 8) (size 9 to 14) (size 15 to 20)
#    0.000    0.000    4.000    6.000    2.800    1.600 
#    0.000    0.000    0.000    0.000    0.000    0.000 
#    0.000    0.000    0.000    0.000    0.000    0.000 
#
# Total GULP energy -496431.197660 kJ/mol
# GULP energy per Si atom -12410.779941 kJ/mol
# Density = 2.196988 g / cm^3
# Si number density = 22.019997 Si / 1000 Ang^3
#
#
#
# Elastic Constant Matrix: (Units=GPa)
#
#
# Indices 1 2 3 4 5 6 
#
# 1 32.2186 17.8464 -2.6945 0.0000 0.0000 0.0000
# 2 17.8464 67.2195 47.3187 0.0000 0.0000 0.0000
# 3 -2.6945 47.3187 76.1309 0.0000 0.0000 0.0000
# 4 0.0000 0.0000 0.0000 37.3813 0.0000 0.0000
# 5 0.0000 0.0000 0.0000 0.0000 32.2594 0.0000
# 6 0.0000 0.0000 0.0000 0.0000 0.0000 27.3526
#
#
#
# Elastic Compliance Matrix: (Units=1/GPa)
#
#
# Indices 1 2 3 4 5 6 
#
# 1 0.045363 -0.023422 0.016163 0.000000 0.000000 0.000000
# 2 -0.023422 0.038542 -0.024784 0.000000 0.000000 0.000000
# 3 0.016163 -0.024784 0.029112 0.000000 0.000000 0.000000
# 4 0.000000 0.000000 0.000000 0.026751 0.000000 0.000000
# 5 0.000000 0.000000 0.000000 0.000000 0.030999 0.000000
# 6 0.000000 0.000000 0.000000 0.000000 0.000000 0.036560
#
#
# Mechanical properties :
#
#
# Convention : Reuss Voigt Hill
#
# Bulk Modulus (GPa) = 20.43683 33.39003 26.91343
# Shear Modulus (GPa) = 17.37787 26.93857 22.15822
#
# Velocity S-wave (km/s) = 2.81229 3.50146 3.17563
# Velocity P-wave (km/s) = 4.45494 5.61635 5.06902
#
# Compressibility (1/GPa) = 0.04893126
#
# Stress axis : x y z
#
# Youngs Moduli (GPa) = 22.04420 25.94599 34.35034
#
# Poissons Ratio (x) = 0.60770 -0.55521
# Poissons Ratio (y) = 0.51631 0.85135
# Poissons Ratio (z) = -0.35630 0.64305
#
# Static dielectric constant tensor:
#      x y z
#    x 4.115910 0.000000 0.000000 
#    y 0.000000 4.137340 0.000000 
#    z 0.000000 0.000000 4.172760 
# 
# 
# High freq. dielectric constant tensor:
#      x y z
#    x 1.881830 0.000000 0.000000 
#    y 0.000000 1.876560 0.000000 
#    z 0.000000 0.000000 1.876800 
# 
# From -- ./inp_files/4323.got.cif
#   From: 2010.03.12/outbox.cif.g09.slc.cpg/sg62_3_cif.got.tgz:4323.got - 2010.04.10 19:12:36.
