data_PCOD8255559
_publ_section_title
;
Structure prediction by ZEFSAII (Michael W. Deem and Ramdas Pophale) SiO2 
 PCOD8255559
Probable space group: C M C M
;
_chemical_formula_sum "Si O2"
_cell_formula_units_Z 104
_cell_length_a 20.293869
_cell_length_b 9.490160
_cell_length_c 30.446976
_cell_angle_alpha 90.000000
_cell_angle_beta 90.000000
_cell_angle_gamma 90.000000
_cell_volume 5863.845945
_symmetry_space_group_name_H-M "C M C M"
_symmetry_group_IT_number 63
_symmetry_cell_setting 'orthorhombic'
loop_
_space_group_symop_operation_xyz
x,y,z
-x,-y,1/2+z
x,-y,-z
-x,y,1/2-z
-x,-y,-z
x,y,1/2-z
-x,y,z
x,-y,1/2+z
1/2+x,1/2+y,z
1/2-x,1/2-y,1/2+z
1/2+x,1/2-y,-z
1/2-x,1/2+y,1/2-z
1/2-x,1/2-y,-z
1/2+x,1/2+y,1/2-z
1/2-x,1/2+y,z
1/2+x,1/2-y,1/2+z
loop_
_atom_site_type_symbol
_atom_site_label
_atom_site_fract_x
_atom_site_fract_y
_atom_site_fract_z
Si Si1 0.833471 0.257158 0.035166
Si Si2 0.074338 0.140961 0.971099
Si Si3 0.421821 0.920203 0.201836
Si Si4 0.247245 0.000000 0.500000
Si Si5 0.075910 0.078876 0.624384
Si Si6 0.423126 0.258374 0.620210
Si Si7 0.421488 0.762383 0.701937
O O1 0.875810 0.269262 0.079274
O O2 0.794834 0.106501 0.031253
O O3 0.883428 0.263185 0.993890
O O4 0.788668 0.396921 0.032057
O O5 0.106743 0.112097 0.923390
O O6 0.000000 0.195552 0.967288
O O7 0.077232 0.000000 0.000000
O O8 0.396939 0.866168 0.250000
O O9 0.500000 0.913438 0.201426
O O10 0.394915 0.829494 0.161323
O O11 0.397119 0.078914 0.194358
O O12 0.110435 0.167571 0.663368
O O13 0.000000 0.121937 0.621270
O O14 0.083790 0.917080 0.636354
O O15 0.500000 0.224235 0.608078
O O16 0.397468 0.708976 0.750000
O O17 0.500000 0.754004 0.700340
#
# Coordination Sequence:
#
# PCOD8255559 Si02
#       7
#    16  16  16   8  16  16  16
#     4  11  20  38  51  73  95 132 170 215 246 306
#     4  10  17  29  51  73 100 133 160 199 255 306
#     4   8  15  27  42  65 101 137 158 185 242 307
#     4  10  24  36  54  66  96 132 176 212 260 284
#     4   9  16  24  40  66  90 124 163 192 229 283
#     4  10  18  29  50  76 103 129 160 202 250 300
#     4   8  14  25  38  55  89 133 167 189 217 275
#
# _framework density 17.735800999999999
#
# number of rings (size 3 to 8) (size 9 to 14) (size 15 to 20)
#    0.000    2.615    2.308    1.385    0.000    1.846 
#    0.000    6.154    0.000    0.000    0.000    1.077 
#    0.000    4.923    0.000    0.308    0.000    0.615 
#
# Total GULP energy -644220.062443 kJ/mol
# GULP energy per Si atom -12388.847355 kJ/mol
# Density = 1.769543 g / cm^3
# Si number density = 17.735801 Si / 1000 Ang^3
#
#
#
# Elastic Constant Matrix: (Units=GPa)
#
#
# Indices 1 2 3 4 5 6 
#
# 1 52.4806 32.9232 37.5043 0.0000 0.0000 0.0000
# 2 32.9232 88.4559 78.3790 0.0000 0.0000 0.0000
# 3 37.5043 78.3790 186.4472 0.0000 0.0000 0.0000
# 4 0.0000 0.0000 0.0000 32.2735 0.0000 0.0000
# 5 0.0000 0.0000 0.0000 0.0000 9.3777 0.0000
# 6 0.0000 0.0000 0.0000 0.0000 0.0000 11.8858
#
#
#
# Elastic Compliance Matrix: (Units=1/GPa)
#
#
# Indices 1 2 3 4 5 6 
#
# 1 0.025231 -0.007799 -0.001797 0.000000 0.000000 0.000000
# 2 -0.007799 0.020426 -0.007018 0.000000 0.000000 0.000000
# 3 -0.001797 -0.007018 0.008675 0.000000 0.000000 0.000000
# 4 0.000000 0.000000 0.000000 0.030985 0.000000 0.000000
# 5 0.000000 0.000000 0.000000 0.000000 0.106636 0.000000
# 6 0.000000 0.000000 0.000000 0.000000 0.000000 0.084134
#
#
# Mechanical properties :
#
#
# Convention : Reuss Voigt Hill
#
# Bulk Modulus (GPa) = 47.38179 69.44408 58.41293
# Shear Modulus (GPa) = 15.80526 22.61256 19.20891
#
# Velocity S-wave (km/s) = 2.98845 3.57454 3.29456
# Velocity P-wave (km/s) = 6.21942 7.50175 6.89048
#
# Compressibility (1/GPa) = 0.02110515
#
# Stress axis : x y z
#
# Youngs Moduli (GPa) = 39.63329 48.95608 115.27157
#
# Poissons Ratio (x) = 0.38181 0.20712
# Poissons Ratio (y) = 0.30910 0.80899
# Poissons Ratio (z) = 0.07121 0.34358
#
# Static dielectric constant tensor:
#      x y z
#    x 3.020050 0.000000 0.000000 
#    y 0.000000 3.321800 0.000000 
#    z 0.000000 0.000000 3.767590 
# 
# 
# High freq. dielectric constant tensor:
#      x y z
#    x 1.631710 0.000000 0.000000 
#    y 0.000000 1.678800 0.000000 
#    z 0.000000 0.000000 1.696160 
# 
# From -- ./inp_files/74287.got.cif
#   From: 2010.03.12/outbox.cif.g09.slc.cpg/sg63_38_cif.got.tgz:74287.got - 2010.04.10 19:34:48.
