data_PCOD8255569
_publ_section_title
;
Structure prediction by ZEFSAII (Michael W. Deem and Ramdas Pophale) SiO2 
 PCOD8255569
Probable space group: C M C M
;
_chemical_formula_sum "Si O2"
_cell_formula_units_Z 96
_cell_length_a 8.371718
_cell_length_b 23.803697
_cell_length_c 26.253950
_cell_angle_alpha 90.000000
_cell_angle_beta 90.000000
_cell_angle_gamma 90.000000
_cell_volume 5231.830412
_symmetry_space_group_name_H-M "C M C M"
_symmetry_group_IT_number 63
_symmetry_cell_setting 'orthorhombic'
loop_
_space_group_symop_operation_xyz
x,y,z
-x,-y,1/2+z
x,-y,-z
-x,y,1/2-z
-x,-y,-z
x,y,1/2-z
-x,y,z
x,-y,1/2+z
1/2+x,1/2+y,z
1/2-x,1/2-y,1/2+z
1/2+x,1/2-y,-z
1/2-x,1/2+y,1/2-z
1/2-x,1/2-y,-z
1/2+x,1/2+y,1/2-z
1/2-x,1/2+y,z
1/2+x,1/2-y,1/2+z
loop_
_atom_site_type_symbol
_atom_site_label
_atom_site_fract_x
_atom_site_fract_y
_atom_site_fract_z
Si Si1 0.310625 0.018028 0.556973
Si Si2 0.816641 0.747199 0.625279
Si Si3 0.689119 0.143388 0.932611
Si Si4 0.184671 0.679827 0.459611
Si Si5 0.184861 0.913376 0.893990
Si Si6 0.314244 0.840825 0.692294
O O1 0.500000 0.014968 0.562776
O O2 0.242888 0.080264 0.570324
O O3 0.257570 0.000000 0.500000
O O4 0.228979 0.978727 0.599665
O O5 0.764649 0.681672 0.616779
O O6 0.795988 0.776773 0.570497
O O7 0.712690 0.778910 0.667789
O O8 0.000000 0.751083 0.642240
O O9 0.500000 0.139305 0.938476
O O10 0.752066 0.175163 0.983165
O O11 0.202497 0.618654 0.434055
O O12 0.000000 0.698279 0.456319
O O13 0.220339 0.889927 0.837331
O O14 0.000000 0.902956 0.906184
O O15 0.251089 0.839764 0.750000
O O16 0.500000 0.854830 0.689799
#
# Coordination Sequence:
#
# PCOD8255569 Si02
#       6
#    16  16  16  16  16  16
#     4  10  18  33  53  70 100 147 185 212 242 291
#     4  10  19  31  48  75 105 129 162 210 259 301
#     4   9  18  30  47  71 101 140 178 205 240 294
#     4  10  17  30  48  68  99 140 178 204 239 294
#     4  11  21  32  49  78 108 132 167 216 263 302
#     4  10  21  38  59  78  96 126 169 212 258 315
#
# _framework density 18.349219000000002
#
# number of rings (size 3 to 8) (size 9 to 14) (size 15 to 20)
#    0.000    2.000    1.667    5.500    0.000    1.667 
#    0.000    4.167    0.000    1.000    0.000    2.333 
#    0.000    0.000    0.000    0.000    0.000    0.000 
#
# Total GULP energy -594981.736458 kJ/mol
# GULP energy per Si atom -12395.452843 kJ/mol
# Density = 1.830746 g / cm^3
# Si number density = 18.349219 Si / 1000 Ang^3
#
#
#
# Elastic Constant Matrix: (Units=GPa)
#
#
# Indices 1 2 3 4 5 6 
#
# 1 43.2095 9.6421 14.7435 0.0000 0.0000 0.0000
# 2 9.6421 106.5241 47.8343 0.0000 0.0000 0.0000
# 3 14.7435 47.8343 98.4138 0.0000 0.0000 0.0000
# 4 0.0000 0.0000 0.0000 13.0401 0.0000 0.0000
# 5 0.0000 0.0000 0.0000 0.0000 17.3924 0.0000
# 6 0.0000 0.0000 0.0000 0.0000 0.0000 23.1440
#
#
#
# Elastic Compliance Matrix: (Units=1/GPa)
#
#
# Indices 1 2 3 4 5 6 
#
# 1 0.024434 -0.000726 -0.003307 0.000000 0.000000 0.000000
# 2 -0.000726 0.012030 -0.005738 0.000000 0.000000 0.000000
# 3 -0.003307 -0.005738 0.013446 0.000000 0.000000 0.000000
# 4 0.000000 0.000000 0.000000 0.076687 0.000000 0.000000
# 5 0.000000 0.000000 0.000000 0.000000 0.057496 0.000000
# 6 0.000000 0.000000 0.000000 0.000000 0.000000 0.043208
#
#
# Mechanical properties :
#
#
# Convention : Reuss Voigt Hill
#
# Bulk Modulus (GPa) = 32.93252 43.62081 38.27666
# Shear Modulus (GPa) = 19.45777 22.44378 20.95078
#
# Velocity S-wave (km/s) = 3.25993 3.50115 3.38269
# Velocity P-wave (km/s) = 5.67064 6.33784 6.01350
#
# Compressibility (1/GPa) = 0.03036512
#
# Stress axis : x y z
#
# Youngs Moduli (GPa) = 40.92711 83.12464 74.37245
#
# Poissons Ratio (x) = 0.06039 0.24597
# Poissons Ratio (y) = 0.02973 0.42678
# Poissons Ratio (z) = 0.13536 0.47701
#
# Static dielectric constant tensor:
#      x y z
#    x 3.139870 0.000000 0.000000 
#    y 0.000000 3.653800 0.000000 
#    z 0.000000 0.000000 3.210120 
# 
# 
# High freq. dielectric constant tensor:
#      x y z
#    x 1.701960 0.000000 0.000000 
#    y 0.000000 1.714610 0.000000 
#    z 0.000000 0.000000 1.674410 
# 
# From -- ./inp_files/67209.got.cif
#   From: 2010.03.12/outbox.cif.g09.slc.cpg/sg63_34_cif.got.tgz:67209.got - 2010.04.10 19:34:48.
