data_PCOD8255201
_publ_section_title
;
Structure prediction by ZEFSAII (Michael W. Deem and Ramdas Pophale) SiO2 
 PCOD8255201
Probable space group: P N M A
;
_chemical_formula_sum "Si O2"
_cell_formula_units_Z 48
_cell_length_a 18.348567
_cell_length_b 8.335203
_cell_length_c 14.708829
_cell_angle_alpha 90.000000
_cell_angle_beta 90.000000
_cell_angle_gamma 90.000000
_cell_volume 2249.554050
_symmetry_space_group_name_H-M "P N M A"
_symmetry_group_IT_number 62
_symmetry_cell_setting 'orthorhombic'
loop_
_space_group_symop_operation_xyz
x,y,z
1/2-x,-y,1/2+z
1/2+x,1/2-y,1/2-z
-x,1/2+y,-z
-x,-y,-z
1/2+x,y,1/2-z
1/2-x,1/2+y,1/2+z
x,1/2-y,z
loop_
_atom_site_type_symbol
_atom_site_label
_atom_site_fract_x
_atom_site_fract_y
_atom_site_fract_z
Si Si1 0.912316 0.065330 0.242405
Si Si2 0.216239 0.062608 0.466960
Si Si3 0.520690 0.564577 0.401883
Si Si4 0.934258 0.560839 0.439555
Si Si5 0.822780 0.565431 0.892478
Si Si6 0.257289 0.936305 0.278914
O O1 0.888705 0.250000 0.237555
O O2 0.939911 0.023873 0.342691
O O3 0.843882 0.958166 0.211954
O O4 0.978112 0.034965 0.173814
O O5 0.230532 0.250000 0.480810
O O6 0.140337 0.009818 0.511486
O O7 0.282501 0.965910 0.512227
O O8 0.213824 0.018162 0.361176
O O9 0.500000 0.500000 0.500000
O O10 0.499436 0.750000 0.394037
O O11 0.606280 0.544252 0.384434
O O12 0.938898 0.750000 0.425458
O O13 0.000000 0.500000 0.500000
O O14 0.846354 0.750000 0.887148
O O15 0.766864 0.521465 0.813278
O O16 0.237722 0.750000 0.275276
#
# Coordination Sequence:
#
# PCOD8255201 Si02
#       6
#     8   8   8   8   8   8
#     4  12  25  45  71 100 137 178 224 276 335 398
#     4  11  24  44  69  98 134 176 223 275 333 397
#     4  12  26  46  70  99 136 177 223 276 334 398
#     4  11  25  44  68  97 136 178 225 276 334 399
#     4  12  25  44  69 100 135 174 222 275 333 396
#     4  12  25  43  68  99 134 176 223 273 333 396
#
# _framework density 21.337564
#
# number of rings (size 3 to 8) (size 9 to 14) (size 15 to 20)
#    0.000    0.333    1.667    8.000    2.333    2.000 
#    0.000    0.000    0.000    0.000    0.000    0.000 
#    0.000    0.000    0.000    0.000    0.000    0.000 
#
# Total GULP energy -595716.333976 kJ/mol
# GULP energy per Si atom -12410.756958 kJ/mol
# Density = 2.128900 g / cm^3
# Si number density = 21.337564 Si / 1000 Ang^3
#
#
#
# Elastic Constant Matrix: (Units=GPa)
#
#
# Indices 1 2 3 4 5 6 
#
# 1 92.3595 28.3790 35.4552 0.0000 0.0000 0.0000
# 2 28.3790 86.6940 29.6630 0.0000 0.0000 0.0000
# 3 35.4552 29.6630 120.5941 0.0000 0.0000 0.0000
# 4 0.0000 0.0000 0.0000 39.4473 0.0000 0.0000
# 5 0.0000 0.0000 0.0000 0.0000 42.5136 0.0000
# 6 0.0000 0.0000 0.0000 0.0000 0.0000 34.5688
#
#
#
# Elastic Compliance Matrix: (Units=1/GPa)
#
#
# Indices 1 2 3 4 5 6 
#
# 1 0.012975 -0.003213 -0.003025 0.000000 0.000000 0.000000
# 2 -0.003213 0.013390 -0.002349 0.000000 0.000000 0.000000
# 3 -0.003025 -0.002349 0.009759 0.000000 0.000000 0.000000
# 4 0.000000 0.000000 0.000000 0.025350 0.000000 0.000000
# 5 0.000000 0.000000 0.000000 0.000000 0.023522 0.000000
# 6 0.000000 0.000000 0.000000 0.000000 0.000000 0.028928
#
#
# Mechanical properties :
#
#
# Convention : Reuss Voigt Hill
#
# Bulk Modulus (GPa) = 52.76385 54.07132 53.41759
# Shear Modulus (GPa) = 36.38606 37.04929 36.71768
#
# Velocity S-wave (km/s) = 4.13396 4.17146 4.15275
# Velocity P-wave (km/s) = 6.89695 6.97118 6.93417
#
# Compressibility (1/GPa) = 0.01895237
#
# Stress axis : x y z
#
# Youngs Moduli (GPa) = 77.06838 74.68133 102.46569
#
# Poissons Ratio (x) = 0.23992 0.30992
# Poissons Ratio (y) = 0.24759 0.24071
# Poissons Ratio (z) = 0.23310 0.17544
#
# Static dielectric constant tensor:
#      x y z
#    x 4.261500 0.000000 0.000000 
#    y 0.000000 3.979760 0.000000 
#    z 0.000000 0.000000 3.949160 
# 
# 
# High freq. dielectric constant tensor:
#      x y z
#    x 1.844870 0.000000 0.000000 
#    y 0.000000 1.851480 0.000000 
#    z 0.000000 0.000000 1.853320 
# 
# From -- ./inp_files/19557.got.cif
#   From: 2010.03.12/outbox.cif.g09.slc.cpg/sg62_10_cif.got.tgz:19557.got - 2010.04.10 19:12:36.
