data_PCOD8255796
_publ_section_title
;
Structure prediction by ZEFSAII (Michael W. Deem and Ramdas Pophale) SiO2 
 PCOD8255796
Probable space group: C M C M
;
_chemical_formula_sum "Si O2"
_cell_formula_units_Z 128
_cell_length_a 23.753113
_cell_length_b 12.297266
_cell_length_c 25.055475
_cell_angle_alpha 90.000000
_cell_angle_beta 90.000000
_cell_angle_gamma 90.000000
_cell_volume 7318.662878
_symmetry_space_group_name_H-M "C M C M"
_symmetry_group_IT_number 63
_symmetry_cell_setting 'orthorhombic'
loop_
_space_group_symop_operation_xyz
x,y,z
-x,-y,1/2+z
x,-y,-z
-x,y,1/2-z
-x,-y,-z
x,y,1/2-z
-x,y,z
x,-y,1/2+z
1/2+x,1/2+y,z
1/2-x,1/2-y,1/2+z
1/2+x,1/2-y,-z
1/2-x,1/2+y,1/2-z
1/2-x,1/2-y,-z
1/2+x,1/2+y,1/2-z
1/2-x,1/2+y,z
1/2+x,1/2-y,1/2+z
loop_
_atom_site_type_symbol
_atom_site_label
_atom_site_fract_x
_atom_site_fract_y
_atom_site_fract_z
Si Si1 0.315702 0.103249 0.111900
Si Si2 0.803897 0.996235 0.628840
Si Si3 0.185775 0.725941 0.005860
Si Si4 0.713322 0.717368 0.687858
Si Si5 0.385191 0.582339 0.458438
Si Si6 0.937698 0.253631 0.387946
Si Si7 0.385641 0.060251 0.947216
Si Si8 0.662248 0.289749 0.689190
O O1 0.322155 0.194394 0.066928
O O2 0.317339 0.171600 0.167286
O O3 0.258367 0.034627 0.109337
O O4 0.367273 0.019942 0.101390
O O5 0.808220 0.114756 0.654703
O O6 0.843717 0.990134 0.577579
O O7 0.826501 0.913762 0.673620
O O8 0.250000 0.750000 0.000000
O O9 0.150051 0.831265 0.992192
O O10 0.169195 0.628218 0.965941
O O11 0.698210 0.705081 0.750000
O O12 0.780722 0.722042 0.679039
O O13 0.415229 0.500000 0.500000
O O14 0.431365 0.643916 0.422822
O O15 0.933750 0.359693 0.425557
O O16 0.888606 0.262453 0.344232
O O17 0.000000 0.251300 0.361901
O O18 0.409982 0.000000 0.000000
O O19 0.643144 0.284738 0.750000
#
# Coordination Sequence:
#
# PCOD8255796 Si02
#       8
#    16  16  16  16  16  16  16  16
#     4  10  19  29  47  68 102 134 165 195 235 287
#     4  10  18  28  47  70 102 137 161 190 232 293
#     4  10  18  28  46  72 104 134 164 191 233 289
#     4  10  20  32  48  72 103 138 163 189 240 302
#     4  10  20  30  47  75 104 133 167 198 241 287
#     4  10  21  37  53  70  94 126 168 215 251 281
#     4   9  20  33  48  73  98 129 163 198 237 292
#     4   9  19  34  49  70  97 124 163 207 243 289
#
# _framework density 17.489533999999999
#
# number of rings (size 3 to 8) (size 9 to 14) (size 15 to 20)
#    0.000    2.250    1.250    1.875    5.250    1.250 
#    0.000    0.625    0.000    0.000    0.000    0.875 
#    0.000    4.000    0.000    0.000    0.000    0.000 
#
# Total GULP energy -793269.867523 kJ/mol
# GULP energy per Si atom -12394.841680 kJ/mol
# Density = 1.744973 g / cm^3
# Si number density = 17.489534 Si / 1000 Ang^3
#
#
#
# Elastic Constant Matrix: (Units=GPa)
#
#
# Indices 1 2 3 4 5 6 
#
# 1 27.8870 12.1851 8.7721 0.0000 0.0000 0.0000
# 2 12.1851 84.5335 40.6782 0.0000 0.0000 0.0000
# 3 8.7721 40.6782 85.2972 0.0000 0.0000 0.0000
# 4 0.0000 0.0000 0.0000 30.5643 0.0000 0.0000
# 5 0.0000 0.0000 0.0000 0.0000 14.0106 0.0000
# 6 0.0000 0.0000 0.0000 0.0000 0.0000 8.3933
#
#
#
# Elastic Compliance Matrix: (Units=1/GPa)
#
#
# Indices 1 2 3 4 5 6 
#
# 1 0.038459 -0.004725 -0.001702 0.000000 0.000000 0.000000
# 2 -0.004725 0.015933 -0.007113 0.000000 0.000000 0.000000
# 3 -0.001702 -0.007113 0.015291 0.000000 0.000000 0.000000
# 4 0.000000 0.000000 0.000000 0.032718 0.000000 0.000000
# 5 0.000000 0.000000 0.000000 0.000000 0.071375 0.000000
# 6 0.000000 0.000000 0.000000 0.000000 0.000000 0.119142
#
#
# Mechanical properties :
#
#
# Convention : Reuss Voigt Hill
#
# Bulk Modulus (GPa) = 23.47185 35.66539 29.56862
# Shear Modulus (GPa) = 14.96119 19.66579 17.31349
#
# Velocity S-wave (km/s) = 2.92796 3.35689 3.14974
# Velocity P-wave (km/s) = 4.98801 5.95497 5.49281
#
# Compressibility (1/GPa) = 0.04260423
#
# Stress axis : x y z
#
# Youngs Moduli (GPa) = 26.00188 62.76134 65.39883
#
# Poissons Ratio (x) = 0.29653 0.11131
# Poissons Ratio (y) = 0.12285 0.46516
# Poissons Ratio (z) = 0.04425 0.44640
#
# Static dielectric constant tensor:
#      x y z
#    x 3.024600 0.000000 0.000000 
#    y 0.000000 3.390420 0.000000 
#    z 0.000000 0.000000 3.332040 
# 
# 
# High freq. dielectric constant tensor:
#      x y z
#    x 1.629370 0.000000 0.000000 
#    y 0.000000 1.688720 0.000000 
#    z 0.000000 0.000000 1.676750 
# 
# From -- ./inp_files/70804.got.cif
#   From: 2010.03.12/outbox.cif.g09.slc.cpg/sg63_36_cif.got.tgz:70804.got - 2010.04.10 19:34:48.
