data_PCOD8255827
_publ_section_title
;
Structure prediction by ZEFSAII (Michael W. Deem and Ramdas Pophale) SiO2 
 PCOD8255827
Probable space group: C M C M
;
_chemical_formula_sum "Si O2"
_cell_formula_units_Z 72
_cell_length_a 15.692720
_cell_length_b 29.122664
_cell_length_c 8.830521
_cell_angle_alpha 90.000000
_cell_angle_beta 90.000000
_cell_angle_gamma 90.000000
_cell_volume 4035.670062
_symmetry_space_group_name_H-M "C M C M"
_symmetry_group_IT_number 63
_symmetry_cell_setting 'orthorhombic'
loop_
_space_group_symop_operation_xyz
x,y,z
-x,-y,1/2+z
x,-y,-z
-x,y,1/2-z
-x,-y,-z
x,y,1/2-z
-x,y,z
x,-y,1/2+z
1/2+x,1/2+y,z
1/2-x,1/2-y,1/2+z
1/2+x,1/2-y,-z
1/2-x,1/2+y,1/2-z
1/2-x,1/2-y,-z
1/2+x,1/2+y,1/2-z
1/2-x,1/2+y,z
1/2+x,1/2-y,1/2+z
loop_
_atom_site_type_symbol
_atom_site_label
_atom_site_fract_x
_atom_site_fract_y
_atom_site_fract_z
Si Si1 0.500000 0.792263 0.077559
Si Si2 0.315670 0.783340 0.077136
Si Si3 0.000000 0.612683 0.426097
Si Si4 0.170303 0.950109 0.429892
Si Si5 0.671855 0.887358 0.428278
Si Si6 0.500000 0.449326 0.568819
O O1 0.500000 0.812733 0.250000
O O2 0.412599 0.763500 0.054251
O O3 0.500000 0.833229 0.958377
O O4 0.288445 0.784181 0.250000
O O5 0.311291 0.835330 0.012685
O O6 0.250000 0.750000 0.000000
O O7 0.086326 0.591405 0.497309
O O8 0.000000 0.602067 0.250000
O O9 0.158784 0.954168 0.250000
O O10 0.249032 0.918419 0.477104
O O11 0.086167 0.926132 0.503687
O O12 0.186671 0.000000 0.500000
O O13 0.657758 0.887239 0.250000
O O14 0.500000 0.500000 0.500000
O O15 0.500000 0.449333 0.750000
#
# Coordination Sequence:
#
# PCOD8255827 Si02
#       6
#     8  16   8  16  16   8
#     4   8  16  32  49  64  93 133 163 186 232 298
#     4   9  17  31  50  71  94 124 160 196 234 281
#     4  10  18  28  49  76  97 120 160 207 239 276
#     4  10  19  33  53  74  97 128 164 201 239 285
#     4   9  19  35  52  69  97 134 163 191 240 298
#     4  10  18  30  49  72  99 129 161 199 239 286
#
# _framework density 17.840903000000001
#
# number of rings (size 3 to 8) (size 9 to 14) (size 15 to 20)
#    0.000    2.667    0.000    5.333    0.000    5.333 
#    0.000    1.667    0.000    4.000    0.000    0.000 
#    0.000    0.000    0.000    0.000    0.000    0.000 
#
# Total GULP energy -446088.288884 kJ/mol
# GULP energy per Si atom -12391.341358 kJ/mol
# Density = 1.780030 g / cm^3
# Si number density = 17.840903 Si / 1000 Ang^3
#
#
#
# Elastic Constant Matrix: (Units=GPa)
#
#
# Indices 1 2 3 4 5 6 
#
# 1 209.9386 69.4682 67.8258 0.0000 0.0000 0.0000
# 2 69.4682 57.6533 27.8765 0.0000 0.0000 0.0000
# 3 67.8258 27.8765 80.7047 0.0000 0.0000 0.0000
# 4 0.0000 0.0000 0.0000 22.2934 0.0000 0.0000
# 5 0.0000 0.0000 0.0000 0.0000 34.0367 0.0000
# 6 0.0000 0.0000 0.0000 0.0000 0.0000 34.8116
#
#
#
# Elastic Compliance Matrix: (Units=1/GPa)
#
#
# Indices 1 2 3 4 5 6 
#
# 1 0.009191 -0.008812 -0.004681 0.000000 0.000000 0.000000
# 2 -0.008812 0.029270 -0.002705 0.000000 0.000000 0.000000
# 3 -0.004681 -0.002705 0.017259 0.000000 0.000000 0.000000
# 4 0.000000 0.000000 0.000000 0.044856 0.000000 0.000000
# 5 0.000000 0.000000 0.000000 0.000000 0.029380 0.000000
# 6 0.000000 0.000000 0.000000 0.000000 0.000000 0.028726
#
#
# Mechanical properties :
#
#
# Convention : Reuss Voigt Hill
#
# Bulk Modulus (GPa) = 42.87092 75.40419 59.13756
# Shear Modulus (GPa) = 25.14417 30.43675 27.79046
#
# Velocity S-wave (km/s) = 3.75821 4.13487 3.95103
# Velocity P-wave (km/s) = 6.55087 8.07172 7.35074
#
# Compressibility (1/GPa) = 0.02332583
#
# Stress axis : x y z
#
# Youngs Moduli (GPa) = 108.79842 34.16436 57.94042
#
# Poissons Ratio (x) = 0.30104 0.27121
# Poissons Ratio (y) = 0.95869 0.15673
# Poissons Ratio (z) = 0.50928 0.09241
#
# Static dielectric constant tensor:
#      x y z
#    x 4.038370 0.000000 0.000000 
#    y 0.000000 2.964190 0.000000 
#    z 0.000000 0.000000 3.241840 
# 
# 
# High freq. dielectric constant tensor:
#      x y z
#    x 1.718830 0.000000 0.000000 
#    y 0.000000 1.636750 0.000000 
#    z 0.000000 0.000000 1.690240 
# 
# From -- ./inp_files/4959.got.cif
#   From: 2010.03.12/outbox.cif.g09.slc.cpg/sg63_3_cif.got.tgz:4959.got - 2010.04.10 19:34:48.
