data_PCOD8255571
_publ_section_title
;
Structure prediction by ZEFSAII (Michael W. Deem and Ramdas Pophale) SiO2 
 PCOD8255571
Probable space group: C M C M
;
_chemical_formula_sum "Si O2"
_cell_formula_units_Z 104
_cell_length_a 17.890068
_cell_length_b 16.083274
_cell_length_c 21.070295
_cell_angle_alpha 90.000000
_cell_angle_beta 90.000000
_cell_angle_gamma 90.000000
_cell_volume 6062.574217
_symmetry_space_group_name_H-M "C M C M"
_symmetry_group_IT_number 63
_symmetry_cell_setting 'orthorhombic'
loop_
_space_group_symop_operation_xyz
x,y,z
-x,-y,1/2+z
x,-y,-z
-x,y,1/2-z
-x,-y,-z
x,y,1/2-z
-x,y,z
x,-y,1/2+z
1/2+x,1/2+y,z
1/2-x,1/2-y,1/2+z
1/2+x,1/2-y,-z
1/2-x,1/2+y,1/2-z
1/2-x,1/2-y,-z
1/2+x,1/2+y,1/2-z
1/2-x,1/2+y,z
1/2+x,1/2-y,1/2+z
loop_
_atom_site_type_symbol
_atom_site_label
_atom_site_fract_x
_atom_site_fract_y
_atom_site_fract_z
Si Si1 0.714445 0.610053 0.324824
Si Si2 0.818471 0.000000 0.000000
Si Si3 0.583581 0.067645 0.552142
Si Si4 0.630943 0.240607 0.511206
Si Si5 0.228065 0.237599 0.897260
Si Si6 0.416616 0.387346 0.586943
Si Si7 0.233684 0.561100 0.886575
O O1 0.715013 0.613666 0.250000
O O2 0.769500 0.682310 0.350933
O O3 0.630159 0.629641 0.348701
O O4 0.741231 0.518201 0.346007
O O5 0.871114 0.043143 0.050287
O O6 0.764901 0.939393 0.040585
O O7 0.500000 0.055557 0.580294
O O8 0.588026 0.154325 0.515185
O O9 0.643185 0.061914 0.609757
O O10 0.603378 0.000000 0.500000
O O11 0.704576 0.242407 0.553679
O O12 0.650982 0.259024 0.437476
O O13 0.575572 0.309248 0.540066
O O14 0.235581 0.149476 0.858521
O O15 0.500000 0.417386 0.605302
#
# Coordination Sequence:
#
# PCOD8255571 Si02
#       7
#    16   8  16  16  16  16  16
#     4  10  22  35  50  74 100 140 188 214 245 301
#     4  10  17  30  49  78 102 130 160 202 255 324
#     4  10  18  26  43  73 105 132 157 197 256 309
#     4   9  16  28  47  74 102 127 160 200 263 317
#     4   9  17  30  51  73  98 135 169 212 255 299
#     4  10  19  31  50  75 104 130 160 209 266 316
#     4  10  18  32  52  72 103 135 167 214 255 302
#
# _framework density 17.154429
#
# number of rings (size 3 to 8) (size 9 to 14) (size 15 to 20)
#    0.000    2.308    2.308    1.615    4.308    0.923 
#    0.000    0.000    0.000    0.462    0.000    0.000 
#    0.000    0.000    0.000    0.000    0.000    0.000 
#
# Total GULP energy -644427.964254 kJ/mol
# GULP energy per Si atom -12392.845466 kJ/mol
# Density = 1.711539 g / cm^3
# Si number density = 17.154429 Si / 1000 Ang^3
#
#
#
# Elastic Constant Matrix: (Units=GPa)
#
#
# Indices 1 2 3 4 5 6 
#
# 1 78.4940 16.8640 28.0819 0.0000 0.0000 0.0000
# 2 16.8640 113.2454 35.9074 0.0000 0.0000 0.0000
# 3 28.0819 35.9074 87.3682 0.0000 0.0000 0.0000
# 4 0.0000 0.0000 0.0000 16.0034 0.0000 0.0000
# 5 0.0000 0.0000 0.0000 0.0000 23.0167 0.0000
# 6 0.0000 0.0000 0.0000 0.0000 0.0000 27.8490
#
#
#
# Elastic Compliance Matrix: (Units=1/GPa)
#
#
# Indices 1 2 3 4 5 6 
#
# 1 0.014455 -0.000781 -0.004325 0.000000 0.000000 0.000000
# 2 -0.000781 0.010196 -0.003939 0.000000 0.000000 0.000000
# 3 -0.004325 -0.003939 0.014455 0.000000 0.000000 0.000000
# 4 0.000000 0.000000 0.000000 0.062487 0.000000 0.000000
# 5 0.000000 0.000000 0.000000 0.000000 0.043447 0.000000
# 6 0.000000 0.000000 0.000000 0.000000 0.000000 0.035908
#
#
# Mechanical properties :
#
#
# Convention : Reuss Voigt Hill
#
# Bulk Modulus (GPa) = 47.58578 48.97936 48.28257
# Shear Modulus (GPa) = 24.26678 26.59077 25.42878
#
# Velocity S-wave (km/s) = 3.76521 3.94138 3.85430
# Velocity P-wave (km/s) = 6.83390 7.02329 6.92925
#
# Compressibility (1/GPa) = 0.02101468
#
# Stress axis : x y z
#
# Youngs Moduli (GPa) = 69.18023 98.08006 69.18042
#
# Poissons Ratio (x) = 0.07662 0.29921
# Poissons Ratio (y) = 0.05404 0.27252
# Poissons Ratio (z) = 0.29921 0.38636
#
# Static dielectric constant tensor:
#      x y z
#    x 3.143450 0.000000 0.000000 
#    y 0.000000 3.547380 0.000000 
#    z 0.000000 0.000000 2.903110 
# 
# 
# High freq. dielectric constant tensor:
#      x y z
#    x 1.652640 0.000000 0.000000 
#    y 0.000000 1.683190 0.000000 
#    z 0.000000 0.000000 1.610320 
# 
# From -- ./inp_files/55621.got.cif
#   From: 2010.03.12/outbox.cif.g09.slc.cpg/sg63_28_cif.got.tgz:55621.got - 2010.04.10 19:34:48.
