data_PCOD8255094
_publ_section_title
;
Structure prediction by ZEFSAII (Michael W. Deem and Ramdas Pophale) SiO2 
 PCOD8255094
Probable space group: P N M A
;
_chemical_formula_sum "Si O2"
_cell_formula_units_Z 40
_cell_length_a 23.218043
_cell_length_b 16.569567
_cell_length_c 4.957787
_cell_angle_alpha 90.000000
_cell_angle_beta 90.000000
_cell_angle_gamma 90.000000
_cell_volume 1907.324709
_symmetry_space_group_name_H-M "P N M A"
_symmetry_group_IT_number 62
_symmetry_cell_setting 'orthorhombic'
loop_
_space_group_symop_operation_xyz
x,y,z
1/2-x,-y,1/2+z
1/2+x,1/2-y,1/2-z
-x,1/2+y,-z
-x,-y,-z
1/2+x,y,1/2-z
1/2-x,1/2+y,1/2+z
x,1/2-y,z
loop_
_atom_site_type_symbol
_atom_site_label
_atom_site_fract_x
_atom_site_fract_y
_atom_site_fract_z
Si Si1 0.636511 0.341185 0.334532
Si Si2 0.401090 0.435956 0.301398
Si Si3 0.786843 0.984309 0.999577
Si Si4 0.066197 0.110432 0.677158
Si Si5 0.939698 0.343156 0.686292
O O1 0.658205 0.250000 0.288240
O O2 0.690172 0.395159 0.430114
O O3 0.586493 0.341619 0.558202
O O4 0.612660 0.377620 0.057772
O O5 0.337301 0.457188 0.399041
O O6 0.438529 0.515676 0.242449
O O7 0.434252 0.384923 0.525275
O O8 0.396717 0.383501 0.029337
O O9 0.759865 0.025177 0.735322
O O10 0.005107 0.145395 0.582993
O O11 0.923402 0.250000 0.713287
#
# Coordination Sequence:
#
# PCOD8255094 Si02
#       5
#     8   8   8   8   8
#     4  11  22  39  63  95 121 150 203 263 302 343
#     4  11  23  41  62  88 120 161 208 247 291 362
#     4  11  23  43  65  84 115 160 208 254 306 356
#     4  11  22  39  64  90 124 163 198 240 298 362
#     4  12  23  38  60  93 131 164 193 236 295 363
#
# _framework density 20.971784
#
# number of rings (size 3 to 8) (size 9 to 14) (size 15 to 20)
#    0.000    0.800    0.000   10.800    0.000    0.000 
#    0.000    6.000    0.000    0.000    0.000    0.000 
#    0.000    0.000    0.000    0.000    0.000    0.000 
#
# Total GULP energy -496315.472535 kJ/mol
# GULP energy per Si atom -12407.886813 kJ/mol
# Density = 2.092405 g / cm^3
# Si number density = 20.971784 Si / 1000 Ang^3
#
#
#
# Elastic Constant Matrix: (Units=GPa)
#
#
# Indices 1 2 3 4 5 6 
#
# 1 63.8069 40.5248 6.9230 0.0000 0.0000 0.0000
# 2 40.5248 158.9560 48.7700 0.0000 0.0000 0.0000
# 3 6.9230 48.7700 112.6779 0.0000 0.0000 0.0000
# 4 0.0000 0.0000 0.0000 14.5238 0.0000 0.0000
# 5 0.0000 0.0000 0.0000 0.0000 37.7674 0.0000
# 6 0.0000 0.0000 0.0000 0.0000 0.0000 33.9835
#
#
#
# Elastic Compliance Matrix: (Units=1/GPa)
#
#
# Indices 1 2 3 4 5 6 
#
# 1 0.018809 -0.005121 0.001061 0.000000 0.000000 0.000000
# 2 -0.005121 0.008649 -0.003429 0.000000 0.000000 0.000000
# 3 0.001061 -0.003429 0.010294 0.000000 0.000000 0.000000
# 4 0.000000 0.000000 0.000000 0.068852 0.000000 0.000000
# 5 0.000000 0.000000 0.000000 0.000000 0.026478 0.000000
# 6 0.000000 0.000000 0.000000 0.000000 0.000000 0.029426
#
#
# Mechanical properties :
#
#
# Convention : Reuss Voigt Hill
#
# Bulk Modulus (GPa) = 43.90925 58.65293 51.28109
# Shear Modulus (GPa) = 27.01577 33.20313 30.10945
#
# Velocity S-wave (km/s) = 3.59304 3.98330 3.79319
# Velocity P-wave (km/s) = 6.18029 7.01312 6.60983
#
# Compressibility (1/GPa) = 0.02277424
#
# Stress axis : x y z
#
# Youngs Moduli (GPa) = 53.16465 115.62655 97.14669
#
# Poissons Ratio (x) = 0.59210 -0.10305
# Poissons Ratio (y) = 0.27225 0.33309
# Poissons Ratio (z) = -0.05639 0.39645
#
# Static dielectric constant tensor:
#      x y z
#    x 3.633720 0.000000 0.000000 
#    y 0.000000 3.818170 0.000000 
#    z 0.000000 0.000000 4.041080 
# 
# 
# High freq. dielectric constant tensor:
#      x y z
#    x 1.805500 0.000000 0.000000 
#    y 0.000000 1.823580 0.000000 
#    z 0.000000 0.000000 1.845850 
# 
# From -- ./inp_files/2667.got.cif
#   From: 2010.03.12/outbox.cif.g09.slc.cpg/sg62_2_cif.got.tgz:2667.got - 2010.04.10 19:12:36.
