data_PCOD8255663
_publ_section_title
;
Structure prediction by ZEFSAII (Michael W. Deem and Ramdas Pophale) SiO2 
 PCOD8255663
Probable space group: C M C M
;
_chemical_formula_sum "Si O2"
_cell_formula_units_Z 80
_cell_length_a 29.350116
_cell_length_b 23.095346
_cell_length_c 8.539252
_cell_angle_alpha 90.000000
_cell_angle_beta 90.000000
_cell_angle_gamma 90.000000
_cell_volume 5788.341226
_symmetry_space_group_name_H-M "C M C M"
_symmetry_group_IT_number 63
_symmetry_cell_setting 'orthorhombic'
loop_
_space_group_symop_operation_xyz
x,y,z
-x,-y,1/2+z
x,-y,-z
-x,y,1/2-z
-x,-y,-z
x,y,1/2-z
-x,y,z
x,-y,1/2+z
1/2+x,1/2+y,z
1/2-x,1/2-y,1/2+z
1/2+x,1/2-y,-z
1/2-x,1/2+y,1/2-z
1/2-x,1/2-y,-z
1/2+x,1/2+y,1/2-z
1/2-x,1/2+y,z
1/2+x,1/2-y,1/2+z
loop_
_atom_site_type_symbol
_atom_site_label
_atom_site_fract_x
_atom_site_fract_y
_atom_site_fract_z
Si Si1 0.312565 0.269686 0.067598
Si Si2 0.449102 0.561513 0.435019
Si Si3 0.365814 0.363864 0.565276
Si Si4 0.767399 0.340987 0.928359
Si Si5 0.283227 0.437236 0.067788
O O1 0.301389 0.282070 0.250000
O O2 0.311950 0.199797 0.036571
O O3 0.359885 0.301079 0.019614
O O4 0.275621 0.299208 0.954918
O O5 0.432577 0.500000 0.500000
O O6 0.448259 0.557033 0.250000
O O7 0.500000 0.576736 0.496238
O O8 0.414085 0.610608 0.493133
O O9 0.365347 0.354965 0.750000
O O10 0.326088 0.408573 0.518506
O O11 0.767903 0.362689 0.750000
O O12 0.762136 0.397739 0.037374
O O13 0.293786 0.441216 0.250000
O O14 0.273292 0.500000 0.000000
#
# Coordination Sequence:
#
# PCOD8255663 Si02
#       5
#    16  16  16  16  16
#     4   9  16  25  38  54  71  90 113 144 178 212
#     4   9  18  30  41  53  69  91 119 151 187 223
#     4  10  18  27  40  55  71  91 118 152 185 219
#     4   9  16  26  38  52  70  91 116 144 175 210
#     4  11  20  28  38  52  72  95 120 150 181 214
#
# _framework density 13.820885000000001
#
# number of rings (size 3 to 8) (size 9 to 14) (size 15 to 20)
#    0.000    2.400    0.000    6.600    0.000    5.600 
#    0.000    0.000    0.000    0.000    0.000    0.000 
#    0.000    0.000    0.000    0.000    0.000    1.000 
#
# Total GULP energy -495583.749912 kJ/mol
# GULP energy per Si atom -12389.593748 kJ/mol
# Density = 1.378943 g / cm^3
# Si number density = 13.820885 Si / 1000 Ang^3
#
#
#
# Elastic Constant Matrix: (Units=GPa)
#
#
# Indices 1 2 3 4 5 6 
#
# 1 58.7968 45.7429 14.8102 0.0000 0.0000 0.0000
# 2 45.7429 84.4891 19.1507 0.0000 0.0000 0.0000
# 3 14.8102 19.1507 38.7496 0.0000 0.0000 0.0000
# 4 0.0000 0.0000 0.0000 22.8959 0.0000 0.0000
# 5 0.0000 0.0000 0.0000 0.0000 12.9671 0.0000
# 6 0.0000 0.0000 0.0000 0.0000 0.0000 17.5801
#
#
#
# Elastic Compliance Matrix: (Units=1/GPa)
#
#
# Indices 1 2 3 4 5 6 
#
# 1 0.029888 -0.015307 -0.003858 0.000000 0.000000 0.000000
# 2 -0.015307 0.021168 -0.004611 0.000000 0.000000 0.000000
# 3 -0.003858 -0.004611 0.029560 0.000000 0.000000 0.000000
# 4 0.000000 0.000000 0.000000 0.043676 0.000000 0.000000
# 5 0.000000 0.000000 0.000000 0.000000 0.077118 0.000000
# 6 0.000000 0.000000 0.000000 0.000000 0.000000 0.056882
#
#
# Mechanical properties :
#
#
# Convention : Reuss Voigt Hill
#
# Bulk Modulus (GPa) = 30.24489 37.93813 34.09151
# Shear Modulus (GPa) = 15.77939 17.51072 16.64505
#
# Velocity S-wave (km/s) = 3.38258 3.56332 3.47413
# Velocity P-wave (km/s) = 6.09810 6.66627 6.38850
#
# Compressibility (1/GPa) = 0.03306344
#
# Stress axis : x y z
#
# Youngs Moduli (GPa) = 33.45794 47.24006 33.82900
#
# Poissons Ratio (x) = 0.72311 0.13052
# Poissons Ratio (y) = 0.51215 0.15600
# Poissons Ratio (z) = 0.12909 0.21784
#
# Static dielectric constant tensor:
#      x y z
#    x 2.781930 0.000000 0.000000 
#    y 0.000000 3.075120 0.000000 
#    z 0.000000 0.000000 2.787360 
# 
# 
# High freq. dielectric constant tensor:
#      x y z
#    x 1.475150 0.000000 0.000000 
#    y 0.000000 1.519080 0.000000 
#    z 0.000000 0.000000 1.542690 
# 
# From -- ./inp_files/14557.got.cif
#   From: 2010.03.12/outbox.cif.g09.slc.cpg/sg63_8_cif.got.tgz:14557.got - 2010.04.10 19:34:48.
