data_PCOD8255311
_publ_section_title
;
Structure prediction by ZEFSAII (Michael W. Deem and Ramdas Pophale) SiO2 
 PCOD8255311
Probable space group: P N M A
;
_chemical_formula_sum "Si O2"
_cell_formula_units_Z 64
_cell_length_a 15.000000
_cell_length_b 9.000000
_cell_length_c 24.000000
_cell_angle_alpha 90.000000
_cell_angle_beta 90.000000
_cell_angle_gamma 90.000000
_cell_volume 3240.000000
_symmetry_space_group_name_H-M "P N M A"
_symmetry_group_IT_number 62
_symmetry_cell_setting 'orthorhombic'
loop_
_space_group_symop_operation_xyz
x,y,z
1/2-x,-y,1/2+z
1/2+x,1/2-y,1/2-z
-x,1/2+y,-z
-x,-y,-z
1/2+x,y,1/2-z
1/2-x,1/2+y,1/2+z
x,1/2-y,z
loop_
_atom_site_type_symbol
_atom_site_label
_atom_site_fract_x
_atom_site_fract_y
_atom_site_fract_z
Si Si1 0.595230 0.078284 0.124510
Si Si2 0.607500 0.085461 0.769948
Si Si3 0.896348 0.425059 0.379504
Si Si4 0.268785 0.079170 0.435892
Si Si5 0.895860 0.086591 0.731648
Si Si6 0.096772 0.572831 0.147465
Si Si7 0.741878 0.923835 0.438075
Si Si8 0.601958 0.074055 0.648169
O O1 0.581933 0.250000 0.135410
O O2 0.497183 0.013111 0.110327
O O3 0.664554 0.042411 0.075375
O O4 0.637604 0.014704 0.181337
O O5 0.647102 0.250000 0.782279
O O6 0.501797 0.095553 0.767223
O O7 0.639087 0.025182 0.709313
O O8 0.639084 0.975253 0.818645
O O9 0.890410 0.250000 0.384269
O O10 0.835139 0.495647 0.426896
O O11 0.288317 0.250000 0.421502
O O12 0.288824 0.041262 0.499541
O O13 0.332617 0.979883 0.399225
O O14 0.854802 0.250000 0.721963
O O15 0.865613 0.022480 0.791809
O O16 0.092657 0.750000 0.145668
O O17 0.164035 0.510351 0.101073
O O18 0.997358 0.508494 0.136868
O O19 0.756926 0.750000 0.428313
O O20 0.597073 0.250000 0.646688
#
# Coordination Sequence:
#
# PCOD8255311 Si02
#       8
#     8   8   8   8   8   8   8   8
#     4   9  19  35  51  71 104 137 163 203 259 308
#     4   8  15  30  52  77 103 130 161 199 251 313
#     4  10  20  34  53  76 102 132 167 212 259 299
#     4  10  22  37  51  72 103 139 177 213 254 304
#     4   8  14  28  52  78  99 124 164 206 246 303
#     4   8  16  33  55  77 102 131 164 206 254 302
#     4  10  21  37  54  72 100 139 178 213 253 304
#     4   9  18  34  56  79 103 132 166 207 252 299
#
# _framework density 19.753086
#
# number of rings (size 3 to 8) (size 9 to 14) (size 15 to 20)
#    0.000    3.000    0.000    1.875    0.000    4.000 
#    0.000    6.875    0.000    0.000    0.000    0.000 
#    0.000    0.000    0.000    0.000    0.000    0.000 
#
# Total GULP energy -793258.767435 kJ/mol
# GULP energy per Si atom -12394.668241 kJ/mol
# Density = 1.970813 g / cm^3
# Si number density = 19.753086 Si / 1000 Ang^3
#
#
#
# Elastic Constant Matrix: (Units=GPa)
#
#
# Indices 1 2 3 4 5 6 
#
# 1 39.5934 15.2477 3.4575 0.0000 0.0000 0.0000
# 2 15.2477 18.1177 13.0748 0.0000 0.0000 0.0000
# 3 3.4575 13.0748 47.1287 0.0000 0.0000 0.0000
# 4 0.0000 0.0000 0.0000 25.1496 0.0000 0.0000
# 5 0.0000 0.0000 0.0000 0.0000 30.5607 0.0000
# 6 0.0000 0.0000 0.0000 0.0000 0.0000 17.4671
#
#
#
# Elastic Compliance Matrix: (Units=1/GPa)
#
#
# Indices 1 2 3 4 5 6 
#
# 1 0.039603 -0.039051 0.007929 0.000000 0.000000 0.000000
# 2 -0.039051 0.107518 -0.026964 0.000000 0.000000 0.000000
# 3 0.007929 -0.026964 0.028117 0.000000 0.000000 0.000000
# 4 0.000000 0.000000 0.000000 0.039762 0.000000 0.000000
# 5 0.000000 0.000000 0.000000 0.000000 0.032722 0.000000
# 6 0.000000 0.000000 0.000000 0.000000 0.000000 0.057251
#
#
# Mechanical properties :
#
#
# Convention : Reuss Voigt Hill
#
# Bulk Modulus (GPa) = 16.93021 18.71107 17.82064
# Shear Modulus (GPa) = 11.34211 19.50613 15.42412
#
# Velocity S-wave (km/s) = 2.39883 3.14586 2.79739
# Velocity P-wave (km/s) = 4.03263 4.76322 4.41307
#
# Compressibility (1/GPa) = 0.05906601
#
# Stress axis : x y z
#
# Youngs Moduli (GPa) = 25.25039 9.30073 35.56536
#
# Poissons Ratio (x) = 0.36321 -0.28198
# Poissons Ratio (y) = 0.98606 0.95897
# Poissons Ratio (z) = -0.20020 0.25078
#
# Static dielectric constant tensor:
#      x y z
#    x 3.618630 0.000000 0.000000 
#    y 0.000000 3.283170 0.000000 
#    z 0.000000 0.000000 3.737370 
# 
# 
# High freq. dielectric constant tensor:
#      x y z
#    x 1.764360 0.000000 0.000000 
#    y 0.000000 1.733060 0.000000 
#    z 0.000000 0.000000 1.765670 
# 
# From -- ./inp_files/29910.got.cif
#   From: 2010.03.12/outbox.ucp.g09.slc.cvg/sg62_15_cif.got.tgz:29910.got - 2010.05.04 19:35:18.
