data_PCOD8255897
_publ_section_title
;
Structure prediction by ZEFSAII (Michael W. Deem and Ramdas Pophale) SiO2 
 PCOD8255897
Probable space group: C M C M
;
_chemical_formula_sum "Si O2"
_cell_formula_units_Z 96
_cell_length_a 26.476892
_cell_length_b 9.939185
_cell_length_c 21.088858
_cell_angle_alpha 90.000000
_cell_angle_beta 90.000000
_cell_angle_gamma 90.000000
_cell_volume 5549.717042
_symmetry_space_group_name_H-M "C M C M"
_symmetry_group_IT_number 63
_symmetry_cell_setting 'orthorhombic'
loop_
_space_group_symop_operation_xyz
x,y,z
-x,-y,1/2+z
x,-y,-z
-x,y,1/2-z
-x,-y,-z
x,y,1/2-z
-x,y,z
x,-y,1/2+z
1/2+x,1/2+y,z
1/2-x,1/2-y,1/2+z
1/2+x,1/2-y,-z
1/2-x,1/2+y,1/2-z
1/2-x,1/2-y,-z
1/2+x,1/2+y,1/2-z
1/2-x,1/2+y,z
1/2+x,1/2-y,1/2+z
loop_
_atom_site_type_symbol
_atom_site_label
_atom_site_fract_x
_atom_site_fract_y
_atom_site_fract_z
Si Si1 0.337085 0.205052 0.677049
Si Si2 0.944431 0.781704 0.324127
Si Si3 0.642087 0.088882 0.324836
Si Si4 0.126673 0.014209 0.322403
Si Si5 0.300397 0.454065 0.435423
Si Si6 0.238316 0.309075 0.893077
O O1 0.322816 0.183554 0.750000
O O2 0.378800 0.324335 0.668433
O O3 0.285816 0.245239 0.642713
O O4 0.360299 0.065667 0.650134
O O5 0.949223 0.754252 0.250000
O O6 0.905108 0.673570 0.354131
O O7 0.000000 0.766384 0.355795
O O8 0.925314 0.935192 0.336056
O O9 0.637685 0.095171 0.250000
O O10 0.694660 0.156811 0.343240
O O11 0.145084 0.983164 0.250000
O O12 0.167679 0.959239 0.371324
O O13 0.329925 0.500000 0.500000
O O14 0.252987 0.555725 0.430171
O O15 0.281470 0.301305 0.443404
#
# Coordination Sequence:
#
# PCOD8255897 Si02
#       6
#    16  16  16  16  16  16
#     4   9  18  29  45  72 102 131 165 199 238 290
#     4   9  17  30  50  74  96 123 163 210 257 299
#     4  10  18  29  47  72 100 129 164 205 246 291
#     4   9  18  33  52  71  97 130 167 206 246 293
#     4  11  22  33  48  71 105 134 167 200 242 295
#     4  11  19  32  46  68 100 135 167 194 241 288
#
# _framework density 17.298179000000001
#
# number of rings (size 3 to 8) (size 9 to 14) (size 15 to 20)
#    0.000    2.167    3.333    1.000    0.000    1.333 
#    0.000    0.833    0.000    5.500    0.000    0.000 
#    0.000    6.000    0.000    0.000    0.000    0.000 
#
# Total GULP energy -594735.852459 kJ/mol
# GULP energy per Si atom -12390.330260 kJ/mol
# Density = 1.725881 g / cm^3
# Si number density = 17.298179 Si / 1000 Ang^3
#
#
#
# Elastic Constant Matrix: (Units=GPa)
#
#
# Indices 1 2 3 4 5 6 
#
# 1 97.4669 54.6902 15.6741 0.0000 0.0000 0.0000
# 2 54.6902 135.4968 14.7936 0.0000 0.0000 0.0000
# 3 15.6741 14.7936 40.6489 0.0000 0.0000 0.0000
# 4 0.0000 0.0000 0.0000 15.6239 0.0000 0.0000
# 5 0.0000 0.0000 0.0000 0.0000 4.6200 0.0000
# 6 0.0000 0.0000 0.0000 0.0000 0.0000 19.3037
#
#
#
# Elastic Compliance Matrix: (Units=1/GPa)
#
#
# Indices 1 2 3 4 5 6 
#
# 1 0.013702 -0.005159 -0.003406 0.000000 0.000000 0.000000
# 2 -0.005159 0.009628 -0.001515 0.000000 0.000000 0.000000
# 3 -0.003406 -0.001515 0.026466 0.000000 0.000000 0.000000
# 4 0.000000 0.000000 0.000000 0.064004 0.000000 0.000000
# 5 0.000000 0.000000 0.000000 0.000000 0.216450 0.000000
# 6 0.000000 0.000000 0.000000 0.000000 0.000000 0.051803
#
#
# Mechanical properties :
#
#
# Convention : Reuss Voigt Hill
#
# Bulk Modulus (GPa) = 33.74213 49.32539 41.53376
# Shear Modulus (GPa) = 12.13323 20.47317 16.30320
#
# Velocity S-wave (km/s) = 2.65130 3.44400 3.07332
# Velocity P-wave (km/s) = 5.37783 6.66270 6.05444
#
# Compressibility (1/GPa) = 0.02963654
#
# Stress axis : x y z
#
# Youngs Moduli (GPa) = 72.98045 103.86549 37.78495
#
# Poissons Ratio (x) = 0.53582 0.12870
# Poissons Ratio (y) = 0.37649 0.05723
# Poissons Ratio (z) = 0.24858 0.15733
#
# Static dielectric constant tensor:
#      x y z
#    x 3.166770 0.000000 0.000000 
#    y 0.000000 3.787220 0.000000 
#    z 0.000000 0.000000 2.961840 
# 
# 
# High freq. dielectric constant tensor:
#      x y z
#    x 1.630300 0.000000 0.000000 
#    y 0.000000 1.694230 0.000000 
#    z 0.000000 0.000000 1.634240 
# 
# From -- ./inp_files/65329.got.cif
#   From: 2010.03.12/outbox.cif.g09.slc.cpg/sg63_33_cif.got.tgz:65329.got - 2010.04.10 19:34:48.
