data_PCOD8255669
_publ_section_title
;
Structure prediction by ZEFSAII (Michael W. Deem and Ramdas Pophale) SiO2 
 PCOD8255669
Probable space group: C M C M
;
_chemical_formula_sum "Si O2"
_cell_formula_units_Z 96
_cell_length_a 26.306732
_cell_length_b 28.230514
_cell_length_c 9.161072
_cell_angle_alpha 90.000000
_cell_angle_beta 90.000000
_cell_angle_gamma 90.000000
_cell_volume 6803.493628
_symmetry_space_group_name_H-M "C M C M"
_symmetry_group_IT_number 63
_symmetry_cell_setting 'orthorhombic'
loop_
_space_group_symop_operation_xyz
x,y,z
-x,-y,1/2+z
x,-y,-z
-x,y,1/2-z
-x,-y,-z
x,y,1/2-z
-x,y,z
x,-y,1/2+z
1/2+x,1/2+y,z
1/2-x,1/2-y,1/2+z
1/2+x,1/2-y,-z
1/2-x,1/2+y,1/2-z
1/2-x,1/2-y,-z
1/2+x,1/2+y,1/2-z
1/2-x,1/2+y,z
1/2+x,1/2-y,1/2+z
loop_
_atom_site_type_symbol
_atom_site_label
_atom_site_fract_x
_atom_site_fract_y
_atom_site_fract_z
Si Si1 0.296964 0.727152 0.581049
Si Si2 0.941280 0.646078 0.418409
Si Si3 0.400956 0.953980 0.580990
Si Si4 0.717007 0.046778 0.420389
Si Si5 0.642441 0.797666 0.421500
Si Si6 0.238757 0.362467 0.084033
O O1 0.297202 0.742666 0.750000
O O2 0.250000 0.750000 0.500000
O O3 0.347497 0.746982 0.501452
O O4 0.289210 0.670367 0.567635
O O5 0.923922 0.651341 0.250000
O O6 0.931508 0.592280 0.471079
O O7 0.910210 0.682088 0.518434
O O8 0.000000 0.658706 0.438640
O O9 0.409159 0.963694 0.750000
O O10 0.342098 0.946147 0.541672
O O11 0.423082 0.000000 0.500000
O O12 0.727448 0.041573 0.250000
O O13 0.746573 0.092625 0.479840
O O14 0.738163 0.000000 0.500000
O O15 0.638120 0.788578 0.250000
O O16 0.688059 0.833606 0.460719
O O17 0.232925 0.380297 0.250000
#
# Coordination Sequence:
#
# PCOD8255669 Si02
#       6
#    16  16  16  16  16  16
#     4   9  17  28  43  63  84 104 127 158 199 243
#     4  10  20  33  46  59  77 103 135 171 214 259
#     4   9  18  30  42  57  73  97 131 170 214 255
#     4  10  18  27  41  58  79 106 134 167 204 243
#     4  10  19  30  44  61  81 103 130 167 206 247
#     4   9  17  28  42  61  81 102 129 162 198 240
#
# _framework density 14.110397000000001
#
# number of rings (size 3 to 8) (size 9 to 14) (size 15 to 20)
#    0.000    2.500    1.667    2.500    0.000    5.333 
#    0.000    0.000    0.000    0.000    0.000    0.000 
#    0.000    0.000    0.000    0.000    0.000    0.833 
#
# Total GULP energy -595100.947052 kJ/mol
# GULP energy per Si atom -12397.936397 kJ/mol
# Density = 1.407828 g / cm^3
# Si number density = 14.110397 Si / 1000 Ang^3
#
#
#
# Elastic Constant Matrix: (Units=GPa)
#
#
# Indices 1 2 3 4 5 6 
#
# 1 44.3026 39.4610 32.0057 0.0000 0.0000 0.0000
# 2 39.4610 82.1593 54.4056 0.0000 0.0000 0.0000
# 3 32.0057 54.4056 86.5612 0.0000 0.0000 0.0000
# 4 0.0000 0.0000 0.0000 28.7525 0.0000 0.0000
# 5 0.0000 0.0000 0.0000 0.0000 17.0510 0.0000
# 6 0.0000 0.0000 0.0000 0.0000 0.0000 19.6754
#
#
#
# Elastic Compliance Matrix: (Units=1/GPa)
#
#
# Indices 1 2 3 4 5 6 
#
# 1 0.040541 -0.016351 -0.004713 0.000000 0.000000 0.000000
# 2 -0.016351 0.027443 -0.011203 0.000000 0.000000 0.000000
# 3 -0.004713 -0.011203 0.020337 0.000000 0.000000 0.000000
# 4 0.000000 0.000000 0.000000 0.034780 0.000000 0.000000
# 5 0.000000 0.000000 0.000000 0.000000 0.058648 0.000000
# 6 0.000000 0.000000 0.000000 0.000000 0.000000 0.050825
#
#
# Mechanical properties :
#
#
# Convention : Reuss Voigt Hill
#
# Bulk Modulus (GPa) = 42.03989 51.64086 46.84038
# Shear Modulus (GPa) = 16.39153 18.90582 17.64867
#
# Velocity S-wave (km/s) = 3.41202 3.66437 3.54044
# Velocity P-wave (km/s) = 6.73652 7.38787 7.06970
#
# Compressibility (1/GPa) = 0.02378693
#
# Stress axis : x y z
#
# Youngs Moduli (GPa) = 24.66652 36.43861 49.17249
#
# Poissons Ratio (x) = 0.59580 0.23175
# Poissons Ratio (y) = 0.40332 0.55089
# Poissons Ratio (z) = 0.11625 0.40823
#
# Static dielectric constant tensor:
#      x y z
#    x 2.603450 0.000000 0.000000 
#    y 0.000000 3.057720 0.000000 
#    z 0.000000 0.000000 2.865570 
# 
# 
# High freq. dielectric constant tensor:
#      x y z
#    x 1.485250 0.000000 0.000000 
#    y 0.000000 1.530550 0.000000 
#    z 0.000000 0.000000 1.552600 
# 
# From -- ./inp_files/10684.got.cif
#   From: 2010.03.12/outbox.cif.g09.slc.cpg/sg63_6_cif.got.tgz:10684.got - 2010.04.10 19:34:48.
