data_PCOD8255874
_publ_section_title
;
Structure prediction by ZEFSAII (Michael W. Deem and Ramdas Pophale) SiO2 
 PCOD8255874
Probable space group: C M C M
;
_chemical_formula_sum "Si O2"
_cell_formula_units_Z 80
_cell_length_a 23.238242
_cell_length_b 24.103315
_cell_length_c 8.964760
_cell_angle_alpha 90.000000
_cell_angle_beta 90.000000
_cell_angle_gamma 90.000000
_cell_volume 5021.329421
_symmetry_space_group_name_H-M "C M C M"
_symmetry_group_IT_number 63
_symmetry_cell_setting 'orthorhombic'
loop_
_space_group_symop_operation_xyz
x,y,z
-x,-y,1/2+z
x,-y,-z
-x,y,1/2-z
-x,-y,-z
x,y,1/2-z
-x,y,z
x,-y,1/2+z
1/2+x,1/2+y,z
1/2-x,1/2-y,1/2+z
1/2+x,1/2-y,-z
1/2-x,1/2+y,1/2-z
1/2-x,1/2-y,-z
1/2+x,1/2+y,1/2-z
1/2-x,1/2+y,z
1/2+x,1/2-y,1/2+z
loop_
_atom_site_type_symbol
_atom_site_label
_atom_site_fract_x
_atom_site_fract_y
_atom_site_fract_z
Si Si1 0.774591 0.666475 0.924892
Si Si2 0.433593 0.671285 0.422639
Si Si3 0.253531 0.443825 0.574220
Si Si4 0.836694 0.762959 0.075549
Si Si5 0.886451 0.054992 0.076356
O O1 0.783743 0.658545 0.750000
O O2 0.712228 0.692026 0.962813
O O3 0.781191 0.607595 0.005868
O O4 0.824189 0.706202 0.988276
O O5 0.414818 0.676807 0.250000
O O6 0.500000 0.685914 0.445939
O O7 0.397737 0.714251 0.520977
O O8 0.421887 0.608556 0.478223
O O9 0.229420 0.500000 0.500000
O O10 0.243536 0.446267 0.750000
O O11 0.320221 0.436258 0.530930
O O12 0.838930 0.749860 0.250000
O O13 0.893774 0.045573 0.250000
O O14 0.912123 0.000000 0.000000
#
# Coordination Sequence:
#
# PCOD8255874 Si02
#       5
#    16  16  16  16  16
#     4  10  19  31  49  70  93 121 154 192 237 288
#     4  10  20  34  49  65  90 124 161 201 242 282
#     4  10  18  29  46  68  96 125 156 194 236 280
#     4  10  20  32  48  69  92 119 155 196 240 285
#     4   9  18  30  44  62  87 120 159 200 238 276
#
# _framework density 15.932036999999999
#
# number of rings (size 3 to 8) (size 9 to 14) (size 15 to 20)
#    0.000    2.200    2.000    1.800    0.000    4.000 
#    0.000    0.000    0.000    0.000    0.000    0.000 
#    0.000    0.800    0.000    3.000    0.000    4.600 
#
# Total GULP energy -496137.890994 kJ/mol
# GULP energy per Si atom -12403.447275 kJ/mol
# Density = 1.589577 g / cm^3
# Si number density = 15.932037 Si / 1000 Ang^3
#
#
#
# Elastic Constant Matrix: (Units=GPa)
#
#
# Indices 1 2 3 4 5 6 
#
# 1 52.7501 39.4580 26.6894 0.0000 0.0000 0.0000
# 2 39.4580 117.4642 53.7939 0.0000 0.0000 0.0000
# 3 26.6894 53.7939 71.4907 0.0000 0.0000 0.0000
# 4 0.0000 0.0000 0.0000 34.4042 0.0000 0.0000
# 5 0.0000 0.0000 0.0000 0.0000 20.2470 0.0000
# 6 0.0000 0.0000 0.0000 0.0000 0.0000 21.4136
#
#
#
# Elastic Compliance Matrix: (Units=1/GPa)
#
#
# Indices 1 2 3 4 5 6 
#
# 1 0.026378 -0.006639 -0.004852 0.000000 0.000000 0.000000
# 2 -0.006639 0.014660 -0.008553 0.000000 0.000000 0.000000
# 3 -0.004852 -0.008553 0.022235 0.000000 0.000000 0.000000
# 4 0.000000 0.000000 0.000000 0.029066 0.000000 0.000000
# 5 0.000000 0.000000 0.000000 0.000000 0.049390 0.000000
# 6 0.000000 0.000000 0.000000 0.000000 0.000000 0.046699
#
#
# Mechanical properties :
#
#
# Convention : Reuss Voigt Hill
#
# Bulk Modulus (GPa) = 43.12997 53.50973 48.31985
# Shear Modulus (GPa) = 21.16447 23.33054 22.24751
#
# Velocity S-wave (km/s) = 3.64871 3.83087 3.74090
# Velocity P-wave (km/s) = 6.69931 7.29566 7.00383
#
# Compressibility (1/GPa) = 0.02318573
#
# Stress axis : x y z
#
# Youngs Moduli (GPa) = 37.91003 68.21252 44.97422
#
# Poissons Ratio (x) = 0.45284 0.21823
# Poissons Ratio (y) = 0.25167 0.38465
# Poissons Ratio (z) = 0.18395 0.58340
#
# Static dielectric constant tensor:
#      x y z
#    x 2.669890 0.000000 0.000000 
#    y 0.000000 3.067920 0.000000 
#    z 0.000000 0.000000 3.032610 
# 
# 
# High freq. dielectric constant tensor:
#      x y z
#    x 1.564970 0.000000 0.000000 
#    y 0.000000 1.613290 0.000000 
#    z 0.000000 0.000000 1.622500 
# 
# From -- ./inp_files/6372.got.cif
#   From: 2010.03.12/outbox.cif.g09.slc.cpg/sg63_4_cif.got.tgz:6372.got - 2010.04.10 19:34:48.
