data_PCOD8255832
_publ_section_title
;
Structure prediction by ZEFSAII (Michael W. Deem and Ramdas Pophale) SiO2 
 PCOD8255832
Probable space group: C M C M
;
_chemical_formula_sum "Si O2"
_cell_formula_units_Z 104
_cell_length_a 12.992698
_cell_length_b 18.643273
_cell_length_c 24.172857
_cell_angle_alpha 90.000000
_cell_angle_beta 90.000000
_cell_angle_gamma 90.000000
_cell_volume 5855.304511
_symmetry_space_group_name_H-M "C M C M"
_symmetry_group_IT_number 63
_symmetry_cell_setting 'orthorhombic'
loop_
_space_group_symop_operation_xyz
x,y,z
-x,-y,1/2+z
x,-y,-z
-x,y,1/2-z
-x,-y,-z
x,y,1/2-z
-x,y,z
x,-y,1/2+z
1/2+x,1/2+y,z
1/2-x,1/2-y,1/2+z
1/2+x,1/2-y,-z
1/2-x,1/2+y,1/2-z
1/2-x,1/2-y,-z
1/2+x,1/2+y,1/2-z
1/2-x,1/2+y,z
1/2+x,1/2-y,1/2+z
loop_
_atom_site_type_symbol
_atom_site_label
_atom_site_fract_x
_atom_site_fract_y
_atom_site_fract_z
Si Si1 0.884918 0.178969 0.862617
Si Si2 0.184009 0.597005 0.866914
Si Si3 0.881293 0.645389 0.750000
Si Si4 0.116026 0.284364 0.448262
Si Si5 0.616565 0.892556 0.750000
Si Si6 0.692679 0.259231 0.250000
Si Si7 0.693504 0.806428 0.566830
Si Si8 0.380691 0.942199 0.869946
O O1 0.805547 0.113934 0.872573
O O2 0.867824 0.212466 0.802760
O O3 0.872566 0.241744 0.907515
O O4 0.000000 0.147575 0.867148
O O5 0.144981 0.598299 0.803756
O O6 0.119981 0.655480 0.900995
O O7 0.162774 0.518144 0.891361
O O8 0.811829 0.717021 0.750000
O O9 0.000000 0.668858 0.750000
O O10 0.186411 0.216003 0.432803
O O11 0.154351 0.320707 0.504973
O O12 0.000000 0.255958 0.453582
O O13 0.500000 0.861963 0.750000
O O14 0.695033 0.826399 0.750000
O O15 0.635945 0.940374 0.696018
O O16 0.683146 0.878900 0.601541
O O17 0.500000 0.933933 0.886237
#
# Coordination Sequence:
#
# PCOD8255832 Si02
#       8
#    16  16   8  16   8   8  16  16
#     4  10  18  33  53  75 101 131 169 214 254 296
#     4  10  22  34  51  77 104 136 172 203 250 313
#     4  10  19  34  51  72 103 138 169 203 249 304
#     4  10  20  37  54  74 104 136 170 212 253 298
#     4  10  19  30  50  77 106 130 160 211 261 295
#     4  10  18  28  51  79  99 124 171 216 250 299
#     4  10  21  33  54  80 100 131 174 211 255 303
#     4  11  20  33  52  77 107 136 167 211 258 300
#
# _framework density 17.761672999999998
#
# number of rings (size 3 to 8) (size 9 to 14) (size 15 to 20)
#    0.000    1.846    1.538    3.923    0.000    1.231 
#    0.000    2.308    0.000    0.923    0.000    6.462 
#    0.000    0.000    0.000    0.000    0.000    0.000 
#
# Total GULP energy -644920.098358 kJ/mol
# GULP energy per Si atom -12402.309584 kJ/mol
# Density = 1.772125 g / cm^3
# Si number density = 17.761673 Si / 1000 Ang^3
#
#
#
# Elastic Constant Matrix: (Units=GPa)
#
#
# Indices 1 2 3 4 5 6 
#
# 1 138.0661 53.5432 25.0715 0.0000 0.0000 0.0000
# 2 53.5432 100.9473 31.1923 0.0000 0.0000 0.0000
# 3 25.0715 31.1923 89.8800 0.0000 0.0000 0.0000
# 4 0.0000 0.0000 0.0000 12.5836 0.0000 0.0000
# 5 0.0000 0.0000 0.0000 0.0000 30.1254 0.0000
# 6 0.0000 0.0000 0.0000 0.0000 0.0000 19.9161
#
#
#
# Elastic Compliance Matrix: (Units=1/GPa)
#
#
# Indices 1 2 3 4 5 6 
#
# 1 0.009195 -0.004575 -0.000977 0.000000 0.000000 0.000000
# 2 -0.004575 0.013372 -0.003365 0.000000 0.000000 0.000000
# 3 -0.000977 -0.003365 0.012566 0.000000 0.000000 0.000000
# 4 0.000000 0.000000 0.000000 0.079469 0.000000 0.000000
# 5 0.000000 0.000000 0.000000 0.000000 0.033195 0.000000
# 6 0.000000 0.000000 0.000000 0.000000 0.000000 0.050211
#
#
# Mechanical properties :
#
#
# Convention : Reuss Voigt Hill
#
# Bulk Modulus (GPa) = 57.80414 60.94528 59.37471
# Shear Modulus (GPa) = 22.56244 27.13075 24.84660
#
# Velocity S-wave (km/s) = 3.56798 3.91255 3.74423
# Velocity P-wave (km/s) = 7.04194 7.40257 7.22450
#
# Compressibility (1/GPa) = 0.01729980
#
# Stress axis : x y z
#
# Youngs Moduli (GPa) = 108.76026 74.78081 79.57871
#
# Poissons Ratio (x) = 0.34212 0.07775
# Poissons Ratio (y) = 0.49757 0.26776
# Poissons Ratio (z) = 0.10627 0.25161
#
# Static dielectric constant tensor:
#      x y z
#    x 3.315350 0.000000 0.000000 
#    y 0.000000 3.017960 0.000000 
#    z 0.000000 0.000000 3.355830 
# 
# 
# High freq. dielectric constant tensor:
#      x y z
#    x 1.683480 0.000000 0.000000 
#    y 0.000000 1.664320 0.000000 
#    z 0.000000 0.000000 1.701000 
# 
# From -- ./inp_files/68475.got.cif
#   From: 2010.03.12/outbox.cif.g09.slc.cpg/sg63_35_cif.got.tgz:68475.got - 2010.04.10 19:34:48.
