data_PCOD8255612
_publ_section_title
;
Structure prediction by ZEFSAII (Michael W. Deem and Ramdas Pophale) SiO2 
 PCOD8255612
Probable space group: C M C M
;
_chemical_formula_sum "Si O2"
_cell_formula_units_Z 56
_cell_length_a 9.599466
_cell_length_b 11.851946
_cell_length_c 19.603769
_cell_angle_alpha 90.000000
_cell_angle_beta 90.000000
_cell_angle_gamma 90.000000
_cell_volume 2230.366920
_symmetry_space_group_name_H-M "C M C M"
_symmetry_group_IT_number 63
_symmetry_cell_setting 'orthorhombic'
loop_
_space_group_symop_operation_xyz
x,y,z
-x,-y,1/2+z
x,-y,-z
-x,y,1/2-z
-x,-y,-z
x,y,1/2-z
-x,y,z
x,-y,1/2+z
1/2+x,1/2+y,z
1/2-x,1/2-y,1/2+z
1/2+x,1/2-y,-z
1/2-x,1/2+y,1/2-z
1/2-x,1/2-y,-z
1/2+x,1/2+y,1/2-z
1/2-x,1/2+y,z
1/2+x,1/2-y,1/2+z
loop_
_atom_site_type_symbol
_atom_site_label
_atom_site_fract_x
_atom_site_fract_y
_atom_site_fract_z
Si Si1 0.500000 0.198247 0.250000
Si Si2 0.500000 0.753614 0.104666
Si Si3 0.273433 0.613098 0.750000
Si Si4 0.733432 0.059625 0.603647
Si Si5 0.000000 0.144361 0.965579
Si Si6 0.500000 0.887629 0.896433
Si Si7 0.000000 0.255364 0.250000
O O1 0.633945 0.275843 0.250000
O O2 0.500000 0.116451 0.314791
O O3 0.360952 0.828333 0.099142
O O4 0.500000 0.686736 0.178304
O O5 0.500000 0.658749 0.047019
O O6 0.295597 0.541245 0.680497
O O7 0.118260 0.652817 0.750000
O O8 0.863620 0.073028 0.553352
O O9 0.640115 0.952854 0.580050
O O10 0.000000 0.264853 0.928720
#
# Coordination Sequence:
#
# PCOD8255612 Si02
#       7
#     4   8   8  16   8   8   4
#     4  12  20  39  68  97 126 182 230 271 328 397
#     4   9  20  38  67  94 131 177 217 278 343 396
#     4  10  17  36  62  92 127 173 223 275 328 390
#     4  10  21  39  62  96 135 172 222 281 333 391
#     4  12  22  41  67  98 130 178 229 269 337 413
#     4  11  24  40  65  95 138 180 220 278 341 394
#     4   8  18  35  62  95 122 168 224 261 342 399
#
# _framework density 25.107977000000002
#
# number of rings (size 3 to 8) (size 9 to 14) (size 15 to 20)
#    0.000    1.714    2.857    2.571    0.000    3.429 
#    0.000    4.286    0.000    3.429    0.000    0.000 
#    0.000    0.000    0.000    0.000    0.000    0.000 
#
# Total GULP energy -347123.513869 kJ/mol
# GULP energy per Si atom -12397.268352 kJ/mol
# Density = 2.505083 g / cm^3
# Si number density = 25.107977 Si / 1000 Ang^3
#
#
#
# Elastic Constant Matrix: (Units=GPa)
#
#
# Indices 1 2 3 4 5 6 
#
# 1 146.8133 50.9933 27.4686 0.0000 0.0000 0.0000
# 2 50.9933 102.9760 31.8465 0.0000 0.0000 0.0000
# 3 27.4686 31.8465 165.1890 0.0000 0.0000 0.0000
# 4 0.0000 0.0000 0.0000 27.8762 0.0000 0.0000
# 5 0.0000 0.0000 0.0000 0.0000 32.0662 0.0000
# 6 0.0000 0.0000 0.0000 0.0000 0.0000 2.1604
#
#
#
# Elastic Compliance Matrix: (Units=1/GPa)
#
#
# Indices 1 2 3 4 5 6 
#
# 1 0.008286 -0.003910 -0.000624 0.000000 0.000000 0.000000
# 2 -0.003910 0.012172 -0.001696 0.000000 0.000000 0.000000
# 3 -0.000624 -0.001696 0.006484 0.000000 0.000000 0.000000
# 4 0.000000 0.000000 0.000000 0.035873 0.000000 0.000000
# 5 0.000000 0.000000 0.000000 0.000000 0.031186 0.000000
# 6 0.000000 0.000000 0.000000 0.000000 0.000000 0.462873
#
#
# Mechanical properties :
#
#
# Convention : Reuss Voigt Hill
#
# Bulk Modulus (GPa) = 69.05467 70.62166 69.83817
# Shear Modulus (GPa) = 8.70833 32.73188 20.72010
#
# Velocity S-wave (km/s) = 1.86437 3.61452 2.87582
# Velocity P-wave (km/s) = 5.67427 6.75336 6.23719
#
# Compressibility (1/GPa) = 0.01448128
#
# Stress axis : x y z
#
# Youngs Moduli (GPa) = 120.68059 82.15554 154.21435
#
# Poissons Ratio (x) = 0.32126 0.09623
# Poissons Ratio (y) = 0.47191 0.26161
# Poissons Ratio (z) = 0.07531 0.13937
#
# Static dielectric constant tensor:
#      x y z
#    x 4.687870 0.000000 0.000000 
#    y 0.000000 3.961280 0.000000 
#    z 0.000000 0.000000 5.282940 
# 
# 
# High freq. dielectric constant tensor:
#      x y z
#    x 2.015600 0.000000 0.000000 
#    y 0.000000 1.968160 0.000000 
#    z 0.000000 0.000000 2.020760 
# 
# From -- ./inp_files/50206.got.cif
#   From: 2010.03.12/outbox.cif.g09.slc.cpg/sg63_26_cif.got.tgz:50206.got - 2010.04.10 19:34:48.
