data_PCOD8255787
_publ_section_title
;
Structure prediction by ZEFSAII (Michael W. Deem and Ramdas Pophale) SiO2 
 PCOD8255787
Probable space group: C M C M
;
_chemical_formula_sum "Si O2"
_cell_formula_units_Z 96
_cell_length_a 16.648517
_cell_length_b 18.985644
_cell_length_c 17.796227
_cell_angle_alpha 90.000000
_cell_angle_beta 90.000000
_cell_angle_gamma 90.000000
_cell_volume 5625.081560
_symmetry_space_group_name_H-M "C M C M"
_symmetry_group_IT_number 63
_symmetry_cell_setting 'orthorhombic'
loop_
_space_group_symop_operation_xyz
x,y,z
-x,-y,1/2+z
x,-y,-z
-x,y,1/2-z
-x,-y,-z
x,y,1/2-z
-x,y,z
x,-y,1/2+z
1/2+x,1/2+y,z
1/2-x,1/2-y,1/2+z
1/2+x,1/2-y,-z
1/2-x,1/2+y,1/2-z
1/2-x,1/2-y,-z
1/2+x,1/2+y,1/2-z
1/2-x,1/2+y,z
1/2+x,1/2-y,1/2+z
loop_
_atom_site_type_symbol
_atom_site_label
_atom_site_fract_x
_atom_site_fract_y
_atom_site_fract_z
Si Si1 0.763940 0.593943 0.161041
Si Si2 0.837016 0.221197 0.339553
Si Si3 0.190335 0.376087 0.161256
Si Si4 0.000000 0.995269 0.088401
Si Si5 0.158367 0.962789 0.162029
Si Si6 0.000000 0.851982 0.661014
Si Si7 0.089742 0.492870 0.839819
O O1 0.768334 0.595112 0.250000
O O2 0.734808 0.670020 0.130481
O O3 0.697747 0.536638 0.137132
O O4 0.852266 0.570666 0.130855
O O5 0.834017 0.224215 0.250000
O O6 0.825130 0.299072 0.374375
O O7 0.922565 0.191502 0.366210
O O8 0.180082 0.372516 0.250000
O O9 0.280559 0.399964 0.140926
O O10 0.125474 0.432696 0.130459
O O11 0.000000 0.072107 0.124146
O O12 0.922511 0.951385 0.115216
O O13 0.000000 0.000000 0.000000
O O14 0.137801 0.962813 0.250000
O O15 0.000000 0.863517 0.750000
O O16 0.088457 0.493521 0.750000
O O17 0.000000 0.482003 0.872319
#
# Coordination Sequence:
#
# PCOD8255787 Si02
#       7
#    16  16  16   8  16   8  16
#     4   8  13  22  38  57  81 116 148 173 209 263
#     4   9  15  23  39  64  90 112 144 183 219 265
#     4   8  15  24  39  63  89 115 142 176 218 273
#     4  12  22  30  46  70  92 113 156 206 229 260
#     4   9  16  30  47  64  90 124 151 175 226 283
#     4  10  18  28  46  70  94 119 143 184 242 277
#     4   8  13  20  31  51  82 114 138 165 210 259
#
# _framework density 17.066419
#
# number of rings (size 3 to 8) (size 9 to 14) (size 15 to 20)
#    0.000    3.167    1.667    2.750    1.167    0.000 
#    0.000    0.000    1.833    1.000    0.000    0.000 
#    0.000   10.667    0.000    0.000    0.000    0.000 
#
# Total GULP energy -594787.609807 kJ/mol
# GULP energy per Si atom -12391.408538 kJ/mol
# Density = 1.702758 g / cm^3
# Si number density = 17.066419 Si / 1000 Ang^3
#
#
#
# Elastic Constant Matrix: (Units=GPa)
#
#
# Indices 1 2 3 4 5 6 
#
# 1 163.7241 71.8100 19.4899 0.0000 0.0000 0.0000
# 2 71.8100 108.5913 4.5723 0.0000 0.0000 0.0000
# 3 19.4899 4.5723 19.4773 0.0000 0.0000 0.0000
# 4 0.0000 0.0000 0.0000 2.4438 0.0000 0.0000
# 5 0.0000 0.0000 0.0000 0.0000 1.6559 0.0000
# 6 0.0000 0.0000 0.0000 0.0000 0.0000 23.4914
#
#
#
# Elastic Compliance Matrix: (Units=1/GPa)
#
#
# Indices 1 2 3 4 5 6 
#
# 1 0.009787 -0.006120 -0.008357 0.000000 0.000000 0.000000
# 2 -0.006120 0.013128 0.003042 0.000000 0.000000 0.000000
# 3 -0.008357 0.003042 0.058990 0.000000 0.000000 0.000000
# 4 0.000000 0.000000 0.000000 0.409204 0.000000 0.000000
# 5 0.000000 0.000000 0.000000 0.000000 0.603905 0.000000
# 6 0.000000 0.000000 0.000000 0.000000 0.000000 0.042569
#
#
# Mechanical properties :
#
#
# Convention : Reuss Voigt Hill
#
# Bulk Modulus (GPa) = 16.93889 53.72633 35.33261
# Shear Modulus (GPa) = 4.23682 18.57958 11.40820
#
# Velocity S-wave (km/s) = 1.57732 3.30307 2.58826
# Velocity P-wave (km/s) = 3.64199 6.78941 5.44794
#
# Compressibility (1/GPa) = 0.05903575
#
# Stress axis : x y z
#
# Youngs Moduli (GPa) = 102.17736 76.17381 16.95211
#
# Poissons Ratio (x) = 0.46619 0.14166
# Poissons Ratio (y) = 0.62533 -0.05157
# Poissons Ratio (z) = 0.85385 -0.23174
#
# Static dielectric constant tensor:
#      x y z
#    x 3.550340 0.000000 0.000000 
#    y 0.000000 3.530580 0.000000 
#    z 0.000000 0.000000 2.509180 
# 
# 
# High freq. dielectric constant tensor:
#      x y z
#    x 1.670030 0.000000 0.000000 
#    y 0.000000 1.652590 0.000000 
#    z 0.000000 0.000000 1.578390 
# 
# From -- ./inp_files/45794.got.cif
#   From: 2010.03.12/outbox.cif.g09.slc.cpg/sg63_23_cif.got.tgz:45794.got - 2010.04.10 19:34:48.
