data_PCOD8255670
_publ_section_title
;
Structure prediction by ZEFSAII (Michael W. Deem and Ramdas Pophale) SiO2 
 PCOD8255670
Probable space group: C M C M
;
_chemical_formula_sum "Si O2"
_cell_formula_units_Z 56
_cell_length_a 13.691411
_cell_length_b 31.978671
_cell_length_c 8.945250
_cell_angle_alpha 90.000000
_cell_angle_beta 90.000000
_cell_angle_gamma 90.000000
_cell_volume 3916.526787
_symmetry_space_group_name_H-M "C M C M"
_symmetry_group_IT_number 63
_symmetry_cell_setting 'orthorhombic'
loop_
_space_group_symop_operation_xyz
x,y,z
-x,-y,1/2+z
x,-y,-z
-x,y,1/2-z
-x,-y,-z
x,y,1/2-z
-x,y,z
x,-y,1/2+z
1/2+x,1/2+y,z
1/2-x,1/2-y,1/2+z
1/2+x,1/2-y,-z
1/2-x,1/2+y,1/2-z
1/2-x,1/2-y,-z
1/2+x,1/2+y,1/2-z
1/2-x,1/2+y,z
1/2+x,1/2-y,1/2+z
loop_
_atom_site_type_symbol
_atom_site_label
_atom_site_fract_x
_atom_site_fract_y
_atom_site_fract_z
Si Si1 0.206711 0.186109 0.576748
Si Si2 0.000000 0.954930 0.072620
Si Si3 0.392517 0.387094 0.581471
Si Si4 0.889982 0.738544 0.578711
O O1 0.188300 0.177593 0.750000
O O2 0.187697 0.143246 0.489498
O O3 0.132509 0.222079 0.525307
O O4 0.317747 0.200097 0.541781
O O5 0.000000 0.958348 0.250000
O O6 0.903096 0.929929 0.015102
O O7 0.000000 0.000000 0.000000
O O8 0.359909 0.398340 0.750000
O O9 0.500000 0.364812 0.582480
O O10 0.874929 0.752964 0.750000
O O11 0.000000 0.722956 0.548709
#
# Coordination Sequence:
#
# PCOD8255670 Si02
#       4
#    16   8  16  16
#     4  10  18  27  41  60  79 106 146 184 216 253
#     4  10  18  30  46  66  90 114 140 170 206 252
#     4   9  18  29  42  60  84 114 139 167 206 252
#     4   9  18  30  41  54  79 112 144 182 222 257
#
# _framework density 14.298382
#
# number of rings (size 3 to 8) (size 9 to 14) (size 15 to 20)
#    0.857    1.714    0.000    3.429    0.000    5.143 
#    0.000    0.000    0.000    0.000    0.000    0.000 
#    0.000    1.143    0.000    3.143    0.000    4.571 
#
# Total GULP energy -347031.247888 kJ/mol
# GULP energy per Si atom -12393.973139 kJ/mol
# Density = 1.426584 g / cm^3
# Si number density = 14.298382 Si / 1000 Ang^3
#
#
#
# Elastic Constant Matrix: (Units=GPa)
#
#
# Indices 1 2 3 4 5 6 
#
# 1 75.2587 39.1145 32.0655 0.0000 0.0000 0.0000
# 2 39.1145 100.6830 58.3208 0.0000 0.0000 0.0000
# 3 32.0655 58.3208 114.0437 0.0000 0.0000 0.0000
# 4 0.0000 0.0000 0.0000 28.4824 0.0000 0.0000
# 5 0.0000 0.0000 0.0000 0.0000 18.1626 0.0000
# 6 0.0000 0.0000 0.0000 0.0000 0.0000 18.4194
#
#
#
# Elastic Compliance Matrix: (Units=1/GPa)
#
#
# Indices 1 2 3 4 5 6 
#
# 1 0.016961 -0.005437 -0.001988 0.000000 0.000000 0.000000
# 2 -0.005437 0.015856 -0.006580 0.000000 0.000000 0.000000
# 3 -0.001988 -0.006580 0.012692 0.000000 0.000000 0.000000
# 4 0.000000 0.000000 0.000000 0.035109 0.000000 0.000000
# 5 0.000000 0.000000 0.000000 0.000000 0.055058 0.000000
# 6 0.000000 0.000000 0.000000 0.000000 0.000000 0.054290
#
#
# Mechanical properties :
#
#
# Convention : Reuss Voigt Hill
#
# Bulk Modulus (GPa) = 57.14840 60.99856 59.07348
# Shear Modulus (GPa) = 22.34035 23.71185 23.02610
#
# Velocity S-wave (km/s) = 3.95706 4.07671 4.01733
# Velocity P-wave (km/s) = 7.80596 8.05688 7.93241
#
# Compressibility (1/GPa) = 0.01749830
#
# Stress axis : x y z
#
# Youngs Moduli (GPa) = 58.96023 63.06826 78.78757
#
# Poissons Ratio (x) = 0.34293 0.15664
# Poissons Ratio (y) = 0.32059 0.51840
# Poissons Ratio (z) = 0.11722 0.41497
#
# Static dielectric constant tensor:
#      x y z
#    x 2.671350 0.000000 0.000000 
#    y 0.000000 2.557120 0.000000 
#    z 0.000000 0.000000 2.949720 
# 
# 
# High freq. dielectric constant tensor:
#      x y z
#    x 1.517720 0.000000 0.000000 
#    y 0.000000 1.520000 0.000000 
#    z 0.000000 0.000000 1.564980 
# 
# From -- ./inp_files/4813.got.cif
#   From: 2010.03.12/outbox.cif.g09.slc.cpg/sg63_3_cif.got.tgz:4813.got - 2010.04.10 19:34:48.
