data_PCOD8255272
_publ_section_title
;
Structure prediction by ZEFSAII (Michael W. Deem and Ramdas Pophale) SiO2 
 PCOD8255272
Probable space group: P N M A
;
_chemical_formula_sum "Si O2"
_cell_formula_units_Z 24
_cell_length_a 11.359293
_cell_length_b 9.926956
_cell_length_c 8.060096
_cell_angle_alpha 90.000000
_cell_angle_beta 90.000000
_cell_angle_gamma 90.000000
_cell_volume 908.882232
_symmetry_space_group_name_H-M "P N M A"
_symmetry_group_IT_number 62
_symmetry_cell_setting 'orthorhombic'
loop_
_space_group_symop_operation_xyz
x,y,z
1/2-x,-y,1/2+z
1/2+x,1/2-y,1/2-z
-x,1/2+y,-z
-x,-y,-z
1/2+x,y,1/2-z
1/2-x,1/2+y,1/2+z
x,1/2-y,z
loop_
_atom_site_type_symbol
_atom_site_label
_atom_site_fract_x
_atom_site_fract_y
_atom_site_fract_z
Si Si1 0.828331 0.502389 0.097848
Si Si2 0.693891 0.250000 0.355014
Si Si3 0.896319 0.900870 0.455555
Si Si4 0.940483 0.250000 0.168512
O O1 0.839203 0.561494 0.280348
O O2 0.929527 0.388344 0.060338
O O3 0.824154 0.618699 0.965539
O O4 0.705595 0.416105 0.095436
O O5 0.828528 0.250000 0.293259
O O6 0.570861 0.250000 0.241332
O O7 0.945533 0.750000 0.443126
O O8 0.000000 0.000000 0.500000
#
# Coordination Sequence:
#
# PCOD8255272 Si02
#       4
#     8   4   8   4
#     4  12  27  51  79 116 162 208 274 332 413 481
#     4  12  28  51  79 119 163 218 272 340 410 488
#     4  12  30  51  83 120 162 216 273 343 410 494
#     4  12  28  47  81 117 161 216 274 334 414 478
#
# _framework density 26.406061999999999
#
# number of rings (size 3 to 8) (size 9 to 14) (size 15 to 20)
#    0.000    0.000    6.667    1.000    9.333    2.667 
#    0.000    0.000    0.000    0.000    0.000    0.000 
#    0.000    0.000    0.000    0.000    0.000    0.000 
#
# Total GULP energy -297461.099417 kJ/mol
# GULP energy per Si atom -12394.212476 kJ/mol
# Density = 2.634596 g / cm^3
# Si number density = 26.406062 Si / 1000 Ang^3
#
#
#
# Elastic Constant Matrix: (Units=GPa)
#
#
# Indices 1 2 3 4 5 6 
#
# 1 194.0210 50.6942 36.9844 0.0000 0.0000 0.0000
# 2 50.6942 221.3683 27.5226 0.0000 0.0000 0.0000
# 3 36.9844 27.5226 93.4955 0.0000 0.0000 0.0000
# 4 0.0000 0.0000 0.0000 23.8852 0.0000 0.0000
# 5 0.0000 0.0000 0.0000 0.0000 38.0777 0.0000
# 6 0.0000 0.0000 0.0000 0.0000 0.0000 36.6404
#
#
#
# Elastic Compliance Matrix: (Units=1/GPa)
#
#
# Indices 1 2 3 4 5 6 
#
# 1 0.005815 -0.001085 -0.001981 0.000000 0.000000 0.000000
# 2 -0.001085 0.004892 -0.001011 0.000000 0.000000 0.000000
# 3 -0.001981 -0.001011 0.011777 0.000000 0.000000 0.000000
# 4 0.000000 0.000000 0.000000 0.041867 0.000000 0.000000
# 5 0.000000 0.000000 0.000000 0.000000 0.026262 0.000000
# 6 0.000000 0.000000 0.000000 0.000000 0.000000 0.027292
#
#
# Mechanical properties :
#
#
# Convention : Reuss Voigt Hill
#
# Bulk Modulus (GPa) = 69.78427 82.14301 75.96364
# Shear Modulus (GPa) = 38.21602 45.96625 42.09113
#
# Velocity S-wave (km/s) = 3.80839 4.17675 3.99682
# Velocity P-wave (km/s) = 6.76929 7.37804 7.08021
#
# Compressibility (1/GPa) = 0.01432988
#
# Stress axis : x y z
#
# Youngs Moduli (GPa) = 171.96081 204.43322 84.91303
#
# Poissons Ratio (x) = 0.22190 0.16820
# Poissons Ratio (y) = 0.18665 0.08581
# Poissons Ratio (z) = 0.34063 0.20660
#
# Static dielectric constant tensor:
#      x y z
#    x 5.202210 0.000000 0.000000 
#    y 0.000000 5.966130 0.000000 
#    z 0.000000 0.000000 5.009890 
# 
# 
# High freq. dielectric constant tensor:
#      x y z
#    x 2.079560 0.000000 0.000000 
#    y 0.000000 2.109460 0.000000 
#    z 0.000000 0.000000 2.053020 
# 
# From -- ./inp_files/4726.got.cif
#   From: 2010.03.12/outbox.cif.g09.slc.cpg/sg62_3_cif.got.tgz:4726.got - 2010.04.10 19:12:36.
