data_PCOD8255300
_publ_section_title
;
Structure prediction by ZEFSAII (Michael W. Deem and Ramdas Pophale) SiO2 
 PCOD8255300
Probable space group: P N M A
;
_chemical_formula_sum "Si O2"
_cell_formula_units_Z 64
_cell_length_a 18.000000
_cell_length_b 15.000000
_cell_length_c 12.000000
_cell_angle_alpha 90.000000
_cell_angle_beta 90.000000
_cell_angle_gamma 90.000000
_cell_volume 3240.000000
_symmetry_space_group_name_H-M "P N M A"
_symmetry_group_IT_number 62
_symmetry_cell_setting 'orthorhombic'
loop_
_space_group_symop_operation_xyz
x,y,z
1/2-x,-y,1/2+z
1/2+x,1/2-y,1/2-z
-x,1/2+y,-z
-x,-y,-z
1/2+x,y,1/2-z
1/2-x,1/2+y,1/2+z
x,1/2-y,z
loop_
_atom_site_type_symbol
_atom_site_label
_atom_site_fract_x
_atom_site_fract_y
_atom_site_fract_z
Si Si1 0.583484 0.649959 0.508092
Si Si2 0.974227 0.850044 0.817860
Si Si3 0.653836 0.534275 0.140809
Si Si4 0.855200 0.985852 0.888100
Si Si5 0.787707 0.857958 0.039864
Si Si6 0.441354 0.648901 0.353840
Si Si7 0.907995 0.850924 0.584467
Si Si8 0.508802 0.853625 0.128565
O O1 0.617043 0.750000 0.484534
O O2 0.559873 0.641485 0.639124
O O3 0.638406 0.570090 0.473670
O O4 0.505806 0.637839 0.443690
O O5 0.944629 0.750000 0.852288
O O6 0.930254 0.928737 0.879036
O O7 0.967581 0.861371 0.684930
O O8 0.666537 0.530260 0.272258
O O9 0.718351 0.599681 0.101514
O O10 0.652872 0.431359 0.093759
O O11 0.578816 0.583927 0.104739
O O12 0.792317 0.913389 0.923664
O O13 0.780327 0.750000 0.024418
O O14 0.863145 0.890021 0.102902
O O15 0.423808 0.750000 0.324961
O O16 0.468749 0.605363 0.238077
O O17 0.871988 0.750000 0.588948
O O18 0.951636 0.863345 0.471203
O O19 0.533676 0.750000 0.144884
#
# Coordination Sequence:
#
# PCOD8255300 Si02
#       8
#     8   8   8   8   8   8   8   8
#     4  10  18  31  55  88 116 141 187 247 300 350
#     4   9  17  31  53  83 113 142 186 242 294 348
#     4  11  23  38  58  86 116 157 204 250 298 366
#     4  11  21  35  58  83 111 154 195 243 300 361
#     4  11  24  40  58  87 123 158 200 251 312 369
#     4   9  18  33  57  87 115 146 187 240 297 351
#     4   9  20  36  56  82 114 156 200 242 293 357
#     4  10  19  36  61  88 119 154 198 249 300 353
#
# _framework density 19.753086
#
# number of rings (size 3 to 8) (size 9 to 14) (size 15 to 20)
#    0.000    2.000    2.500    1.500    0.000    2.000 
#    0.000    1.875    0.000    1.500    0.000    0.875 
#    0.000    0.000    0.000    0.000    0.000    0.000 
#
# Total GULP energy -792851.065668 kJ/mol
# GULP energy per Si atom -12388.297901 kJ/mol
# Density = 1.970813 g / cm^3
# Si number density = 19.753086 Si / 1000 Ang^3
#
#
#
# Elastic Constant Matrix: (Units=GPa)
#
#
# Indices 1 2 3 4 5 6 
#
# 1 49.1814 30.3843 7.3817 0.0000 0.0000 0.0000
# 2 30.3843 140.3582 21.0217 0.0000 0.0000 0.0000
# 3 7.3817 21.0217 51.5008 0.0000 0.0000 0.0000
# 4 0.0000 0.0000 0.0000 32.8533 0.0000 0.0000
# 5 0.0000 0.0000 0.0000 0.0000 17.5343 0.0000
# 6 0.0000 0.0000 0.0000 0.0000 0.0000 31.9841
#
#
#
# Elastic Compliance Matrix: (Units=1/GPa)
#
#
# Indices 1 2 3 4 5 6 
#
# 1 0.023564 -0.004894 -0.001380 0.000000 0.000000 0.000000
# 2 -0.004894 0.008605 -0.002811 0.000000 0.000000 0.000000
# 3 -0.001380 -0.002811 0.020762 0.000000 0.000000 0.000000
# 4 0.000000 0.000000 0.000000 0.030438 0.000000 0.000000
# 5 0.000000 0.000000 0.000000 0.000000 0.057031 0.000000
# 6 0.000000 0.000000 0.000000 0.000000 0.000000 0.031266
#
#
# Mechanical properties :
#
#
# Convention : Reuss Voigt Hill
#
# Bulk Modulus (GPa) = 28.76766 39.84620 34.30693
# Shear Modulus (GPa) = 24.82337 28.62452 26.72394
#
# Velocity S-wave (km/s) = 3.54882 3.81086 3.68217
# Velocity P-wave (km/s) = 5.60244 6.29122 5.95680
#
# Compressibility (1/GPa) = 0.03476126
#
# Stress axis : x y z
#
# Youngs Moduli (GPa) = 42.43819 116.20946 48.16423
#
# Poissons Ratio (x) = 0.56877 0.06645
# Poissons Ratio (y) = 0.20771 0.13539
# Poissons Ratio (z) = 0.05855 0.32666
#
# Static dielectric constant tensor:
#      x y z
#    x 3.162410 0.000000 0.000000 
#    y 0.000000 4.140120 0.000000 
#    z 0.000000 0.000000 3.801050 
# 
# 
# High freq. dielectric constant tensor:
#      x y z
#    x 1.715310 0.000000 0.000000 
#    y 0.000000 1.804540 0.000000 
#    z 0.000000 0.000000 1.773290 
# 
# From -- ./inp_files/14329.got.cif
#   From: 2010.03.12/outbox.ucp.g09.slc.cvg/sg62_8_cif.got.tgz:14329.got - 2010.05.04 19:35:18.
