data_PCOD8255600
_publ_section_title
;
Structure prediction by ZEFSAII (Michael W. Deem and Ramdas Pophale) SiO2 
 PCOD8255600
Probable space group: C M C M
;
_chemical_formula_sum "Si O2"
_cell_formula_units_Z 112
_cell_length_a 15.630306
_cell_length_b 25.419212
_cell_length_c 14.702548
_cell_angle_alpha 90.000000
_cell_angle_beta 90.000000
_cell_angle_gamma 90.000000
_cell_volume 5841.470255
_symmetry_space_group_name_H-M "C M C M"
_symmetry_group_IT_number 63
_symmetry_cell_setting 'orthorhombic'
loop_
_space_group_symop_operation_xyz
x,y,z
-x,-y,1/2+z
x,-y,-z
-x,y,1/2-z
-x,-y,-z
x,y,1/2-z
-x,y,z
x,-y,1/2+z
1/2+x,1/2+y,z
1/2-x,1/2-y,1/2+z
1/2+x,1/2-y,-z
1/2-x,1/2+y,1/2-z
1/2-x,1/2-y,-z
1/2+x,1/2+y,1/2-z
1/2-x,1/2+y,z
1/2+x,1/2-y,1/2+z
loop_
_atom_site_type_symbol
_atom_site_label
_atom_site_fract_x
_atom_site_fract_y
_atom_site_fract_z
Si Si1 0.656061 0.347255 0.973774
Si Si2 0.592149 0.261987 0.096561
Si Si3 0.229165 0.515411 0.357780
Si Si4 0.305566 0.916442 0.475005
Si Si5 0.405184 0.817699 0.062361
Si Si6 0.906590 0.937777 0.853721
Si Si7 0.224673 0.241705 0.348924
O O1 0.600937 0.383551 0.908008
O O2 0.714996 0.305299 0.920123
O O3 0.591545 0.315413 0.037271
O O4 0.719296 0.382622 0.033565
O O5 0.500000 0.261718 0.149639
O O6 0.676558 0.260883 0.158403
O O7 0.595871 0.210692 0.034164
O O8 0.205806 0.522523 0.250000
O O9 0.185138 0.559749 0.422166
O O10 0.198025 0.459570 0.394944
O O11 0.331730 0.520229 0.375015
O O12 0.385940 0.879312 0.454258
O O13 0.500000 0.813424 0.106501
O O14 0.335026 0.791394 0.127774
O O15 0.899961 0.920230 0.750000
O O16 0.000000 0.963369 0.875106
O O17 0.197955 0.220727 0.250000
#
# Coordination Sequence:
#
# PCOD8255600 Si02
#       7
#    16  16  16  16  16  16  16
#     4  10  17  33  52  79 106 146 187 218 271 331
#     4  10  19  34  54  79 113 146 180 222 265 328
#     4   9  20  35  55  80 108 144 184 237 294 345
#     4  10  18  36  59  79 107 144 189 230 286 344
#     4  10  20  37  59  81 107 144 190 232 281 337
#     4   9  17  30  50  78 108 138 179 231 281 330
#     4  11  21  34  53  80 117 150 183 230 276 328
#
# _framework density 19.173255000000001
#
# number of rings (size 3 to 8) (size 9 to 14) (size 15 to 20)
#    0.000    2.143    2.857    1.714    0.000    2.286 
#    0.000    7.857    0.000    1.286    0.000    0.000 
#    0.000    0.000    0.000    0.000    0.000    0.000 
#
# Total GULP energy -693943.617922 kJ/mol
# GULP energy per Si atom -12391.850320 kJ/mol
# Density = 1.912962 g / cm^3
# Si number density = 19.173255 Si / 1000 Ang^3
#
#
#
# Elastic Constant Matrix: (Units=GPa)
#
#
# Indices 1 2 3 4 5 6 
#
# 1 108.1970 21.2449 10.7641 0.0000 0.0000 0.0000
# 2 21.2449 92.9787 13.8033 0.0000 0.0000 0.0000
# 3 10.7641 13.8033 57.2053 0.0000 0.0000 0.0000
# 4 0.0000 0.0000 0.0000 11.9919 0.0000 0.0000
# 5 0.0000 0.0000 0.0000 0.0000 5.0314 0.0000
# 6 0.0000 0.0000 0.0000 0.0000 0.0000 16.6240
#
#
#
# Elastic Compliance Matrix: (Units=1/GPa)
#
#
# Indices 1 2 3 4 5 6 
#
# 1 0.009776 -0.002033 -0.001349 0.000000 0.000000 0.000000
# 2 -0.002033 0.011578 -0.002411 0.000000 0.000000 0.000000
# 3 -0.001349 -0.002411 0.018316 0.000000 0.000000 0.000000
# 4 0.000000 0.000000 0.000000 0.083390 0.000000 0.000000
# 5 0.000000 0.000000 0.000000 0.000000 0.198753 0.000000
# 6 0.000000 0.000000 0.000000 0.000000 0.000000 0.060154
#
#
# Mechanical properties :
#
#
# Convention : Reuss Voigt Hill
#
# Bulk Modulus (GPa) = 35.60816 38.88951 37.24883
# Shear Modulus (GPa) = 12.40958 20.90071 16.65514
#
# Velocity S-wave (km/s) = 2.54684 3.30524 2.95051
# Velocity P-wave (km/s) = 5.22117 5.90707 5.57468
#
# Compressibility (1/GPa) = 0.02808345
#
# Stress axis : x y z
#
# Youngs Moduli (GPa) = 102.29265 86.37290 54.59575
#
# Poissons Ratio (x) = 0.17564 0.07364
# Poissons Ratio (y) = 0.20801 0.13163
# Poissons Ratio (z) = 0.13798 0.20824
#
# Static dielectric constant tensor:
#      x y z
#    x 3.651430 0.000000 0.000000 
#    y 0.000000 3.465430 0.000000 
#    z 0.000000 0.000000 3.314200 
# 
# 
# High freq. dielectric constant tensor:
#      x y z
#    x 1.742720 0.000000 0.000000 
#    y 0.000000 1.738710 0.000000 
#    z 0.000000 0.000000 1.725100 
# 
# From -- ./inp_files/32509.got.cif
#   From: 2010.03.12/outbox.cif.g09.slc.cpg/sg63_17_cif.got.tgz:32509.got - 2010.04.10 19:34:48.
