data_PCOD8255826
_publ_section_title
;
Structure prediction by ZEFSAII (Michael W. Deem and Ramdas Pophale) SiO2 
 PCOD8255826
Probable space group: C M C M
;
_chemical_formula_sum "Si O2"
_cell_formula_units_Z 104
_cell_length_a 30.452027
_cell_length_b 21.597879
_cell_length_c 8.810618
_cell_angle_alpha 90.000000
_cell_angle_beta 90.000000
_cell_angle_gamma 90.000000
_cell_volume 5794.736361
_symmetry_space_group_name_H-M "C M C M"
_symmetry_group_IT_number 63
_symmetry_cell_setting 'orthorhombic'
loop_
_space_group_symop_operation_xyz
x,y,z
-x,-y,1/2+z
x,-y,-z
-x,y,1/2-z
-x,-y,-z
x,y,1/2-z
-x,y,z
x,-y,1/2+z
1/2+x,1/2+y,z
1/2-x,1/2-y,1/2+z
1/2+x,1/2-y,-z
1/2-x,1/2+y,1/2-z
1/2-x,1/2-y,-z
1/2+x,1/2+y,1/2-z
1/2-x,1/2+y,z
1/2+x,1/2-y,1/2+z
loop_
_atom_site_type_symbol
_atom_site_label
_atom_site_fract_x
_atom_site_fract_y
_atom_site_fract_z
Si Si1 0.151728 0.196798 0.571864
Si Si2 0.066608 0.154710 0.425043
Si Si3 0.000000 0.738718 0.922171
Si Si4 0.159229 0.668827 0.571652
Si Si5 0.000000 0.933647 0.427641
Si Si6 0.746405 0.684952 0.575393
Si Si7 0.000000 0.610107 0.071146
Si Si8 0.409834 0.064606 0.569322
O O1 0.140866 0.195444 0.750000
O O2 0.116346 0.158131 0.478990
O O3 0.150971 0.268078 0.518902
O O4 0.197660 0.160022 0.533318
O O5 0.063715 0.135442 0.250000
O O6 0.043382 0.220864 0.451241
O O7 0.043473 0.102087 0.522000
O O8 0.000000 0.712313 0.750000
O O9 0.000000 0.683254 0.040913
O O10 0.152810 0.682410 0.750000
O O11 0.209701 0.644764 0.536138
O O12 0.125084 0.616755 0.517189
O O13 0.000000 0.940774 0.250000
O O14 0.000000 0.000000 0.500000
O O15 0.746548 0.700258 0.750000
O O16 0.750000 0.750000 0.500000
O O17 0.000000 0.597359 0.250000
O O18 0.042562 0.579505 0.997106
O O19 0.412641 0.060046 0.750000
O O20 0.393106 0.000000 0.500000
#
# Coordination Sequence:
#
# PCOD8255826 Si02
#       8
#    16  16   8  16   8  16   8  16
#     4  10  18  28  48  79 109 134 164 207 253 299
#     4  10  20  34  52  76 107 140 172 205 245 295
#     4   9  19  34  50  71 101 135 167 202 247 295
#     4   9  18  33  52  72  98 134 168 204 255 310
#     4  11  22  38  58  78 102 133 171 210 249 296
#     4   8  15  28  46  71 101 130 160 194 241 297
#     4  12  24  36  52  73  99 128 161 204 252 301
#     4  11  23  38  54  70  92 125 167 210 251 297
#
# _framework density 17.947322
#
# number of rings (size 3 to 8) (size 9 to 14) (size 15 to 20)
#    0.000    2.154    0.000    4.385    0.000    7.385 
#    0.000    0.000    0.000    0.923    0.000    2.154 
#    0.000    0.000    0.000    0.000    0.000    0.000 
#
# Total GULP energy -644412.666033 kJ/mol
# GULP energy per Si atom -12392.551270 kJ/mol
# Density = 1.790647 g / cm^3
# Si number density = 17.947322 Si / 1000 Ang^3
#
#
#
# Elastic Constant Matrix: (Units=GPa)
#
#
# Indices 1 2 3 4 5 6 
#
# 1 155.1509 41.2681 42.0912 0.0000 0.0000 0.0000
# 2 41.2681 72.7579 32.4136 0.0000 0.0000 0.0000
# 3 42.0912 32.4136 82.8271 0.0000 0.0000 0.0000
# 4 0.0000 0.0000 0.0000 27.0314 0.0000 0.0000
# 5 0.0000 0.0000 0.0000 0.0000 25.5397 0.0000
# 6 0.0000 0.0000 0.0000 0.0000 0.0000 6.5596
#
#
#
# Elastic Compliance Matrix: (Units=1/GPa)
#
#
# Indices 1 2 3 4 5 6 
#
# 1 0.008095 -0.003342 -0.002806 0.000000 0.000000 0.000000
# 2 -0.003342 0.018026 -0.005356 0.000000 0.000000 0.000000
# 3 -0.002806 -0.005356 0.015595 0.000000 0.000000 0.000000
# 4 0.000000 0.000000 0.000000 0.036994 0.000000 0.000000
# 5 0.000000 0.000000 0.000000 0.000000 0.039155 0.000000
# 6 0.000000 0.000000 0.000000 0.000000 0.000000 0.152449
#
#
# Mechanical properties :
#
#
# Convention : Reuss Voigt Hill
#
# Bulk Modulus (GPa) = 53.45068 60.25353 56.85211
# Shear Modulus (GPa) = 16.69124 24.82368 20.75746
#
# Velocity S-wave (km/s) = 3.05292 3.72310 3.40454
# Velocity P-wave (km/s) = 6.50182 7.21992 6.87026
#
# Compressibility (1/GPa) = 0.01870884
#
# Stress axis : x y z
#
# Youngs Moduli (GPa) = 123.52596 55.47656 64.12110
#
# Poissons Ratio (x) = 0.18538 0.17994
# Poissons Ratio (y) = 0.41276 0.34344
# Poissons Ratio (z) = 0.34665 0.29714
#
# Static dielectric constant tensor:
#      x y z
#    x 4.064640 0.000000 0.000000 
#    y 0.000000 3.013630 0.000000 
#    z 0.000000 0.000000 3.397360 
# 
# 
# High freq. dielectric constant tensor:
#      x y z
#    x 1.716340 0.000000 0.000000 
#    y 0.000000 1.654470 0.000000 
#    z 0.000000 0.000000 1.704630 
# 
# From -- ./inp_files/14535.got.cif
#   From: 2010.03.12/outbox.cif.g09.slc.cpg/sg63_8_cif.got.tgz:14535.got - 2010.04.10 19:34:48.
