data_PCOD8255413
_publ_section_title
;
Structure prediction by ZEFSAII (Michael W. Deem and Ramdas Pophale) SiO2 
 PCOD8255413
Probable space group: C M C M
;
_chemical_formula_sum "Si O2"
_cell_formula_units_Z 80
_cell_length_a 25.369377
_cell_length_b 10.224133
_cell_length_c 16.946800
_cell_angle_alpha 90.000000
_cell_angle_beta 90.000000
_cell_angle_gamma 90.000000
_cell_volume 4395.659028
_symmetry_space_group_name_H-M "C M C M"
_symmetry_group_IT_number 63
_symmetry_cell_setting 'orthorhombic'
loop_
_space_group_symop_operation_xyz
x,y,z
-x,-y,1/2+z
x,-y,-z
-x,y,1/2-z
-x,-y,-z
x,y,1/2-z
-x,y,z
x,-y,1/2+z
1/2+x,1/2+y,z
1/2-x,1/2-y,1/2+z
1/2+x,1/2-y,-z
1/2-x,1/2+y,1/2-z
1/2-x,1/2-y,-z
1/2+x,1/2+y,1/2-z
1/2-x,1/2+y,z
1/2+x,1/2-y,1/2+z
loop_
_atom_site_type_symbol
_atom_site_label
_atom_site_fract_x
_atom_site_fract_y
_atom_site_fract_z
Si Si1 0.284229 0.494889 0.906973
Si Si2 0.500000 0.127582 0.552162
Si Si3 0.290310 0.215033 0.658367
Si Si4 0.000000 0.124838 0.941646
Si Si5 0.410844 0.776214 0.157762
Si Si6 0.599196 0.494838 0.093192
O O1 0.270644 0.346120 0.884280
O O2 0.242463 0.590744 0.868620
O O3 0.342356 0.536682 0.873336
O O4 0.279928 0.500000 0.000000
O O5 0.500000 0.244187 0.490180
O O6 0.551429 0.128980 0.607831
O O7 0.500000 0.000000 0.500000
O O8 0.282447 0.239527 0.750000
O O9 0.351024 0.184586 0.637960
O O10 0.053778 0.114272 0.888650
O O11 0.000000 0.000000 0.000000
O O12 0.423913 0.790718 0.250000
O O13 0.422114 0.628620 0.130452
O O14 0.607169 0.500000 0.000000
#
# Coordination Sequence:
#
# PCOD8255413 Si02
#       6
#    16   8  16   8  16  16
#     4  10  20  34  55  84 112 143 188 235 273 322
#     4  12  23  36  56  89 110 148 181 228 280 334
#     4  10  21  37  56  80 114 150 186 226 281 335
#     4  10  16  34  61  79 112 136 177 221 279 321
#     4  10  20  36  58  83 110 150 191 225 269 342
#     4   9  16  32  60  85 109 137 186 233 271 323
#
# _framework density 18.199774000000001
#
# number of rings (size 3 to 8) (size 9 to 14) (size 15 to 20)
#    0.000    2.000    4.000    1.500    0.000    1.600 
#    3.600    0.000    0.000    2.400    0.000    0.000 
#    0.000    0.000    0.000    0.000    0.000    0.000 
#
# Total GULP energy -495776.855504 kJ/mol
# GULP energy per Si atom -12394.421388 kJ/mol
# Density = 1.815835 g / cm^3
# Si number density = 18.199774 Si / 1000 Ang^3
#
#
#
# Elastic Constant Matrix: (Units=GPa)
#
#
# Indices 1 2 3 4 5 6 
#
# 1 122.5849 61.8601 44.6348 0.0000 0.0000 0.0000
# 2 61.8601 104.1415 51.7000 0.0000 0.0000 0.0000
# 3 44.6348 51.7000 75.0736 0.0000 0.0000 0.0000
# 4 0.0000 0.0000 0.0000 28.8104 0.0000 0.0000
# 5 0.0000 0.0000 0.0000 0.0000 32.7617 0.0000
# 6 0.0000 0.0000 0.0000 0.0000 0.0000 30.9093
#
#
#
# Elastic Compliance Matrix: (Units=1/GPa)
#
#
# Indices 1 2 3 4 5 6 
#
# 1 0.012208 -0.005543 -0.003441 0.000000 0.000000 0.000000
# 2 -0.005543 0.017108 -0.008486 0.000000 0.000000 0.000000
# 3 -0.003441 -0.008486 0.021209 0.000000 0.000000 0.000000
# 4 0.000000 0.000000 0.000000 0.034710 0.000000 0.000000
# 5 0.000000 0.000000 0.000000 0.000000 0.030523 0.000000
# 6 0.000000 0.000000 0.000000 0.000000 0.000000 0.032353
#
#
# Mechanical properties :
#
#
# Convention : Reuss Voigt Hill
#
# Bulk Modulus (GPa) = 64.16052 68.68774 66.42413
# Shear Modulus (GPa) = 26.56114 28.06995 27.31554
#
# Velocity S-wave (km/s) = 3.82438 3.93150 3.87831
# Velocity P-wave (km/s) = 7.40481 7.64407 7.52539
#
# Compressibility (1/GPa) = 0.01558591
#
# Stress axis : x y z
#
# Youngs Moduli (GPa) = 81.91536 58.45344 47.14873
#
# Poissons Ratio (x) = 0.32403 0.16222
# Poissons Ratio (y) = 0.45409 0.40008
# Poissons Ratio (z) = 0.28184 0.49601
#
# Static dielectric constant tensor:
#      x y z
#    x 4.334550 0.000000 0.000000 
#    y 0.000000 3.873520 0.000000 
#    z 0.000000 0.000000 3.395810 
# 
# 
# High freq. dielectric constant tensor:
#      x y z
#    x 1.728110 0.000000 0.000000 
#    y 0.000000 1.676630 0.000000 
#    z 0.000000 0.000000 1.696740 
# 
# From -- ./inp_files/48844.got.cif
#   From: 2010.03.12/outbox.cif.g09.slc.cpg/sg63_25_cif.got.tgz:48844.got - 2010.04.10 19:34:48.
