data_PCOD8255470
_publ_section_title
;
Structure prediction by ZEFSAII (Michael W. Deem and Ramdas Pophale) SiO2 
 PCOD8255470
Probable space group: C M C M
;
_chemical_formula_sum "Si O2"
_cell_formula_units_Z 96
_cell_length_a 9.028171
_cell_length_b 29.993131
_cell_length_c 21.278090
_cell_angle_alpha 90.000000
_cell_angle_beta 90.000000
_cell_angle_gamma 90.000000
_cell_volume 5761.747502
_symmetry_space_group_name_H-M "C M C M"
_symmetry_group_IT_number 63
_symmetry_cell_setting 'orthorhombic'
loop_
_space_group_symop_operation_xyz
x,y,z
-x,-y,1/2+z
x,-y,-z
-x,y,1/2-z
-x,-y,-z
x,y,1/2-z
-x,y,z
x,-y,1/2+z
1/2+x,1/2+y,z
1/2-x,1/2-y,1/2+z
1/2+x,1/2-y,-z
1/2-x,1/2+y,1/2-z
1/2-x,1/2-y,-z
1/2+x,1/2+y,1/2-z
1/2-x,1/2+y,z
1/2+x,1/2-y,1/2+z
loop_
_atom_site_type_symbol
_atom_site_label
_atom_site_fract_x
_atom_site_fract_y
_atom_site_fract_z
Si Si1 0.826712 0.724953 0.089179
Si Si2 0.328748 0.657452 0.323521
Si Si3 0.832723 0.487540 0.427319
Si Si4 0.326274 0.810661 0.452561
Si Si5 0.328595 0.426868 0.902746
Si Si6 0.173269 0.901476 0.455475
O O1 0.771076 0.696286 0.147763
O O2 0.741929 0.771900 0.090455
O O3 0.000000 0.734308 0.095671
O O4 0.788880 0.698590 0.025374
O O5 0.298564 0.655894 0.250000
O O6 0.500000 0.667207 0.339828
O O7 0.281383 0.609813 0.351779
O O8 0.825541 0.500000 0.500000
O O9 0.763312 0.528362 0.388013
O O10 0.738927 0.442710 0.415717
O O11 0.000000 0.479536 0.404520
O O12 0.500000 0.813319 0.440081
O O13 0.251810 0.856736 0.431719
O O14 0.500000 0.439776 0.898012
O O15 0.290799 0.407435 0.971125
O O16 0.000000 0.898095 0.442066
#
# Coordination Sequence:
#
# PCOD8255470 Si02
#       6
#    16  16  16  16  16  16
#     4  10  20  32  47  68  95 126 161 201 243 288
#     4  10  20  34  51  70  95 129 166 202 240 283
#     4   9  17  27  41  63  92 123 154 188 229 277
#     4  10  19  30  47  69  96 127 159 196 243 295
#     4   9  17  29  44  64  92 125 159 194 232 279
#     4  10  17  27  45  68  95 125 156 191 234 286
#
# _framework density 16.661612000000002
#
# number of rings (size 3 to 8) (size 9 to 14) (size 15 to 20)
#    0.000    2.333    1.667    2.000    0.000    5.000 
#    0.000    0.000    0.000    0.000    0.000    1.167 
#    0.000    6.667    0.000    0.000    0.000    0.000 
#
# Total GULP energy -595327.209864 kJ/mol
# GULP energy per Si atom -12402.650205 kJ/mol
# Density = 1.662369 g / cm^3
# Si number density = 16.661612 Si / 1000 Ang^3
#
#
#
# Elastic Constant Matrix: (Units=GPa)
#
#
# Indices 1 2 3 4 5 6 
#
# 1 98.2924 76.6853 26.7934 0.0000 0.0000 0.0000
# 2 76.6853 157.1712 37.9615 0.0000 0.0000 0.0000
# 3 26.7934 37.9615 47.3703 0.0000 0.0000 0.0000
# 4 0.0000 0.0000 0.0000 17.6974 0.0000 0.0000
# 5 0.0000 0.0000 0.0000 0.0000 16.0183 0.0000
# 6 0.0000 0.0000 0.0000 0.0000 0.0000 38.8631
#
#
#
# Elastic Compliance Matrix: (Units=1/GPa)
#
#
# Indices 1 2 3 4 5 6 
#
# 1 0.016925 -0.007373 -0.003665 0.000000 0.000000 0.000000
# 2 -0.007373 0.011101 -0.004726 0.000000 0.000000 0.000000
# 3 -0.003665 -0.004726 0.026970 0.000000 0.000000 0.000000
# 4 0.000000 0.000000 0.000000 0.056506 0.000000 0.000000
# 5 0.000000 0.000000 0.000000 0.000000 0.062428 0.000000
# 6 0.000000 0.000000 0.000000 0.000000 0.000000 0.025731
#
#
# Mechanical properties :
#
#
# Convention : Reuss Voigt Hill
#
# Bulk Modulus (GPa) = 42.60845 65.07935 53.84390
# Shear Modulus (GPa) = 20.91951 25.27534 23.09742
#
# Velocity S-wave (km/s) = 3.54722 3.89907 3.72730
# Velocity P-wave (km/s) = 6.51194 7.70808 7.13512
#
# Compressibility (1/GPa) = 0.02346953
#
# Stress axis : x y z
#
# Youngs Moduli (GPa) = 59.08592 90.08106 37.07756
#
# Poissons Ratio (x) = 0.66412 0.13587
# Poissons Ratio (y) = 0.43561 0.17523
# Poissons Ratio (z) = 0.21653 0.42574
#
# Static dielectric constant tensor:
#      x y z
#    x 3.193280 0.000000 0.000000 
#    y 0.000000 3.260730 0.000000 
#    z 0.000000 0.000000 2.644610 
# 
# 
# High freq. dielectric constant tensor:
#      x y z
#    x 1.654280 0.000000 0.000000 
#    y 0.000000 1.655610 0.000000 
#    z 0.000000 0.000000 1.578130 
# 
# From -- ./inp_files/51249.got.cif
#   From: 2010.03.12/outbox.cif.g09.slc.cpg/sg63_26_cif.got.tgz:51249.got - 2010.04.10 19:34:48.
