data_PCOD8255213
_publ_section_title
;
Structure prediction by ZEFSAII (Michael W. Deem and Ramdas Pophale) SiO2 
 PCOD8255213
Probable space group: P N M A
;
_chemical_formula_sum "Si O2"
_cell_formula_units_Z 32
_cell_length_a 21.053575
_cell_length_b 12.684940
_cell_length_c 4.842068
_cell_angle_alpha 90.000000
_cell_angle_beta 90.000000
_cell_angle_gamma 90.000000
_cell_volume 1293.138832
_symmetry_space_group_name_H-M "P N M A"
_symmetry_group_IT_number 62
_symmetry_cell_setting 'orthorhombic'
loop_
_space_group_symop_operation_xyz
x,y,z
1/2-x,-y,1/2+z
1/2+x,1/2-y,1/2-z
-x,1/2+y,-z
-x,-y,-z
1/2+x,y,1/2-z
1/2-x,1/2+y,1/2+z
x,1/2-y,z
loop_
_atom_site_type_symbol
_atom_site_label
_atom_site_fract_x
_atom_site_fract_y
_atom_site_fract_z
Si Si1 0.865205 0.571476 0.750357
Si Si2 0.690311 0.750000 0.052711
Si Si3 0.634795 0.571476 0.749644
Si Si4 0.570626 0.250000 0.548325
Si Si5 0.929373 0.250000 0.951675
Si Si6 0.809689 0.750000 0.447289
O O1 0.891683 0.500000 0.500000
O O2 0.807933 0.646328 0.641132
O O3 0.837926 0.500000 0.000000
O O4 0.922043 0.645275 0.861037
O O5 0.623663 0.750000 0.215076
O O6 0.750000 0.750000 0.250000
O O7 0.692067 0.646328 0.858868
O O8 0.577957 0.645275 0.638963
O O9 0.500000 0.250000 0.677390
O O10 0.623663 0.250000 0.784924
#
# Coordination Sequence:
#
# PCOD8255213 Si02
#       6
#     8   4   8   4   4   4
#     4  11  24  50  74 111 147 199 247 308 373 447
#     4  11  26  51  78 112 154 195 249 313 371 442
#     4  11  24  50  74 111 147 199 247 308 373 447
#     4  11  26  48  73 108 153 200 251 313 370 443
#     4  11  26  48  73 108 153 200 251 313 370 443
#     4  11  26  51  78 112 154 195 249 313 371 442
#
# _framework density 24.745989000000002
#
# number of rings (size 3 to 8) (size 9 to 14) (size 15 to 20)
#    0.000    1.000    5.000    0.000    0.000   10.000 
#    9.000    0.000    0.000    0.000    0.000    0.000 
#    0.000    0.000    0.000    0.000    0.000    0.000 
#
# Total GULP energy -396715.605204 kJ/mol
# GULP energy per Si atom -12397.362663 kJ/mol
# Density = 2.468967 g / cm^3
# Si number density = 24.745989 Si / 1000 Ang^3
#
#
#
# Elastic Constant Matrix: (Units=GPa)
#
#
# Indices 1 2 3 4 5 6 
#
# 1 163.1470 51.6890 71.4888 0.0000 0.0000 0.0000
# 2 51.6890 196.3844 94.5108 0.0000 0.0000 0.0000
# 3 71.4888 94.5108 186.4741 0.0000 0.0000 0.0000
# 4 0.0000 0.0000 0.0000 85.8929 0.0000 0.0000
# 5 0.0000 0.0000 0.0000 0.0000 36.8843 0.0000
# 6 0.0000 0.0000 0.0000 0.0000 0.0000 -0.9490
#
#
#
# Elastic Compliance Matrix: (Units=1/GPa)
#
#
# Indices 1 2 3 4 5 6 
#
# 1 0.007455 -0.000776 -0.002465 0.000000 0.000000 0.000000
# 2 -0.000776 0.006816 -0.003157 0.000000 0.000000 0.000000
# 3 -0.002465 -0.003157 0.007908 0.000000 0.000000 0.000000
# 4 0.000000 0.000000 0.000000 0.011642 0.000000 0.000000
# 5 0.000000 0.000000 0.000000 0.000000 0.027112 0.000000
# 6 0.000000 0.000000 0.000000 0.000000 0.000000 -1.053785
#
#
# Mechanical properties :
#
#
# Convention : Reuss Voigt Hill
#
# Bulk Modulus (GPa) = 106.57475 109.04252 107.80864
# Shear Modulus (GPa) = -5.11808 46.25343 20.56768
#
# Velocity S-wave (km/s) = -1.43970 4.32803 2.88610
# Velocity P-wave (km/s) = 6.35589 8.31482 7.40046
#
# Compressibility (1/GPa) = 0.00938309
#
# Stress axis : x y z
#
# Youngs Moduli (GPa) = 134.13130 146.72343 126.46066
#
# Poissons Ratio (x) = 0.11387 0.31171
# Poissons Ratio (y) = 0.10409 0.39921
# Poissons Ratio (z) = 0.33061 0.46318
#
# Static dielectric constant tensor:
#      x y z
#    x 3.708450 0.000000 0.000000 
#    y 0.000000 5.202280 0.000000 
#    z 0.000000 0.000000 4.928730 
# 
# 
# High freq. dielectric constant tensor:
#      x y z
#    x 1.930390 0.000000 0.000000 
#    y 0.000000 2.013730 0.000000 
#    z 0.000000 0.000000 2.010240 
# 
# From -- ./inp_files/2027.got.cif
#   From: 2010.03.12/outbox.cif.g09.slc.cpg/sg62_2_cif.got.tgz:2027.got - 2010.04.10 19:12:36.
