data_PCOD8255469
_publ_section_title
;
Structure prediction by ZEFSAII (Michael W. Deem and Ramdas Pophale) SiO2 
 PCOD8255469
Probable space group: C M C M
;
_chemical_formula_sum "Si O2"
_cell_formula_units_Z 112
_cell_length_a 19.856828
_cell_length_b 16.045863
_cell_length_c 19.739749
_cell_angle_alpha 90.000000
_cell_angle_beta 90.000000
_cell_angle_gamma 90.000000
_cell_volume 6289.477676
_symmetry_space_group_name_H-M "C M C M"
_symmetry_group_IT_number 63
_symmetry_cell_setting 'orthorhombic'
loop_
_space_group_symop_operation_xyz
x,y,z
-x,-y,1/2+z
x,-y,-z
-x,y,1/2-z
-x,-y,-z
x,y,1/2-z
-x,y,z
x,-y,1/2+z
1/2+x,1/2+y,z
1/2-x,1/2-y,1/2+z
1/2+x,1/2-y,-z
1/2-x,1/2+y,1/2-z
1/2-x,1/2-y,-z
1/2+x,1/2+y,1/2-z
1/2-x,1/2+y,z
1/2+x,1/2-y,1/2+z
loop_
_atom_site_type_symbol
_atom_site_label
_atom_site_fract_x
_atom_site_fract_y
_atom_site_fract_z
Si Si1 0.149567 0.492900 0.673728
Si Si2 0.657955 0.762151 0.943132
Si Si3 0.164759 0.851965 0.325065
Si Si4 0.692354 0.684957 0.421761
Si Si5 0.420669 0.074952 0.451934
Si Si6 0.194024 0.035153 0.328079
Si Si7 0.176605 0.675821 0.675681
O O1 0.131411 0.465849 0.750000
O O2 0.100623 0.441987 0.625093
O O3 0.227034 0.474780 0.658149
O O4 0.135865 0.590931 0.662668
O O5 0.628938 0.709916 0.878873
O O6 0.726989 0.806831 0.920906
O O7 0.608889 0.834321 0.970898
O O8 0.667753 0.691731 0.000962
O O9 0.137073 0.830023 0.250000
O O10 0.244332 0.840808 0.327819
O O11 0.152514 0.949846 0.341076
O O12 0.668433 0.600903 0.384198
O O13 0.655682 0.759094 0.381239
O O14 0.500000 0.080598 0.458731
O O15 0.392627 0.000000 0.500000
O O16 0.182729 0.065009 0.250000
O O17 0.158418 0.711372 0.750000
#
# Coordination Sequence:
#
# PCOD8255469 Si02
#       7
#    16  16  16  16  16  16  16
#     4   9  17  31  48  67  94 129 166 201 240 286
#     4  10  20  31  44  69  93 126 162 203 247 285
#     4   8  16  29  44  65  95 125 153 189 241 295
#     4  10  17  27  44  72  98 123 158 195 238 302
#     4  11  23  37  50  66  94 134 175 212 245 281
#     4   9  16  28  47  73 102 130 151 185 245 304
#     4   8  14  25  42  63  91 124 152 185 234 289
#
# _framework density 17.807518999999999
#
# number of rings (size 3 to 8) (size 9 to 14) (size 15 to 20)
#    0.000    2.714    1.429    3.000    0.000    3.143 
#    0.000    0.000    0.000    0.000    0.000    2.000 
#    0.000    1.143    0.000    0.286    0.000    0.000 
#
# Total GULP energy -693985.756398 kJ/mol
# GULP energy per Si atom -12392.602793 kJ/mol
# Density = 1.776699 g / cm^3
# Si number density = 17.807519 Si / 1000 Ang^3
#
#
#
# Elastic Constant Matrix: (Units=GPa)
#
#
# Indices 1 2 3 4 5 6 
#
# 1 23.7212 16.0195 11.2223 0.0000 0.0000 0.0000
# 2 16.0195 106.1616 59.3753 0.0000 0.0000 0.0000
# 3 11.2223 59.3753 101.5932 0.0000 0.0000 0.0000
# 4 0.0000 0.0000 0.0000 40.9520 0.0000 0.0000
# 5 0.0000 0.0000 0.0000 0.0000 11.3402 0.0000
# 6 0.0000 0.0000 0.0000 0.0000 0.0000 15.3708
#
#
#
# Elastic Compliance Matrix: (Units=1/GPa)
#
#
# Indices 1 2 3 4 5 6 
#
# 1 0.047105 -0.006236 -0.001559 0.000000 0.000000 0.000000
# 2 -0.006236 0.014819 -0.007972 0.000000 0.000000 0.000000
# 3 -0.001559 -0.007972 0.014675 0.000000 0.000000 0.000000
# 4 0.000000 0.000000 0.000000 0.024419 0.000000 0.000000
# 5 0.000000 0.000000 0.000000 0.000000 0.088182 0.000000
# 6 0.000000 0.000000 0.000000 0.000000 0.000000 0.065059
#
#
# Mechanical properties :
#
#
# Convention : Reuss Voigt Hill
#
# Bulk Modulus (GPa) = 22.19018 44.96781 33.57900
# Shear Modulus (GPa) = 16.62152 23.18985 19.90568
#
# Velocity S-wave (km/s) = 3.05847 3.61259 3.34702
# Velocity P-wave (km/s) = 4.99605 6.53514 5.81672
#
# Compressibility (1/GPa) = 0.04506497
#
# Stress axis : x y z
#
# Youngs Moduli (GPa) = 21.22907 67.47896 68.14482
#
# Poissons Ratio (x) = 0.42082 0.10621
# Poissons Ratio (y) = 0.13239 0.54326
# Poissons Ratio (z) = 0.03309 0.53796
#
# Static dielectric constant tensor:
#      x y z
#    x 2.592000 0.000000 0.000000 
#    y 0.000000 3.512610 0.000000 
#    z 0.000000 0.000000 3.532540 
# 
# 
# High freq. dielectric constant tensor:
#      x y z
#    x 1.603140 0.000000 0.000000 
#    y 0.000000 1.695400 0.000000 
#    z 0.000000 0.000000 1.704560 
# 
# From -- ./inp_files/47319.got.cif
#   From: 2010.03.12/outbox.cif.g09.slc.cpg/sg63_24_cif.got.tgz:47319.got - 2010.04.10 19:34:48.
