data_PCOD8255936
_publ_section_title
;
Structure prediction by ZEFSAII (Michael W. Deem and Ramdas Pophale) SiO2 
 PCOD8255936
Probable space group: C M C M
;
_chemical_formula_sum "Si O2"
_cell_formula_units_Z 72
_cell_length_a 14.150077
_cell_length_b 18.368884
_cell_length_c 16.206053
_cell_angle_alpha 90.000000
_cell_angle_beta 90.000000
_cell_angle_gamma 90.000000
_cell_volume 4212.295495
_symmetry_space_group_name_H-M "C M C M"
_symmetry_group_IT_number 63
_symmetry_cell_setting 'orthorhombic'
loop_
_space_group_symop_operation_xyz
x,y,z
-x,-y,1/2+z
x,-y,-z
-x,y,1/2-z
-x,-y,-z
x,y,1/2-z
-x,y,z
x,-y,1/2+z
1/2+x,1/2+y,z
1/2-x,1/2-y,1/2+z
1/2+x,1/2-y,-z
1/2-x,1/2+y,1/2-z
1/2-x,1/2-y,-z
1/2+x,1/2+y,1/2-z
1/2-x,1/2+y,z
1/2+x,1/2-y,1/2+z
loop_
_atom_site_type_symbol
_atom_site_label
_atom_site_fract_x
_atom_site_fract_y
_atom_site_fract_z
Si Si1 0.000000 0.350038 0.345281
Si Si2 0.000000 0.788519 0.536436
Si Si3 0.297368 0.913458 0.154980
Si Si4 0.812650 0.038643 0.416316
Si Si5 0.801662 0.176045 0.983128
Si Si6 0.500000 0.420519 0.842469
O O1 0.908193 0.399978 0.360962
O O2 0.000000 0.320407 0.250000
O O3 0.000000 0.287600 0.414453
O O4 0.088846 0.801341 0.476804
O O5 0.000000 0.848131 0.606132
O O6 0.271171 0.900970 0.250000
O O7 0.232896 0.857923 0.102916
O O8 0.273866 0.996559 0.128000
O O9 0.781971 0.121071 0.439751
O O10 0.905169 0.033406 0.359079
O O11 0.843890 0.000000 0.500000
O O12 0.750000 0.250000 0.000000
O O13 0.500000 0.393888 0.750000
#
# Coordination Sequence:
#
# PCOD8255936 Si02
#       6
#     8   8  16  16  16   8
#     4  10  19  32  53  78 106 139 182 227 264 306
#     4  10  19  33  53  78 107 134 178 226 262 315
#     4  10  20  35  53  78 108 141 178 221 269 318
#     4   9  19  33  50  74 106 138 172 214 262 319
#     4  10  19  35  55  78 107 140 179 219 266 319
#     4  10  18  29  50  77 102 132 169 216 270 314
#
# _framework density 17.092818000000001
#
# number of rings (size 3 to 8) (size 9 to 14) (size 15 to 20)
#    0.000    2.222    2.222    1.333    0.000    2.667 
#    0.000    8.889    0.000    0.000    0.000    0.000 
#    0.000    0.000    0.000    0.000    0.000    0.000 
#
# Total GULP energy -446226.564641 kJ/mol
# GULP energy per Si atom -12395.182351 kJ/mol
# Density = 1.705391 g / cm^3
# Si number density = 17.092818 Si / 1000 Ang^3
#
#
#
# Elastic Constant Matrix: (Units=GPa)
#
#
# Indices 1 2 3 4 5 6 
#
# 1 149.3282 66.6969 64.3563 0.0000 0.0000 0.0000
# 2 66.6969 110.5245 31.5762 0.0000 0.0000 0.0000
# 3 64.3563 31.5762 87.8900 0.0000 0.0000 0.0000
# 4 0.0000 0.0000 0.0000 9.5644 0.0000 0.0000
# 5 0.0000 0.0000 0.0000 0.0000 28.1880 0.0000
# 6 0.0000 0.0000 0.0000 0.0000 0.0000 31.7136
#
#
#
# Elastic Compliance Matrix: (Units=1/GPa)
#
#
# Indices 1 2 3 4 5 6 
#
# 1 0.012040 -0.005290 -0.006915 0.000000 0.000000 0.000000
# 2 -0.005290 0.012407 -0.000584 0.000000 0.000000 0.000000
# 3 -0.006915 -0.000584 0.016651 0.000000 0.000000 0.000000
# 4 0.000000 0.000000 0.000000 0.104554 0.000000 0.000000
# 5 0.000000 0.000000 0.000000 0.000000 0.035476 0.000000
# 6 0.000000 0.000000 0.000000 0.000000 0.000000 0.031532
#
#
# Mechanical properties :
#
#
# Convention : Reuss Voigt Hill
#
# Bulk Modulus (GPa) = 64.43536 74.77792 69.60664
# Shear Modulus (GPa) = 20.54130 26.23409 23.38769
#
# Velocity S-wave (km/s) = 3.47039 3.92190 3.70303
# Velocity P-wave (km/s) = 7.33739 8.02194 7.68729
#
# Compressibility (1/GPa) = 0.01551943
#
# Stress axis : x y z
#
# Youngs Moduli (GPa) = 83.05883 80.60133 60.05493
#
# Poissons Ratio (x) = 0.42636 0.41531
# Poissons Ratio (y) = 0.43936 0.03507
# Poissons Ratio (z) = 0.57439 0.04707
#
# Static dielectric constant tensor:
#      x y z
#    x -0.124540 0.000000 0.000000 
#    y 0.000000 3.450700 0.000000 
#    z 0.000000 0.000000 3.079560 
# 
# 
# High freq. dielectric constant tensor:
#      x y z
#    x 1.663990 0.000000 0.000000 
#    y 0.000000 1.659570 0.000000 
#    z 0.000000 0.000000 1.651910 
# 
# From -- ./inp_files/31487.got.cif
#   From: 2010.03.12/outbox.cif.g09.slc.cpg/sg63_16_cif.got.tgz:31487.got - 2010.04.10 19:34:48.
