data_PCOD8255392
_publ_section_title
;
Structure prediction by ZEFSAII (Michael W. Deem and Ramdas Pophale) SiO2 
 PCOD8255392
Probable space group: C M C M
;
_chemical_formula_sum "Si O2"
_cell_formula_units_Z 60
_cell_length_a 10.986582
_cell_length_b 17.882103
_cell_length_c 15.786088
_cell_angle_alpha 90.000000
_cell_angle_beta 90.000000
_cell_angle_gamma 90.000000
_cell_volume 3101.385221
_symmetry_space_group_name_H-M "C M C M"
_symmetry_group_IT_number 63
_symmetry_cell_setting 'orthorhombic'
loop_
_space_group_symop_operation_xyz
x,y,z
-x,-y,1/2+z
x,-y,-z
-x,y,1/2-z
-x,-y,-z
x,y,1/2-z
-x,y,z
x,-y,1/2+z
1/2+x,1/2+y,z
1/2-x,1/2-y,1/2+z
1/2+x,1/2-y,-z
1/2-x,1/2+y,1/2-z
1/2-x,1/2-y,-z
1/2+x,1/2+y,1/2-z
1/2-x,1/2+y,z
1/2+x,1/2-y,1/2+z
loop_
_atom_site_type_symbol
_atom_site_label
_atom_site_fract_x
_atom_site_fract_y
_atom_site_fract_z
Si Si1 0.357709 0.174756 0.750000
Si Si2 0.757116 0.835577 0.750000
Si Si3 0.500000 0.439216 0.570739
Si Si4 0.360075 0.071218 0.593722
Si Si5 0.000000 0.070258 0.250000
Si Si6 0.234758 0.591274 0.082247
O O1 0.500000 0.196462 0.750000
O O2 0.272286 0.246893 0.750000
O O3 0.322476 0.127954 0.667039
O O4 0.885597 0.875533 0.750000
O O5 0.686986 0.861398 0.836385
O O6 0.500000 0.500000 0.500000
O O7 0.500000 0.478888 0.664395
O O8 0.622581 0.389578 0.563668
O O9 0.500000 0.046557 0.602703
O O10 0.340625 0.111380 0.502427
O O11 0.277605 0.997316 0.601779
#
# Coordination Sequence:
#
# PCOD8255392 Si02
#       6
#     8   8   8  16   4  16
#     4  10  21  36  53  76 109 145 180 210 259 321
#     4  10  19  33  53  74 106 141 175 216 255 319
#     4  10  16  30  50  82 104 128 167 221 266 306
#     4  10  20  35  55  82 107 139 176 222 262 315
#     4   8  18  28  48  72 102 134 168 212 254 310
#     4  10  19  33  55  84 103 134 179 221 272 303
#
# _framework density 19.346195000000002
#
# number of rings (size 3 to 8) (size 9 to 14) (size 15 to 20)
#    0.000    2.133    3.333    2.400    0.000    1.067 
#    0.000    2.000    0.000    0.000   17.333    0.000 
#    0.000    0.000    0.000    0.000    0.000    0.000 
#
# Total GULP energy -371769.648164 kJ/mol
# GULP energy per Si atom -12392.321605 kJ/mol
# Density = 1.930216 g / cm^3
# Si number density = 19.346195 Si / 1000 Ang^3
#
#
#
# Elastic Constant Matrix: (Units=GPa)
#
#
# Indices 1 2 3 4 5 6 
#
# 1 53.6940 15.7130 8.6112 0.0000 0.0000 0.0000
# 2 15.7130 89.6161 75.8090 0.0000 0.0000 0.0000
# 3 8.6112 75.8090 190.9091 0.0000 0.0000 0.0000
# 4 0.0000 0.0000 0.0000 19.3486 0.0000 0.0000
# 5 0.0000 0.0000 0.0000 0.0000 29.3893 0.0000
# 6 0.0000 0.0000 0.0000 0.0000 0.0000 12.8083
#
#
#
# Elastic Compliance Matrix: (Units=1/GPa)
#
#
# Indices 1 2 3 4 5 6 
#
# 1 0.019698 -0.004069 0.000727 0.000000 0.000000 0.000000
# 2 -0.004069 0.017644 -0.006823 0.000000 0.000000 0.000000
# 3 0.000727 -0.006823 0.007915 0.000000 0.000000 0.000000
# 4 0.000000 0.000000 0.000000 0.051683 0.000000 0.000000
# 5 0.000000 0.000000 0.000000 0.000000 0.034026 0.000000
# 6 0.000000 0.000000 0.000000 0.000000 0.000000 0.078074
#
#
# Mechanical properties :
#
#
# Convention : Reuss Voigt Hill
#
# Bulk Modulus (GPa) = 40.11629 59.38727 49.75178
# Shear Modulus (GPa) = 21.03689 27.91500 24.47594
#
# Velocity S-wave (km/s) = 3.30114 3.80270 3.56076
# Velocity P-wave (km/s) = 5.94231 7.07421 6.53282
#
# Compressibility (1/GPa) = 0.02492753
#
# Stress axis : x y z
#
# Youngs Moduli (GPa) = 50.76607 56.67759 126.34992
#
# Poissons Ratio (x) = 0.23062 -0.09189
# Poissons Ratio (y) = 0.20657 0.86204
# Poissons Ratio (z) = -0.03692 0.38669
#
# Static dielectric constant tensor:
#      x y z
#    x 2.390870 0.000000 0.000000 
#    y 0.000000 3.056630 0.000000 
#    z 0.000000 0.000000 4.172540 
# 
# 
# High freq. dielectric constant tensor:
#      x y z
#    x 1.740010 0.000000 0.000000 
#    y 0.000000 1.699560 0.000000 
#    z 0.000000 0.000000 1.783900 
# 
# From -- ./inp_files/41457.got.cif
#   From: 2010.03.12/outbox.cif.g09.slc.cpg/sg63_21_cif.got.tgz:41457.got - 2010.04.10 19:34:48.
