data_PCOD8255845
_publ_section_title
;
Structure prediction by ZEFSAII (Michael W. Deem and Ramdas Pophale) SiO2 
 PCOD8255845
Probable space group: C M C M
;
_chemical_formula_sum "Si O2"
_cell_formula_units_Z 96
_cell_length_a 8.791672
_cell_length_b 23.734729
_cell_length_c 25.812803
_cell_angle_alpha 90.000000
_cell_angle_beta 90.000000
_cell_angle_gamma 90.000000
_cell_volume 5386.304747
_symmetry_space_group_name_H-M "C M C M"
_symmetry_group_IT_number 63
_symmetry_cell_setting 'orthorhombic'
loop_
_space_group_symop_operation_xyz
x,y,z
-x,-y,1/2+z
x,-y,-z
-x,y,1/2-z
-x,-y,-z
x,y,1/2-z
-x,y,z
x,-y,1/2+z
1/2+x,1/2+y,z
1/2-x,1/2-y,1/2+z
1/2+x,1/2-y,-z
1/2-x,1/2+y,1/2-z
1/2-x,1/2-y,-z
1/2+x,1/2+y,1/2-z
1/2-x,1/2+y,z
1/2+x,1/2-y,1/2+z
loop_
_atom_site_type_symbol
_atom_site_label
_atom_site_fract_x
_atom_site_fract_y
_atom_site_fract_z
Si Si1 0.819082 0.362199 0.151350
Si Si2 0.181474 0.442712 0.750000
Si Si3 0.819469 0.248580 0.809405
Si Si4 0.818817 0.369706 0.654699
Si Si5 0.319226 0.936524 0.057431
Si Si6 0.680721 0.931212 0.250000
Si Si7 0.180984 0.437067 0.557595
O O1 0.750113 0.300168 0.155176
O O2 0.756143 0.391890 0.099169
O O3 0.759111 0.398903 0.199518
O O4 0.000000 0.357744 0.151361
O O5 0.243243 0.410737 0.800560
O O6 0.247886 0.505821 0.750000
O O7 0.000000 0.443555 0.750000
O O8 0.761768 0.243927 0.750000
O O9 0.759443 0.306781 0.834400
O O10 0.000000 0.245273 0.811073
O O11 0.754850 0.392826 0.599795
O O12 0.000000 0.370056 0.655156
O O13 0.500000 0.936739 0.059748
O O14 0.260693 0.999674 0.070533
O O15 0.263193 0.918873 0.999832
O O16 0.500000 0.933549 0.250000
O O17 0.000000 0.437273 0.559278
#
# Coordination Sequence:
#
# PCOD8255845 Si02
#       7
#    16   8  16  16  16   8  16
#     4  10  18  29  44  65  90 116 146 177 213 261
#     4   9  14  21  36  61  87 107 132 179 228 258
#     4  10  19  31  44  61  86 118 151 181 214 256
#     4   9  15  24  39  59  84 112 145 180 217 256
#     4   8  14  24  40  64  92 115 138 173 222 271
#     4   9  16  23  37  63  89 107 132 175 222 258
#     4   8  13  23  40  63  90 116 138 174 227 267
#
# _framework density 17.822979
#
# number of rings (size 3 to 8) (size 9 to 14) (size 15 to 20)
#    0.000    3.000    1.667    2.000    0.000    4.000 
#    0.000    0.833    0.000    0.000    0.000    8.167 
#    0.000    0.000    0.000    0.000    0.000    0.000 
#
# Total GULP energy -594948.025910 kJ/mol
# GULP energy per Si atom -12394.750540 kJ/mol
# Density = 1.778241 g / cm^3
# Si number density = 17.822979 Si / 1000 Ang^3
#
#
#
# Elastic Constant Matrix: (Units=GPa)
#
#
# Indices 1 2 3 4 5 6 
#
# 1 5.1942 10.5310 9.3238 0.0000 0.0000 0.0000
# 2 10.5310 161.6329 93.3768 0.0000 0.0000 0.0000
# 3 9.3238 93.3768 161.2807 0.0000 0.0000 0.0000
# 4 0.0000 0.0000 0.0000 34.8417 0.0000 0.0000
# 5 0.0000 0.0000 0.0000 0.0000 7.3698 0.0000
# 6 0.0000 0.0000 0.0000 0.0000 0.0000 19.2848
#
#
#
# Elastic Compliance Matrix: (Units=1/GPa)
#
#
# Indices 1 2 3 4 5 6 
#
# 1 0.226743 -0.010819 -0.006844 0.000000 0.000000 0.000000
# 2 -0.010819 0.009812 -0.005056 0.000000 0.000000 0.000000
# 3 -0.006844 -0.005056 0.009523 0.000000 0.000000 0.000000
# 4 0.000000 0.000000 0.000000 0.028701 0.000000 0.000000
# 5 0.000000 0.000000 0.000000 0.000000 0.135689 0.000000
# 6 0.000000 0.000000 0.000000 0.000000 0.000000 0.051854
#
#
# Mechanical properties :
#
#
# Convention : Reuss Voigt Hill
#
# Bulk Modulus (GPa) = 4.98405 61.61899 33.30152
# Shear Modulus (GPa) = 8.70109 26.62435 17.66272
#
# Velocity S-wave (km/s) = 2.21191 3.86919 3.15144
# Velocity P-wave (km/s) = 3.05383 7.38977 5.65396
#
# Compressibility (1/GPa) = 0.20064012
#
# Stress axis : x y z
#
# Youngs Moduli (GPa) = 4.41029 101.91109 105.00756
#
# Poissons Ratio (x) = 1.10260 0.71869
# Poissons Ratio (y) = 0.04772 0.53088
# Poissons Ratio (z) = 0.03018 0.51523
#
# Static dielectric constant tensor:
#      x y z
#    x 2.562410 0.000000 0.000000 
#    y 0.000000 3.478900 0.000000 
#    z 0.000000 0.000000 3.659170 
# 
# 
# High freq. dielectric constant tensor:
#      x y z
#    x 1.613230 0.000000 0.000000 
#    y 0.000000 1.694640 0.000000 
#    z 0.000000 0.000000 1.697940 
# 
# From -- ./inp_files/67286.got.cif
#   From: 2010.03.12/outbox.cif.g09.slc.cpg/sg63_34_cif.got.tgz:67286.got - 2010.04.10 19:34:48.
