data_PCOD8255338
_publ_section_title
;
Structure prediction by ZEFSAII (Michael W. Deem and Ramdas Pophale) SiO2 
 PCOD8255338
Probable space group: C M C M
;
_chemical_formula_sum "Si O2"
_cell_formula_units_Z 88
_cell_length_a 19.030624
_cell_length_b 14.342288
_cell_length_c 19.065981
_cell_angle_alpha 90.000000
_cell_angle_beta 90.000000
_cell_angle_gamma 90.000000
_cell_volume 5203.920146
_symmetry_space_group_name_H-M "C M C M"
_symmetry_group_IT_number 63
_symmetry_cell_setting 'orthorhombic'
loop_
_space_group_symop_operation_xyz
x,y,z
-x,-y,1/2+z
x,-y,-z
-x,y,1/2-z
-x,-y,-z
x,y,1/2-z
-x,y,z
x,-y,1/2+z
1/2+x,1/2+y,z
1/2-x,1/2-y,1/2+z
1/2+x,1/2-y,-z
1/2-x,1/2+y,1/2-z
1/2-x,1/2-y,-z
1/2+x,1/2+y,1/2-z
1/2-x,1/2+y,z
1/2+x,1/2-y,1/2+z
loop_
_atom_site_type_symbol
_atom_site_label
_atom_site_fract_x
_atom_site_fract_y
_atom_site_fract_z
Si Si1 0.423222 0.468146 0.644674
Si Si2 0.580060 0.747355 0.169576
Si Si3 0.257625 0.624549 0.448913
Si Si4 0.377762 0.500000 0.500000
Si Si5 0.201519 0.672210 0.588456
Si Si6 0.771094 0.983268 0.327485
O O1 0.500000 0.487946 0.680687
O O2 0.409608 0.357623 0.642367
O O3 0.427466 0.511706 0.566952
O O4 0.356057 0.513879 0.682037
O O5 0.606214 0.752913 0.250000
O O6 0.500000 0.779724 0.163397
O O7 0.623689 0.817580 0.120398
O O8 0.329082 0.590855 0.487135
O O9 0.198956 0.622702 0.511374
O O10 0.262669 0.727411 0.418370
O O11 0.240058 0.557881 0.383093
O O12 0.249408 0.617392 0.644145
O O13 0.738707 0.000762 0.250000
#
# Coordination Sequence:
#
# PCOD8255338 Si02
#       6
#    16  16  16   8  16  16
#     4  10  19  31  49  74 110 142 172 213 264 322
#     4  10  20  33  51  78 110 141 175 223 276 317
#     4  10  20  33  52  74 109 136 178 222 259 308
#     4  10  15  34  46  74 103 142 172 208 255 310
#     4  11  19  34  55  74 106 144 176 219 267 313
#     4  11  21  33  52  79 107 141 182 217 267 320
#
# _framework density 16.910328
#
# number of rings (size 3 to 8) (size 9 to 14) (size 15 to 20)
#    0.000    1.636    7.273    1.364    0.000    1.818 
#    0.000    0.000    0.000    2.182    0.000    0.000 
#    0.000    0.000    0.000    0.000    0.000    0.000 
#
# Total GULP energy -545077.636446 kJ/mol
# GULP energy per Si atom -12388.128101 kJ/mol
# Density = 1.687184 g / cm^3
# Si number density = 16.910328 Si / 1000 Ang^3
#
#
#
# Elastic Constant Matrix: (Units=GPa)
#
#
# Indices 1 2 3 4 5 6 
#
# 1 76.5089 42.1821 41.6072 0.0000 0.0000 0.0000
# 2 42.1821 78.0981 47.1009 0.0000 0.0000 0.0000
# 3 41.6072 47.1009 152.1244 0.0000 0.0000 0.0000
# 4 0.0000 0.0000 0.0000 3.8263 0.0000 0.0000
# 5 0.0000 0.0000 0.0000 0.0000 21.7413 0.0000
# 6 0.0000 0.0000 0.0000 0.0000 0.0000 26.4352
#
#
#
# Elastic Compliance Matrix: (Units=1/GPa)
#
#
# Indices 1 2 3 4 5 6 
#
# 1 0.019375 -0.008938 -0.002532 0.000000 0.000000 0.000000
# 2 -0.008938 0.019867 -0.003707 0.000000 0.000000 0.000000
# 3 -0.002532 -0.003707 0.008414 0.000000 0.000000 0.000000
# 4 0.000000 0.000000 0.000000 0.261351 0.000000 0.000000
# 5 0.000000 0.000000 0.000000 0.000000 0.045995 0.000000
# 6 0.000000 0.000000 0.000000 0.000000 0.000000 0.037828
#
#
# Mechanical properties :
#
#
# Convention : Reuss Voigt Hill
#
# Bulk Modulus (GPa) = 57.79274 63.16800 60.48037
# Shear Modulus (GPa) = 11.65632 22.12331 16.88982
#
# Velocity S-wave (km/s) = 2.62830 3.62093 3.16379
# Velocity P-wave (km/s) = 6.59248 7.41062 7.01349
#
# Compressibility (1/GPa) = 0.01730321
#
# Stress axis : x y z
#
# Youngs Moduli (GPa) = 51.61293 50.33357 118.85276
#
# Poissons Ratio (x) = 0.44987 0.30092
# Poissons Ratio (y) = 0.46131 0.44057
# Poissons Ratio (z) = 0.13068 0.18658
#
# Static dielectric constant tensor:
#      x y z
#    x 3.068860 0.000000 0.000000 
#    y 0.000000 3.065960 0.000000 
#    z 0.000000 0.000000 3.561150 
# 
# 
# High freq. dielectric constant tensor:
#      x y z
#    x 1.624180 0.000000 0.000000 
#    y 0.000000 1.631010 0.000000 
#    z 0.000000 0.000000 1.674080 
# 
# From -- ./inp_files/55563.got.cif
#   From: 2010.03.12/outbox.cif.g09.slc.cpg/sg63_28_cif.got.tgz:55563.got - 2010.04.10 19:34:48.
