data_PCOD8255895
_publ_section_title
;
Structure prediction by ZEFSAII (Michael W. Deem and Ramdas Pophale) SiO2 
 PCOD8255895
Probable space group: C M C M
;
_chemical_formula_sum "Si O2"
_cell_formula_units_Z 96
_cell_length_a 9.203060
_cell_length_b 30.450487
_cell_length_c 19.333499
_cell_angle_alpha 90.000000
_cell_angle_beta 90.000000
_cell_angle_gamma 90.000000
_cell_volume 5417.974498
_symmetry_space_group_name_H-M "C M C M"
_symmetry_group_IT_number 63
_symmetry_cell_setting 'orthorhombic'
loop_
_space_group_symop_operation_xyz
x,y,z
-x,-y,1/2+z
x,-y,-z
-x,y,1/2-z
-x,-y,-z
x,y,1/2-z
-x,y,z
x,-y,1/2+z
1/2+x,1/2+y,z
1/2-x,1/2-y,1/2+z
1/2+x,1/2-y,-z
1/2-x,1/2+y,1/2-z
1/2-x,1/2-y,-z
1/2+x,1/2+y,1/2-z
1/2-x,1/2+y,z
1/2+x,1/2-y,1/2+z
loop_
_atom_site_type_symbol
_atom_site_label
_atom_site_fract_x
_atom_site_fract_y
_atom_site_fract_z
Si Si1 0.168123 0.807606 0.329743
Si Si2 0.172331 0.633614 0.437173
Si Si3 0.172978 0.616158 0.591155
Si Si4 0.326961 0.064728 0.172381
Si Si5 0.327484 0.967191 0.172873
Si Si6 0.830843 0.267849 0.933614
O O1 0.208847 0.801138 0.250000
O O2 0.265249 0.845813 0.360891
O O3 0.204804 0.761766 0.367273
O O4 0.000000 0.820229 0.339789
O O5 0.231823 0.621490 0.513253
O O6 0.240069 0.599941 0.381180
O O7 0.222032 0.682720 0.417125
O O8 0.000000 0.629341 0.436632
O O9 0.230659 0.569284 0.619444
O O10 0.000000 0.619452 0.594233
O O11 0.272194 0.075728 0.250000
O O12 0.500000 0.066671 0.170826
O O13 0.274007 0.015815 0.150470
O O14 0.269496 0.956205 0.250000
O O15 0.500000 0.966553 0.173710
O O16 0.000000 0.267775 0.952147
O O17 0.750000 0.250000 0.000000
#
# Coordination Sequence:
#
# PCOD8255895 Si02
#       6
#    16  16  16  16  16  16
#     4  10  21  34  48  69  96 126 159 194 232 276
#     4   9  17  27  43  67  91 120 158 193 231 280
#     4  10  18  29  47  71  98 124 154 193 234 279
#     4   8  14  25  40  62  95 127 153 189 238 284
#     4   8  14  24  39  62  93 126 154 185 232 281
#     4  10  19  33  50  68  94 124 157 194 234 279
#
# _framework density 17.718799000000001
#
# number of rings (size 3 to 8) (size 9 to 14) (size 15 to 20)
#    0.000    2.833    1.667    1.500    0.000    2.333 
#    0.000    6.667    0.000    0.000    0.000    3.500 
#    0.000    3.333    0.000    0.000    0.000    0.000 
#
# Total GULP energy -595008.451495 kJ/mol
# GULP energy per Si atom -12396.009406 kJ/mol
# Density = 1.767847 g / cm^3
# Si number density = 17.718799 Si / 1000 Ang^3
#
#
#
# Elastic Constant Matrix: (Units=GPa)
#
#
# Indices 1 2 3 4 5 6 
#
# 1 14.0781 23.6776 22.9053 0.0000 0.0000 0.0000
# 2 23.6776 181.4846 103.4216 0.0000 0.0000 0.0000
# 3 22.9053 103.4216 150.9271 0.0000 0.0000 0.0000
# 4 0.0000 0.0000 0.0000 42.5295 0.0000 0.0000
# 5 0.0000 0.0000 0.0000 0.0000 15.0699 0.0000
# 6 0.0000 0.0000 0.0000 0.0000 0.0000 17.4331
#
#
#
# Elastic Compliance Matrix: (Units=1/GPa)
#
#
# Indices 1 2 3 4 5 6 
#
# 1 0.099742 -0.007197 -0.010205 0.000000 0.000000 0.000000
# 2 -0.007197 0.009560 -0.005458 0.000000 0.000000 0.000000
# 3 -0.010205 -0.005458 0.011915 0.000000 0.000000 0.000000
# 4 0.000000 0.000000 0.000000 0.023513 0.000000 0.000000
# 5 0.000000 0.000000 0.000000 0.000000 0.066357 0.000000
# 6 0.000000 0.000000 0.000000 0.000000 0.000000 0.057362
#
#
# Mechanical properties :
#
#
# Convention : Reuss Voigt Hill
#
# Bulk Modulus (GPa) = 13.24606 71.83320 42.53963
# Shear Modulus (GPa) = 14.73470 28.10554 21.42012
#
# Velocity S-wave (km/s) = 2.88685 3.98703 3.48068
# Velocity P-wave (km/s) = 4.31321 7.86282 6.34144
#
# Compressibility (1/GPa) = 0.07549412
#
# Stress axis : x y z
#
# Youngs Moduli (GPa) = 10.02591 104.60636 83.92899
#
# Poissons Ratio (x) = 0.75288 0.85652
# Poissons Ratio (y) = 0.07216 0.45812
# Poissons Ratio (z) = 0.10232 0.57098
#
# Static dielectric constant tensor:
#      x y z
#    x 2.753840 0.000000 0.000000 
#    y 0.000000 3.714710 0.000000 
#    z 0.000000 0.000000 3.566810 
# 
# 
# High freq. dielectric constant tensor:
#      x y z
#    x 1.622470 0.000000 0.000000 
#    y 0.000000 1.701220 0.000000 
#    z 0.000000 0.000000 1.691640 
# 
# From -- ./inp_files/42668.got.cif
#   From: 2010.03.12/outbox.cif.g09.slc.cpg/sg63_22_cif.got.tgz:42668.got - 2010.04.10 19:34:48.
