data_PCOD8255483
_publ_section_title
;
Structure prediction by ZEFSAII (Michael W. Deem and Ramdas Pophale) SiO2 
 PCOD8255483
Probable space group: C M C M
;
_chemical_formula_sum "Si O2"
_cell_formula_units_Z 80
_cell_length_a 15.223007
_cell_length_b 29.893724
_cell_length_c 8.764683
_cell_angle_alpha 90.000000
_cell_angle_beta 90.000000
_cell_angle_gamma 90.000000
_cell_volume 3988.565063
_symmetry_space_group_name_H-M "C M C M"
_symmetry_group_IT_number 63
_symmetry_cell_setting 'orthorhombic'
loop_
_space_group_symop_operation_xyz
x,y,z
-x,-y,1/2+z
x,-y,-z
-x,y,1/2-z
-x,-y,-z
x,y,1/2-z
-x,y,z
x,-y,1/2+z
1/2+x,1/2+y,z
1/2-x,1/2-y,1/2+z
1/2+x,1/2-y,-z
1/2-x,1/2+y,1/2-z
1/2-x,1/2-y,-z
1/2+x,1/2+y,1/2-z
1/2-x,1/2+y,z
1/2+x,1/2-y,1/2+z
loop_
_atom_site_type_symbol
_atom_site_label
_atom_site_fract_x
_atom_site_fract_y
_atom_site_fract_z
Si Si1 0.000000 0.795848 0.427115
Si Si2 0.500000 0.200130 0.568857
Si Si3 0.351568 0.634869 0.929751
Si Si4 0.345117 0.859380 0.073140
Si Si5 0.161648 0.457782 0.427589
Si Si6 0.147822 0.955594 0.570466
O O1 0.000000 0.751600 0.526786
O O2 0.913150 0.823476 0.470478
O O3 0.000000 0.782875 0.250000
O O4 0.500000 0.194323 0.750000
O O5 0.586771 0.175818 0.498706
O O6 0.347995 0.625547 0.750000
O O7 0.253468 0.645129 0.995796
O O8 0.393348 0.590501 0.006376
O O9 0.336625 0.848205 0.250000
O O10 0.384869 0.909674 0.049599
O O11 0.107081 0.500000 0.500000
O O12 0.180892 0.466563 0.250000
O O13 0.251148 0.455686 0.521654
O O14 0.135808 0.956836 0.750000
O O15 0.101328 0.000000 0.500000
#
# Coordination Sequence:
#
# PCOD8255483 Si02
#       6
#     8   8  16  16  16  16
#     4  10  22  38  55  74  99 128 162 212 265 302
#     4  10  20  36  55  74  98 130 168 208 252 304
#     4   9  18  35  54  73 100 134 168 203 249 299
#     4   8  16  31  52  74  99 133 168 202 244 297
#     4   9  15  26  45  71 103 137 171 204 243 290
#     4  10  17  27  47  76 106 136 169 203 243 291
#
# _framework density 20.057338999999999
#
# number of rings (size 3 to 8) (size 9 to 14) (size 15 to 20)
#    0.000    2.800    0.000    4.800    0.000    1.600 
#    0.000    6.000    0.000    0.000    0.000    0.000 
#    0.000    0.000    0.000    0.000    0.000    0.000 
#
# Total GULP energy -495581.479502 kJ/mol
# GULP energy per Si atom -12389.536988 kJ/mol
# Density = 2.001169 g / cm^3
# Si number density = 20.057339 Si / 1000 Ang^3
#
#
#
# Elastic Constant Matrix: (Units=GPa)
#
#
# Indices 1 2 3 4 5 6 
#
# 1 87.6445 62.9735 21.9807 0.0000 0.0000 0.0000
# 2 62.9735 164.2651 46.2614 0.0000 0.0000 0.0000
# 3 21.9807 46.2614 71.5918 0.0000 0.0000 0.0000
# 4 0.0000 0.0000 0.0000 36.1790 0.0000 0.0000
# 5 0.0000 0.0000 0.0000 0.0000 1.3700 0.0000
# 6 0.0000 0.0000 0.0000 0.0000 0.0000 11.7358
#
#
#
# Elastic Compliance Matrix: (Units=1/GPa)
#
#
# Indices 1 2 3 4 5 6 
#
# 1 0.015824 -0.005743 -0.001147 0.000000 0.000000 0.000000
# 2 -0.005743 0.009527 -0.004393 0.000000 0.000000 0.000000
# 3 -0.001147 -0.004393 0.017159 0.000000 0.000000 0.000000
# 4 0.000000 0.000000 0.000000 0.027640 0.000000 0.000000
# 5 0.000000 0.000000 0.000000 0.000000 0.729938 0.000000
# 6 0.000000 0.000000 0.000000 0.000000 0.000000 0.085209
#
#
# Mechanical properties :
#
#
# Convention : Reuss Voigt Hill
#
# Bulk Modulus (GPa) = 50.14239 65.10361 57.62300
# Shear Modulus (GPa) = 5.46740 22.67601 14.07171
#
# Velocity S-wave (km/s) = 1.65282 3.36603 2.65160
# Velocity P-wave (km/s) = 5.35688 6.90189 6.17787
#
# Compressibility (1/GPa) = 0.01994321
#
# Stress axis : x y z
#
# Youngs Moduli (GPa) = 63.19487 104.96964 58.27951
#
# Poissons Ratio (x) = 0.60287 0.06686
# Poissons Ratio (y) = 0.36295 0.25600
# Poissons Ratio (z) = 0.07250 0.46108
#
# Static dielectric constant tensor:
#      x y z
#    x 3.622250 0.000000 0.000000 
#    y 0.000000 4.199290 0.000000 
#    z 0.000000 0.000000 3.413460 
# 
# 
# High freq. dielectric constant tensor:
#      x y z
#    x 1.754860 0.000000 0.000000 
#    y 0.000000 1.796140 0.000000 
#    z 0.000000 0.000000 1.754700 
# 
# From -- ./inp_files/6517.got.cif
#   From: 2010.03.12/outbox.cif.g09.slc.cpg/sg63_4_cif.got.tgz:6517.got - 2010.04.10 19:34:48.
