data_PCOD8255433
_publ_section_title
;
Structure prediction by ZEFSAII (Michael W. Deem and Ramdas Pophale) SiO2 
 PCOD8255433
Probable space group: C M C M
;
_chemical_formula_sum "Si O2"
_cell_formula_units_Z 96
_cell_length_a 13.925465
_cell_length_b 32.223647
_cell_length_c 15.069968
_cell_angle_alpha 90.000000
_cell_angle_beta 90.000000
_cell_angle_gamma 90.000000
_cell_volume 6762.335717
_symmetry_space_group_name_H-M "C M C M"
_symmetry_group_IT_number 63
_symmetry_cell_setting 'orthorhombic'
loop_
_space_group_symop_operation_xyz
x,y,z
-x,-y,1/2+z
x,-y,-z
-x,y,1/2-z
-x,-y,-z
x,y,1/2-z
-x,y,z
x,-y,1/2+z
1/2+x,1/2+y,z
1/2-x,1/2-y,1/2+z
1/2+x,1/2-y,-z
1/2-x,1/2+y,1/2-z
1/2-x,1/2-y,-z
1/2+x,1/2+y,1/2-z
1/2-x,1/2+y,z
1/2+x,1/2-y,1/2+z
loop_
_atom_site_type_symbol
_atom_site_label
_atom_site_fract_x
_atom_site_fract_y
_atom_site_fract_z
Si Si1 0.112943 0.526766 0.750000
Si Si2 0.889171 0.386285 0.918140
Si Si3 0.884575 0.434335 0.750000
Si Si4 0.703792 0.820873 0.348923
Si Si5 0.891977 0.223096 0.649242
Si Si6 0.388712 0.906700 0.111134
Si Si7 0.386705 0.201972 0.023965
O O1 0.159091 0.480958 0.750000
O O2 0.144934 0.551973 0.662164
O O3 0.000000 0.521266 0.750000
O O4 0.841880 0.410435 0.835736
O O5 0.843525 0.340566 0.933613
O O6 0.000000 0.380117 0.895022
O O7 0.875419 0.414219 0.006295
O O8 0.000000 0.435877 0.750000
O O9 0.674500 0.805147 0.250000
O O10 0.819071 0.815407 0.361717
O O11 0.677586 0.869009 0.357038
O O12 0.651145 0.792966 0.423242
O O13 0.890626 0.240311 0.750000
O O14 0.855509 0.259706 0.584693
O O15 0.000000 0.208527 0.623783
O O16 0.500000 0.895671 0.133120
O O17 0.500000 0.197877 0.017799
#
# Coordination Sequence:
#
# PCOD8255433 Si02
#       7
#     8  16   8  16  16  16  16
#     4   9  16  24  36  51  73 101 127 154 184 221
#     4   8  15  24  35  51  71  97 130 157 177 208
#     4   9  16  24  34  51  72 101 133 154 177 213
#     4  10  17  26  41  57  75 100 131 162 189 221
#     4   9  18  29  40  56  77 102 129 158 195 228
#     4   9  16  26  38  54  75 101 128 154 187 222
#     4   9  17  27  40  57  77 103 130 159 188 219
#
# _framework density 14.196278
#
# number of rings (size 3 to 8) (size 9 to 14) (size 15 to 20)
#    0.000    3.000    0.833    2.000    1.167    1.667 
#    0.000    3.333    0.000    0.000    0.000    0.000 
#    0.000    0.000    0.000   18.000    0.000    2.667 
#
# Total GULP energy -594787.141499 kJ/mol
# GULP energy per Si atom -12391.398781 kJ/mol
# Density = 1.416397 g / cm^3
# Si number density = 14.196278 Si / 1000 Ang^3
#
#
#
# Elastic Constant Matrix: (Units=GPa)
#
#
# Indices 1 2 3 4 5 6 
#
# 1 29.0005 33.8618 29.1285 0.0000 0.0000 0.0000
# 2 33.8618 76.8393 51.2166 0.0000 0.0000 0.0000
# 3 29.1285 51.2166 110.3910 0.0000 0.0000 0.0000
# 4 0.0000 0.0000 0.0000 18.8300 0.0000 0.0000
# 5 0.0000 0.0000 0.0000 0.0000 12.5349 0.0000
# 6 0.0000 0.0000 0.0000 0.0000 0.0000 11.5316
#
#
#
# Elastic Compliance Matrix: (Units=1/GPa)
#
#
# Indices 1 2 3 4 5 6 
#
# 1 0.073996 -0.028367 -0.006364 0.000000 0.000000 0.000000
# 2 -0.028367 0.029715 -0.006301 0.000000 0.000000 0.000000
# 3 -0.006364 -0.006301 0.013662 0.000000 0.000000 0.000000
# 4 0.000000 0.000000 0.000000 0.053107 0.000000 0.000000
# 5 0.000000 0.000000 0.000000 0.000000 0.079777 0.000000
# 6 0.000000 0.000000 0.000000 0.000000 0.000000 0.086718
#
#
# Mechanical properties :
#
#
# Convention : Reuss Voigt Hill
#
# Bulk Modulus (GPa) = 28.32220 49.40496 38.86358
# Shear Modulus (GPa) = 11.60606 15.38090 13.49348
#
# Velocity S-wave (km/s) = 2.86237 3.29514 3.08635
# Velocity P-wave (km/s) = 5.56039 7.02525 6.33531
#
# Compressibility (1/GPa) = 0.03530799
#
# Stress axis : x y z
#
# Youngs Moduli (GPa) = 13.51421 33.65284 73.19785
#
# Poissons Ratio (x) = 0.95463 0.46584
# Poissons Ratio (y) = 0.38336 0.46125
# Poissons Ratio (z) = 0.08601 0.21206
#
# Static dielectric constant tensor:
#      x y z
#    x 2.445540 0.000000 0.000000 
#    y 0.000000 2.826450 0.000000 
#    z 0.000000 0.000000 3.065870 
# 
# 
# High freq. dielectric constant tensor:
#      x y z
#    x 1.485740 0.000000 0.000000 
#    y 0.000000 1.526140 0.000000 
#    z 0.000000 0.000000 1.561610 
# 
# From -- ./inp_files/32701.got.cif
#   From: 2010.03.12/outbox.cif.g09.slc.cpg/sg63_17_cif.got.tgz:32701.got - 2010.04.10 19:34:48.
