data_PCOD8255253
_publ_section_title
;
Structure prediction by ZEFSAII (Michael W. Deem and Ramdas Pophale) SiO2 
 PCOD8255253
Probable space group: P N M A
;
_chemical_formula_sum "Si O2"
_cell_formula_units_Z 36
_cell_length_a 7.670330
_cell_length_b 13.330460
_cell_length_c 14.017982
_cell_angle_alpha 90.000000
_cell_angle_beta 90.000000
_cell_angle_gamma 90.000000
_cell_volume 1433.325024
_symmetry_space_group_name_H-M "P N M A"
_symmetry_group_IT_number 62
_symmetry_cell_setting 'orthorhombic'
loop_
_space_group_symop_operation_xyz
x,y,z
1/2-x,-y,1/2+z
1/2+x,1/2-y,1/2-z
-x,1/2+y,-z
-x,-y,-z
1/2+x,y,1/2-z
1/2-x,1/2+y,1/2+z
x,1/2-y,z
loop_
_atom_site_type_symbol
_atom_site_label
_atom_site_fract_x
_atom_site_fract_y
_atom_site_fract_z
Si Si1 0.009806 0.250000 0.126700
Si Si2 0.112604 0.544559 0.788017
Si Si3 0.698706 0.955600 0.378845
Si Si4 0.841064 0.250000 0.502643
Si Si5 0.172978 0.534599 0.444781
Si Si6 0.723824 0.250000 0.963805
O O1 0.974017 0.153418 0.193841
O O2 0.211301 0.250000 0.089663
O O3 0.886643 0.250000 0.034997
O O4 0.155763 0.522452 0.677991
O O5 0.294182 0.527897 0.847295
O O6 0.984566 0.456645 0.824543
O O7 0.769780 0.843664 0.392073
O O8 0.671267 0.006880 0.481886
O O9 0.814516 0.153842 0.571019
O O10 0.046563 0.250000 0.472279
O O11 0.000000 0.500000 0.500000
#
# Coordination Sequence:
#
# PCOD8255253 Si02
#       6
#     4   8   8   4   8   4
#     4  12  24  49  80 110 147 207 258 310 389 463
#     4  12  27  46  74 110 153 197 260 323 384 463
#     4  12  26  46  72 111 151 199 253 321 384 455
#     4  12  24  40  80 104 140 202 246 300 386 452
#     4  12  23  46  73 106 148 197 253 318 385 459
#     4  12  26  47  80 110 153 201 260 310 387 463
#
# _framework density 25.116426000000001
#
# number of rings (size 3 to 8) (size 9 to 14) (size 15 to 20)
#    0.000    0.000    6.667    3.333    0.000    3.556 
#    0.000    0.000    0.000    0.000    0.000    0.000 
#    0.000    0.000    0.000    0.000    0.000    0.000 
#
# Total GULP energy -446260.575743 kJ/mol
# GULP energy per Si atom -12396.127104 kJ/mol
# Density = 2.505926 g / cm^3
# Si number density = 25.116426 Si / 1000 Ang^3
#
#
#
# Elastic Constant Matrix: (Units=GPa)
#
#
# Indices 1 2 3 4 5 6 
#
# 1 111.0924 26.1739 -2.0162 0.0000 0.0000 0.0000
# 2 26.1739 205.1532 42.7576 0.0000 0.0000 0.0000
# 3 -2.0162 42.7576 77.2060 0.0000 0.0000 0.0000
# 4 0.0000 0.0000 0.0000 41.6559 0.0000 0.0000
# 5 0.0000 0.0000 0.0000 0.0000 31.8284 0.0000
# 6 0.0000 0.0000 0.0000 0.0000 0.0000 37.7684
#
#
#
# Elastic Compliance Matrix: (Units=1/GPa)
#
#
# Indices 1 2 3 4 5 6 
#
# 1 0.009351 -0.001406 0.001023 0.000000 0.000000 0.000000
# 2 -0.001406 0.005722 -0.003206 0.000000 0.000000 0.000000
# 3 0.001023 -0.003206 0.014754 0.000000 0.000000 0.000000
# 4 0.000000 0.000000 0.000000 0.024006 0.000000 0.000000
# 5 0.000000 0.000000 0.000000 0.000000 0.031419 0.000000
# 6 0.000000 0.000000 0.000000 0.000000 0.000000 0.026477
#
#
# Mechanical properties :
#
#
# Convention : Reuss Voigt Hill
#
# Bulk Modulus (GPa) = 44.15009 58.58690 51.36850
# Shear Modulus (GPa) = 39.53904 44.01963 41.77934
#
# Velocity S-wave (km/s) = 3.97196 4.19098 4.08294
# Velocity P-wave (km/s) = 6.21704 6.84075 6.53634
#
# Compressibility (1/GPa) = 0.02265001
#
# Stress axis : x y z
#
# Youngs Moduli (GPa) = 106.93569 174.76632 67.77651
#
# Poissons Ratio (x) = 0.24577 -0.06934
# Poissons Ratio (y) = 0.15038 0.21726
# Poissons Ratio (z) = -0.10940 0.56023
#
# Static dielectric constant tensor:
#      x y z
#    x 4.858840 0.000000 0.000000 
#    y 0.000000 4.762170 0.000000 
#    z 0.000000 0.000000 4.655670 
# 
# 
# High freq. dielectric constant tensor:
#      x y z
#    x 2.025630 0.000000 0.000000 
#    y 0.000000 2.004560 0.000000 
#    z 0.000000 0.000000 1.983540 
# 
# From -- ./inp_files/16626.got.cif
#   From: 2010.03.12/outbox.cif.g09.slc.cpg/sg62_9_cif.got.tgz:16626.got - 2010.04.10 19:12:36.
