data_PCOD8255282
_publ_section_title
;
Structure prediction by ZEFSAII (Michael W. Deem and Ramdas Pophale) SiO2 
 PCOD8255282
Probable space group: P N M A
;
_chemical_formula_sum "Si O2"
_cell_formula_units_Z 56
_cell_length_a 13.896394
_cell_length_b 9.460175
_cell_length_c 24.515556
_cell_angle_alpha 90.000000
_cell_angle_beta 90.000000
_cell_angle_gamma 90.000000
_cell_volume 3222.871846
_symmetry_space_group_name_H-M "P N M A"
_symmetry_group_IT_number 62
_symmetry_cell_setting 'orthorhombic'
loop_
_space_group_symop_operation_xyz
x,y,z
1/2-x,-y,1/2+z
1/2+x,1/2-y,1/2-z
-x,1/2+y,-z
-x,-y,-z
1/2+x,y,1/2-z
1/2-x,1/2+y,1/2+z
x,1/2-y,z
loop_
_atom_site_type_symbol
_atom_site_label
_atom_site_fract_x
_atom_site_fract_y
_atom_site_fract_z
Si Si1 0.016164 0.088038 0.053628
Si Si2 0.397064 0.580814 0.720267
Si Si3 0.200397 0.418359 0.329203
Si Si4 0.900246 0.914636 0.560717
Si Si5 0.379939 0.084732 0.045781
Si Si6 0.291479 0.912160 0.616056
Si Si7 0.084468 0.918131 0.837916
O O1 0.991377 0.250000 0.040730
O O2 0.126400 0.070036 0.070908
O O3 0.947339 0.030338 0.101958
O O4 0.000000 0.000000 0.000000
O O5 0.394869 0.750000 0.718606
O O6 0.362215 0.522005 0.778612
O O7 0.325000 0.519132 0.673519
O O8 0.506293 0.529174 0.707102
O O9 0.200499 0.250000 0.327563
O O10 0.152439 0.471265 0.385135
O O11 0.309439 0.477655 0.324379
O O12 0.878741 0.750000 0.550312
O O13 0.013483 0.942814 0.568221
O O14 0.859557 0.002059 0.510049
O O15 0.361257 0.250000 0.034228
O O16 0.306898 0.022680 0.091526
O O17 0.270519 0.750000 0.628679
O O18 0.085179 0.750000 0.837933
#
# Coordination Sequence:
#
# PCOD8255282 Si02
#       7
#     8   8   8   8   8   8   8
#     4   9  17  28  42  62  87 114 142 174 215 260
#     4   8  14  25  39  58  85 114 143 175 217 265
#     4   9  16  25  40  62  87 114 143 180 224 264
#     4   9  18  29  42  65  91 112 143 184 221 259
#     4   9  17  30  45  61  87 119 147 179 215 258
#     4   8  15  27  42  60  84 114 146 178 213 258
#     4   8  15  26  38  57  86 112 138 179 221 253
#
# _framework density 17.375807999999999
#
# number of rings (size 3 to 8) (size 9 to 14) (size 15 to 20)
#    0.000    3.429    0.000    1.714    2.000    1.143 
#    0.000    5.714    0.000    0.000    0.000    5.000 
#    0.000    0.000    0.000    0.000    0.000    0.000 
#
# Total GULP energy -693986.999794 kJ/mol
# GULP energy per Si atom -12392.624996 kJ/mol
# Density = 1.733626 g / cm^3
# Si number density = 17.375808 Si / 1000 Ang^3
#
#
#
# Elastic Constant Matrix: (Units=GPa)
#
#
# Indices 1 2 3 4 5 6 
#
# 1 124.3780 15.8314 85.1842 0.0000 0.0000 0.0000
# 2 15.8314 16.8709 19.5822 0.0000 0.0000 0.0000
# 3 85.1842 19.5822 129.3141 0.0000 0.0000 0.0000
# 4 0.0000 0.0000 0.0000 19.7277 0.0000 0.0000
# 5 0.0000 0.0000 0.0000 0.0000 28.7093 0.0000
# 6 0.0000 0.0000 0.0000 0.0000 0.0000 10.9971
#
#
#
# Elastic Compliance Matrix: (Units=1/GPa)
#
#
# Indices 1 2 3 4 5 6 
#
# 1 0.014783 -0.003117 -0.009266 0.000000 0.000000 0.000000
# 2 -0.003117 0.072571 -0.008936 0.000000 0.000000 0.000000
# 3 -0.009266 -0.008936 0.015190 0.000000 0.000000 0.000000
# 4 0.000000 0.000000 0.000000 0.050690 0.000000 0.000000
# 5 0.000000 0.000000 0.000000 0.000000 0.034832 0.000000
# 6 0.000000 0.000000 0.000000 0.000000 0.000000 0.090933
#
#
# Mechanical properties :
#
#
# Convention : Reuss Voigt Hill
#
# Bulk Modulus (GPa) = 16.69298 56.86206 36.77752
# Shear Modulus (GPa) = 14.63675 21.88450 18.26063
#
# Velocity S-wave (km/s) = 2.90550 3.55277 3.24531
# Velocity P-wave (km/s) = 4.56988 7.04453 5.93756
#
# Compressibility (1/GPa) = 0.05990544
#
# Stress axis : x y z
#
# Youngs Moduli (GPa) = 67.64575 13.77968 65.83163
#
# Poissons Ratio (x) = 0.04295 0.61000
# Poissons Ratio (y) = 0.21084 0.58829
# Poissons Ratio (z) = 0.62681 0.12314
#
# Static dielectric constant tensor:
#      x y z
#    x 3.916760 0.000000 0.000000 
#    y 0.000000 2.637850 0.000000 
#    z 0.000000 0.000000 3.537930 
# 
# 
# High freq. dielectric constant tensor:
#      x y z
#    x 1.683290 0.000000 0.000000 
#    y 0.000000 1.598040 0.000000 
#    z 0.000000 0.000000 1.675030 
# 
# From -- ./inp_files/29385.got.cif
#   From: 2010.03.12/outbox.cif.g09.slc.cpg/sg62_15_cif.got.tgz:29385.got - 2010.04.10 19:12:36.
