data_PCOD8255183
_publ_section_title
;
Structure prediction by ZEFSAII (Michael W. Deem and Ramdas Pophale) SiO2 
 PCOD8255183
Probable space group: P N M A
;
_chemical_formula_sum "Si O2"
_cell_formula_units_Z 48
_cell_length_a 16.995625
_cell_length_b 23.978841
_cell_length_c 5.119983
_cell_angle_alpha 90.000000
_cell_angle_beta 90.000000
_cell_angle_gamma 90.000000
_cell_volume 2086.574266
_symmetry_space_group_name_H-M "P N M A"
_symmetry_group_IT_number 62
_symmetry_cell_setting 'orthorhombic'
loop_
_space_group_symop_operation_xyz
x,y,z
1/2-x,-y,1/2+z
1/2+x,1/2-y,1/2-z
-x,1/2+y,-z
-x,-y,-z
1/2+x,y,1/2-z
1/2-x,1/2+y,1/2+z
x,1/2-y,z
loop_
_atom_site_type_symbol
_atom_site_label
_atom_site_fract_x
_atom_site_fract_y
_atom_site_fract_z
Si Si1 0.556665 0.614791 0.914312
Si Si2 0.340489 0.455615 0.764639
Si Si3 0.540414 0.136134 0.579118
Si Si4 0.800680 0.138854 0.127297
Si Si5 0.184416 0.430538 0.041561
Si Si6 0.384965 0.750000 0.519907
Si Si7 0.224467 0.250000 0.520753
O O1 0.504579 0.604644 0.656203
O O2 0.633134 0.653817 0.846756
O O3 0.595257 0.556129 0.008952
O O4 0.506430 0.641046 0.149876
O O5 0.345933 0.405935 0.553946
O O6 0.361222 0.517295 0.667642
O O7 0.250652 0.456892 0.859441
O O8 0.621965 0.103510 0.632677
O O9 0.557129 0.197794 0.476501
O O10 0.721853 0.111967 0.248404
O O11 0.778645 0.194793 0.972292
O O12 0.329612 0.750000 0.768734
O O13 0.329166 0.750000 0.271821
#
# Coordination Sequence:
#
# PCOD8255183 Si02
#       7
#     8   8   8   8   8   4   4
#     4  11  27  47  67 104 147 185 236 285 362 438
#     4  11  23  46  70 110 139 191 241 293 356 424
#     4  12  26  47  70 103 144 190 233 294 362 425
#     4  11  24  48  69 108 140 185 242 292 360 418
#     4  11  24  40  78  99 144 185 242 299 348 419
#     4  12  26  46  71 109 136 181 240 298 351 422
#     4  12  26  44  79 105 138 177 242 304 339 422
#
# _framework density 23.004216
#
# number of rings (size 3 to 8) (size 9 to 14) (size 15 to 20)
#    0.000    0.667    5.000    2.000    4.667    2.667 
#    0.000    0.833    0.000    0.000    0.000    0.000 
#    0.000    0.000    0.000    0.000    0.000    0.000 
#
# Total GULP energy -595192.528629 kJ/mol
# GULP energy per Si atom -12399.844346 kJ/mol
# Density = 2.295186 g / cm^3
# Si number density = 23.004216 Si / 1000 Ang^3
#
#
#
# Elastic Constant Matrix: (Units=GPa)
#
#
# Indices 1 2 3 4 5 6 
#
# 1 77.6063 30.1223 26.9320 0.0000 0.0000 0.0000
# 2 30.1223 112.2645 11.7975 0.0000 0.0000 0.0000
# 3 26.9320 11.7975 111.9863 0.0000 0.0000 0.0000
# 4 0.0000 0.0000 0.0000 25.7093 0.0000 0.0000
# 5 0.0000 0.0000 0.0000 0.0000 53.0602 0.0000
# 6 0.0000 0.0000 0.0000 0.0000 0.0000 19.4558
#
#
#
# Elastic Compliance Matrix: (Units=1/GPa)
#
#
# Indices 1 2 3 4 5 6 
#
# 1 0.015522 -0.003815 -0.003331 0.000000 0.000000 0.000000
# 2 -0.003815 0.009945 -0.000130 0.000000 0.000000 0.000000
# 3 -0.003331 -0.000130 0.009744 0.000000 0.000000 0.000000
# 4 0.000000 0.000000 0.000000 0.038896 0.000000 0.000000
# 5 0.000000 0.000000 0.000000 0.000000 0.018847 0.000000
# 6 0.000000 0.000000 0.000000 0.000000 0.000000 0.051399
#
#
# Mechanical properties :
#
#
# Convention : Reuss Voigt Hill
#
# Bulk Modulus (GPa) = 48.40452 48.84010 48.62231
# Shear Modulus (GPa) = 30.15829 35.17874 32.66852
#
# Velocity S-wave (km/s) = 3.62469 3.91478 3.77252
# Velocity P-wave (km/s) = 6.21330 6.45841 6.33704
#
# Compressibility (1/GPa) = 0.02065923
#
# Stress axis : x y z
#
# Youngs Moduli (GPa) = 64.42362 100.55512 102.62204
#
# Poissons Ratio (x) = 0.38360 0.34185
# Poissons Ratio (y) = 0.24576 0.01336
# Poissons Ratio (z) = 0.21460 0.01310
#
# Static dielectric constant tensor:
#      x y z
#    x 4.258130 0.000000 0.000000 
#    y 0.000000 4.052170 0.000000 
#    z 0.000000 0.000000 4.217950 
# 
# 
# High freq. dielectric constant tensor:
#      x y z
#    x 1.919990 0.000000 0.000000 
#    y 0.000000 1.895350 0.000000 
#    z 0.000000 0.000000 1.915070 
# 
# From -- ./inp_files/1742.got.cif
#   From: 2010.03.12/outbox.cif.g09.slc.cpg/sg62_1_cif.got.tgz:1742.got - 2010.04.10 19:12:36.
