data_PCOD8255926
_publ_section_title
;
Structure prediction by ZEFSAII (Michael W. Deem and Ramdas Pophale) SiO2 
 PCOD8255926
Probable space group: C M C M
;
_chemical_formula_sum "Si O2"
_cell_formula_units_Z 80
_cell_length_a 8.803988
_cell_length_b 23.093636
_cell_length_c 22.880238
_cell_angle_alpha 90.000000
_cell_angle_beta 90.000000
_cell_angle_gamma 90.000000
_cell_volume 4651.920625
_symmetry_space_group_name_H-M "C M C M"
_symmetry_group_IT_number 63
_symmetry_cell_setting 'orthorhombic'
loop_
_space_group_symop_operation_xyz
x,y,z
-x,-y,1/2+z
x,-y,-z
-x,y,1/2-z
-x,-y,-z
x,y,1/2-z
-x,y,z
x,-y,1/2+z
1/2+x,1/2+y,z
1/2-x,1/2-y,1/2+z
1/2+x,1/2-y,-z
1/2-x,1/2+y,1/2-z
1/2-x,1/2-y,-z
1/2+x,1/2+y,1/2-z
1/2-x,1/2+y,z
1/2+x,1/2-y,1/2+z
loop_
_atom_site_type_symbol
_atom_site_label
_atom_site_fract_x
_atom_site_fract_y
_atom_site_fract_z
Si Si1 0.820203 0.845799 0.099290
Si Si2 0.327610 0.065076 0.814404
Si Si3 0.822712 0.280194 0.864894
Si Si4 0.677496 0.811546 0.511194
Si Si5 0.319535 0.530855 0.250000
Si Si6 0.318047 0.157101 0.250000
O O1 0.764094 0.896897 0.140119
O O2 0.755617 0.784277 0.123569
O O3 0.000000 0.846402 0.096664
O O4 0.756789 0.856702 0.033282
O O5 0.326036 0.095451 0.750000
O O6 0.500000 0.055985 0.836408
O O7 0.244592 0.002515 0.807797
O O8 0.791882 0.323803 0.919820
O O9 0.754617 0.308462 0.806473
O O10 0.000000 0.271597 0.855471
O O11 0.500000 0.809926 0.497477
O O12 0.750000 0.750000 0.500000
O O13 0.500000 0.530291 0.250000
O O14 0.257233 0.594995 0.250000
O O15 0.500000 0.150605 0.250000
#
# Coordination Sequence:
#
# PCOD8255926 Si02
#       6
#    16  16  16  16   8   8
#     4  10  18  29  49  77 103 132 163 198 245 292
#     4   9  19  33  50  73  97 126 160 198 244 291
#     4   8  17  29  47  73 100 132 167 194 236 292
#     4   9  16  29  45  67  99 135 168 200 238 292
#     4  10  20  35  50  69  95 126 162 202 247 294
#     4  10  18  33  52  69  93 128 166 204 235 284
#
# _framework density 17.197198
#
# number of rings (size 3 to 8) (size 9 to 14) (size 15 to 20)
#    0.600    2.200    0.000    3.600    1.400    0.000 
#    0.000    6.000    0.000    1.200    0.000    8.400 
#    0.000    0.000    0.000    0.000    0.000    0.000 
#
# Total GULP energy -495531.635439 kJ/mol
# GULP energy per Si atom -12388.290886 kJ/mol
# Density = 1.715806 g / cm^3
# Si number density = 17.197198 Si / 1000 Ang^3
#
#
#
# Elastic Constant Matrix: (Units=GPa)
#
#
# Indices 1 2 3 4 5 6 
#
# 1 88.3749 27.1289 39.9367 0.0000 0.0000 0.0000
# 2 27.1289 72.5204 44.9331 0.0000 0.0000 0.0000
# 3 39.9367 44.9331 121.6359 0.0000 0.0000 0.0000
# 4 0.0000 0.0000 0.0000 4.1151 0.0000 0.0000
# 5 0.0000 0.0000 0.0000 0.0000 25.5688 0.0000
# 6 0.0000 0.0000 0.0000 0.0000 0.0000 23.0450
#
#
#
# Elastic Compliance Matrix: (Units=1/GPa)
#
#
# Indices 1 2 3 4 5 6 
#
# 1 0.013789 -0.003052 -0.003400 0.000000 0.000000 0.000000
# 2 -0.003052 0.018557 -0.005853 0.000000 0.000000 0.000000
# 3 -0.003400 -0.005853 0.011500 0.000000 0.000000 0.000000
# 4 0.000000 0.000000 0.000000 0.243010 0.000000 0.000000
# 5 0.000000 0.000000 0.000000 0.000000 0.039110 0.000000
# 6 0.000000 0.000000 0.000000 0.000000 0.000000 0.043393
#
#
# Mechanical properties :
#
#
# Convention : Reuss Voigt Hill
#
# Bulk Modulus (GPa) = 51.98526 56.28096 54.13311
# Shear Modulus (GPa) = 12.48810 21.91461 17.20136
#
# Velocity S-wave (km/s) = 2.69768 3.57362 3.16609
# Velocity P-wave (km/s) = 6.32438 7.05872 6.70162
#
# Compressibility (1/GPa) = 0.01923622
#
# Stress axis : x y z
#
# Youngs Moduli (GPa) = 72.52355 53.88677 86.95781
#
# Poissons Ratio (x) = 0.16444 0.29565
# Poissons Ratio (y) = 0.22131 0.50899
# Poissons Ratio (z) = 0.24658 0.31542
#
# Static dielectric constant tensor:
#      x y z
#    x 3.214450 0.000000 0.000000 
#    y 0.000000 2.959000 0.000000 
#    z 0.000000 0.000000 3.727810 
# 
# 
# High freq. dielectric constant tensor:
#      x y z
#    x 1.661570 0.000000 0.000000 
#    y 0.000000 1.624780 0.000000 
#    z 0.000000 0.000000 1.666220 
# 
# From -- ./inp_files/59775.got.cif
#   From: 2010.03.12/outbox.cif.g09.slc.cpg/sg63_30_cif.got.tgz:59775.got - 2010.04.10 19:34:48.
