data_PCOD8255416
_publ_section_title
;
Structure prediction by ZEFSAII (Michael W. Deem and Ramdas Pophale) SiO2 
 PCOD8255416
Probable space group: C M C M
;
_chemical_formula_sum "Si O2"
_cell_formula_units_Z 56
_cell_length_a 17.814519
_cell_length_b 8.580689
_cell_length_c 18.257319
_cell_angle_alpha 90.000000
_cell_angle_beta 90.000000
_cell_angle_gamma 90.000000
_cell_volume 2790.829250
_symmetry_space_group_name_H-M "C M C M"
_symmetry_group_IT_number 63
_symmetry_cell_setting 'orthorhombic'
loop_
_space_group_symop_operation_xyz
x,y,z
-x,-y,1/2+z
x,-y,-z
-x,y,1/2-z
-x,-y,-z
x,y,1/2-z
-x,y,z
x,-y,1/2+z
1/2+x,1/2+y,z
1/2-x,1/2-y,1/2+z
1/2+x,1/2-y,-z
1/2-x,1/2+y,1/2-z
1/2-x,1/2-y,-z
1/2+x,1/2+y,1/2-z
1/2-x,1/2+y,z
1/2+x,1/2-y,1/2+z
loop_
_atom_site_type_symbol
_atom_site_label
_atom_site_fract_x
_atom_site_fract_y
_atom_site_fract_z
Si Si1 0.625308 0.954634 0.750000
Si Si2 0.231188 0.726373 0.332601
Si Si3 0.000000 0.044386 0.127200
Si Si4 0.000000 0.705789 0.750000
Si Si5 0.163940 0.015527 0.082397
Si Si6 0.500000 0.295329 0.250000
O O1 0.577407 0.109843 0.750000
O O2 0.677462 0.928450 0.677391
O O3 0.573999 0.803762 0.750000
O O4 0.256806 0.783286 0.250000
O O5 0.185565 0.863004 0.371806
O O6 0.301768 0.670823 0.380299
O O7 0.925548 0.040735 0.077905
O O8 0.000000 0.894907 0.177401
O O9 0.000000 0.198556 0.176091
O O10 0.194940 0.000000 0.000000
#
# Coordination Sequence:
#
# PCOD8255416 Si02
#       6
#     8  16   8   4  16   4
#     4   9  20  38  64  94 123 155 217 266 317 359
#     4  10  23  40  68  91 123 165 216 265 315 376
#     4  11  23  38  63  90 130 166 217 258 317 385
#     4  10  24  34  66 102 122 162 220 278 304 368
#     4  12  25  42  63  95 133 171 208 264 330 383
#     4  10  16  38  64  88 118 172 206 264 312 372
#
# _framework density 20.065721
#
# number of rings (size 3 to 8) (size 9 to 14) (size 15 to 20)
#    0.857    0.571    2.857    2.143   10.000    0.000 
#    0.000    0.000    0.000    1.714    0.000    0.000 
#    0.000    0.000    0.000    0.000    0.000    0.000 
#
# Total GULP energy -347023.275047 kJ/mol
# GULP energy per Si atom -12393.688395 kJ/mol
# Density = 2.002005 g / cm^3
# Si number density = 20.065721 Si / 1000 Ang^3
#
#
#
# Elastic Constant Matrix: (Units=GPa)
#
#
# Indices 1 2 3 4 5 6 
#
# 1 113.1875 26.9758 28.2231 0.0000 0.0000 0.0000
# 2 26.9758 76.5170 32.7334 0.0000 0.0000 0.0000
# 3 28.2231 32.7334 127.7420 0.0000 0.0000 0.0000
# 4 0.0000 0.0000 0.0000 23.8460 0.0000 0.0000
# 5 0.0000 0.0000 0.0000 0.0000 26.5631 0.0000
# 6 0.0000 0.0000 0.0000 0.0000 0.0000 39.0471
#
#
#
# Elastic Compliance Matrix: (Units=1/GPa)
#
#
# Indices 1 2 3 4 5 6 
#
# 1 0.009878 -0.002863 -0.001449 0.000000 0.000000 0.000000
# 2 -0.002863 0.015508 -0.003341 0.000000 0.000000 0.000000
# 3 -0.001449 -0.003341 0.009005 0.000000 0.000000 0.000000
# 4 0.000000 0.000000 0.000000 0.041936 0.000000 0.000000
# 5 0.000000 0.000000 0.000000 0.000000 0.037646 0.000000
# 6 0.000000 0.000000 0.000000 0.000000 0.000000 0.025610
#
#
# Mechanical properties :
#
#
# Convention : Reuss Voigt Hill
#
# Bulk Modulus (GPa) = 52.39802 54.81235 53.60519
# Shear Modulus (GPa) = 31.00770 33.19219 32.09994
#
# Velocity S-wave (km/s) = 3.93530 4.07157 4.00401
# Velocity P-wave (km/s) = 6.84242 7.03415 6.93895
#
# Compressibility (1/GPa) = 0.01908469
#
# Stress axis : x y z
#
# Youngs Moduli (GPa) = 101.23026 64.48448 111.05439
#
# Poissons Ratio (x) = 0.18460 0.16091
# Poissons Ratio (y) = 0.28980 0.37106
# Poissons Ratio (z) = 0.14668 0.21546
#
# Static dielectric constant tensor:
#      x y z
#    x 3.758640 0.000000 0.000000 
#    y 0.000000 3.510320 0.000000 
#    z 0.000000 0.000000 3.404120 
# 
# 
# High freq. dielectric constant tensor:
#      x y z
#    x 1.800500 0.000000 0.000000 
#    y 0.000000 1.785140 0.000000 
#    z 0.000000 0.000000 1.763960 
# 
# From -- ./inp_files/45056.got.cif
#   From: 2010.03.12/outbox.cif.g09.slc.cpg/sg63_23_cif.got.tgz:45056.got - 2010.04.10 19:34:48.
