data_PCOD8255045
_publ_section_title
;
Structure prediction by ZEFSAII (Michael W. Deem and Ramdas Pophale) SiO2 
 PCOD8255045
Probable space group: P N M A
;
_chemical_formula_sum "Si O2"
_cell_formula_units_Z 48
_cell_length_a 13.373259
_cell_length_b 18.826697
_cell_length_c 9.505340
_cell_angle_alpha 90.000000
_cell_angle_beta 90.000000
_cell_angle_gamma 90.000000
_cell_volume 2393.200278
_symmetry_space_group_name_H-M "P N M A"
_symmetry_group_IT_number 62
_symmetry_cell_setting 'orthorhombic'
loop_
_space_group_symop_operation_xyz
x,y,z
1/2-x,-y,1/2+z
1/2+x,1/2-y,1/2-z
-x,1/2+y,-z
-x,-y,-z
1/2+x,y,1/2-z
1/2-x,1/2+y,1/2+z
x,1/2-y,z
loop_
_atom_site_type_symbol
_atom_site_label
_atom_site_fract_x
_atom_site_fract_y
_atom_site_fract_z
Si Si1 0.579206 0.910830 0.196555
Si Si2 0.373098 0.921978 0.057733
Si Si3 0.185301 0.921550 0.578851
Si Si4 0.392293 0.932448 0.729967
Si Si5 0.427091 0.167521 0.298236
Si Si6 0.186504 0.830663 0.081819
O O1 0.478267 0.891890 0.112440
O O2 0.596511 0.850726 0.313061
O O3 0.570502 0.986398 0.275957
O O4 0.673204 0.909341 0.088315
O O5 0.281846 0.878091 0.122166
O O6 0.366358 0.002791 0.111941
O O7 0.365522 0.913295 0.890073
O O8 0.300067 0.922478 0.624028
O O9 0.126249 0.859252 0.657397
O O10 0.474768 0.878601 0.670703
O O11 0.457189 0.250000 0.281371
O O12 0.349175 0.155887 0.423715
O O13 0.217874 0.750000 0.105314
#
# Coordination Sequence:
#
# PCOD8255045 Si02
#       6
#     8   8   8   8   8   8
#     4  11  23  41  66  98 126 165 215 266 315 381
#     4  11  21  41  69  94 125 167 210 262 325 373
#     4  11  21  40  68  96 121 161 218 263 306 379
#     4  11  21  40  69  96 124 165 217 262 311 378
#     4  11  24  42  63  94 130 166 212 263 315 378
#     4  11  26  43  61  94 134 167 206 264 330 379
#
# _framework density 20.056825
#
# number of rings (size 3 to 8) (size 9 to 14) (size 15 to 20)
#    0.000    1.000    6.667    1.000    0.000    4.667 
#    0.000    1.667    0.000    0.000    0.000    0.000 
#    0.000    0.000    0.000    0.000    0.000    0.000 
#
# Total GULP energy -595354.874424 kJ/mol
# GULP energy per Si atom -12403.226550 kJ/mol
# Density = 2.001117 g / cm^3
# Si number density = 20.056825 Si / 1000 Ang^3
#
#
#
# Elastic Constant Matrix: (Units=GPa)
#
#
# Indices 1 2 3 4 5 6 
#
# 1 88.7014 34.1223 18.8916 0.0000 0.0000 0.0000
# 2 34.1223 74.1588 57.9308 0.0000 0.0000 0.0000
# 3 18.8916 57.9308 52.3069 0.0000 0.0000 0.0000
# 4 0.0000 0.0000 0.0000 27.8343 0.0000 0.0000
# 5 0.0000 0.0000 0.0000 0.0000 27.8274 0.0000
# 6 0.0000 0.0000 0.0000 0.0000 0.0000 30.4539
#
#
#
# Elastic Compliance Matrix: (Units=1/GPa)
#
#
# Indices 1 2 3 4 5 6 
#
# 1 0.015515 -0.020480 0.017079 0.000000 0.000000 0.000000
# 2 -0.020480 0.127041 -0.133303 0.000000 0.000000 0.000000
# 3 0.017079 -0.133303 0.160585 0.000000 0.000000 0.000000
# 4 0.000000 0.000000 0.000000 0.035927 0.000000 0.000000
# 5 0.000000 0.000000 0.000000 0.000000 0.035936 0.000000
# 6 0.000000 0.000000 0.000000 0.000000 0.000000 0.032837
#
#
# Mechanical properties :
#
#
# Convention : Reuss Voigt Hill
#
# Bulk Modulus (GPa) = 33.63419 48.56182 41.09800
# Shear Modulus (GPa) = 7.23421 24.17126 15.70274
#
# Velocity S-wave (km/s) = 1.90123 3.47528 2.80109
# Velocity P-wave (km/s) = 4.65032 6.35359 5.56747
#
# Compressibility (1/GPa) = 0.02973165
#
# Stress axis : x y z
#
# Youngs Moduli (GPa) = 64.45446 7.87149 6.22722
#
# Poissons Ratio (x) = 0.16121 -0.10635
# Poissons Ratio (y) = 1.32004 0.83011
# Poissons Ratio (z) = -1.10080 1.04929
#
# Static dielectric constant tensor:
#      x y z
#    x 3.638380 0.000000 0.000000 
#    y 0.000000 3.582650 0.000000 
#    z 0.000000 0.000000 3.554850 
# 
# 
# High freq. dielectric constant tensor:
#      x y z
#    x 1.785210 0.000000 0.000000 
#    y 0.000000 1.776570 0.000000 
#    z 0.000000 0.000000 1.780320 
# 
# From -- ./inp_files/6424.got.cif
#   From: 2010.03.12/outbox.cif.g09.slc.cpg/sg62_4_cif.got.tgz:6424.got - 2010.04.10 19:12:36.
