data_PCOD8255932
_publ_section_title
;
Structure prediction by ZEFSAII (Michael W. Deem and Ramdas Pophale) SiO2 
 PCOD8255932
Probable space group: C M C M
;
_chemical_formula_sum "Si O2"
_cell_formula_units_Z 80
_cell_length_a 19.080457
_cell_length_b 13.834035
_cell_length_c 17.776866
_cell_angle_alpha 90.000000
_cell_angle_beta 90.000000
_cell_angle_gamma 90.000000
_cell_volume 4692.376393
_symmetry_space_group_name_H-M "C M C M"
_symmetry_group_IT_number 63
_symmetry_cell_setting 'orthorhombic'
loop_
_space_group_symop_operation_xyz
x,y,z
-x,-y,1/2+z
x,-y,-z
-x,y,1/2-z
-x,-y,-z
x,y,1/2-z
-x,y,z
x,-y,1/2+z
1/2+x,1/2+y,z
1/2-x,1/2-y,1/2+z
1/2+x,1/2-y,-z
1/2-x,1/2+y,1/2-z
1/2-x,1/2-y,-z
1/2+x,1/2+y,1/2-z
1/2-x,1/2+y,z
1/2+x,1/2-y,1/2+z
loop_
_atom_site_type_symbol
_atom_site_label
_atom_site_fract_x
_atom_site_fract_y
_atom_site_fract_z
Si Si1 0.417440 0.719983 0.666162
Si Si2 0.921938 0.078995 0.436784
Si Si3 0.736345 0.098846 0.956837
Si Si4 0.643158 0.744809 0.511202
Si Si5 0.830680 0.031268 0.833564
O O1 0.399196 0.763108 0.750000
O O2 0.500000 0.724668 0.651775
O O3 0.377606 0.774981 0.597436
O O4 0.393158 0.609219 0.663632
O O5 0.920027 0.188179 0.470142
O O6 0.000000 0.062536 0.404853
O O7 0.903340 0.000000 0.500000
O O8 0.863213 0.064165 0.372369
O O9 0.795147 0.165626 0.994451
O O10 0.759920 0.072968 0.872053
O O11 0.663770 0.159439 0.963784
O O12 0.725783 0.000000 0.000000
O O13 0.808069 0.003112 0.750000
#
# Coordination Sequence:
#
# PCOD8255932 Si02
#       5
#    16  16  16  16  16
#     4   9  16  27  45  72 101 125 157 204 254 299
#     4  11  18  29  49  73 100 128 160 202 258 308
#     4  10  18  33  49  66  98 135 167 206 241 291
#     4  10  18  29  50  70  97 132 167 203 244 300
#     4  10  18  30  46  70  99 128 163 204 259 308
#
# _framework density 17.048929999999999
#
# number of rings (size 3 to 8) (size 9 to 14) (size 15 to 20)
#    0.000    2.000    6.000    1.200    0.000    1.200 
#    0.000    2.000    0.000    2.400    0.000    0.000 
#    0.000    0.000    0.000    0.000    0.000    0.000 
#
# Total GULP energy -495613.339099 kJ/mol
# GULP energy per Si atom -12390.333477 kJ/mol
# Density = 1.701013 g / cm^3
# Si number density = 17.048930 Si / 1000 Ang^3
#
#
#
# Elastic Constant Matrix: (Units=GPa)
#
#
# Indices 1 2 3 4 5 6 
#
# 1 58.9758 38.3638 49.3682 0.0000 0.0000 0.0000
# 2 38.3638 69.3805 49.7644 0.0000 0.0000 0.0000
# 3 49.3682 49.7644 134.6134 0.0000 0.0000 0.0000
# 4 0.0000 0.0000 0.0000 14.8000 0.0000 0.0000
# 5 0.0000 0.0000 0.0000 0.0000 19.6849 0.0000
# 6 0.0000 0.0000 0.0000 0.0000 0.0000 16.5819
#
#
#
# Elastic Compliance Matrix: (Units=1/GPa)
#
#
# Indices 1 2 3 4 5 6 
#
# 1 0.030362 -0.011978 -0.006707 0.000000 0.000000 0.000000
# 2 -0.011978 0.024340 -0.004605 0.000000 0.000000 0.000000
# 3 -0.006707 -0.004605 0.011591 0.000000 0.000000 0.000000
# 4 0.000000 0.000000 0.000000 0.067568 0.000000 0.000000
# 5 0.000000 0.000000 0.000000 0.000000 0.050800 0.000000
# 6 0.000000 0.000000 0.000000 0.000000 0.000000 0.060307
#
#
# Mechanical properties :
#
#
# Convention : Reuss Voigt Hill
#
# Bulk Modulus (GPa) = 50.72949 59.77359 55.25154
# Shear Modulus (GPa) = 16.77186 18.57824 17.67505
#
# Velocity S-wave (km/s) = 3.13988 3.30464 3.22331
# Velocity P-wave (km/s) = 6.55477 7.04961 6.80669
#
# Compressibility (1/GPa) = 0.01971240
#
# Stress axis : x y z
#
# Youngs Moduli (GPa) = 32.93580 41.08535 86.27511
#
# Poissons Ratio (x) = 0.49212 0.57864
# Poissons Ratio (y) = 0.39450 0.39731
# Poissons Ratio (z) = 0.22090 0.18920
#
# Static dielectric constant tensor:
#      x y z
#    x 3.122940 0.000000 0.000000 
#    y 0.000000 3.013850 0.000000 
#    z 0.000000 0.000000 3.463080 
# 
# 
# High freq. dielectric constant tensor:
#      x y z
#    x 1.639080 0.000000 0.000000 
#    y 0.000000 1.615560 0.000000 
#    z 0.000000 0.000000 1.652280 
# 
# From -- ./inp_files/45404.got.cif
#   From: 2010.03.12/outbox.cif.g09.slc.cpg/sg63_23_cif.got.tgz:45404.got - 2010.04.10 19:34:48.
