data_PCOD8255480
_publ_section_title
;
Structure prediction by ZEFSAII (Michael W. Deem and Ramdas Pophale) SiO2 
 PCOD8255480
Probable space group: C M C M
;
_chemical_formula_sum "Si O2"
_cell_formula_units_Z 112
_cell_length_a 27.753565
_cell_length_b 12.548141
_cell_length_c 18.688656
_cell_angle_alpha 90.000000
_cell_angle_beta 90.000000
_cell_angle_gamma 90.000000
_cell_volume 6508.429984
_symmetry_space_group_name_H-M "C M C M"
_symmetry_group_IT_number 63
_symmetry_cell_setting 'orthorhombic'
loop_
_space_group_symop_operation_xyz
x,y,z
-x,-y,1/2+z
x,-y,-z
-x,y,1/2-z
-x,-y,-z
x,y,1/2-z
-x,y,z
x,-y,1/2+z
1/2+x,1/2+y,z
1/2-x,1/2-y,1/2+z
1/2+x,1/2-y,-z
1/2-x,1/2+y,1/2-z
1/2-x,1/2-y,-z
1/2+x,1/2+y,1/2-z
1/2-x,1/2+y,z
1/2+x,1/2-y,1/2+z
loop_
_atom_site_type_symbol
_atom_site_label
_atom_site_fract_x
_atom_site_fract_y
_atom_site_fract_z
Si Si1 0.552029 0.742357 0.334538
Si Si2 0.347085 0.582751 0.665058
Si Si3 0.208600 0.748566 0.085227
Si Si4 0.650049 0.170694 0.831194
Si Si5 0.287166 0.378518 0.668982
Si Si6 0.792898 0.609687 0.960724
Si Si7 0.447088 0.504422 0.335063
O O1 0.554728 0.730365 0.250000
O O2 0.500000 0.790027 0.358323
O O3 0.594722 0.821533 0.357834
O O4 0.558234 0.623832 0.366623
O O5 0.346158 0.586471 0.750000
O O6 0.331039 0.698803 0.636752
O O7 0.310950 0.487896 0.639440
O O8 0.401705 0.563966 0.636037
O O9 0.240706 0.656943 0.123424
O O10 0.240541 0.847194 0.059052
O O11 0.182898 0.694059 0.016509
O O12 0.655060 0.124593 0.750000
O O13 0.672052 0.288482 0.834539
O O14 0.676288 0.094161 0.888008
O O15 0.269265 0.394791 0.750000
O O16 0.786712 0.500000 0.000000
O O17 0.444406 0.507747 0.250000
O O18 0.500000 0.458027 0.358524
#
# Coordination Sequence:
#
# PCOD8255480 Si02
#       7
#    16  16  16  16  16  16  16
#     4   8  12  21  42  72  99 118 146 193 241 279
#     4  10  17  27  46  72 102 133 160 194 237 277
#     4  10  20  32  47  66  91 127 167 192 232 291
#     4   9  16  29  49  71  90 117 155 195 235 274
#     4   9  16  27  44  68  97 124 159 202 232 262
#     4  10  21  36  49  64  92 123 158 198 239 285
#     4   8  13  22  40  69 102 131 157 190 235 281
#
# _framework density 17.208451
#
# number of rings (size 3 to 8) (size 9 to 14) (size 15 to 20)
#    0.000    2.857    1.429    2.143    0.000    0.571 
#    0.000    1.429    0.000    2.143    0.000    2.000 
#    0.000    4.571    0.000    0.000    0.000    0.000 
#
# Total GULP energy -693784.844771 kJ/mol
# GULP energy per Si atom -12389.015085 kJ/mol
# Density = 1.716928 g / cm^3
# Si number density = 17.208451 Si / 1000 Ang^3
#
#
#
# Elastic Constant Matrix: (Units=GPa)
#
#
# Indices 1 2 3 4 5 6 
#
# 1 90.0573 37.9382 39.1566 0.0000 0.0000 0.0000
# 2 37.9382 38.7670 25.1787 0.0000 0.0000 0.0000
# 3 39.1566 25.1787 60.7935 0.0000 0.0000 0.0000
# 4 0.0000 0.0000 0.0000 27.1730 0.0000 0.0000
# 5 0.0000 0.0000 0.0000 0.0000 9.1739 0.0000
# 6 0.0000 0.0000 0.0000 0.0000 0.0000 14.8596
#
#
#
# Elastic Compliance Matrix: (Units=1/GPa)
#
#
# Indices 1 2 3 4 5 6 
#
# 1 0.020752 -0.015906 -0.006778 0.000000 0.000000 0.000000
# 2 -0.015906 0.047478 -0.009419 0.000000 0.000000 0.000000
# 3 -0.006778 -0.009419 0.024716 0.000000 0.000000 0.000000
# 4 0.000000 0.000000 0.000000 0.036801 0.000000 0.000000
# 5 0.000000 0.000000 0.000000 0.000000 0.109004 0.000000
# 6 0.000000 0.000000 0.000000 0.000000 0.000000 0.067296
#
#
# Mechanical properties :
#
#
# Convention : Reuss Voigt Hill
#
# Bulk Modulus (GPa) = 34.79518 43.79609 39.29564
# Shear Modulus (GPa) = 13.16360 16.06427 14.61394
#
# Velocity S-wave (km/s) = 2.76877 3.05866 2.91732
# Velocity P-wave (km/s) = 5.52134 6.16274 5.85084
#
# Compressibility (1/GPa) = 0.02873961
#
# Stress axis : x y z
#
# Youngs Moduli (GPa) = 48.18861 21.06224 40.45916
#
# Poissons Ratio (x) = 0.33501 0.27425
# Poissons Ratio (y) = 0.76647 0.38110
# Poissons Ratio (z) = 0.32665 0.19839
#
# Static dielectric constant tensor:
#      x y z
#    x 3.514430 0.000000 0.000000 
#    y 0.000000 2.911380 0.000000 
#    z 0.000000 0.000000 3.178750 
# 
# 
# High freq. dielectric constant tensor:
#      x y z
#    x 1.655270 0.000000 0.000000 
#    y 0.000000 1.630380 0.000000 
#    z 0.000000 0.000000 1.641630 
# 
# From -- ./inp_files/58316.got.cif
#   From: 2010.03.12/outbox.cif.g09.slc.cpg/sg63_30_cif.got.tgz:58316.got - 2010.04.10 19:34:48.
