data_PCOD8255009
_publ_section_title
;
Structure prediction by ZEFSAII (Michael W. Deem and Ramdas Pophale) SiO2 
 PCOD8255009
Probable space group: P N M A
;
_chemical_formula_sum "Si O2"
_cell_formula_units_Z 64
_cell_length_a 9.954488
_cell_length_b 21.523354
_cell_length_c 16.401319
_cell_angle_alpha 90.000000
_cell_angle_beta 90.000000
_cell_angle_gamma 90.000000
_cell_volume 3514.047694
_symmetry_space_group_name_H-M "P N M A"
_symmetry_group_IT_number 62
_symmetry_cell_setting 'orthorhombic'
loop_
_space_group_symop_operation_xyz
x,y,z
1/2-x,-y,1/2+z
1/2+x,1/2-y,1/2-z
-x,1/2+y,-z
-x,-y,-z
1/2+x,y,1/2-z
1/2-x,1/2+y,1/2+z
x,1/2-y,z
loop_
_atom_site_type_symbol
_atom_site_label
_atom_site_fract_x
_atom_site_fract_y
_atom_site_fract_z
Si Si1 0.672043 0.604296 0.906461
Si Si2 0.012769 0.473747 0.833963
Si Si3 0.263212 0.467906 0.940151
Si Si4 0.954134 0.618009 0.835832
Si Si5 0.817162 0.178028 0.063964
Si Si6 0.722637 0.923571 0.438463
Si Si7 0.554078 0.177524 0.162410
Si Si8 0.541570 0.478727 0.853227
O O1 0.801002 0.630443 0.859813
O O2 0.558173 0.657314 0.903434
O O3 0.624208 0.542452 0.859643
O O4 0.707211 0.590276 0.000651
O O5 0.993668 0.546724 0.848914
O O6 0.888777 0.435239 0.869673
O O7 0.150227 0.449549 0.874905
O O8 0.020379 0.458043 0.739025
O O9 0.398999 0.488562 0.895917
O O10 0.205392 0.525281 0.991201
O O11 0.973731 0.637389 0.742663
O O12 0.043559 0.660403 0.894151
O O13 0.815129 0.250000 0.042181
O O14 0.699059 0.160435 0.126849
O O15 0.798300 0.143585 0.978010
O O16 0.871232 0.925980 0.398934
O O17 0.540635 0.250000 0.182720
#
# Coordination Sequence:
#
# PCOD8255009 Si02
#       8
#     8   8   8   8   8   8   8   8
#     4  11  22  36  56  81 114 155 187 234 274 325
#     4  12  22  35  56  87 117 150 180 237 291 343
#     4  11  21  34  55  82 113 149 188 233 283 335
#     4  12  22  35  55  84 121 152 189 225 277 338
#     4  11  24  40  59  79 109 155 197 233 274 333
#     4  11  21  38  56  82 114 144 188 235 287 339
#     4  11  24  39  56  81 117 160 196 225 266 334
#     4  11  22  34  56  86 114 146 184 232 291 339
#
# _framework density 18.212615
#
# number of rings (size 3 to 8) (size 9 to 14) (size 15 to 20)
#    0.000    0.750    5.000    6.000    0.000    2.000 
#    0.000    0.000    0.000    0.750    0.000    1.750 
#    0.000    0.000    0.000    0.000    0.000    0.000 
#
# Total GULP energy -793990.633299 kJ/mol
# GULP energy per Si atom -12406.103645 kJ/mol
# Density = 1.817116 g / cm^3
# Si number density = 18.212615 Si / 1000 Ang^3
#
#
#
# Elastic Constant Matrix: (Units=GPa)
#
#
# Indices 1 2 3 4 5 6 
#
# 1 97.2516 30.0235 26.4477 0.0000 0.0000 0.0000
# 2 30.0235 60.7234 30.9288 0.0000 0.0000 0.0000
# 3 26.4477 30.9288 97.6814 0.0000 0.0000 0.0000
# 4 0.0000 0.0000 0.0000 22.7670 0.0000 0.0000
# 5 0.0000 0.0000 0.0000 0.0000 39.1201 0.0000
# 6 0.0000 0.0000 0.0000 0.0000 0.0000 19.3710
#
#
#
# Elastic Compliance Matrix: (Units=1/GPa)
#
#
# Indices 1 2 3 4 5 6 
#
# 1 0.012363 -0.005255 -0.001683 0.000000 0.000000 0.000000
# 2 -0.005255 0.021868 -0.005501 0.000000 0.000000 0.000000
# 3 -0.001683 -0.005501 0.012435 0.000000 0.000000 0.000000
# 4 0.000000 0.000000 0.000000 0.043923 0.000000 0.000000
# 5 0.000000 0.000000 0.000000 0.000000 0.025562 0.000000
# 6 0.000000 0.000000 0.000000 0.000000 0.000000 0.051624
#
#
# Mechanical properties :
#
#
# Convention : Reuss Voigt Hill
#
# Bulk Modulus (GPa) = 45.89979 47.82851 46.86415
# Shear Modulus (GPa) = 25.01035 27.46871 26.23953
#
# Velocity S-wave (km/s) = 3.70975 3.88780 3.79982
# Velocity P-wave (km/s) = 6.60353 6.81700 6.71111
#
# Compressibility (1/GPa) = 0.02178659
#
# Stress axis : x y z
#
# Youngs Moduli (GPa) = 80.88812 45.72796 80.41801
#
# Poissons Ratio (x) = 0.24031 0.13537
# Poissons Ratio (y) = 0.42508 0.44241
# Poissons Ratio (z) = 0.13616 0.25157
#
# Static dielectric constant tensor:
#      x y z
#    x 3.611500 0.000000 0.000000 
#    y 0.000000 3.140900 0.000000 
#    z 0.000000 0.000000 3.444370 
# 
# 
# High freq. dielectric constant tensor:
#      x y z
#    x 1.730340 0.000000 0.000000 
#    y 0.000000 1.669250 0.000000 
#    z 0.000000 0.000000 1.707150 
# 
# From -- ./inp_files/17343.got.cif
#   From: 2010.03.12/outbox.cif.g09.slc.cpg/sg62_9_cif.got.tgz:17343.got - 2010.04.10 19:12:36.
