data_PCOD8255689
_publ_section_title
;
Structure prediction by ZEFSAII (Michael W. Deem and Ramdas Pophale) SiO2 
 PCOD8255689
Probable space group: C M C M
;
_chemical_formula_sum "Si O2"
_cell_formula_units_Z 96
_cell_length_a 22.821518
_cell_length_b 25.747523
_cell_length_c 9.014767
_cell_angle_alpha 90.000000
_cell_angle_beta 90.000000
_cell_angle_gamma 90.000000
_cell_volume 5297.055090
_symmetry_space_group_name_H-M "C M C M"
_symmetry_group_IT_number 63
_symmetry_cell_setting 'orthorhombic'
loop_
_space_group_symop_operation_xyz
x,y,z
-x,-y,1/2+z
x,-y,-z
-x,y,1/2-z
-x,-y,-z
x,y,1/2-z
-x,y,z
x,-y,1/2+z
1/2+x,1/2+y,z
1/2-x,1/2-y,1/2+z
1/2+x,1/2-y,-z
1/2-x,1/2+y,1/2-z
1/2-x,1/2-y,-z
1/2+x,1/2+y,1/2-z
1/2-x,1/2+y,z
1/2+x,1/2-y,1/2+z
loop_
_atom_site_type_symbol
_atom_site_label
_atom_site_fract_x
_atom_site_fract_y
_atom_site_fract_z
Si Si1 0.716135 0.554967 0.425536
Si Si2 0.432449 0.732178 0.922727
Si Si3 0.331508 0.884024 0.924304
Si Si4 0.732317 0.200338 0.912604
Si Si5 0.350149 0.640121 0.587263
Si Si6 0.067300 0.340693 0.076306
O O1 0.706233 0.500000 0.500000
O O2 0.712257 0.550249 0.250000
O O3 0.781441 0.574852 0.472926
O O4 0.662199 0.591687 0.477835
O O5 0.418077 0.742039 0.750000
O O6 0.500000 0.717815 0.948324
O O7 0.395098 0.682506 0.981876
O O8 0.415425 0.784121 0.011172
O O9 0.340344 0.884860 0.750000
O O10 0.313836 0.827254 0.981207
O O11 0.395152 0.888722 0.003797
O O12 0.704869 0.212996 0.750000
O O13 0.788050 0.165437 0.887193
O O14 0.750000 0.250000 0.000000
O O15 0.373227 0.621103 0.750000
O O16 0.079643 0.339683 0.250000
O O17 0.000000 0.353166 0.039071
#
# Coordination Sequence:
#
# PCOD8255689 Si02
#       6
#    16  16  16  16  16  16
#     4  10  21  36  55  76  96 121 156 202 255 304
#     4   9  17  30  49  73 103 139 173 203 237 282
#     4  10  20  33  49  70  95 126 163 200 243 295
#     4  10  18  27  42  66  97 130 161 197 240 288
#     4   9  18  31  47  69  97 128 162 199 241 289
#     4  10  20  32  48  73 104 137 170 203 239 281
#
# _framework density 18.123277000000002
#
# number of rings (size 3 to 8) (size 9 to 14) (size 15 to 20)
#    0.000    2.333    0.000    3.000    0.000    5.667 
#    0.000    0.000    0.000    1.000    0.000    0.000 
#    0.000    0.000    0.000    0.000    0.000    0.000 
#
# Total GULP energy -594736.125106 kJ/mol
# GULP energy per Si atom -12390.335940 kJ/mol
# Density = 1.808203 g / cm^3
# Si number density = 18.123277 Si / 1000 Ang^3
#
#
#
# Elastic Constant Matrix: (Units=GPa)
#
#
# Indices 1 2 3 4 5 6 
#
# 1 53.9113 -2.6025 12.0337 0.0000 0.0000 0.0000
# 2 -2.6025 39.0535 24.5091 0.0000 0.0000 0.0000
# 3 12.0337 24.5091 60.5778 0.0000 0.0000 0.0000
# 4 0.0000 0.0000 0.0000 23.6100 0.0000 0.0000
# 5 0.0000 0.0000 0.0000 0.0000 26.9449 0.0000
# 6 0.0000 0.0000 0.0000 0.0000 0.0000 24.4233
#
#
#
# Elastic Compliance Matrix: (Units=1/GPa)
#
#
# Indices 1 2 3 4 5 6 
#
# 1 0.020159 0.005169 -0.006096 0.000000 0.000000 0.000000
# 2 0.005169 0.035646 -0.015449 0.000000 0.000000 0.000000
# 3 -0.006096 -0.015449 0.023969 0.000000 0.000000 0.000000
# 4 0.000000 0.000000 0.000000 0.042355 0.000000 0.000000
# 5 0.000000 0.000000 0.000000 0.000000 0.037113 0.000000
# 6 0.000000 0.000000 0.000000 0.000000 0.000000 0.040945
#
#
# Mechanical properties :
#
#
# Convention : Reuss Voigt Hill
#
# Bulk Modulus (GPa) = 21.26627 24.60255 22.93441
# Shear Modulus (GPa) = 20.11171 22.96911 21.54041
#
# Velocity S-wave (km/s) = 3.33486 3.56389 3.45127
# Velocity P-wave (km/s) = 5.15636 5.52627 5.34452
#
# Compressibility (1/GPa) = 0.04702283
#
# Stress axis : x y z
#
# Youngs Moduli (GPa) = 49.60512 28.05396 41.72057
#
# Poissons Ratio (x) = -0.14501 0.25433
# Poissons Ratio (y) = -0.25641 0.64453
# Poissons Ratio (z) = 0.30239 0.43340
#
# Static dielectric constant tensor:
#      x y z
#    x 3.478730 0.000000 0.000000 
#    y 0.000000 2.994250 0.000000 
#    z 0.000000 0.000000 3.882750 
# 
# 
# High freq. dielectric constant tensor:
#      x y z
#    x 1.701770 0.000000 0.000000 
#    y 0.000000 1.666870 0.000000 
#    z 0.000000 0.000000 1.711290 
# 
# From -- ./inp_files/10445.got.cif
#   From: 2010.03.12/outbox.cif.g09.slc.cpg/sg63_6_cif.got.tgz:10445.got - 2010.04.10 19:34:48.
