data_PCOD8255066
_publ_section_title
;
Structure prediction by ZEFSAII (Michael W. Deem and Ramdas Pophale) SiO2 
 PCOD8255066
Probable space group: P N M A
;
_chemical_formula_sum "Si O2"
_cell_formula_units_Z 40
_cell_length_a 13.520899
_cell_length_b 8.815848
_cell_length_c 18.201496
_cell_angle_alpha 90.000000
_cell_angle_beta 90.000000
_cell_angle_gamma 90.000000
_cell_volume 2169.585386
_symmetry_space_group_name_H-M "P N M A"
_symmetry_group_IT_number 62
_symmetry_cell_setting 'orthorhombic'
loop_
_space_group_symop_operation_xyz
x,y,z
1/2-x,-y,1/2+z
1/2+x,1/2-y,1/2-z
-x,1/2+y,-z
-x,-y,-z
1/2+x,y,1/2-z
1/2-x,1/2+y,1/2+z
x,1/2-y,z
loop_
_atom_site_type_symbol
_atom_site_label
_atom_site_fract_x
_atom_site_fract_y
_atom_site_fract_z
Si Si1 0.301364 0.077218 0.135513
Si Si2 0.392616 0.927599 0.998159
Si Si3 0.387619 0.424351 0.292294
Si Si4 0.295919 0.072559 0.858101
Si Si5 0.609224 0.425352 0.279462
O O1 0.314578 0.250000 0.108073
O O2 0.369260 0.046208 0.206289
O O3 0.187054 0.043505 0.155510
O O4 0.333815 0.962949 0.072556
O O5 0.406070 0.750000 0.989718
O O6 0.329233 0.988448 0.930938
O O7 0.500000 0.000000 0.000000
O O8 0.363337 0.250000 0.311371
O O9 0.317682 0.529062 0.341705
O O10 0.500930 0.466613 0.309994
O O11 0.304124 0.250000 0.871521
O O12 0.366613 0.026693 0.791007
O O13 0.614744 0.250000 0.254150
#
# Coordination Sequence:
#
# PCOD8255066 Si02
#       5
#     8   8   8   8   8
#     4   9  18  33  54  82 112 140 176 219 263 315
#     4  12  24  38  56  78 107 141 178 221 271 321
#     4   9  18  35  58  81 107 141 177 215 262 314
#     4  11  22  35  54  81 111 141 178 222 265 314
#     4   9  18  35  59  82 108 143 178 217 265 316
#
# _framework density 18.436703000000001
#
# number of rings (size 3 to 8) (size 9 to 14) (size 15 to 20)
#    0.000    2.000    0.000    6.000    0.000    5.600 
#    0.000    1.000    0.000    0.000    0.000    0.000 
#    0.000    0.000    0.000    0.000    0.000    0.000 
#
# Total GULP energy -496132.900747 kJ/mol
# GULP energy per Si atom -12403.322519 kJ/mol
# Density = 1.839474 g / cm^3
# Si number density = 18.436703 Si / 1000 Ang^3
#
#
#
# Elastic Constant Matrix: (Units=GPa)
#
#
# Indices 1 2 3 4 5 6 
#
# 1 143.3119 52.0567 52.5400 0.0000 0.0000 0.0000
# 2 52.0567 128.7065 55.6966 0.0000 0.0000 0.0000
# 3 52.5400 55.6966 94.6950 0.0000 0.0000 0.0000
# 4 0.0000 0.0000 0.0000 33.4688 0.0000 0.0000
# 5 0.0000 0.0000 0.0000 0.0000 17.2500 0.0000
# 6 0.0000 0.0000 0.0000 0.0000 0.0000 29.6798
#
#
#
# Elastic Compliance Matrix: (Units=1/GPa)
#
#
# Indices 1 2 3 4 5 6 
#
# 1 0.009133 -0.002014 -0.003883 0.000000 0.000000 0.000000
# 2 -0.002014 0.010866 -0.005274 0.000000 0.000000 0.000000
# 3 -0.003883 -0.005274 0.015817 0.000000 0.000000 0.000000
# 4 0.000000 0.000000 0.000000 0.029879 0.000000 0.000000
# 5 0.000000 0.000000 0.000000 0.000000 0.057971 0.000000
# 6 0.000000 0.000000 0.000000 0.000000 0.000000 0.033693
#
#
# Mechanical properties :
#
#
# Convention : Reuss Voigt Hill
#
# Bulk Modulus (GPa) = 74.21290 76.36667 75.28979
# Shear Modulus (GPa) = 27.14579 29.84105 28.49342
#
# Velocity S-wave (km/s) = 3.84132 4.02751 3.93551
# Velocity P-wave (km/s) = 7.74690 7.94598 7.84708
#
# Compressibility (1/GPa) = 0.01347475
#
# Stress axis : x y z
#
# Youngs Moduli (GPa) = 109.49683 92.02751 63.22491
#
# Poissons Ratio (x) = 0.18530 0.24549
# Poissons Ratio (y) = 0.22048 0.33345
# Poissons Ratio (z) = 0.42516 0.48536
#
# Static dielectric constant tensor:
#      x y z
#    x 3.642320 0.000000 0.000000 
#    y 0.000000 3.359130 0.000000 
#    z 0.000000 0.000000 3.255920 
# 
# 
# High freq. dielectric constant tensor:
#      x y z
#    x 1.728150 0.000000 0.000000 
#    y 0.000000 1.713500 0.000000 
#    z 0.000000 0.000000 1.699290 
# 
# From -- ./inp_files/18617.got.cif
#   From: 2010.03.12/outbox.cif.g09.slc.cpg/sg62_10_cif.got.tgz:18617.got - 2010.04.10 19:12:36.
