data_PCOD8255106
_publ_section_title
;
Structure prediction by ZEFSAII (Michael W. Deem and Ramdas Pophale) SiO2 
 PCOD8255106
Probable space group: P N M A
;
_chemical_formula_sum "Si O2"
_cell_formula_units_Z 44
_cell_length_a 17.953437
_cell_length_b 13.456525
_cell_length_c 8.788559
_cell_angle_alpha 90.000000
_cell_angle_beta 90.000000
_cell_angle_gamma 90.000000
_cell_volume 2123.235648
_symmetry_space_group_name_H-M "P N M A"
_symmetry_group_IT_number 62
_symmetry_cell_setting 'orthorhombic'
loop_
_space_group_symop_operation_xyz
x,y,z
1/2-x,-y,1/2+z
1/2+x,1/2-y,1/2-z
-x,1/2+y,-z
-x,-y,-z
1/2+x,y,1/2-z
1/2-x,1/2+y,1/2+z
x,1/2-y,z
loop_
_atom_site_type_symbol
_atom_site_label
_atom_site_fract_x
_atom_site_fract_y
_atom_site_fract_z
Si Si1 0.199824 0.750000 0.384781
Si Si2 0.319136 0.250000 0.230661
Si Si3 0.324006 0.442482 0.734751
Si Si4 0.007507 0.750000 0.731710
Si Si5 0.389158 0.750000 0.016355
Si Si6 0.764079 0.898573 0.562895
Si Si7 0.627080 0.250000 0.638270
Si Si8 0.942757 0.921157 0.930232
O O1 0.215667 0.750000 0.563980
O O2 0.150662 0.657666 0.321590
O O3 0.284965 0.750000 0.324378
O O4 0.405958 0.250000 0.203294
O O5 0.292443 0.345214 0.322901
O O6 0.275627 0.494830 0.864159
O O7 0.272271 0.407624 0.599444
O O8 0.387964 0.514188 0.674045
O O9 0.967794 0.750000 0.568950
O O10 0.988725 0.848958 0.823174
O O11 0.342956 0.654855 0.959367
O O12 0.409837 0.750000 0.194512
O O13 0.601715 0.148378 0.551397
O O14 0.000000 0.000000 0.000000
#
# Coordination Sequence:
#
# PCOD8255106 Si02
#       8
#     4   4   8   4   4   8   4   8
#     4  12  25  42  67 100 131 176 225 292 336 388
#     4  11  24  42  66  96 135 174 224 274 336 409
#     4  12  23  41  68  99 132 171 231 280 338 396
#     4  11  24  46  64  93 141 177 214 279 343 396
#     4  11  22  43  66 100 132 180 213 285 343 396
#     4  11  22  40  68  99 132 171 229 278 332 404
#     4  11  23  47  69  97 139 173 228 282 350 397
#     4  11  25  43  68  96 132 183 223 268 341 420
#
# _framework density 20.723088000000001
#
# number of rings (size 3 to 8) (size 9 to 14) (size 15 to 20)
#    0.000    0.727    3.636    4.909    2.545    2.909 
#    3.273    1.818    0.000    0.000    0.000    0.000 
#    0.000    0.000    0.000    0.000    0.000    0.000 
#
# Total GULP energy -545475.127848 kJ/mol
# GULP energy per Si atom -12397.161997 kJ/mol
# Density = 2.067592 g / cm^3
# Si number density = 20.723088 Si / 1000 Ang^3
#
#
#
# Elastic Constant Matrix: (Units=GPa)
#
#
# Indices 1 2 3 4 5 6 
#
# 1 64.0569 22.8879 3.7885 0.0000 0.0000 0.0000
# 2 22.8879 141.5139 41.2758 0.0000 0.0000 0.0000
# 3 3.7885 41.2758 113.7451 0.0000 0.0000 0.0000
# 4 0.0000 0.0000 0.0000 43.0049 0.0000 0.0000
# 5 0.0000 0.0000 0.0000 0.0000 25.2802 0.0000
# 6 0.0000 0.0000 0.0000 0.0000 0.0000 129.9765
#
#
#
# Elastic Compliance Matrix: (Units=1/GPa)
#
#
# Indices 1 2 3 4 5 6 
#
# 1 0.016591 -0.002821 0.000471 0.000000 0.000000 0.000000
# 2 -0.002821 0.008382 -0.002948 0.000000 0.000000 0.000000
# 3 0.000471 -0.002948 0.009846 0.000000 0.000000 0.000000
# 4 0.000000 0.000000 0.000000 0.023253 0.000000 0.000000
# 5 0.000000 0.000000 0.000000 0.000000 0.039557 0.000000
# 6 0.000000 0.000000 0.000000 0.000000 0.000000 0.007694
#
#
# Mechanical properties :
#
#
# Convention : Reuss Voigt Hill
#
# Bulk Modulus (GPa) = 41.28144 50.58002 45.93073
# Shear Modulus (GPa) = 40.32497 56.40991 48.36744
#
# Velocity S-wave (km/s) = 4.41602 5.22302 4.83638
# Velocity P-wave (km/s) = 6.77978 7.79960 7.30750
#
# Compressibility (1/GPa) = 0.02422396
#
# Stress axis : x y z
#
# Youngs Moduli (GPa) = 60.27313 119.29643 101.56799
#
# Poissons Ratio (x) = 0.33651 -0.04784
# Poissons Ratio (y) = 0.17002 0.29941
# Poissons Ratio (z) = -0.02839 0.35167
#
# Static dielectric constant tensor:
#      x y z
#    x 3.596990 0.000000 0.000000 
#    y 0.000000 4.138030 0.000000 
#    z 0.000000 0.000000 3.898810 
# 
# 
# High freq. dielectric constant tensor:
#      x y z
#    x 1.797500 0.000000 0.000000 
#    y 0.000000 1.831000 0.000000 
#    z 0.000000 0.000000 1.830970 
# 
# From -- ./inp_files/7588.got.cif
#   From: 2010.03.12/outbox.cif.g09.slc.cpg/sg62_4_cif.got.tgz:7588.got - 2010.04.10 19:12:36.
