data_PCOD8255640
_publ_section_title
;
Structure prediction by ZEFSAII (Michael W. Deem and Ramdas Pophale) SiO2 
 PCOD8255640
Probable space group: C M C M
;
_chemical_formula_sum "Si O2"
_cell_formula_units_Z 96
_cell_length_a 9.261507
_cell_length_b 23.204664
_cell_length_c 27.326207
_cell_angle_alpha 90.000000
_cell_angle_beta 90.000000
_cell_angle_gamma 90.000000
_cell_volume 5872.679466
_symmetry_space_group_name_H-M "C M C M"
_symmetry_group_IT_number 63
_symmetry_cell_setting 'orthorhombic'
loop_
_space_group_symop_operation_xyz
x,y,z
-x,-y,1/2+z
x,-y,-z
-x,y,1/2-z
-x,-y,-z
x,y,1/2-z
-x,y,z
x,-y,1/2+z
1/2+x,1/2+y,z
1/2-x,1/2-y,1/2+z
1/2+x,1/2-y,-z
1/2-x,1/2+y,1/2-z
1/2-x,1/2-y,-z
1/2+x,1/2+y,1/2-z
1/2-x,1/2+y,z
1/2+x,1/2-y,1/2+z
loop_
_atom_site_type_symbol
_atom_site_label
_atom_site_fract_x
_atom_site_fract_y
_atom_site_fract_z
Si Si1 0.331307 0.021876 0.750000
Si Si2 0.167034 0.729002 0.567706
Si Si3 0.330712 0.148655 0.656950
Si Si4 0.172415 0.538720 0.045322
Si Si5 0.331990 0.982072 0.356537
Si Si6 0.328452 0.358849 0.250000
Si Si7 0.669169 0.831598 0.967689
O O1 0.500000 0.041847 0.750000
O O2 0.299664 0.989222 0.697885
O O3 0.227220 0.076057 0.750000
O O4 0.209277 0.691457 0.613959
O O5 0.254586 0.788721 0.570618
O O6 0.210583 0.689914 0.521610
O O7 0.000000 0.745272 0.566257
O O8 0.500000 0.149127 0.669911
O O9 0.279542 0.084110 0.642813
O O10 0.237317 0.172154 0.702374
O O11 0.238041 0.516012 0.097456
O O12 0.229260 0.603783 0.038596
O O13 0.000000 0.537707 0.044995
O O14 0.230146 0.500000 0.000000
O O15 0.500000 0.983546 0.367067
O O16 0.500000 0.355701 0.250000
O O17 0.500000 0.829533 0.957517
#
# Coordination Sequence:
#
# PCOD8255640 Si02
#       7
#     8  16  16  16  16   8  16
#     4   8  14  26  42  59  82 113 145 170 198 248
#     4   9  17  29  45  62  83 115 149 176 206 254
#     4   9  16  28  45  63  84 113 147 176 207 253
#     4   9  15  23  39  64  89 109 135 177 222 256
#     4   8  13  22  39  61  82 106 138 174 207 244
#     4  10  18  26  40  65  92 111 133 174 224 260
#     4   9  17  28  43  65  89 112 142 180 218 251
#
# _framework density 16.346882999999998
#
# number of rings (size 3 to 8) (size 9 to 14) (size 15 to 20)
#    0.000    3.167    0.000    2.750    0.000    4.667 
#    0.000    0.000    0.000    5.500    0.000    2.333 
#    0.000    0.000    0.000    0.000    0.000    0.000 
#
# Total GULP energy -594678.145967 kJ/mol
# GULP energy per Si atom -12389.128041 kJ/mol
# Density = 1.630968 g / cm^3
# Si number density = 16.346883 Si / 1000 Ang^3
#
#
#
# Elastic Constant Matrix: (Units=GPa)
#
#
# Indices 1 2 3 4 5 6 
#
# 1 35.5171 27.3419 32.2425 0.0000 0.0000 0.0000
# 2 27.3419 112.4643 70.4809 0.0000 0.0000 0.0000
# 3 32.2425 70.4809 146.1691 0.0000 0.0000 0.0000
# 4 0.0000 0.0000 0.0000 24.4765 0.0000 0.0000
# 5 0.0000 0.0000 0.0000 0.0000 15.3645 0.0000
# 6 0.0000 0.0000 0.0000 0.0000 0.0000 17.9565
#
#
#
# Elastic Compliance Matrix: (Units=1/GPa)
#
#
# Indices 1 2 3 4 5 6 
#
# 1 0.037548 -0.005643 -0.005561 0.000000 0.000000 0.000000
# 2 -0.005643 0.013590 -0.005308 0.000000 0.000000 0.000000
# 3 -0.005561 -0.005308 0.010628 0.000000 0.000000 0.000000
# 4 0.000000 0.000000 0.000000 0.040856 0.000000 0.000000
# 5 0.000000 0.000000 0.000000 0.000000 0.065085 0.000000
# 6 0.000000 0.000000 0.000000 0.000000 0.000000 0.055690
#
#
# Mechanical properties :
#
#
# Convention : Reuss Voigt Hill
#
# Bulk Modulus (GPa) = 34.79410 61.58679 48.19045
# Shear Modulus (GPa) = 18.79672 22.49850 20.64761
#
# Velocity S-wave (km/s) = 3.39465 3.71390 3.55786
# Velocity P-wave (km/s) = 6.05771 7.49316 6.81335
#
# Compressibility (1/GPa) = 0.02874050
#
# Stress axis : x y z
#
# Youngs Moduli (GPa) = 26.63225 73.58151 94.09344
#
# Poissons Ratio (x) = 0.41524 0.52329
# Poissons Ratio (y) = 0.15029 0.49947
# Poissons Ratio (z) = 0.14811 0.39059
#
# Static dielectric constant tensor:
#      x y z
#    x 2.715510 0.000000 0.000000 
#    y 0.000000 3.013310 0.000000 
#    z 0.000000 0.000000 3.566880 
# 
# 
# High freq. dielectric constant tensor:
#      x y z
#    x 1.588580 0.000000 0.000000 
#    y 0.000000 1.600430 0.000000 
#    z 0.000000 0.000000 1.643420 
# 
# From -- ./inp_files/67294.got.cif
#   From: 2010.03.12/outbox.cif.g09.slc.cpg/sg63_34_cif.got.tgz:67294.got - 2010.04.10 19:34:48.
