data_PCOD8255452
_publ_section_title
;
Structure prediction by ZEFSAII (Michael W. Deem and Ramdas Pophale) SiO2 
 PCOD8255452
Probable space group: C M C M
;
_chemical_formula_sum "Si O2"
_cell_formula_units_Z 112
_cell_length_a 22.496833
_cell_length_b 17.156129
_cell_length_c 18.782431
_cell_angle_alpha 90.000000
_cell_angle_beta 90.000000
_cell_angle_gamma 90.000000
_cell_volume 7249.240192
_symmetry_space_group_name_H-M "C M C M"
_symmetry_group_IT_number 63
_symmetry_cell_setting 'orthorhombic'
loop_
_space_group_symop_operation_xyz
x,y,z
-x,-y,1/2+z
x,-y,-z
-x,y,1/2-z
-x,-y,-z
x,y,1/2-z
-x,y,z
x,-y,1/2+z
1/2+x,1/2+y,z
1/2-x,1/2-y,1/2+z
1/2+x,1/2-y,-z
1/2-x,1/2+y,1/2-z
1/2-x,1/2-y,-z
1/2+x,1/2+y,1/2-z
1/2-x,1/2+y,z
1/2+x,1/2-y,1/2+z
loop_
_atom_site_type_symbol
_atom_site_label
_atom_site_fract_x
_atom_site_fract_y
_atom_site_fract_z
Si Si1 0.806664 0.080842 0.590624
Si Si2 0.189051 0.611346 0.831210
Si Si3 0.569776 0.859118 0.831906
Si Si4 0.643856 0.019727 0.078916
Si Si5 0.355346 0.712829 0.667890
Si Si6 0.774113 0.222330 0.169034
Si Si7 0.776869 0.084098 0.066986
O O1 0.756511 0.089673 0.650573
O O2 0.861279 0.134742 0.618622
O O3 0.783860 0.112456 0.514212
O O4 0.821337 0.988724 0.583351
O O5 0.177066 0.588126 0.750000
O O6 0.143465 0.562537 0.879279
O O7 0.181647 0.704372 0.842849
O O8 0.587231 0.877910 0.750000
O O9 0.500000 0.861182 0.843887
O O10 0.598561 0.922290 0.883512
O O11 0.592312 0.772592 0.852038
O O12 0.709282 0.056997 0.078679
O O13 0.621260 0.000000 0.000000
O O14 0.358679 0.687337 0.750000
O O15 0.293281 0.755205 0.649950
O O16 0.777509 0.192407 0.250000
O O17 0.795891 0.153557 0.118280
#
# Coordination Sequence:
#
# PCOD8255452 Si02
#       7
#    16  16  16  16  16  16  16
#     4   9  17  27  39  64  91 120 144 176 211 265
#     4   9  17  28  41  61  88 120 154 179 209 262
#     4  10  21  35  50  66  84 113 154 193 226 261
#     4  11  19  31  45  64  90 120 149 182 224 262
#     4   9  17  29  44  62  87 117 148 181 221 260
#     4   9  17  26  40  62  87 118 150 176 211 257
#     4  10  17  27  41  65  95 121 149 174 207 266
#
# _framework density 15.449895
#
# number of rings (size 3 to 8) (size 9 to 14) (size 15 to 20)
#    0.000    2.429    4.286    1.714    0.000    6.571 
#    0.000    0.000    0.000    0.000    0.000    2.000 
#    0.000    1.143    0.000    5.143    0.000    0.000 
#
# Total GULP energy -694119.374427 kJ/mol
# GULP energy per Si atom -12394.988829 kJ/mol
# Density = 1.541473 g / cm^3
# Si number density = 15.449895 Si / 1000 Ang^3
#
#
#
# Elastic Constant Matrix: (Units=GPa)
#
#
# Indices 1 2 3 4 5 6 
#
# 1 41.6075 36.2727 32.2644 0.0000 0.0000 0.0000
# 2 36.2727 102.2661 71.8370 0.0000 0.0000 0.0000
# 3 32.2644 71.8370 109.2096 0.0000 0.0000 0.0000
# 4 0.0000 0.0000 0.0000 33.5428 0.0000 0.0000
# 5 0.0000 0.0000 0.0000 0.0000 10.7305 0.0000
# 6 0.0000 0.0000 0.0000 0.0000 0.0000 11.9860
#
#
#
# Elastic Compliance Matrix: (Units=1/GPa)
#
#
# Indices 1 2 3 4 5 6 
#
# 1 0.035767 -0.009785 -0.004131 0.000000 0.000000 0.000000
# 2 -0.009785 0.020855 -0.010827 0.000000 0.000000 0.000000
# 3 -0.004131 -0.010827 0.017499 0.000000 0.000000 0.000000
# 4 0.000000 0.000000 0.000000 0.029813 0.000000 0.000000
# 5 0.000000 0.000000 0.000000 0.000000 0.093192 0.000000
# 6 0.000000 0.000000 0.000000 0.000000 0.000000 0.083431
#
#
# Mechanical properties :
#
#
# Convention : Reuss Voigt Hill
#
# Bulk Modulus (GPa) = 40.59116 59.31459 49.95288
# Shear Modulus (GPa) = 14.78179 18.76579 16.77379
#
# Velocity S-wave (km/s) = 3.09650 3.48892 3.29856
# Velocity P-wave (km/s) = 6.25414 7.39629 6.84906
#
# Compressibility (1/GPa) = 0.02463591
#
# Stress axis : x y z
#
# Youngs Moduli (GPa) = 27.95836 47.95127 57.14606
#
# Poissons Ratio (x) = 0.46919 0.23605
# Poissons Ratio (y) = 0.27357 0.61873
# Poissons Ratio (z) = 0.11549 0.51917
#
# Static dielectric constant tensor:
#      x y z
#    x 2.485270 0.000000 0.000000 
#    y 0.000000 3.233220 0.000000 
#    z 0.000000 0.000000 3.100230 
# 
# 
# High freq. dielectric constant tensor:
#      x y z
#    x 1.521580 0.000000 0.000000 
#    y 0.000000 1.602210 0.000000 
#    z 0.000000 0.000000 1.605970 
# 
# From -- ./inp_files/47317.got.cif
#   From: 2010.03.12/outbox.cif.g09.slc.cpg/sg63_24_cif.got.tgz:47317.got - 2010.04.10 19:34:48.
