data_PCOD8255740
_publ_section_title
;
Structure prediction by ZEFSAII (Michael W. Deem and Ramdas Pophale) SiO2 
 PCOD8255740
Probable space group: C M C M
;
_chemical_formula_sum "Si O2"
_cell_formula_units_Z 96
_cell_length_a 20.914699
_cell_length_b 30.386915
_cell_length_c 9.267291
_cell_angle_alpha 90.000000
_cell_angle_beta 90.000000
_cell_angle_gamma 90.000000
_cell_volume 5889.670926
_symmetry_space_group_name_H-M "C M C M"
_symmetry_group_IT_number 63
_symmetry_cell_setting 'orthorhombic'
loop_
_space_group_symop_operation_xyz
x,y,z
-x,-y,1/2+z
x,-y,-z
-x,y,1/2-z
-x,-y,-z
x,y,1/2-z
-x,y,z
x,-y,1/2+z
1/2+x,1/2+y,z
1/2-x,1/2-y,1/2+z
1/2+x,1/2-y,-z
1/2-x,1/2+y,1/2-z
1/2-x,1/2-y,-z
1/2+x,1/2+y,1/2-z
1/2-x,1/2+y,z
1/2+x,1/2-y,1/2+z
loop_
_atom_site_type_symbol
_atom_site_label
_atom_site_fract_x
_atom_site_fract_y
_atom_site_fract_z
Si Si1 0.431242 0.427242 0.413034
Si Si2 0.094814 0.843715 0.585846
Si Si3 0.237246 0.871643 0.585606
Si Si4 0.293897 0.457187 0.419524
Si Si5 0.570055 0.257414 0.415133
Si Si6 0.797984 0.282949 0.580553
O O1 0.420261 0.410384 0.250000
O O2 0.500000 0.452946 0.425162
O O3 0.437873 0.385730 0.515668
O O4 0.370005 0.456522 0.456072
O O5 0.072533 0.841895 0.750000
O O6 0.170566 0.846591 0.569747
O O7 0.069260 0.800692 0.509885
O O8 0.248099 0.887931 0.750000
O O9 0.241211 0.913762 0.480758
O O10 0.287852 0.834253 0.538114
O O11 0.265690 0.500000 0.500000
O O12 0.279860 0.460745 0.250000
O O13 0.580667 0.271623 0.250000
O O14 0.500000 0.234211 0.434241
O O15 0.628286 0.225956 0.463399
O O16 0.785029 0.276448 0.750000
O O17 0.750000 0.250000 0.500000
#
# Coordination Sequence:
#
# PCOD8255740 Si02
#       6
#    16  16  16  16  16  16
#     4   9  18  31  44  59  83 117 155 191 232 281
#     4  10  18  28  43  64  89 119 158 201 238 270
#     4   9  18  32  48  67  90 118 155 197 235 275
#     4  10  20  33  49  67  87 114 147 190 239 284
#     4  10  20  31  44  65  95 129 161 194 235 282
#     4  10  19  32  50  70  95 127 163 200 236 278
#
# _framework density 16.299721000000002
#
# number of rings (size 3 to 8) (size 9 to 14) (size 15 to 20)
#    0.000    2.333    1.667    1.500    0.000    5.000 
#    0.000    0.000    0.000    0.000    0.000    0.000 
#    0.000    0.667    0.000    1.167    0.000    1.667 
#
# Total GULP energy -594885.255278 kJ/mol
# GULP energy per Si atom -12393.442818 kJ/mol
# Density = 1.626262 g / cm^3
# Si number density = 16.299721 Si / 1000 Ang^3
#
#
#
# Elastic Constant Matrix: (Units=GPa)
#
#
# Indices 1 2 3 4 5 6 
#
# 1 73.9122 45.0552 30.6906 0.0000 0.0000 0.0000
# 2 45.0552 97.5420 50.6585 0.0000 0.0000 0.0000
# 3 30.6906 50.6585 73.6111 0.0000 0.0000 0.0000
# 4 0.0000 0.0000 0.0000 24.3478 0.0000 0.0000
# 5 0.0000 0.0000 0.0000 0.0000 13.1517 0.0000
# 6 0.0000 0.0000 0.0000 0.0000 0.0000 -1.9350
#
#
#
# Elastic Compliance Matrix: (Units=1/GPa)
#
#
# Indices 1 2 3 4 5 6 
#
# 1 0.019239 -0.007347 -0.002966 0.000000 0.000000 0.000000
# 2 -0.007347 0.018759 -0.009847 0.000000 0.000000 0.000000
# 3 -0.002966 -0.009847 0.021598 0.000000 0.000000 0.000000
# 4 0.000000 0.000000 0.000000 0.041071 0.000000 0.000000
# 5 0.000000 0.000000 0.000000 0.000000 0.076036 0.000000
# 6 0.000000 0.000000 0.000000 0.000000 0.000000 -0.516784
#
#
# Mechanical properties :
#
#
# Convention : Reuss Voigt Hill
#
# Bulk Modulus (GPa) = 51.87179 55.31932 53.59555
# Shear Modulus (GPa) = -17.04532 15.02364 -1.01084
#
# Velocity S-wave (km/s) = -3.23730 3.03926 -0.78836
# Velocity P-wave (km/s) = 4.23312 6.80652 5.66780
#
# Compressibility (1/GPa) = 0.01927830
#
# Stress axis : x y z
#
# Youngs Moduli (GPa) = 51.97705 53.30633 46.30048
#
# Poissons Ratio (x) = 0.39162 0.13731
# Poissons Ratio (y) = 0.38185 0.45593
# Poissons Ratio (z) = 0.15414 0.52491
#
# Static dielectric constant tensor:
#      x y z
#    x 3.133870 0.000000 0.000000 
#    y 0.000000 2.904170 0.000000 
#    z 0.000000 0.000000 3.156670 
# 
# 
# High freq. dielectric constant tensor:
#      x y z
#    x 1.601470 0.000000 0.000000 
#    y 0.000000 1.604040 0.000000 
#    z 0.000000 0.000000 1.635630 
# 
# From -- ./inp_files/8531.got.cif
#   From: 2010.03.12/outbox.cif.g09.slc.cpg/sg63_5_cif.got.tgz:8531.got - 2010.04.10 19:34:48.
