data_PCOD8255477
_publ_section_title
;
Structure prediction by ZEFSAII (Michael W. Deem and Ramdas Pophale) SiO2 
 PCOD8255477
Probable space group: C M C M
;
_chemical_formula_sum "Si O2"
_cell_formula_units_Z 112
_cell_length_a 12.555838
_cell_length_b 28.688391
_cell_length_c 19.817370
_cell_angle_alpha 90.000000
_cell_angle_beta 90.000000
_cell_angle_gamma 90.000000
_cell_volume 7138.351231
_symmetry_space_group_name_H-M "C M C M"
_symmetry_group_IT_number 63
_symmetry_cell_setting 'orthorhombic'
loop_
_space_group_symop_operation_xyz
x,y,z
-x,-y,1/2+z
x,-y,-z
-x,y,1/2-z
-x,-y,-z
x,y,1/2-z
-x,y,z
x,-y,1/2+z
1/2+x,1/2+y,z
1/2-x,1/2-y,1/2+z
1/2+x,1/2-y,-z
1/2-x,1/2+y,1/2-z
1/2-x,1/2-y,-z
1/2+x,1/2+y,1/2-z
1/2-x,1/2+y,z
1/2+x,1/2-y,1/2+z
loop_
_atom_site_type_symbol
_atom_site_label
_atom_site_fract_x
_atom_site_fract_y
_atom_site_fract_z
Si Si1 0.125041 0.059070 0.171665
Si Si2 0.258051 0.289278 0.093139
Si Si3 0.623005 0.623311 0.559544
Si Si4 0.624525 0.796140 0.961511
Si Si5 0.125935 0.979979 0.430380
Si Si6 0.619356 0.729119 0.324907
Si Si7 0.305623 0.355338 0.589597
O O1 0.153920 0.052927 0.250000
O O2 0.193109 0.101306 0.140667
O O3 0.000000 0.069891 0.161403
O O4 0.158775 0.011779 0.133192
O O5 0.311358 0.339534 0.103815
O O6 0.351454 0.253208 0.073696
O O7 0.200116 0.271734 0.160779
O O8 0.165625 0.292247 0.037498
O O9 0.500000 0.628084 0.578793
O O10 0.668532 0.572525 0.580088
O O11 0.636277 0.631342 0.479700
O O12 0.500000 0.806955 0.959671
O O13 0.684320 0.838886 0.923664
O O14 0.000000 0.977830 0.438376
O O15 0.175315 0.000000 0.500000
O O16 0.643723 0.709759 0.250000
O O17 0.500000 0.748675 0.329712
O O18 0.631118 0.687780 0.378496
#
# Coordination Sequence:
#
# PCOD8255477 Si02
#       7
#    16  16  16  16  16  16  16
#     4  10  18  28  44  68  97 123 148 185 233 282
#     4   9  18  28  44  66  87 119 152 184 219 264
#     4  10  17  27  46  69  93 120 151 186 227 272
#     4   9  17  29  44  65  93 117 146 188 226 263
#     4   9  16  27  43  65  94 123 149 183 227 276
#     4  10  19  30  44  63  90 119 148 188 232 273
#     4  10  18  27  45  70  91 117 150 185 231 278
#
# _framework density 15.689897999999999
#
# number of rings (size 3 to 8) (size 9 to 14) (size 15 to 20)
#    0.000    2.429    1.429    3.429    0.000    1.143 
#    0.000    0.714    0.000   15.429    0.000    9.000 
#    0.000    0.000    0.000    0.000    0.000    0.000 
#
# Total GULP energy -694263.625250 kJ/mol
# GULP energy per Si atom -12397.564737 kJ/mol
# Density = 1.565419 g / cm^3
# Si number density = 15.689898 Si / 1000 Ang^3
#
#
#
# Elastic Constant Matrix: (Units=GPa)
#
#
# Indices 1 2 3 4 5 6 
#
# 1 74.3966 35.3176 20.4439 0.0000 0.0000 0.0000
# 2 35.3176 126.0742 37.3285 0.0000 0.0000 0.0000
# 3 20.4439 37.3285 67.0967 0.0000 0.0000 0.0000
# 4 0.0000 0.0000 0.0000 24.1241 0.0000 0.0000
# 5 0.0000 0.0000 0.0000 0.0000 15.4696 0.0000
# 6 0.0000 0.0000 0.0000 0.0000 0.0000 21.0921
#
#
#
# Elastic Compliance Matrix: (Units=1/GPa)
#
#
# Indices 1 2 3 4 5 6 
#
# 1 0.015943 -0.003625 -0.002841 0.000000 0.000000 0.000000
# 2 -0.003625 0.010320 -0.004637 0.000000 0.000000 0.000000
# 3 -0.002841 -0.004637 0.018349 0.000000 0.000000 0.000000
# 4 0.000000 0.000000 0.000000 0.041452 0.000000 0.000000
# 5 0.000000 0.000000 0.000000 0.000000 0.064643 0.000000
# 6 0.000000 0.000000 0.000000 0.000000 0.000000 0.047411
#
#
# Mechanical properties :
#
#
# Convention : Reuss Voigt Hill
#
# Bulk Modulus (GPa) = 44.63001 50.41639 47.52320
# Shear Modulus (GPa) = 21.94968 23.76900 22.85934
#
# Velocity S-wave (km/s) = 3.74434 3.89643 3.82114
# Velocity P-wave (km/s) = 6.87024 7.24194 7.05854
#
# Compressibility (1/GPa) = 0.02240645
#
# Stress axis : x y z
#
# Youngs Moduli (GPa) = 62.72334 96.89672 54.49810
#
# Poissons Ratio (x) = 0.35125 0.15483
# Poissons Ratio (y) = 0.22737 0.25271
# Poissons Ratio (z) = 0.17820 0.44931
#
# Static dielectric constant tensor:
#      x y z
#    x 2.705730 0.000000 0.000000 
#    y 0.000000 3.172560 0.000000 
#    z 0.000000 0.000000 2.945410 
# 
# 
# High freq. dielectric constant tensor:
#      x y z
#    x 1.566670 0.000000 0.000000 
#    y 0.000000 1.605070 0.000000 
#    z 0.000000 0.000000 1.591840 
# 
# From -- ./inp_files/53330.got.cif
#   From: 2010.03.12/outbox.cif.g09.slc.cpg/sg63_27_cif.got.tgz:53330.got - 2010.04.10 19:34:48.
