data_PCOD8255377
_publ_section_title
;
Structure prediction by ZEFSAII (Michael W. Deem and Ramdas Pophale) SiO2 
 PCOD8255377
Probable space group: C M C M
;
_chemical_formula_sum "Si O2"
_cell_formula_units_Z 112
_cell_length_a 16.752974
_cell_length_b 21.312706
_cell_length_c 17.575267
_cell_angle_alpha 90.000000
_cell_angle_beta 90.000000
_cell_angle_gamma 90.000000
_cell_volume 6275.270339
_symmetry_space_group_name_H-M "C M C M"
_symmetry_group_IT_number 63
_symmetry_cell_setting 'orthorhombic'
loop_
_space_group_symop_operation_xyz
x,y,z
-x,-y,1/2+z
x,-y,-z
-x,y,1/2-z
-x,-y,-z
x,y,1/2-z
-x,y,z
x,-y,1/2+z
1/2+x,1/2+y,z
1/2-x,1/2-y,1/2+z
1/2+x,1/2-y,-z
1/2-x,1/2+y,1/2-z
1/2-x,1/2-y,-z
1/2+x,1/2+y,1/2-z
1/2-x,1/2+y,z
1/2+x,1/2-y,1/2+z
loop_
_atom_site_type_symbol
_atom_site_label
_atom_site_fract_x
_atom_site_fract_y
_atom_site_fract_z
Si Si1 0.640405 0.085677 0.534818
Si Si2 0.268303 0.897571 0.665956
Si Si3 0.823747 0.271760 0.445384
Si Si4 0.685476 0.432526 0.985706
Si Si5 0.698048 0.756258 0.837671
Si Si6 0.407944 0.315757 0.457137
Si Si7 0.588373 0.972478 0.618354
O O1 0.638990 0.159969 0.544211
O O2 0.731220 0.063562 0.529396
O O3 0.591907 0.066650 0.459912
O O4 0.601977 0.047258 0.604905
O O5 0.227897 0.894950 0.750000
O O6 0.201391 0.916260 0.603559
O O7 0.307117 0.830418 0.644469
O O8 0.341637 0.946513 0.672044
O O9 0.750000 0.250000 0.500000
O O10 0.788137 0.265863 0.360468
O O11 0.895620 0.224538 0.465309
O O12 0.643884 0.500000 0.000000
O O13 0.630082 0.383243 0.028433
O O14 0.683481 0.740434 0.750000
O O15 0.631332 0.719371 0.885288
O O16 0.500000 0.324632 0.438831
O O17 0.500000 0.963164 0.654368
#
# Coordination Sequence:
#
# PCOD8255377 Si02
#       7
#    16  16  16  16  16  16  16
#     4  10  16  28  52  75  99 142 182 224 253 315
#     4  10  20  34  56  82 108 145 186 226 279 336
#     4  10  17  32  54  77 104 141 190 224 259 321
#     4  11  18  35  58  78 105 142 194 234 265 330
#     4  10  20  35  58  84 112 145 181 227 279 337
#     4  11  22  35  55  84 114 143 180 236 288 325
#     4  10  19  30  46  78 113 140 174 220 278 325
#
# _framework density 17.847836000000001
#
# number of rings (size 3 to 8) (size 9 to 14) (size 15 to 20)
#    0.000    1.714    7.143    3.429    0.000    3.714 
#    0.000    4.286    0.000    1.714    0.000    0.000 
#    0.000    0.000    0.000    0.000    0.000    0.000 
#
# Total GULP energy -693891.746768 kJ/mol
# GULP energy per Si atom -12390.924049 kJ/mol
# Density = 1.780721 g / cm^3
# Si number density = 17.847836 Si / 1000 Ang^3
#
#
#
# Elastic Constant Matrix: (Units=GPa)
#
#
# Indices 1 2 3 4 5 6 
#
# 1 67.7580 32.9027 42.1103 0.0000 0.0000 0.0000
# 2 32.9027 139.3495 36.8537 0.0000 0.0000 0.0000
# 3 42.1103 36.8537 83.9323 0.0000 0.0000 0.0000
# 4 0.0000 0.0000 0.0000 20.1241 0.0000 0.0000
# 5 0.0000 0.0000 0.0000 0.0000 11.6920 0.0000
# 6 0.0000 0.0000 0.0000 0.0000 0.0000 21.3480
#
#
#
# Elastic Compliance Matrix: (Units=1/GPa)
#
#
# Indices 1 2 3 4 5 6 
#
# 1 0.022250 -0.002604 -0.010020 0.000000 0.000000 0.000000
# 2 -0.002604 0.008424 -0.002392 0.000000 0.000000 0.000000
# 3 -0.010020 -0.002392 0.017992 0.000000 0.000000 0.000000
# 4 0.000000 0.000000 0.000000 0.049692 0.000000 0.000000
# 5 0.000000 0.000000 0.000000 0.000000 0.085529 0.000000
# 6 0.000000 0.000000 0.000000 0.000000 0.000000 0.046843
#
#
# Mechanical properties :
#
#
# Convention : Reuss Voigt Hill
#
# Bulk Modulus (GPa) = 53.66651 57.19703 55.43177
# Shear Modulus (GPa) = 18.72856 22.57769 20.65313
#
# Velocity S-wave (km/s) = 3.24288 3.56056 3.40542
# Velocity P-wave (km/s) = 6.64499 7.00143 6.82554
#
# Compressibility (1/GPa) = 0.01863359
#
# Stress axis : x y z
#
# Youngs Moduli (GPa) = 44.94405 118.71287 55.58011
#
# Poissons Ratio (x) = 0.30908 0.55691
# Poissons Ratio (y) = 0.11702 0.13297
# Poissons Ratio (z) = 0.45034 0.28402
#
# Static dielectric constant tensor:
#      x y z
#    x 3.146430 0.000000 0.000000 
#    y 0.000000 3.035050 0.000000 
#    z 0.000000 0.000000 3.235360 
# 
# 
# High freq. dielectric constant tensor:
#      x y z
#    x 1.659830 0.000000 0.000000 
#    y 0.000000 1.705540 0.000000 
#    z 0.000000 0.000000 1.666510 
# 
# From -- ./inp_files/46116.got.cif
#   From: 2010.03.12/outbox.cif.g09.slc.cpg/sg63_24_cif.got.tgz:46116.got - 2010.04.10 19:34:48.
