data_PCOD8255232
_publ_section_title
;
Structure prediction by ZEFSAII (Michael W. Deem and Ramdas Pophale) SiO2 
 PCOD8255232
Probable space group: P N M A
;
_chemical_formula_sum "Si O2"
_cell_formula_units_Z 48
_cell_length_a 9.761705
_cell_length_b 13.994068
_cell_length_c 18.374050
_cell_angle_alpha 90.000000
_cell_angle_beta 90.000000
_cell_angle_gamma 90.000000
_cell_volume 2510.004805
_symmetry_space_group_name_H-M "P N M A"
_symmetry_group_IT_number 62
_symmetry_cell_setting 'orthorhombic'
loop_
_space_group_symop_operation_xyz
x,y,z
1/2-x,-y,1/2+z
1/2+x,1/2-y,1/2-z
-x,1/2+y,-z
-x,-y,-z
1/2+x,y,1/2-z
1/2-x,1/2+y,1/2+z
x,1/2-y,z
loop_
_atom_site_type_symbol
_atom_site_label
_atom_site_fract_x
_atom_site_fract_y
_atom_site_fract_z
Si Si1 0.631653 0.750000 0.895905
Si Si2 0.433073 0.250000 0.370606
Si Si3 0.645586 0.043668 0.980962
Si Si4 0.799973 0.450102 0.329629
Si Si5 0.010772 0.550446 0.801179
Si Si6 0.105425 0.044759 0.943729
Si Si7 0.844509 0.750000 0.538775
Si Si8 0.141081 0.250000 0.998497
O O1 0.680228 0.658834 0.851728
O O2 0.468478 0.750000 0.903854
O O3 0.699940 0.750000 0.976572
O O4 0.442672 0.342219 0.319697
O O5 0.292495 0.250000 0.414476
O O6 0.557465 0.250000 0.426659
O O7 0.692667 0.017886 0.899828
O O8 0.646749 0.157944 0.986925
O O9 0.500000 0.000000 0.000000
O O10 0.746490 0.998977 0.040614
O O11 0.652112 0.459372 0.291726
O O12 0.918067 0.481466 0.273750
O O13 0.061425 0.477887 0.862475
O O14 0.105753 0.158714 0.950346
O O15 0.000000 0.000000 0.000000
#
# Coordination Sequence:
#
# PCOD8255232 Si02
#       8
#     4   4   8   8   8   8   4   4
#     4  12  21  42  63  96 132 166 212 272 331 382
#     4  12  21  38  67  96 126 162 214 272 328 390
#     4  12  23  42  67  95 132 169 219 271 316 385
#     4  12  26  43  63  94 138 174 212 266 327 392
#     4  12  26  42  63  96 134 175 213 265 333 389
#     4  12  21  42  67  93 125 170 219 267 318 381
#     4  12  24  36  70 104 123 166 219 274 324 374
#     4  12  20  40  70  94 123 164 223 274 313 374
#
# _framework density 19.123469
#
# number of rings (size 3 to 8) (size 9 to 14) (size 15 to 20)
#    0.000    0.000   10.000    0.500    4.667    0.000 
#    0.000    0.833    0.000    0.000    0.000    0.000 
#    0.000    0.000    0.000    0.000    0.000    0.000 
#
# Total GULP energy -595505.714964 kJ/mol
# GULP energy per Si atom -12406.369062 kJ/mol
# Density = 1.907994 g / cm^3
# Si number density = 19.123469 Si / 1000 Ang^3
#
#
#
# Elastic Constant Matrix: (Units=GPa)
#
#
# Indices 1 2 3 4 5 6 
#
# 1 132.8816 30.1626 33.0675 0.0000 0.0000 0.0000
# 2 30.1626 126.5791 27.4771 0.0000 0.0000 0.0000
# 3 33.0675 27.4771 79.1073 0.0000 0.0000 0.0000
# 4 0.0000 0.0000 0.0000 3.9611 0.0000 0.0000
# 5 0.0000 0.0000 0.0000 0.0000 40.1762 0.0000
# 6 0.0000 0.0000 0.0000 0.0000 0.0000 20.9948
#
#
#
# Elastic Compliance Matrix: (Units=1/GPa)
#
#
# Indices 1 2 3 4 5 6 
#
# 1 0.008615 -0.001375 -0.003124 0.000000 0.000000 0.000000
# 2 -0.001375 0.008764 -0.002469 0.000000 0.000000 0.000000
# 3 -0.003124 -0.002469 0.014804 0.000000 0.000000 0.000000
# 4 0.000000 0.000000 0.000000 0.252452 0.000000 0.000000
# 5 0.000000 0.000000 0.000000 0.000000 0.024890 0.000000
# 6 0.000000 0.000000 0.000000 0.000000 0.000000 0.047631
#
#
# Mechanical properties :
#
#
# Convention : Reuss Voigt Hill
#
# Bulk Modulus (GPa) = 54.80136 57.77580 56.28858
# Shear Modulus (GPa) = 13.25646 29.55048 21.40347
#
# Velocity S-wave (km/s) = 2.63573 3.93523 3.34911
# Velocity P-wave (km/s) = 6.16292 7.13622 6.66735
#
# Compressibility (1/GPa) = 0.01824772
#
# Stress axis : x y z
#
# Youngs Moduli (GPa) = 116.07858 114.10532 67.54732
#
# Poissons Ratio (x) = 0.15687 0.21099
# Poissons Ratio (y) = 0.15958 0.16680
# Poissons Ratio (z) = 0.36258 0.28177
#
# Static dielectric constant tensor:
#      x y z
#    x 3.710940 0.000000 0.000000 
#    y 0.000000 4.558330 0.000000 
#    z 0.000000 0.000000 3.710470 
# 
# 
# High freq. dielectric constant tensor:
#      x y z
#    x 1.770110 0.000000 0.000000 
#    y 0.000000 1.743010 0.000000 
#    z 0.000000 0.000000 1.726790 
# 
# From -- ./inp_files/22256.got.cif
#   From: 2010.03.12/outbox.cif.g09.slc.cpg/sg62_12_cif.got.tgz:22256.got - 2010.04.10 19:12:36.
