data_PCOD8255873
_publ_section_title
;
Structure prediction by ZEFSAII (Michael W. Deem and Ramdas Pophale) SiO2 
 PCOD8255873
Probable space group: C M C M
;
_chemical_formula_sum "Si O2"
_cell_formula_units_Z 96
_cell_length_a 8.934937
_cell_length_b 23.746618
_cell_length_c 26.483954
_cell_angle_alpha 90.000000
_cell_angle_beta 90.000000
_cell_angle_gamma 90.000000
_cell_volume 5619.220646
_symmetry_space_group_name_H-M "C M C M"
_symmetry_group_IT_number 63
_symmetry_cell_setting 'orthorhombic'
loop_
_space_group_symop_operation_xyz
x,y,z
-x,-y,1/2+z
x,-y,-z
-x,y,1/2-z
-x,-y,-z
x,y,1/2-z
-x,y,z
x,-y,1/2+z
1/2+x,1/2+y,z
1/2-x,1/2-y,1/2+z
1/2+x,1/2-y,-z
1/2-x,1/2+y,1/2-z
1/2-x,1/2-y,-z
1/2+x,1/2+y,1/2-z
1/2-x,1/2+y,z
1/2+x,1/2-y,1/2+z
loop_
_atom_site_type_symbol
_atom_site_label
_atom_site_fract_x
_atom_site_fract_y
_atom_site_fract_z
Si Si1 0.332204 0.331834 0.114618
Si Si2 0.177934 0.731583 0.447549
Si Si3 0.328458 0.999277 0.620744
Si Si4 0.178267 0.920101 0.307245
Si Si5 0.831116 0.929497 0.039170
Si Si6 0.327576 0.896059 0.559518
O O1 0.500000 0.320417 0.133103
O O2 0.259924 0.271930 0.098160
O O3 0.254573 0.366910 0.160575
O O4 0.327062 0.367961 0.063585
O O5 0.250000 0.750000 0.500000
O O6 0.223154 0.668316 0.431859
O O7 0.000000 0.739110 0.452843
O O8 0.500000 0.014494 0.630981
O O9 0.235305 0.021103 0.669008
O O10 0.276290 0.029208 0.569613
O O11 0.307296 0.931962 0.611436
O O12 0.234790 0.914638 0.250000
O O13 0.000000 0.921280 0.311143
O O14 0.000000 0.953587 0.039716
O O15 0.774670 0.925340 0.982322
O O16 0.500000 0.897954 0.541444
#
# Coordination Sequence:
#
# PCOD8255873 Si02
#       6
#    16  16  16  16  16  16
#     4   8  15  28  46  69  94 119 152 196 238 275
#     4  10  18  30  46  66  96 132 166 194 227 275
#     4  10  20  32  45  67  98 128 158 194 240 290
#     4   9  18  34  55  75  92 114 152 204 255 295
#     4  10  18  29  46  68  94 127 165 201 234 275
#     4  10  20  30  43  65  98 135 164 191 230 282
#
# _framework density 17.084219999999998
#
# number of rings (size 3 to 8) (size 9 to 14) (size 15 to 20)
#    0.000    2.500    1.667    2.500    0.000    3.667 
#    0.000    0.000    0.000    1.000    0.000    4.667 
#    0.000    0.000    0.000    0.000    0.000    0.000 
#
# Total GULP energy -594775.447338 kJ/mol
# GULP energy per Si atom -12391.155153 kJ/mol
# Density = 1.704534 g / cm^3
# Si number density = 17.084220 Si / 1000 Ang^3
#
#
#
# Elastic Constant Matrix: (Units=GPa)
#
#
# Indices 1 2 3 4 5 6 
#
# 1 30.5759 17.6207 21.7827 0.0000 0.0000 0.0000
# 2 17.6207 108.1672 57.6501 0.0000 0.0000 0.0000
# 3 21.7827 57.6501 112.8210 0.0000 0.0000 0.0000
# 4 0.0000 0.0000 0.0000 15.0591 0.0000 0.0000
# 5 0.0000 0.0000 0.0000 0.0000 20.7081 0.0000
# 6 0.0000 0.0000 0.0000 0.0000 0.0000 17.8718
#
#
#
# Elastic Compliance Matrix: (Units=1/GPa)
#
#
# Indices 1 2 3 4 5 6 
#
# 1 0.038707 -0.003192 -0.005842 0.000000 0.000000 0.000000
# 2 -0.003192 0.012968 -0.006010 0.000000 0.000000 0.000000
# 3 -0.005842 -0.006010 0.013063 0.000000 0.000000 0.000000
# 4 0.000000 0.000000 0.000000 0.066405 0.000000 0.000000
# 5 0.000000 0.000000 0.000000 0.000000 0.048290 0.000000
# 6 0.000000 0.000000 0.000000 0.000000 0.000000 0.055954
#
#
# Mechanical properties :
#
#
# Convention : Reuss Voigt Hill
#
# Bulk Modulus (GPa) = 28.86067 49.51899 39.18983
# Shear Modulus (GPa) = 18.04885 21.02851 19.53868
#
# Velocity S-wave (km/s) = 3.25385 3.51219 3.38549
# Velocity P-wave (km/s) = 5.57195 6.74503 6.18636
#
# Compressibility (1/GPa) = 0.03464923
#
# Stress axis : x y z
#
# Youngs Moduli (GPa) = 25.83516 77.11150 76.55304
#
# Poissons Ratio (x) = 0.24611 0.44725
# Poissons Ratio (y) = 0.08246 0.46011
# Poissons Ratio (z) = 0.15094 0.46347
#
# Static dielectric constant tensor:
#      x y z
#    x 3.078120 0.000000 0.000000 
#    y 0.000000 3.515170 0.000000 
#    z 0.000000 0.000000 3.062000 
# 
# 
# High freq. dielectric constant tensor:
#      x y z
#    x 1.644910 0.000000 0.000000 
#    y 0.000000 1.664670 0.000000 
#    z 0.000000 0.000000 1.626080 
# 
# From -- ./inp_files/67192.got.cif
#   From: 2010.03.12/outbox.cif.g09.slc.cpg/sg63_34_cif.got.tgz:67192.got - 2010.04.10 19:34:48.
