data_PCOD8255355
_publ_section_title
;
Structure prediction by ZEFSAII (Michael W. Deem and Ramdas Pophale) SiO2 
 PCOD8255355
Probable space group: C M C M
;
_chemical_formula_sum "Si O2"
_cell_formula_units_Z 128
_cell_length_a 18.320225
_cell_length_b 18.544976
_cell_length_c 23.253305
_cell_angle_alpha 90.000000
_cell_angle_beta 90.000000
_cell_angle_gamma 90.000000
_cell_volume 7900.266958
_symmetry_space_group_name_H-M "C M C M"
_symmetry_group_IT_number 63
_symmetry_cell_setting 'orthorhombic'
loop_
_space_group_symop_operation_xyz
x,y,z
-x,-y,1/2+z
x,-y,-z
-x,y,1/2-z
-x,-y,-z
x,y,1/2-z
-x,y,z
x,-y,1/2+z
1/2+x,1/2+y,z
1/2-x,1/2-y,1/2+z
1/2+x,1/2-y,-z
1/2-x,1/2+y,1/2-z
1/2-x,1/2-y,-z
1/2+x,1/2+y,1/2-z
1/2-x,1/2+y,z
1/2+x,1/2-y,1/2+z
loop_
_atom_site_type_symbol
_atom_site_label
_atom_site_fract_x
_atom_site_fract_y
_atom_site_fract_z
Si Si1 0.915319 0.495957 0.182321
Si Si2 0.276356 0.509089 0.431479
Si Si3 0.237899 0.247215 0.905369
Si Si4 0.680889 0.110021 0.612183
Si Si5 0.082470 0.648264 0.992039
Si Si6 0.146794 0.200883 0.492349
Si Si7 0.577643 0.442244 0.548253
Si Si8 0.343338 0.883312 0.608938
O O1 0.905835 0.498414 0.250000
O O2 0.871001 0.425578 0.160275
O O3 0.883338 0.571743 0.158858
O O4 0.000000 0.488072 0.164401
O O5 0.279486 0.500000 0.500000
O O6 0.252730 0.437603 0.398073
O O7 0.357699 0.531106 0.409287
O O8 0.223095 0.573073 0.416701
O O9 0.288743 0.190020 0.869593
O O10 0.288826 0.296034 0.945662
O O11 0.189426 0.305454 0.868632
O O12 0.183271 0.200272 0.944635
O O13 0.636285 0.108784 0.552411
O O14 0.091144 0.733392 0.984353
O O15 0.000000 0.625039 0.977692
O O16 0.099522 0.627006 0.057394
O O17 0.100424 0.129814 0.484864
O O18 0.562986 0.500000 0.500000
O O19 0.500000 0.430332 0.581584
#
# Coordination Sequence:
#
# PCOD8255355 Si02
#       8
#    16  16  16  16  16  16  16  16
#     4  10  22  38  52  69  97 129 160 202 256 298
#     4  10  16  27  41  63  92 125 160 192 227 275
#     4   9  16  28  45  70  90 124 159 192 229 277
#     4  10  19  30  50  71  97 129 160 195 236 285
#     4  10  18  27  44  74 101 125 158 192 230 282
#     4   9  16  26  40  60 100 130 150 181 231 280
#     4  10  18  24  35  54  85 129 165 185 214 267
#     4  10  18  30  50  70  96 129 160 195 237 286
#
# _framework density 16.201983999999999
#
# number of rings (size 3 to 8) (size 9 to 14) (size 15 to 20)
#    0.000    2.250    2.500    3.375    0.000    0.000 
#    0.000    2.500    0.000    0.750    0.000    0.000 
#    0.000    8.000    0.000    0.000    0.000    0.625 
#
# Total GULP energy -792913.183394 kJ/mol
# GULP energy per Si atom -12389.268491 kJ/mol
# Density = 1.616511 g / cm^3
# Si number density = 16.201984 Si / 1000 Ang^3
#
#
#
# Elastic Constant Matrix: (Units=GPa)
#
#
# Indices 1 2 3 4 5 6 
#
# 1 118.2984 44.6516 25.1672 0.0000 0.0000 0.0000
# 2 44.6516 102.4769 29.2529 0.0000 0.0000 0.0000
# 3 25.1672 29.2529 45.7667 0.0000 0.0000 0.0000
# 4 0.0000 0.0000 0.0000 12.4557 0.0000 0.0000
# 5 0.0000 0.0000 0.0000 0.0000 15.2265 0.0000
# 6 0.0000 0.0000 0.0000 0.0000 0.0000 0.2120
#
#
#
# Elastic Compliance Matrix: (Units=1/GPa)
#
#
# Indices 1 2 3 4 5 6 
#
# 1 0.010558 -0.003600 -0.003505 0.000000 0.000000 0.000000
# 2 -0.003600 0.013163 -0.006434 0.000000 0.000000 0.000000
# 3 -0.003505 -0.006434 0.027890 0.000000 0.000000 0.000000
# 4 0.000000 0.000000 0.000000 0.080285 0.000000 0.000000
# 5 0.000000 0.000000 0.000000 0.000000 0.065675 0.000000
# 6 0.000000 0.000000 0.000000 0.000000 0.000000 4.716684
#
#
# Mechanical properties :
#
#
# Convention : Reuss Voigt Hill
#
# Bulk Modulus (GPa) = 40.76081 51.63171 46.19626
# Shear Modulus (GPa) = 1.01020 16.74353 8.87687
#
# Velocity S-wave (km/s) = 0.79048 3.21818 2.34324
# Velocity P-wave (km/s) = 5.10350 6.76355 5.99130
#
# Compressibility (1/GPa) = 0.02453337
#
# Stress axis : x y z
#
# Youngs Moduli (GPa) = 94.71930 75.96766 35.85528
#
# Poissons Ratio (x) = 0.27346 0.12566
# Poissons Ratio (y) = 0.34096 0.23070
# Poissons Ratio (z) = 0.33197 0.48880
#
# Static dielectric constant tensor:
#      x y z
#    x 3.474550 0.000000 0.000000 
#    y 0.000000 3.411240 0.000000 
#    z 0.000000 0.000000 2.642080 
# 
# 
# High freq. dielectric constant tensor:
#      x y z
#    x 1.640020 0.000000 0.000000 
#    y 0.000000 1.641540 0.000000 
#    z 0.000000 0.000000 1.547320 
# 
# From -- ./inp_files/64080.got.cif
#   From: 2010.03.12/outbox.cif.g09.slc.cpg/sg63_33_cif.got.tgz:64080.got - 2010.04.10 19:34:48.
