data_PCOD8255541
_publ_section_title
;
Structure prediction by ZEFSAII (Michael W. Deem and Ramdas Pophale) SiO2 
 PCOD8255541
Probable space group: C M C M
;
_chemical_formula_sum "Si O2"
_cell_formula_units_Z 80
_cell_length_a 18.978520
_cell_length_b 32.947576
_cell_length_c 8.986051
_cell_angle_alpha 90.000000
_cell_angle_beta 90.000000
_cell_angle_gamma 90.000000
_cell_volume 5618.943813
_symmetry_space_group_name_H-M "C M C M"
_symmetry_group_IT_number 63
_symmetry_cell_setting 'orthorhombic'
loop_
_space_group_symop_operation_xyz
x,y,z
-x,-y,1/2+z
x,-y,-z
-x,y,1/2-z
-x,-y,-z
x,y,1/2-z
-x,y,z
x,-y,1/2+z
1/2+x,1/2+y,z
1/2-x,1/2-y,1/2+z
1/2+x,1/2-y,-z
1/2-x,1/2+y,1/2-z
1/2-x,1/2-y,-z
1/2+x,1/2+y,1/2-z
1/2-x,1/2+y,z
1/2+x,1/2-y,1/2+z
loop_
_atom_site_type_symbol
_atom_site_label
_atom_site_fract_x
_atom_site_fract_y
_atom_site_fract_z
Si Si1 0.782508 0.193185 0.921544
Si Si2 0.640605 0.235124 0.576369
Si Si3 0.000000 0.168331 0.574240
Si Si4 0.632816 0.382061 0.422963
Si Si5 0.000000 0.740169 0.073495
Si Si6 0.418993 0.541766 0.424585
O O1 0.800415 0.203605 0.750000
O O2 0.701030 0.201826 0.958165
O O3 0.797600 0.145402 0.952296
O O4 0.833956 0.221033 0.019112
O O5 0.624423 0.238498 0.750000
O O6 0.570636 0.219589 0.491865
O O7 0.931791 0.144792 0.516995
O O8 0.000000 0.171363 0.750000
O O9 0.000000 0.213811 0.511586
O O10 0.624322 0.393443 0.250000
O O11 0.633777 0.423504 0.516248
O O12 0.000000 0.735891 0.250000
O O13 0.395469 0.500000 0.500000
O O14 0.409519 0.537089 0.250000
O O15 0.500000 0.552215 0.467787
#
# Coordination Sequence:
#
# PCOD8255541 Si02
#       6
#    16  16   8  16   8  16
#     4   9  18  31  44  59  83 113 140 170 215 260
#     4  10  19  29  42  62  84 107 141 181 213 247
#     4   9  16  25  40  58  77 105 142 173 204 249
#     4  10  17  29  45  59  78 109 141 172 210 252
#     4  11  19  31  45  58  80 113 146 177 219 260
#     4  10  20  31  42  59  81 106 136 173 212 248
#
# _framework density 14.237551
#
# number of rings (size 3 to 8) (size 9 to 14) (size 15 to 20)
#    0.000    2.200    3.000    1.500    0.000    2.400 
#    0.000    0.000    0.000    0.000    0.000    0.000 
#    0.000    0.000    0.000    0.900    0.000   10.000 
#
# Total GULP energy -495946.033361 kJ/mol
# GULP energy per Si atom -12398.650834 kJ/mol
# Density = 1.420515 g / cm^3
# Si number density = 14.237551 Si / 1000 Ang^3
#
#
#
# Elastic Constant Matrix: (Units=GPa)
#
#
# Indices 1 2 3 4 5 6 
#
# 1 88.9258 38.4436 41.6012 0.0000 0.0000 0.0000
# 2 38.4436 87.6879 35.4168 0.0000 0.0000 0.0000
# 3 41.6012 35.4168 69.2217 0.0000 0.0000 0.0000
# 4 0.0000 0.0000 0.0000 21.9131 0.0000 0.0000
# 5 0.0000 0.0000 0.0000 0.0000 20.4121 0.0000
# 6 0.0000 0.0000 0.0000 0.0000 0.0000 20.4250
#
#
#
# Elastic Compliance Matrix: (Units=1/GPa)
#
#
# Indices 1 2 3 4 5 6 
#
# 1 0.016753 -0.004132 -0.007954 0.000000 0.000000 0.000000
# 2 -0.004132 0.015394 -0.005393 0.000000 0.000000 0.000000
# 3 -0.007954 -0.005393 0.021986 0.000000 0.000000 0.000000
# 4 0.000000 0.000000 0.000000 0.045635 0.000000 0.000000
# 5 0.000000 0.000000 0.000000 0.000000 0.048991 0.000000
# 6 0.000000 0.000000 0.000000 0.000000 0.000000 0.048960
#
#
# Mechanical properties :
#
#
# Convention : Reuss Voigt Hill
#
# Bulk Modulus (GPa) = 52.15252 52.97318 52.56285
# Shear Modulus (GPa) = 20.91469 21.24162 21.07816
#
# Velocity S-wave (km/s) = 3.83689 3.86676 3.85185
# Velocity P-wave (km/s) = 7.50591 7.56460 7.53531
#
# Compressibility (1/GPa) = 0.01917453
#
# Stress axis : x y z
#
# Youngs Moduli (GPa) = 59.69188 64.96136 45.48398
#
# Poissons Ratio (x) = 0.26842 0.36178
# Poissons Ratio (y) = 0.24665 0.24529
# Poissons Ratio (z) = 0.47479 0.35032
#
# Static dielectric constant tensor:
#      x y z
#    x 2.773650 0.000000 0.000000 
#    y 0.000000 2.680850 0.000000 
#    z 0.000000 0.000000 2.751180 
# 
# 
# High freq. dielectric constant tensor:
#      x y z
#    x 1.519910 0.000000 0.000000 
#    y 0.000000 1.516450 0.000000 
#    z 0.000000 0.000000 1.548310 
# 
# From -- ./inp_files/8928.got.cif
#   From: 2010.03.12/outbox.cif.g09.slc.cpg/sg63_5_cif.got.tgz:8928.got - 2010.04.10 19:34:48.
