data_PCOD8255250
_publ_section_title
;
Structure prediction by ZEFSAII (Michael W. Deem and Ramdas Pophale) SiO2 
 PCOD8255250
Probable space group: P N M A
;
_chemical_formula_sum "Si O2"
_cell_formula_units_Z 28
_cell_length_a 15.419360
_cell_length_b 5.166411
_cell_length_c 16.561534
_cell_angle_alpha 90.000000
_cell_angle_beta 90.000000
_cell_angle_gamma 90.000000
_cell_volume 1319.337361
_symmetry_space_group_name_H-M "P N M A"
_symmetry_group_IT_number 62
_symmetry_cell_setting 'orthorhombic'
loop_
_space_group_symop_operation_xyz
x,y,z
1/2-x,-y,1/2+z
1/2+x,1/2-y,1/2-z
-x,1/2+y,-z
-x,-y,-z
1/2+x,y,1/2-z
1/2-x,1/2+y,1/2+z
x,1/2-y,z
loop_
_atom_site_type_symbol
_atom_site_label
_atom_site_fract_x
_atom_site_fract_y
_atom_site_fract_z
Si Si1 0.506534 0.750000 0.172303
Si Si2 0.401221 0.250000 0.122166
Si Si3 0.121922 0.750000 0.187250
Si Si4 0.441194 0.250000 0.507960
Si Si5 0.836354 0.250000 0.553537
Si Si6 0.728311 0.750000 0.590487
Si Si7 0.232069 0.250000 0.225038
O O1 0.452176 0.499890 0.150825
O O2 0.528497 0.750000 0.267808
O O3 0.599308 0.750000 0.128835
O O4 0.305533 0.250000 0.157660
O O5 0.395668 0.250000 0.025844
O O6 0.173942 0.499887 0.214445
O O7 0.109081 0.750000 0.092130
O O8 0.500000 0.500000 0.500000
O O9 0.371123 0.250000 0.436757
O O10 0.776170 0.500849 0.554787
O O11 0.725339 0.750000 0.686936
#
# Coordination Sequence:
#
# PCOD8255250 Si02
#       7
#     4   4   4   4   4   4   4
#     4  12  24  42  66 103 134 171 211 282 334 399
#     4  12  26  40  70  98 134 167 223 274 334 395
#     4  12  25  47  69  96 139 179 226 271 345 395
#     4  12  28  46  72 103 140 181 231 289 340 401
#     4  12  23  46  67  98 135 175 218 271 342 405
#     4  12  24  44  69  97 133 180 230 269 335 408
#     4  12  24  45  69  99 131 185 227 274 326 407
#
# _framework density 21.222774999999999
#
# number of rings (size 3 to 8) (size 9 to 14) (size 15 to 20)
#    0.000    0.000    2.857    7.714    4.000    0.000 
#    0.000    0.000    0.000    0.000    0.000    0.000 
#    0.000    0.000    0.000    0.000    0.000    0.000 
#
# Total GULP energy -347456.376401 kJ/mol
# GULP energy per Si atom -12409.156300 kJ/mol
# Density = 2.117447 g / cm^3
# Si number density = 21.222775 Si / 1000 Ang^3
#
#
#
# Elastic Constant Matrix: (Units=GPa)
#
#
# Indices 1 2 3 4 5 6 
#
# 1 80.6200 49.2199 19.4188 0.0000 0.0000 0.0000
# 2 49.2199 193.1393 21.6940 0.0000 0.0000 0.0000
# 3 19.4188 21.6940 118.1652 0.0000 0.0000 0.0000
# 4 0.0000 0.0000 0.0000 50.9541 0.0000 0.0000
# 5 0.0000 0.0000 0.0000 0.0000 46.9518 0.0000
# 6 0.0000 0.0000 0.0000 0.0000 0.0000 81.8471
#
#
#
# Elastic Compliance Matrix: (Units=1/GPa)
#
#
# Indices 1 2 3 4 5 6 
#
# 1 0.015058 -0.003634 -0.001807 0.000000 0.000000 0.000000
# 2 -0.003634 0.006164 -0.000534 0.000000 0.000000 0.000000
# 3 -0.001807 -0.000534 0.008858 0.000000 0.000000 0.000000
# 4 0.000000 0.000000 0.000000 0.019626 0.000000 0.000000
# 5 0.000000 0.000000 0.000000 0.000000 0.021298 0.000000
# 6 0.000000 0.000000 0.000000 0.000000 0.000000 0.012218
#
#
# Mechanical properties :
#
#
# Convention : Reuss Voigt Hill
#
# Bulk Modulus (GPa) = 55.16472 63.62111 59.39292
# Shear Modulus (GPa) = 49.39913 56.05671 52.72792
#
# Velocity S-wave (km/s) = 4.82980 5.14498 4.98988
# Velocity P-wave (km/s) = 7.55991 8.08315 7.82590
#
# Compressibility (1/GPa) = 0.01812753
#
# Stress axis : x y z
#
# Youngs Moduli (GPa) = 66.40950 162.23679 112.89427
#
# Poissons Ratio (x) = 0.58964 0.20404
# Poissons Ratio (y) = 0.24136 0.06033
# Poissons Ratio (z) = 0.12002 0.08669
#
# Static dielectric constant tensor:
#      x y z
#    x 3.960490 0.000000 0.000000 
#    y 0.000000 4.100350 0.000000 
#    z 0.000000 0.000000 4.163220 
# 
# 
# High freq. dielectric constant tensor:
#      x y z
#    x 1.843290 0.000000 0.000000 
#    y 0.000000 1.859010 0.000000 
#    z 0.000000 0.000000 1.850540 
# 
# From -- ./inp_files/17506.got.cif
#   From: 2010.03.12/outbox.cif.g09.slc.cpg/sg62_9_cif.got.tgz:17506.got - 2010.04.10 19:12:36.
