data_PCOD8255521
_publ_section_title
;
Structure prediction by ZEFSAII (Michael W. Deem and Ramdas Pophale) SiO2 
 PCOD8255521
Probable space group: C M C M
;
_chemical_formula_sum "Si O2"
_cell_formula_units_Z 104
_cell_length_a 19.973561
_cell_length_b 21.607432
_cell_length_c 14.208658
_cell_angle_alpha 90.000000
_cell_angle_beta 90.000000
_cell_angle_gamma 90.000000
_cell_volume 6132.135124
_symmetry_space_group_name_H-M "C M C M"
_symmetry_group_IT_number 63
_symmetry_cell_setting 'orthorhombic'
loop_
_space_group_symop_operation_xyz
x,y,z
-x,-y,1/2+z
x,-y,-z
-x,y,1/2-z
-x,-y,-z
x,y,1/2-z
-x,y,z
x,-y,1/2+z
1/2+x,1/2+y,z
1/2-x,1/2-y,1/2+z
1/2+x,1/2-y,-z
1/2-x,1/2+y,1/2-z
1/2-x,1/2-y,-z
1/2+x,1/2+y,1/2-z
1/2-x,1/2+y,z
1/2+x,1/2-y,1/2+z
loop_
_atom_site_type_symbol
_atom_site_label
_atom_site_fract_x
_atom_site_fract_y
_atom_site_fract_z
Si Si1 0.500000 0.173561 0.855284
Si Si2 0.759147 0.181549 0.964111
Si Si3 0.000000 0.592356 0.136911
Si Si4 0.642323 0.887677 0.141414
Si Si5 0.370882 0.976842 0.856814
Si Si6 0.778117 0.637183 0.146260
Si Si7 0.867842 0.757960 0.357242
Si Si8 0.000000 0.726941 0.047324
O O1 0.500000 0.202804 0.750000
O O2 0.565561 0.131968 0.870440
O O3 0.500000 0.227313 0.933433
O O4 0.691499 0.157045 0.915833
O O5 0.820441 0.184900 0.891025
O O6 0.750000 0.250000 0.000000
O O7 0.774737 0.142322 0.059960
O O8 0.935821 0.555250 0.098085
O O9 0.000000 0.658441 0.088771
O O10 0.000000 0.602355 0.250000
O O11 0.665211 0.885324 0.250000
O O12 0.648289 0.957067 0.096462
O O13 0.390526 0.993169 0.750000
O O14 0.308800 0.930725 0.861270
O O15 0.744522 0.645902 0.250000
O O16 0.834946 0.689845 0.132267
O O17 0.886855 0.770758 0.250000
O O18 0.934427 0.762868 0.418834
#
# Coordination Sequence:
#
# PCOD8255521 Si02
#       8
#     8  16   8  16  16  16  16   8
#     4  10  21  34  44  62  98 140 175 206 236 283
#     4  10  20  33  47  66  91 128 171 211 249 300
#     4  10  17  28  48  72 102 132 163 205 252 290
#     4  10  20  34  49  67  98 136 173 209 250 297
#     4   9  17  29  46  70  99 131 166 206 248 296
#     4   9  17  30  46  68  95 125 161 204 244 290
#     4  10  19  32  51  72  95 122 160 211 264 301
#     4  12  20  32  51  74  96 127 172 218 250 300
#
# _framework density 16.959835999999999
#
# number of rings (size 3 to 8) (size 9 to 14) (size 15 to 20)
#    0.000    2.154    1.538    3.462    0.000    3.077 
#    0.000    1.538    0.000    0.000    0.000    0.000 
#    0.000    2.462    0.000    5.923    0.000   21.000 
#
# Total GULP energy -644421.678065 kJ/mol
# GULP energy per Si atom -12392.724578 kJ/mol
# Density = 1.692123 g / cm^3
# Si number density = 16.959836 Si / 1000 Ang^3
#
#
#
# Elastic Constant Matrix: (Units=GPa)
#
#
# Indices 1 2 3 4 5 6 
#
# 1 74.9171 48.4668 41.1575 0.0000 0.0000 0.0000
# 2 48.4668 62.0605 33.8511 0.0000 0.0000 0.0000
# 3 41.1575 33.8511 109.0100 0.0000 0.0000 0.0000
# 4 0.0000 0.0000 0.0000 23.9436 0.0000 0.0000
# 5 0.0000 0.0000 0.0000 0.0000 25.6699 0.0000
# 6 0.0000 0.0000 0.0000 0.0000 0.0000 19.5871
#
#
#
# Elastic Compliance Matrix: (Units=1/GPa)
#
#
# Indices 1 2 3 4 5 6 
#
# 1 0.028841 -0.019966 -0.004689 0.000000 0.000000 0.000000
# 2 -0.019966 0.033221 -0.002778 0.000000 0.000000 0.000000
# 3 -0.004689 -0.002778 0.011806 0.000000 0.000000 0.000000
# 4 0.000000 0.000000 0.000000 0.041765 0.000000 0.000000
# 5 0.000000 0.000000 0.000000 0.000000 0.038956 0.000000
# 6 0.000000 0.000000 0.000000 0.000000 0.000000 0.051054
#
#
# Mechanical properties :
#
#
# Convention : Reuss Voigt Hill
#
# Bulk Modulus (GPa) = 52.62409 54.77092 53.69751
# Shear Modulus (GPa) = 18.73759 22.00761 20.37260
#
# Velocity S-wave (km/s) = 3.32749 3.60617 3.46963
# Velocity P-wave (km/s) = 6.77192 7.05010 6.91241
#
# Compressibility (1/GPa) = 0.01900270
#
# Stress axis : x y z
#
# Youngs Moduli (GPa) = 34.67311 30.10137 84.69932
#
# Poissons Ratio (x) = 0.60100 0.39715
# Poissons Ratio (y) = 0.69228 0.23529
# Poissons Ratio (z) = 0.16258 0.08362
#
# Static dielectric constant tensor:
#      x y z
#    x 3.296290 0.000000 0.000000 
#    y 0.000000 3.121670 0.000000 
#    z 0.000000 0.000000 3.767100 
# 
# 
# High freq. dielectric constant tensor:
#      x y z
#    x 1.616530 0.000000 0.000000 
#    y 0.000000 1.619890 0.000000 
#    z 0.000000 0.000000 1.679260 
# 
# From -- ./inp_files/34373.got.cif
#   From: 2010.03.12/outbox.cif.g09.slc.cpg/sg63_18_cif.got.tgz:34373.got - 2010.04.10 19:34:48.
