data_PCOD8255422
_publ_section_title
;
Structure prediction by ZEFSAII (Michael W. Deem and Ramdas Pophale) SiO2 
 PCOD8255422
Probable space group: C M C M
;
_chemical_formula_sum "Si O2"
_cell_formula_units_Z 120
_cell_length_a 16.342959
_cell_length_b 20.983612
_cell_length_c 25.220469
_cell_angle_alpha 90.000000
_cell_angle_beta 90.000000
_cell_angle_gamma 90.000000
_cell_volume 8648.964149
_symmetry_space_group_name_H-M "C M C M"
_symmetry_group_IT_number 63
_symmetry_cell_setting 'orthorhombic'
loop_
_space_group_symop_operation_xyz
x,y,z
-x,-y,1/2+z
x,-y,-z
-x,y,1/2-z
-x,-y,-z
x,y,1/2-z
-x,y,z
x,-y,1/2+z
1/2+x,1/2+y,z
1/2-x,1/2-y,1/2+z
1/2+x,1/2-y,-z
1/2-x,1/2+y,1/2-z
1/2-x,1/2-y,-z
1/2+x,1/2+y,1/2-z
1/2-x,1/2+y,z
1/2+x,1/2-y,1/2+z
loop_
_atom_site_type_symbol
_atom_site_label
_atom_site_fract_x
_atom_site_fract_y
_atom_site_fract_z
Si Si1 0.405485 0.328356 0.688890
Si Si2 0.193275 0.770872 0.598085
Si Si3 0.406451 0.787838 0.497726
Si Si4 0.402898 0.472709 0.808281
Si Si5 0.305147 0.500000 0.000000
Si Si6 0.236136 0.371021 0.524462
Si Si7 0.335654 0.687594 0.928789
Si Si8 0.403633 0.441586 0.096377
O O1 0.391900 0.309871 0.750000
O O2 0.500000 0.320467 0.672812
O O3 0.352084 0.280591 0.653631
O O4 0.376367 0.400677 0.678008
O O5 0.130910 0.739489 0.556478
O O6 0.225244 0.838989 0.576699
O O7 0.271899 0.725674 0.608549
O O8 0.500000 0.806622 0.488000
O O9 0.358731 0.851312 0.517116
O O10 0.400688 0.735232 0.544344
O O11 0.368481 0.491992 0.750000
O O12 0.500000 0.475867 0.806568
O O13 0.368449 0.520932 0.852501
O O14 0.246411 0.552777 0.027007
O O15 0.363237 0.530783 0.956246
O O16 0.283499 0.344178 0.474525
O O17 0.382624 0.633106 0.895748
O O18 0.500000 0.451128 0.090676
#
# Coordination Sequence:
#
# PCOD8255422 Si02
#       8
#    16  16  16  16   8  16  16  16
#     4   9  16  25  38  57  77  96 124 160 188 214
#     4   9  15  26  39  53  74 102 125 148 190 232
#     4   9  15  25  40  55  72  98 130 155 181 223
#     4   8  15  26  37  51  73  98 121 146 179 218
#     4  10  17  26  37  56  80  98 120 156 195 226
#     4   8  16  26  37  53  76 100 120 149 188 226
#     4   8  16  26  36  54  78  97 120 155 187 218
#     4  10  17  25  39  57  76 100 127 154 184 221
#
# _framework density 13.874494
#
# number of rings (size 3 to 8) (size 9 to 14) (size 15 to 20)
#    0.000    3.200    0.000    4.200    0.000    0.000 
#    0.000    5.000    0.000    0.000    0.000    0.000 
#    0.000    4.800    0.000    0.000    0.000   21.067 
#
# Total GULP energy -743615.981936 kJ/mol
# GULP energy per Si atom -12393.599699 kJ/mol
# Density = 1.384291 g / cm^3
# Si number density = 13.874494 Si / 1000 Ang^3
#
#
#
# Elastic Constant Matrix: (Units=GPa)
#
#
# Indices 1 2 3 4 5 6 
#
# 1 67.1080 33.1005 25.3371 0.0000 0.0000 0.0000
# 2 33.1005 79.6747 32.3515 0.0000 0.0000 0.0000
# 3 25.3371 32.3515 70.3605 0.0000 0.0000 0.0000
# 4 0.0000 0.0000 0.0000 21.6753 0.0000 0.0000
# 5 0.0000 0.0000 0.0000 0.0000 17.0612 0.0000
# 6 0.0000 0.0000 0.0000 0.0000 0.0000 21.2050
#
#
#
# Elastic Compliance Matrix: (Units=1/GPa)
#
#
# Indices 1 2 3 4 5 6 
#
# 1 0.019653 -0.006506 -0.004086 0.000000 0.000000 0.000000
# 2 -0.006506 0.017586 -0.005743 0.000000 0.000000 0.000000
# 3 -0.004086 -0.005743 0.018325 0.000000 0.000000 0.000000
# 4 0.000000 0.000000 0.000000 0.046136 0.000000 0.000000
# 5 0.000000 0.000000 0.000000 0.000000 0.058613 0.000000
# 6 0.000000 0.000000 0.000000 0.000000 0.000000 0.047159
#
#
# Mechanical properties :
#
#
# Convention : Reuss Voigt Hill
#
# Bulk Modulus (GPa) = 43.67975 44.30237 43.99106
# Shear Modulus (GPa) = 20.17997 20.41190 20.29594
#
# Velocity S-wave (km/s) = 3.81788 3.83976 3.82884
# Velocity P-wave (km/s) = 7.14040 7.18738 7.16393
#
# Compressibility (1/GPa) = 0.02289390
#
# Stress axis : x y z
#
# Youngs Moduli (GPa) = 50.88316 56.86414 54.57171
#
# Poissons Ratio (x) = 0.36994 0.22297
# Poissons Ratio (y) = 0.33103 0.31341
# Poissons Ratio (z) = 0.20790 0.32658
#
# Static dielectric constant tensor:
#      x y z
#    x 2.602530 0.000000 0.000000 
#    y 0.000000 2.998040 0.000000 
#    z 0.000000 0.000000 2.682120 
# 
# 
# High freq. dielectric constant tensor:
#      x y z
#    x 1.508130 0.000000 0.000000 
#    y 0.000000 1.523430 0.000000 
#    z 0.000000 0.000000 1.512220 
# 
# From -- ./inp_files/63269.got.cif
#   From: 2010.03.12/outbox.cif.g09.slc.cpg/sg63_32_cif.got.tgz:63269.got - 2010.04.10 19:34:48.
