data_PCOD8255176
_publ_section_title
;
Structure prediction by ZEFSAII (Michael W. Deem and Ramdas Pophale) SiO2 
 PCOD8255176
Probable space group: P N M A
;
_chemical_formula_sum "Si O2"
_cell_formula_units_Z 32
_cell_length_a 9.203725
_cell_length_b 23.281700
_cell_length_c 6.724718
_cell_angle_alpha 90.000000
_cell_angle_beta 90.000000
_cell_angle_gamma 90.000000
_cell_volume 1440.961574
_symmetry_space_group_name_H-M "P N M A"
_symmetry_group_IT_number 62
_symmetry_cell_setting 'orthorhombic'
loop_
_space_group_symop_operation_xyz
x,y,z
1/2-x,-y,1/2+z
1/2+x,1/2-y,1/2-z
-x,1/2+y,-z
-x,-y,-z
1/2+x,y,1/2-z
1/2-x,1/2+y,1/2+z
x,1/2-y,z
loop_
_atom_site_type_symbol
_atom_site_label
_atom_site_fract_x
_atom_site_fract_y
_atom_site_fract_z
Si Si1 0.907711 0.509740 0.304824
Si Si2 0.374662 0.430504 0.544356
Si Si3 0.262549 0.689395 0.112173
Si Si4 0.204201 0.250000 0.989917
Si Si5 0.023154 0.250000 0.368177
O O1 0.747205 0.529712 0.357037
O O2 0.000000 0.500000 0.500000
O O3 0.978886 0.559782 0.170051
O O4 0.899500 0.449957 0.183167
O O5 0.333958 0.363941 0.547866
O O6 0.174998 0.750000 0.069132
O O7 0.301861 0.692397 0.349163
O O8 0.411657 0.692934 0.981098
O O9 0.068962 0.250000 0.138114
O O10 0.350044 0.250000 0.122558
#
# Coordination Sequence:
#
# PCOD8255176 Si02
#       5
#     8   8   8   4   4
#     4  11  24  43  67 100 129 173 223 273 337 387
#     4  11  23  44  67  97 133 173 224 277 328 403
#     4   8  23  40  62  94 132 173 214 264 332 393
#     4   9  20  40  63  95 131 173 217 271 332 394
#     4   9  20  40  59  97 127 167 221 257 342 386
#
# _framework density 22.207393
#
# number of rings (size 3 to 8) (size 9 to 14) (size 15 to 20)
#    1.500    0.500    2.500    0.000    3.500    6.000 
#    0.000    0.000    0.000    0.000    0.000    0.000 
#    0.000    0.000    0.000    0.000    0.000    0.000 
#
# Total GULP energy -396461.207783 kJ/mol
# GULP energy per Si atom -12389.412743 kJ/mol
# Density = 2.215685 g / cm^3
# Si number density = 22.207393 Si / 1000 Ang^3
#
#
#
# Elastic Constant Matrix: (Units=GPa)
#
#
# Indices 1 2 3 4 5 6 
#
# 1 54.1531 -8.3970 38.4039 0.0000 0.0000 0.0000
# 2 -8.3970 87.0452 39.7776 0.0000 0.0000 0.0000
# 3 38.4039 39.7776 144.7945 0.0000 0.0000 0.0000
# 4 0.0000 0.0000 0.0000 17.3353 0.0000 0.0000
# 5 0.0000 0.0000 0.0000 0.0000 37.0739 0.0000
# 6 0.0000 0.0000 0.0000 0.0000 0.0000 13.9932
#
#
#
# Elastic Compliance Matrix: (Units=1/GPa)
#
#
# Indices 1 2 3 4 5 6 
#
# 1 0.025477 0.006342 -0.008500 0.000000 0.000000 0.000000
# 2 0.006342 0.014716 -0.005725 0.000000 0.000000 0.000000
# 3 -0.008500 -0.005725 0.010733 0.000000 0.000000 0.000000
# 4 0.000000 0.000000 0.000000 0.057686 0.000000 0.000000
# 5 0.000000 0.000000 0.000000 0.000000 0.026973 0.000000
# 6 0.000000 0.000000 0.000000 0.000000 0.000000 0.071463
#
#
# Mechanical properties :
#
#
# Convention : Reuss Voigt Hill
#
# Bulk Modulus (GPa) = 28.44010 47.28465 37.86238
# Shear Modulus (GPa) = 21.31885 28.09439 24.70662
#
# Velocity S-wave (km/s) = 3.10173 3.56067 3.33909
# Velocity P-wave (km/s) = 5.06577 6.18410 5.65266
#
# Compressibility (1/GPa) = 0.03516162
#
# Stress axis : x y z
#
# Youngs Moduli (GPa) = 39.25085 67.95237 93.16723
#
# Poissons Ratio (x) = -0.43094 0.79188
# Poissons Ratio (y) = -0.24892 0.53337
# Poissons Ratio (z) = 0.33361 0.38902
#
# Static dielectric constant tensor:
#      x y z
#    x 3.922590 0.000000 0.000000 
#    y 0.000000 3.611850 0.000000 
#    z 0.000000 0.000000 4.149780 
# 
# 
# High freq. dielectric constant tensor:
#      x y z
#    x 1.871690 0.000000 0.000000 
#    y 0.000000 1.838040 0.000000 
#    z 0.000000 0.000000 1.890770 
# 
# From -- ./inp_files/228.got.cif
#   From: 2010.03.12/outbox.cif.g09.slc.cpg/sg62_1_cif.got.tgz:228.got - 2010.04.10 19:12:36.
