data_PCOD8255543
_publ_section_title
;
Structure prediction by ZEFSAII (Michael W. Deem and Ramdas Pophale) SiO2 
 PCOD8255543
Probable space group: C M C M
;
_chemical_formula_sum "Si O2"
_cell_formula_units_Z 128
_cell_length_a 20.058640
_cell_length_b 22.138287
_cell_length_c 18.161728
_cell_angle_alpha 90.000000
_cell_angle_beta 90.000000
_cell_angle_gamma 90.000000
_cell_volume 8064.968296
_symmetry_space_group_name_H-M "C M C M"
_symmetry_group_IT_number 63
_symmetry_cell_setting 'orthorhombic'
loop_
_space_group_symop_operation_xyz
x,y,z
-x,-y,1/2+z
x,-y,-z
-x,y,1/2-z
-x,-y,-z
x,y,1/2-z
-x,y,z
x,-y,1/2+z
1/2+x,1/2+y,z
1/2-x,1/2-y,1/2+z
1/2+x,1/2-y,-z
1/2-x,1/2+y,1/2-z
1/2-x,1/2-y,-z
1/2+x,1/2+y,1/2-z
1/2-x,1/2+y,z
1/2+x,1/2-y,1/2+z
loop_
_atom_site_type_symbol
_atom_site_label
_atom_site_fract_x
_atom_site_fract_y
_atom_site_fract_z
Si Si1 0.166482 0.428325 0.834396
Si Si2 0.306537 0.368387 0.423911
Si Si3 0.697287 0.246409 0.162084
Si Si4 0.427965 0.170388 0.164786
Si Si5 0.264966 0.959933 0.169032
Si Si6 0.076527 0.037746 0.570573
Si Si7 0.143050 0.948195 0.668561
Si Si8 0.277108 0.646280 0.408795
O O1 0.190009 0.412498 0.750000
O O2 0.093198 0.400005 0.846899
O O3 0.166986 0.501329 0.845798
O O4 0.214953 0.396956 0.893055
O O5 0.308520 0.313844 0.367022
O O6 0.247259 0.411917 0.395049
O O7 0.377202 0.403277 0.420806
O O8 0.287936 0.344877 0.504326
O O9 0.704067 0.246319 0.250000
O O10 0.629749 0.213731 0.133545
O O11 0.761706 0.211660 0.127902
O O12 0.436177 0.185330 0.250000
O O13 0.500000 0.181054 0.125682
O O14 0.266979 0.928557 0.250000
O O15 0.209112 0.011554 0.168157
O O16 0.000000 0.059644 0.565395
O O17 0.100355 0.000000 0.500000
O O18 0.083929 0.989813 0.636682
O O19 0.121451 0.928989 0.750000
O O20 0.156318 0.885880 0.623790
#
# Coordination Sequence:
#
# PCOD8255543 Si02
#       8
#    16  16  16  16  16  16  16  16
#     4   8  14  25  43  65  88 113 142 179 222 263
#     4  11  20  29  46  67  90 123 156 184 224 281
#     4  10  20  32  45  65  94 120 147 186 228 270
#     4   8  14  26  44  64  86 113 144 177 213 258
#     4   8  15  26  41  63  91 116 144 182 227 270
#     4  10  20  34  47  65  96 128 154 192 238 274
#     4   9  16  28  47  66  85 118 159 193 227 271
#     4  10  17  29  45  65  87 116 151 193 228 266
#
# _framework density 15.871111000000001
#
# number of rings (size 3 to 8) (size 9 to 14) (size 15 to 20)
#    0.000    2.750    1.250    3.375    0.000    1.250 
#    0.000    0.000    0.000    0.000    0.000    7.000 
#    0.000    2.000    0.000    5.125    0.000    2.125 
#
# Total GULP energy -792853.633329 kJ/mol
# GULP energy per Si atom -12388.338021 kJ/mol
# Density = 1.583499 g / cm^3
# Si number density = 15.871111 Si / 1000 Ang^3
#
#
#
# Elastic Constant Matrix: (Units=GPa)
#
#
# Indices 1 2 3 4 5 6 
#
# 1 42.9824 35.7446 13.0051 0.0000 0.0000 0.0000
# 2 35.7446 98.6632 37.7142 0.0000 0.0000 0.0000
# 3 13.0051 37.7142 75.9025 0.0000 0.0000 0.0000
# 4 0.0000 0.0000 0.0000 25.5676 0.0000 0.0000
# 5 0.0000 0.0000 0.0000 0.0000 13.1123 0.0000
# 6 0.0000 0.0000 0.0000 0.0000 0.0000 16.5176
#
#
#
# Elastic Compliance Matrix: (Units=1/GPa)
#
#
# Indices 1 2 3 4 5 6 
#
# 1 0.033305 -0.012202 0.000357 0.000000 0.000000 0.000000
# 2 -0.012202 0.016983 -0.006348 0.000000 0.000000 0.000000
# 3 0.000357 -0.006348 0.016268 0.000000 0.000000 0.000000
# 4 0.000000 0.000000 0.000000 0.039112 0.000000 0.000000
# 5 0.000000 0.000000 0.000000 0.000000 0.076264 0.000000
# 6 0.000000 0.000000 0.000000 0.000000 0.000000 0.060542
#
#
# Mechanical properties :
#
#
# Convention : Reuss Voigt Hill
#
# Bulk Modulus (GPa) = 33.14689 43.38622 38.26655
# Shear Modulus (GPa) = 17.30608 19.77845 18.54227
#
# Velocity S-wave (km/s) = 3.30572 3.53397 3.42175
# Velocity P-wave (km/s) = 5.95825 6.63686 6.30669
#
# Compressibility (1/GPa) = 0.03016874
#
# Stress axis : x y z
#
# Youngs Moduli (GPa) = 30.02547 58.88359 61.47170
#
# Poissons Ratio (x) = 0.71852 -0.02192
# Poissons Ratio (y) = 0.36638 0.39020
# Poissons Ratio (z) = -0.01071 0.37377
#
# Static dielectric constant tensor:
#      x y z
#    x 3.019950 0.000000 0.000000 
#    y 0.000000 3.056140 0.000000 
#    z 0.000000 0.000000 2.988060 
# 
# 
# High freq. dielectric constant tensor:
#      x y z
#    x 1.575070 0.000000 0.000000 
#    y 0.000000 1.599250 0.000000 
#    z 0.000000 0.000000 1.603740 
# 
# From -- ./inp_files/47565.got.cif
#   From: 2010.03.12/outbox.cif.g09.slc.cpg/sg63_24_cif.got.tgz:47565.got - 2010.04.10 19:34:48.
