data_PCOD8255351
_publ_section_title
;
Structure prediction by ZEFSAII (Michael W. Deem and Ramdas Pophale) SiO2 
 PCOD8255351
Probable space group: C M C M
;
_chemical_formula_sum "Si O2"
_cell_formula_units_Z 96
_cell_length_a 13.275424
_cell_length_b 25.569953
_cell_length_c 16.776444
_cell_angle_alpha 90.000000
_cell_angle_beta 90.000000
_cell_angle_gamma 90.000000
_cell_volume 5694.796927
_symmetry_space_group_name_H-M "C M C M"
_symmetry_group_IT_number 63
_symmetry_cell_setting 'orthorhombic'
loop_
_space_group_symop_operation_xyz
x,y,z
-x,-y,1/2+z
x,-y,-z
-x,y,1/2-z
-x,-y,-z
x,y,1/2-z
-x,y,z
x,-y,1/2+z
1/2+x,1/2+y,z
1/2-x,1/2-y,1/2+z
1/2+x,1/2-y,-z
1/2-x,1/2+y,1/2-z
1/2-x,1/2-y,-z
1/2+x,1/2+y,1/2-z
1/2-x,1/2+y,z
1/2+x,1/2-y,1/2+z
loop_
_atom_site_type_symbol
_atom_site_label
_atom_site_fract_x
_atom_site_fract_y
_atom_site_fract_z
Si Si1 0.300386 0.825916 0.507467
Si Si2 0.118500 0.755639 0.750000
Si Si3 0.880856 0.415147 0.090158
Si Si4 0.381305 0.140954 0.750000
Si Si5 0.118954 0.363823 0.661695
Si Si6 0.882881 0.225952 0.426301
Si Si7 0.880433 0.480239 0.661597
O O1 0.317378 0.885123 0.477508
O O2 0.343153 0.821856 0.597475
O O3 0.182073 0.811419 0.515304
O O4 0.359209 0.786289 0.449008
O O5 0.169649 0.698285 0.750000
O O6 0.146985 0.784708 0.833093
O O7 0.000000 0.747107 0.750000
O O8 0.846351 0.390150 0.172906
O O9 0.847571 0.476258 0.095970
O O10 0.000000 0.408978 0.071779
O O11 0.500000 0.145829 0.750000
O O12 0.160267 0.348977 0.750000
O O13 0.156726 0.422338 0.637292
O O14 0.000000 0.363076 0.663504
O O15 0.000000 0.214055 0.441608
O O16 0.838735 0.494196 0.750000
O O17 0.000000 0.481723 0.666051
#
# Coordination Sequence:
#
# PCOD8255351 Si02
#       7
#    16   8  16   8  16  16  16
#     4  11  21  30  47  71  92 121 151 191 235 276
#     4   9  16  30  50  65  82 114 150 193 236 264
#     4  10  16  25  44  71  98 122 152 187 228 273
#     4   9  14  22  42  67  92 118 144 187 234 268
#     4   9  18  31  44  63  98 136 159 176 213 278
#     4  10  21  35  49  68  92 117 153 199 239 271
#     4   8  14  25  42  65  96 130 155 182 221 266
#
# _framework density 16.857493999999999
#
# number of rings (size 3 to 8) (size 9 to 14) (size 15 to 20)
#    0.000    2.500    2.500    2.500    1.167    0.667 
#    0.000    2.500    0.000    0.000    0.000    2.333 
#    0.000    1.333    0.000    0.000    0.000    0.000 
#
# Total GULP energy -594666.694241 kJ/mol
# GULP energy per Si atom -12388.889463 kJ/mol
# Density = 1.681913 g / cm^3
# Si number density = 16.857494 Si / 1000 Ang^3
#
#
#
# Elastic Constant Matrix: (Units=GPa)
#
#
# Indices 1 2 3 4 5 6 
#
# 1 45.0784 12.1253 28.2862 0.0000 0.0000 0.0000
# 2 12.1253 25.2368 22.2253 0.0000 0.0000 0.0000
# 3 28.2862 22.2253 88.6806 0.0000 0.0000 0.0000
# 4 0.0000 0.0000 0.0000 26.1465 0.0000 0.0000
# 5 0.0000 0.0000 0.0000 0.0000 18.8191 0.0000
# 6 0.0000 0.0000 0.0000 0.0000 0.0000 10.9399
#
#
#
# Elastic Compliance Matrix: (Units=1/GPa)
#
#
# Indices 1 2 3 4 5 6 
#
# 1 0.028763 -0.007366 -0.007329 0.000000 0.000000 0.000000
# 2 -0.007366 0.052734 -0.010867 0.000000 0.000000 0.000000
# 3 -0.007329 -0.010867 0.016337 0.000000 0.000000 0.000000
# 4 0.000000 0.000000 0.000000 0.038246 0.000000 0.000000
# 5 0.000000 0.000000 0.000000 0.000000 0.053138 0.000000
# 6 0.000000 0.000000 0.000000 0.000000 0.000000 0.091409
#
#
# Mechanical properties :
#
#
# Convention : Reuss Voigt Hill
#
# Bulk Modulus (GPa) = 21.40757 31.58548 26.49652
# Shear Modulus (GPa) = 14.39596 17.60503 16.00049
#
# Velocity S-wave (km/s) = 2.92546 3.23514 3.08419
# Velocity P-wave (km/s) = 4.91303 5.72121 5.33245
#
# Compressibility (1/GPa) = 0.04671246
#
# Stress axis : x y z
#
# Youngs Moduli (GPa) = 34.76642 18.96326 61.20894
#
# Poissons Ratio (x) = 0.13967 0.44858
# Poissons Ratio (y) = 0.25607 0.66515
# Poissons Ratio (z) = 0.25479 0.20607
#
# Static dielectric constant tensor:
#      x y z
#    x 2.620810 0.000000 0.000000 
#    y 0.000000 3.285250 0.000000 
#    z 0.000000 0.000000 3.467010 
# 
# 
# High freq. dielectric constant tensor:
#      x y z
#    x 1.578610 0.000000 0.000000 
#    y 0.000000 1.641230 0.000000 
#    z 0.000000 0.000000 1.668540 
# 
# From -- ./inp_files/32457.got.cif
#   From: 2010.03.12/outbox.cif.g09.slc.cpg/sg63_17_cif.got.tgz:32457.got - 2010.04.10 19:34:48.
