data_PCOD8255844
_publ_section_title
;
Structure prediction by ZEFSAII (Michael W. Deem and Ramdas Pophale) SiO2 
 PCOD8255844
Probable space group: C M C M
;
_chemical_formula_sum "Si O2"
_cell_formula_units_Z 112
_cell_length_a 13.289100
_cell_length_b 28.406896
_cell_length_c 18.883683
_cell_angle_alpha 90.000000
_cell_angle_beta 90.000000
_cell_angle_gamma 90.000000
_cell_volume 7128.629641
_symmetry_space_group_name_H-M "C M C M"
_symmetry_group_IT_number 63
_symmetry_cell_setting 'orthorhombic'
loop_
_space_group_symop_operation_xyz
x,y,z
-x,-y,1/2+z
x,-y,-z
-x,y,1/2-z
-x,-y,-z
x,y,1/2-z
-x,y,z
x,-y,1/2+z
1/2+x,1/2+y,z
1/2-x,1/2-y,1/2+z
1/2+x,1/2-y,-z
1/2-x,1/2+y,1/2-z
1/2-x,1/2-y,-z
1/2+x,1/2+y,1/2-z
1/2-x,1/2+y,z
1/2+x,1/2-y,1/2+z
loop_
_atom_site_type_symbol
_atom_site_label
_atom_site_fract_x
_atom_site_fract_y
_atom_site_fract_z
Si Si1 0.304554 0.697018 0.565813
Si Si2 0.616868 0.580639 0.406364
Si Si3 0.114556 0.243802 0.429214
Si Si4 0.696867 0.329213 0.668123
Si Si5 0.887849 0.727892 0.169516
Si Si6 0.117213 0.903989 0.068264
Si Si7 0.619507 0.486753 0.169841
O O1 0.186095 0.710370 0.567342
O O2 0.353743 0.707093 0.489885
O O3 0.364918 0.726556 0.623426
O O4 0.315789 0.642083 0.581908
O O5 0.500000 0.589174 0.388728
O O6 0.678830 0.624365 0.376907
O O7 0.634347 0.575061 0.490062
O O8 0.658843 0.534101 0.367824
O O9 0.127168 0.214607 0.356429
O O10 0.000000 0.261009 0.437831
O O11 0.673512 0.339159 0.750000
O O12 0.812819 0.315141 0.653525
O O13 0.876207 0.744802 0.250000
O O14 0.000000 0.709485 0.152905
O O15 0.156801 0.942012 0.124885
O O16 0.000000 0.891471 0.079677
O O17 0.661824 0.483717 0.250000
O O18 0.500000 0.487504 0.169895
#
# Coordination Sequence:
#
# PCOD8255844 Si02
#       7
#    16  16  16  16  16  16  16
#     4  10  19  30  46  66  90 121 157 184 218 269
#     4  10  18  29  44  64  92 121 147 181 228 277
#     4  10  19  31  45  65  93 122 152 187 222 262
#     4  10  19  29  45  68  91 119 154 187 225 272
#     4   9  18  31  45  64  92 122 152 189 226 262
#     4  10  18  29  45  65  90 120 152 186 225 271
#     4   9  18  30  44  64  89 118 151 186 226 273
#
# _framework density 15.711295
#
# number of rings (size 3 to 8) (size 9 to 14) (size 15 to 20)
#    0.000    2.286    1.429    2.571    0.000    4.000 
#    0.000    1.429    0.000    0.000    0.000    1.000 
#    0.000    3.429    0.000    0.000    0.000    0.000 
#
# Total GULP energy -694423.693988 kJ/mol
# GULP energy per Si atom -12400.423107 kJ/mol
# Density = 1.567554 g / cm^3
# Si number density = 15.711295 Si / 1000 Ang^3
#
#
#
# Elastic Constant Matrix: (Units=GPa)
#
#
# Indices 1 2 3 4 5 6 
#
# 1 83.8011 42.0754 30.6228 0.0000 0.0000 0.0000
# 2 42.0754 115.3231 54.1052 0.0000 0.0000 0.0000
# 3 30.6228 54.1052 94.7318 0.0000 0.0000 0.0000
# 4 0.0000 0.0000 0.0000 22.7420 0.0000 0.0000
# 5 0.0000 0.0000 0.0000 0.0000 15.1825 0.0000
# 6 0.0000 0.0000 0.0000 0.0000 0.0000 20.1908
#
#
#
# Elastic Compliance Matrix: (Units=1/GPa)
#
#
# Indices 1 2 3 4 5 6 
#
# 1 0.014983 -0.004363 -0.002351 0.000000 0.000000 0.000000
# 2 -0.004363 0.013116 -0.006081 0.000000 0.000000 0.000000
# 3 -0.002351 -0.006081 0.014789 0.000000 0.000000 0.000000
# 4 0.000000 0.000000 0.000000 0.043972 0.000000 0.000000
# 5 0.000000 0.000000 0.000000 0.000000 0.065865 0.000000
# 6 0.000000 0.000000 0.000000 0.000000 0.000000 0.049528
#
#
# Mechanical properties :
#
#
# Convention : Reuss Voigt Hill
#
# Bulk Modulus (GPa) = 57.81149 60.82919 59.32034
# Shear Modulus (GPa) = 21.40331 22.75991 22.08161
#
# Velocity S-wave (km/s) = 3.69492 3.81022 3.75301
# Velocity P-wave (km/s) = 7.42154 7.62614 7.52453
#
# Compressibility (1/GPa) = 0.01729760
#
# Stress axis : x y z
#
# Youngs Moduli (GPa) = 66.74226 76.24244 67.61747
#
# Poissons Ratio (x) = 0.33268 0.15899
# Poissons Ratio (y) = 0.29122 0.41116
# Poissons Ratio (z) = 0.15693 0.46360
#
# Static dielectric constant tensor:
#      x y z
#    x 2.832800 0.000000 0.000000 
#    y 0.000000 2.886850 0.000000 
#    z 0.000000 0.000000 3.245770 
# 
# 
# High freq. dielectric constant tensor:
#      x y z
#    x 1.567770 0.000000 0.000000 
#    y 0.000000 1.592420 0.000000 
#    z 0.000000 0.000000 1.620820 
# 
# From -- ./inp_files/53192.got.cif
#   From: 2010.03.12/outbox.cif.g09.slc.cpg/sg63_27_cif.got.tgz:53192.got - 2010.04.10 19:34:48.
