data_PCOD8255336
_publ_section_title
;
Structure prediction by ZEFSAII (Michael W. Deem and Ramdas Pophale) SiO2 
 PCOD8255336
Probable space group: C M C M
;
_chemical_formula_sum "Si O2"
_cell_formula_units_Z 128
_cell_length_a 24.129648
_cell_length_b 11.955492
_cell_length_c 27.907005
_cell_angle_alpha 90.000000
_cell_angle_beta 90.000000
_cell_angle_gamma 90.000000
_cell_volume 8050.663415
_symmetry_space_group_name_H-M "C M C M"
_symmetry_group_IT_number 63
_symmetry_cell_setting 'orthorhombic'
loop_
_space_group_symop_operation_xyz
x,y,z
-x,-y,1/2+z
x,-y,-z
-x,y,1/2-z
-x,-y,-z
x,y,1/2-z
-x,y,z
x,-y,1/2+z
1/2+x,1/2+y,z
1/2-x,1/2-y,1/2+z
1/2+x,1/2-y,-z
1/2-x,1/2+y,1/2-z
1/2-x,1/2-y,-z
1/2+x,1/2+y,1/2-z
1/2-x,1/2+y,z
1/2+x,1/2-y,1/2+z
loop_
_atom_site_type_symbol
_atom_site_label
_atom_site_fract_x
_atom_site_fract_y
_atom_site_fract_z
Si Si1 0.819206 0.766712 0.054851
Si Si2 0.263358 0.739550 0.802947
Si Si3 0.347454 0.124555 0.359246
Si Si4 0.810980 0.774071 0.552013
Si Si5 0.937367 0.761852 0.305428
Si Si6 0.144214 0.051955 0.802098
Si Si7 0.307642 0.103849 0.872670
Si Si8 0.308501 0.495079 0.397851
O O1 0.846618 0.667854 0.085802
O O2 0.753486 0.755085 0.053595
O O3 0.836668 0.884412 0.079301
O O4 0.839581 0.760161 0.999904
O O5 0.245263 0.781432 0.750000
O O6 0.289043 0.840980 0.833751
O O7 0.311516 0.650231 0.798741
O O8 0.210692 0.685132 0.829340
O O9 0.401817 0.170799 0.333797
O O10 0.352005 0.989653 0.356562
O O11 0.837536 0.682289 0.587699
O O12 0.820199 0.901361 0.567785
O O13 0.934305 0.727761 0.250000
O O14 0.000000 0.759327 0.324908
O O15 0.914592 0.888364 0.312480
O O16 0.142896 0.988644 0.750000
O O17 0.162603 0.974024 0.846447
O O18 0.256512 0.030251 0.893034
#
# Coordination Sequence:
#
# PCOD8255336 Si02
#       8
#    16  16  16  16  16  16  16  16
#     4  10  18  27  43  61  87 126 159 190 230 254
#     4   9  16  27  39  57  85 119 147 170 214 272
#     4  11  17  30  45  65  93 120 152 188 233 278
#     4  10  19  28  39  62  90 125 161 191 214 264
#     4   9  17  30  49  72  93 113 147 198 245 279
#     4   8  14  25  44  65  87 111 138 178 228 278
#     4  10  18  28  39  61  92 123 154 184 218 269
#     4  10  15  29  43  61  93 123 157 186 221 271
#
# _framework density 15.899311000000001
#
# number of rings (size 3 to 8) (size 9 to 14) (size 15 to 20)
#    0.000    2.375    6.250    1.500    0.000    1.500 
#    0.000    3.125    0.000    0.000    0.000    4.375 
#    0.000    2.000    0.000    0.000    0.000    0.000 
#
# Total GULP energy -793112.576353 kJ/mol
# GULP energy per Si atom -12392.384006 kJ/mol
# Density = 1.586312 g / cm^3
# Si number density = 15.899311 Si / 1000 Ang^3
#
#
#
# Elastic Constant Matrix: (Units=GPa)
#
#
# Indices 1 2 3 4 5 6 
#
# 1 35.8170 7.7719 18.2755 0.0000 0.0000 0.0000
# 2 7.7719 60.7228 33.1180 0.0000 0.0000 0.0000
# 3 18.2755 33.1180 118.5133 0.0000 0.0000 0.0000
# 4 0.0000 0.0000 0.0000 14.9101 0.0000 0.0000
# 5 0.0000 0.0000 0.0000 0.0000 11.2279 0.0000
# 6 0.0000 0.0000 0.0000 0.0000 0.0000 9.5540
#
#
#
# Elastic Compliance Matrix: (Units=1/GPa)
#
#
# Indices 1 2 3 4 5 6 
#
# 1 0.030431 -0.001576 -0.004252 0.000000 0.000000 0.000000
# 2 -0.001576 0.019511 -0.005209 0.000000 0.000000 0.000000
# 3 -0.004252 -0.005209 0.010549 0.000000 0.000000 0.000000
# 4 0.000000 0.000000 0.000000 0.067069 0.000000 0.000000
# 5 0.000000 0.000000 0.000000 0.000000 0.089064 0.000000
# 6 0.000000 0.000000 0.000000 0.000000 0.000000 0.104669
#
#
# Mechanical properties :
#
#
# Convention : Reuss Voigt Hill
#
# Bulk Modulus (GPa) = 26.03009 37.04267 31.53638
# Shear Modulus (GPa) = 14.03812 17.53091 15.78451
#
# Velocity S-wave (km/s) = 2.97465 3.32418 3.15426
# Velocity P-wave (km/s) = 5.31088 6.17109 5.75708
#
# Compressibility (1/GPa) = 0.03841707
#
# Stress axis : x y z
#
# Youngs Moduli (GPa) = 32.86078 51.25291 94.79269
#
# Poissons Ratio (x) = 0.08076 0.40310
# Poissons Ratio (y) = 0.05178 0.49380
# Poissons Ratio (z) = 0.13974 0.26699
#
# Static dielectric constant tensor:
#      x y z
#    x 2.560740 0.000000 0.000000 
#    y 0.000000 2.935100 0.000000 
#    z 0.000000 0.000000 3.632050 
# 
# 
# High freq. dielectric constant tensor:
#      x y z
#    x 1.534280 0.000000 0.000000 
#    y 0.000000 1.599830 0.000000 
#    z 0.000000 0.000000 1.626850 
# 
# From -- ./inp_files/70824.got.cif
#   From: 2010.03.12/outbox.cif.g09.slc.cpg/sg63_36_cif.got.tgz:70824.got - 2010.04.10 19:34:48.
