data_PCOD8255830
_publ_section_title
;
Structure prediction by ZEFSAII (Michael W. Deem and Ramdas Pophale) SiO2 
 PCOD8255830
Probable space group: C M C M
;
_chemical_formula_sum "Si O2"
_cell_formula_units_Z 104
_cell_length_a 18.185950
_cell_length_b 18.742054
_cell_length_c 17.443028
_cell_angle_alpha 90.000000
_cell_angle_beta 90.000000
_cell_angle_gamma 90.000000
_cell_volume 5945.317543
_symmetry_space_group_name_H-M "C M C M"
_symmetry_group_IT_number 63
_symmetry_cell_setting 'orthorhombic'
loop_
_space_group_symop_operation_xyz
x,y,z
-x,-y,1/2+z
x,-y,-z
-x,y,1/2-z
-x,-y,-z
x,y,1/2-z
-x,y,z
x,-y,1/2+z
1/2+x,1/2+y,z
1/2-x,1/2-y,1/2+z
1/2+x,1/2-y,-z
1/2-x,1/2+y,1/2-z
1/2-x,1/2-y,-z
1/2+x,1/2+y,1/2-z
1/2-x,1/2+y,z
1/2+x,1/2-y,1/2+z
loop_
_atom_site_type_symbol
_atom_site_label
_atom_site_fract_x
_atom_site_fract_y
_atom_site_fract_z
Si Si1 0.354183 0.442807 0.659475
Si Si2 0.341886 0.171556 0.662560
Si Si3 0.699450 0.404579 0.340091
Si Si4 0.500000 0.806017 0.162586
Si Si5 0.718197 0.690725 0.090945
Si Si6 0.349920 0.717528 0.936016
Si Si7 0.000000 0.219523 0.010265
Si Si8 0.500000 0.564273 0.060148
O O1 0.369849 0.442543 0.750000
O O2 0.318971 0.516736 0.630076
O O3 0.296127 0.380397 0.639716
O O4 0.429660 0.433790 0.614613
O O5 0.323170 0.188382 0.750000
O O6 0.283484 0.113016 0.633043
O O7 0.426625 0.145413 0.651872
O O8 0.334911 0.246086 0.618947
O O9 0.690018 0.402345 0.250000
O O10 0.643239 0.344821 0.372548
O O11 0.500000 0.773122 0.250000
O O12 0.500000 0.744059 0.098836
O O13 0.803745 0.714813 0.097116
O O14 0.696194 0.678193 0.003011
O O15 0.428708 0.746911 0.963611
O O16 0.000000 0.134316 0.007969
O O17 0.500000 0.500000 0.000000
#
# Coordination Sequence:
#
# PCOD8255830 Si02
#       8
#    16  16  16   8  16  16   8   8
#     4  11  22  36  54  79 108 142 181 222 265 311
#     4   9  16  30  49  74 103 130 166 214 267 316
#     4   9  20  35  51  70 101 141 178 213 252 312
#     4  10  18  28  50  79 103 126 162 217 277 317
#     4  10  19  32  52  77 100 135 172 219 261 314
#     4  10  20  34  52  75 103 135 177 210 265 317
#     4  12  20  34  50  77 106 138 167 216 259 317
#     4  12  23  34  49  78 112 150 176 214 263 316
#
# _framework density 17.492757000000001
#
# number of rings (size 3 to 8) (size 9 to 14) (size 15 to 20)
#    0.000    1.846    3.077    1.615    0.000    2.462 
#    0.000    1.154    0.000    0.923    0.000    2.154 
#    0.000    0.000    0.000    0.000    0.000    0.000 
#
# Total GULP energy -644519.789861 kJ/mol
# GULP energy per Si atom -12394.611343 kJ/mol
# Density = 1.745294 g / cm^3
# Si number density = 17.492757 Si / 1000 Ang^3
#
#
#
# Elastic Constant Matrix: (Units=GPa)
#
#
# Indices 1 2 3 4 5 6 
#
# 1 133.7219 48.6750 38.2353 0.0000 0.0000 0.0000
# 2 48.6750 83.2329 23.9771 0.0000 0.0000 0.0000
# 3 38.2353 23.9771 39.0463 0.0000 0.0000 0.0000
# 4 0.0000 0.0000 0.0000 25.6414 0.0000 0.0000
# 5 0.0000 0.0000 0.0000 0.0000 23.3407 0.0000
# 6 0.0000 0.0000 0.0000 0.0000 0.0000 18.5595
#
#
#
# Elastic Compliance Matrix: (Units=1/GPa)
#
#
# Indices 1 2 3 4 5 6 
#
# 1 0.011492 -0.004227 -0.008658 0.000000 0.000000 0.000000
# 2 -0.004227 0.016151 -0.005779 0.000000 0.000000 0.000000
# 3 -0.008658 -0.005779 0.037638 0.000000 0.000000 0.000000
# 4 0.000000 0.000000 0.000000 0.038999 0.000000 0.000000
# 5 0.000000 0.000000 0.000000 0.000000 0.042844 0.000000
# 6 0.000000 0.000000 0.000000 0.000000 0.000000 0.053881
#
#
# Mechanical properties :
#
#
# Convention : Reuss Voigt Hill
#
# Bulk Modulus (GPa) = 35.77378 53.08619 44.42999
# Shear Modulus (GPa) = 20.18975 23.18257 21.68616
#
# Velocity S-wave (km/s) = 3.40101 3.64437 3.52479
# Velocity P-wave (km/s) = 5.99312 6.93700 6.48226
#
# Compressibility (1/GPa) = 0.02795343
#
# Stress axis : x y z
#
# Youngs Moduli (GPa) = 87.01436 61.91581 26.56904
#
# Poissons Ratio (x) = 0.26169 0.23004
# Poissons Ratio (y) = 0.36777 0.15354
# Poissons Ratio (z) = 0.75339 0.35781
#
# Static dielectric constant tensor:
#      x y z
#    x 3.468770 0.000000 0.000000 
#    y 0.000000 3.156730 0.000000 
#    z 0.000000 0.000000 3.336990 
# 
# 
# High freq. dielectric constant tensor:
#      x y z
#    x 1.679200 0.000000 0.000000 
#    y 0.000000 1.644450 0.000000 
#    z 0.000000 0.000000 1.682950 
# 
# From -- ./inp_files/45871.got.cif
#   From: 2010.03.12/outbox.cif.g09.slc.cpg/sg63_23_cif.got.tgz:45871.got - 2010.04.10 19:34:48.
