data_PCOD8255674
_publ_section_title
;
Structure prediction by ZEFSAII (Michael W. Deem and Ramdas Pophale) SiO2 
 PCOD8255674
Probable space group: C M C M
;
_chemical_formula_sum "Si O2"
_cell_formula_units_Z 96
_cell_length_a 25.398286
_cell_length_b 23.091310
_cell_length_c 9.733030
_cell_angle_alpha 90.000000
_cell_angle_beta 90.000000
_cell_angle_gamma 90.000000
_cell_volume 5708.224471
_symmetry_space_group_name_H-M "C M C M"
_symmetry_group_IT_number 63
_symmetry_cell_setting 'orthorhombic'
loop_
_space_group_symop_operation_xyz
x,y,z
-x,-y,1/2+z
x,-y,-z
-x,y,1/2-z
-x,-y,-z
x,y,1/2-z
-x,y,z
x,-y,1/2+z
1/2+x,1/2+y,z
1/2-x,1/2-y,1/2+z
1/2+x,1/2-y,-z
1/2-x,1/2+y,1/2-z
1/2-x,1/2-y,-z
1/2+x,1/2+y,1/2-z
1/2-x,1/2+y,z
1/2+x,1/2-y,1/2+z
loop_
_atom_site_type_symbol
_atom_site_label
_atom_site_fract_x
_atom_site_fract_y
_atom_site_fract_z
Si Si1 0.362951 0.845568 0.400815
Si Si2 0.782630 0.444988 0.410367
Si Si3 0.161738 0.051458 0.596167
Si Si4 0.869209 0.825826 0.404875
Si Si5 0.204382 0.232586 0.400845
Si Si6 0.060072 0.718111 0.409196
O O1 0.385371 0.864147 0.250000
O O2 0.321621 0.893182 0.456910
O O3 0.333087 0.786285 0.380489
O O4 0.409926 0.832799 0.507968
O O5 0.799514 0.500000 0.500000
O O6 0.790647 0.458996 0.250000
O O7 0.721633 0.428362 0.440825
O O8 0.161264 0.026576 0.750000
O O9 0.120308 0.105125 0.584160
O O10 0.141570 0.000000 0.500000
O O11 0.847674 0.812285 0.250000
O O12 0.825715 0.818175 0.521515
O O13 0.918579 0.783700 0.435149
O O14 0.224099 0.211301 0.250000
O O15 0.250000 0.250000 0.500000
O O16 0.065344 0.701612 0.250000
O O17 0.000000 0.718370 0.458881
#
# Coordination Sequence:
#
# PCOD8255674 Si02
#       6
#    16  16  16  16  16  16
#     4   9  18  31  46  65  90 119 149 183 225 272
#     4   9  17  29  44  64  91 121 152 182 214 257
#     4   9  17  29  45  65  92 125 156 185 217 259
#     4   9  17  30  46  64  89 120 151 186 229 272
#     4  10  18  27  41  63  91 120 149 182 222 270
#     4   9  18  32  50  71  91 113 147 191 236 279
#
# _framework density 16.817838999999999
#
# number of rings (size 3 to 8) (size 9 to 14) (size 15 to 20)
#    0.000    2.833    0.000    1.500    0.000    5.000 
#    0.000    3.333    0.000    1.000    0.000    0.000 
#    0.000    0.000    0.000    0.000    0.000    0.000 
#
# Total GULP energy -594649.536184 kJ/mol
# GULP energy per Si atom -12388.532004 kJ/mol
# Density = 1.677956 g / cm^3
# Si number density = 16.817839 Si / 1000 Ang^3
#
#
#
# Elastic Constant Matrix: (Units=GPa)
#
#
# Indices 1 2 3 4 5 6 
#
# 1 33.9068 -3.8515 13.6093 0.0000 0.0000 0.0000
# 2 -3.8515 58.5982 9.3943 0.0000 0.0000 0.0000
# 3 13.6093 9.3943 68.5687 0.0000 0.0000 0.0000
# 4 0.0000 0.0000 0.0000 26.8639 0.0000 0.0000
# 5 0.0000 0.0000 0.0000 0.0000 19.4446 0.0000
# 6 0.0000 0.0000 0.0000 0.0000 0.0000 20.4307
#
#
#
# Elastic Compliance Matrix: (Units=1/GPa)
#
#
# Indices 1 2 3 4 5 6 
#
# 1 0.032642 0.003256 -0.006925 0.000000 0.000000 0.000000
# 2 0.003256 0.017773 -0.003081 0.000000 0.000000 0.000000
# 3 -0.006925 -0.003081 0.016380 0.000000 0.000000 0.000000
# 4 0.000000 0.000000 0.000000 0.037225 0.000000 0.000000
# 5 0.000000 0.000000 0.000000 0.000000 0.051428 0.000000
# 6 0.000000 0.000000 0.000000 0.000000 0.000000 0.048946
#
#
# Mechanical properties :
#
#
# Convention : Reuss Voigt Hill
#
# Bulk Modulus (GPa) = 18.76348 22.15311 20.45829
# Shear Modulus (GPa) = 21.21701 22.80928 22.01315
#
# Velocity S-wave (km/s) = 3.55572 3.68673 3.62182
# Velocity P-wave (km/s) = 5.29515 5.59675 5.44804
#
# Compressibility (1/GPa) = 0.05329502
#
# Stress axis : x y z
#
# Youngs Moduli (GPa) = 30.63553 56.26412 61.04844
#
# Poissons Ratio (x) = -0.18317 0.42274
# Poissons Ratio (y) = -0.09974 0.18810
# Poissons Ratio (z) = 0.21214 0.17336
#
# Static dielectric constant tensor:
#      x y z
#    x 3.016660 0.000000 0.000000 
#    y 0.000000 3.081360 0.000000 
#    z 0.000000 0.000000 3.626390 
# 
# 
# High freq. dielectric constant tensor:
#      x y z
#    x 1.608690 0.000000 0.000000 
#    y 0.000000 1.636580 0.000000 
#    z 0.000000 0.000000 1.660430 
# 
# From -- ./inp_files/10414.got.cif
#   From: 2010.03.12/outbox.cif.g09.slc.cpg/sg63_6_cif.got.tgz:10414.got - 2010.04.10 19:34:48.
