data_PCOD8255151
_publ_section_title
;
Structure prediction by ZEFSAII (Michael W. Deem and Ramdas Pophale) SiO2 
 PCOD8255151
Probable space group: P N M A
;
_chemical_formula_sum "Si O2"
_cell_formula_units_Z 48
_cell_length_a 8.959393
_cell_length_b 27.026669
_cell_length_c 9.637429
_cell_angle_alpha 90.000000
_cell_angle_beta 90.000000
_cell_angle_gamma 90.000000
_cell_volume 2333.631624
_symmetry_space_group_name_H-M "P N M A"
_symmetry_group_IT_number 62
_symmetry_cell_setting 'orthorhombic'
loop_
_space_group_symop_operation_xyz
x,y,z
1/2-x,-y,1/2+z
1/2+x,1/2-y,1/2-z
-x,1/2+y,-z
-x,-y,-z
1/2+x,y,1/2-z
1/2-x,1/2+y,1/2+z
x,1/2-y,z
loop_
_atom_site_type_symbol
_atom_site_label
_atom_site_fract_x
_atom_site_fract_y
_atom_site_fract_z
Si Si1 0.922481 0.965713 0.608096
Si Si2 0.095116 0.494854 0.864996
Si Si3 0.180686 0.118389 0.831601
Si Si4 0.921838 0.305721 0.326529
Si Si5 0.097016 0.192356 0.070394
Si Si6 0.512750 0.128850 0.937308
O O1 0.945390 0.910756 0.554126
O O2 0.749481 0.977152 0.619337
O O3 0.000000 0.000000 0.500000
O O4 0.002477 0.974999 0.752455
O O5 0.115283 0.436915 0.834887
O O6 0.000000 0.500000 0.000000
O O7 0.357874 0.116390 0.857218
O O8 0.143297 0.137086 0.675829
O O9 0.099490 0.155831 0.938248
O O10 0.975017 0.250000 0.314194
O O11 0.972304 0.328596 0.177764
O O12 0.999308 0.322742 0.469196
O O13 0.746610 0.313407 0.339989
O O14 0.074772 0.250000 0.021898
#
# Coordination Sequence:
#
# PCOD8255151 Si02
#       6
#     8   8   8   8   8   8
#     4  12  24  43  62  90 125 162 205 250 305 361
#     4  12  26  41  64  89 124 165 205 255 303 361
#     4  11  23  41  59  89 121 160 204 250 303 361
#     4   9  20  40  63  91 122 156 200 252 304 365
#     4   9  20  39  63  88 120 154 199 251 304 363
#     4  11  25  40  63  89 126 162 206 253 305 365
#
# _framework density 20.568798999999999
#
# number of rings (size 3 to 8) (size 9 to 14) (size 15 to 20)
#    0.000    1.333    3.333    1.000    4.667    3.333 
#    0.000    0.000    0.000    0.000    0.000    0.000 
#    0.000    0.000    0.000    0.000    0.000    0.000 
#
# Total GULP energy -594983.307667 kJ/mol
# GULP energy per Si atom -12395.485576 kJ/mol
# Density = 2.052198 g / cm^3
# Si number density = 20.568799 Si / 1000 Ang^3
#
#
#
# Elastic Constant Matrix: (Units=GPa)
#
#
# Indices 1 2 3 4 5 6 
#
# 1 100.7569 22.7841 54.5958 0.0000 0.0000 0.0000
# 2 22.7841 54.8402 37.0288 0.0000 0.0000 0.0000
# 3 54.5958 37.0288 146.4358 0.0000 0.0000 0.0000
# 4 0.0000 0.0000 0.0000 42.3535 0.0000 0.0000
# 5 0.0000 0.0000 0.0000 0.0000 45.0108 0.0000
# 6 0.0000 0.0000 0.0000 0.0000 0.0000 21.4435
#
#
#
# Elastic Compliance Matrix: (Units=1/GPa)
#
#
# Indices 1 2 3 4 5 6 
#
# 1 0.012718 -0.002511 -0.004107 0.000000 0.000000 0.000000
# 2 -0.002511 0.022485 -0.004750 0.000000 0.000000 0.000000
# 3 -0.004107 -0.004750 0.009561 0.000000 0.000000 0.000000
# 4 0.000000 0.000000 0.000000 0.023611 0.000000 0.000000
# 5 0.000000 0.000000 0.000000 0.000000 0.022217 0.000000
# 6 0.000000 0.000000 0.000000 0.000000 0.000000 0.046634
#
#
# Mechanical properties :
#
#
# Convention : Reuss Voigt Hill
#
# Bulk Modulus (GPa) = 45.39356 58.98336 52.18846
# Shear Modulus (GPa) = 29.88582 34.26983 32.07783
#
# Velocity S-wave (km/s) = 3.81592 4.08623 3.95338
# Velocity P-wave (km/s) = 6.44453 7.14152 6.80196
#
# Compressibility (1/GPa) = 0.02202956
#
# Stress axis : x y z
#
# Youngs Moduli (GPa) = 78.62919 44.47418 104.59108
#
# Poissons Ratio (x) = 0.11167 0.42953
# Poissons Ratio (y) = 0.19743 0.49676
# Poissons Ratio (z) = 0.32291 0.21123
#
# Static dielectric constant tensor:
#      x y z
#    x 3.774480 0.000000 0.000000 
#    y 0.000000 3.816420 0.000000 
#    z 0.000000 0.000000 3.846570 
# 
# 
# High freq. dielectric constant tensor:
#      x y z
#    x 1.808650 0.000000 0.000000 
#    y 0.000000 1.805060 0.000000 
#    z 0.000000 0.000000 1.818740 
# 
# From -- ./inp_files/4501.got.cif
#   From: 2010.03.12/outbox.cif.g09.slc.cpg/sg62_3_cif.got.tgz:4501.got - 2010.04.10 19:12:36.
