data_PCOD8255814
_publ_section_title
;
Structure prediction by ZEFSAII (Michael W. Deem and Ramdas Pophale) SiO2 
 PCOD8255814
Probable space group: C M C M
;
_chemical_formula_sum "Si O2"
_cell_formula_units_Z 80
_cell_length_a 25.918192
_cell_length_b 19.847722
_cell_length_c 8.631470
_cell_angle_alpha 90.000000
_cell_angle_beta 90.000000
_cell_angle_gamma 90.000000
_cell_volume 4440.175503
_symmetry_space_group_name_H-M "C M C M"
_symmetry_group_IT_number 63
_symmetry_cell_setting 'orthorhombic'
loop_
_space_group_symop_operation_xyz
x,y,z
-x,-y,1/2+z
x,-y,-z
-x,y,1/2-z
-x,-y,-z
x,y,1/2-z
-x,y,z
x,-y,1/2+z
1/2+x,1/2+y,z
1/2-x,1/2-y,1/2+z
1/2+x,1/2-y,-z
1/2-x,1/2+y,1/2-z
1/2-x,1/2-y,-z
1/2+x,1/2+y,1/2-z
1/2-x,1/2+y,z
1/2+x,1/2-y,1/2+z
loop_
_atom_site_type_symbol
_atom_site_label
_atom_site_fract_x
_atom_site_fract_y
_atom_site_fract_z
Si Si1 0.500000 0.187678 0.072190
Si Si2 0.805059 0.572804 0.065238
Si Si3 0.500000 0.670723 0.428662
Si Si4 0.105794 0.172087 0.933146
Si Si5 0.695264 0.427687 0.065974
Si Si6 0.611585 0.176080 0.429509
O O1 0.500000 0.215660 0.250000
O O2 0.446844 0.146391 0.043868
O O3 0.500000 0.249540 0.955179
O O4 0.804970 0.569576 0.250000
O O5 0.846926 0.625512 0.995531
O O6 0.819883 0.500000 0.000000
O O7 0.749416 0.596409 0.005027
O O8 0.500000 0.652271 0.250000
O O9 0.447655 0.640600 0.502964
O O10 0.101555 0.173539 0.750000
O O11 0.152729 0.125749 0.989337
O O12 0.115256 0.248055 0.998368
O O13 0.700219 0.432064 0.250000
O O14 0.679023 0.500000 0.000000
O O15 0.625154 0.180015 0.250000
#
# Coordination Sequence:
#
# PCOD8255814 Si02
#       6
#     8  16   8  16  16  16
#     4   8  14  30  51  68  94 130 163 192 232 286
#     4  10  19  32  49  69  96 128 161 197 240 286
#     4  10  18  28  47  76 103 124 151 192 241 282
#     4   9  18  34  53  71  94 127 163 194 231 283
#     4  10  20  34  52  71  94 126 161 196 238 286
#     4   8  15  29  51  73  92 123 164 198 230 278
#
# _framework density 18.017306999999999
#
# number of rings (size 3 to 8) (size 9 to 14) (size 15 to 20)
#    0.000    2.800    0.000    4.500    0.000    2.400 
#    0.000    9.000    0.000    0.000    0.000    0.000 
#    0.000    0.000    0.000    0.000    0.000    0.000 
#
# Total GULP energy -495699.792755 kJ/mol
# GULP energy per Si atom -12392.494819 kJ/mol
# Density = 1.797630 g / cm^3
# Si number density = 18.017307 Si / 1000 Ang^3
#
#
#
# Elastic Constant Matrix: (Units=GPa)
#
#
# Indices 1 2 3 4 5 6 
#
# 1 191.7701 100.8935 37.4481 0.0000 0.0000 0.0000
# 2 100.8935 89.9331 23.8200 0.0000 0.0000 0.0000
# 3 37.4481 23.8200 49.4388 0.0000 0.0000 0.0000
# 4 0.0000 0.0000 0.0000 16.3301 0.0000 0.0000
# 5 0.0000 0.0000 0.0000 0.0000 22.1392 0.0000
# 6 0.0000 0.0000 0.0000 0.0000 0.0000 20.0696
#
#
#
# Elastic Compliance Matrix: (Units=1/GPa)
#
#
# Indices 1 2 3 4 5 6 
#
# 1 0.013173 -0.013911 -0.003276 0.000000 0.000000 0.000000
# 2 -0.013911 0.027436 -0.002682 0.000000 0.000000 0.000000
# 3 -0.003276 -0.002682 0.024000 0.000000 0.000000 0.000000
# 4 0.000000 0.000000 0.000000 0.061237 0.000000 0.000000
# 5 0.000000 0.000000 0.000000 0.000000 0.045169 0.000000
# 6 0.000000 0.000000 0.000000 0.000000 0.000000 0.049827
#
#
# Mechanical properties :
#
#
# Convention : Reuss Voigt Hill
#
# Bulk Modulus (GPa) = 40.20515 72.82948 56.51732
# Shear Modulus (GPa) = 18.59644 22.97312 20.78478
#
# Velocity S-wave (km/s) = 3.21618 3.57467 3.40015
# Velocity P-wave (km/s) = 6.01290 7.58600 6.84479
#
# Compressibility (1/GPa) = 0.02487243
#
# Stress axis : x y z
#
# Youngs Moduli (GPa) = 75.91344 36.44881 41.66594
#
# Poissons Ratio (x) = 0.50703 0.13649
# Poissons Ratio (y) = 1.05601 0.11174
# Poissons Ratio (z) = 0.24867 0.09775
#
# Static dielectric constant tensor:
#      x y z
#    x 3.764000 0.000000 0.000000 
#    y 0.000000 3.291120 0.000000 
#    z 0.000000 0.000000 3.109580 
# 
# 
# High freq. dielectric constant tensor:
#      x y z
#    x 1.717220 0.000000 0.000000 
#    y 0.000000 1.666620 0.000000 
#    z 0.000000 0.000000 1.681310 
# 
# From -- ./inp_files/12118.got.cif
#   From: 2010.03.12/outbox.cif.g09.slc.cpg/sg63_7_cif.got.tgz:12118.got - 2010.04.10 19:34:48.
