data_PCOD8255035
_publ_section_title
;
Structure prediction by ZEFSAII (Michael W. Deem and Ramdas Pophale) SiO2 
 PCOD8255035
Probable space group: P N M A
;
_chemical_formula_sum "Si O2"
_cell_formula_units_Z 44
_cell_length_a 4.932856
_cell_length_b 17.577259
_cell_length_c 23.318013
_cell_angle_alpha 90.000000
_cell_angle_beta 90.000000
_cell_angle_gamma 90.000000
_cell_volume 2021.813676
_symmetry_space_group_name_H-M "P N M A"
_symmetry_group_IT_number 62
_symmetry_cell_setting 'orthorhombic'
loop_
_space_group_symop_operation_xyz
x,y,z
1/2-x,-y,1/2+z
1/2+x,1/2-y,1/2-z
-x,1/2+y,-z
-x,-y,-z
1/2+x,y,1/2-z
1/2-x,1/2+y,1/2+z
x,1/2-y,z
loop_
_atom_site_type_symbol
_atom_site_label
_atom_site_fract_x
_atom_site_fract_y
_atom_site_fract_z
Si Si1 0.835443 0.161626 0.963903
Si Si2 0.368518 0.071657 0.423283
Si Si3 0.336518 0.250000 0.212760
Si Si4 0.818573 0.403978 0.592615
Si Si5 0.386805 0.100654 0.148003
Si Si6 0.487759 0.952898 0.212448
O O1 0.836997 0.250000 0.980263
O O2 0.041621 0.144674 0.911461
O O3 0.534567 0.136372 0.948235
O O4 0.942019 0.111405 0.017109
O O5 0.644417 0.061235 0.387365
O O6 0.142160 0.123411 0.391751
O O7 0.234895 0.988791 0.430696
O O8 0.649763 0.250000 0.230948
O O9 0.266586 0.176106 0.175899
O O10 0.930239 0.402425 0.657594
O O11 0.498460 0.042004 0.195722
O O12 0.687434 0.934341 0.265261
#
# Coordination Sequence:
#
# PCOD8255035 Si02
#       6
#     8   8   4   8   8   8
#     4  12  25  41  67  94 132 168 211 263 332 390
#     4  11  23  41  65  93 126 172 215 264 312 383
#     4  12  24  38  56  84 134 182 212 264 322 362
#     4  11  23  43  65  96 127 166 213 268 320 386
#     4  11  23  37  61  91 129 164 221 263 308 381
#     4  11  21  39  65  91 119 158 213 261 312 371
#
# _framework density 21.762640000000001
#
# number of rings (size 3 to 8) (size 9 to 14) (size 15 to 20)
#    0.000    0.727    0.000   10.364    2.545    0.000 
#    0.000    0.000    0.000   10.909    0.000    0.000 
#    0.000    0.000    0.000    0.000    0.000    0.000 
#
# Total GULP energy -545845.426877 kJ/mol
# GULP energy per Si atom -12405.577884 kJ/mol
# Density = 2.171311 g / cm^3
# Si number density = 21.762640 Si / 1000 Ang^3
#
#
#
# Elastic Constant Matrix: (Units=GPa)
#
#
# Indices 1 2 3 4 5 6 
#
# 1 118.3757 19.8656 27.2596 0.0000 0.0000 0.0000
# 2 19.8656 78.5584 32.7361 0.0000 0.0000 0.0000
# 3 27.2596 32.7361 86.3110 0.0000 0.0000 0.0000
# 4 0.0000 0.0000 0.0000 20.0950 0.0000 0.0000
# 5 0.0000 0.0000 0.0000 0.0000 40.7791 0.0000
# 6 0.0000 0.0000 0.0000 0.0000 0.0000 25.0291
#
#
#
# Elastic Compliance Matrix: (Units=1/GPa)
#
#
# Indices 1 2 3 4 5 6 
#
# 1 0.009226 -0.001329 -0.002410 0.000000 0.000000 0.000000
# 2 -0.001329 0.015310 -0.005387 0.000000 0.000000 0.000000
# 3 -0.002410 -0.005387 0.014390 0.000000 0.000000 0.000000
# 4 0.000000 0.000000 0.000000 0.049764 0.000000 0.000000
# 5 0.000000 0.000000 0.000000 0.000000 0.024522 0.000000
# 6 0.000000 0.000000 0.000000 0.000000 0.000000 0.039953
#
#
# Mechanical properties :
#
#
# Convention : Reuss Voigt Hill
#
# Bulk Modulus (GPa) = 48.36818 49.21863 48.79340
# Shear Modulus (GPa) = 28.04122 30.73956 29.39039
#
# Velocity S-wave (km/s) = 3.59347 3.76239 3.67890
# Velocity P-wave (km/s) = 6.28418 6.44510 6.36515
#
# Compressibility (1/GPa) = 0.02067475
#
# Stress axis : x y z
#
# Youngs Moduli (GPa) = 108.39424 65.31535 69.49093
#
# Poissons Ratio (x) = 0.08679 0.16745
# Poissons Ratio (y) = 0.14403 0.37437
# Poissons Ratio (z) = 0.26120 0.35187
#
# Static dielectric constant tensor:
#      x y z
#    x 4.032370 0.000000 0.000000 
#    y 0.000000 3.653550 0.000000 
#    z 0.000000 0.000000 3.980510 
# 
# 
# High freq. dielectric constant tensor:
#      x y z
#    x 1.878990 0.000000 0.000000 
#    y 0.000000 1.830020 0.000000 
#    z 0.000000 0.000000 1.853840 
# 
# From -- ./inp_files/28294.got.cif
#   From: 2010.03.12/outbox.cif.g09.slc.cpg/sg62_15_cif.got.tgz:28294.got - 2010.04.10 19:12:36.
