data_PCOD8255664
_publ_section_title
;
Structure prediction by ZEFSAII (Michael W. Deem and Ramdas Pophale) SiO2 
 PCOD8255664
Probable space group: C M C M
;
_chemical_formula_sum "Si O2"
_cell_formula_units_Z 128
_cell_length_a 23.324767
_cell_length_b 21.333851
_cell_length_c 17.305123
_cell_angle_alpha 90.000000
_cell_angle_beta 90.000000
_cell_angle_gamma 90.000000
_cell_volume 8611.152137
_symmetry_space_group_name_H-M "C M C M"
_symmetry_group_IT_number 63
_symmetry_cell_setting 'orthorhombic'
loop_
_space_group_symop_operation_xyz
x,y,z
-x,-y,1/2+z
x,-y,-z
-x,y,1/2-z
-x,-y,-z
x,y,1/2-z
-x,y,z
x,-y,1/2+z
1/2+x,1/2+y,z
1/2-x,1/2-y,1/2+z
1/2+x,1/2-y,-z
1/2-x,1/2+y,1/2-z
1/2-x,1/2-y,-z
1/2+x,1/2+y,1/2-z
1/2-x,1/2+y,z
1/2+x,1/2-y,1/2+z
loop_
_atom_site_type_symbol
_atom_site_label
_atom_site_fract_x
_atom_site_fract_y
_atom_site_fract_z
Si Si1 0.276031 0.846421 0.531042
Si Si2 0.836957 0.864022 0.337278
Si Si3 0.245654 0.566521 0.337377
Si Si4 0.665717 0.278987 0.025514
Si Si5 0.065203 0.064237 0.609529
Si Si6 0.258373 0.455296 0.068744
Si Si7 0.434617 0.354682 0.962207
Si Si8 0.617726 0.563415 0.160971
O O1 0.281194 0.875196 0.616609
O O2 0.326418 0.795840 0.519502
O O3 0.213932 0.813994 0.524785
O O4 0.282750 0.901784 0.467533
O O5 0.813303 0.855846 0.250000
O O6 0.827508 0.799767 0.384511
O O7 0.903646 0.884089 0.335921
O O8 0.808124 0.921996 0.382632
O O9 0.224661 0.572519 0.250000
O O10 0.223015 0.500390 0.372964
O O11 0.314068 0.566490 0.346492
O O12 0.603364 0.296467 0.992789
O O13 0.070087 0.086728 0.520725
O O14 0.000000 0.060210 0.637416
O O15 0.094180 0.997060 0.617375
O O16 0.283917 0.500000 0.000000
O O17 0.500000 0.331112 0.954510
O O18 0.410583 0.376071 0.879270
O O19 0.598578 0.562601 0.250000
#
# Coordination Sequence:
#
# PCOD8255664 Si02
#       8
#    16  16  16  16  16  16  16  16
#     4   9  17  30  46  61  79 114 144 178 207 256
#     4  10  18  27  40  56  78 108 140 177 215 248
#     4  10  18  27  43  66  91 112 135 174 218 257
#     4   9  18  31  45  59  80 108 151 180 212 249
#     4  10  20  29  39  56  79 112 152 186 210 238
#     4   9  17  27  43  60  80 106 136 165 209 258
#     4  10  20  32  45  59  81 113 150 189 217 245
#     4  11  20  28  40  60  87 115 145 181 216 249
#
# _framework density 14.864445
#
# number of rings (size 3 to 8) (size 9 to 14) (size 15 to 20)
#    0.000    2.250    2.500    1.500    1.750    3.250 
#    0.000    0.000    0.000    0.750    0.000    0.000 
#    0.000    4.500    0.000    0.250    0.000    0.500 
#
# Total GULP energy -793264.357209 kJ/mol
# GULP energy per Si atom -12394.755581 kJ/mol
# Density = 1.483061 g / cm^3
# Si number density = 14.864445 Si / 1000 Ang^3
#
#
#
# Elastic Constant Matrix: (Units=GPa)
#
#
# Indices 1 2 3 4 5 6 
#
# 1 39.7622 36.4627 20.0432 0.0000 0.0000 0.0000
# 2 36.4627 97.2437 46.3634 0.0000 0.0000 0.0000
# 3 20.0432 46.3634 93.0828 0.0000 0.0000 0.0000
# 4 0.0000 0.0000 0.0000 12.6642 0.0000 0.0000
# 5 0.0000 0.0000 0.0000 0.0000 10.7988 0.0000
# 6 0.0000 0.0000 0.0000 0.0000 0.0000 15.9891
#
#
#
# Elastic Compliance Matrix: (Units=1/GPa)
#
#
# Indices 1 2 3 4 5 6 
#
# 1 0.038476 -0.013740 -0.001441 0.000000 0.000000 0.000000
# 2 -0.013740 0.018393 -0.006203 0.000000 0.000000 0.000000
# 3 -0.001441 -0.006203 0.014143 0.000000 0.000000 0.000000
# 4 0.000000 0.000000 0.000000 0.078963 0.000000 0.000000
# 5 0.000000 0.000000 0.000000 0.000000 0.092602 0.000000
# 6 0.000000 0.000000 0.000000 0.000000 0.000000 0.062543
#
#
# Mechanical properties :
#
#
# Convention : Reuss Voigt Hill
#
# Bulk Modulus (GPa) = 35.40576 48.42525 41.91550
# Shear Modulus (GPa) = 13.99380 16.37171 15.18276
#
# Velocity S-wave (km/s) = 3.07160 3.32234 3.19942
# Velocity P-wave (km/s) = 6.03742 6.88229 6.47365
#
# Compressibility (1/GPa) = 0.02824400
#
# Stress axis : x y z
#
# Youngs Moduli (GPa) = 25.99043 54.36966 70.70693
#
# Poissons Ratio (x) = 0.74703 0.10190
# Poissons Ratio (y) = 0.35710 0.43857
# Poissons Ratio (z) = 0.03746 0.33723
#
# Static dielectric constant tensor:
#      x y z
#    x 2.592280 0.000000 0.000000 
#    y 0.000000 2.808880 0.000000 
#    z 0.000000 0.000000 3.001910 
# 
# 
# High freq. dielectric constant tensor:
#      x y z
#    x 1.521490 0.000000 0.000000 
#    y 0.000000 1.552040 0.000000 
#    z 0.000000 0.000000 1.578300 
# 
# From -- ./inp_files/48497.got.cif
#   From: 2010.03.12/outbox.cif.g09.slc.cpg/sg63_25_cif.got.tgz:48497.got - 2010.04.10 19:34:48.
