data_PCOD8255381
_publ_section_title
;
Structure prediction by ZEFSAII (Michael W. Deem and Ramdas Pophale) SiO2 
 PCOD8255381
Probable space group: C M C M
;
_chemical_formula_sum "Si O2"
_cell_formula_units_Z 88
_cell_length_a 19.824636
_cell_length_b 27.070234
_cell_length_c 9.289323
_cell_angle_alpha 90.000000
_cell_angle_beta 90.000000
_cell_angle_gamma 90.000000
_cell_volume 4985.185188
_symmetry_space_group_name_H-M "C M C M"
_symmetry_group_IT_number 63
_symmetry_cell_setting 'orthorhombic'
loop_
_space_group_symop_operation_xyz
x,y,z
-x,-y,1/2+z
x,-y,-z
-x,y,1/2-z
-x,-y,-z
x,y,1/2-z
-x,y,z
x,-y,1/2+z
1/2+x,1/2+y,z
1/2-x,1/2-y,1/2+z
1/2+x,1/2-y,-z
1/2-x,1/2+y,1/2-z
1/2-x,1/2-y,-z
1/2+x,1/2+y,1/2-z
1/2-x,1/2+y,z
1/2+x,1/2-y,1/2+z
loop_
_atom_site_type_symbol
_atom_site_label
_atom_site_fract_x
_atom_site_fract_y
_atom_site_fract_z
Si Si1 0.853011 0.274971 0.090145
Si Si2 0.500000 0.103440 0.412159
Si Si3 0.500000 0.680274 0.907609
Si Si4 0.365325 0.947803 0.576999
Si Si5 0.644650 0.678891 0.918750
Si Si6 0.221788 0.626982 0.918119
Si Si7 0.500000 0.786534 0.002426
O O1 0.825988 0.263760 0.250000
O O2 0.818088 0.324356 0.030691
O O3 0.830506 0.229691 0.990207
O O4 0.933362 0.283437 0.099660
O O5 0.500000 0.085046 0.250000
O O6 0.432197 0.080593 0.481075
O O7 0.500000 0.162405 0.415896
O O8 0.500000 0.656513 0.750000
O O9 0.570437 0.663323 0.983855
O O10 0.500000 0.740104 0.894139
O O11 0.361219 0.952640 0.750000
O O12 0.300512 0.918078 0.518839
O O13 0.364955 0.000000 0.500000
O O14 0.636798 0.690263 0.750000
O O15 0.698396 0.635593 0.946282
O O16 0.207709 0.615243 0.750000
#
# Coordination Sequence:
#
# PCOD8255381 Si02
#       7
#    16   8   8  16  16  16   8
#     4  10  19  29  44  69 101 133 171 210 250 291
#     4  10  20  34  53  75  98 130 176 215 251 293
#     4   8  15  27  46  71 100 133 166 206 242 286
#     4  11  23  39  56  76  99 130 169 215 260 303
#     4   9  18  31  49  71 100 135 171 205 247 298
#     4  10  20  34  50  72  99 132 169 210 254 304
#     4  10  16  29  45  68  99 136 176 206 247 288
#
# _framework density 17.652304000000001
#
# number of rings (size 3 to 8) (size 9 to 14) (size 15 to 20)
#    0.000    2.182    1.818    1.909    0.000    2.182 
#    0.000    1.364    0.000    0.000    0.000    0.636 
#    0.000    0.000    0.000    0.000    0.000    0.000 
#
# Total GULP energy -545297.172006 kJ/mol
# GULP energy per Si atom -12393.117546 kJ/mol
# Density = 1.761213 g / cm^3
# Si number density = 17.652304 Si / 1000 Ang^3
#
#
#
# Elastic Constant Matrix: (Units=GPa)
#
#
# Indices 1 2 3 4 5 6 
#
# 1 114.1793 47.0422 23.3806 0.0000 0.0000 0.0000
# 2 47.0422 68.4216 26.8327 0.0000 0.0000 0.0000
# 3 23.3806 26.8327 56.1729 0.0000 0.0000 0.0000
# 4 0.0000 0.0000 0.0000 27.2485 0.0000 0.0000
# 5 0.0000 0.0000 0.0000 0.0000 20.0821 0.0000
# 6 0.0000 0.0000 0.0000 0.0000 0.0000 23.3322
#
#
#
# Elastic Compliance Matrix: (Units=1/GPa)
#
#
# Indices 1 2 3 4 5 6 
#
# 1 0.012300 -0.007935 -0.001329 0.000000 0.000000 0.000000
# 2 -0.007935 0.023104 -0.007733 0.000000 0.000000 0.000000
# 3 -0.001329 -0.007733 0.022049 0.000000 0.000000 0.000000
# 4 0.000000 0.000000 0.000000 0.036699 0.000000 0.000000
# 5 0.000000 0.000000 0.000000 0.000000 0.049796 0.000000
# 6 0.000000 0.000000 0.000000 0.000000 0.000000 0.042859
#
#
# Mechanical properties :
#
#
# Convention : Reuss Voigt Hill
#
# Bulk Modulus (GPa) = 42.62986 48.14277 45.38631
# Shear Modulus (GPa) = 21.87024 23.56711 22.71867
#
# Velocity S-wave (km/s) = 3.52368 3.65783 3.59138
# Velocity P-wave (km/s) = 6.38414 6.72098 6.55473
#
# Compressibility (1/GPa) = 0.02345774
#
# Stress axis : x y z
#
# Youngs Moduli (GPa) = 81.30326 43.28294 45.35276
#
# Poissons Ratio (x) = 0.34346 0.06027
# Poissons Ratio (y) = 0.64516 0.35073
# Poissons Ratio (z) = 0.10804 0.33472
#
# Static dielectric constant tensor:
#      x y z
#    x 3.691450 0.000000 0.000000 
#    y 0.000000 2.931520 0.000000 
#    z 0.000000 0.000000 3.049650 
# 
# 
# High freq. dielectric constant tensor:
#      x y z
#    x 1.697360 0.000000 0.000000 
#    y 0.000000 1.643270 0.000000 
#    z 0.000000 0.000000 1.667150 
# 
# From -- ./inp_files/8309.got.cif
#   From: 2010.03.12/outbox.cif.g09.slc.cpg/sg63_5_cif.got.tgz:8309.got - 2010.04.10 19:34:48.
