data_PCOD8255051
_publ_section_title
;
Structure prediction by ZEFSAII (Michael W. Deem and Ramdas Pophale) SiO2 
 PCOD8255051
Probable space group: P N M A
;
_chemical_formula_sum "Si O2"
_cell_formula_units_Z 56
_cell_length_a 10.854882
_cell_length_b 14.815239
_cell_length_c 16.936425
_cell_angle_alpha 90.000000
_cell_angle_beta 90.000000
_cell_angle_gamma 90.000000
_cell_volume 2723.676426
_symmetry_space_group_name_H-M "P N M A"
_symmetry_group_IT_number 62
_symmetry_cell_setting 'orthorhombic'
loop_
_space_group_symop_operation_xyz
x,y,z
1/2-x,-y,1/2+z
1/2+x,1/2-y,1/2-z
-x,1/2+y,-z
-x,-y,-z
1/2+x,y,1/2-z
1/2-x,1/2+y,1/2+z
x,1/2-y,z
loop_
_atom_site_type_symbol
_atom_site_label
_atom_site_fract_x
_atom_site_fract_y
_atom_site_fract_z
Si Si1 0.922070 0.147929 0.688619
Si Si2 0.269581 0.144617 0.443704
Si Si3 0.915517 0.558380 0.442922
Si Si4 0.747645 0.521949 0.698487
Si Si5 0.299561 0.541751 0.630328
Si Si6 0.519645 0.079535 0.657324
Si Si7 0.539017 0.145303 0.489031
O O1 0.872205 0.250000 0.674605
O O2 0.810968 0.076485 0.692517
O O3 0.008521 0.120124 0.616562
O O4 0.998482 0.149456 0.771023
O O5 0.276142 0.250000 0.422726
O O6 0.174768 0.128501 0.514110
O O7 0.404904 0.103661 0.466053
O O8 0.212957 0.089704 0.370321
O O9 0.836168 0.484228 0.397046
O O10 0.000000 0.500000 0.500000
O O11 0.784298 0.574027 0.778905
O O12 0.601812 0.502420 0.691779
O O13 0.387623 0.455383 0.628598
O O14 0.355509 0.617119 0.572612
O O15 0.580904 0.122036 0.578554
O O16 0.522192 0.250000 0.481977
#
# Coordination Sequence:
#
# PCOD8255051 Si02
#       7
#     8   8   8   8   8   8   8
#     4  11  25  41  62  95 133 171 215 269 330 394
#     4  11  23  42  68  95 126 174 224 267 321 385
#     4  12  23  43  65  90 133 174 215 264 327 394
#     4  11  23  42  67  93 132 171 214 269 321 387
#     4  11  23  41  67  91 127 171 212 262 327 381
#     4  11  21  42  65  93 128 167 213 266 333 387
#     4  11  23  39  67  99 125 161 222 278 321 379
#
# _framework density 20.560445000000001
#
# number of rings (size 3 to 8) (size 9 to 14) (size 15 to 20)
#    0.000    0.857    5.714    2.143    0.000    1.714 
#    0.000    0.714    0.000    0.000    0.000    0.000 
#    0.000    0.000    0.000    0.000    0.000    0.000 
#
# Total GULP energy -694286.806768 kJ/mol
# GULP energy per Si atom -12397.978692 kJ/mol
# Density = 2.051365 g / cm^3
# Si number density = 20.560445 Si / 1000 Ang^3
#
#
#
# Elastic Constant Matrix: (Units=GPa)
#
#
# Indices 1 2 3 4 5 6 
#
# 1 58.6338 8.0392 28.1454 0.0000 0.0000 0.0000
# 2 8.0392 38.0578 38.6724 0.0000 0.0000 0.0000
# 3 28.1454 38.6724 151.8133 0.0000 0.0000 0.0000
# 4 0.0000 0.0000 0.0000 25.0071 0.0000 0.0000
# 5 0.0000 0.0000 0.0000 0.0000 37.2702 0.0000
# 6 0.0000 0.0000 0.0000 0.0000 0.0000 30.3758
#
#
#
# Elastic Compliance Matrix: (Units=1/GPa)
#
#
# Indices 1 2 3 4 5 6 
#
# 1 0.018730 -0.000577 -0.003325 0.000000 0.000000 0.000000
# 2 -0.000577 0.035471 -0.008929 0.000000 0.000000 0.000000
# 3 -0.003325 -0.008929 0.009478 0.000000 0.000000 0.000000
# 4 0.000000 0.000000 0.000000 0.039989 0.000000 0.000000
# 5 0.000000 0.000000 0.000000 0.000000 0.026831 0.000000
# 6 0.000000 0.000000 0.000000 0.000000 0.000000 0.032921
#
#
# Mechanical properties :
#
#
# Convention : Reuss Voigt Hill
#
# Bulk Modulus (GPa) = 26.30462 44.24652 35.27557
# Shear Modulus (GPa) = 24.78259 30.10716 27.44488
#
# Velocity S-wave (km/s) = 3.47559 3.83080 3.65751
# Velocity P-wave (km/s) = 5.37846 6.41355 5.91868
#
# Compressibility (1/GPa) = 0.03801614
#
# Stress axis : x y z
#
# Youngs Moduli (GPa) = 53.38902 28.19239 105.50759
#
# Poissons Ratio (x) = 0.01628 0.35086
# Poissons Ratio (y) = 0.03083 0.94203
# Poissons Ratio (z) = 0.17754 0.25172
#
# Static dielectric constant tensor:
#      x y z
#    x 3.831260 0.000000 0.000000 
#    y 0.000000 3.380480 0.000000 
#    z 0.000000 0.000000 4.072950 
# 
# 
# High freq. dielectric constant tensor:
#      x y z
#    x 1.805530 0.000000 0.000000 
#    y 0.000000 1.778970 0.000000 
#    z 0.000000 0.000000 1.826380 
# 
# From -- ./inp_files/18103.got.cif
#   From: 2010.03.12/outbox.cif.g09.slc.cpg/sg62_10_cif.got.tgz:18103.got - 2010.04.10 19:12:36.
