data_PCOD8255090
_publ_section_title
;
Structure prediction by ZEFSAII (Michael W. Deem and Ramdas Pophale) SiO2 
 PCOD8255090
Probable space group: P N M A
;
_chemical_formula_sum "Si O2"
_cell_formula_units_Z 40
_cell_length_a 8.894654
_cell_length_b 8.321660
_cell_length_c 25.531736
_cell_angle_alpha 90.000000
_cell_angle_beta 90.000000
_cell_angle_gamma 90.000000
_cell_volume 1889.815348
_symmetry_space_group_name_H-M "P N M A"
_symmetry_group_IT_number 62
_symmetry_cell_setting 'orthorhombic'
loop_
_space_group_symop_operation_xyz
x,y,z
1/2-x,-y,1/2+z
1/2+x,1/2-y,1/2-z
-x,1/2+y,-z
-x,-y,-z
1/2+x,y,1/2-z
1/2-x,1/2+y,1/2+z
x,1/2-y,z
loop_
_atom_site_type_symbol
_atom_site_label
_atom_site_fract_x
_atom_site_fract_y
_atom_site_fract_z
Si Si1 0.675990 0.066677 0.300422
Si Si2 0.165017 0.940172 0.393117
Si Si3 0.173352 0.061283 0.599140
Si Si4 0.649466 0.064251 0.706041
Si Si5 0.830790 0.940684 0.002661
O O1 0.714200 0.250000 0.286963
O O2 0.720480 0.027988 0.359738
O O3 0.767401 0.952312 0.261344
O O4 0.499698 0.040304 0.293665
O O5 0.157316 0.750000 0.393316
O O6 0.242731 0.002101 0.339947
O O7 0.261656 0.000298 0.442423
O O8 0.995705 0.008117 0.395801
O O9 0.179798 0.250000 0.610257
O O10 0.232706 0.025127 0.541574
O O11 0.607338 0.250000 0.696789
O O12 0.823060 0.750000 0.996221
O O13 0.000000 0.000000 0.000000
#
# Coordination Sequence:
#
# PCOD8255090 Si02
#       5
#     8   8   8   8   8
#     4  12  25  41  61  92 127 161 203 258 312 363
#     4   9  21  39  62  88 118 156 203 250 300 360
#     4  11  22  40  63  89 120 161 206 252 306 369
#     4  11  22  41  66  91 120 163 210 253 303 370
#     4  11  22  39  61  90 123 159 202 253 307 366
#
# _framework density 21.166087999999998
#
# number of rings (size 3 to 8) (size 9 to 14) (size 15 to 20)
#    0.000    1.200    0.000    6.600    0.000    3.200 
#    0.000    9.000    0.000    0.000    0.000    0.000 
#    0.000    0.000    0.000    0.000    0.000    0.000 
#
# Total GULP energy -496296.045734 kJ/mol
# GULP energy per Si atom -12407.401143 kJ/mol
# Density = 2.111791 g / cm^3
# Si number density = 21.166088 Si / 1000 Ang^3
#
#
#
# Elastic Constant Matrix: (Units=GPa)
#
#
# Indices 1 2 3 4 5 6 
#
# 1 113.7686 29.6215 15.6513 0.0000 0.0000 0.0000
# 2 29.6215 58.5415 20.8963 0.0000 0.0000 0.0000
# 3 15.6513 20.8963 99.2284 0.0000 0.0000 0.0000
# 4 0.0000 0.0000 0.0000 31.0372 0.0000 0.0000
# 5 0.0000 0.0000 0.0000 0.0000 48.8260 0.0000
# 6 0.0000 0.0000 0.0000 0.0000 0.0000 29.7368
#
#
#
# Elastic Compliance Matrix: (Units=1/GPa)
#
#
# Indices 1 2 3 4 5 6 
#
# 1 0.010152 -0.004936 -0.000562 0.000000 0.000000 0.000000
# 2 -0.004936 0.020871 -0.003616 0.000000 0.000000 0.000000
# 3 -0.000562 -0.003616 0.010928 0.000000 0.000000 0.000000
# 4 0.000000 0.000000 0.000000 0.032219 0.000000 0.000000
# 5 0.000000 0.000000 0.000000 0.000000 0.020481 0.000000
# 6 0.000000 0.000000 0.000000 0.000000 0.000000 0.033628
#
#
# Mechanical properties :
#
#
# Convention : Reuss Voigt Hill
#
# Bulk Modulus (GPa) = 42.15586 44.87517 43.51552
# Shear Modulus (GPa) = 32.38002 35.61128 33.99565
#
# Velocity S-wave (km/s) = 3.91552 4.10624 4.01201
# Velocity P-wave (km/s) = 6.35623 6.61280 6.48578
#
# Compressibility (1/GPa) = 0.02372149
#
# Stress axis : x y z
#
# Youngs Moduli (GPa) = 98.49935 47.91424 91.50844
#
# Poissons Ratio (x) = 0.23653 0.05141
# Poissons Ratio (y) = 0.48624 0.33094
# Poissons Ratio (z) = 0.05533 0.17328
#
# Static dielectric constant tensor:
#      x y z
#    x 3.991120 0.000000 0.000000 
#    y 0.000000 3.616090 0.000000 
#    z 0.000000 0.000000 3.971260 
# 
# 
# High freq. dielectric constant tensor:
#      x y z
#    x 1.846590 0.000000 0.000000 
#    y 0.000000 1.817330 0.000000 
#    z 0.000000 0.000000 1.845330 
# 
# From -- ./inp_files/28581.got.cif
#   From: 2010.03.12/outbox.cif.g09.slc.cpg/sg62_15_cif.got.tgz:28581.got - 2010.04.10 19:12:36.
