data_PCOD8255112
_publ_section_title
;
Structure prediction by ZEFSAII (Michael W. Deem and Ramdas Pophale) SiO2 
 PCOD8255112
Probable space group: P N M A
;
_chemical_formula_sum "Si O2"
_cell_formula_units_Z 48
_cell_length_a 8.901478
_cell_length_b 16.509459
_cell_length_c 15.528348
_cell_angle_alpha 90.000000
_cell_angle_beta 90.000000
_cell_angle_gamma 90.000000
_cell_volume 2282.024066
_symmetry_space_group_name_H-M "P N M A"
_symmetry_group_IT_number 62
_symmetry_cell_setting 'orthorhombic'
loop_
_space_group_symop_operation_xyz
x,y,z
1/2-x,-y,1/2+z
1/2+x,1/2-y,1/2-z
-x,1/2+y,-z
-x,-y,-z
1/2+x,y,1/2-z
1/2-x,1/2+y,1/2+z
x,1/2-y,z
loop_
_atom_site_type_symbol
_atom_site_label
_atom_site_fract_x
_atom_site_fract_y
_atom_site_fract_z
Si Si1 0.934005 0.912406 0.493031
Si Si2 0.803660 0.943075 0.770894
Si Si3 0.603885 0.953298 0.434385
Si Si4 0.479352 0.156367 0.174127
Si Si5 0.618412 0.904319 0.171857
Si Si6 0.565171 0.340588 0.678263
O O1 0.756451 0.918595 0.475493
O O2 0.965425 0.857509 0.576310
O O3 0.030696 0.878644 0.413888
O O4 0.000000 0.000000 0.500000
O O5 0.888540 0.861107 0.742466
O O6 0.640733 0.911896 0.798674
O O7 0.868771 0.987431 0.854311
O O8 0.811341 0.004567 0.687167
O O9 0.506123 0.875118 0.408984
O O10 0.500000 0.000000 0.500000
O O11 0.427103 0.250000 0.183426
O O12 0.493000 0.894623 0.243918
O O13 0.754996 0.841876 0.177792
O O14 0.507895 0.250000 0.689908
#
# Coordination Sequence:
#
# PCOD8255112 Si02
#       6
#     8   8   8   8   8   8
#     4  12  23  44  69  97 133 171 229 278 331 407
#     4  11  22  44  67  95 131 176 230 267 321 414
#     4  11  24  43  70  97 127 177 227 276 335 409
#     4  12  27  43  68 102 138 177 220 282 344 394
#     4  11  22  42  70  97 131 183 224 273 333 409
#     4  11  24  40  65 101 136 171 218 279 341 396
#
# _framework density 21.033958999999999
#
# number of rings (size 3 to 8) (size 9 to 14) (size 15 to 20)
#    0.000    0.667    3.333    6.000    2.333    2.000 
#    0.000    0.833    0.000    0.000    0.000    0.000 
#    0.000    0.000    0.000    0.000    0.000    0.000 
#
# Total GULP energy -594898.068710 kJ/mol
# GULP energy per Si atom -12393.709765 kJ/mol
# Density = 2.098608 g / cm^3
# Si number density = 21.033959 Si / 1000 Ang^3
#
#
#
# Elastic Constant Matrix: (Units=GPa)
#
#
# Indices 1 2 3 4 5 6 
#
# 1 133.6482 16.0285 54.3268 0.0000 0.0000 0.0000
# 2 16.0285 91.6758 23.4839 0.0000 0.0000 0.0000
# 3 54.3268 23.4839 92.4012 0.0000 0.0000 0.0000
# 4 0.0000 0.0000 0.0000 26.2013 0.0000 0.0000
# 5 0.0000 0.0000 0.0000 0.0000 40.0389 0.0000
# 6 0.0000 0.0000 0.0000 0.0000 0.0000 30.2214
#
#
#
# Elastic Compliance Matrix: (Units=1/GPa)
#
#
# Indices 1 2 3 4 5 6 
#
# 1 0.009838 -0.000255 -0.005719 0.000000 0.000000 0.000000
# 2 -0.000255 0.011674 -0.002817 0.000000 0.000000 0.000000
# 3 -0.005719 -0.002817 0.014901 0.000000 0.000000 0.000000
# 4 0.000000 0.000000 0.000000 0.038166 0.000000 0.000000
# 5 0.000000 0.000000 0.000000 0.000000 0.024976 0.000000
# 6 0.000000 0.000000 0.000000 0.000000 0.000000 0.033089
#
#
# Mechanical properties :
#
#
# Convention : Reuss Voigt Hill
#
# Bulk Modulus (GPa) = 53.10602 56.15593 54.63098
# Shear Modulus (GPa) = 31.94825 34.21807 33.08316
#
# Velocity S-wave (km/s) = 3.90152 4.03774 3.97021
# Velocity P-wave (km/s) = 6.75266 6.96373 6.85900
#
# Compressibility (1/GPa) = 0.01883026
#
# Stress axis : x y z
#
# Youngs Moduli (GPa) = 101.64954 85.65880 67.10989
#
# Poissons Ratio (x) = 0.02184 0.38382
# Poissons Ratio (y) = 0.02592 0.18906
# Poissons Ratio (z) = 0.58136 0.24131
#
# Static dielectric constant tensor:
#      x y z
#    x 3.811500 0.000000 0.000000 
#    y 0.000000 3.526210 0.000000 
#    z 0.000000 0.000000 3.352030 
# 
# 
# High freq. dielectric constant tensor:
#      x y z
#    x 1.839180 0.000000 0.000000 
#    y 0.000000 1.814700 0.000000 
#    z 0.000000 0.000000 1.829040 
# 
# From -- ./inp_files/16943.got.cif
#   From: 2010.03.12/outbox.cif.g09.slc.cpg/sg62_9_cif.got.tgz:16943.got - 2010.04.10 19:12:36.
