data_PCOD8255138
_publ_section_title
;
Structure prediction by ZEFSAII (Michael W. Deem and Ramdas Pophale) SiO2 
 PCOD8255138
Probable space group: P N M A
;
_chemical_formula_sum "Si O2"
_cell_formula_units_Z 48
_cell_length_a 27.272238
_cell_length_b 8.893983
_cell_length_c 9.436844
_cell_angle_alpha 90.000000
_cell_angle_beta 90.000000
_cell_angle_gamma 90.000000
_cell_volume 2288.989756
_symmetry_space_group_name_H-M "P N M A"
_symmetry_group_IT_number 62
_symmetry_cell_setting 'orthorhombic'
loop_
_space_group_symop_operation_xyz
x,y,z
1/2-x,-y,1/2+z
1/2+x,1/2-y,1/2-z
-x,1/2+y,-z
-x,-y,-z
1/2+x,y,1/2-z
1/2-x,1/2+y,1/2+z
x,1/2-y,z
loop_
_atom_site_type_symbol
_atom_site_label
_atom_site_fract_x
_atom_site_fract_y
_atom_site_fract_z
Si Si1 0.796642 0.426094 0.326556
Si Si2 0.607716 0.078027 0.712457
Si Si3 0.548203 0.077554 0.440115
Si Si4 0.392555 0.079782 0.794428
Si Si5 0.953835 0.079764 0.434107
Si Si6 0.704475 0.073858 0.131787
O O1 0.802191 0.250000 0.353967
O O2 0.844211 0.482759 0.243813
O O3 0.788962 0.503340 0.477399
O O4 0.751317 0.465664 0.226082
O O5 0.616559 0.250000 0.758548
O O6 0.593996 0.065147 0.547680
O O7 0.561187 0.012166 0.795723
O O8 0.535297 0.250000 0.408172
O O9 0.500000 0.000000 0.500000
O O10 0.564684 0.998314 0.295711
O O11 0.385495 0.250000 0.740083
O O12 0.341593 0.992157 0.782629
O O13 0.408279 0.077423 0.958199
O O14 0.967547 0.250000 0.392217
O O15 0.000000 0.000000 0.500000
O O16 0.696541 0.250000 0.113209
#
# Coordination Sequence:
#
# PCOD8255138 Si02
#       6
#     8   8   8   8   8   8
#     4  11  25  44  67  98 130 166 214 263 320 386
#     4  11  24  42  65  93 128 168 214 265 320 382
#     4  11  25  43  64  95 131 173 220 267 321 384
#     4  11  24  42  65  94 129 169 215 265 320 382
#     4  11  23  39  63  94 126 165 211 263 319 383
#     4  11  25  44  68  98 130 169 214 263 322 383
#
# _framework density 20.969950000000001
#
# number of rings (size 3 to 8) (size 9 to 14) (size 15 to 20)
#    0.000    1.000    1.667    4.000    2.333   11.333 
#    0.000    0.000    0.000    0.000    0.000    0.000 
#    0.000    0.000    0.000    0.000    0.000    0.000 
#
# Total GULP energy -595545.674085 kJ/mol
# GULP energy per Si atom -12407.201543 kJ/mol
# Density = 2.092222 g / cm^3
# Si number density = 20.969950 Si / 1000 Ang^3
#
#
#
# Elastic Constant Matrix: (Units=GPa)
#
#
# Indices 1 2 3 4 5 6 
#
# 1 100.8050 44.7093 15.8073 0.0000 0.0000 0.0000
# 2 44.7093 117.1663 36.6751 0.0000 0.0000 0.0000
# 3 15.8073 36.6751 76.2524 0.0000 0.0000 0.0000
# 4 0.0000 0.0000 0.0000 34.1433 0.0000 0.0000
# 5 0.0000 0.0000 0.0000 0.0000 36.7240 0.0000
# 6 0.0000 0.0000 0.0000 0.0000 0.0000 40.0848
#
#
#
# Elastic Compliance Matrix: (Units=1/GPa)
#
#
# Indices 1 2 3 4 5 6 
#
# 1 0.011948 -0.004455 -0.000334 0.000000 0.000000 0.000000
# 2 -0.004455 0.011708 -0.004708 0.000000 0.000000 0.000000
# 3 -0.000334 -0.004708 0.015448 0.000000 0.000000 0.000000
# 4 0.000000 0.000000 0.000000 0.029288 0.000000 0.000000
# 5 0.000000 0.000000 0.000000 0.000000 0.027230 0.000000
# 6 0.000000 0.000000 0.000000 0.000000 0.000000 0.024947
#
#
# Mechanical properties :
#
#
# Convention : Reuss Voigt Hill
#
# Bulk Modulus (GPa) = 49.72442 54.28967 52.00704
# Shear Modulus (GPa) = 34.18387 35.32590 34.75488
#
# Velocity S-wave (km/s) = 4.04187 4.10884 4.07549
# Velocity P-wave (km/s) = 6.74878 6.96100 6.85571
#
# Compressibility (1/GPa) = 0.02011084
#
# Stress axis : x y z
#
# Youngs Moduli (GPa) = 83.69373 85.40875 64.73323
#
# Poissons Ratio (x) = 0.38047 0.02164
# Poissons Ratio (y) = 0.37283 0.30476
# Poissons Ratio (z) = 0.02798 0.40210
#
# Static dielectric constant tensor:
#      x y z
#    x 3.782650 0.000000 0.000000 
#    y 0.000000 4.055000 0.000000 
#    z 0.000000 0.000000 3.839560 
# 
# 
# High freq. dielectric constant tensor:
#      x y z
#    x 1.832150 0.000000 0.000000 
#    y 0.000000 1.839450 0.000000 
#    z 0.000000 0.000000 1.827890 
# 
# From -- ./inp_files/10286.got.cif
#   From: 2010.03.12/outbox.cif.g09.slc.cpg/sg62_6_cif.got.tgz:10286.got - 2010.04.10 19:12:36.
