data_PCOD8255178
_publ_section_title
;
Structure prediction by ZEFSAII (Michael W. Deem and Ramdas Pophale) SiO2 
 PCOD8255178
Probable space group: P N M A
;
_chemical_formula_sum "Si O2"
_cell_formula_units_Z 64
_cell_length_a 14.626299
_cell_length_b 17.904188
_cell_length_c 11.378922
_cell_angle_alpha 90.000000
_cell_angle_beta 90.000000
_cell_angle_gamma 90.000000
_cell_volume 2979.821142
_symmetry_space_group_name_H-M "P N M A"
_symmetry_group_IT_number 62
_symmetry_cell_setting 'orthorhombic'
loop_
_space_group_symop_operation_xyz
x,y,z
1/2-x,-y,1/2+z
1/2+x,1/2-y,1/2-z
-x,1/2+y,-z
-x,-y,-z
1/2+x,y,1/2-z
1/2-x,1/2+y,1/2+z
x,1/2-y,z
loop_
_atom_site_type_symbol
_atom_site_label
_atom_site_fract_x
_atom_site_fract_y
_atom_site_fract_z
Si Si1 0.598949 0.834395 0.472269
Si Si2 0.135712 0.067934 0.230356
Si Si3 0.951425 0.162988 0.589839
Si Si4 0.063332 0.070917 0.987102
Si Si5 0.313481 0.096114 0.743139
Si Si6 0.556884 0.574287 0.852933
Si Si7 0.608609 0.414581 0.779297
Si Si8 0.201801 0.835590 0.790314
O O1 0.604179 0.750000 0.425893
O O2 0.495400 0.853682 0.508739
O O3 0.622922 0.891113 0.369014
O O4 0.668040 0.847810 0.578145
O O5 0.195256 0.134428 0.283785
O O6 0.031997 0.078753 0.271326
O O7 0.177560 0.990565 0.278546
O O8 0.140889 0.070070 0.087920
O O9 0.955260 0.250000 0.552422
O O10 0.853033 0.145938 0.649715
O O11 0.966148 0.107371 0.480557
O O12 0.033780 0.146718 0.682233
O O13 0.106958 0.067393 0.858853
O O14 0.000000 0.000000 0.000000
O O15 0.210737 0.118014 0.704534
O O16 0.591615 0.488753 0.857490
O O17 0.637940 0.622879 0.801091
O O18 0.201589 0.750000 0.753167
#
# Coordination Sequence:
#
# PCOD8255178 Si02
#       8
#     8   8   8   8   8   8   8   8
#     4  11  23  44  70  95 137 181 225 283 343 405
#     4  12  25  42  75 103 137 179 236 287 346 418
#     4  12  28  48  68 101 148 187 234 291 354 416
#     4  12  21  44  71 103 131 173 230 288 345 404
#     4  12  26  43  72 104 137 186 232 290 342 412
#     4  12  24  47  70  99 140 186 229 289 349 416
#     4  12  26  44  74 103 133 184 240 284 344 419
#     4  11  26  44  68 105 141 180 229 287 350 413
#
# _framework density 21.477799000000001
#
# number of rings (size 3 to 8) (size 9 to 14) (size 15 to 20)
#    0.000    0.250    7.500    1.125    3.500    2.500 
#    0.000    0.000    0.000    0.000    0.000    0.000 
#    0.000    0.000    0.000    0.000    0.000    0.000 
#
# Total GULP energy -793848.919449 kJ/mol
# GULP energy per Si atom -12403.889366 kJ/mol
# Density = 2.142891 g / cm^3
# Si number density = 21.477799 Si / 1000 Ang^3
#
#
#
# Elastic Constant Matrix: (Units=GPa)
#
#
# Indices 1 2 3 4 5 6 
#
# 1 95.0691 24.1154 10.0939 0.0000 0.0000 0.0000
# 2 24.1154 86.6640 35.0588 0.0000 0.0000 0.0000
# 3 10.0939 35.0588 79.5073 0.0000 0.0000 0.0000
# 4 0.0000 0.0000 0.0000 30.7398 0.0000 0.0000
# 5 0.0000 0.0000 0.0000 0.0000 27.5666 0.0000
# 6 0.0000 0.0000 0.0000 0.0000 0.0000 32.5247
#
#
#
# Elastic Compliance Matrix: (Units=1/GPa)
#
#
# Indices 1 2 3 4 5 6 
#
# 1 0.011318 -0.003126 -0.000059 0.000000 0.000000 0.000000
# 2 -0.003126 0.014907 -0.006177 0.000000 0.000000 0.000000
# 3 -0.000059 -0.006177 0.015308 0.000000 0.000000 0.000000
# 4 0.000000 0.000000 0.000000 0.032531 0.000000 0.000000
# 5 0.000000 0.000000 0.000000 0.000000 0.036276 0.000000
# 6 0.000000 0.000000 0.000000 0.000000 0.000000 0.030746
#
#
# Mechanical properties :
#
#
# Convention : Reuss Voigt Hill
#
# Bulk Modulus (GPa) = 43.83680 44.41964 44.12822
# Shear Modulus (GPa) = 29.86651 30.96437 30.41544
#
# Velocity S-wave (km/s) = 3.73309 3.80108 3.76724
# Velocity P-wave (km/s) = 6.24787 6.32383 6.28596
#
# Compressibility (1/GPa) = 0.02281189
#
# Stress axis : x y z
#
# Youngs Moduli (GPa) = 88.35692 67.08171 65.32335
#
# Poissons Ratio (x) = 0.20967 0.00383
# Poissons Ratio (y) = 0.27617 0.40347
# Poissons Ratio (z) = 0.00518 0.41433
#
# Static dielectric constant tensor:
#      x y z
#    x 3.272500 0.000000 0.000000 
#    y 0.000000 3.984940 0.000000 
#    z 0.000000 0.000000 4.153060 
# 
# 
# High freq. dielectric constant tensor:
#      x y z
#    x 1.843670 0.000000 0.000000 
#    y 0.000000 1.842890 0.000000 
#    z 0.000000 0.000000 1.848940 
# 
# From -- ./inp_files/13589.got.cif
#   From: 2010.03.12/outbox.cif.g09.slc.cpg/sg62_7_cif.got.tgz:13589.got - 2010.04.10 19:12:36.
