data_PCOD8255709
_publ_section_title
;
Structure prediction by ZEFSAII (Michael W. Deem and Ramdas Pophale) SiO2 
 PCOD8255709
Probable space group: C M C M
;
_chemical_formula_sum "Si O2"
_cell_formula_units_Z 112
_cell_length_a 9.353673
_cell_length_b 25.364765
_cell_length_c 29.084485
_cell_angle_alpha 90.000000
_cell_angle_beta 90.000000
_cell_angle_gamma 90.000000
_cell_volume 6900.402189
_symmetry_space_group_name_H-M "C M C M"
_symmetry_group_IT_number 63
_symmetry_cell_setting 'orthorhombic'
loop_
_space_group_symop_operation_xyz
x,y,z
-x,-y,1/2+z
x,-y,-z
-x,y,1/2-z
-x,-y,-z
x,y,1/2-z
-x,y,z
x,-y,1/2+z
1/2+x,1/2+y,z
1/2-x,1/2-y,1/2+z
1/2+x,1/2-y,-z
1/2-x,1/2+y,1/2-z
1/2-x,1/2-y,-z
1/2+x,1/2+y,1/2-z
1/2-x,1/2+y,z
1/2+x,1/2-y,1/2+z
loop_
_atom_site_type_symbol
_atom_site_label
_atom_site_fract_x
_atom_site_fract_y
_atom_site_fract_z
Si Si1 0.330814 0.360458 0.955717
Si Si2 0.167911 0.169097 0.943006
Si Si3 0.830624 0.725121 0.799800
Si Si4 0.667159 0.433532 0.116208
Si Si5 0.335144 0.106203 0.697743
Si Si6 0.669630 0.736158 0.104089
Si Si7 0.170407 0.022379 0.047996
O O1 0.500000 0.364265 0.957602
O O2 0.280569 0.320009 0.916139
O O3 0.269150 0.418494 0.944228
O O4 0.276894 0.340700 0.005247
O O5 0.205270 0.117671 0.913604
O O6 0.254992 0.218177 0.924163
O O7 0.000000 0.182092 0.941314
O O8 0.772357 0.746100 0.750000
O O9 0.775051 0.665684 0.808103
O O10 0.781191 0.761844 0.842246
O O11 0.000000 0.722790 0.797124
O O12 0.500000 0.437168 0.125980
O O13 0.746584 0.432310 0.164924
O O14 0.723164 0.485139 0.089333
O O15 0.314011 0.086927 0.750000
O O16 0.500000 0.103600 0.683143
O O17 0.500000 0.744200 0.099336
O O18 0.000000 0.022065 0.045937
O O19 0.231111 0.000000 0.000000
#
# Coordination Sequence:
#
# PCOD8255709 Si02
#       7
#    16  16  16  16  16  16  16
#     4   9  17  28  43  64  89 119 158 185 209 262
#     4  10  18  28  42  65  94 120 145 177 221 271
#     4   8  14  25  41  61  84 110 140 174 216 262
#     4  10  18  27  46  70  91 118 150 189 227 257
#     4   9  17  30  47  65  89 121 150 179 223 278
#     4  10  18  28  45  66  88 116 147 185 223 262
#     4   9  15  27  45  64  89 122 155 185 218 263
#
# _framework density 16.230937999999998
#
# number of rings (size 3 to 8) (size 9 to 14) (size 15 to 20)
#    0.000    2.714    2.857    1.286    0.000    0.286 
#    0.000    0.000    0.000    3.429    0.000    4.000 
#    0.000    0.000    0.000    0.000    0.000    0.000 
#
# Total GULP energy -694125.925728 kJ/mol
# GULP energy per Si atom -12395.105817 kJ/mol
# Density = 1.619400 g / cm^3
# Si number density = 16.230938 Si / 1000 Ang^3
#
#
#
# Elastic Constant Matrix: (Units=GPa)
#
#
# Indices 1 2 3 4 5 6 
#
# 1 21.7308 27.1328 29.2411 0.0000 0.0000 0.0000
# 2 27.1328 128.2405 77.7281 0.0000 0.0000 0.0000
# 3 29.2411 77.7281 145.6258 0.0000 0.0000 0.0000
# 4 0.0000 0.0000 0.0000 23.5980 0.0000 0.0000
# 5 0.0000 0.0000 0.0000 0.0000 20.6981 0.0000
# 6 0.0000 0.0000 0.0000 0.0000 0.0000 14.9291
#
#
#
# Elastic Compliance Matrix: (Units=1/GPa)
#
#
# Indices 1 2 3 4 5 6 
#
# 1 0.069793 -0.009272 -0.009065 0.000000 0.000000 0.000000
# 2 -0.009272 0.012759 -0.004948 0.000000 0.000000 0.000000
# 3 -0.009065 -0.004948 0.011328 0.000000 0.000000 0.000000
# 4 0.000000 0.000000 0.000000 0.042376 0.000000 0.000000
# 5 0.000000 0.000000 0.000000 0.000000 0.048314 0.000000
# 6 0.000000 0.000000 0.000000 0.000000 0.000000 0.066983
#
#
# Mechanical properties :
#
#
# Convention : Reuss Voigt Hill
#
# Bulk Modulus (GPa) = 21.13765 62.64457 41.89111
# Shear Modulus (GPa) = 15.92896 22.61139 19.27017
#
# Velocity S-wave (km/s) = 3.13612 3.73648 3.44939
# Velocity P-wave (km/s) = 5.11517 7.56932 6.45986
#
# Compressibility (1/GPa) = 0.04730895
#
# Stress axis : x y z
#
# Youngs Moduli (GPa) = 14.32814 78.37731 88.27461
#
# Poissons Ratio (x) = 0.72672 0.80022
# Poissons Ratio (y) = 0.13285 0.43680
# Poissons Ratio (z) = 0.12989 0.38783
#
# Static dielectric constant tensor:
#      x y z
#    x 2.651930 0.000000 0.000000 
#    y 0.000000 3.188280 0.000000 
#    z 0.000000 0.000000 3.373970 
# 
# 
# High freq. dielectric constant tensor:
#      x y z
#    x 1.579430 0.000000 0.000000 
#    y 0.000000 1.608860 0.000000 
#    z 0.000000 0.000000 1.633740 
# 
# From -- ./inp_files/61976.got.cif
#   From: 2010.03.12/outbox.cif.g09.slc.cpg/sg63_31_cif.got.tgz:61976.got - 2010.04.10 19:34:48.
