data_PCOD8255992
_publ_section_title
;
Structure prediction by ZEFSAII (Michael W. Deem and Ramdas Pophale) SiO2 
 PCOD8255992
Probable space group: C M C M
;
_chemical_formula_sum "Si O2"
_cell_formula_units_Z 96
_cell_length_a 20.559492
_cell_length_b 30.082340
_cell_length_c 9.776840
_cell_angle_alpha 90.000000
_cell_angle_beta 90.000000
_cell_angle_gamma 90.000000
_cell_volume 6046.756818
_symmetry_space_group_name_H-M "C M C M"
_symmetry_group_IT_number 63
_symmetry_cell_setting 'orthorhombic'
loop_
_space_group_symop_operation_xyz
x,y,z
-x,-y,1/2+z
x,-y,-z
-x,y,1/2-z
-x,-y,-z
x,y,1/2-z
-x,y,z
x,-y,1/2+z
1/2+x,1/2+y,z
1/2-x,1/2-y,1/2+z
1/2+x,1/2-y,-z
1/2-x,1/2+y,1/2-z
1/2-x,1/2-y,-z
1/2+x,1/2+y,1/2-z
1/2-x,1/2+y,z
1/2+x,1/2-y,1/2+z
loop_
_atom_site_type_symbol
_atom_site_label
_atom_site_fract_x
_atom_site_fract_y
_atom_site_fract_z
Si Si1 0.721204 0.538498 0.403460
Si Si2 0.378054 0.863227 0.910803
Si Si3 0.876385 0.537258 0.400680
Si Si4 0.427516 0.788147 0.405796
Si Si5 0.267412 0.634156 0.090128
Si Si6 0.193258 0.770794 0.590343
O O1 0.691551 0.500000 0.500000
O O2 0.693761 0.531095 0.250000
O O3 0.798748 0.536519 0.402889
O O4 0.701954 0.587531 0.464773
O O5 0.383993 0.852079 0.750000
O O6 0.400903 0.913607 0.941810
O O7 0.304708 0.856051 0.967649
O O8 0.423673 0.830561 0.995939
O O9 0.906234 0.500000 0.500000
O O10 0.901868 0.525425 0.250000
O O11 0.414220 0.803396 0.250000
O O12 0.500000 0.767812 0.420257
O O13 0.375755 0.750511 0.449468
O O14 0.257745 0.625490 0.250000
O O15 0.312849 0.676434 0.057259
O O16 0.210876 0.763759 0.750000
O O17 0.250000 0.750000 0.500000
#
# Coordination Sequence:
#
# PCOD8255992 Si02
#       6
#    16  16  16  16  16  16
#     4   8  13  22  35  54  82 111 134 163 206 252
#     4   9  16  28  45  63  83 111 149 184 215 259
#     4   8  14  23  37  58  82 107 137 176 218 259
#     4  10  21  33  44  64  92 117 143 180 226 266
#     4   8  14  25  42  62  84 110 142 177 212 249
#     4  10  18  30  48  66  87 116 147 182 219 258
#
# _framework density 15.876279
#
# number of rings (size 3 to 8) (size 9 to 14) (size 15 to 20)
#    0.000    3.167    1.667    2.000    0.000    1.000 
#    0.000    3.333    0.000    0.500    0.000    0.000 
#    0.000    0.667    0.000    0.500    0.000    1.000 
#
# Total GULP energy -594800.594762 kJ/mol
# GULP energy per Si atom -12391.679058 kJ/mol
# Density = 1.584014 g / cm^3
# Si number density = 15.876279 Si / 1000 Ang^3
#
#
#
# Elastic Constant Matrix: (Units=GPa)
#
#
# Indices 1 2 3 4 5 6 
#
# 1 57.2823 45.6637 29.4646 0.0000 0.0000 0.0000
# 2 45.6637 139.1515 58.3946 0.0000 0.0000 0.0000
# 3 29.4646 58.3946 59.5170 0.0000 0.0000 0.0000
# 4 0.0000 0.0000 0.0000 26.3926 0.0000 0.0000
# 5 0.0000 0.0000 0.0000 0.0000 10.6382 0.0000
# 6 0.0000 0.0000 0.0000 0.0000 0.0000 12.1826
#
#
#
# Elastic Compliance Matrix: (Units=1/GPa)
#
#
# Indices 1 2 3 4 5 6 
#
# 1 0.025467 -0.005213 -0.007493 0.000000 0.000000 0.000000
# 2 -0.005213 0.013283 -0.010452 0.000000 0.000000 0.000000
# 3 -0.007493 -0.010452 0.030767 0.000000 0.000000 0.000000
# 4 0.000000 0.000000 0.000000 0.037889 0.000000 0.000000
# 5 0.000000 0.000000 0.000000 0.000000 0.094001 0.000000
# 6 0.000000 0.000000 0.000000 0.000000 0.000000 0.082084
#
#
# Mechanical properties :
#
#
# Convention : Reuss Voigt Hill
#
# Bulk Modulus (GPa) = 43.10238 58.11074 50.60656
# Shear Modulus (GPa) = 14.81298 18.00455 16.40876
#
# Velocity S-wave (km/s) = 3.05786 3.37122 3.21836
# Velocity P-wave (km/s) = 6.29883 7.19967 6.76426
#
# Compressibility (1/GPa) = 0.02320058
#
# Stress axis : x y z
#
# Youngs Moduli (GPa) = 39.26615 75.28311 32.50271
#
# Poissons Ratio (x) = 0.39242 0.24356
# Poissons Ratio (y) = 0.20468 0.33972
# Poissons Ratio (z) = 0.29424 0.78687
#
# Static dielectric constant tensor:
#      x y z
#    x 2.586150 0.000000 0.000000 
#    y 0.000000 3.323800 0.000000 
#    z 0.000000 0.000000 3.021230 
# 
# 
# High freq. dielectric constant tensor:
#      x y z
#    x 1.551990 0.000000 0.000000 
#    y 0.000000 1.620440 0.000000 
#    z 0.000000 0.000000 1.597290 
# 
# From -- ./inp_files/21537.got.cif
#   From: 2010.03.12/outbox.cif.g09.slc.cpg/sg63_11_cif.got.tgz:21537.got - 2010.04.10 19:34:48.
