data_PCOD8255517
_publ_section_title
;
Structure prediction by ZEFSAII (Michael W. Deem and Ramdas Pophale) SiO2 
 PCOD8255517
Probable space group: C M C M
;
_chemical_formula_sum "Si O2"
_cell_formula_units_Z 128
_cell_length_a 21.915189
_cell_length_b 20.311168
_cell_length_c 18.202762
_cell_angle_alpha 90.000000
_cell_angle_beta 90.000000
_cell_angle_gamma 90.000000
_cell_volume 8102.469587
_symmetry_space_group_name_H-M "C M C M"
_symmetry_group_IT_number 63
_symmetry_cell_setting 'orthorhombic'
loop_
_space_group_symop_operation_xyz
x,y,z
-x,-y,1/2+z
x,-y,-z
-x,y,1/2-z
-x,-y,-z
x,y,1/2-z
-x,y,z
x,-y,1/2+z
1/2+x,1/2+y,z
1/2-x,1/2-y,1/2+z
1/2+x,1/2-y,-z
1/2-x,1/2+y,1/2-z
1/2-x,1/2-y,-z
1/2+x,1/2+y,1/2-z
1/2-x,1/2+y,z
1/2+x,1/2-y,1/2+z
loop_
_atom_site_type_symbol
_atom_site_label
_atom_site_fract_x
_atom_site_fract_y
_atom_site_fract_z
Si Si1 0.070532 0.023201 0.664243
Si Si2 0.351657 0.625710 0.572445
Si Si3 0.567915 0.290155 0.536146
Si Si4 0.743095 0.370952 0.669910
Si Si5 0.399335 0.374794 0.667010
Si Si6 0.829444 0.694906 0.967720
Si Si7 0.278184 0.739837 0.887598
Si Si8 0.265679 0.925439 0.515916
O O1 0.084112 0.034746 0.750000
O O2 0.115347 0.068854 0.617502
O O3 0.000000 0.039022 0.645774
O O4 0.086168 0.948941 0.641110
O O5 0.400421 0.660414 0.520393
O O6 0.323279 0.678552 0.631136
O O7 0.298012 0.596817 0.520765
O O8 0.500000 0.275544 0.508091
O O9 0.564820 0.324248 0.615671
O O10 0.601129 0.218962 0.541817
O O11 0.756661 0.403404 0.750000
O O12 0.671707 0.358821 0.660003
O O13 0.778187 0.300211 0.669493
O O14 0.764808 0.417811 0.604319
O O15 0.423108 0.365052 0.750000
O O16 0.799729 0.734428 0.034074
O O17 0.822216 0.617016 0.983445
O O18 0.791211 0.713449 0.894687
O O19 0.281195 0.000000 0.500000
#
# Coordination Sequence:
#
# PCOD8255517 Si02
#       8
#    16  16  16  16  16  16  16  16
#     4  10  21  34  43  57  89 128 159 191 228 268
#     4  10  19  30  47  69  91 115 156 190 227 275
#     4  11  19  29  47  67  89 118 153 191 227 266
#     4  10  17  28  48  70  93 119 152 191 232 275
#     4  10  19  31  44  60  88 123 158 190 226 267
#     4   8  15  29  44  64  87 111 148 183 226 270
#     4   8  14  28  45  62  87 114 141 186 229 270
#     4  10  18  31  51  69  93 124 150 187 235 282
#
# _framework density 15.797653
#
# number of rings (size 3 to 8) (size 9 to 14) (size 15 to 20)
#    0.000    2.375    2.500    3.000    0.000    1.250 
#    0.000    1.250    0.000    1.875    0.000    0.000 
#    0.000    0.000    0.000    0.000    0.000    0.250 
#
# Total GULP energy -793075.219677 kJ/mol
# GULP energy per Si atom -12391.800307 kJ/mol
# Density = 1.576170 g / cm^3
# Si number density = 15.797653 Si / 1000 Ang^3
#
#
#
# Elastic Constant Matrix: (Units=GPa)
#
#
# Indices 1 2 3 4 5 6 
#
# 1 77.8260 61.4436 26.2464 0.0000 0.0000 0.0000
# 2 61.4436 103.4349 41.9762 0.0000 0.0000 0.0000
# 3 26.2464 41.9762 69.4939 0.0000 0.0000 0.0000
# 4 0.0000 0.0000 0.0000 17.3696 0.0000 0.0000
# 5 0.0000 0.0000 0.0000 0.0000 12.6966 0.0000
# 6 0.0000 0.0000 0.0000 0.0000 0.0000 10.4946
#
#
#
# Elastic Compliance Matrix: (Units=1/GPa)
#
#
# Indices 1 2 3 4 5 6 
#
# 1 0.024217 -0.014140 -0.000605 0.000000 0.000000 0.000000
# 2 -0.014140 0.021063 -0.007383 0.000000 0.000000 0.000000
# 3 -0.000605 -0.007383 0.019078 0.000000 0.000000 0.000000
# 4 0.000000 0.000000 0.000000 0.057572 0.000000 0.000000
# 5 0.000000 0.000000 0.000000 0.000000 0.078761 0.000000
# 6 0.000000 0.000000 0.000000 0.000000 0.000000 0.095287
#
#
# Mechanical properties :
#
#
# Convention : Reuss Voigt Hill
#
# Bulk Modulus (GPa) = 49.74540 56.67634 53.21087
# Shear Modulus (GPa) = 14.41198 16.18475 15.29836
#
# Velocity S-wave (km/s) = 3.02368 3.20426 3.11528
# Velocity P-wave (km/s) = 6.61420 7.04585 6.83344
#
# Compressibility (1/GPa) = 0.02010236
#
# Stress axis : x y z
#
# Youngs Moduli (GPa) = 41.29386 47.47569 52.41750
#
# Poissons Ratio (x) = 0.67130 0.03173
# Poissons Ratio (y) = 0.58389 0.38697
# Poissons Ratio (z) = 0.02500 0.35049
#
# Static dielectric constant tensor:
#      x y z
#    x 2.978870 0.000000 0.000000 
#    y 0.000000 3.121290 0.000000 
#    z 0.000000 0.000000 2.953310 
# 
# 
# High freq. dielectric constant tensor:
#      x y z
#    x 1.585300 0.000000 0.000000 
#    y 0.000000 1.596600 0.000000 
#    z 0.000000 0.000000 1.596920 
# 
# From -- ./inp_files/47547.got.cif
#   From: 2010.03.12/outbox.cif.g09.slc.cpg/sg63_24_cif.got.tgz:47547.got - 2010.04.10 19:34:48.
