data_PCOD8255486
_publ_section_title
;
Structure prediction by ZEFSAII (Michael W. Deem and Ramdas Pophale) SiO2 
 PCOD8255486
Probable space group: C M C M
;
_chemical_formula_sum "Si O2"
_cell_formula_units_Z 88
_cell_length_a 14.381039
_cell_length_b 21.289646
_cell_length_c 15.612754
_cell_angle_alpha 90.000000
_cell_angle_beta 90.000000
_cell_angle_gamma 90.000000
_cell_volume 4780.113636
_symmetry_space_group_name_H-M "C M C M"
_symmetry_group_IT_number 63
_symmetry_cell_setting 'orthorhombic'
loop_
_space_group_symop_operation_xyz
x,y,z
-x,-y,1/2+z
x,-y,-z
-x,y,1/2-z
-x,-y,-z
x,y,1/2-z
-x,y,z
x,-y,1/2+z
1/2+x,1/2+y,z
1/2-x,1/2-y,1/2+z
1/2+x,1/2-y,-z
1/2-x,1/2+y,1/2-z
1/2-x,1/2-y,-z
1/2+x,1/2+y,1/2-z
1/2-x,1/2+y,z
1/2+x,1/2-y,1/2+z
loop_
_atom_site_type_symbol
_atom_site_label
_atom_site_fract_x
_atom_site_fract_y
_atom_site_fract_z
Si Si1 0.110096 0.369791 0.250000
Si Si2 0.105144 0.627564 0.250000
Si Si3 0.711828 0.998366 0.250000
Si Si4 0.729751 0.542787 0.421600
Si Si5 0.391390 0.863450 0.934728
Si Si6 0.889737 0.150652 0.348677
Si Si7 0.889996 0.286222 0.404196
O O1 0.141469 0.441116 0.250000
O O2 0.149877 0.334358 0.166432
O O3 0.000000 0.369143 0.250000
O O4 0.161535 0.564371 0.250000
O O5 0.126002 0.665301 0.338479
O O6 0.000000 0.605251 0.250000
O O7 0.771024 0.997677 0.162285
O O8 0.696482 0.500000 0.500000
O O9 0.830860 0.572937 0.443958
O O10 0.654967 0.597502 0.407473
O O11 0.500000 0.881315 0.949446
O O12 0.359191 0.810478 0.002056
O O13 0.856454 0.144002 0.250000
O O14 0.851760 0.216584 0.386150
O O15 0.000000 0.145212 0.354883
O O16 0.000000 0.283694 0.395585
#
# Coordination Sequence:
#
# PCOD8255486 Si02
#       7
#     8   8   8  16  16  16  16
#     4  10  17  27  48  78 110 137 170 216 265 311
#     4   8  15  28  45  67 102 150 185 197 235 299
#     4  10  19  31  46  71 108 143 173 211 250 308
#     4  11  22  35  54  79 109 143 180 216 264 321
#     4   9  18  32  51  78 113 147 176 211 253 317
#     4  10  20  38  60  78 100 135 182 235 275 307
#     4   9  17  31  53  80 104 133 177 223 268 312
#
# _framework density 18.409604000000002
#
# number of rings (size 3 to 8) (size 9 to 14) (size 15 to 20)
#    0.000    2.364    1.818    1.364    0.000    2.182 
#    0.000    0.000    0.000    1.091    0.000    1.273 
#    0.000    0.000    0.000    0.000    0.000    0.000 
#
# Total GULP energy -545320.424616 kJ/mol
# GULP energy per Si atom -12393.646014 kJ/mol
# Density = 1.836770 g / cm^3
# Si number density = 18.409604 Si / 1000 Ang^3
#
#
#
# Elastic Constant Matrix: (Units=GPa)
#
#
# Indices 1 2 3 4 5 6 
#
# 1 29.4280 31.7987 31.6373 0.0000 0.0000 0.0000
# 2 31.7987 88.3614 72.5802 0.0000 0.0000 0.0000
# 3 31.6373 72.5802 173.0678 0.0000 0.0000 0.0000
# 4 0.0000 0.0000 0.0000 35.5558 0.0000 0.0000
# 5 0.0000 0.0000 0.0000 0.0000 18.6810 0.0000
# 6 0.0000 0.0000 0.0000 0.0000 0.0000 -11.7775
#
#
#
# Elastic Compliance Matrix: (Units=1/GPa)
#
#
# Indices 1 2 3 4 5 6 
#
# 1 0.056446 -0.018058 -0.002745 0.000000 0.000000 0.000000
# 2 -0.018058 0.023041 -0.006362 0.000000 0.000000 0.000000
# 3 -0.002745 -0.006362 0.008948 0.000000 0.000000 0.000000
# 4 0.000000 0.000000 0.000000 0.028125 0.000000 0.000000
# 5 0.000000 0.000000 0.000000 0.000000 0.053530 0.000000
# 6 0.000000 0.000000 0.000000 0.000000 0.000000 -0.084908
#
#
# Mechanical properties :
#
#
# Convention : Reuss Voigt Hill
#
# Bulk Modulus (GPa) = 29.32183 62.54330 45.93256
# Shear Modulus (GPa) = 33.13864 18.81458 25.97661
#
# Velocity S-wave (km/s) = 4.24733 3.20034 3.76045
# Velocity P-wave (km/s) = 6.32575 6.90675 6.62262
#
# Compressibility (1/GPa) = 0.03410428
#
# Stress axis : x y z
#
# Youngs Moduli (GPa) = 17.71616 43.39998 111.75735
#
# Poissons Ratio (x) = 0.78373 0.30681
# Poissons Ratio (y) = 0.31992 0.71099
# Poissons Ratio (z) = 0.04864 0.27611
#
# Static dielectric constant tensor:
#      x y z
#    x 3.167440 0.000000 0.000000 
#    y 0.000000 3.254630 0.000000 
#    z 0.000000 0.000000 3.993100 
# 
# 
# High freq. dielectric constant tensor:
#      x y z
#    x 1.685510 0.000000 0.000000 
#    y 0.000000 1.692910 0.000000 
#    z 0.000000 0.000000 1.734220 
# 
# From -- ./inp_files/32136.got.cif
#   From: 2010.03.12/outbox.cif.g09.slc.cpg/sg63_17_cif.got.tgz:32136.got - 2010.04.10 19:34:48.
