data_PCOD8255955
_publ_section_title
;
Structure prediction by ZEFSAII (Michael W. Deem and Ramdas Pophale) SiO2 
 PCOD8255955
Probable space group: C M C M
;
_chemical_formula_sum "Si O2"
_cell_formula_units_Z 80
_cell_length_a 23.783331
_cell_length_b 26.130369
_cell_length_c 8.842946
_cell_angle_alpha 90.000000
_cell_angle_beta 90.000000
_cell_angle_gamma 90.000000
_cell_volume 5495.601024
_symmetry_space_group_name_H-M "C M C M"
_symmetry_group_IT_number 63
_symmetry_cell_setting 'orthorhombic'
loop_
_space_group_symop_operation_xyz
x,y,z
-x,-y,1/2+z
x,-y,-z
-x,y,1/2-z
-x,-y,-z
x,y,1/2-z
-x,y,z
x,-y,1/2+z
1/2+x,1/2+y,z
1/2-x,1/2-y,1/2+z
1/2+x,1/2-y,-z
1/2-x,1/2+y,1/2-z
1/2-x,1/2-y,-z
1/2+x,1/2+y,1/2-z
1/2-x,1/2+y,z
1/2+x,1/2-y,1/2+z
loop_
_atom_site_type_symbol
_atom_site_label
_atom_site_fract_x
_atom_site_fract_y
_atom_site_fract_z
Si Si1 0.886078 0.239731 0.928522
Si Si2 0.000000 0.779283 0.928456
Si Si3 0.000000 0.111043 0.574538
Si Si4 0.821296 0.855804 0.928478
Si Si5 0.614920 0.555085 0.572388
Si Si6 0.281201 0.204302 0.424025
O O1 0.894060 0.231367 0.750000
O O2 0.847549 0.290449 0.966253
O O3 0.945860 0.249740 0.005183
O O4 0.858720 0.188330 0.995568
O O5 0.000000 0.774466 0.750000
O O6 0.000000 0.838527 0.974008
O O7 0.054042 0.077674 0.532094
O O8 0.000000 0.127295 0.750000
O O9 0.833892 0.855998 0.750000
O O10 0.753866 0.847371 0.962958
O O11 0.836618 0.909881 0.000740
O O12 0.620528 0.500000 0.500000
O O13 0.624578 0.551173 0.750000
O O14 0.275016 0.215946 0.250000
O O15 0.250000 0.250000 0.500000
#
# Coordination Sequence:
#
# PCOD8255955 Si02
#       6
#    16   8   8  16  16  16
#     4  10  18  30  45  62  85 113 143 174 213 258
#     4  12  22  29  43  64  87 115 146 183 220 253
#     4  10  21  35  47  58  80 111 147 185 225 263
#     4  10  18  30  46  65  85 107 140 179 218 259
#     4  11  22  34  47  62  82 112 148 187 228 262
#     4   8  16  28  44  63  83 107 136 172 211 255
#
# _framework density 14.557097000000001
#
# number of rings (size 3 to 8) (size 9 to 14) (size 15 to 20)
#    0.000    2.000    2.000    3.000    0.000    2.400 
#    0.000    0.000    0.000    0.000    0.000    0.000 
#    0.000    0.000    0.000    0.900    0.000   10.000 
#
# Total GULP energy -495620.924704 kJ/mol
# GULP energy per Si atom -12390.523118 kJ/mol
# Density = 1.452396 g / cm^3
# Si number density = 14.557097 Si / 1000 Ang^3
#
#
#
# Elastic Constant Matrix: (Units=GPa)
#
#
# Indices 1 2 3 4 5 6 
#
# 1 129.4249 64.9650 57.4316 0.0000 0.0000 0.0000
# 2 64.9650 61.4953 37.5757 0.0000 0.0000 0.0000
# 3 57.4316 37.5757 82.0628 0.0000 0.0000 0.0000
# 4 0.0000 0.0000 0.0000 18.9008 0.0000 0.0000
# 5 0.0000 0.0000 0.0000 0.0000 19.2888 0.0000
# 6 0.0000 0.0000 0.0000 0.0000 0.0000 18.6340
#
#
#
# Elastic Compliance Matrix: (Units=1/GPa)
#
#
# Indices 1 2 3 4 5 6 
#
# 1 0.018027 -0.015739 -0.005410 0.000000 0.000000 0.000000
# 2 -0.015739 0.036319 -0.005616 0.000000 0.000000 0.000000
# 3 -0.005410 -0.005616 0.018543 0.000000 0.000000 0.000000
# 4 0.000000 0.000000 0.000000 0.052908 0.000000 0.000000
# 5 0.000000 0.000000 0.000000 0.000000 0.051843 0.000000
# 6 0.000000 0.000000 0.000000 0.000000 0.000000 0.053665
#
#
# Mechanical properties :
#
#
# Convention : Reuss Voigt Hill
#
# Bulk Modulus (GPa) = 51.64835 65.88084 58.76459
# Shear Modulus (GPa) = 17.16515 18.89877 18.03196
#
# Velocity S-wave (km/s) = 3.43762 3.60703 3.52334
# Velocity P-wave (km/s) = 7.16332 7.91850 7.55036
#
# Compressibility (1/GPa) = 0.01936170
#
# Stress axis : x y z
#
# Youngs Moduli (GPa) = 55.47216 27.53348 53.92865
#
# Poissons Ratio (x) = 0.43334 0.29173
# Poissons Ratio (y) = 0.87306 0.30284
# Poissons Ratio (z) = 0.30008 0.15462
#
# Static dielectric constant tensor:
#      x y z
#    x 3.490580 0.000000 0.000000 
#    y 0.000000 2.706340 0.000000 
#    z 0.000000 0.000000 2.934740 
# 
# 
# High freq. dielectric constant tensor:
#      x y z
#    x 1.557320 0.000000 0.000000 
#    y 0.000000 1.511640 0.000000 
#    z 0.000000 0.000000 1.575700 
# 
# From -- ./inp_files/6721.got.cif
#   From: 2010.03.12/outbox.cif.g09.slc.cpg/sg63_4_cif.got.tgz:6721.got - 2010.04.10 19:34:48.
