data_PCOD8255005
_publ_section_title
;
Structure prediction by ZEFSAII (Michael W. Deem and Ramdas Pophale) SiO2 
 PCOD8255005
Probable space group: P N M A
;
_chemical_formula_sum "Si O2"
_cell_formula_units_Z 48
_cell_length_a 13.345050
_cell_length_b 12.935959
_cell_length_c 17.594143
_cell_angle_alpha 90.000000
_cell_angle_beta 90.000000
_cell_angle_gamma 90.000000
_cell_volume 3037.294846
_symmetry_space_group_name_H-M "P N M A"
_symmetry_group_IT_number 62
_symmetry_cell_setting 'orthorhombic'
loop_
_space_group_symop_operation_xyz
x,y,z
1/2-x,-y,1/2+z
1/2+x,1/2-y,1/2-z
-x,1/2+y,-z
-x,-y,-z
1/2+x,y,1/2-z
1/2-x,1/2+y,1/2+z
x,1/2-y,z
loop_
_atom_site_type_symbol
_atom_site_label
_atom_site_fract_x
_atom_site_fract_y
_atom_site_fract_z
Si Si1 0.950109 0.631663 0.802748
Si Si2 0.166679 0.368932 0.456383
Si Si3 0.334822 0.131714 0.339530
Si Si4 0.643097 0.369885 0.870580
Si Si5 0.786534 0.490504 0.768072
Si Si6 0.952084 0.991479 0.659864
O O1 0.916398 0.750000 0.808315
O O2 0.855118 0.560026 0.826058
O O3 0.980553 0.604551 0.715169
O O4 0.047476 0.608566 0.855119
O O5 0.133397 0.250000 0.445560
O O6 0.273763 0.390086 0.416658
O O7 0.178627 0.396408 0.544578
O O8 0.082469 0.443320 0.420341
O O9 0.321200 0.250000 0.313320
O O10 0.297086 0.062361 0.270175
O O11 0.619275 0.250000 0.859367
O O12 0.733445 0.399520 0.814159
O O13 0.542906 0.431432 0.851889
O O14 0.859948 0.446273 0.701347
#
# Coordination Sequence:
#
# PCOD8255005 Si02
#       6
#     8   8   8   8   8   8
#     4   9  16  27  50  76  97 113 149 205 252 286
#     4   9  18  31  50  72 100 129 157 197 248 293
#     4   9  15  28  49  73  96 120 152 197 250 294
#     4  11  21  33  46  68  99 136 169 194 231 289
#     4   9  17  30  45  70  95 123 162 197 234 279
#     4   9  18  31  51  71  97 118 167 200 244 276
#
# _framework density 15.803537
#
# number of rings (size 3 to 8) (size 9 to 14) (size 15 to 20)
#    1.000    1.667    1.667    1.500    0.000    0.667 
#    0.000    0.833    0.000    1.000    0.000    0.000 
#    0.000    0.000    0.000    0.000    0.000    0.000 
#
# Total GULP energy -594664.138000 kJ/mol
# GULP energy per Si atom -12388.836208 kJ/mol
# Density = 1.576757 g / cm^3
# Si number density = 15.803537 Si / 1000 Ang^3
#
#
#
# Elastic Constant Matrix: (Units=GPa)
#
#
# Indices 1 2 3 4 5 6 
#
# 1 75.6405 34.4149 27.7505 0.0000 0.0000 0.0000
# 2 34.4149 54.2414 25.3267 0.0000 0.0000 0.0000
# 3 27.7505 25.3267 65.7011 0.0000 0.0000 0.0000
# 4 0.0000 0.0000 0.0000 21.9126 0.0000 0.0000
# 5 0.0000 0.0000 0.0000 0.0000 20.6752 0.0000
# 6 0.0000 0.0000 0.0000 0.0000 0.0000 25.0178
#
#
#
# Elastic Compliance Matrix: (Units=1/GPa)
#
#
# Indices 1 2 3 4 5 6 
#
# 1 0.019504 -0.010400 -0.004229 0.000000 0.000000 0.000000
# 2 -0.010400 0.028029 -0.006412 0.000000 0.000000 0.000000
# 3 -0.004229 -0.006412 0.019478 0.000000 0.000000 0.000000
# 4 0.000000 0.000000 0.000000 0.045636 0.000000 0.000000
# 5 0.000000 0.000000 0.000000 0.000000 0.048367 0.000000
# 6 0.000000 0.000000 0.000000 0.000000 0.000000 0.039971
#
#
# Mechanical properties :
#
#
# Convention : Reuss Voigt Hill
#
# Bulk Modulus (GPa) = 40.11383 41.17414 40.64398
# Shear Modulus (GPa) = 19.89053 20.72719 20.30886
#
# Velocity S-wave (km/s) = 3.55154 3.62547 3.58869
# Velocity P-wave (km/s) = 6.50045 6.60573 6.55330
#
# Compressibility (1/GPa) = 0.02492906
#
# Stress axis : x y z
#
# Youngs Moduli (GPa) = 51.27233 35.67792 51.33936
#
# Poissons Ratio (x) = 0.37105 0.21710
# Poissons Ratio (y) = 0.53324 0.32918
# Poissons Ratio (z) = 0.21682 0.22876
#
# Static dielectric constant tensor:
#      x y z
#    x 3.081400 0.000000 0.000000 
#    y 0.000000 2.773110 0.000000 
#    z 0.000000 0.000000 2.835740 
# 
# 
# High freq. dielectric constant tensor:
#      x y z
#    x 1.613760 0.000000 0.000000 
#    y 0.000000 1.588830 0.000000 
#    z 0.000000 0.000000 1.582760 
# 
# From -- ./inp_files/23864.got.cif
#   From: 2010.03.12/outbox.cif.g09.slc.cpg/sg62_12_cif.got.tgz:23864.got - 2010.04.10 19:12:36.
