data_PCOD8255518
_publ_section_title
;
Structure prediction by ZEFSAII (Michael W. Deem and Ramdas Pophale) SiO2 
 PCOD8255518
Probable space group: C M C M
;
_chemical_formula_sum "Si O2"
_cell_formula_units_Z 128
_cell_length_a 17.373996
_cell_length_b 17.930636
_cell_length_c 24.096785
_cell_angle_alpha 90.000000
_cell_angle_beta 90.000000
_cell_angle_gamma 90.000000
_cell_volume 7506.794277
_symmetry_space_group_name_H-M "C M C M"
_symmetry_group_IT_number 63
_symmetry_cell_setting 'orthorhombic'
loop_
_space_group_symop_operation_xyz
x,y,z
-x,-y,1/2+z
x,-y,-z
-x,y,1/2-z
-x,-y,-z
x,y,1/2-z
-x,y,z
x,-y,1/2+z
1/2+x,1/2+y,z
1/2-x,1/2-y,1/2+z
1/2+x,1/2-y,-z
1/2-x,1/2+y,1/2-z
1/2-x,1/2-y,-z
1/2+x,1/2+y,1/2-z
1/2-x,1/2+y,z
1/2+x,1/2-y,1/2+z
loop_
_atom_site_type_symbol
_atom_site_label
_atom_site_fract_x
_atom_site_fract_y
_atom_site_fract_z
Si Si1 0.699556 0.866299 0.614458
Si Si2 0.281533 0.476435 0.816322
Si Si3 0.583862 0.632609 0.185497
Si Si4 0.172661 0.248498 0.129685
Si Si5 0.413227 0.212100 0.525524
Si Si6 0.587615 0.743411 0.902372
Si Si7 0.699124 0.914544 0.493066
Si Si8 0.281165 0.625190 0.882843
O O1 0.705811 0.938454 0.655140
O O2 0.754499 0.803321 0.637638
O O3 0.615395 0.826750 0.616584
O O4 0.728537 0.885878 0.552601
O O5 0.271229 0.478787 0.750000
O O6 0.355132 0.428099 0.836613
O O7 0.294862 0.558395 0.840249
O O8 0.576534 0.622762 0.250000
O O9 0.500000 0.617669 0.158046
O O10 0.609472 0.718236 0.173094
O O11 0.136760 0.240325 0.068583
O O12 0.204696 0.331913 0.139891
O O13 0.500000 0.203150 0.547022
O O14 0.409321 0.258184 0.468833
O O15 0.378926 0.128986 0.521576
O O16 0.500000 0.731076 0.880885
O O17 0.642646 0.676908 0.881090
O O18 0.764626 0.902417 0.445930
O O19 0.676254 0.000000 0.500000
#
# Coordination Sequence:
#
# PCOD8255518 Si02
#       8
#    16  16  16  16  16  16  16  16
#     4   9  17  32  51  71  93 126 165 195 231 282
#     4  10  20  33  50  71  96 125 158 200 239 276
#     4   9  18  32  49  68  91 123 160 195 235 282
#     4   9  17  29  49  69  93 125 159 196 233 281
#     4   9  17  28  44  70 100 126 154 192 239 286
#     4   9  18  32  51  73  99 127 157 196 240 285
#     4  10  17  28  48  70  97 126 159 195 236 284
#     4  10  19  31  49  75  99 125 159 197 242 286
#
# _framework density 17.051219
#
# number of rings (size 3 to 8) (size 9 to 14) (size 15 to 20)
#    0.000    2.625    1.250    1.125    0.000    4.250 
#    0.000    1.875    0.000    1.500    0.000    0.000 
#    0.000    0.000    0.000    0.000    0.000    0.000 
#
# Total GULP energy -792945.201903 kJ/mol
# GULP energy per Si atom -12389.768780 kJ/mol
# Density = 1.701241 g / cm^3
# Si number density = 17.051219 Si / 1000 Ang^3
#
#
#
# Elastic Constant Matrix: (Units=GPa)
#
#
# Indices 1 2 3 4 5 6 
#
# 1 88.0867 40.8050 29.6230 0.0000 0.0000 0.0000
# 2 40.8050 99.0874 30.6202 0.0000 0.0000 0.0000
# 3 29.6230 30.6202 55.2829 0.0000 0.0000 0.0000
# 4 0.0000 0.0000 0.0000 28.9233 0.0000 0.0000
# 5 0.0000 0.0000 0.0000 0.0000 19.0971 0.0000
# 6 0.0000 0.0000 0.0000 0.0000 0.0000 13.8142
#
#
#
# Elastic Compliance Matrix: (Units=1/GPa)
#
#
# Indices 1 2 3 4 5 6 
#
# 1 0.015393 -0.004573 -0.005715 0.000000 0.000000 0.000000
# 2 -0.004573 0.013535 -0.005046 0.000000 0.000000 0.000000
# 3 -0.005715 -0.005046 0.023946 0.000000 0.000000 0.000000
# 4 0.000000 0.000000 0.000000 0.034574 0.000000 0.000000
# 5 0.000000 0.000000 0.000000 0.000000 0.052364 0.000000
# 6 0.000000 0.000000 0.000000 0.000000 0.000000 0.072389
#
#
# Mechanical properties :
#
#
# Convention : Reuss Voigt Hill
#
# Bulk Modulus (GPa) = 45.03497 49.39480 47.21489
# Shear Modulus (GPa) = 19.97827 21.79415 20.88621
#
# Velocity S-wave (km/s) = 3.42667 3.57901 3.50367
# Velocity P-wave (km/s) = 6.49038 6.79047 6.64212
#
# Compressibility (1/GPa) = 0.02220497
#
# Stress axis : x y z
#
# Youngs Moduli (GPa) = 64.96568 73.88476 41.75993
#
# Poissons Ratio (x) = 0.33785 0.23867
# Poissons Ratio (y) = 0.29707 0.21073
# Poissons Ratio (z) = 0.37130 0.37285
#
# Static dielectric constant tensor:
#      x y z
#    x 3.560300 0.000000 0.000000 
#    y 0.000000 3.250320 0.000000 
#    z 0.000000 0.000000 3.087820 
# 
# 
# High freq. dielectric constant tensor:
#      x y z
#    x 1.648880 0.000000 0.000000 
#    y 0.000000 1.655640 0.000000 
#    z 0.000000 0.000000 1.641850 
# 
# From -- ./inp_files/64071.got.cif
#   From: 2010.03.12/outbox.cif.g09.slc.cpg/sg63_33_cif.got.tgz:64071.got - 2010.04.10 19:34:48.
