data_PCOD8255490
_publ_section_title
;
Structure prediction by ZEFSAII (Michael W. Deem and Ramdas Pophale) SiO2 
 PCOD8255490
Probable space group: C M C M
;
_chemical_formula_sum "Si O2"
_cell_formula_units_Z 96
_cell_length_a 28.603975
_cell_length_b 26.667412
_cell_length_c 9.004061
_cell_angle_alpha 90.000000
_cell_angle_beta 90.000000
_cell_angle_gamma 90.000000
_cell_volume 6868.243582
_symmetry_space_group_name_H-M "C M C M"
_symmetry_group_IT_number 63
_symmetry_cell_setting 'orthorhombic'
loop_
_space_group_symop_operation_xyz
x,y,z
-x,-y,1/2+z
x,-y,-z
-x,y,1/2-z
-x,-y,-z
x,y,1/2-z
-x,y,z
x,-y,1/2+z
1/2+x,1/2+y,z
1/2-x,1/2-y,1/2+z
1/2+x,1/2-y,-z
1/2-x,1/2+y,1/2-z
1/2-x,1/2-y,-z
1/2+x,1/2+y,1/2-z
1/2-x,1/2+y,z
1/2+x,1/2-y,1/2+z
loop_
_atom_site_type_symbol
_atom_site_label
_atom_site_fract_x
_atom_site_fract_y
_atom_site_fract_z
Si Si1 0.806293 0.351428 0.577303
Si Si2 0.356408 0.948651 0.923174
Si Si3 0.779942 0.792888 0.924096
Si Si4 0.447814 0.107310 0.419917
Si Si5 0.639797 0.752698 0.925933
Si Si6 0.053164 0.289003 0.076934
O O1 0.818065 0.353328 0.750000
O O2 0.824063 0.403958 0.508559
O O3 0.750446 0.343865 0.549582
O O4 0.836262 0.304342 0.515933
O O5 0.347219 0.955679 0.750000
O O6 0.410742 0.936121 0.957284
O O7 0.341871 0.000000 0.000000
O O8 0.785600 0.781924 0.750000
O O9 0.750000 0.750000 0.000000
O O10 0.830782 0.793835 0.002738
O O11 0.441260 0.125730 0.250000
O O12 0.500000 0.085649 0.446114
O O13 0.438153 0.154345 0.524633
O O14 0.640024 0.746550 0.750000
O O15 0.587019 0.751216 0.987797
O O16 0.064687 0.285802 0.250000
O O17 0.000000 0.272551 0.042882
#
# Coordination Sequence:
#
# PCOD8255490 Si02
#       6
#    16  16  16  16  16  16
#     4   8  15  28  42  55  76 100 123 156 199 241
#     4  10  19  31  42  56  75  99 131 166 204 247
#     4   9  16  26  41  61  80 100 124 156 197 239
#     4   9  17  30  45  55  69  98 131 165 209 253
#     4  10  17  28  44  60  78 103 129 158 195 239
#     4  10  19  28  40  60  82 102 129 165 200 236
#
# _framework density 13.977373
#
# number of rings (size 3 to 8) (size 9 to 14) (size 15 to 20)
#    0.000    2.667    1.667    2.500    0.000    2.000 
#    0.000    1.667    0.000    0.000    0.000    0.000 
#    0.000    0.000    0.000    0.000    0.000    0.833 
#
# Total GULP energy -594832.004890 kJ/mol
# GULP energy per Si atom -12392.333435 kJ/mol
# Density = 1.394556 g / cm^3
# Si number density = 13.977373 Si / 1000 Ang^3
#
#
#
# Elastic Constant Matrix: (Units=GPa)
#
#
# Indices 1 2 3 4 5 6 
#
# 1 89.1785 46.1079 41.8201 0.0000 0.0000 0.0000
# 2 46.1079 49.4315 22.7943 0.0000 0.0000 0.0000
# 3 41.8201 22.7943 63.8466 0.0000 0.0000 0.0000
# 4 0.0000 0.0000 0.0000 16.7496 0.0000 0.0000
# 5 0.0000 0.0000 0.0000 0.0000 22.3268 0.0000
# 6 0.0000 0.0000 0.0000 0.0000 0.0000 19.0636
#
#
#
# Elastic Compliance Matrix: (Units=1/GPa)
#
#
# Indices 1 2 3 4 5 6 
#
# 1 0.026146 -0.019741 -0.010078 0.000000 0.000000 0.000000
# 2 -0.019741 0.039122 -0.001037 0.000000 0.000000 0.000000
# 3 -0.010078 -0.001037 0.022634 0.000000 0.000000 0.000000
# 4 0.000000 0.000000 0.000000 0.059703 0.000000 0.000000
# 5 0.000000 0.000000 0.000000 0.000000 0.044789 0.000000
# 6 0.000000 0.000000 0.000000 0.000000 0.000000 0.052456
#
#
# Mechanical properties :
#
#
# Convention : Reuss Voigt Hill
#
# Bulk Modulus (GPa) = 38.18196 47.10013 42.64105
# Shear Modulus (GPa) = 15.85834 17.74361 16.80097
#
# Velocity S-wave (km/s) = 3.37200 3.56680 3.47077
# Velocity P-wave (km/s) = 6.52202 7.12273 6.82899
#
# Compressibility (1/GPa) = 0.02619038
#
# Stress axis : x y z
#
# Youngs Moduli (GPa) = 38.24651 25.56134 44.18150
#
# Poissons Ratio (x) = 0.50460 0.44527
# Poissons Ratio (y) = 0.75502 0.04580
# Poissons Ratio (z) = 0.38545 0.02650
#
# Static dielectric constant tensor:
#      x y z
#    x 2.884590 0.000000 0.000000 
#    y 0.000000 2.537700 0.000000 
#    z 0.000000 0.000000 2.756220 
# 
# 
# High freq. dielectric constant tensor:
#      x y z
#    x 1.534280 0.000000 0.000000 
#    y 0.000000 1.476310 0.000000 
#    z 0.000000 0.000000 1.534950 
# 
# From -- ./inp_files/12968.got.cif
#   From: 2010.03.12/outbox.cif.g09.slc.cpg/sg63_7_cif.got.tgz:12968.got - 2010.04.10 19:34:48.
