data_PCOD8255048
_publ_section_title
;
Structure prediction by ZEFSAII (Michael W. Deem and Ramdas Pophale) SiO2 
 PCOD8255048
Probable space group: P N M A
;
_chemical_formula_sum "Si O2"
_cell_formula_units_Z 48
_cell_length_a 14.674844
_cell_length_b 18.229782
_cell_length_c 8.621298
_cell_angle_alpha 90.000000
_cell_angle_beta 90.000000
_cell_angle_gamma 90.000000
_cell_volume 2306.362804
_symmetry_space_group_name_H-M "P N M A"
_symmetry_group_IT_number 62
_symmetry_cell_setting 'orthorhombic'
loop_
_space_group_symop_operation_xyz
x,y,z
1/2-x,-y,1/2+z
1/2+x,1/2-y,1/2-z
-x,1/2+y,-z
-x,-y,-z
1/2+x,y,1/2-z
1/2-x,1/2+y,1/2+z
x,1/2-y,z
loop_
_atom_site_type_symbol
_atom_site_label
_atom_site_fract_x
_atom_site_fract_y
_atom_site_fract_z
Si Si1 0.460441 0.750000 0.548094
Si Si2 0.649671 0.136940 0.615016
Si Si3 0.562336 0.409346 0.119033
Si Si4 0.103818 0.004032 0.691157
Si Si5 0.333808 0.250000 0.375050
Si Si6 0.254745 0.616045 0.693997
Si Si7 0.926771 0.750000 0.621122
Si Si8 0.783359 0.750000 0.357574
O O1 0.441087 0.679169 0.442381
O O2 0.557197 0.750000 0.632540
O O3 0.392380 0.750000 0.698247
O O4 0.726533 0.139331 0.482989
O O5 0.696314 0.176926 0.761481
O O6 0.615926 0.056242 0.659902
O O7 0.485624 0.454115 0.211932
O O8 0.650133 0.404697 0.227061
O O9 0.521055 0.326972 0.085293
O O10 0.591455 0.446676 0.960334
O O11 0.194136 0.956378 0.681126
O O12 0.298181 0.322425 0.289740
O O13 0.316648 0.250000 0.563568
O O14 0.836640 0.750000 0.519874
#
# Coordination Sequence:
#
# PCOD8255048 Si02
#       8
#     4   8   8   8   4   8   4   4
#     4  11  24  41  70 103 130 174 231 274 344 390
#     4  11  23  44  66 100 135 174 220 293 328 403
#     4  11  23  44  66  92 135 180 216 273 331 399
#     4  11  25  42  64 102 133 176 224 265 349 404
#     4  12  23  45  66 100 128 180 227 277 332 415
#     4  12  23  43  69  95 131 179 227 274 335 403
#     4  12  18  45  67  85 123 183 209 262 329 395
#     4  11  21  41  71  90 131 175 223 279 339 382
#
# _framework density 20.811990999999999
#
# number of rings (size 3 to 8) (size 9 to 14) (size 15 to 20)
#    0.000    0.667    5.000    3.000    0.000    0.667 
#   12.000    1.667    0.000    0.000    0.000    0.000 
#    0.000    0.000    0.000    0.000    0.000    0.000 
#
# Total GULP energy -595046.894581 kJ/mol
# GULP energy per Si atom -12396.810304 kJ/mol
# Density = 2.076462 g / cm^3
# Si number density = 20.811991 Si / 1000 Ang^3
#
#
#
# Elastic Constant Matrix: (Units=GPa)
#
#
# Indices 1 2 3 4 5 6 
#
# 1 107.0466 65.4524 54.3646 0.0000 0.0000 0.0000
# 2 65.4524 174.4302 55.8888 0.0000 0.0000 0.0000
# 3 54.3646 55.8888 116.2954 0.0000 0.0000 0.0000
# 4 0.0000 0.0000 0.0000 24.7845 0.0000 0.0000
# 5 0.0000 0.0000 0.0000 0.0000 22.7088 0.0000
# 6 0.0000 0.0000 0.0000 0.0000 0.0000 24.8995
#
#
#
# Elastic Compliance Matrix: (Units=1/GPa)
#
#
# Indices 1 2 3 4 5 6 
#
# 1 0.014054 -0.003745 -0.004770 0.000000 0.000000 0.000000
# 2 -0.003745 0.007774 -0.001985 0.000000 0.000000 0.000000
# 3 -0.004770 -0.001985 0.011783 0.000000 0.000000 0.000000
# 4 0.000000 0.000000 0.000000 0.040348 0.000000 0.000000
# 5 0.000000 0.000000 0.000000 0.000000 0.044036 0.000000
# 6 0.000000 0.000000 0.000000 0.000000 0.000000 0.040161
#
#
# Mechanical properties :
#
#
# Convention : Reuss Voigt Hill
#
# Bulk Modulus (GPa) = 79.30209 83.24264 81.27237
# Shear Modulus (GPa) = 27.26856 29.28299 28.27578
#
# Velocity S-wave (km/s) = 3.62364 3.75510 3.68996
# Velocity P-wave (km/s) = 7.46287 7.67368 7.56901
#
# Compressibility (1/GPa) = 0.01261001
#
# Stress axis : x y z
#
# Youngs Moduli (GPa) = 71.15291 128.62627 84.86966
#
# Poissons Ratio (x) = 0.48174 0.40483
# Poissons Ratio (y) = 0.26649 0.16850
# Poissons Ratio (z) = 0.33940 0.25538
#
# Static dielectric constant tensor:
#      x y z
#    x 3.692350 0.000000 0.000000 
#    y 0.000000 4.168150 0.000000 
#    z 0.000000 0.000000 3.927800 
# 
# 
# High freq. dielectric constant tensor:
#      x y z
#    x 1.800410 0.000000 0.000000 
#    y 0.000000 1.835510 0.000000 
#    z 0.000000 0.000000 1.824630 
# 
# From -- ./inp_files/6534.got.cif
#   From: 2010.03.12/outbox.cif.g09.slc.cpg/sg62_4_cif.got.tgz:6534.got - 2010.04.10 19:12:36.
