data_PCOD8255870
_publ_section_title
;
Structure prediction by ZEFSAII (Michael W. Deem and Ramdas Pophale) SiO2 
 PCOD8255870
Probable space group: C M C M
;
_chemical_formula_sum "Si O2"
_cell_formula_units_Z 112
_cell_length_a 12.765642
_cell_length_b 29.118388
_cell_length_c 19.728505
_cell_angle_alpha 90.000000
_cell_angle_beta 90.000000
_cell_angle_gamma 90.000000
_cell_volume 7333.379595
_symmetry_space_group_name_H-M "C M C M"
_symmetry_group_IT_number 63
_symmetry_cell_setting 'orthorhombic'
loop_
_space_group_symop_operation_xyz
x,y,z
-x,-y,1/2+z
x,-y,-z
-x,y,1/2-z
-x,-y,-z
x,y,1/2-z
-x,y,z
x,-y,1/2+z
1/2+x,1/2+y,z
1/2-x,1/2-y,1/2+z
1/2+x,1/2-y,-z
1/2-x,1/2+y,1/2-z
1/2-x,1/2-y,-z
1/2+x,1/2+y,1/2-z
1/2-x,1/2+y,z
1/2+x,1/2-y,1/2+z
loop_
_atom_site_type_symbol
_atom_site_label
_atom_site_fract_x
_atom_site_fract_y
_atom_site_fract_z
Si Si1 0.120336 0.090213 0.604736
Si Si2 0.619561 0.394529 0.555615
Si Si3 0.252890 0.330778 0.328284
Si Si4 0.377007 0.787251 0.440252
Si Si5 0.882372 0.741641 0.172260
Si Si6 0.258068 0.305156 0.568330
Si Si7 0.376171 0.492879 0.573241
O O1 0.132511 0.100089 0.525127
O O2 0.199725 0.120922 0.647872
O O3 0.000000 0.099230 0.627540
O O4 0.153530 0.036682 0.620394
O O5 0.500000 0.383005 0.573281
O O6 0.689586 0.353650 0.583730
O O7 0.655928 0.441162 0.596134
O O8 0.218156 0.334247 0.250000
O O9 0.152015 0.314997 0.371727
O O10 0.342927 0.293180 0.339885
O O11 0.500000 0.792292 0.453771
O O12 0.348105 0.733449 0.436995
O O13 0.310525 0.809540 0.500650
O O14 0.874784 0.727179 0.250000
O O15 0.816098 0.704794 0.131464
O O16 0.000000 0.740344 0.144636
O O17 0.322989 0.500000 0.500000
O O18 0.500000 0.493526 0.563654
#
# Coordination Sequence:
#
# PCOD8255870 Si02
#       7
#    16  16  16  16  16  16  16
#     4   9  15  25  42  65  92 117 142 177 219 264
#     4   9  15  25  43  67  92 117 144 175 216 264
#     4  10  19  30  44  64  89 120 153 181 220 269
#     4  10  20  31  42  63  92 119 151 188 222 257
#     4   9  18  31  45  63  88 115 145 183 223 264
#     4  10  18  29  46  67  87 118 149 185 219 262
#     4   7  12  22  38  62  89 114 138 168 211 261
#
# _framework density 15.272631000000001
#
# number of rings (size 3 to 8) (size 9 to 14) (size 15 to 20)
#    0.000    2.857    1.429    3.000    0.000    1.143 
#    0.000    0.000    0.000    2.143    0.000    5.000 
#    0.000    0.000    0.000    0.000    0.000    0.000 
#
# Total GULP energy -693907.333328 kJ/mol
# GULP energy per Si atom -12391.202381 kJ/mol
# Density = 1.523787 g / cm^3
# Si number density = 15.272631 Si / 1000 Ang^3
#
#
#
# Elastic Constant Matrix: (Units=GPa)
#
#
# Indices 1 2 3 4 5 6 
#
# 1 67.1298 47.1108 23.1865 0.0000 0.0000 0.0000
# 2 47.1108 130.7567 35.7904 0.0000 0.0000 0.0000
# 3 23.1865 35.7904 50.4213 0.0000 0.0000 0.0000
# 4 0.0000 0.0000 0.0000 17.0156 0.0000 0.0000
# 5 0.0000 0.0000 0.0000 0.0000 16.8552 0.0000
# 6 0.0000 0.0000 0.0000 0.0000 0.0000 22.4175
#
#
#
# Elastic Compliance Matrix: (Units=1/GPa)
#
#
# Indices 1 2 3 4 5 6 
#
# 1 0.021031 -0.006119 -0.005328 0.000000 0.000000 0.000000
# 2 -0.006119 0.011272 -0.005188 0.000000 0.000000 0.000000
# 3 -0.005328 -0.005188 0.025965 0.000000 0.000000 0.000000
# 4 0.000000 0.000000 0.000000 0.058770 0.000000 0.000000
# 5 0.000000 0.000000 0.000000 0.000000 0.059329 0.000000
# 6 0.000000 0.000000 0.000000 0.000000 0.000000 0.044608
#
#
# Mechanical properties :
#
#
# Convention : Reuss Voigt Hill
#
# Bulk Modulus (GPa) = 40.00030 51.16479 45.58255
# Shear Modulus (GPa) = 19.04203 20.73900 19.89052
#
# Velocity S-wave (km/s) = 3.53485 3.68899 3.61274
# Velocity P-wave (km/s) = 6.55041 7.19156 6.87846
#
# Compressibility (1/GPa) = 0.02499981
#
# Stress axis : x y z
#
# Youngs Moduli (GPa) = 47.54902 88.71263 38.51313
#
# Poissons Ratio (x) = 0.54283 0.20519
# Poissons Ratio (y) = 0.29095 0.19979
# Poissons Ratio (z) = 0.25333 0.46020
#
# Static dielectric constant tensor:
#      x y z
#    x 2.692490 0.000000 0.000000 
#    y 0.000000 3.159430 0.000000 
#    z 0.000000 0.000000 2.804380 
# 
# 
# High freq. dielectric constant tensor:
#      x y z
#    x 1.557020 0.000000 0.000000 
#    y 0.000000 1.588160 0.000000 
#    z 0.000000 0.000000 1.562970 
# 
# From -- ./inp_files/62096.got.cif
#   From: 2010.03.12/outbox.cif.g09.slc.cpg/sg63_32_cif.got.tgz:62096.got - 2010.04.10 19:34:48.
