data_PCOD8255147
_publ_section_title
;
Structure prediction by ZEFSAII (Michael W. Deem and Ramdas Pophale) SiO2 
 PCOD8255147
Probable space group: P N M A
;
_chemical_formula_sum "Si O2"
_cell_formula_units_Z 56
_cell_length_a 10.764163
_cell_length_b 16.722792
_cell_length_c 14.406399
_cell_angle_alpha 90.000000
_cell_angle_beta 90.000000
_cell_angle_gamma 90.000000
_cell_volume 2593.250632
_symmetry_space_group_name_H-M "P N M A"
_symmetry_group_IT_number 62
_symmetry_cell_setting 'orthorhombic'
loop_
_space_group_symop_operation_xyz
x,y,z
1/2-x,-y,1/2+z
1/2+x,1/2-y,1/2-z
-x,1/2+y,-z
-x,-y,-z
1/2+x,y,1/2-z
1/2-x,1/2+y,1/2+z
x,1/2-y,z
loop_
_atom_site_type_symbol
_atom_site_label
_atom_site_fract_x
_atom_site_fract_y
_atom_site_fract_z
Si Si1 0.274076 0.571147 0.779542
Si Si2 0.172766 0.539524 0.454726
Si Si3 0.469658 0.157905 0.832643
Si Si4 0.609514 0.839112 0.370840
Si Si5 0.317288 0.951421 0.128587
Si Si6 0.061296 0.085871 0.002789
Si Si7 0.510945 0.843979 0.696615
O O1 0.292475 0.523183 0.874902
O O2 0.255759 0.510207 0.695846
O O3 0.403296 0.618427 0.762325
O O4 0.150049 0.625127 0.780594
O O5 0.097135 0.615831 0.419107
O O6 0.108211 0.494624 0.543562
O O7 0.292330 0.577589 0.503348
O O8 0.501541 0.250000 0.857800
O O9 0.386769 0.153417 0.740632
O O10 0.592678 0.106042 0.812498
O O11 0.640912 0.750000 0.401957
O O12 0.712436 0.895463 0.417888
O O13 0.476033 0.864787 0.410595
O O14 0.018109 0.136388 0.090815
O O15 0.000000 0.000000 0.000000
O O16 0.509811 0.750000 0.714030
#
# Coordination Sequence:
#
# PCOD8255147 Si02
#       7
#     8   8   8   8   8   8   8
#     4  12  24  45  73  99 141 180 237 283 335 417
#     4  12  24  42  72  97 130 177 231 274 340 408
#     4  11  26  43  64 101 140 174 216 285 355 407
#     4  11  23  40  67  99 133 172 221 285 344 394
#     4  12  23  44  68  95 132 179 230 270 337 412
#     4  12  22  43  69 101 127 175 234 284 328 403
#     4  12  26  45  69 103 142 184 230 287 345 401
#
# _framework density 21.594519999999999
#
# number of rings (size 3 to 8) (size 9 to 14) (size 15 to 20)
#    0.000    0.286    5.714    3.429    0.000    1.143 
#    0.000    3.571    0.000    0.000    0.000    0.000 
#    0.000    0.000    0.000    0.000    0.000    0.000 
#
# Total GULP energy -694329.737436 kJ/mol
# GULP energy per Si atom -12398.745311 kJ/mol
# Density = 2.154537 g / cm^3
# Si number density = 21.594520 Si / 1000 Ang^3
#
#
#
# Elastic Constant Matrix: (Units=GPa)
#
#
# Indices 1 2 3 4 5 6 
#
# 1 51.8326 17.5477 -6.2844 0.0000 0.0000 0.0000
# 2 17.5477 126.6790 30.6358 0.0000 0.0000 0.0000
# 3 -6.2844 30.6358 78.2578 0.0000 0.0000 0.0000
# 4 0.0000 0.0000 0.0000 26.2859 0.0000 0.0000
# 5 0.0000 0.0000 0.0000 0.0000 36.9783 0.0000
# 6 0.0000 0.0000 0.0000 0.0000 0.0000 35.6350
#
#
#
# Elastic Compliance Matrix: (Units=1/GPa)
#
#
# Indices 1 2 3 4 5 6 
#
# 1 0.020904 -0.003647 0.003106 0.000000 0.000000 0.000000
# 2 -0.003647 0.009356 -0.003955 0.000000 0.000000 0.000000
# 3 0.003106 -0.003955 0.014576 0.000000 0.000000 0.000000
# 4 0.000000 0.000000 0.000000 0.038043 0.000000 0.000000
# 5 0.000000 0.000000 0.000000 0.000000 0.027043 0.000000
# 6 0.000000 0.000000 0.000000 0.000000 0.000000 0.028062
#
#
# Mechanical properties :
#
#
# Convention : Reuss Voigt Hill
#
# Bulk Modulus (GPa) = 27.89856 37.84083 32.86969
# Shear Modulus (GPa) = 31.46153 34.10452 32.78303
#
# Velocity S-wave (km/s) = 3.82111 3.97837 3.90053
# Velocity P-wave (km/s) = 5.69343 6.21809 5.96153
#
# Compressibility (1/GPa) = 0.03584415
#
# Stress axis : x y z
#
# Youngs Moduli (GPa) = 47.83744 106.88683 68.60529
#
# Poissons Ratio (x) = 0.38980 -0.21311
# Poissons Ratio (y) = 0.17446 0.27136
# Poissons Ratio (z) = -0.14860 0.42277
#
# Static dielectric constant tensor:
#      x y z
#    x 4.146890 0.000000 0.000000 
#    y 0.000000 4.117500 0.000000 
#    z 0.000000 0.000000 3.707130 
# 
# 
# High freq. dielectric constant tensor:
#      x y z
#    x 1.857300 0.000000 0.000000 
#    y 0.000000 1.856770 0.000000 
#    z 0.000000 0.000000 1.849480 
# 
# From -- ./inp_files/18070.got.cif
#   From: 2010.03.12/outbox.cif.g09.slc.cpg/sg62_10_cif.got.tgz:18070.got - 2010.04.10 19:12:36.
