data_PCOD8255191
_publ_section_title
;
Structure prediction by ZEFSAII (Michael W. Deem and Ramdas Pophale) SiO2 
 PCOD8255191
Probable space group: P N M A
;
_chemical_formula_sum "Si O2"
_cell_formula_units_Z 32
_cell_length_a 9.772985
_cell_length_b 15.736744
_cell_length_c 10.184006
_cell_angle_alpha 90.000000
_cell_angle_beta 90.000000
_cell_angle_gamma 90.000000
_cell_volume 1566.248827
_symmetry_space_group_name_H-M "P N M A"
_symmetry_group_IT_number 62
_symmetry_cell_setting 'orthorhombic'
loop_
_space_group_symop_operation_xyz
x,y,z
1/2-x,-y,1/2+z
1/2+x,1/2-y,1/2-z
-x,1/2+y,-z
-x,-y,-z
1/2+x,y,1/2-z
1/2-x,1/2+y,1/2+z
x,1/2-y,z
loop_
_atom_site_type_symbol
_atom_site_label
_atom_site_fract_x
_atom_site_fract_y
_atom_site_fract_z
Si Si1 0.636600 0.047001 0.236921
Si Si2 0.220289 0.152271 0.501530
Si Si3 0.887257 0.568298 0.249974
Si Si4 0.463957 0.649372 0.514001
O O1 0.595158 0.108028 0.355378
O O2 0.538909 0.965826 0.221868
O O3 0.788779 0.012851 0.260713
O O4 0.632343 0.100307 0.103399
O O5 0.210887 0.250000 0.462307
O O6 0.153206 0.138793 0.643479
O O7 0.378036 0.122234 0.502527
O O8 0.878680 0.612782 0.108277
O O9 0.444972 0.750000 0.521486
#
# Coordination Sequence:
#
# PCOD8255191 Si02
#       4
#     8   8   8   8
#     4  12  23  43  68  95 129 168 216 263 317 380
#     4  11  24  43  65  96 132 169 213 266 322 379
#     4  12  23  43  68  95 129 168 216 263 317 380
#     4  11  24  44  65  95 134 169 209 266 326 379
#
# _framework density 20.430980999999999
#
# number of rings (size 3 to 8) (size 9 to 14) (size 15 to 20)
#    0.000    0.500    5.000    4.500    0.000    0.000 
#    0.000    2.500    0.000    0.000    0.000    0.000 
#    0.000    0.000    0.000    0.000    0.000    0.000 
#
# Total GULP energy -397050.540246 kJ/mol
# GULP energy per Si atom -12407.829383 kJ/mol
# Density = 2.038448 g / cm^3
# Si number density = 20.430981 Si / 1000 Ang^3
#
#
#
# Elastic Constant Matrix: (Units=GPa)
#
#
# Indices 1 2 3 4 5 6 
#
# 1 69.6600 32.7751 43.9633 0.0000 0.0000 0.0000
# 2 32.7751 78.8446 40.2181 0.0000 0.0000 0.0000
# 3 43.9633 40.2181 133.0355 0.0000 0.0000 0.0000
# 4 0.0000 0.0000 0.0000 41.1834 0.0000 0.0000
# 5 0.0000 0.0000 0.0000 0.0000 36.3134 0.0000
# 6 0.0000 0.0000 0.0000 0.0000 0.0000 31.1072
#
#
#
# Elastic Compliance Matrix: (Units=1/GPa)
#
#
# Indices 1 2 3 4 5 6 
#
# 1 0.020227 -0.005910 -0.004898 0.000000 0.000000 0.000000
# 2 -0.005910 0.016722 -0.003102 0.000000 0.000000 0.000000
# 3 -0.004898 -0.003102 0.010073 0.000000 0.000000 0.000000
# 4 0.000000 0.000000 0.000000 0.024282 0.000000 0.000000
# 5 0.000000 0.000000 0.000000 0.000000 0.027538 0.000000
# 6 0.000000 0.000000 0.000000 0.000000 0.000000 0.032147
#
#
# Mechanical properties :
#
#
# Convention : Reuss Voigt Hill
#
# Bulk Modulus (GPa) = 52.07605 57.27257 54.67431
# Shear Modulus (GPa) = 30.26454 32.69306 31.47880
#
# Velocity S-wave (km/s) = 3.85295 4.00455 3.92948
# Velocity P-wave (km/s) = 6.73333 7.03385 6.88523
#
# Compressibility (1/GPa) = 0.01920269
#
# Stress axis : x y z
#
# Youngs Moduli (GPa) = 49.43881 59.80013 99.27382
#
# Poissons Ratio (x) = 0.35342 0.48621
# Poissons Ratio (y) = 0.29218 0.30798
# Poissons Ratio (z) = 0.24213 0.18552
#
# Static dielectric constant tensor:
#      x y z
#    x 3.871450 0.000000 0.000000 
#    y 0.000000 3.652160 0.000000 
#    z 0.000000 0.000000 3.755210 
# 
# 
# High freq. dielectric constant tensor:
#      x y z
#    x 1.799770 0.000000 0.000000 
#    y 0.000000 1.806680 0.000000 
#    z 0.000000 0.000000 1.813060 
# 
# From -- ./inp_files/4844.got.cif
#   From: 2010.03.12/outbox.cif.g09.slc.cpg/sg62_3_cif.got.tgz:4844.got - 2010.04.10 19:12:36.
