data_PCOD8255037
_publ_section_title
;
Structure prediction by ZEFSAII (Michael W. Deem and Ramdas Pophale) SiO2 
 PCOD8255037
Probable space group: P N M A
;
_chemical_formula_sum "Si O2"
_cell_formula_units_Z 64
_cell_length_a 9.412504
_cell_length_b 14.437804
_cell_length_c 21.724657
_cell_angle_alpha 90.000000
_cell_angle_beta 90.000000
_cell_angle_gamma 90.000000
_cell_volume 2952.291552
_symmetry_space_group_name_H-M "P N M A"
_symmetry_group_IT_number 62
_symmetry_cell_setting 'orthorhombic'
loop_
_space_group_symop_operation_xyz
x,y,z
1/2-x,-y,1/2+z
1/2+x,1/2-y,1/2-z
-x,1/2+y,-z
-x,-y,-z
1/2+x,y,1/2-z
1/2-x,1/2+y,1/2+z
x,1/2-y,z
loop_
_atom_site_type_symbol
_atom_site_label
_atom_site_fract_x
_atom_site_fract_y
_atom_site_fract_z
Si Si1 0.137236 0.925910 0.723060
Si Si2 0.650133 0.146629 0.178178
Si Si3 0.867792 0.347878 0.694192
Si Si4 0.579584 0.642829 0.423609
Si Si5 0.802147 0.857450 0.005819
Si Si6 0.703611 0.512003 0.908738
Si Si7 0.447857 0.904428 0.298371
Si Si8 0.890240 0.013762 0.592724
O O1 0.257763 0.871994 0.760680
O O2 0.210785 0.980049 0.665459
O O3 0.016718 0.858869 0.695583
O O4 0.060310 0.992889 0.771387
O O5 0.682507 0.250000 0.154754
O O6 0.685985 0.078542 0.120244
O O7 0.896182 0.250000 0.660491
O O8 0.702313 0.355818 0.705981
O O9 0.933806 0.429268 0.653918
O O10 0.939513 0.345094 0.760609
O O11 0.621788 0.750000 0.411054
O O12 0.470461 0.636484 0.480755
O O13 0.720557 0.581522 0.434156
O O14 0.495558 0.594449 0.368417
O O15 0.751227 0.750000 0.011489
O O16 0.713047 0.924865 0.051238
O O17 0.778200 0.896390 0.937223
O O18 0.543272 0.508931 0.937051
#
# Coordination Sequence:
#
# PCOD8255037 Si02
#       8
#     8   8   8   8   8   8   8   8
#     4  11  21  40  60  89 128 163 204 258 306 365
#     4  11  22  38  62  89 122 163 204 253 313 374
#     4  12  22  35  59  92 129 166 202 247 310 382
#     4  11  23  40  63  94 128 166 207 257 315 377
#     4  11  24  45  69  89 119 167 216 261 317 375
#     4  11  24  41  64  91 125 167 212 264 309 367
#     4  12  21  39  60  92 132 167 201 253 317 377
#     4  11  23  42  63  91 128 158 205 261 319 370
#
# _framework density 21.678073999999999
#
# number of rings (size 3 to 8) (size 9 to 14) (size 15 to 20)
#    0.000    0.750    5.000    4.125    0.000    3.500 
#    0.000    0.625    0.000    3.750    0.000    0.000 
#    0.000    0.000    0.000    0.000    0.000    0.000 
#
# Total GULP energy -793408.437925 kJ/mol
# GULP energy per Si atom -12397.006843 kJ/mol
# Density = 2.162873 g / cm^3
# Si number density = 21.678074 Si / 1000 Ang^3
#
#
#
# Elastic Constant Matrix: (Units=GPa)
#
#
# Indices 1 2 3 4 5 6 
#
# 1 56.6746 22.4015 19.2212 0.0000 0.0000 0.0000
# 2 22.4015 153.8303 32.9133 0.0000 0.0000 0.0000
# 3 19.2212 32.9133 54.8636 0.0000 0.0000 0.0000
# 4 0.0000 0.0000 0.0000 66.4997 0.0000 0.0000
# 5 0.0000 0.0000 0.0000 0.0000 28.6301 0.0000
# 6 0.0000 0.0000 0.0000 0.0000 0.0000 36.2068
#
#
#
# Elastic Compliance Matrix: (Units=1/GPa)
#
#
# Indices 1 2 3 4 5 6 
#
# 1 0.020384 -0.001653 -0.006150 0.000000 0.000000 0.000000
# 2 -0.001653 0.007592 -0.003976 0.000000 0.000000 0.000000
# 3 -0.006150 -0.003976 0.022767 0.000000 0.000000 0.000000
# 4 0.000000 0.000000 0.000000 0.015038 0.000000 0.000000
# 5 0.000000 0.000000 0.000000 0.000000 0.034928 0.000000
# 6 0.000000 0.000000 0.000000 0.000000 0.000000 0.027619
#
#
# Mechanical properties :
#
#
# Convention : Reuss Voigt Hill
#
# Bulk Modulus (GPa) = 36.78349 46.04894 41.41621
# Shear Modulus (GPa) = 31.06652 38.98949 35.02800
#
# Velocity S-wave (km/s) = 3.78972 4.24555 4.02410
# Velocity P-wave (km/s) = 6.01283 6.73211 6.38261
#
# Compressibility (1/GPa) = 0.02718611
#
# Stress axis : x y z
#
# Youngs Moduli (GPa) = 49.05924 131.71917 43.92406
#
# Poissons Ratio (x) = 0.21767 0.27013
# Poissons Ratio (y) = 0.08107 0.17462
# Poissons Ratio (z) = 0.30171 0.52365
#
# Static dielectric constant tensor:
#      x y z
#    x 3.976040 0.000000 0.000000 
#    y 0.000000 3.948900 0.000000 
#    z 0.000000 0.000000 3.742260 
# 
# 
# High freq. dielectric constant tensor:
#      x y z
#    x 1.855320 0.000000 0.000000 
#    y 0.000000 1.852630 0.000000 
#    z 0.000000 0.000000 1.838920 
# 
# From -- ./inp_files/29003.got.cif
#   From: 2010.03.12/outbox.cif.g09.slc.cpg/sg62_15_cif.got.tgz:29003.got - 2010.04.10 19:12:36.
