data_PCOD8255173
_publ_section_title
;
Structure prediction by ZEFSAII (Michael W. Deem and Ramdas Pophale) SiO2 
 PCOD8255173
Probable space group: P N M A
;
_chemical_formula_sum "Si O2"
_cell_formula_units_Z 48
_cell_length_a 9.733691
_cell_length_b 17.400757
_cell_length_c 13.382659
_cell_angle_alpha 90.000000
_cell_angle_beta 90.000000
_cell_angle_gamma 90.000000
_cell_volume 2266.669023
_symmetry_space_group_name_H-M "P N M A"
_symmetry_group_IT_number 62
_symmetry_cell_setting 'orthorhombic'
loop_
_space_group_symop_operation_xyz
x,y,z
1/2-x,-y,1/2+z
1/2+x,1/2-y,1/2-z
-x,1/2+y,-z
-x,-y,-z
1/2+x,y,1/2-z
1/2-x,1/2+y,1/2+z
x,1/2-y,z
loop_
_atom_site_type_symbol
_atom_site_label
_atom_site_fract_x
_atom_site_fract_y
_atom_site_fract_z
Si Si1 0.397310 0.114770 0.665841
Si Si2 0.884118 0.836354 0.018790
Si Si3 0.880350 0.403448 0.606067
Si Si4 0.463235 0.559791 0.663079
Si Si5 0.846768 0.661365 0.469331
Si Si6 0.278613 0.930095 0.843746
O O1 0.531439 0.155735 0.621485
O O2 0.392336 0.131674 0.783304
O O3 0.261641 0.150853 0.618921
O O4 0.403658 0.024428 0.641864
O O5 0.893249 0.750000 0.977856
O O6 0.727403 0.856521 0.040278
O O7 0.949921 0.891698 0.936978
O O8 0.838979 0.492342 0.608713
O O9 0.024719 0.393863 0.550863
O O10 0.623235 0.555542 0.694643
O O11 0.373668 0.597514 0.751721
O O12 0.892234 0.750000 0.475263
O O13 0.778565 0.636859 0.574101
#
# Coordination Sequence:
#
# PCOD8255173 Si02
#       6
#     8   8   8   8   8   8
#     4  11  23  43  68  94 129 173 218 269 321 386
#     4  12  24  42  67  96 134 174 212 268 333 389
#     4  11  25  42  67  98 131 173 220 267 321 390
#     4  11  25  44  70  97 127 170 227 272 321 385
#     4  12  26  43  66  99 138 173 214 270 330 389
#     4  11  25  45  70  97 127 173 223 276 319 380
#
# _framework density 21.176449000000002
#
# number of rings (size 3 to 8) (size 9 to 14) (size 15 to 20)
#    0.000    0.667    3.333    4.000    9.333    4.667 
#    0.000    0.000    0.000    0.000    0.000    0.000 
#    0.000    0.000    0.000    0.000    0.000    0.000 
#
# Total GULP energy -595578.099730 kJ/mol
# GULP energy per Si atom -12407.877078 kJ/mol
# Density = 2.112825 g / cm^3
# Si number density = 21.176449 Si / 1000 Ang^3
#
#
#
# Elastic Constant Matrix: (Units=GPa)
#
#
# Indices 1 2 3 4 5 6 
#
# 1 102.5553 5.1445 32.5074 0.0000 0.0000 0.0000
# 2 5.1445 71.5951 30.0523 0.0000 0.0000 0.0000
# 3 32.5074 30.0523 75.8800 0.0000 0.0000 0.0000
# 4 0.0000 0.0000 0.0000 4.5143 0.0000 0.0000
# 5 0.0000 0.0000 0.0000 0.0000 31.3467 0.0000
# 6 0.0000 0.0000 0.0000 0.0000 0.0000 20.3758
#
#
#
# Elastic Compliance Matrix: (Units=1/GPa)
#
#
# Indices 1 2 3 4 5 6 
#
# 1 0.011412 0.001478 -0.005474 0.000000 0.000000 0.000000
# 2 0.001478 0.016944 -0.007344 0.000000 0.000000 0.000000
# 3 -0.005474 -0.007344 0.018432 0.000000 0.000000 0.000000
# 4 0.000000 0.000000 0.000000 0.221520 0.000000 0.000000
# 5 0.000000 0.000000 0.000000 0.000000 0.031901 0.000000
# 6 0.000000 0.000000 0.000000 0.000000 0.000000 0.049078
#
#
# Mechanical properties :
#
#
# Convention : Reuss Voigt Hill
#
# Bulk Modulus (GPa) = 41.48025 42.82653 42.15339
# Shear Modulus (GPa) = 13.15779 23.40243 18.28011
#
# Velocity S-wave (km/s) = 2.49537 3.32793 2.94126
# Velocity P-wave (km/s) = 5.28516 5.91899 5.61103
#
# Compressibility (1/GPa) = 0.02410786
#
# Stress axis : x y z
#
# Youngs Moduli (GPa) = 87.62790 59.01870 54.25241
#
# Poissons Ratio (x) = -0.08722 0.29699
# Poissons Ratio (y) = -0.12950 0.39841
# Poissons Ratio (z) = 0.47969 0.43341
#
# Static dielectric constant tensor:
#      x y z
#    x 3.980470 0.000000 0.000000 
#    y 0.000000 3.711630 0.000000 
#    z 0.000000 0.000000 3.840250 
# 
# 
# High freq. dielectric constant tensor:
#      x y z
#    x 1.847840 0.000000 0.000000 
#    y 0.000000 1.823210 0.000000 
#    z 0.000000 0.000000 1.829570 
# 
# From -- ./inp_files/16974.got.cif
#   From: 2010.03.12/outbox.cif.g09.slc.cpg/sg62_9_cif.got.tgz:16974.got - 2010.04.10 19:12:36.
