data_PCOD8255278
_publ_section_title
;
Structure prediction by ZEFSAII (Michael W. Deem and Ramdas Pophale) SiO2 
 PCOD8255278
Probable space group: P N M A
;
_chemical_formula_sum "Si O2"
_cell_formula_units_Z 64
_cell_length_a 21.547774
_cell_length_b 9.345295
_cell_length_c 21.683313
_cell_angle_alpha 90.000000
_cell_angle_beta 90.000000
_cell_angle_gamma 90.000000
_cell_volume 4366.375344
_symmetry_space_group_name_H-M "P N M A"
_symmetry_group_IT_number 62
_symmetry_cell_setting 'orthorhombic'
loop_
_space_group_symop_operation_xyz
x,y,z
1/2-x,-y,1/2+z
1/2+x,1/2-y,1/2-z
-x,1/2+y,-z
-x,-y,-z
1/2+x,y,1/2-z
1/2-x,1/2+y,1/2+z
x,1/2-y,z
loop_
_atom_site_type_symbol
_atom_site_label
_atom_site_fract_x
_atom_site_fract_y
_atom_site_fract_z
Si Si1 0.147122 0.407416 0.743939
Si Si2 0.842981 0.413841 0.936627
Si Si3 0.750993 0.087086 0.836437
Si Si4 0.173262 0.581654 0.924898
Si Si5 0.258390 0.412315 0.841109
Si Si6 0.070277 0.416354 0.155279
Si Si7 0.068335 0.583310 0.827881
Si Si8 0.166941 0.415460 0.253385
O O1 0.117255 0.250000 0.747041
O O2 0.176697 0.437707 0.675441
O O3 0.206158 0.419229 0.788881
O O4 0.093712 0.516436 0.763948
O O5 0.865193 0.250000 0.936941
O O6 0.773440 0.427800 0.907271
O O7 0.893612 0.499682 0.897780
O O8 0.840072 0.472622 0.006042
O O9 0.767465 0.250000 0.813020
O O10 0.786683 0.964328 0.799979
O O11 0.187949 0.750000 0.922234
O O12 0.233446 0.496940 0.900717
O O13 0.112759 0.542425 0.884681
O O14 0.274906 0.250000 0.859784
O O15 0.320566 0.490427 0.814899
O O16 0.072698 0.250000 0.137005
O O17 0.098574 0.439552 0.224136
O O18 0.000045 0.475312 0.157076
O O19 0.065973 0.750000 0.815360
O O20 0.179265 0.250000 0.269517
#
# Coordination Sequence:
#
# PCOD8255278 Si02
#       8
#     8   8   8   8   8   8   8   8
#     4   8  14  24  38  55  72  93 123 158 196 234
#     4   9  17  28  41  57  78 106 137 166 193 224
#     4   8  14  25  39  55  76  98 123 159 200 235
#     4   9  17  28  41  57  78 106 138 165 190 225
#     4   9  16  26  40  57  76  97 123 159 202 238
#     4   9  18  29  39  54  78 107 135 163 195 227
#     4   9  17  28  39  53  77 106 134 164 193 224
#     4   9  15  24  39  56  73  95 125 159 195 235
#
# _framework density 14.657467
#
# number of rings (size 3 to 8) (size 9 to 14) (size 15 to 20)
#    0.000    3.250    0.000    1.500    0.000    5.000 
#    0.000    0.000    0.000    0.000    0.000    0.000 
#    0.000    1.000    0.000    2.000    0.000    3.250 
#
# Total GULP energy -792918.176745 kJ/mol
# GULP energy per Si atom -12389.346512 kJ/mol
# Density = 1.462411 g / cm^3
# Si number density = 14.657467 Si / 1000 Ang^3
#
#
#
# Elastic Constant Matrix: (Units=GPa)
#
#
# Indices 1 2 3 4 5 6 
#
# 1 62.6188 36.6958 62.2594 0.0000 0.0000 0.0000
# 2 36.6958 60.5646 37.6352 0.0000 0.0000 0.0000
# 3 62.2594 37.6352 67.4382 0.0000 0.0000 0.0000
# 4 0.0000 0.0000 0.0000 18.8004 0.0000 0.0000
# 5 0.0000 0.0000 0.0000 0.0000 16.7727 0.0000
# 6 0.0000 0.0000 0.0000 0.0000 0.0000 17.9584
#
#
#
# Elastic Compliance Matrix: (Units=1/GPa)
#
#
# Indices 1 2 3 4 5 6 
#
# 1 0.198246 -0.009775 -0.177567 0.000000 0.000000 0.000000
# 2 -0.009775 0.025759 -0.005351 0.000000 0.000000 0.000000
# 3 -0.177567 -0.005351 0.181746 0.000000 0.000000 0.000000
# 4 0.000000 0.000000 0.000000 0.053190 0.000000 0.000000
# 5 0.000000 0.000000 0.000000 0.000000 0.059621 0.000000
# 6 0.000000 0.000000 0.000000 0.000000 0.000000 0.055684
#
#
# Mechanical properties :
#
#
# Convention : Reuss Voigt Hill
#
# Bulk Modulus (GPa) = 49.10431 51.53360 50.31895
# Shear Modulus (GPa) = 5.17373 14.30838 9.74105
#
# Velocity S-wave (km/s) = 1.88080 3.12778 2.58074
# Velocity P-wave (km/s) = 6.18793 6.94831 6.57911
#
# Compressibility (1/GPa) = 0.02036481
#
# Stress axis : x y z
#
# Youngs Moduli (GPa) = 5.04424 38.82131 5.50219
#
# Poissons Ratio (x) = 0.37948 0.97701
# Poissons Ratio (y) = 0.04931 0.02944
# Poissons Ratio (z) = 0.89569 0.20773
#
# Static dielectric constant tensor:
#      x y z
#    x 2.859440 0.000000 0.000000 
#    y 0.000000 2.919840 0.000000 
#    z 0.000000 0.000000 2.856510 
# 
# 
# High freq. dielectric constant tensor:
#      x y z
#    x 1.531630 0.000000 0.000000 
#    y 0.000000 1.568600 0.000000 
#    z 0.000000 0.000000 1.534250 
# 
# From -- ./inp_files/27967.got.cif
#   From: 2010.03.12/outbox.cif.g09.slc.cpg/sg62_14_cif.got.tgz:27967.got - 2010.04.10 19:12:36.
