data_PCOD8255448
_publ_section_title
;
Structure prediction by ZEFSAII (Michael W. Deem and Ramdas Pophale) SiO2 
 PCOD8255448
Probable space group: C M C M
;
_chemical_formula_sum "Si O2"
_cell_formula_units_Z 128
_cell_length_a 17.590184
_cell_length_b 26.683504
_cell_length_c 19.027085
_cell_angle_alpha 90.000000
_cell_angle_beta 90.000000
_cell_angle_gamma 90.000000
_cell_volume 8930.699983
_symmetry_space_group_name_H-M "C M C M"
_symmetry_group_IT_number 63
_symmetry_cell_setting 'orthorhombic'
loop_
_space_group_symop_operation_xyz
x,y,z
-x,-y,1/2+z
x,-y,-z
-x,y,1/2-z
-x,-y,-z
x,y,1/2-z
-x,y,z
x,-y,1/2+z
1/2+x,1/2+y,z
1/2-x,1/2-y,1/2+z
1/2+x,1/2-y,-z
1/2-x,1/2+y,1/2-z
1/2-x,1/2-y,-z
1/2+x,1/2+y,1/2-z
1/2-x,1/2+y,z
1/2+x,1/2-y,1/2+z
loop_
_atom_site_type_symbol
_atom_site_label
_atom_site_fract_x
_atom_site_fract_y
_atom_site_fract_z
Si Si1 0.667701 0.153933 0.333616
Si Si2 0.087107 0.055712 0.434710
Si Si3 0.184353 0.103383 0.172013
Si Si4 0.852474 0.047677 0.584414
Si Si5 0.272384 0.000968 0.670993
Si Si6 0.915507 0.443822 0.666470
Si Si7 0.415070 0.749079 0.666306
Si Si8 0.410058 0.639497 0.672141
O O1 0.661596 0.153059 0.250000
O O2 0.756262 0.145761 0.354669
O O3 0.639298 0.207206 0.364235
O O4 0.614928 0.109194 0.364152
O O5 0.112693 0.099028 0.380522
O O6 0.144918 0.057309 0.500786
O O7 0.000000 0.065040 0.457633
O O8 0.094546 0.000749 0.398608
O O9 0.153366 0.116134 0.250000
O O10 0.229237 0.051491 0.173383
O O11 0.767413 0.037831 0.614337
O O12 0.884439 0.096898 0.619859
O O13 0.270712 0.024595 0.750000
O O14 0.358875 0.989627 0.645697
O O15 0.917342 0.439922 0.750000
O O16 0.000000 0.454559 0.636317
O O17 0.418116 0.751458 0.750000
O O18 0.500000 0.757655 0.636149
O O19 0.382590 0.694270 0.644303
O O20 0.376936 0.628412 0.750000
O O21 0.500000 0.641221 0.676251
#
# Coordination Sequence:
#
# PCOD8255448 Si02
#       8
#    16  16  16  16  16  16  16  16
#     4   8  12  20  35  53  74  97 116 138 175 222
#     4  10  19  28  39  54  70  94 129 162 190 225
#     4   8  15  26  38  54  73  92 116 149 190 228
#     4  10  17  27  38  50  71 100 130 157 185 220
#     4   8  14  23  35  53  75  98 125 154 182 215
#     4   8  12  18  31  53  78  99 119 146 180 216
#     4   8  13  20  32  54  79  98 118 142 170 212
#     4   9  16  24  35  53  77 102 124 148 179 213
#
# _framework density 14.332583
#
# number of rings (size 3 to 8) (size 9 to 14) (size 15 to 20)
#    0.000    3.375    0.000    4.500    0.000    2.250 
#    0.000    0.000    0.000    0.750    0.000   16.625 
#    0.000    1.000    0.000    7.125    0.000    0.000 
#
# Total GULP energy -792848.538461 kJ/mol
# GULP energy per Si atom -12388.258413 kJ/mol
# Density = 1.429996 g / cm^3
# Si number density = 14.332583 Si / 1000 Ang^3
#
#
#
# Elastic Constant Matrix: (Units=GPa)
#
#
# Indices 1 2 3 4 5 6 
#
# 1 72.6912 39.4474 34.5331 0.0000 0.0000 0.0000
# 2 39.4474 69.1949 35.1168 0.0000 0.0000 0.0000
# 3 34.5331 35.1168 45.1814 0.0000 0.0000 0.0000
# 4 0.0000 0.0000 0.0000 7.7100 0.0000 0.0000
# 5 0.0000 0.0000 0.0000 0.0000 10.1490 0.0000
# 6 0.0000 0.0000 0.0000 0.0000 0.0000 18.7695
#
#
#
# Elastic Compliance Matrix: (Units=1/GPa)
#
#
# Indices 1 2 3 4 5 6 
#
# 1 0.023527 -0.007079 -0.012481 0.000000 0.000000 0.000000
# 2 -0.007079 0.025996 -0.014794 0.000000 0.000000 0.000000
# 3 -0.012481 -0.014794 0.043171 0.000000 0.000000 0.000000
# 4 0.000000 0.000000 0.000000 0.129701 0.000000 0.000000
# 5 0.000000 0.000000 0.000000 0.000000 0.098532 0.000000
# 6 0.000000 0.000000 0.000000 0.000000 0.000000 0.053278
#
#
# Mechanical properties :
#
#
# Convention : Reuss Voigt Hill
#
# Bulk Modulus (GPa) = 41.69009 45.02912 43.35961
# Shear Modulus (GPa) = 11.08873 12.52372 11.80622
#
# Velocity S-wave (km/s) = 2.78451 2.95921 2.87319
# Velocity P-wave (km/s) = 6.28401 6.56973 6.42846
#
# Compressibility (1/GPa) = 0.02398652
#
# Stress axis : x y z
#
# Youngs Moduli (GPa) = 42.50370 38.46775 23.16368
#
# Poissons Ratio (x) = 0.27231 0.28909
# Poissons Ratio (y) = 0.30088 0.34270
# Poissons Ratio (z) = 0.53047 0.56911
#
# Static dielectric constant tensor:
#      x y z
#    x 2.950010 0.000000 0.000000 
#    y 0.000000 2.941240 0.000000 
#    z 0.000000 0.000000 2.595080 
# 
# 
# High freq. dielectric constant tensor:
#      x y z
#    x 1.533010 0.000000 0.000000 
#    y 0.000000 1.525430 0.000000 
#    z 0.000000 0.000000 1.506910 
# 
# From -- ./inp_files/56115.got.cif
#   From: 2010.03.12/outbox.cif.g09.slc.cpg/sg63_29_cif.got.tgz:56115.got - 2010.04.10 19:34:48.
