data_PCOD8255755
_publ_section_title
;
Structure prediction by ZEFSAII (Michael W. Deem and Ramdas Pophale) SiO2 
 PCOD8255755
Probable space group: C M C M
;
_chemical_formula_sum "Si O2"
_cell_formula_units_Z 96
_cell_length_a 9.163347
_cell_length_b 25.616105
_cell_length_c 23.826008
_cell_angle_alpha 90.000000
_cell_angle_beta 90.000000
_cell_angle_gamma 90.000000
_cell_volume 5592.661200
_symmetry_space_group_name_H-M "C M C M"
_symmetry_group_IT_number 63
_symmetry_cell_setting 'orthorhombic'
loop_
_space_group_symop_operation_xyz
x,y,z
-x,-y,1/2+z
x,-y,-z
-x,y,1/2-z
-x,-y,-z
x,y,1/2-z
-x,y,z
x,-y,1/2+z
1/2+x,1/2+y,z
1/2-x,1/2-y,1/2+z
1/2+x,1/2-y,-z
1/2-x,1/2+y,1/2-z
1/2-x,1/2-y,-z
1/2+x,1/2+y,1/2-z
1/2-x,1/2+y,z
1/2+x,1/2-y,1/2+z
loop_
_atom_site_type_symbol
_atom_site_label
_atom_site_fract_x
_atom_site_fract_y
_atom_site_fract_z
Si Si1 0.328912 0.811115 0.314490
Si Si2 0.826933 0.099673 0.620579
Si Si3 0.173372 0.806346 0.812359
Si Si4 0.674012 0.401584 0.616171
Si Si5 0.826284 0.001073 0.187152
Si Si6 0.326486 0.559051 0.501694
O O1 0.289143 0.824604 0.250000
O O2 0.500000 0.818217 0.324622
O O3 0.242852 0.847411 0.357226
O O4 0.278308 0.752102 0.328700
O O5 0.772686 0.089222 0.557113
O O6 0.000000 0.105236 0.623569
O O7 0.770526 0.051909 0.658533
O O8 0.232010 0.820628 0.750000
O O9 0.236020 0.847636 0.857675
O O10 0.000000 0.809111 0.811023
O O11 0.500000 0.401659 0.617641
O O12 0.734803 0.449609 0.652912
O O13 0.730042 0.408626 0.552392
O O14 0.763414 0.003493 0.250000
O O15 0.000000 0.002206 0.187261
O O16 0.263646 0.500000 0.500000
O O17 0.500000 0.555493 0.501602
#
# Coordination Sequence:
#
# PCOD8255755 Si02
#       6
#    16  16  16  16  16  16
#     4   9  18  32  47  63  87 118 149 183 224 266
#     4  10  18  28  44  67  94 119 146 179 217 266
#     4   8  14  25  41  60  82 111 148 188 226 261
#     4   9  14  22  38  60  86 114 145 181 223 265
#     4   9  15  21  34  61  91 111 134 179 229 263
#     4   9  15  25  39  60  91 124 148 173 219 269
#
# _framework density 17.165353
#
# number of rings (size 3 to 8) (size 9 to 14) (size 15 to 20)
#    0.000    3.000    1.667    2.000    0.000    3.000 
#    0.000    0.833    0.000    0.500    0.000    1.167 
#    0.000    2.667    0.000    0.000    0.000    0.000 
#
# Total GULP energy -594958.117572 kJ/mol
# GULP energy per Si atom -12394.960783 kJ/mol
# Density = 1.712628 g / cm^3
# Si number density = 17.165353 Si / 1000 Ang^3
#
#
#
# Elastic Constant Matrix: (Units=GPa)
#
#
# Indices 1 2 3 4 5 6 
#
# 1 10.0055 18.4420 17.9509 0.0000 0.0000 0.0000
# 2 18.4420 150.4664 97.7162 0.0000 0.0000 0.0000
# 3 17.9509 97.7162 172.7927 0.0000 0.0000 0.0000
# 4 0.0000 0.0000 0.0000 32.3872 0.0000 0.0000
# 5 0.0000 0.0000 0.0000 0.0000 11.3431 0.0000
# 6 0.0000 0.0000 0.0000 0.0000 0.0000 16.8016
#
#
#
# Elastic Compliance Matrix: (Units=1/GPa)
#
#
# Indices 1 2 3 4 5 6 
#
# 1 0.134795 -0.011738 -0.007366 0.000000 0.000000 0.000000
# 2 -0.011738 0.011526 -0.005298 0.000000 0.000000 0.000000
# 3 -0.007366 -0.005298 0.009549 0.000000 0.000000 0.000000
# 4 0.000000 0.000000 0.000000 0.030876 0.000000 0.000000
# 5 0.000000 0.000000 0.000000 0.000000 0.088159 0.000000
# 6 0.000000 0.000000 0.000000 0.000000 0.000000 0.059518
#
#
# Mechanical properties :
#
#
# Convention : Reuss Voigt Hill
#
# Bulk Modulus (GPa) = 9.34007 66.83140 38.08574
# Shear Modulus (GPa) = 11.93560 25.38342 18.65951
#
# Velocity S-wave (km/s) = 2.63977 3.84964 3.30061
# Velocity P-wave (km/s) = 3.83982 7.66668 6.06310
#
# Compressibility (1/GPa) = 0.10706561
#
# Stress axis : x y z
#
# Youngs Moduli (GPa) = 7.41868 86.76366 104.72525
#
# Poissons Ratio (x) = 1.01841 0.77137
# Poissons Ratio (y) = 0.08708 0.55488
# Poissons Ratio (z) = 0.05464 0.45971
#
# Static dielectric constant tensor:
#      x y z
#    x 2.476710 0.000000 0.000000 
#    y 0.000000 3.373980 0.000000 
#    z 0.000000 0.000000 3.497520 
# 
# 
# High freq. dielectric constant tensor:
#      x y z
#    x 1.584410 0.000000 0.000000 
#    y 0.000000 1.669250 0.000000 
#    z 0.000000 0.000000 1.671530 
# 
# From -- ./inp_files/53042.got.cif
#   From: 2010.03.12/outbox.cif.g09.slc.cpg/sg63_27_cif.got.tgz:53042.got - 2010.04.10 19:34:48.
