data_PCOD8255687
_publ_section_title
;
Structure prediction by ZEFSAII (Michael W. Deem and Ramdas Pophale) SiO2 
 PCOD8255687
Probable space group: C M C M
;
_chemical_formula_sum "Si O2"
_cell_formula_units_Z 112
_cell_length_a 26.626889
_cell_length_b 16.780552
_cell_length_c 15.389721
_cell_angle_alpha 90.000000
_cell_angle_beta 90.000000
_cell_angle_gamma 90.000000
_cell_volume 6876.341190
_symmetry_space_group_name_H-M "C M C M"
_symmetry_group_IT_number 63
_symmetry_cell_setting 'orthorhombic'
loop_
_space_group_symop_operation_xyz
x,y,z
-x,-y,1/2+z
x,-y,-z
-x,y,1/2-z
-x,-y,-z
x,y,1/2-z
-x,y,z
x,-y,1/2+z
1/2+x,1/2+y,z
1/2-x,1/2-y,1/2+z
1/2+x,1/2-y,-z
1/2-x,1/2+y,1/2-z
1/2-x,1/2-y,-z
1/2+x,1/2+y,1/2-z
1/2-x,1/2+y,z
1/2+x,1/2-y,1/2+z
loop_
_atom_site_type_symbol
_atom_site_label
_atom_site_fract_x
_atom_site_fract_y
_atom_site_fract_z
Si Si1 0.557622 0.693974 0.981762
Si Si2 0.733807 0.310242 0.344898
Si Si3 0.775391 0.592101 0.002791
Si Si4 0.407063 0.615428 0.345977
Si Si5 0.844749 0.729496 0.046860
Si Si6 0.558059 0.556283 0.848284
Si Si7 0.696683 0.672798 0.389998
O O1 0.500000 0.720435 0.967102
O O2 0.565013 0.669546 0.082472
O O3 0.594248 0.767085 0.953480
O O4 0.573528 0.622255 0.918146
O O5 0.727775 0.350295 0.250000
O O6 0.750273 0.378289 0.412838
O O7 0.681708 0.263937 0.366537
O O8 0.776960 0.243269 0.337220
O O9 0.790129 0.500000 0.000000
O O10 0.826665 0.640534 0.023279
O O11 0.736912 0.605634 0.082145
O O12 0.431427 0.630192 0.250000
O O13 0.411330 0.522974 0.371863
O O14 0.348041 0.633739 0.335860
O O15 0.826095 0.792072 0.976921
O O16 0.569863 0.586112 0.750000
O O17 0.500000 0.534152 0.858341
#
# Coordination Sequence:
#
# PCOD8255687 Si02
#       7
#    16  16  16  16  16  16  16
#     4  10  19  31  46  61  83 117 154 189 224 264
#     4   9  16  29  48  67  89 115 146 182 219 263
#     4   9  17  31  48  65  90 121 148 178 223 272
#     4  10  18  27  42  66  94 118 143 177 216 259
#     4   8  17  31  45  63  86 115 147 179 218 260
#     4   9  18  30  42  59  85 117 151 184 217 254
#     4   8  16  29  44  64  90 120 145 167 205 262
#
# _framework density 16.287731999999998
#
# number of rings (size 3 to 8) (size 9 to 14) (size 15 to 20)
#    0.000    3.000    0.000    3.000    0.000    6.000 
#    0.000    5.000    0.000    0.429    0.000    0.000 
#    0.000    0.000    0.000    5.286    0.000    0.000 
#
# Total GULP energy -693924.851621 kJ/mol
# GULP energy per Si atom -12391.515208 kJ/mol
# Density = 1.625066 g / cm^3
# Si number density = 16.287732 Si / 1000 Ang^3
#
#
#
# Elastic Constant Matrix: (Units=GPa)
#
#
# Indices 1 2 3 4 5 6 
#
# 1 92.9689 39.9465 18.1057 0.0000 0.0000 0.0000
# 2 39.9465 89.4536 21.7353 0.0000 0.0000 0.0000
# 3 18.1057 21.7353 79.3912 0.0000 0.0000 0.0000
# 4 0.0000 0.0000 0.0000 10.1153 0.0000 0.0000
# 5 0.0000 0.0000 0.0000 0.0000 14.9946 0.0000
# 6 0.0000 0.0000 0.0000 0.0000 0.0000 21.9782
#
#
#
# Elastic Compliance Matrix: (Units=1/GPa)
#
#
# Indices 1 2 3 4 5 6 
#
# 1 0.013481 -0.005649 -0.001528 0.000000 0.000000 0.000000
# 2 -0.005649 0.014343 -0.002638 0.000000 0.000000 0.000000
# 3 -0.001528 -0.002638 0.013667 0.000000 0.000000 0.000000
# 4 0.000000 0.000000 0.000000 0.098860 0.000000 0.000000
# 5 0.000000 0.000000 0.000000 0.000000 0.066691 0.000000
# 6 0.000000 0.000000 0.000000 0.000000 0.000000 0.045500
#
#
# Mechanical properties :
#
#
# Convention : Reuss Voigt Hill
#
# Bulk Modulus (GPa) = 45.74579 46.82098 46.28339
# Shear Modulus (GPa) = 17.89181 21.55270 19.72225
#
# Velocity S-wave (km/s) = 3.31793 3.64159 3.48352
# Velocity P-wave (km/s) = 6.54410 6.81837 6.68264
#
# Compressibility (1/GPa) = 0.02185993
#
# Stress axis : x y z
#
# Youngs Moduli (GPa) = 74.17833 69.72225 73.17094
#
# Poissons Ratio (x) = 0.39385 0.11180
# Poissons Ratio (y) = 0.41902 0.19305
# Poissons Ratio (z) = 0.11334 0.18395
#
# Static dielectric constant tensor:
#      x y z
#    x 3.482120 0.000000 0.000000 
#    y 0.000000 2.790550 0.000000 
#    z 0.000000 0.000000 3.128910 
# 
# 
# High freq. dielectric constant tensor:
#      x y z
#    x 1.619560 0.000000 0.000000 
#    y 0.000000 1.585700 0.000000 
#    z 0.000000 0.000000 1.633860 
# 
# From -- ./inp_files/37907.got.cif
#   From: 2010.03.12/outbox.cif.g09.slc.cpg/sg63_19_cif.got.tgz:37907.got - 2010.04.10 19:34:48.
