data_PCOD8255978
_publ_section_title
;
Structure prediction by ZEFSAII (Michael W. Deem and Ramdas Pophale) SiO2 
 PCOD8255978
Probable space group: C M C M
;
_chemical_formula_sum "Si O2"
_cell_formula_units_Z 128
_cell_length_a 17.835651
_cell_length_b 25.187104
_cell_length_c 17.878511
_cell_angle_alpha 90.000000
_cell_angle_beta 90.000000
_cell_angle_gamma 90.000000
_cell_volume 8031.534831
_symmetry_space_group_name_H-M "C M C M"
_symmetry_group_IT_number 63
_symmetry_cell_setting 'orthorhombic'
loop_
_space_group_symop_operation_xyz
x,y,z
-x,-y,1/2+z
x,-y,-z
-x,y,1/2-z
-x,-y,-z
x,y,1/2-z
-x,y,z
x,-y,1/2+z
1/2+x,1/2+y,z
1/2-x,1/2-y,1/2+z
1/2+x,1/2-y,-z
1/2-x,1/2+y,1/2-z
1/2-x,1/2-y,-z
1/2+x,1/2+y,1/2-z
1/2-x,1/2+y,z
1/2+x,1/2-y,1/2+z
loop_
_atom_site_type_symbol
_atom_site_label
_atom_site_fract_x
_atom_site_fract_y
_atom_site_fract_z
Si Si1 0.586477 0.788320 0.165341
Si Si2 0.211182 0.825510 0.056412
Si Si3 0.704346 0.718886 0.099306
Si Si4 0.086688 0.514652 0.835482
Si Si5 0.586547 0.294723 0.336213
Si Si6 0.648480 0.889742 0.086248
Si Si7 0.087570 0.587194 0.072186
Si Si8 0.650998 0.819132 0.833848
O O1 0.609542 0.803766 0.250000
O O2 0.500000 0.774651 0.158849
O O3 0.627831 0.734068 0.141130
O O4 0.605582 0.836797 0.110988
O O5 0.258476 0.773413 0.073217
O O6 0.138573 0.830614 0.110026
O O7 0.263971 0.876873 0.070393
O O8 0.186282 0.820804 0.969696
O O9 0.760468 0.691216 0.157597
O O10 0.097167 0.496746 0.750000
O O11 0.139572 0.565544 0.850168
O O12 0.114086 0.466671 0.887920
O O13 0.000000 0.529787 0.851792
O O14 0.606096 0.308166 0.250000
O O15 0.500000 0.307130 0.354172
O O16 0.602495 0.233023 0.352432
O O17 0.608511 0.915114 0.014326
O O18 0.129234 0.637002 0.107035
O O19 0.000000 0.595119 0.084256
O O20 0.634201 0.838807 0.750000
#
# Coordination Sequence:
#
# PCOD8255978 Si02
#       8
#    16  16  16  16  16  16  16  16
#     4  10  20  31  46  69  94 125 165 199 230 277
#     4   9  18  30  46  66  92 120 159 191 230 282
#     4   9  17  31  44  64  91 123 156 198 235 274
#     4  10  21  35  49  67  94 125 160 201 240 279
#     4   9  18  30  45  68  97 127 158 194 235 279
#     4  11  20  33  49  67  94 127 161 198 238 282
#     4  11  21  32  47  69  94 124 161 201 239 279
#     4  10  18  30  47  65  90 127 161 194 236 279
#
# _framework density 15.937177999999999
#
# number of rings (size 3 to 8) (size 9 to 14) (size 15 to 20)
#    0.000    2.125    1.250    3.000    1.750    7.250 
#    0.000    0.000    0.000    0.000    0.000    0.000 
#    0.000    3.000    0.000    3.875    0.000    0.000 
#
# Total GULP energy -793617.121846 kJ/mol
# GULP energy per Si atom -12400.267529 kJ/mol
# Density = 1.590090 g / cm^3
# Si number density = 15.937178 Si / 1000 Ang^3
#
#
#
# Elastic Constant Matrix: (Units=GPa)
#
#
# Indices 1 2 3 4 5 6 
#
# 1 83.6027 35.6056 35.7308 0.0000 0.0000 0.0000
# 2 35.6056 51.6754 22.0092 0.0000 0.0000 0.0000
# 3 35.7308 22.0092 76.2152 0.0000 0.0000 0.0000
# 4 0.0000 0.0000 0.0000 26.6215 0.0000 0.0000
# 5 0.0000 0.0000 0.0000 0.0000 28.3396 0.0000
# 6 0.0000 0.0000 0.0000 0.0000 0.0000 21.0038
#
#
#
# Elastic Compliance Matrix: (Units=1/GPa)
#
#
# Indices 1 2 3 4 5 6 
#
# 1 0.018960 -0.010579 -0.005834 0.000000 0.000000 0.000000
# 2 -0.010579 0.027969 -0.003117 0.000000 0.000000 0.000000
# 3 -0.005834 -0.003117 0.016756 0.000000 0.000000 0.000000
# 4 0.000000 0.000000 0.000000 0.037564 0.000000 0.000000
# 5 0.000000 0.000000 0.000000 0.000000 0.035286 0.000000
# 6 0.000000 0.000000 0.000000 0.000000 0.000000 0.047610
#
#
# Mechanical properties :
#
#
# Convention : Reuss Voigt Hill
#
# Bulk Modulus (GPa) = 40.60999 44.24272 42.42636
# Shear Modulus (GPa) = 21.60638 23.06951 22.33794
#
# Velocity S-wave (km/s) = 3.68601 3.80877 3.74789
# Velocity P-wave (km/s) = 6.60698 6.86755 6.73852
#
# Compressibility (1/GPa) = 0.02462448
#
# Stress axis : x y z
#
# Youngs Moduli (GPa) = 52.74186 35.75448 59.68091
#
# Poissons Ratio (x) = 0.37826 0.34817
# Poissons Ratio (y) = 0.55798 0.18602
# Poissons Ratio (z) = 0.30768 0.11144
#
# Static dielectric constant tensor:
#      x y z
#    x 3.015540 0.000000 0.000000 
#    y 0.000000 2.795950 0.000000 
#    z 0.000000 0.000000 3.213670 
# 
# 
# High freq. dielectric constant tensor:
#      x y z
#    x 1.596320 0.000000 0.000000 
#    y 0.000000 1.575590 0.000000 
#    z 0.000000 0.000000 1.630480 
# 
# From -- ./inp_files/46294.got.cif
#   From: 2010.03.12/outbox.cif.g09.slc.cpg/sg63_24_cif.got.tgz:46294.got - 2010.04.10 19:34:48.
