data_PCOD8255533
_publ_section_title
;
Structure prediction by ZEFSAII (Michael W. Deem and Ramdas Pophale) SiO2 
 PCOD8255533
Probable space group: C M C M
;
_chemical_formula_sum "Si O2"
_cell_formula_units_Z 96
_cell_length_a 9.242665
_cell_length_b 25.235316
_cell_length_c 23.821851
_cell_angle_alpha 90.000000
_cell_angle_beta 90.000000
_cell_angle_gamma 90.000000
_cell_volume 5556.245974
_symmetry_space_group_name_H-M "C M C M"
_symmetry_group_IT_number 63
_symmetry_cell_setting 'orthorhombic'
loop_
_space_group_symop_operation_xyz
x,y,z
-x,-y,1/2+z
x,-y,-z
-x,y,1/2-z
-x,-y,-z
x,y,1/2-z
-x,y,z
x,-y,1/2+z
1/2+x,1/2+y,z
1/2-x,1/2-y,1/2+z
1/2+x,1/2-y,-z
1/2-x,1/2+y,1/2-z
1/2-x,1/2-y,-z
1/2+x,1/2+y,1/2-z
1/2-x,1/2+y,z
1/2+x,1/2-y,1/2+z
loop_
_atom_site_type_symbol
_atom_site_label
_atom_site_fract_x
_atom_site_fract_y
_atom_site_fract_z
Si Si1 0.328318 0.609740 0.559795
Si Si2 0.831419 0.771902 0.446079
Si Si3 0.834293 0.324220 0.870261
Si Si4 0.671531 0.413838 0.564349
Si Si5 0.328096 0.526780 0.250000
Si Si6 0.172046 0.014793 0.867971
Si Si7 0.166121 0.637069 0.250000
O O1 0.500000 0.608780 0.561929
O O2 0.271783 0.669549 0.569364
O O3 0.274641 0.587833 0.499763
O O4 0.266787 0.570623 0.608247
O O5 0.750000 0.750000 0.500000
O O6 0.802964 0.735169 0.391960
O O7 0.000000 0.774575 0.461979
O O8 0.731978 0.363732 0.903120
O O9 0.799292 0.326749 0.804088
O O10 0.000000 0.340210 0.882336
O O11 0.500000 0.410482 0.568198
O O12 0.730588 0.467492 0.592621
O O13 0.500000 0.533248 0.250000
O O14 0.273303 0.494372 0.304434
O O15 0.264657 0.585390 0.250000
O O16 0.000000 0.014869 0.869636
O O17 0.000000 0.618126 0.250000
#
# Coordination Sequence:
#
# PCOD8255533 Si02
#       7
#    16  16  16  16   8  16   8
#     4   9  17  29  46  71 100 130 156 190 246 297
#     4  10  19  32  51  72  96 127 164 201 239 286
#     4  10  20  32  48  72 100 128 161 200 239 283
#     4  10  17  28  50  74  97 126 158 197 243 291
#     4  10  18  30  51  75  95 121 162 209 240 276
#     4   9  17  28  45  73 102 122 155 202 245 286
#     4  10  20  34  49  67  99 135 160 191 242 292
#
# _framework density 17.277853
#
# number of rings (size 3 to 8) (size 9 to 14) (size 15 to 20)
#    0.000    2.333    3.333    0.500    0.000    2.000 
#    0.000    0.833    0.000   10.000    0.000    0.000 
#    0.000    1.333    0.000    0.000    0.000    0.000 
#
# Total GULP energy -595062.711649 kJ/mol
# GULP energy per Si atom -12397.139826 kJ/mol
# Density = 1.723853 g / cm^3
# Si number density = 17.277853 Si / 1000 Ang^3
#
#
#
# Elastic Constant Matrix: (Units=GPa)
#
#
# Indices 1 2 3 4 5 6 
#
# 1 18.5353 21.3326 23.2031 0.0000 0.0000 0.0000
# 2 21.3326 161.3004 92.2793 0.0000 0.0000 0.0000
# 3 23.2031 92.2793 157.4361 0.0000 0.0000 0.0000
# 4 0.0000 0.0000 0.0000 34.4409 0.0000 0.0000
# 5 0.0000 0.0000 0.0000 0.0000 15.0712 0.0000
# 6 0.0000 0.0000 0.0000 0.0000 0.0000 19.2567
#
#
#
# Elastic Compliance Matrix: (Units=1/GPa)
#
#
# Indices 1 2 3 4 5 6 
#
# 1 0.068691 -0.004954 -0.007220 0.000000 0.000000 0.000000
# 2 -0.004954 0.009685 -0.004946 0.000000 0.000000 0.000000
# 3 -0.007220 -0.004946 0.010315 0.000000 0.000000 0.000000
# 4 0.000000 0.000000 0.000000 0.029035 0.000000 0.000000
# 5 0.000000 0.000000 0.000000 0.000000 0.066352 0.000000
# 6 0.000000 0.000000 0.000000 0.000000 0.000000 0.051930
#
#
# Mechanical properties :
#
#
# Convention : Reuss Voigt Hill
#
# Bulk Modulus (GPa) = 18.36553 67.87797 43.12175
# Shear Modulus (GPa) = 17.33712 27.11756 22.22734
#
# Velocity S-wave (km/s) = 3.17113 3.96599 3.59062
# Velocity P-wave (km/s) = 4.90517 7.76811 6.49631
#
# Compressibility (1/GPa) = 0.05444982
#
# Stress axis : x y z
#
# Youngs Moduli (GPa) = 14.55794 103.25645 96.94510
#
# Poissons Ratio (x) = 0.51155 0.69993
# Poissons Ratio (y) = 0.07212 0.47953
# Poissons Ratio (z) = 0.10511 0.51074
#
# Static dielectric constant tensor:
#      x y z
#    x 2.899020 0.000000 0.000000 
#    y 0.000000 3.508130 0.000000 
#    z 0.000000 0.000000 3.568730 
# 
# 
# High freq. dielectric constant tensor:
#      x y z
#    x 1.626820 0.000000 0.000000 
#    y 0.000000 1.669800 0.000000 
#    z 0.000000 0.000000 1.672880 
# 
# From -- ./inp_files/59979.got.cif
#   From: 2010.03.12/outbox.cif.g09.slc.cpg/sg63_30_cif.got.tgz:59979.got - 2010.04.10 19:34:48.
