data_PCOD8255281
_publ_section_title
;
Structure prediction by ZEFSAII (Michael W. Deem and Ramdas Pophale) SiO2 
 PCOD8255281
Probable space group: P N M A
;
_chemical_formula_sum "Si O2"
_cell_formula_units_Z 64
_cell_length_a 18.816111
_cell_length_b 8.836849
_cell_length_c 21.056385
_cell_angle_alpha 90.000000
_cell_angle_beta 90.000000
_cell_angle_gamma 90.000000
_cell_volume 3501.153188
_symmetry_space_group_name_H-M "P N M A"
_symmetry_group_IT_number 62
_symmetry_cell_setting 'orthorhombic'
loop_
_space_group_symop_operation_xyz
x,y,z
1/2-x,-y,1/2+z
1/2+x,1/2-y,1/2-z
-x,1/2+y,-z
-x,-y,-z
1/2+x,y,1/2-z
1/2-x,1/2+y,1/2+z
x,1/2-y,z
loop_
_atom_site_type_symbol
_atom_site_label
_atom_site_fract_x
_atom_site_fract_y
_atom_site_fract_z
Si Si1 0.319169 0.925979 0.004839
Si Si2 0.921402 0.430033 0.250625
Si Si3 0.329384 0.571575 0.634129
Si Si4 0.665388 0.570582 0.630513
Si Si5 0.331497 0.573615 0.495763
Si Si6 0.918619 0.568792 0.748256
Si Si7 0.832394 0.429720 0.371051
Si Si8 0.674208 0.074838 0.134048
O O1 0.298892 0.750000 0.014134
O O2 0.250361 0.029997 0.000775
O O3 0.363489 0.989190 0.065062
O O4 0.358953 0.947650 0.936853
O O5 0.920869 0.250000 0.248943
O O6 0.882226 0.493145 0.187881
O O7 0.879950 0.487452 0.312738
O O8 0.001280 0.494565 0.252141
O O9 0.326198 0.750000 0.642294
O O10 0.363910 0.530019 0.565193
O O11 0.378649 0.503270 0.689537
O O12 0.248314 0.512626 0.640933
O O13 0.665121 0.750000 0.628746
O O14 0.632397 0.513844 0.563258
O O15 0.745859 0.506967 0.638665
O O16 0.339312 0.750000 0.482370
O O17 0.920156 0.750000 0.748216
O O18 0.878181 0.502083 0.686239
O O19 0.836920 0.250000 0.379782
O O20 0.681145 0.250000 0.151073
#
# Coordination Sequence:
#
# PCOD8255281 Si02
#       8
#     8   8   8   8   8   8   8   8
#     4   9  16  27  44  68  92 115 143 181 222 264
#     4   9  17  27  42  63  88 114 148 187 218 250
#     4   8  14  24  41  62  86 111 139 174 217 260
#     4   9  16  28  45  67  90 114 143 181 222 262
#     4   9  16  27  44  68  92 115 143 181 222 264
#     4   9  15  25  41  63  86 112 146 185 218 252
#     4   9  16  28  45  67  90 114 143 181 222 262
#     4   8  14  24  41  62  86 111 139 174 217 260
#
# _framework density 18.279691
#
# number of rings (size 3 to 8) (size 9 to 14) (size 15 to 20)
#    0.000    3.250    0.000    3.000    0.000    3.000 
#    0.000    1.875    0.000    0.000    0.000   18.375 
#    0.000    0.000    0.000    0.000    0.000    0.000 
#
# Total GULP energy -792911.935923 kJ/mol
# GULP energy per Si atom -12389.248999 kJ/mol
# Density = 1.823809 g / cm^3
# Si number density = 18.279691 Si / 1000 Ang^3
#
#
#
# Elastic Constant Matrix: (Units=GPa)
#
#
# Indices 1 2 3 4 5 6 
#
# 1 94.8903 13.7090 82.6464 0.0000 0.0000 0.0000
# 2 13.7090 12.5316 25.6767 0.0000 0.0000 0.0000
# 3 82.6464 25.6767 209.1374 0.0000 0.0000 0.0000
# 4 0.0000 0.0000 0.0000 26.8383 0.0000 0.0000
# 5 0.0000 0.0000 0.0000 0.0000 8.7518 0.0000
# 6 0.0000 0.0000 0.0000 0.0000 0.0000 7.9533
#
#
#
# Elastic Compliance Matrix: (Units=1/GPa)
#
#
# Indices 1 2 3 4 5 6 
#
# 1 0.016426 -0.006239 -0.005725 0.000000 0.000000 0.000000
# 2 -0.006239 0.108988 -0.010916 0.000000 0.000000 0.000000
# 3 -0.005725 -0.010916 0.008384 0.000000 0.000000 0.000000
# 4 0.000000 0.000000 0.000000 0.037260 0.000000 0.000000
# 5 0.000000 0.000000 0.000000 0.000000 0.114262 0.000000
# 6 0.000000 0.000000 0.000000 0.000000 0.000000 0.125735
#
#
# Mechanical properties :
#
#
# Convention : Reuss Voigt Hill
#
# Bulk Modulus (GPa) = 11.35853 62.29148 36.82501
# Shear Modulus (GPa) = 10.28466 21.67717 15.98091
#
# Velocity S-wave (km/s) = 2.37455 3.44737 2.95997
# Velocity P-wave (km/s) = 3.70745 7.07083 5.64544
#
# Compressibility (1/GPa) = 0.08803956
#
# Stress axis : x y z
#
# Youngs Moduli (GPa) = 60.87747 9.17532 119.27129
#
# Poissons Ratio (x) = 0.05724 0.68288
# Poissons Ratio (y) = 0.37979 1.30191
# Poissons Ratio (z) = 0.34855 0.10015
#
# Static dielectric constant tensor:
#      x y z
#    x 3.234900 0.000000 0.000000 
#    y 0.000000 2.904430 0.000000 
#    z 0.000000 0.000000 4.034280 
# 
# 
# High freq. dielectric constant tensor:
#      x y z
#    x 1.666430 0.000000 0.000000 
#    y 0.000000 1.654600 0.000000 
#    z 0.000000 0.000000 1.737320 
# 
# From -- ./inp_files/27911.got.cif
#   From: 2010.03.12/outbox.cif.g09.slc.cpg/sg62_14_cif.got.tgz:27911.got - 2010.04.10 19:12:36.
