data_PCOD8255535
_publ_section_title
;
Structure prediction by ZEFSAII (Michael W. Deem and Ramdas Pophale) SiO2 
 PCOD8255535
Probable space group: C M C M
;
_chemical_formula_sum "Si O2"
_cell_formula_units_Z 128
_cell_length_a 17.703829
_cell_length_b 21.651293
_cell_length_c 18.625856
_cell_angle_alpha 90.000000
_cell_angle_beta 90.000000
_cell_angle_gamma 90.000000
_cell_volume 7139.491557
_symmetry_space_group_name_H-M "C M C M"
_symmetry_group_IT_number 63
_symmetry_cell_setting 'orthorhombic'
loop_
_space_group_symop_operation_xyz
x,y,z
-x,-y,1/2+z
x,-y,-z
-x,y,1/2-z
-x,-y,-z
x,y,1/2-z
-x,y,z
x,-y,1/2+z
1/2+x,1/2+y,z
1/2-x,1/2-y,1/2+z
1/2+x,1/2-y,-z
1/2-x,1/2+y,1/2-z
1/2-x,1/2-y,-z
1/2+x,1/2+y,1/2-z
1/2-x,1/2+y,z
1/2+x,1/2-y,1/2+z
loop_
_atom_site_type_symbol
_atom_site_label
_atom_site_fract_x
_atom_site_fract_y
_atom_site_fract_z
Si Si1 0.302518 0.336869 0.948243
Si Si2 0.910918 0.068549 0.974653
Si Si3 0.411127 0.371239 0.170003
Si Si4 0.410966 0.763443 0.616651
Si Si5 0.914003 0.589548 0.552029
Si Si6 0.412837 0.959883 0.604668
Si Si7 0.163303 0.707837 0.967270
Si Si8 0.809581 0.368583 0.828373
O O1 0.334617 0.270583 0.919665
O O2 0.258396 0.370741 0.884839
O O3 0.367522 0.382087 0.976108
O O4 0.246542 0.316756 0.012457
O O5 0.887987 0.077822 0.890459
O O6 0.000000 0.080625 0.985669
O O7 0.887971 0.000000 0.000000
O O8 0.376041 0.384949 0.250000
O O9 0.500000 0.371248 0.178503
O O10 0.385258 0.304716 0.140550
O O11 0.500000 0.774548 0.627548
O O12 0.389471 0.775369 0.534620
O O13 0.364397 0.810000 0.665918
O O14 0.881281 0.528841 0.590885
O O15 0.904412 0.582125 0.466480
O O16 0.872709 0.651714 0.578142
O O17 0.000000 0.595772 0.574173
O O18 0.500000 0.961302 0.629044
O O19 0.360560 0.929954 0.664747
O O20 0.772336 0.368942 0.750000
#
# Coordination Sequence:
#
# PCOD8255535 Si02
#       8
#    16  16  16  16  16  16  16  16
#     4  10  21  34  50  74 102 141 181 226 265 314
#     4  10  21  37  57  80 102 133 180 230 279 325
#     4   9  17  30  50  78 111 136 159 206 271 331
#     4  10  17  28  50  82 113 141 172 205 260 331
#     4   9  16  28  49  76 107 139 173 214 255 306
#     4   9  17  29  47  76 110 142 176 210 255 317
#     4  10  18  30  50  75 107 139 180 216 257 312
#     4  11  22  34  50  74 112 149 179 218 267 321
#
# _framework density 17.928446999999998
#
# number of rings (size 3 to 8) (size 9 to 14) (size 15 to 20)
#    0.000    2.250    3.750    1.875    0.000    3.000 
#    0.000    0.625    0.000    1.875    0.000    0.000 
#    0.000    0.000    0.000    0.000    0.000    1.750 
#
# Total GULP energy -793171.716452 kJ/mol
# GULP energy per Si atom -12393.308070 kJ/mol
# Density = 1.788764 g / cm^3
# Si number density = 17.928447 Si / 1000 Ang^3
#
#
#
# Elastic Constant Matrix: (Units=GPa)
#
#
# Indices 1 2 3 4 5 6 
#
# 1 53.9803 42.5962 28.1475 0.0000 0.0000 0.0000
# 2 42.5962 136.2529 40.7411 0.0000 0.0000 0.0000
# 3 28.1475 40.7411 68.8638 0.0000 0.0000 0.0000
# 4 0.0000 0.0000 0.0000 14.9435 0.0000 0.0000
# 5 0.0000 0.0000 0.0000 0.0000 11.3599 0.0000
# 6 0.0000 0.0000 0.0000 0.0000 0.0000 25.8158
#
#
#
# Elastic Compliance Matrix: (Units=1/GPa)
#
#
# Indices 1 2 3 4 5 6 
#
# 1 0.027417 -0.006342 -0.007454 0.000000 0.000000 0.000000
# 2 -0.006342 0.010384 -0.003551 0.000000 0.000000 0.000000
# 3 -0.007454 -0.003551 0.019669 0.000000 0.000000 0.000000
# 4 0.000000 0.000000 0.000000 0.066919 0.000000 0.000000
# 5 0.000000 0.000000 0.000000 0.000000 0.088029 0.000000
# 6 0.000000 0.000000 0.000000 0.000000 0.000000 0.038736
#
#
# Mechanical properties :
#
#
# Convention : Reuss Voigt Hill
#
# Bulk Modulus (GPa) = 43.90784 53.56294 48.73539
# Shear Modulus (GPa) = 17.03924 20.26464 18.65194
#
# Velocity S-wave (km/s) = 3.08620 3.36565 3.22895
# Velocity P-wave (km/s) = 6.10273 6.71150 6.41434
#
# Compressibility (1/GPa) = 0.02277498
#
# Stress axis : x y z
#
# Youngs Moduli (GPa) = 36.47367 96.30342 50.84135
#
# Poissons Ratio (x) = 0.61079 0.37898
# Poissons Ratio (y) = 0.23133 0.18053
# Poissons Ratio (z) = 0.27188 0.34196
#
# Static dielectric constant tensor:
#      x y z
#    x 3.183580 0.000000 0.000000 
#    y 0.000000 3.606610 0.000000 
#    z 0.000000 0.000000 3.099040 
# 
# 
# High freq. dielectric constant tensor:
#      x y z
#    x 1.676860 0.000000 0.000000 
#    y 0.000000 1.706430 0.000000 
#    z 0.000000 0.000000 1.650750 
# 
# From -- ./inp_files/56055.got.cif
#   From: 2010.03.12/outbox.cif.g09.slc.cpg/sg63_29_cif.got.tgz:56055.got - 2010.04.10 19:34:48.
