data_PCOD8255989
_publ_section_title
;
Structure prediction by ZEFSAII (Michael W. Deem and Ramdas Pophale) SiO2 
 PCOD8255989
Probable space group: C M C M
;
_chemical_formula_sum "Si O2"
_cell_formula_units_Z 96
_cell_length_a 8.719260
_cell_length_b 23.501230
_cell_length_c 26.123122
_cell_angle_alpha 90.000000
_cell_angle_beta 90.000000
_cell_angle_gamma 90.000000
_cell_volume 5352.976042
_symmetry_space_group_name_H-M "C M C M"
_symmetry_group_IT_number 63
_symmetry_cell_setting 'orthorhombic'
loop_
_space_group_symop_operation_xyz
x,y,z
-x,-y,1/2+z
x,-y,-z
-x,y,1/2-z
-x,-y,-z
x,y,1/2-z
-x,y,z
x,-y,1/2+z
1/2+x,1/2+y,z
1/2-x,1/2-y,1/2+z
1/2+x,1/2-y,-z
1/2-x,1/2+y,1/2-z
1/2-x,1/2-y,-z
1/2+x,1/2+y,1/2-z
1/2-x,1/2+y,z
1/2+x,1/2-y,1/2+z
loop_
_atom_site_type_symbol
_atom_site_label
_atom_site_fract_x
_atom_site_fract_y
_atom_site_fract_z
Si Si1 0.680866 0.916541 0.603481
Si Si2 0.677210 0.247808 0.876516
Si Si3 0.179651 0.981267 0.443166
Si Si4 0.679433 0.328253 0.532972
Si Si5 0.819567 0.335209 0.693294
Si Si6 0.177179 0.639434 0.933148
O O1 0.500000 0.908576 0.595061
O O2 0.776568 0.888852 0.557361
O O3 0.733452 0.887625 0.657089
O O4 0.728960 0.982658 0.600203
O O5 0.500000 0.261419 0.867159
O O6 0.731836 0.279111 0.928309
O O7 0.767903 0.273802 0.828567
O O8 0.705775 0.180040 0.883454
O O9 0.216831 0.915762 0.431270
O O10 0.000000 0.991045 0.436373
O O11 0.234263 0.000000 0.500000
O O12 0.500000 0.327277 0.519791
O O13 0.778291 0.321455 0.481630
O O14 0.748579 0.344098 0.750000
O O15 0.000000 0.333939 0.696941
O O16 0.000000 0.621212 0.936657
#
# Coordination Sequence:
#
# PCOD8255989 Si02
#       6
#    16  16  16  16  16  16
#     4  10  19  32  52  76 102 134 172 213 253 299
#     4   9  20  34  49  74 104 133 169 210 252 302
#     4  11  22  34  49  71 103 141 177 214 251 298
#     4  10  18  30  47  70 103 137 169 207 248 295
#     4   9  19  36  58  82 104 128 163 210 263 311
#     4  11  21  32  48  71 102 139 176 208 245 297
#
# _framework density 17.933948999999998
#
# number of rings (size 3 to 8) (size 9 to 14) (size 15 to 20)
#    0.000    2.000    1.667    2.500    0.000    3.667 
#    0.000    0.000    0.000    1.000    0.000    2.333 
#    0.000    0.000    0.000    0.000    0.000    0.000 
#
# Total GULP energy -595096.613023 kJ/mol
# GULP energy per Si atom -12397.846105 kJ/mol
# Density = 1.789313 g / cm^3
# Si number density = 17.933949 Si / 1000 Ang^3
#
#
#
# Elastic Constant Matrix: (Units=GPa)
#
#
# Indices 1 2 3 4 5 6 
#
# 1 38.4327 20.2197 24.4955 0.0000 0.0000 0.0000
# 2 20.2197 92.6257 41.2648 0.0000 0.0000 0.0000
# 3 24.4955 41.2648 95.1414 0.0000 0.0000 0.0000
# 4 0.0000 0.0000 0.0000 15.9702 0.0000 0.0000
# 5 0.0000 0.0000 0.0000 0.0000 19.9361 0.0000
# 6 0.0000 0.0000 0.0000 0.0000 0.0000 29.0945
#
#
#
# Elastic Compliance Matrix: (Units=1/GPa)
#
#
# Indices 1 2 3 4 5 6 
#
# 1 0.032369 -0.004156 -0.006531 0.000000 0.000000 0.000000
# 2 -0.004156 0.013916 -0.004965 0.000000 0.000000 0.000000
# 3 -0.006531 -0.004965 0.014346 0.000000 0.000000 0.000000
# 4 0.000000 0.000000 0.000000 0.062617 0.000000 0.000000
# 5 0.000000 0.000000 0.000000 0.000000 0.050160 0.000000
# 6 0.000000 0.000000 0.000000 0.000000 0.000000 0.034371
#
#
# Mechanical properties :
#
#
# Convention : Reuss Voigt Hill
#
# Bulk Modulus (GPa) = 34.10113 44.23999 39.17056
# Shear Modulus (GPa) = 20.09176 22.34815 21.21996
#
# Velocity S-wave (km/s) = 3.35075 3.53390 3.44354
# Velocity P-wave (km/s) = 5.83319 6.43219 6.14000
#
# Compressibility (1/GPa) = 0.02932454
#
# Stress axis : x y z
#
# Youngs Moduli (GPa) = 30.89389 71.86229 69.70689
#
# Poissons Ratio (x) = 0.29868 0.45527
# Poissons Ratio (y) = 0.12840 0.34612
# Poissons Ratio (z) = 0.20177 0.35682
#
# Static dielectric constant tensor:
#      x y z
#    x 3.221430 0.000000 0.000000 
#    y 0.000000 3.346030 0.000000 
#    z 0.000000 0.000000 3.343490 
# 
# 
# High freq. dielectric constant tensor:
#      x y z
#    x 1.697960 0.000000 0.000000 
#    y 0.000000 1.695560 0.000000 
#    z 0.000000 0.000000 1.657230 
# 
# From -- ./inp_files/59901.got.cif
#   From: 2010.03.12/outbox.cif.g09.slc.cpg/sg63_30_cif.got.tgz:59901.got - 2010.04.10 19:34:48.
