data_PCOD8255130
_publ_section_title
;
Structure prediction by ZEFSAII (Michael W. Deem and Ramdas Pophale) SiO2 
 PCOD8255130
Probable space group: P N M A
;
_chemical_formula_sum "Si O2"
_cell_formula_units_Z 64
_cell_length_a 11.232283
_cell_length_b 18.448617
_cell_length_c 14.312874
_cell_angle_alpha 90.000000
_cell_angle_beta 90.000000
_cell_angle_gamma 90.000000
_cell_volume 2965.914997
_symmetry_space_group_name_H-M "P N M A"
_symmetry_group_IT_number 62
_symmetry_cell_setting 'orthorhombic'
loop_
_space_group_symop_operation_xyz
x,y,z
1/2-x,-y,1/2+z
1/2+x,1/2-y,1/2-z
-x,1/2+y,-z
-x,-y,-z
1/2+x,y,1/2-z
1/2-x,1/2+y,1/2+z
x,1/2-y,z
loop_
_atom_site_type_symbol
_atom_site_label
_atom_site_fract_x
_atom_site_fract_y
_atom_site_fract_z
Si Si1 0.129439 0.976602 0.972926
Si Si2 0.596200 0.553248 0.185230
Si Si3 0.249007 0.586504 0.602329
Si Si4 0.955150 0.670363 0.799844
Si Si5 0.153871 0.490179 0.757455
Si Si6 0.583704 0.104566 0.116191
Si Si7 0.820677 0.328883 0.070857
Si Si8 0.416208 0.165156 0.972439
O O1 0.150939 0.892583 0.004482
O O2 0.144349 0.977736 0.861065
O O3 0.225366 0.026040 0.023958
O O4 0.000000 0.000000 0.000000
O O5 0.468757 0.555977 0.240853
O O6 0.716886 0.551804 0.250295
O O7 0.598959 0.482073 0.119144
O O8 0.608562 0.626411 0.125667
O O9 0.368210 0.613528 0.650589
O O10 0.158182 0.552576 0.678048
O O11 0.189414 0.653196 0.547183
O O12 0.896160 0.750000 0.787018
O O13 0.994787 0.634574 0.702032
O O14 0.072679 0.679055 0.858103
O O15 0.707693 0.146147 0.130947
O O16 0.533562 0.127998 0.015704
O O17 0.800155 0.250000 0.021986
O O18 0.433857 0.250000 0.954185
#
# Coordination Sequence:
#
# PCOD8255130 Si02
#       8
#     8   8   8   8   8   8   8   8
#     4  12  23  42  68 102 137 185 233 289 353 424
#     4  12  25  46  74 102 140 184 239 296 346 427
#     4  12  23  42  72  99 136 187 229 291 354 434
#     4  11  23  38  60 100 142 176 220 286 366 430
#     4  12  25  45  73 108 137 178 246 289 352 425
#     4  12  23  41  65  98 134 181 230 282 354 431
#     4  11  23  38  58  93 136 173 220 285 352 423
#     4  12  27  45  68 102 141 187 236 292 361 427
#
# _framework density 21.578500999999999
#
# number of rings (size 3 to 8) (size 9 to 14) (size 15 to 20)
#    0.000    0.250    6.250    3.375    3.500    0.000 
#    0.000    0.625    0.000    2.250    0.000    0.000 
#    0.000    0.000    0.000    0.000    0.000    0.000 
#
# Total GULP energy -793211.808736 kJ/mol
# GULP energy per Si atom -12393.934512 kJ/mol
# Density = 2.152939 g / cm^3
# Si number density = 21.578501 Si / 1000 Ang^3
#
#
#
# Elastic Constant Matrix: (Units=GPa)
#
#
# Indices 1 2 3 4 5 6 
#
# 1 124.8800 21.3358 19.1587 0.0000 0.0000 0.0000
# 2 21.3358 135.7468 35.8475 0.0000 0.0000 0.0000
# 3 19.1587 35.8475 67.2279 0.0000 0.0000 0.0000
# 4 0.0000 0.0000 0.0000 24.9174 0.0000 0.0000
# 5 0.0000 0.0000 0.0000 0.0000 26.7702 0.0000
# 6 0.0000 0.0000 0.0000 0.0000 0.0000 21.5803
#
#
#
# Elastic Compliance Matrix: (Units=1/GPa)
#
#
# Indices 1 2 3 4 5 6 
#
# 1 0.008449 -0.000806 -0.001978 0.000000 0.000000 0.000000
# 2 -0.000806 0.008651 -0.004383 0.000000 0.000000 0.000000
# 3 -0.001978 -0.004383 0.017776 0.000000 0.000000 0.000000
# 4 0.000000 0.000000 0.000000 0.040133 0.000000 0.000000
# 5 0.000000 0.000000 0.000000 0.000000 0.037355 0.000000
# 6 0.000000 0.000000 0.000000 0.000000 0.000000 0.046339
#
#
# Mechanical properties :
#
#
# Convention : Reuss Voigt Hill
#
# Bulk Modulus (GPa) = 48.68225 53.39321 51.03773
# Shear Modulus (GPa) = 27.79589 31.42108 29.60848
#
# Velocity S-wave (km/s) = 3.59294 3.82007 3.70824
# Velocity P-wave (km/s) = 6.31046 6.65241 6.48369
#
# Compressibility (1/GPa) = 0.02054137
#
# Stress axis : x y z
#
# Youngs Moduli (GPa) = 118.35992 115.59657 56.25631
#
# Poissons Ratio (x) = 0.09312 0.11129
# Poissons Ratio (y) = 0.09534 0.24659
# Poissons Ratio (z) = 0.23414 0.50669
#
# Static dielectric constant tensor:
#      x y z
#    x 4.003850 0.000000 0.000000 
#    y 0.000000 4.128020 0.000000 
#    z 0.000000 0.000000 3.749850 
# 
# 
# High freq. dielectric constant tensor:
#      x y z
#    x 1.876460 0.000000 0.000000 
#    y 0.000000 1.837540 0.000000 
#    z 0.000000 0.000000 1.819130 
# 
# From -- ./inp_files/18292.got.cif
#   From: 2010.03.12/outbox.cif.g09.slc.cpg/sg62_10_cif.got.tgz:18292.got - 2010.04.10 19:12:36.
