data_PCOD8255434
_publ_section_title
;
Structure prediction by ZEFSAII (Michael W. Deem and Ramdas Pophale) SiO2 
 PCOD8255434
Probable space group: C M C M
;
_chemical_formula_sum "Si O2"
_cell_formula_units_Z 112
_cell_length_a 22.559739
_cell_length_b 17.098142
_cell_length_c 18.756832
_cell_angle_alpha 90.000000
_cell_angle_beta 90.000000
_cell_angle_gamma 90.000000
_cell_volume 7235.065697
_symmetry_space_group_name_H-M "C M C M"
_symmetry_group_IT_number 63
_symmetry_cell_setting 'orthorhombic'
loop_
_space_group_symop_operation_xyz
x,y,z
-x,-y,1/2+z
x,-y,-z
-x,y,1/2-z
-x,-y,-z
x,y,1/2-z
-x,y,z
x,-y,1/2+z
1/2+x,1/2+y,z
1/2-x,1/2-y,1/2+z
1/2+x,1/2-y,-z
1/2-x,1/2+y,1/2-z
1/2-x,1/2-y,-z
1/2+x,1/2+y,1/2-z
1/2-x,1/2+y,z
1/2+x,1/2-y,1/2+z
loop_
_atom_site_type_symbol
_atom_site_label
_atom_site_fract_x
_atom_site_fract_y
_atom_site_fract_z
Si Si1 0.820051 0.023779 0.924242
Si Si2 0.351413 0.336694 0.332032
Si Si3 0.345502 0.081904 0.407160
Si Si4 0.275122 0.388530 0.667780
Si Si5 0.187285 0.414865 0.435521
Si Si6 0.782135 0.711894 0.830436
Si Si7 0.568534 0.808066 0.667045
O O1 0.859517 0.088133 0.883225
O O2 0.754950 0.057248 0.939508
O O3 0.816808 0.946720 0.875869
O O4 0.849503 0.000000 0.000000
O O5 0.359470 0.363287 0.250000
O O6 0.287515 0.298172 0.344298
O O7 0.400120 0.273100 0.354382
O O8 0.293085 0.107451 0.354877
O O9 0.332479 0.113550 0.486649
O O10 0.405792 0.119969 0.378567
O O11 0.352463 0.987656 0.408398
O O12 0.278512 0.412744 0.750000
O O13 0.299629 0.301343 0.654870
O O14 0.179102 0.342687 0.381979
O O15 0.797890 0.687237 0.750000
O O16 0.579046 0.826280 0.750000
O O17 0.500000 0.799497 0.647846
#
# Coordination Sequence:
#
# PCOD8255434 Si02
#       7
#    16  16  16  16  16  16  16
#     4  10  17  28  41  65  92 121 147 172 211 266
#     4   9  17  29  44  63  89 118 149 182 220 259
#     4  10  17  30  44  63  90 119 149 180 218 260
#     4  10  17  26  41  62  90 121 149 177 210 258
#     4   9  18  29  41  64  95 121 147 174 210 266
#     4   9  17  27  42  66  93 123 150 173 211 262
#     4  10  20  33  49  67  85 111 151 192 226 259
#
# _framework density 15.480164
#
# number of rings (size 3 to 8) (size 9 to 14) (size 15 to 20)
#    0.000    2.429    4.286    0.857    0.000    5.714 
#    0.000    1.429    0.000    0.429    0.000    0.000 
#    0.000    0.000    0.000    7.286    0.000    0.000 
#
# Total GULP energy -694375.821533 kJ/mol
# GULP energy per Si atom -12399.568242 kJ/mol
# Density = 1.544493 g / cm^3
# Si number density = 15.480164 Si / 1000 Ang^3
#
#
#
# Elastic Constant Matrix: (Units=GPa)
#
#
# Indices 1 2 3 4 5 6 
#
# 1 50.7183 39.8719 34.1321 0.0000 0.0000 0.0000
# 2 39.8719 100.0199 71.2859 0.0000 0.0000 0.0000
# 3 34.1321 71.2859 114.3684 0.0000 0.0000 0.0000
# 4 0.0000 0.0000 0.0000 28.4998 0.0000 0.0000
# 5 0.0000 0.0000 0.0000 0.0000 13.8904 0.0000
# 6 0.0000 0.0000 0.0000 0.0000 0.0000 14.5440
#
#
#
# Elastic Compliance Matrix: (Units=1/GPa)
#
#
# Indices 1 2 3 4 5 6 
#
# 1 0.029146 -0.009751 -0.002620 0.000000 0.000000 0.000000
# 2 -0.009751 0.021252 -0.010336 0.000000 0.000000 0.000000
# 3 -0.002620 -0.010336 0.015968 0.000000 0.000000 0.000000
# 4 0.000000 0.000000 0.000000 0.035088 0.000000 0.000000
# 5 0.000000 0.000000 0.000000 0.000000 0.071992 0.000000
# 6 0.000000 0.000000 0.000000 0.000000 0.000000 0.068757
#
#
# Mechanical properties :
#
#
# Convention : Reuss Voigt Hill
#
# Bulk Modulus (GPa) = 47.73114 61.74293 54.73703
# Shear Modulus (GPa) = 16.97201 19.37462 18.17332
#
# Velocity S-wave (km/s) = 3.31474 3.54160 3.43005
# Velocity P-wave (km/s) = 6.74913 7.52965 7.15005
#
# Compressibility (1/GPa) = 0.02095068
#
# Stress axis : x y z
#
# Youngs Moduli (GPa) = 34.30999 47.05431 62.62393
#
# Poissons Ratio (x) = 0.45883 0.16410
# Poissons Ratio (y) = 0.33456 0.64730
# Poissons Ratio (z) = 0.08991 0.48637
#
# Static dielectric constant tensor:
#      x y z
#    x 2.478450 0.000000 0.000000 
#    y 0.000000 3.107670 0.000000 
#    z 0.000000 0.000000 3.109010 
# 
# 
# High freq. dielectric constant tensor:
#      x y z
#    x 1.526620 0.000000 0.000000 
#    y 0.000000 1.603570 0.000000 
#    z 0.000000 0.000000 1.606020 
# 
# From -- ./inp_files/48366.got.cif
#   From: 2010.03.12/outbox.cif.g09.slc.cpg/sg63_25_cif.got.tgz:48366.got - 2010.04.10 19:34:48.
