data_PCOD8255685
_publ_section_title
;
Structure prediction by ZEFSAII (Michael W. Deem and Ramdas Pophale) SiO2 
 PCOD8255685
Probable space group: C M C M
;
_chemical_formula_sum "Si O2"
_cell_formula_units_Z 112
_cell_length_a 24.057158
_cell_length_b 16.904364
_cell_length_c 16.409613
_cell_angle_alpha 90.000000
_cell_angle_beta 90.000000
_cell_angle_gamma 90.000000
_cell_volume 6673.313000
_symmetry_space_group_name_H-M "C M C M"
_symmetry_group_IT_number 63
_symmetry_cell_setting 'orthorhombic'
loop_
_space_group_symop_operation_xyz
x,y,z
-x,-y,1/2+z
x,-y,-z
-x,y,1/2-z
-x,-y,-z
x,y,1/2-z
-x,y,z
x,-y,1/2+z
1/2+x,1/2+y,z
1/2-x,1/2-y,1/2+z
1/2+x,1/2-y,-z
1/2-x,1/2+y,1/2-z
1/2-x,1/2-y,-z
1/2+x,1/2+y,1/2-z
1/2-x,1/2+y,z
1/2+x,1/2-y,1/2+z
loop_
_atom_site_type_symbol
_atom_site_label
_atom_site_fract_x
_atom_site_fract_y
_atom_site_fract_z
Si Si1 0.437122 0.915543 0.095967
Si Si2 0.062454 0.748278 0.656018
Si Si3 0.337163 0.807264 0.586366
Si Si4 0.064079 0.410974 0.596949
Si Si5 0.749537 0.801264 0.343209
Si Si6 0.840998 0.201794 0.066198
Si Si7 0.254116 0.593035 0.997081
O O1 0.500000 0.915899 0.125551
O O2 0.409677 0.839057 0.139487
O O3 0.414206 0.001521 0.124572
O O4 0.432498 0.906330 0.999917
O O5 0.061903 0.768119 0.750000
O O6 0.100476 0.814145 0.611620
O O7 0.000000 0.752566 0.619766
O O8 0.391544 0.846479 0.630027
O O9 0.303782 0.755296 0.652113
O O10 0.356165 0.749879 0.514494
O O11 0.298649 0.874685 0.546395
O O12 0.000000 0.394229 0.625644
O O13 0.742397 0.830353 0.250000
O O14 0.697208 0.750371 0.371484
O O15 0.754636 0.876438 0.403577
O O16 0.810650 0.120679 0.041864
O O17 0.251349 0.500000 0.000000
#
# Coordination Sequence:
#
# PCOD8255685 Si02
#       7
#    16  16  16  16  16  16  16
#     4   8  15  24  36  60  92 123 152 178 212 259
#     4  10  18  27  42  65  92 120 149 185 230 278
#     4   9  17  28  47  67  89 122 157 188 216 265
#     4   9  15  24  41  65  91 122 155 187 218 254
#     4   9  18  33  48  65  92 123 153 189 233 271
#     4   9  17  31  47  65  90 119 148 186 228 273
#     4   9  19  32  49  71  90 118 158 195 232 272
#
# _framework density 16.783268
#
# number of rings (size 3 to 8) (size 9 to 14) (size 15 to 20)
#    0.000    3.000    1.429    3.000    2.000    0.000 
#    0.000    4.286    0.000    1.714    0.000    0.000 
#    0.000    0.000    0.000    0.000    0.000    0.000 
#
# Total GULP energy -693751.116324 kJ/mol
# GULP energy per Si atom -12388.412792 kJ/mol
# Density = 1.674507 g / cm^3
# Si number density = 16.783268 Si / 1000 Ang^3
#
#
#
# Elastic Constant Matrix: (Units=GPa)
#
#
# Indices 1 2 3 4 5 6 
#
# 1 68.5151 14.5776 12.7869 0.0000 0.0000 0.0000
# 2 14.5776 63.3383 14.2535 0.0000 0.0000 0.0000
# 3 12.7869 14.2535 63.0120 0.0000 0.0000 0.0000
# 4 0.0000 0.0000 0.0000 13.9457 0.0000 0.0000
# 5 0.0000 0.0000 0.0000 0.0000 17.6038 0.0000
# 6 0.0000 0.0000 0.0000 0.0000 0.0000 23.7803
#
#
#
# Elastic Compliance Matrix: (Units=1/GPa)
#
#
# Indices 1 2 3 4 5 6 
#
# 1 0.015711 -0.003054 -0.002497 0.000000 0.000000 0.000000
# 2 -0.003054 0.017229 -0.003277 0.000000 0.000000 0.000000
# 3 -0.002497 -0.003277 0.017118 0.000000 0.000000 0.000000
# 4 0.000000 0.000000 0.000000 0.071706 0.000000 0.000000
# 5 0.000000 0.000000 0.000000 0.000000 0.056806 0.000000
# 6 0.000000 0.000000 0.000000 0.000000 0.000000 0.042052
#
#
# Mechanical properties :
#
#
# Convention : Reuss Voigt Hill
#
# Bulk Modulus (GPa) = 30.86388 30.90016 30.88202
# Shear Modulus (GPa) = 20.07389 21.28246 20.67818
#
# Velocity S-wave (km/s) = 3.46217 3.56487 3.51389
# Velocity P-wave (km/s) = 5.86615 5.94942 5.90794
#
# Compressibility (1/GPa) = 0.03240033
#
# Stress axis : x y z
#
# Youngs Moduli (GPa) = 63.64889 58.04282 58.41748
#
# Poissons Ratio (x) = 0.17726 0.14589
# Poissons Ratio (y) = 0.19438 0.19146
# Poissons Ratio (z) = 0.15896 0.19023
#
# Static dielectric constant tensor:
#      x y z
#    x 3.340960 0.000000 0.000000 
#    y 0.000000 3.010870 0.000000 
#    z 0.000000 0.000000 2.914750 
# 
# 
# High freq. dielectric constant tensor:
#      x y z
#    x 1.645720 0.000000 0.000000 
#    y 0.000000 1.613290 0.000000 
#    z 0.000000 0.000000 1.623850 
# 
# From -- ./inp_files/48332.got.cif
#   From: 2010.03.12/outbox.cif.g09.slc.cpg/sg63_25_cif.got.tgz:48332.got - 2010.04.10 19:34:48.
