data_PCOD8255753
_publ_section_title
;
Structure prediction by ZEFSAII (Michael W. Deem and Ramdas Pophale) SiO2 
 PCOD8255753
Probable space group: C M C M
;
_chemical_formula_sum "Si O2"
_cell_formula_units_Z 96
_cell_length_a 29.311309
_cell_length_b 23.343023
_cell_length_c 8.932726
_cell_angle_alpha 90.000000
_cell_angle_beta 90.000000
_cell_angle_gamma 90.000000
_cell_volume 6111.901191
_symmetry_space_group_name_H-M "C M C M"
_symmetry_group_IT_number 63
_symmetry_cell_setting 'orthorhombic'
loop_
_space_group_symop_operation_xyz
x,y,z
-x,-y,1/2+z
x,-y,-z
-x,y,1/2-z
-x,-y,-z
x,y,1/2-z
-x,y,z
x,-y,1/2+z
1/2+x,1/2+y,z
1/2-x,1/2-y,1/2+z
1/2+x,1/2-y,-z
1/2-x,1/2+y,1/2-z
1/2-x,1/2-y,-z
1/2+x,1/2+y,1/2-z
1/2-x,1/2+y,z
1/2+x,1/2-y,1/2+z
loop_
_atom_site_type_symbol
_atom_site_label
_atom_site_fract_x
_atom_site_fract_y
_atom_site_fract_z
Si Si1 0.908116 0.889161 0.073796
Si Si2 0.181160 0.275434 0.424946
Si Si3 0.740033 0.666034 0.076468
Si Si4 0.179813 0.058572 0.073540
Si Si5 0.000000 0.109543 0.080394
Si Si6 0.408682 0.255849 0.074698
Si Si7 0.500000 0.745745 0.418618
O O1 0.907975 0.900104 0.250000
O O2 0.901690 0.822464 0.034343
O O3 0.868101 0.924585 0.998049
O O4 0.955399 0.912963 0.006178
O O5 0.172404 0.281642 0.250000
O O6 0.213989 0.326545 0.480379
O O7 0.203698 0.214750 0.467809
O O8 0.133063 0.280379 0.508488
O O9 0.753046 0.671109 0.250000
O O10 0.718286 0.605245 0.035584
O O11 0.172926 0.051776 0.250000
O O12 0.197320 0.000000 0.000000
O O13 0.000000 0.177656 0.078295
O O14 0.000000 0.086061 0.250000
O O15 0.411695 0.245812 0.250000
O O16 0.455045 0.231491 0.002474
O O17 0.500000 0.769489 0.250000
#
# Coordination Sequence:
#
# PCOD8255753 Si02
#       7
#    16  16  16  16   8  16   8
#     4  10  19  31  47  66  87 114 150 189 230 276
#     4  10  18  29  48  70  92 117 149 186 227 271
#     4   9  19  33  47  66  91 117 147 186 230 273
#     4  11  22  36  51  67  89 117 151 189 232 278
#     4   9  17  29  46  64  85 113 145 188 235 275
#     4  10  18  28  44  66  93 121 151 186 226 271
#     4   9  17  27  41  62  90 121 154 184 221 269
#
# _framework density 15.707058999999999
#
# number of rings (size 3 to 8) (size 9 to 14) (size 15 to 20)
#    0.000    2.167    1.667    2.500    0.000    5.333 
#    0.000    0.417    0.000    0.000    0.000    0.000 
#    0.000    0.000    0.000    0.750    0.000   10.167 
#
# Total GULP energy -595337.506407 kJ/mol
# GULP energy per Si atom -12402.864717 kJ/mol
# Density = 1.567131 g / cm^3
# Si number density = 15.707059 Si / 1000 Ang^3
#
#
#
# Elastic Constant Matrix: (Units=GPa)
#
#
# Indices 1 2 3 4 5 6 
#
# 1 125.8801 46.3429 61.4090 0.0000 0.0000 0.0000
# 2 46.3429 51.9420 35.3306 0.0000 0.0000 0.0000
# 3 61.4090 35.3306 90.8634 0.0000 0.0000 0.0000
# 4 0.0000 0.0000 0.0000 18.9527 0.0000 0.0000
# 5 0.0000 0.0000 0.0000 0.0000 34.2129 0.0000
# 6 0.0000 0.0000 0.0000 0.0000 0.0000 18.6298
#
#
#
# Elastic Compliance Matrix: (Units=1/GPa)
#
#
# Indices 1 2 3 4 5 6 
#
# 1 0.014051 -0.008263 -0.006284 0.000000 0.000000 0.000000
# 2 -0.008263 0.031034 -0.006483 0.000000 0.000000 0.000000
# 3 -0.006284 -0.006483 0.017773 0.000000 0.000000 0.000000
# 4 0.000000 0.000000 0.000000 0.052763 0.000000 0.000000
# 5 0.000000 0.000000 0.000000 0.000000 0.029229 0.000000
# 6 0.000000 0.000000 0.000000 0.000000 0.000000 0.053677
#
#
# Mechanical properties :
#
#
# Convention : Reuss Voigt Hill
#
# Bulk Modulus (GPa) = 48.07683 61.65006 54.86344
# Shear Modulus (GPa) = 20.20052 22.73262 21.46657
#
# Velocity S-wave (km/s) = 3.59009 3.80845 3.70088
# Velocity P-wave (km/s) = 6.91808 7.65991 7.29842
#
# Compressibility (1/GPa) = 0.02080004
#
# Stress axis : x y z
#
# Youngs Moduli (GPa) = 71.16746 32.22309 56.26519
#
# Poissons Ratio (x) = 0.26625 0.35355
# Poissons Ratio (y) = 0.58803 0.36475
# Poissons Ratio (z) = 0.44720 0.20889
#
# Static dielectric constant tensor:
#      x y z
#    x 3.062740 0.000000 0.000000 
#    y 0.000000 2.644970 0.000000 
#    z 0.000000 0.000000 3.108120 
# 
# 
# High freq. dielectric constant tensor:
#      x y z
#    x 1.606780 0.000000 0.000000 
#    y 0.000000 1.543170 0.000000 
#    z 0.000000 0.000000 1.621980 
# 
# From -- ./inp_files/12780.got.cif
#   From: 2010.03.12/outbox.cif.g09.slc.cpg/sg63_7_cif.got.tgz:12780.got - 2010.04.10 19:34:48.
