data_PCOD8255366
_publ_section_title
;
Structure prediction by ZEFSAII (Michael W. Deem and Ramdas Pophale) SiO2 
 PCOD8255366
Probable space group: C M C M
;
_chemical_formula_sum "Si O2"
_cell_formula_units_Z 128
_cell_length_a 25.486567
_cell_length_b 17.882735
_cell_length_c 17.769138
_cell_angle_alpha 90.000000
_cell_angle_beta 90.000000
_cell_angle_gamma 90.000000
_cell_volume 8098.631563
_symmetry_space_group_name_H-M "C M C M"
_symmetry_group_IT_number 63
_symmetry_cell_setting 'orthorhombic'
loop_
_space_group_symop_operation_xyz
x,y,z
-x,-y,1/2+z
x,-y,-z
-x,y,1/2-z
-x,-y,-z
x,y,1/2-z
-x,y,z
x,-y,1/2+z
1/2+x,1/2+y,z
1/2-x,1/2-y,1/2+z
1/2+x,1/2-y,-z
1/2-x,1/2+y,1/2-z
1/2-x,1/2-y,-z
1/2+x,1/2+y,1/2-z
1/2-x,1/2+y,z
1/2+x,1/2-y,1/2+z
loop_
_atom_site_type_symbol
_atom_site_label
_atom_site_fract_x
_atom_site_fract_y
_atom_site_fract_z
Si Si1 0.348860 0.720189 0.522461
Si Si2 0.939940 0.673079 0.461068
Si Si3 0.891021 0.427994 0.837954
Si Si4 0.796424 0.078681 0.471789
Si Si5 0.213802 0.773177 0.166176
Si Si6 0.292738 0.152793 0.566908
Si Si7 0.271365 0.098500 0.166395
Si Si8 0.608902 0.942755 0.063482
O O1 0.407954 0.751755 0.517118
O O2 0.342243 0.641799 0.477517
O O3 0.333714 0.707431 0.609749
O O4 0.307932 0.779764 0.488740
O O5 0.917900 0.640163 0.382621
O O6 0.935132 0.611467 0.527604
O O7 0.000000 0.696272 0.451323
O O8 0.902856 0.416551 0.750000
O O9 0.829177 0.429965 0.857168
O O10 0.914060 0.507957 0.867104
O O11 0.747246 0.100233 0.523073
O O12 0.774642 0.068139 0.387218
O O13 0.820248 0.000000 0.500000
O O14 0.196699 0.797815 0.250000
O O15 0.266400 0.817004 0.142796
O O16 0.228080 0.687043 0.163837
O O17 0.343038 0.106554 0.592997
O O18 0.257990 0.069292 0.250000
O O19 0.629384 0.000000 0.000000
#
# Coordination Sequence:
#
# PCOD8255366 Si02
#       8
#    16  16  16  16  16  16  16  16
#     4  10  18  32  46  64  90 117 157 193 230 272
#     4  10  20  34  51  65  81 115 162 203 237 274
#     4  10  19  30  45  68  99 127 149 180 227 278
#     4  11  18  28  46  69  93 125 155 186 225 274
#     4  10  17  26  43  65  92 123 151 182 217 256
#     4  10  16  28  44  65  92 122 157 179 211 269
#     4  10  17  28  44  67  98 127 152 179 216 263
#     4   9  18  30  46  66  92 122 152 187 224 267
#
# _framework density 15.805139
#
# number of rings (size 3 to 8) (size 9 to 14) (size 15 to 20)
#    0.000    2.000    3.750    3.375    0.000    3.000 
#    0.000    3.750    0.000    0.375    0.000    0.000 
#    0.000    0.000    0.000    0.125    0.000    0.000 
#
# Total GULP energy -793386.513765 kJ/mol
# GULP energy per Si atom -12396.664278 kJ/mol
# Density = 1.576917 g / cm^3
# Si number density = 15.805139 Si / 1000 Ang^3
#
#
#
# Elastic Constant Matrix: (Units=GPa)
#
#
# Indices 1 2 3 4 5 6 
#
# 1 73.2826 35.4836 38.1691 0.0000 0.0000 0.0000
# 2 35.4836 73.8869 28.5061 0.0000 0.0000 0.0000
# 3 38.1691 28.5061 67.4445 0.0000 0.0000 0.0000
# 4 0.0000 0.0000 0.0000 15.1659 0.0000 0.0000
# 5 0.0000 0.0000 0.0000 0.0000 13.2365 0.0000
# 6 0.0000 0.0000 0.0000 0.0000 0.0000 9.5905
#
#
#
# Elastic Compliance Matrix: (Units=1/GPa)
#
#
# Indices 1 2 3 4 5 6 
#
# 1 0.021917 -0.006859 -0.009505 0.000000 0.000000 0.000000
# 2 -0.006859 0.018317 -0.003861 0.000000 0.000000 0.000000
# 3 -0.009505 -0.003861 0.021838 0.000000 0.000000 0.000000
# 4 0.000000 0.000000 0.000000 0.065937 0.000000 0.000000
# 5 0.000000 0.000000 0.000000 0.000000 0.075549 0.000000
# 6 0.000000 0.000000 0.000000 0.000000 0.000000 0.104270
#
#
# Mechanical properties :
#
#
# Convention : Reuss Voigt Hill
#
# Bulk Modulus (GPa) = 46.24375 46.54797 46.39586
# Shear Modulus (GPa) = 14.06531 15.09560 14.58046
#
# Velocity S-wave (km/s) = 2.98639 3.09383 3.04059
# Velocity P-wave (km/s) = 6.41978 6.50212 6.46108
#
# Compressibility (1/GPa) = 0.02162454
#
# Stress axis : x y z
#
# Youngs Moduli (GPa) = 45.62589 54.59286 45.79205
#
# Poissons Ratio (x) = 0.37443 0.43525
# Poissons Ratio (y) = 0.31293 0.17678
# Poissons Ratio (z) = 0.43367 0.21076
#
# Static dielectric constant tensor:
#      x y z
#    x 2.666340 0.000000 0.000000 
#    y 0.000000 3.053650 0.000000 
#    z 0.000000 0.000000 3.186810 
# 
# 
# High freq. dielectric constant tensor:
#      x y z
#    x 1.561040 0.000000 0.000000 
#    y 0.000000 1.599700 0.000000 
#    z 0.000000 0.000000 1.606160 
# 
# From -- ./inp_files/48430.got.cif
#   From: 2010.03.12/outbox.cif.g09.slc.cpg/sg63_25_cif.got.tgz:48430.got - 2010.04.10 19:34:48.
