data_PCOD8255235
_publ_section_title
;
Structure prediction by ZEFSAII (Michael W. Deem and Ramdas Pophale) SiO2 
 PCOD8255235
Probable space group: P N M A
;
_chemical_formula_sum "Si O2"
_cell_formula_units_Z 24
_cell_length_a 9.745447
_cell_length_b 7.446310
_cell_length_c 16.594022
_cell_angle_alpha 90.000000
_cell_angle_beta 90.000000
_cell_angle_gamma 90.000000
_cell_volume 1204.188674
_symmetry_space_group_name_H-M "P N M A"
_symmetry_group_IT_number 62
_symmetry_cell_setting 'orthorhombic'
loop_
_space_group_symop_operation_xyz
x,y,z
1/2-x,-y,1/2+z
1/2+x,1/2-y,1/2-z
-x,1/2+y,-z
-x,-y,-z
1/2+x,y,1/2-z
1/2-x,1/2+y,1/2+z
x,1/2-y,z
loop_
_atom_site_type_symbol
_atom_site_label
_atom_site_fract_x
_atom_site_fract_y
_atom_site_fract_z
Si Si1 0.006762 0.250000 0.302928
Si Si2 0.903211 0.043855 0.574737
Si Si3 0.152481 0.544024 0.026248
Si Si4 0.298367 0.750000 0.656582
O O1 0.842454 0.250000 0.292856
O O2 0.055412 0.427676 0.348694
O O3 0.070584 0.250000 0.214326
O O4 0.918588 0.250000 0.600067
O O5 0.747452 0.999815 0.550391
O O6 0.000000 0.000000 0.500000
O O7 0.167477 0.750000 0.052343
O O8 0.198985 0.426697 0.101890
O O9 0.000000 0.500000 0.000000
#
# Coordination Sequence:
#
# PCOD8255235 Si02
#       4
#     4   8   8   4
#     4  12  28  44  68 100 145 174 223 283 345 394
#     4  12  21  42  72  99 124 178 231 274 327 400
#     4  12  23  42  72 101 132 175 231 280 327 402
#     4  12  28  46  64 106 141 178 219 283 343 394
#
# _framework density 19.930434000000002
#
# number of rings (size 3 to 8) (size 9 to 14) (size 15 to 20)
#    0.000    0.000   10.000    0.000    4.667    1.333 
#    0.000    0.000    0.000    0.000    0.000    0.000 
#    0.000    0.000    0.000    0.000    0.000    0.000 
#
# Total GULP energy -297774.430728 kJ/mol
# GULP energy per Si atom -12407.267947 kJ/mol
# Density = 1.988507 g / cm^3
# Si number density = 19.930434 Si / 1000 Ang^3
#
#
#
# Elastic Constant Matrix: (Units=GPa)
#
#
# Indices 1 2 3 4 5 6 
#
# 1 133.8602 18.6480 11.6083 0.0000 0.0000 0.0000
# 2 18.6480 196.3172 30.0831 0.0000 0.0000 0.0000
# 3 11.6083 30.0831 54.5419 0.0000 0.0000 0.0000
# 4 0.0000 0.0000 0.0000 17.4845 0.0000 0.0000
# 5 0.0000 0.0000 0.0000 0.0000 43.4015 0.0000
# 6 0.0000 0.0000 0.0000 0.0000 0.0000 28.2452
#
#
#
# Elastic Compliance Matrix: (Units=1/GPa)
#
#
# Indices 1 2 3 4 5 6 
#
# 1 0.007660 -0.000522 -0.001342 0.000000 0.000000 0.000000
# 2 -0.000522 0.005600 -0.002977 0.000000 0.000000 0.000000
# 3 -0.001342 -0.002977 0.020262 0.000000 0.000000 0.000000
# 4 0.000000 0.000000 0.000000 0.057194 0.000000 0.000000
# 5 0.000000 0.000000 0.000000 0.000000 0.023041 0.000000
# 6 0.000000 0.000000 0.000000 0.000000 0.000000 0.035404
#
#
# Mechanical properties :
#
#
# Convention : Reuss Voigt Hill
#
# Bulk Modulus (GPa) = 41.94931 56.15535 49.05233
# Shear Modulus (GPa) = 29.97787 39.45157 34.71472
#
# Velocity S-wave (km/s) = 3.88251 4.45394 4.17801
# Velocity P-wave (km/s) = 6.41811 7.39507 6.92384
#
# Compressibility (1/GPa) = 0.02383830
#
# Stress axis : x y z
#
# Youngs Moduli (GPa) = 130.55524 178.58331 49.35229
#
# Poissons Ratio (x) = 0.09320 0.06625
# Poissons Ratio (y) = 0.06813 0.14694
# Poissons Ratio (z) = 0.17525 0.53172
#
# Static dielectric constant tensor:
#      x y z
#    x 3.983780 0.000000 0.000000 
#    y 0.000000 4.075100 0.000000 
#    z 0.000000 0.000000 3.433550 
# 
# 
# High freq. dielectric constant tensor:
#      x y z
#    x 1.804090 0.000000 0.000000 
#    y 0.000000 1.799970 0.000000 
#    z 0.000000 0.000000 1.749550 
# 
# From -- ./inp_files/16367.got.cif
#   From: 2010.03.12/outbox.cif.g09.slc.cpg/sg62_9_cif.got.tgz:16367.got - 2010.04.10 19:12:36.
