data_PCOD8255803
_publ_section_title
;
Structure prediction by ZEFSAII (Michael W. Deem and Ramdas Pophale) SiO2 
 PCOD8255803
Probable space group: C M C M
;
_chemical_formula_sum "Si O2"
_cell_formula_units_Z 80
_cell_length_a 8.633286
_cell_length_b 20.697324
_cell_length_c 24.684070
_cell_angle_alpha 90.000000
_cell_angle_beta 90.000000
_cell_angle_gamma 90.000000
_cell_volume 4410.695696
_symmetry_space_group_name_H-M "C M C M"
_symmetry_group_IT_number 63
_symmetry_cell_setting 'orthorhombic'
loop_
_space_group_symop_operation_xyz
x,y,z
-x,-y,1/2+z
x,-y,-z
-x,y,1/2-z
-x,-y,-z
x,y,1/2-z
-x,y,z
x,-y,1/2+z
1/2+x,1/2+y,z
1/2-x,1/2-y,1/2+z
1/2+x,1/2-y,-z
1/2-x,1/2+y,1/2-z
1/2-x,1/2-y,-z
1/2+x,1/2+y,1/2-z
1/2-x,1/2+y,z
1/2+x,1/2-y,1/2+z
loop_
_atom_site_type_symbol
_atom_site_label
_atom_site_fract_x
_atom_site_fract_y
_atom_site_fract_z
Si Si1 0.681970 0.360359 0.750000
Si Si2 0.817938 0.007146 0.858130
Si Si3 0.817841 0.686150 0.025617
Si Si4 0.682602 0.002220 0.750000
Si Si5 0.681892 0.939794 0.037459
Si Si6 0.683224 0.864952 0.860372
O O1 0.500000 0.348505 0.750000
O O2 0.723708 0.435352 0.750000
O O3 0.753744 0.330609 0.694601
O O4 0.736725 0.038344 0.804613
O O5 0.775923 0.054680 0.906932
O O6 0.000000 0.003834 0.849213
O O7 0.753976 0.935649 0.869659
O O8 0.767912 0.679300 0.088573
O O9 0.000000 0.689532 0.021295
O O10 0.750000 0.750000 0.000000
O O11 0.757774 0.624516 0.992093
O O12 0.500000 0.989864 0.750000
O O13 0.500000 0.937943 0.050189
O O14 0.724543 0.000000 0.000000
O O15 0.500000 0.873544 0.856405
#
# Coordination Sequence:
#
# PCOD8255803 Si02
#       6
#     8  16  16   8  16  16
#     4  10  18  28  46  77 106 133 170 225 271 303
#     4  11  20  30  49  80 110 136 173 227 273 309
#     4  10  22  37  56  78 107 144 180 222 266 317
#     4  10  18  30  48  71 104 145 176 211 265 327
#     4  10  19  36  56  76 105 142 182 215 259 322
#     4  10  18  33  52  74 104 144 179 212 261 323
#
# _framework density 18.137727000000002
#
# number of rings (size 3 to 8) (size 9 to 14) (size 15 to 20)
#    0.000    1.800    2.000    6.600    0.000    2.800 
#    0.000    0.000    0.000    1.200    0.000    5.600 
#    0.000    0.000    0.000    0.000    0.000    0.000 
#
# Total GULP energy -495920.551679 kJ/mol
# GULP energy per Si atom -12398.013792 kJ/mol
# Density = 1.809645 g / cm^3
# Si number density = 18.137727 Si / 1000 Ang^3
#
#
#
# Elastic Constant Matrix: (Units=GPa)
#
#
# Indices 1 2 3 4 5 6 
#
# 1 79.4754 27.5716 57.4789 0.0000 0.0000 0.0000
# 2 27.5716 87.1199 62.5770 0.0000 0.0000 0.0000
# 3 57.4789 62.5770 191.1815 0.0000 0.0000 0.0000
# 4 0.0000 0.0000 0.0000 20.8747 0.0000 0.0000
# 5 0.0000 0.0000 0.0000 0.0000 30.7233 0.0000
# 6 0.0000 0.0000 0.0000 0.0000 0.0000 22.2119
#
#
#
# Elastic Compliance Matrix: (Units=1/GPa)
#
#
# Indices 1 2 3 4 5 6 
#
# 1 0.016382 -0.002153 -0.004220 0.000000 0.000000 0.000000
# 2 -0.002153 0.015290 -0.004357 0.000000 0.000000 0.000000
# 3 -0.004220 -0.004357 0.007926 0.000000 0.000000 0.000000
# 4 0.000000 0.000000 0.000000 0.047905 0.000000 0.000000
# 5 0.000000 0.000000 0.000000 0.000000 0.032549 0.000000
# 6 0.000000 0.000000 0.000000 0.000000 0.000000 0.045021
#
#
# Mechanical properties :
#
#
# Convention : Reuss Voigt Hill
#
# Bulk Modulus (GPa) = 55.14000 72.55909 63.84954
# Shear Modulus (GPa) = 25.96349 28.77193 27.36771
#
# Velocity S-wave (km/s) = 3.78757 3.98716 3.88865
# Velocity P-wave (km/s) = 7.04232 7.82866 7.44588
#
# Compressibility (1/GPa) = 0.01813565
#
# Stress axis : x y z
#
# Youngs Moduli (GPa) = 61.04337 65.40416 126.17139
#
# Poissons Ratio (x) = 0.14081 0.53251
# Poissons Ratio (y) = 0.13142 0.54976
# Poissons Ratio (z) = 0.25763 0.28498
#
# Static dielectric constant tensor:
#      x y z
#    x 3.307860 0.000000 0.000000 
#    y 0.000000 2.856730 0.000000 
#    z 0.000000 0.000000 4.233010 
# 
# 
# High freq. dielectric constant tensor:
#      x y z
#    x 1.709170 0.000000 0.000000 
#    y 0.000000 1.641630 0.000000 
#    z 0.000000 0.000000 1.732260 
# 
# From -- ./inp_files/66657.got.cif
#   From: 2010.03.12/outbox.cif.g09.slc.cpg/sg63_34_cif.got.tgz:66657.got - 2010.04.10 19:34:48.
