data_PCOD8255500
_publ_section_title
;
Structure prediction by ZEFSAII (Michael W. Deem and Ramdas Pophale) SiO2 
 PCOD8255500
Probable space group: C M C M
;
_chemical_formula_sum "Si O2"
_cell_formula_units_Z 128
_cell_length_a 25.610390
_cell_length_b 18.708658
_cell_length_c 16.905190
_cell_angle_alpha 90.000000
_cell_angle_beta 90.000000
_cell_angle_gamma 90.000000
_cell_volume 8099.885585
_symmetry_space_group_name_H-M "C M C M"
_symmetry_group_IT_number 63
_symmetry_cell_setting 'orthorhombic'
loop_
_space_group_symop_operation_xyz
x,y,z
-x,-y,1/2+z
x,-y,-z
-x,y,1/2-z
-x,-y,-z
x,y,1/2-z
-x,y,z
x,-y,1/2+z
1/2+x,1/2+y,z
1/2-x,1/2-y,1/2+z
1/2+x,1/2-y,-z
1/2-x,1/2+y,1/2-z
1/2-x,1/2-y,-z
1/2+x,1/2+y,1/2-z
1/2-x,1/2+y,z
1/2+x,1/2-y,1/2+z
loop_
_atom_site_type_symbol
_atom_site_label
_atom_site_fract_x
_atom_site_fract_y
_atom_site_fract_z
Si Si1 0.288000 0.849670 0.658482
Si Si2 0.308392 0.274047 0.917208
Si Si3 0.842613 0.771224 0.097579
Si Si4 0.254981 0.852080 0.158176
Si Si5 0.940077 0.848797 0.342620
Si Si6 0.259359 0.508922 0.158406
Si Si7 0.856703 0.901166 0.842304
Si Si8 0.060433 0.997129 0.910615
O O1 0.273046 0.833334 0.750000
O O2 0.245642 0.814735 0.599809
O O3 0.341656 0.810145 0.633352
O O4 0.289035 0.935455 0.645719
O O5 0.300738 0.193212 0.885199
O O6 0.353551 0.320088 0.874783
O O7 0.322774 0.272096 0.008467
O O8 0.802968 0.819669 0.148540
O O9 0.901818 0.798457 0.106680
O O10 0.269902 0.853822 0.250000
O O11 0.254134 0.932208 0.119707
O O12 0.929696 0.837893 0.250000
O O13 0.927282 0.930032 0.364893
O O14 0.000000 0.829937 0.364769
O O15 0.269920 0.493420 0.250000
O O16 0.311436 0.546306 0.122377
O O17 0.848987 0.895761 0.750000
O O18 0.912506 0.932392 0.864981
O O19 0.000000 0.977992 0.910112
O O20 0.081858 0.000000 0.000000
#
# Coordination Sequence:
#
# PCOD8255500 Si02
#       8
#    16  16  16  16  16  16  16  16
#     4   9  16  29  45  63  89 118 148 182 220 263
#     4  10  19  29  40  61  88 116 149 184 216 252
#     4  11  19  29  44  64  89 119 149 179 222 266
#     4  10  17  28  45  64  88 118 150 178 211 262
#     4  10  20  33  48  66  87 113 149 189 223 259
#     4   8  16  27  42  63  85 111 143 178 211 249
#     4  10  18  30  45  60  83 118 155 185 217 257
#     4  10  20  32  45  64  89 114 143 185 230 263
#
# _framework density 15.802693
#
# number of rings (size 3 to 8) (size 9 to 14) (size 15 to 20)
#    0.000    2.250    0.000    7.125    0.000    1.750 
#    0.000    5.000    0.000    0.000    0.000    0.000 
#    0.000    3.000    0.000    8.000    0.000    0.000 
#
# Total GULP energy -793131.043558 kJ/mol
# GULP energy per Si atom -12392.672556 kJ/mol
# Density = 1.576673 g / cm^3
# Si number density = 15.802693 Si / 1000 Ang^3
#
#
#
# Elastic Constant Matrix: (Units=GPa)
#
#
# Indices 1 2 3 4 5 6 
#
# 1 61.9544 40.4118 26.5201 0.0000 0.0000 0.0000
# 2 40.4118 112.7656 30.2470 0.0000 0.0000 0.0000
# 3 26.5201 30.2470 72.6607 0.0000 0.0000 0.0000
# 4 0.0000 0.0000 0.0000 14.2631 0.0000 0.0000
# 5 0.0000 0.0000 0.0000 0.0000 19.8087 0.0000
# 6 0.0000 0.0000 0.0000 0.0000 0.0000 23.0880
#
#
#
# Elastic Compliance Matrix: (Units=1/GPa)
#
#
# Indices 1 2 3 4 5 6 
#
# 1 0.022903 -0.006715 -0.005564 0.000000 0.000000 0.000000
# 2 -0.006715 0.011952 -0.002524 0.000000 0.000000 0.000000
# 3 -0.005564 -0.002524 0.016844 0.000000 0.000000 0.000000
# 4 0.000000 0.000000 0.000000 0.070111 0.000000 0.000000
# 5 0.000000 0.000000 0.000000 0.000000 0.050483 0.000000
# 6 0.000000 0.000000 0.000000 0.000000 0.000000 0.043313
#
#
# Mechanical properties :
#
#
# Convention : Reuss Voigt Hill
#
# Bulk Modulus (GPa) = 45.26540 49.08207 47.17374
# Shear Modulus (GPa) = 19.79610 21.44543 20.62076
#
# Velocity S-wave (km/s) = 3.54320 3.68785 3.61624
# Velocity P-wave (km/s) = 6.74131 7.01857 6.88134
#
# Compressibility (1/GPa) = 0.02209193
#
# Stress axis : x y z
#
# Youngs Moduli (GPa) = 43.66281 83.67096 59.36822
#
# Poissons Ratio (x) = 0.56188 0.33031
# Poissons Ratio (y) = 0.29321 0.14986
# Poissons Ratio (z) = 0.24293 0.21120
#
# Static dielectric constant tensor:
#      x y z
#    x 2.837740 0.000000 0.000000 
#    y 0.000000 3.331270 0.000000 
#    z 0.000000 0.000000 3.014030 
# 
# 
# High freq. dielectric constant tensor:
#      x y z
#    x 1.564590 0.000000 0.000000 
#    y 0.000000 1.604410 0.000000 
#    z 0.000000 0.000000 1.613330 
# 
# From -- ./inp_files/48487.got.cif
#   From: 2010.03.12/outbox.cif.g09.slc.cpg/sg63_25_cif.got.tgz:48487.got - 2010.04.10 19:34:48.
