data_PCOD8255757
_publ_section_title
;
Structure prediction by ZEFSAII (Michael W. Deem and Ramdas Pophale) SiO2 
 PCOD8255757
Probable space group: C M C M
;
_chemical_formula_sum "Si O2"
_cell_formula_units_Z 96
_cell_length_a 9.213280
_cell_length_b 27.628608
_cell_length_c 22.586045
_cell_angle_alpha 90.000000
_cell_angle_beta 90.000000
_cell_angle_gamma 90.000000
_cell_volume 5749.280048
_symmetry_space_group_name_H-M "C M C M"
_symmetry_group_IT_number 63
_symmetry_cell_setting 'orthorhombic'
loop_
_space_group_symop_operation_xyz
x,y,z
-x,-y,1/2+z
x,-y,-z
-x,y,1/2-z
-x,-y,-z
x,y,1/2-z
-x,y,z
x,-y,1/2+z
1/2+x,1/2+y,z
1/2-x,1/2-y,1/2+z
1/2+x,1/2-y,-z
1/2-x,1/2+y,1/2-z
1/2-x,1/2-y,-z
1/2+x,1/2+y,1/2-z
1/2-x,1/2+y,z
1/2+x,1/2-y,1/2+z
loop_
_atom_site_type_symbol
_atom_site_label
_atom_site_fract_x
_atom_site_fract_y
_atom_site_fract_z
Si Si1 0.832372 0.616994 0.750000
Si Si2 0.832745 0.358251 0.376546
Si Si3 0.334898 0.440946 0.433113
Si Si4 0.327660 0.199949 0.988236
Si Si5 0.668010 0.615663 0.449770
Si Si6 0.329034 0.466044 0.630322
Si Si7 0.673834 0.514468 0.750000
O O1 0.801312 0.651743 0.693000
O O2 0.736401 0.568651 0.750000
O O3 0.000000 0.600153 0.750000
O O4 0.756931 0.408531 0.389098
O O5 0.779549 0.316183 0.421586
O O6 0.000000 0.366127 0.390046
O O7 0.500000 0.434138 0.412701
O O8 0.313789 0.425644 0.500582
O O9 0.285351 0.496051 0.421540
O O10 0.500000 0.205576 0.995332
O O11 0.250000 0.250000 0.000000
O O12 0.269980 0.161300 0.036462
O O13 0.500000 0.633039 0.445684
O O14 0.722708 0.588037 0.389880
O O15 0.500000 0.462602 0.635415
O O16 0.267191 0.484006 0.693413
O O17 0.500000 0.519144 0.750000
#
# Coordination Sequence:
#
# PCOD8255757 Si02
#       7
#     8  16  16  16  16  16   8
#     4  10  18  30  46  67  98 131 155 182 225 277
#     4   9  18  30  46  69  97 124 152 187 231 282
#     4   9  15  25  43  66  93 125 158 189 223 266
#     4  10  20  35  53  73  93 116 151 198 248 292
#     4   9  17  29  46  68  93 123 156 191 232 277
#     4   9  16  26  42  66  96 128 162 194 223 260
#     4  10  18  28  44  67  96 133 169 198 221 257
#
# _framework density 16.697744
#
# number of rings (size 3 to 8) (size 9 to 14) (size 15 to 20)
#    0.000    2.667    1.667    1.000    0.000    2.667 
#    0.000    1.667    0.000    5.000    0.000    7.000 
#    0.000    0.000    0.000    0.000    0.000    0.000 
#
# Total GULP energy -594636.648003 kJ/mol
# GULP energy per Si atom -12388.263500 kJ/mol
# Density = 1.665974 g / cm^3
# Si number density = 16.697744 Si / 1000 Ang^3
#
#
#
# Elastic Constant Matrix: (Units=GPa)
#
#
# Indices 1 2 3 4 5 6 
#
# 1 36.6731 36.1002 26.2021 0.0000 0.0000 0.0000
# 2 36.1002 114.2728 57.6325 0.0000 0.0000 0.0000
# 3 26.2021 57.6325 84.5442 0.0000 0.0000 0.0000
# 4 0.0000 0.0000 0.0000 16.6200 0.0000 0.0000
# 5 0.0000 0.0000 0.0000 0.0000 17.2381 0.0000
# 6 0.0000 0.0000 0.0000 0.0000 0.0000 21.5298
#
#
#
# Elastic Compliance Matrix: (Units=1/GPa)
#
#
# Indices 1 2 3 4 5 6 
#
# 1 0.041466 -0.010086 -0.005976 0.000000 0.000000 0.000000
# 2 -0.010086 0.015789 -0.007637 0.000000 0.000000 0.000000
# 3 -0.005976 -0.007637 0.018886 0.000000 0.000000 0.000000
# 4 0.000000 0.000000 0.000000 0.060169 0.000000 0.000000
# 5 0.000000 0.000000 0.000000 0.000000 0.058011 0.000000
# 6 0.000000 0.000000 0.000000 0.000000 0.000000 0.046447
#
#
# Mechanical properties :
#
#
# Convention : Reuss Voigt Hill
#
# Bulk Modulus (GPa) = 34.79062 52.81774 43.80418
# Shear Modulus (GPa) = 16.79278 18.78126 17.78702
#
# Velocity S-wave (km/s) = 3.17470 3.35741 3.26733
# Velocity P-wave (km/s) = 5.85825 6.83593 6.36589
#
# Compressibility (1/GPa) = 0.02874338
#
# Stress axis : x y z
#
# Youngs Moduli (GPa) = 24.11630 63.33520 52.94795
#
# Poissons Ratio (x) = 0.63878 0.31641
# Poissons Ratio (y) = 0.24323 0.40438
# Poissons Ratio (z) = 0.14412 0.48371
#
# Static dielectric constant tensor:
#      x y z
#    x 3.020530 0.000000 0.000000 
#    y 0.000000 3.045680 0.000000 
#    z 0.000000 0.000000 3.827360 
# 
# 
# High freq. dielectric constant tensor:
#      x y z
#    x 1.625470 0.000000 0.000000 
#    y 0.000000 1.619130 0.000000 
#    z 0.000000 0.000000 1.644160 
# 
# From -- ./inp_files/60068.got.cif
#   From: 2010.03.12/outbox.cif.g09.slc.cpg/sg63_31_cif.got.tgz:60068.got - 2010.04.10 19:34:48.
