data_PCOD8255485
_publ_section_title
;
Structure prediction by ZEFSAII (Michael W. Deem and Ramdas Pophale) SiO2 
 PCOD8255485
Probable space group: C M C M
;
_chemical_formula_sum "Si O2"
_cell_formula_units_Z 104
_cell_length_a 9.960560
_cell_length_b 30.158782
_cell_length_c 19.302963
_cell_angle_alpha 90.000000
_cell_angle_beta 90.000000
_cell_angle_gamma 90.000000
_cell_volume 5798.578383
_symmetry_space_group_name_H-M "C M C M"
_symmetry_group_IT_number 63
_symmetry_cell_setting 'orthorhombic'
loop_
_space_group_symop_operation_xyz
x,y,z
-x,-y,1/2+z
x,-y,-z
-x,y,1/2-z
-x,-y,-z
x,y,1/2-z
-x,y,z
x,-y,1/2+z
1/2+x,1/2+y,z
1/2-x,1/2-y,1/2+z
1/2+x,1/2-y,-z
1/2-x,1/2+y,1/2-z
1/2-x,1/2-y,-z
1/2+x,1/2+y,1/2-z
1/2-x,1/2+y,z
1/2+x,1/2-y,1/2+z
loop_
_atom_site_type_symbol
_atom_site_label
_atom_site_fract_x
_atom_site_fract_y
_atom_site_fract_z
Si Si1 0.842750 0.475216 0.893394
Si Si2 0.353162 0.257069 0.250000
Si Si3 0.657659 0.065461 0.537249
Si Si4 0.151228 0.857304 0.030662
Si Si5 0.155707 0.437036 0.750000
Si Si6 0.243240 0.663076 0.250000
Si Si7 0.341215 0.734279 0.601921
Si Si8 0.850366 0.812654 0.604411
O O1 0.811782 0.527001 0.906692
O O2 0.778540 0.458380 0.820225
O O3 0.000000 0.466920 0.890281
O O4 0.790567 0.448215 0.960493
O O5 0.500000 0.277644 0.250000
O O6 0.363320 0.203155 0.250000
O O7 0.283614 0.274435 0.319943
O O8 0.500000 0.077165 0.536841
O O9 0.744044 0.107568 0.561412
O O10 0.190548 0.808796 0.058109
O O11 0.000000 0.870261 0.054014
O O12 0.162636 0.854571 0.947369
O O13 0.171307 0.384207 0.750000
O O14 0.000000 0.449235 0.750000
O O15 0.332720 0.668340 0.318630
O O16 0.500000 0.746542 0.601848
O O17 0.256515 0.776521 0.576435
O O18 0.000000 0.791921 0.598025
#
# Coordination Sequence:
#
# PCOD8255485 Si02
#       8
#    16   8  16  16   8   8  16  16
#     4   8  16  30  48  70  96 122 152 192 235 275
#     4   8  15  29  46  65  90 120 153 187 223 266
#     4   9  17  32  51  69  92 124 157 190 231 279
#     4  10  20  32  47  70  96 122 156 196 232 271
#     4  10  17  27  48  77 100 119 150 194 235 274
#     4  10  18  28  46  70  95 125 152 181 227 284
#     4   9  18  32  49  68  92 122 158 197 232 269
#     4  10  20  32  46  67  98 129 154 187 232 275
#
# _framework density 17.935431000000001
#
# number of rings (size 3 to 8) (size 9 to 14) (size 15 to 20)
#    0.000    2.769    0.000    2.769    0.000    1.846 
#    0.000    2.308    0.000    1.846    0.000    0.000 
#    0.000    0.000    0.000    0.000    0.000    0.000 
#
# Total GULP energy -644250.874987 kJ/mol
# GULP energy per Si atom -12389.439904 kJ/mol
# Density = 1.789461 g / cm^3
# Si number density = 17.935431 Si / 1000 Ang^3
#
#
#
# Elastic Constant Matrix: (Units=GPa)
#
#
# Indices 1 2 3 4 5 6 
#
# 1 59.7324 36.0846 13.0959 0.0000 0.0000 0.0000
# 2 36.0846 79.0832 36.9066 0.0000 0.0000 0.0000
# 3 13.0959 36.9066 88.5181 0.0000 0.0000 0.0000
# 4 0.0000 0.0000 0.0000 17.9781 0.0000 0.0000
# 5 0.0000 0.0000 0.0000 0.0000 16.3475 0.0000
# 6 0.0000 0.0000 0.0000 0.0000 0.0000 31.0739
#
#
#
# Elastic Compliance Matrix: (Units=1/GPa)
#
#
# Indices 1 2 3 4 5 6 
#
# 1 0.023218 -0.011163 0.001219 0.000000 0.000000 0.000000
# 2 -0.011163 0.021067 -0.007132 0.000000 0.000000 0.000000
# 3 0.001219 -0.007132 0.014090 0.000000 0.000000 0.000000
# 4 0.000000 0.000000 0.000000 0.055623 0.000000 0.000000
# 5 0.000000 0.000000 0.000000 0.000000 0.061172 0.000000
# 6 0.000000 0.000000 0.000000 0.000000 0.000000 0.032181
#
#
# Mechanical properties :
#
#
# Convention : Reuss Voigt Hill
#
# Bulk Modulus (GPa) = 41.28236 44.38977 42.83606
# Shear Modulus (GPa) = 20.03392 22.49632 21.26512
#
# Velocity S-wave (km/s) = 3.34578 3.54545 3.44706
# Velocity P-wave (km/s) = 6.16384 6.44699 6.30700
#
# Compressibility (1/GPa) = 0.02422342
#
# Stress axis : x y z
#
# Youngs Moduli (GPa) = 43.07086 47.46817 70.97059
#
# Poissons Ratio (x) = 0.52988 -0.08653
# Poissons Ratio (y) = 0.48079 0.50616
# Poissons Ratio (z) = -0.05252 0.33854
#
# Static dielectric constant tensor:
#      x y z
#    x 3.059390 0.000000 0.000000 
#    y 0.000000 3.074200 0.000000 
#    z 0.000000 0.000000 3.746890 
# 
# 
# High freq. dielectric constant tensor:
#      x y z
#    x 1.664880 0.000000 0.000000 
#    y 0.000000 1.675330 0.000000 
#    z 0.000000 0.000000 1.704190 
# 
# From -- ./inp_files/51728.got.cif
#   From: 2010.03.12/outbox.cif.g09.slc.cpg/sg63_26_cif.got.tgz:51728.got - 2010.04.10 19:34:48.
