data_PCOD8255864
_publ_section_title
;
Structure prediction by ZEFSAII (Michael W. Deem and Ramdas Pophale) SiO2 
 PCOD8255864
Probable space group: C M C M
;
_chemical_formula_sum "Si O2"
_cell_formula_units_Z 128
_cell_length_a 22.543190
_cell_length_b 19.068922
_cell_length_c 17.290811
_cell_angle_alpha 90.000000
_cell_angle_beta 90.000000
_cell_angle_gamma 90.000000
_cell_volume 7432.875824
_symmetry_space_group_name_H-M "C M C M"
_symmetry_group_IT_number 63
_symmetry_cell_setting 'orthorhombic'
loop_
_space_group_symop_operation_xyz
x,y,z
-x,-y,1/2+z
x,-y,-z
-x,y,1/2-z
-x,-y,-z
x,y,1/2-z
-x,y,z
x,-y,1/2+z
1/2+x,1/2+y,z
1/2-x,1/2-y,1/2+z
1/2+x,1/2-y,-z
1/2-x,1/2+y,1/2-z
1/2-x,1/2-y,-z
1/2+x,1/2+y,1/2-z
1/2-x,1/2+y,z
1/2+x,1/2-y,1/2+z
loop_
_atom_site_type_symbol
_atom_site_label
_atom_site_fract_x
_atom_site_fract_y
_atom_site_fract_z
Si Si1 0.257247 0.671604 0.585827
Si Si2 0.283794 0.119822 0.340919
Si Si3 0.148500 0.253148 0.662284
Si Si4 0.749329 0.986916 0.411709
Si Si5 0.627103 0.501199 0.339229
Si Si6 0.930869 0.852728 0.660130
Si Si7 0.682320 0.303691 0.573680
Si Si8 0.565005 0.360837 0.157348
O O1 0.293651 0.703082 0.657733
O O2 0.235786 0.593732 0.609151
O O3 0.302392 0.667857 0.512340
O O4 0.199991 0.721051 0.572317
O O5 0.285145 0.125507 0.250000
O O6 0.335447 0.171361 0.376418
O O7 0.220209 0.149207 0.367412
O O8 0.295255 0.039753 0.366682
O O9 0.131187 0.266373 0.750000
O O10 0.094644 0.210370 0.622906
O O11 0.736881 0.000000 0.500000
O O12 0.814924 0.012670 0.390270
O O13 0.646525 0.493987 0.250000
O O14 0.580955 0.564385 0.350552
O O15 0.598226 0.430044 0.371368
O O16 0.919123 0.831178 0.750000
O O17 0.886489 0.810788 0.601528
O O18 0.000000 0.837790 0.638485
O O19 0.564671 0.359967 0.250000
O O20 0.500000 0.362933 0.121805
#
# Coordination Sequence:
#
# PCOD8255864 Si02
#       8
#    16  16  16  16  16  16  16  16
#     4  10  20  32  50  70  98 131 166 206 260 302
#     4  10  19  31  48  68  94 125 161 204 247 294
#     4   9  18  31  47  68  93 125 163 204 244 290
#     4  12  20  30  47  72  97 130 162 200 251 305
#     4  10  18  29  45  67  97 131 166 200 234 286
#     4  10  19  32  51  73 100 137 176 208 243 294
#     4  10  19  34  50  70  98 131 168 210 250 304
#     4   9  16  27  44  65  90 121 157 196 237 281
#
# _framework density 17.220791999999999
#
# number of rings (size 3 to 8) (size 9 to 14) (size 15 to 20)
#    0.000    2.000    3.750    1.125    0.000    2.500 
#    0.000    0.625    0.000    1.500    0.000    0.875 
#    0.000    3.000    0.000    0.000    0.000    0.000 
#
# Total GULP energy -792919.014648 kJ/mol
# GULP energy per Si atom -12389.359604 kJ/mol
# Density = 1.718160 g / cm^3
# Si number density = 17.220792 Si / 1000 Ang^3
#
#
#
# Elastic Constant Matrix: (Units=GPa)
#
#
# Indices 1 2 3 4 5 6 
#
# 1 66.8591 37.8257 18.1748 0.0000 0.0000 0.0000
# 2 37.8257 123.9338 14.2606 0.0000 0.0000 0.0000
# 3 18.1748 14.2606 28.2629 0.0000 0.0000 0.0000
# 4 0.0000 0.0000 0.0000 21.6502 0.0000 0.0000
# 5 0.0000 0.0000 0.0000 0.0000 16.6222 0.0000
# 6 0.0000 0.0000 0.0000 0.0000 0.0000 20.9470
#
#
#
# Elastic Compliance Matrix: (Units=1/GPa)
#
#
# Indices 1 2 3 4 5 6 
#
# 1 0.020774 -0.005099 -0.010786 0.000000 0.000000 0.000000
# 2 -0.005099 0.009818 -0.001675 0.000000 0.000000 0.000000
# 3 -0.010786 -0.001675 0.043163 0.000000 0.000000 0.000000
# 4 0.000000 0.000000 0.000000 0.046189 0.000000 0.000000
# 5 0.000000 0.000000 0.000000 0.000000 0.060161 0.000000
# 6 0.000000 0.000000 0.000000 0.000000 0.000000 0.047740
#
#
# Mechanical properties :
#
#
# Convention : Reuss Voigt Hill
#
# Bulk Modulus (GPa) = 25.88324 39.95313 32.91819
# Shear Modulus (GPa) = 18.12632 21.76350 19.94491
#
# Velocity S-wave (km/s) = 3.24787 3.55884 3.40691
# Velocity P-wave (km/s) = 5.39702 6.33546 5.88497
#
# Compressibility (1/GPa) = 0.03863504
#
# Stress axis : x y z
#
# Youngs Moduli (GPa) = 48.13768 101.85525 23.16795
#
# Poissons Ratio (x) = 0.51938 0.24989
# Poissons Ratio (y) = 0.24547 0.03880
# Poissons Ratio (z) = 0.51921 0.17057
#
# Static dielectric constant tensor:
#      x y z
#    x 3.137620 0.000000 0.000000 
#    y 0.000000 3.759100 0.000000 
#    z 0.000000 0.000000 3.138220 
# 
# 
# High freq. dielectric constant tensor:
#      x y z
#    x 1.623250 0.000000 0.000000 
#    y 0.000000 1.667860 0.000000 
#    z 0.000000 0.000000 1.654400 
# 
# From -- ./inp_files/47516.got.cif
#   From: 2010.03.12/outbox.cif.g09.slc.cpg/sg63_24_cif.got.tgz:47516.got - 2010.04.10 19:34:48.
