data_PCOD8255778
_publ_section_title
;
Structure prediction by ZEFSAII (Michael W. Deem and Ramdas Pophale) SiO2 
 PCOD8255778
Probable space group: C M C M
;
_chemical_formula_sum "Si O2"
_cell_formula_units_Z 112
_cell_length_a 21.410586
_cell_length_b 17.762381
_cell_length_c 17.141895
_cell_angle_alpha 90.000000
_cell_angle_beta 90.000000
_cell_angle_gamma 90.000000
_cell_volume 6519.113854
_symmetry_space_group_name_H-M "C M C M"
_symmetry_group_IT_number 63
_symmetry_cell_setting 'orthorhombic'
loop_
_space_group_symop_operation_xyz
x,y,z
-x,-y,1/2+z
x,-y,-z
-x,y,1/2-z
-x,-y,-z
x,y,1/2-z
-x,y,z
x,-y,1/2+z
1/2+x,1/2+y,z
1/2-x,1/2-y,1/2+z
1/2+x,1/2-y,-z
1/2-x,1/2+y,1/2-z
1/2-x,1/2-y,-z
1/2+x,1/2+y,1/2-z
1/2-x,1/2+y,z
1/2+x,1/2-y,1/2+z
loop_
_atom_site_type_symbol
_atom_site_label
_atom_site_fract_x
_atom_site_fract_y
_atom_site_fract_z
Si Si1 0.118498 0.144756 0.658978
Si Si2 0.755022 0.776381 0.160498
Si Si3 0.877460 0.493425 0.838402
Si Si4 0.000000 0.766001 0.343498
Si Si5 0.000000 0.594818 0.342241
Si Si6 0.821089 0.987869 0.414492
Si Si7 0.270639 0.108126 0.385364
Si Si8 0.802764 0.605400 0.564149
O O1 0.109455 0.143041 0.750000
O O2 0.178253 0.192394 0.632859
O O3 0.059238 0.187956 0.622497
O O4 0.125504 0.057207 0.632530
O O5 0.741242 0.798401 0.250000
O O6 0.755848 0.688020 0.150530
O O7 0.701621 0.812756 0.105329
O O8 0.887720 0.525025 0.750000
O O9 0.938951 0.450768 0.870120
O O10 0.820744 0.434098 0.831908
O O11 0.862286 0.560563 0.900087
O O12 0.000000 0.763833 0.250000
O O13 0.000000 0.680275 0.376627
O O14 0.000000 0.601977 0.250000
O O15 0.797972 0.068437 0.381730
O O16 0.849035 0.000000 0.500000
O O17 0.757778 0.940700 0.411841
O O18 0.303151 0.112345 0.470940
#
# Coordination Sequence:
#
# PCOD8255778 Si02
#       8
#    16  16  16   8   8  16  16  16
#     4   9  17  28  44  64  88 114 142 176 219 266
#     4  10  18  28  45  69  91 117 151 187 225 269
#     4  10  18  30  47  67  91 120 154 192 230 276
#     4   9  16  28  43  64  91 115 141 179 225 268
#     4   9  18  30  47  70  93 117 151 195 234 264
#     4   8  16  29  43  61  87 116 144 175 215 264
#     4  10  18  29  45  67  93 120 149 186 229 273
#     4   9  18  31  44  63  93 124 149 180 230 281
#
# _framework density 17.180249
#
# number of rings (size 3 to 8) (size 9 to 14) (size 15 to 20)
#    0.000    2.714    0.000    3.429    0.000    6.286 
#    0.000    1.786    0.000    0.000    0.000    1.000 
#    0.000    3.429    0.000    0.000    0.000    0.286 
#
# Total GULP energy -693932.460682 kJ/mol
# GULP energy per Si atom -12391.651084 kJ/mol
# Density = 1.714115 g / cm^3
# Si number density = 17.180249 Si / 1000 Ang^3
#
#
#
# Elastic Constant Matrix: (Units=GPa)
#
#
# Indices 1 2 3 4 5 6 
#
# 1 73.1171 37.3150 18.0637 0.0000 0.0000 0.0000
# 2 37.3150 75.0521 12.3687 0.0000 0.0000 0.0000
# 3 18.0637 12.3687 34.2780 0.0000 0.0000 0.0000
# 4 0.0000 0.0000 0.0000 27.8978 0.0000 0.0000
# 5 0.0000 0.0000 0.0000 0.0000 12.2860 0.0000
# 6 0.0000 0.0000 0.0000 0.0000 0.0000 27.8123
#
#
#
# Elastic Compliance Matrix: (Units=1/GPa)
#
#
# Indices 1 2 3 4 5 6 
#
# 1 0.019936 -0.008698 -0.007367 0.000000 0.000000 0.000000
# 2 -0.008698 0.017961 -0.001898 0.000000 0.000000 0.000000
# 3 -0.007367 -0.001898 0.033740 0.000000 0.000000 0.000000
# 4 0.000000 0.000000 0.000000 0.035845 0.000000 0.000000
# 5 0.000000 0.000000 0.000000 0.000000 0.081394 0.000000
# 6 0.000000 0.000000 0.000000 0.000000 0.000000 0.035955
#
#
# Mechanical properties :
#
#
# Convention : Reuss Voigt Hill
#
# Bulk Modulus (GPa) = 28.00156 35.32689 31.66423
# Shear Modulus (GPa) = 18.33786 21.24587 19.79187
#
# Velocity S-wave (km/s) = 3.27062 3.52041 3.39781
# Velocity P-wave (km/s) = 5.53143 6.09357 5.81929
#
# Compressibility (1/GPa) = 0.03571230
#
# Stress axis : x y z
#
# Youngs Moduli (GPa) = 50.16166 55.67575 29.63815
#
# Poissons Ratio (x) = 0.48425 0.21835
# Poissons Ratio (y) = 0.43629 0.05624
# Poissons Ratio (z) = 0.36955 0.10565
#
# Static dielectric constant tensor:
#      x y z
#    x 3.124890 0.000000 0.000000 
#    y 0.000000 3.512920 0.000000 
#    z 0.000000 0.000000 3.132870 
# 
# 
# High freq. dielectric constant tensor:
#      x y z
#    x 1.626390 0.000000 0.000000 
#    y 0.000000 1.665930 0.000000 
#    z 0.000000 0.000000 1.649020 
# 
# From -- ./inp_files/56930.got.cif
#   From: 2010.03.12/outbox.cif.g09.slc.cpg/sg63_29_cif.got.tgz:56930.got - 2010.04.10 19:34:48.
