data_PCOD8255068
_publ_section_title
;
Structure prediction by ZEFSAII (Michael W. Deem and Ramdas Pophale) SiO2 
 PCOD8255068
Probable space group: P N M A
;
_chemical_formula_sum "Si O2"
_cell_formula_units_Z 64
_cell_length_a 20.505175
_cell_length_b 19.267848
_cell_length_c 8.785241
_cell_angle_alpha 90.000000
_cell_angle_beta 90.000000
_cell_angle_gamma 90.000000
_cell_volume 3470.966095
_symmetry_space_group_name_H-M "P N M A"
_symmetry_group_IT_number 62
_symmetry_cell_setting 'orthorhombic'
loop_
_space_group_symop_operation_xyz
x,y,z
1/2-x,-y,1/2+z
1/2+x,1/2-y,1/2-z
-x,1/2+y,-z
-x,-y,-z
1/2+x,y,1/2-z
1/2-x,1/2+y,1/2+z
x,1/2-y,z
loop_
_atom_site_type_symbol
_atom_site_label
_atom_site_fract_x
_atom_site_fract_y
_atom_site_fract_z
Si Si1 0.513989 0.171513 0.665679
Si Si2 0.689708 0.967722 0.315427
Si Si3 0.511137 0.328974 0.313031
Si Si4 0.636473 0.674715 0.683470
Si Si5 0.431031 0.541484 0.831586
Si Si6 0.133435 0.674883 0.177823
Si Si7 0.438870 0.540565 0.185986
Si Si8 0.183341 0.530924 0.825264
O O1 0.539680 0.250000 0.686937
O O2 0.516970 0.149389 0.489296
O O3 0.440860 0.164643 0.731714
O O4 0.559467 0.120847 0.763793
O O5 0.676970 0.888439 0.259533
O O6 0.759544 0.989551 0.254666
O O7 0.634046 0.017846 0.252898
O O8 0.692527 0.972211 0.495565
O O9 0.535013 0.250000 0.288951
O O10 0.436758 0.336985 0.254693
O O11 0.556292 0.378599 0.211759
O O12 0.663089 0.750000 0.742202
O O13 0.632688 0.676091 0.502894
O O14 0.682762 0.611158 0.735087
O O15 0.491510 0.494388 0.778356
O O16 0.419055 0.534971 0.010714
O O17 0.159786 0.750000 0.238115
O O18 0.385783 0.502363 0.287524
#
# Coordination Sequence:
#
# PCOD8255068 Si02
#       8
#     8   8   8   8   8   8   8   8
#     4   9  17  32  56  84 110 139 183 233 280 331
#     4  11  22  37  58  81 112 148 187 233 283 337
#     4   9  17  32  56  84 110 139 183 233 280 331
#     4   8  15  30  54  81 105 136 180 226 275 332
#     4  11  22  35  54  82 115 146 183 227 272 330
#     4   8  15  30  54  81 105 136 180 226 275 332
#     4  11  22  35  54  82 115 146 183 227 272 330
#     4  11  22  37  58  81 112 148 187 233 283 337
#
# _framework density 18.438670999999999
#
# number of rings (size 3 to 8) (size 9 to 14) (size 15 to 20)
#    0.000    2.250    2.500    3.000    0.000    1.500 
#    0.000    1.250    0.000    7.500    0.000    0.000 
#    0.000    0.000    0.000    0.000    0.000    0.000 
#
# Total GULP energy -793438.147739 kJ/mol
# GULP energy per Si atom -12397.471058 kJ/mol
# Density = 1.839670 g / cm^3
# Si number density = 18.438671 Si / 1000 Ang^3
#
#
#
# Elastic Constant Matrix: (Units=GPa)
#
#
# Indices 1 2 3 4 5 6 
#
# 1 39.8360 25.6876 14.1279 0.0000 0.0000 0.0000
# 2 25.6876 132.7817 25.8587 0.0000 0.0000 0.0000
# 3 14.1279 25.8587 46.0367 0.0000 0.0000 0.0000
# 4 0.0000 0.0000 0.0000 24.3180 0.0000 0.0000
# 5 0.0000 0.0000 0.0000 0.0000 27.5012 0.0000
# 6 0.0000 0.0000 0.0000 0.0000 0.0000 27.1974
#
#
#
# Elastic Compliance Matrix: (Units=1/GPa)
#
#
# Indices 1 2 3 4 5 6 
#
# 1 0.030455 -0.004572 -0.006778 0.000000 0.000000 0.000000
# 2 -0.004572 0.009142 -0.003732 0.000000 0.000000 0.000000
# 3 -0.006778 -0.003732 0.025898 0.000000 0.000000 0.000000
# 4 0.000000 0.000000 0.000000 0.041122 0.000000 0.000000
# 5 0.000000 0.000000 0.000000 0.000000 0.036362 0.000000
# 6 0.000000 0.000000 0.000000 0.000000 0.000000 0.036768
#
#
# Mechanical properties :
#
#
# Convention : Reuss Voigt Hill
#
# Bulk Modulus (GPa) = 28.30360 38.88923 33.59642
# Shear Modulus (GPa) = 22.55411 26.00199 24.27805
#
# Velocity S-wave (km/s) = 3.50122 3.75932 3.63256
# Velocity P-wave (km/s) = 5.63277 6.32299 5.98784
#
# Compressibility (1/GPa) = 0.03533119
#
# Stress axis : x y z
#
# Youngs Moduli (GPa) = 32.83558 109.38003 38.61252
#
# Poissons Ratio (x) = 0.50005 0.26172
# Poissons Ratio (y) = 0.15011 0.14411
# Poissons Ratio (z) = 0.22257 0.40824
#
# Static dielectric constant tensor:
#      x y z
#    x 3.126110 0.000000 0.000000 
#    y 0.000000 3.908580 0.000000 
#    z 0.000000 0.000000 3.132820 
# 
# 
# High freq. dielectric constant tensor:
#      x y z
#    x 1.683720 0.000000 0.000000 
#    y 0.000000 1.735370 0.000000 
#    z 0.000000 0.000000 1.695600 
# 
# From -- ./inp_files/8852.got.cif
#   From: 2010.03.12/outbox.cif.g09.slc.cpg/sg62_5_cif.got.tgz:8852.got - 2010.04.10 19:12:36.
