data_PCOD8255018
_publ_section_title
;
Structure prediction by ZEFSAII (Michael W. Deem and Ramdas Pophale) SiO2 
 PCOD8255018
Probable space group: P N M A
;
_chemical_formula_sum "Si O2"
_cell_formula_units_Z 56
_cell_length_a 9.394652
_cell_length_b 13.483758
_cell_length_c 22.472833
_cell_angle_alpha 90.000000
_cell_angle_beta 90.000000
_cell_angle_gamma 90.000000
_cell_volume 2846.750931
_symmetry_space_group_name_H-M "P N M A"
_symmetry_group_IT_number 62
_symmetry_cell_setting 'orthorhombic'
loop_
_space_group_symop_operation_xyz
x,y,z
1/2-x,-y,1/2+z
1/2+x,1/2-y,1/2-z
-x,1/2+y,-z
-x,-y,-z
1/2+x,y,1/2-z
1/2-x,1/2+y,1/2+z
x,1/2-y,z
loop_
_atom_site_type_symbol
_atom_site_label
_atom_site_fract_x
_atom_site_fract_y
_atom_site_fract_z
Si Si1 0.170025 0.854386 0.571589
Si Si2 0.082116 0.397895 0.498348
Si Si3 0.932720 0.513034 0.936604
Si Si4 0.689861 0.634752 0.601167
Si Si5 0.263831 0.863670 0.118732
Si Si6 0.631575 0.543115 0.810261
Si Si7 0.146913 0.366809 0.276789
O O1 0.248320 0.750000 0.584415
O O2 0.096550 0.897145 0.630105
O O3 0.041048 0.827168 0.526916
O O4 0.284901 0.932172 0.548428
O O5 0.219707 0.400982 0.455612
O O6 0.126896 0.362403 0.563635
O O7 0.000000 0.500000 0.500000
O O8 0.887750 0.411531 0.902498
O O9 0.040781 0.575056 0.895615
O O10 0.000000 0.500000 0.000000
O O11 0.653477 0.750000 0.594018
O O12 0.770748 0.612647 0.662126
O O13 0.238370 0.750000 0.140033
O O14 0.330607 0.928283 0.173474
O O15 0.489443 0.560068 0.771942
O O16 0.762048 0.597347 0.778802
O O17 0.106511 0.250000 0.270250
#
# Coordination Sequence:
#
# PCOD8255018 Si02
#       7
#     8   8   8   8   8   8   8
#     4  11  21  35  58  88 122 156 199 251 309 375
#     4  12  19  38  62  92 124 163 206 254 310 378
#     4  11  22  36  56  90 128 161 199 251 304 369
#     4  11  22  37  60  90 127 163 197 248 323 384
#     4  11  24  42  65  89 126 175 218 259 312 376
#     4  11  24  41  62  91 126 160 209 259 310 380
#     4  11  23  40  65  95 126 158 199 259 327 385
#
# _framework density 19.671548000000001
#
# number of rings (size 3 to 8) (size 9 to 14) (size 15 to 20)
#    0.000    0.857    5.714    3.000    4.000    0.571 
#    0.000    0.714    0.000    0.857    0.000    0.000 
#    0.000    0.000    0.000    0.000    0.000    0.000 
#
# Total GULP energy -693999.057056 kJ/mol
# GULP energy per Si atom -12392.840305 kJ/mol
# Density = 1.962677 g / cm^3
# Si number density = 19.671548 Si / 1000 Ang^3
#
#
#
# Elastic Constant Matrix: (Units=GPa)
#
#
# Indices 1 2 3 4 5 6 
#
# 1 124.6077 44.6748 29.2283 0.0000 0.0000 0.0000
# 2 44.6748 148.0291 33.8457 0.0000 0.0000 0.0000
# 3 29.2283 33.8457 39.3127 0.0000 0.0000 0.0000
# 4 0.0000 0.0000 0.0000 13.1125 0.0000 0.0000
# 5 0.0000 0.0000 0.0000 0.0000 34.9285 0.0000
# 6 0.0000 0.0000 0.0000 0.0000 0.0000 20.3502
#
#
#
# Elastic Compliance Matrix: (Units=1/GPa)
#
#
# Indices 1 2 3 4 5 6 
#
# 1 0.010033 -0.001646 -0.006042 0.000000 0.000000 0.000000
# 2 -0.001646 0.008681 -0.006250 0.000000 0.000000 0.000000
# 3 -0.006042 -0.006250 0.035310 0.000000 0.000000 0.000000
# 4 0.000000 0.000000 0.000000 0.076263 0.000000 0.000000
# 5 0.000000 0.000000 0.000000 0.000000 0.028630 0.000000
# 6 0.000000 0.000000 0.000000 0.000000 0.000000 0.049140
#
#
# Mechanical properties :
#
#
# Convention : Reuss Voigt Hill
#
# Bulk Modulus (GPa) = 38.24435 58.60524 48.42480
# Shear Modulus (GPa) = 20.43752 27.29161 23.86456
#
# Velocity S-wave (km/s) = 3.22675 3.72878 3.48681
# Velocity P-wave (km/s) = 5.77635 6.95664 6.39379
#
# Compressibility (1/GPa) = 0.02614765
#
# Stress axis : x y z
#
# Youngs Moduli (GPa) = 99.67502 115.18963 28.32083
#
# Poissons Ratio (x) = 0.18965 0.17110
# Poissons Ratio (y) = 0.16411 0.17700
# Poissons Ratio (z) = 0.60219 0.71993
#
# Static dielectric constant tensor:
#      x y z
#    x 4.417180 0.000000 0.000000 
#    y 0.000000 3.867400 0.000000 
#    z 0.000000 0.000000 3.787380 
# 
# 
# High freq. dielectric constant tensor:
#      x y z
#    x 1.775930 0.000000 0.000000 
#    y 0.000000 1.766910 0.000000 
#    z 0.000000 0.000000 1.755880 
# 
# From -- ./inp_files/26028.got.cif
#   From: 2010.03.12/outbox.cif.g09.slc.cpg/sg62_14_cif.got.tgz:26028.got - 2010.04.10 19:12:36.
