data_PCOD8255705
_publ_section_title
;
Structure prediction by ZEFSAII (Michael W. Deem and Ramdas Pophale) SiO2 
 PCOD8255705
Probable space group: C M C M
;
_chemical_formula_sum "Si O2"
_cell_formula_units_Z 128
_cell_length_a 22.061759
_cell_length_b 20.405460
_cell_length_c 17.909901
_cell_angle_alpha 90.000000
_cell_angle_beta 90.000000
_cell_angle_gamma 90.000000
_cell_volume 8062.685336
_symmetry_space_group_name_H-M "C M C M"
_symmetry_group_IT_number 63
_symmetry_cell_setting 'orthorhombic'
loop_
_space_group_symop_operation_xyz
x,y,z
-x,-y,1/2+z
x,-y,-z
-x,y,1/2-z
-x,-y,-z
x,y,1/2-z
-x,y,z
x,-y,1/2+z
1/2+x,1/2+y,z
1/2-x,1/2-y,1/2+z
1/2+x,1/2-y,-z
1/2-x,1/2+y,1/2-z
1/2-x,1/2-y,-z
1/2+x,1/2+y,1/2-z
1/2-x,1/2+y,z
1/2+x,1/2-y,1/2+z
loop_
_atom_site_type_symbol
_atom_site_label
_atom_site_fract_x
_atom_site_fract_y
_atom_site_fract_z
Si Si1 0.282794 0.354934 0.333118
Si Si2 0.431723 0.862152 0.916672
Si Si3 0.347027 0.215168 0.666623
Si Si4 0.243082 0.073971 0.525427
Si Si5 0.672485 0.760065 0.917007
Si Si6 0.122368 0.603354 0.565044
Si Si7 0.929686 0.507281 0.164175
Si Si8 0.797369 0.811797 0.933648
O O1 0.299573 0.379813 0.250000
O O2 0.218620 0.318585 0.333720
O O3 0.281804 0.416797 0.389881
O O4 0.332325 0.302661 0.362275
O O5 0.500000 0.837164 0.905033
O O6 0.388891 0.799882 0.906098
O O7 0.415605 0.917494 0.855778
O O8 0.426216 0.893807 0.998845
O O9 0.373971 0.219930 0.750000
O O10 0.388561 0.167446 0.616519
O O11 0.343485 0.289697 0.632802
O O12 0.311775 0.101166 0.524902
O O13 0.200626 0.114810 0.467135
O O14 0.238958 0.000000 0.500000
O O15 0.730688 0.804020 0.897658
O O16 0.684361 0.739601 0.002243
O O17 0.112887 0.538571 0.614087
O O18 0.912187 0.495446 0.250000
O O19 0.000000 0.490550 0.149012
#
# Coordination Sequence:
#
# PCOD8255705 Si02
#       8
#    16  16  16  16  16  16  16  16
#     4   8  16  28  44  63  86 112 148 186 224 276
#     4  11  20  30  46  67  89 119 160 198 228 267
#     4   9  16  27  46  67  85 112 150 194 235 269
#     4  10  18  27  45  66  91 119 148 183 230 273
#     4   9  15  28  46  64  81 115 149 189 228 265
#     4  11  18  30  47  63  86 120 164 196 226 264
#     4  10  22  35  42  56  89 130 167 203 235 259
#     4   9  15  29  46  63  86 112 150 184 226 282
#
# _framework density 15.875603999999999
#
# number of rings (size 3 to 8) (size 9 to 14) (size 15 to 20)
#    0.000    2.375    2.500    3.375    0.000    2.000 
#    0.000    0.625    0.000    0.000    0.000    0.000 
#    0.000    8.000    0.000    0.000    0.500    0.000 
#
# Total GULP energy -793047.528513 kJ/mol
# GULP energy per Si atom -12391.367633 kJ/mol
# Density = 1.583947 g / cm^3
# Si number density = 15.875604 Si / 1000 Ang^3
#
#
#
# Elastic Constant Matrix: (Units=GPa)
#
#
# Indices 1 2 3 4 5 6 
#
# 1 34.5569 15.4295 4.9829 0.0000 0.0000 0.0000
# 2 15.4295 57.7060 28.8391 0.0000 0.0000 0.0000
# 3 4.9829 28.8391 79.8458 0.0000 0.0000 0.0000
# 4 0.0000 0.0000 0.0000 24.1541 0.0000 0.0000
# 5 0.0000 0.0000 0.0000 0.0000 10.6412 0.0000
# 6 0.0000 0.0000 0.0000 0.0000 0.0000 21.8258
#
#
#
# Elastic Compliance Matrix: (Units=1/GPa)
#
#
# Indices 1 2 3 4 5 6 
#
# 1 0.032984 -0.009507 0.001375 0.000000 0.000000 0.000000
# 2 -0.009507 0.023886 -0.008034 0.000000 0.000000 0.000000
# 3 0.001375 -0.008034 0.015340 0.000000 0.000000 0.000000
# 4 0.000000 0.000000 0.000000 0.041401 0.000000 0.000000
# 5 0.000000 0.000000 0.000000 0.000000 0.093975 0.000000
# 6 0.000000 0.000000 0.000000 0.000000 0.000000 0.045817
#
#
# Mechanical properties :
#
#
# Convention : Reuss Voigt Hill
#
# Bulk Modulus (GPa) = 25.07553 30.06797 27.57175
# Shear Modulus (GPa) = 16.72088 19.51469 18.11779
#
# Velocity S-wave (km/s) = 3.24889 3.50983 3.38188
# Velocity P-wave (km/s) = 5.46837 5.95030 5.71442
#
# Compressibility (1/GPa) = 0.03987952
#
# Stress axis : x y z
#
# Youngs Moduli (GPa) = 30.31759 41.86511 65.18856
#
# Poissons Ratio (x) = 0.39800 -0.08965
# Poissons Ratio (y) = 0.28822 0.52373
# Poissons Ratio (z) = -0.04169 0.33635
#
# Static dielectric constant tensor:
#      x y z
#    x 2.674370 0.000000 0.000000 
#    y 0.000000 2.862620 0.000000 
#    z 0.000000 0.000000 3.252860 
# 
# 
# High freq. dielectric constant tensor:
#      x y z
#    x 1.559590 0.000000 0.000000 
#    y 0.000000 1.590920 0.000000 
#    z 0.000000 0.000000 1.620330 
# 
# From -- ./inp_files/47521.got.cif
#   From: 2010.03.12/outbox.cif.g09.slc.cpg/sg63_24_cif.got.tgz:47521.got - 2010.04.10 19:34:48.
