data_PCOD8255680
_publ_section_title
;
Structure prediction by ZEFSAII (Michael W. Deem and Ramdas Pophale) SiO2 
 PCOD8255680
Probable space group: C M C M
;
_chemical_formula_sum "Si O2"
_cell_formula_units_Z 80
_cell_length_a 14.589200
_cell_length_b 38.667462
_cell_length_c 9.241377
_cell_angle_alpha 90.000000
_cell_angle_beta 90.000000
_cell_angle_gamma 90.000000
_cell_volume 5213.313394
_symmetry_space_group_name_H-M "C M C M"
_symmetry_group_IT_number 63
_symmetry_cell_setting 'orthorhombic'
loop_
_space_group_symop_operation_xyz
x,y,z
-x,-y,1/2+z
x,-y,-z
-x,y,1/2-z
-x,-y,-z
x,y,1/2-z
-x,y,z
x,-y,1/2+z
1/2+x,1/2+y,z
1/2-x,1/2-y,1/2+z
1/2+x,1/2-y,-z
1/2-x,1/2+y,1/2-z
1/2-x,1/2-y,-z
1/2+x,1/2+y,1/2-z
1/2-x,1/2+y,z
1/2+x,1/2-y,1/2+z
loop_
_atom_site_type_symbol
_atom_site_label
_atom_site_fract_x
_atom_site_fract_y
_atom_site_fract_z
Si Si1 0.711616 0.331671 0.420974
Si Si2 0.099682 0.695618 0.921483
Si Si3 0.890985 0.032911 0.086641
Si Si4 0.393827 0.273195 0.585792
Si Si5 0.893650 0.100801 0.919052
O O1 0.700609 0.329249 0.250000
O O2 0.818942 0.330382 0.468911
O O3 0.661278 0.298834 0.484994
O O4 0.666487 0.367139 0.476841
O O5 0.092834 0.697595 0.750000
O O6 0.121677 0.734463 0.975763
O O7 0.000000 0.683134 0.982700
O O8 0.852244 0.032533 0.250000
O O9 0.000000 0.031125 0.088080
O O10 0.858381 0.067590 0.006580
O O11 0.851034 0.000000 0.000000
O O12 0.357702 0.276583 0.750000
O O13 0.500000 0.283245 0.578127
O O14 0.877947 0.093456 0.750000
O O15 0.000000 0.108916 0.951065
#
# Coordination Sequence:
#
# PCOD8255680 Si02
#       5
#    16  16  16  16  16
#     4  10  18  27  42  61  80 105 137 173 209 242
#     4   8  15  28  43  58  77 103 137 175 213 251
#     4   9  16  26  41  59  79 106 136 160 184 220
#     4   9  17  28  41  57  79 107 136 168 209 254
#     4   9  17  27  37  54  82 109 132 161 195 231
#
# _framework density 15.345326999999999
#
# number of rings (size 3 to 8) (size 9 to 14) (size 15 to 20)
#    0.000    3.000    0.000    3.000    0.000    4.400 
#    0.000    2.000    0.000    1.800    0.000    0.000 
#    0.000    0.800    0.000    1.400    0.000    2.000 
#
# Total GULP energy -495798.022952 kJ/mol
# GULP energy per Si atom -12394.950574 kJ/mol
# Density = 1.531040 g / cm^3
# Si number density = 15.345327 Si / 1000 Ang^3
#
#
#
# Elastic Constant Matrix: (Units=GPa)
#
#
# Indices 1 2 3 4 5 6 
#
# 1 74.4745 66.0061 26.6979 0.0000 0.0000 0.0000
# 2 66.0061 109.6200 36.6217 0.0000 0.0000 0.0000
# 3 26.6979 36.6217 42.8654 0.0000 0.0000 0.0000
# 4 0.0000 0.0000 0.0000 24.6883 0.0000 0.0000
# 5 0.0000 0.0000 0.0000 0.0000 11.2030 0.0000
# 6 0.0000 0.0000 0.0000 0.0000 0.0000 14.7941
#
#
#
# Elastic Compliance Matrix: (Units=1/GPa)
#
#
# Indices 1 2 3 4 5 6 
#
# 1 0.029390 -0.016207 -0.004458 0.000000 0.000000 0.000000
# 2 -0.016207 0.021704 -0.008448 0.000000 0.000000 0.000000
# 3 -0.004458 -0.008448 0.033323 0.000000 0.000000 0.000000
# 4 0.000000 0.000000 0.000000 0.040505 0.000000 0.000000
# 5 0.000000 0.000000 0.000000 0.000000 0.089262 0.000000
# 6 0.000000 0.000000 0.000000 0.000000 0.000000 0.067595
#
#
# Mechanical properties :
#
#
# Convention : Reuss Voigt Hill
#
# Bulk Modulus (GPa) = 38.18333 53.95681 46.07007
# Shear Modulus (GPa) = 14.33751 16.64604 15.49178
#
# Velocity S-wave (km/s) = 3.05999 3.29715 3.18078
# Velocity P-wave (km/s) = 6.11731 7.05216 6.60130
#
# Compressibility (1/GPa) = 0.02618944
#
# Stress axis : x y z
#
# Youngs Moduli (GPa) = 34.02503 46.07507 30.00921
#
# Poissons Ratio (x) = 0.74675 0.13380
# Poissons Ratio (y) = 0.55146 0.25352
# Poissons Ratio (z) = 0.15170 0.38924
#
# Static dielectric constant tensor:
#      x y z
#    x 3.035750 0.000000 0.000000 
#    y 0.000000 2.963510 0.000000 
#    z 0.000000 0.000000 2.834200 
# 
# 
# High freq. dielectric constant tensor:
#      x y z
#    x 1.559070 0.000000 0.000000 
#    y 0.000000 1.578180 0.000000 
#    z 0.000000 0.000000 1.575140 
# 
# From -- ./inp_files/19858.got.cif
#   From: 2010.03.12/outbox.cif.g09.slc.cpg/sg63_10_cif.got.tgz:19858.got - 2010.04.10 19:34:48.
