data_PCOD8255067
_publ_section_title
;
Structure prediction by ZEFSAII (Michael W. Deem and Ramdas Pophale) SiO2 
 PCOD8255067
Probable space group: P N M A
;
_chemical_formula_sum "Si O2"
_cell_formula_units_Z 64
_cell_length_a 11.532618
_cell_length_b 8.928292
_cell_length_c 33.239658
_cell_angle_alpha 90.000000
_cell_angle_beta 90.000000
_cell_angle_gamma 90.000000
_cell_volume 3422.573939
_symmetry_space_group_name_H-M "P N M A"
_symmetry_group_IT_number 62
_symmetry_cell_setting 'orthorhombic'
loop_
_space_group_symop_operation_xyz
x,y,z
1/2-x,-y,1/2+z
1/2+x,1/2-y,1/2-z
-x,1/2+y,-z
-x,-y,-z
1/2+x,y,1/2-z
1/2-x,1/2+y,1/2+z
x,1/2-y,z
loop_
_atom_site_type_symbol
_atom_site_label
_atom_site_fract_x
_atom_site_fract_y
_atom_site_fract_z
Si Si1 0.553895 0.573465 0.806254
Si Si2 0.911590 0.926648 0.445067
Si Si3 0.140559 0.076955 0.467031
Si Si4 0.538520 0.421193 0.359884
Si Si5 0.722396 0.426743 0.866594
Si Si6 0.185006 0.574005 0.326725
Si Si7 0.305588 0.421139 0.398769
Si Si8 0.114352 0.576267 0.783419
O O1 0.547563 0.750000 0.812537
O O2 0.666251 0.510182 0.828812
O O3 0.440469 0.499080 0.824347
O O4 0.563347 0.529762 0.759481
O O5 0.921257 0.750000 0.442840
O O6 0.850527 0.979749 0.486850
O O7 0.836566 0.986203 0.407709
O O8 0.040753 0.991620 0.442519
O O9 0.105537 0.250000 0.466634
O O10 0.263103 0.049054 0.444475
O O11 0.583187 0.250000 0.360042
O O12 0.642513 0.533589 0.368424
O O13 0.443423 0.447989 0.395138
O O14 0.481867 0.461310 0.316880
O O15 0.707283 0.250000 0.861411
O O16 0.170795 0.750000 0.322872
O O17 0.237955 0.533014 0.369752
O O18 0.268038 0.515596 0.291147
O O19 0.277808 0.250000 0.385394
O O20 0.148925 0.750000 0.784935
#
# Coordination Sequence:
#
# PCOD8255067 Si02
#       8
#     8   8   8   8   8   8   8   8
#     4  11  23  38  58  79 104 142 185 224 265 319
#     4   9  19  34  51  78 115 146 174 220 279 329
#     4   9  17  32  57  82 105 139 184 229 268 314
#     4   9  19  37  57  77 103 140 184 227 270 322
#     4  11  23  37  53  79 114 147 178 220 279 334
#     4  11  22  35  54  82 113 137 168 220 276 325
#     4   9  18  35  58  80 103 140 189 228 263 316
#     4   9  21  40  59  77 101 139 185 225 265 315
#
# _framework density 18.699377999999999
#
# number of rings (size 3 to 8) (size 9 to 14) (size 15 to 20)
#    0.000    2.250    0.000    3.375    1.750    6.500 
#    0.000    0.625    0.000    0.000    0.000    0.000 
#    0.000    0.000    0.000    0.000    0.000    0.000 
#
# Total GULP energy -793687.239176 kJ/mol
# GULP energy per Si atom -12401.363112 kJ/mol
# Density = 1.865682 g / cm^3
# Si number density = 18.699378 Si / 1000 Ang^3
#
#
#
# Elastic Constant Matrix: (Units=GPa)
#
#
# Indices 1 2 3 4 5 6 
#
# 1 99.4349 32.8168 41.6426 0.0000 0.0000 0.0000
# 2 32.8168 61.0587 28.1734 0.0000 0.0000 0.0000
# 3 41.6426 28.1734 93.2385 0.0000 0.0000 0.0000
# 4 0.0000 0.0000 0.0000 18.0654 0.0000 0.0000
# 5 0.0000 0.0000 0.0000 0.0000 21.8501 0.0000
# 6 0.0000 0.0000 0.0000 0.0000 0.0000 30.2973
#
#
#
# Elastic Compliance Matrix: (Units=1/GPa)
#
#
# Indices 1 2 3 4 5 6 
#
# 1 0.013690 -0.005272 -0.004521 0.000000 0.000000 0.000000
# 2 -0.005272 0.021061 -0.004009 0.000000 0.000000 0.000000
# 3 -0.004521 -0.004009 0.013956 0.000000 0.000000 0.000000
# 4 0.000000 0.000000 0.000000 0.055354 0.000000 0.000000
# 5 0.000000 0.000000 0.000000 0.000000 0.045766 0.000000
# 6 0.000000 0.000000 0.000000 0.000000 0.000000 0.033006
#
#
# Mechanical properties :
#
#
# Convention : Reuss Voigt Hill
#
# Bulk Modulus (GPa) = 47.38856 50.99973 49.19415
# Shear Modulus (GPa) = 22.99129 24.11585 23.55357
#
# Velocity S-wave (km/s) = 3.51026 3.59508 3.55292
# Velocity P-wave (km/s) = 6.46734 6.67574 6.57237
#
# Compressibility (1/GPa) = 0.02110214
#
# Stress axis : x y z
#
# Youngs Moduli (GPa) = 73.04489 47.48103 71.65329
#
# Poissons Ratio (x) = 0.25031 0.32398
# Poissons Ratio (y) = 0.38507 0.28729
# Poissons Ratio (z) = 0.33027 0.19037
#
# Static dielectric constant tensor:
#      x y z
#    x 3.381730 0.000000 0.000000 
#    y 0.000000 3.362250 0.000000 
#    z 0.000000 0.000000 3.650780 
# 
# 
# High freq. dielectric constant tensor:
#      x y z
#    x 1.720880 0.000000 0.000000 
#    y 0.000000 1.722500 0.000000 
#    z 0.000000 0.000000 1.727110 
# 
# From -- ./inp_files/32510.got.cif
#   From: 2010.03.12/outbox.cif.g09.slc.cpg/sg62_17_cif.got.tgz:32510.got - 2010.04.10 19:12:36.
