data_PCOD8255982
_publ_section_title
;
Structure prediction by ZEFSAII (Michael W. Deem and Ramdas Pophale) SiO2 
 PCOD8255982
Probable space group: C M C M
;
_chemical_formula_sum "Si O2"
_cell_formula_units_Z 120
_cell_length_a 18.546983
_cell_length_b 24.187645
_cell_length_c 14.710235
_cell_angle_alpha 90.000000
_cell_angle_beta 90.000000
_cell_angle_gamma 90.000000
_cell_volume 6599.126758
_symmetry_space_group_name_H-M "C M C M"
_symmetry_group_IT_number 63
_symmetry_cell_setting 'orthorhombic'
loop_
_space_group_symop_operation_xyz
x,y,z
-x,-y,1/2+z
x,-y,-z
-x,y,1/2-z
-x,-y,-z
x,y,1/2-z
-x,y,z
x,-y,1/2+z
1/2+x,1/2+y,z
1/2-x,1/2-y,1/2+z
1/2+x,1/2-y,-z
1/2-x,1/2+y,1/2-z
1/2-x,1/2-y,-z
1/2+x,1/2+y,1/2-z
1/2-x,1/2+y,z
1/2+x,1/2-y,1/2+z
loop_
_atom_site_type_symbol
_atom_site_label
_atom_site_fract_x
_atom_site_fract_y
_atom_site_fract_z
Si Si1 0.418988 0.522793 0.095490
Si Si2 0.189282 0.500000 0.000000
Si Si3 0.078208 0.241054 0.144008
Si Si4 0.847699 0.650038 0.643583
Si Si5 0.334760 0.368535 0.852413
Si Si6 0.277815 0.390819 0.467235
Si Si7 0.581818 0.405287 0.149657
Si Si8 0.083525 0.533838 0.855519
O O1 0.500000 0.544735 0.079805
O O2 0.374281 0.572927 0.136891
O O3 0.416140 0.471490 0.164180
O O4 0.386850 0.500000 0.000000
O O5 0.242985 0.450855 0.023915
O O6 0.135355 0.507204 0.086712
O O7 0.070583 0.252832 0.250000
O O8 0.119489 0.293687 0.101920
O O9 0.113819 0.182415 0.126270
O O10 0.000000 0.238779 0.097523
O O11 0.834347 0.654282 0.750000
O O12 0.769575 0.646112 0.598744
O O13 0.898612 0.597760 0.620066
O O14 0.302491 0.364521 0.750000
O O15 0.274528 0.365514 0.930791
O O16 0.359588 0.388614 0.427009
O O17 0.599573 0.380082 0.250000
O O18 0.500000 0.387629 0.119039
O O19 0.099167 0.521856 0.750000
O O20 0.000000 0.522654 0.879493
#
# Coordination Sequence:
#
# PCOD8255982 Si02
#       8
#    16   8  16  16  16  16  16  16
#     4  10  18  30  47  67  94 126 162 204 248 294
#     4  10  21  32  47  74 104 138 168 208 251 304
#     4   9  18  33  53  77 102 127 164 213 261 310
#     4   9  18  33  54  78 102 130 164 209 264 313
#     4  11  22  33  48  70  99 137 173 208 252 299
#     4  11  21  34  50  71 104 136 173 211 256 308
#     4  10  20  33  50  70  95 132 175 217 257 300
#     4   9  17  31  53  78 104 134 166 203 252 307
#
# _framework density 18.184224
#
# number of rings (size 3 to 8) (size 9 to 14) (size 15 to 20)
#    0.000    2.133    1.333    2.600    0.000    5.067 
#    0.000    0.000    0.000    0.000    0.000    0.000 
#    0.000    1.067    0.000    0.267    0.000    0.267 
#
# Total GULP energy -743369.707003 kJ/mol
# GULP energy per Si atom -12389.495117 kJ/mol
# Density = 1.814284 g / cm^3
# Si number density = 18.184224 Si / 1000 Ang^3
#
#
#
# Elastic Constant Matrix: (Units=GPa)
#
#
# Indices 1 2 3 4 5 6 
#
# 1 98.6202 13.6770 41.4030 0.0000 0.0000 0.0000
# 2 13.6770 39.6224 8.8272 0.0000 0.0000 0.0000
# 3 41.4030 8.8272 87.3548 0.0000 0.0000 0.0000
# 4 0.0000 0.0000 0.0000 15.8124 0.0000 0.0000
# 5 0.0000 0.0000 0.0000 0.0000 26.3705 0.0000
# 6 0.0000 0.0000 0.0000 0.0000 0.0000 29.1518
#
#
#
# Elastic Compliance Matrix: (Units=1/GPa)
#
#
# Indices 1 2 3 4 5 6 
#
# 1 0.013043 -0.003197 -0.005859 0.000000 0.000000 0.000000
# 2 -0.003197 0.026603 -0.001173 0.000000 0.000000 0.000000
# 3 -0.005859 -0.001173 0.014343 0.000000 0.000000 0.000000
# 4 0.000000 0.000000 0.000000 0.063242 0.000000 0.000000
# 5 0.000000 0.000000 0.000000 0.000000 0.037921 0.000000
# 6 0.000000 0.000000 0.000000 0.000000 0.000000 0.034303
#
#
# Mechanical properties :
#
#
# Convention : Reuss Voigt Hill
#
# Bulk Modulus (GPa) = 29.82275 39.26797 34.54536
# Shear Modulus (GPa) = 22.61526 25.04629 23.83078
#
# Velocity S-wave (km/s) = 3.53040 3.71531 3.62404
# Velocity P-wave (km/s) = 5.74928 6.32820 6.04568
#
# Compressibility (1/GPa) = 0.03353145
#
# Stress axis : x y z
#
# Youngs Moduli (GPa) = 76.66987 37.58960 69.72062
#
# Poissons Ratio (x) = 0.12017 0.40848
# Poissons Ratio (y) = 0.24511 0.08178
# Poissons Ratio (z) = 0.44919 0.04409
#
# Static dielectric constant tensor:
#      x y z
#    x 3.497840 0.000000 0.000000 
#    y 0.000000 3.214210 0.000000 
#    z 0.000000 0.000000 3.483640 
# 
# 
# High freq. dielectric constant tensor:
#      x y z
#    x 1.701490 0.000000 0.000000 
#    y 0.000000 1.677030 0.000000 
#    z 0.000000 0.000000 1.700410 
# 
# From -- ./inp_files/35851.got.cif
#   From: 2010.03.12/outbox.cif.g09.slc.cpg/sg63_18_cif.got.tgz:35851.got - 2010.04.10 19:34:48.
