data_PCOD8255981
_publ_section_title
;
Structure prediction by ZEFSAII (Michael W. Deem and Ramdas Pophale) SiO2 
 PCOD8255981
Probable space group: C M C M
;
_chemical_formula_sum "Si O2"
_cell_formula_units_Z 96
_cell_length_a 8.979776
_cell_length_b 27.587877
_cell_length_c 20.334544
_cell_angle_alpha 90.000000
_cell_angle_beta 90.000000
_cell_angle_gamma 90.000000
_cell_volume 5037.536689
_symmetry_space_group_name_H-M "C M C M"
_symmetry_group_IT_number 63
_symmetry_cell_setting 'orthorhombic'
loop_
_space_group_symop_operation_xyz
x,y,z
-x,-y,1/2+z
x,-y,-z
-x,y,1/2-z
-x,-y,-z
x,y,1/2-z
-x,y,z
x,-y,1/2+z
1/2+x,1/2+y,z
1/2-x,1/2-y,1/2+z
1/2+x,1/2-y,-z
1/2-x,1/2+y,1/2-z
1/2-x,1/2-y,-z
1/2+x,1/2+y,1/2-z
1/2-x,1/2+y,z
1/2+x,1/2-y,1/2+z
loop_
_atom_site_type_symbol
_atom_site_label
_atom_site_fract_x
_atom_site_fract_y
_atom_site_fract_z
Si Si1 0.176113 0.198157 0.001145
Si Si2 0.176807 0.124571 0.389052
Si Si3 0.176132 0.840137 0.361739
Si Si4 0.823228 0.768213 0.250000
Si Si5 0.822200 0.019584 0.430162
Si Si6 0.823444 0.163980 0.250000
Si Si7 0.322868 0.444628 0.323253
O O1 0.234887 0.167477 0.063488
O O2 0.000000 0.205094 0.003421
O O3 0.250000 0.250000 0.000000
O O4 0.226729 0.169882 0.935900
O O5 0.240774 0.073295 0.414897
O O6 0.230879 0.134715 0.314570
O O7 0.000000 0.122717 0.392053
O O8 0.233366 0.797515 0.314028
O O9 0.244084 0.891808 0.340325
O O10 0.000000 0.842862 0.355252
O O11 0.746733 0.716637 0.250000
O O12 0.000000 0.761059 0.250000
O O13 0.000000 0.020298 0.430297
O O14 0.762315 0.000000 0.500000
O O15 0.759185 0.984098 0.373853
O O16 0.000000 0.170066 0.250000
O O17 0.272681 0.459626 0.250000
O O18 0.500000 0.442912 0.328628
#
# Coordination Sequence:
#
# PCOD8255981 Si02
#       7
#    16  16  16   8  16   8  16
#     4  10  19  31  47  66  91 123 156 190 227 268
#     4   9  18  30  43  62  92 127 154 182 227 276
#     4   9  16  27  43  64  90 117 147 189 234 267
#     4  10  18  30  47  67  91 119 154 194 231 264
#     4   9  16  25  39  60  88 122 152 178 219 278
#     4  10  20  32  45  63  93 127 154 182 223 274
#     4   9  15  23  38  61  88 116 146 182 226 273
#
# _framework density 19.056933000000001
#
# number of rings (size 3 to 8) (size 9 to 14) (size 15 to 20)
#    0.000    2.667    0.833    2.000    1.167    4.000 
#    0.000    0.000    0.000    0.000    0.000    0.000 
#    0.000   16.000    0.000    0.000    0.000    0.000 
#
# Total GULP energy -595084.966269 kJ/mol
# GULP energy per Si atom -12397.603464 kJ/mol
# Density = 1.901356 g / cm^3
# Si number density = 19.056933 Si / 1000 Ang^3
#
#
#
# Elastic Constant Matrix: (Units=GPa)
#
#
# Indices 1 2 3 4 5 6 
#
# 1 6.7515 13.8170 15.4274 0.0000 0.0000 0.0000
# 2 13.8170 184.0645 102.9845 0.0000 0.0000 0.0000
# 3 15.4274 102.9845 198.9366 0.0000 0.0000 0.0000
# 4 0.0000 0.0000 0.0000 42.2565 0.0000 0.0000
# 5 0.0000 0.0000 0.0000 0.0000 7.0980 0.0000
# 6 0.0000 0.0000 0.0000 0.0000 0.0000 19.5006
#
#
#
# Elastic Compliance Matrix: (Units=1/GPa)
#
#
# Indices 1 2 3 4 5 6 
#
# 1 0.188854 -0.008422 -0.010286 0.000000 0.000000 0.000000
# 2 -0.008422 0.008024 -0.003501 0.000000 0.000000 0.000000
# 3 -0.010286 -0.003501 0.007637 0.000000 0.000000 0.000000
# 4 0.000000 0.000000 0.000000 0.023665 0.000000 0.000000
# 5 0.000000 0.000000 0.000000 0.000000 0.140884 0.000000
# 6 0.000000 0.000000 0.000000 0.000000 0.000000 0.051281
#
#
# Mechanical properties :
#
#
# Convention : Reuss Voigt Hill
#
# Bulk Modulus (GPa) = 6.24617 72.69004 39.46811
# Shear Modulus (GPa) = 9.65017 30.93926 20.29472
#
# Velocity S-wave (km/s) = 2.25274 4.03366 3.26690
# Velocity P-wave (km/s) = 3.17037 7.74082 5.91488
#
# Compressibility (1/GPa) = 0.16009803
#
# Stress axis : x y z
#
# Youngs Moduli (GPa) = 5.29510 124.63213 130.94973
#
# Poissons Ratio (x) = 1.04960 1.34692
# Poissons Ratio (y) = 0.04459 0.45839
# Poissons Ratio (z) = 0.05446 0.43628
#
# Static dielectric constant tensor:
#      x y z
#    x 2.711170 0.000000 0.000000 
#    y 0.000000 3.867380 0.000000 
#    z 0.000000 0.000000 3.631360 
# 
# 
# High freq. dielectric constant tensor:
#      x y z
#    x 1.652230 0.000000 0.000000 
#    y 0.000000 1.756440 0.000000 
#    z 0.000000 0.000000 1.763890 
# 
# From -- ./inp_files/53091.got.cif
#   From: 2010.03.12/outbox.cif.g09.slc.cpg/sg63_27_cif.got.tgz:53091.got - 2010.04.10 19:34:48.
