data_PCOD8255516
_publ_section_title
;
Structure prediction by ZEFSAII (Michael W. Deem and Ramdas Pophale) SiO2 
 PCOD8255516
Probable space group: C M C M
;
_chemical_formula_sum "Si O2"
_cell_formula_units_Z 120
_cell_length_a 20.759804
_cell_length_b 22.357030
_cell_length_c 13.609027
_cell_angle_alpha 90.000000
_cell_angle_beta 90.000000
_cell_angle_gamma 90.000000
_cell_volume 6316.324507
_symmetry_space_group_name_H-M "C M C M"
_symmetry_group_IT_number 63
_symmetry_cell_setting 'orthorhombic'
loop_
_space_group_symop_operation_xyz
x,y,z
-x,-y,1/2+z
x,-y,-z
-x,y,1/2-z
-x,-y,-z
x,y,1/2-z
-x,y,z
x,-y,1/2+z
1/2+x,1/2+y,z
1/2-x,1/2-y,1/2+z
1/2+x,1/2-y,-z
1/2-x,1/2+y,1/2-z
1/2-x,1/2-y,-z
1/2+x,1/2+y,1/2-z
1/2-x,1/2+y,z
1/2+x,1/2-y,1/2+z
loop_
_atom_site_type_symbol
_atom_site_label
_atom_site_fract_x
_atom_site_fract_y
_atom_site_fract_z
Si Si1 0.576290 0.979475 0.143106
Si Si2 0.648314 0.219743 0.464939
Si Si3 0.076379 0.402166 0.535801
Si Si4 0.315017 0.401119 0.137666
Si Si5 0.658483 0.500000 0.000000
Si Si6 0.425847 0.579956 0.137527
Si Si7 0.238548 0.718661 0.861786
Si Si8 0.426737 0.662444 0.537586
O O1 0.606250 0.966037 0.250000
O O2 0.500000 0.981036 0.145304
O O3 0.597254 0.925588 0.072115
O O4 0.598413 0.045404 0.109621
O O5 0.616821 0.156461 0.438026
O O6 0.708722 0.231761 0.393177
O O7 0.673230 0.223771 0.576602
O O8 0.593229 0.268897 0.451977
O O9 0.000000 0.388629 0.542056
O O10 0.312652 0.424194 0.250000
O O11 0.265870 0.347429 0.120211
O O12 0.387046 0.379038 0.112640
O O13 0.296456 0.452913 0.058990
O O14 0.614806 0.528159 0.085641
O O15 0.402359 0.590308 0.250000
O O16 0.500000 0.559658 0.136205
O O17 0.416380 0.641076 0.075299
O O18 0.219988 0.730598 0.750000
O O19 0.500000 0.656093 0.571022
#
# Coordination Sequence:
#
# PCOD8255516 Si02
#       8
#    16  16  16  16   8  16  16  16
#     4   8  15  29  46  68 104 140 161 185 231 290
#     4  10  19  33  54  74  94 126 166 207 244 287
#     4   9  17  29  49  77 103 128 160 197 240 291
#     4   9  18  33  51  71  98 130 164 202 242 288
#     4  10  17  28  48  70  90 122 165 204 240 282
#     4   9  17  28  41  62  95 128 155 187 231 287
#     4   9  20  37  52  68  94 129 167 207 249 288
#     4   9  18  31  48  74 104 128 153 193 246 296
#
# _framework density 18.998390000000001
#
# number of rings (size 3 to 8) (size 9 to 14) (size 15 to 20)
#    0.000    2.933    0.000    1.800    0.000    2.400 
#    0.000    1.333    0.000    7.200    0.000    0.000 
#    0.000    0.000    0.000    0.000    0.000    0.000 
#
# Total GULP energy -743757.210804 kJ/mol
# GULP energy per Si atom -12395.953513 kJ/mol
# Density = 1.895515 g / cm^3
# Si number density = 18.998390 Si / 1000 Ang^3
#
#
#
# Elastic Constant Matrix: (Units=GPa)
#
#
# Indices 1 2 3 4 5 6 
#
# 1 26.9531 4.1841 -6.1899 0.0000 0.0000 0.0000
# 2 4.1841 87.6574 11.1826 0.0000 0.0000 0.0000
# 3 -6.1899 11.1826 83.1941 0.0000 0.0000 0.0000
# 4 0.0000 0.0000 0.0000 21.6124 0.0000 0.0000
# 5 0.0000 0.0000 0.0000 0.0000 15.8890 0.0000
# 6 0.0000 0.0000 0.0000 0.0000 0.0000 12.5609
#
#
#
# Elastic Compliance Matrix: (Units=1/GPa)
#
#
# Indices 1 2 3 4 5 6 
#
# 1 0.038167 -0.002222 0.003138 0.000000 0.000000 0.000000
# 2 -0.002222 0.011736 -0.001743 0.000000 0.000000 0.000000
# 3 0.003138 -0.001743 0.012488 0.000000 0.000000 0.000000
# 4 0.000000 0.000000 0.000000 0.046270 0.000000 0.000000
# 5 0.000000 0.000000 0.000000 0.000000 0.062937 0.000000
# 6 0.000000 0.000000 0.000000 0.000000 0.000000 0.079612
#
#
# Mechanical properties :
#
#
# Convention : Reuss Voigt Hill
#
# Bulk Modulus (GPa) = 16.46406 24.01756 20.24081
# Shear Modulus (GPa) = 18.30768 22.58765 20.44766
#
# Velocity S-wave (km/s) = 3.10763 3.45182 3.28424
# Velocity P-wave (km/s) = 4.64342 5.34379 5.00587
#
# Compressibility (1/GPa) = 0.06073835
#
# Stress axis : x y z
#
# Youngs Moduli (GPa) = 26.20049 85.20458 80.07766
#
# Poissons Ratio (x) = 0.18934 -0.25132
# Poissons Ratio (y) = 0.05822 0.13957
# Poissons Ratio (z) = -0.08223 0.14850
#
# Static dielectric constant tensor:
#      x y z
#    x 3.146170 0.000000 0.000000 
#    y 0.000000 3.446170 0.000000 
#    z 0.000000 0.000000 3.836590 
# 
# 
# High freq. dielectric constant tensor:
#      x y z
#    x 1.711290 0.000000 0.000000 
#    y 0.000000 1.737000 0.000000 
#    z 0.000000 0.000000 1.741280 
# 
# From -- ./inp_files/37193.got.cif
#   From: 2010.03.12/outbox.cif.g09.slc.cpg/sg63_19_cif.got.tgz:37193.got - 2010.04.10 19:34:48.
