data_PCOD8255161
_publ_section_title
;
Structure prediction by ZEFSAII (Michael W. Deem and Ramdas Pophale) SiO2 
 PCOD8255161
Probable space group: P N M A
;
_chemical_formula_sum "Si O2"
_cell_formula_units_Z 40
_cell_length_a 18.329440
_cell_length_b 8.379638
_cell_length_c 12.075151
_cell_angle_alpha 90.000000
_cell_angle_beta 90.000000
_cell_angle_gamma 90.000000
_cell_volume 1854.671611
_symmetry_space_group_name_H-M "P N M A"
_symmetry_group_IT_number 62
_symmetry_cell_setting 'orthorhombic'
loop_
_space_group_symop_operation_xyz
x,y,z
1/2-x,-y,1/2+z
1/2+x,1/2-y,1/2-z
-x,1/2+y,-z
-x,-y,-z
1/2+x,y,1/2-z
1/2-x,1/2+y,1/2+z
x,1/2-y,z
loop_
_atom_site_type_symbol
_atom_site_label
_atom_site_fract_x
_atom_site_fract_y
_atom_site_fract_z
Si Si1 0.688439 0.434613 0.902554
Si Si2 0.071624 0.937159 0.440747
Si Si3 0.839668 0.934546 0.957580
Si Si4 0.963413 0.066217 0.807884
Si Si5 0.118892 0.564703 0.815606
O O1 0.709786 0.250000 0.902965
O O2 0.762166 0.536885 0.899554
O O3 0.639871 0.474400 0.796295
O O4 0.642391 0.474553 0.011999
O O5 0.079393 0.750000 0.462913
O O6 0.068339 0.979963 0.311695
O O7 0.000000 0.000000 0.500000
O O8 0.860638 0.750000 0.949553
O O9 0.901548 0.037448 0.898169
O O10 0.834354 0.990567 0.084579
O O11 0.987967 0.250000 0.811000
O O12 0.033053 0.958977 0.837316
O O13 0.137326 0.750000 0.804098
#
# Coordination Sequence:
#
# PCOD8255161 Si02
#       5
#     8   8   8   8   8
#     4  12  26  45  68  98 137 177 223 277 336 398
#     4  11  23  41  68  99 135 175 222 274 328 391
#     4  12  27  46  69  98 136 179 224 276 338 401
#     4  11  24  44  70 101 136 176 224 276 332 395
#     4  12  25  45  71  99 134 176 225 276 333 398
#
# _framework density 21.567160000000001
#
# number of rings (size 3 to 8) (size 9 to 14) (size 15 to 20)
#    0.000    0.400    2.000    7.200    2.800    2.400 
#    0.000    0.000    0.000    0.000    0.000    0.000 
#    0.000    0.000    0.000    0.000    0.000    0.000 
#
# Total GULP energy -496439.043419 kJ/mol
# GULP energy per Si atom -12410.976085 kJ/mol
# Density = 2.151807 g / cm^3
# Si number density = 21.567160 Si / 1000 Ang^3
#
#
#
# Elastic Constant Matrix: (Units=GPa)
#
#
# Indices 1 2 3 4 5 6 
#
# 1 102.9756 7.1361 18.9009 0.0000 0.0000 0.0000
# 2 7.1361 97.2639 30.9076 0.0000 0.0000 0.0000
# 3 18.9009 30.9076 83.9067 0.0000 0.0000 0.0000
# 4 0.0000 0.0000 0.0000 37.0786 0.0000 0.0000
# 5 0.0000 0.0000 0.0000 0.0000 35.0333 0.0000
# 6 0.0000 0.0000 0.0000 0.0000 0.0000 39.8938
#
#
#
# Elastic Compliance Matrix: (Units=1/GPa)
#
#
# Indices 1 2 3 4 5 6 
#
# 1 0.010130 -0.000021 -0.002274 0.000000 0.000000 0.000000
# 2 -0.000021 0.011644 -0.004285 0.000000 0.000000 0.000000
# 3 -0.002274 -0.004285 0.014009 0.000000 0.000000 0.000000
# 4 0.000000 0.000000 0.000000 0.026970 0.000000 0.000000
# 5 0.000000 0.000000 0.000000 0.000000 0.028544 0.000000
# 6 0.000000 0.000000 0.000000 0.000000 0.000000 0.025067
#
#
# Mechanical properties :
#
#
# Convention : Reuss Voigt Hill
#
# Bulk Modulus (GPa) = 44.20106 44.22616 44.21361
# Shear Modulus (GPa) = 36.47940 37.54792 37.01366
#
# Velocity S-wave (km/s) = 4.11717 4.17703 4.14720
# Velocity P-wave (km/s) = 6.56814 6.61923 6.59374
#
# Compressibility (1/GPa) = 0.02262389
#
# Stress axis : x y z
#
# Youngs Moduli (GPa) = 98.71765 85.87863 71.38473
#
# Poissons Ratio (x) = 0.00176 0.16235
# Poissons Ratio (y) = 0.00202 0.30586
# Poissons Ratio (z) = 0.22452 0.36796
#
# Static dielectric constant tensor:
#      x y z
#    x 3.915170 0.000000 0.000000 
#    y 0.000000 3.911210 0.000000 
#    z 0.000000 0.000000 4.127160 
# 
# 
# High freq. dielectric constant tensor:
#      x y z
#    x 1.851580 0.000000 0.000000 
#    y 0.000000 1.859450 0.000000 
#    z 0.000000 0.000000 1.859580 
# 
# From -- ./inp_files/13864.got.cif
#   From: 2010.03.12/outbox.cif.g09.slc.cpg/sg62_7_cif.got.tgz:13864.got - 2010.04.10 19:12:36.
