data_PCOD8255558
_publ_section_title
;
Structure prediction by ZEFSAII (Michael W. Deem and Ramdas Pophale) SiO2 
 PCOD8255558
Probable space group: C M C M
;
_chemical_formula_sum "Si O2"
_cell_formula_units_Z 96
_cell_length_a 14.221012
_cell_length_b 23.917119
_cell_length_c 15.278951
_cell_angle_alpha 90.000000
_cell_angle_beta 90.000000
_cell_angle_gamma 90.000000
_cell_volume 5196.762931
_symmetry_space_group_name_H-M "C M C M"
_symmetry_group_IT_number 63
_symmetry_cell_setting 'orthorhombic'
loop_
_space_group_symop_operation_xyz
x,y,z
-x,-y,1/2+z
x,-y,-z
-x,y,1/2-z
-x,-y,-z
x,y,1/2-z
-x,y,z
x,-y,1/2+z
1/2+x,1/2+y,z
1/2-x,1/2-y,1/2+z
1/2+x,1/2-y,-z
1/2-x,1/2+y,1/2-z
1/2-x,1/2-y,-z
1/2+x,1/2+y,1/2-z
1/2-x,1/2+y,z
1/2+x,1/2-y,1/2+z
loop_
_atom_site_type_symbol
_atom_site_label
_atom_site_fract_x
_atom_site_fract_y
_atom_site_fract_z
Si Si1 0.500000 0.263946 0.977493
Si Si2 0.500000 0.191132 0.349727
Si Si3 0.704667 0.565892 0.013709
Si Si4 0.298783 0.749234 0.407202
Si Si5 0.800048 0.360631 0.651901
Si Si6 0.500000 0.347785 0.111155
Si Si7 0.500000 0.564325 0.008289
Si Si8 0.703052 0.642620 0.654803
O O1 0.589153 0.248328 0.919425
O O2 0.500000 0.239549 0.077572
O O3 0.500000 0.328592 0.006935
O O4 0.500000 0.215903 0.250000
O O5 0.408375 0.153869 0.365660
O O6 0.719661 0.597314 0.920847
O O7 0.723041 0.500000 0.000000
O O8 0.776976 0.590152 0.084069
O O9 0.600346 0.580072 0.052804
O O10 0.250000 0.750000 0.500000
O O11 0.266976 0.693386 0.357800
O O12 0.271489 0.804482 0.354670
O O13 0.786586 0.383699 0.750000
O O14 0.403280 0.331596 0.158791
O O15 0.500000 0.414524 0.093355
O O16 0.500000 0.500000 0.000000
O O17 0.723827 0.615264 0.750000
#
# Coordination Sequence:
#
# PCOD8255558 Si02
#       8
#     8   8  16  16  16   8   8  16
#     4  12  20  32  54  78 112 147 180 217 269 327
#     4  10  20  34  55  81 107 138 185 234 276 321
#     4  10  20  37  57  80 110 147 186 227 276 329
#     4  12  20  36  55  80 113 146 177 217 273 329
#     4  11  22  38  58  83 111 145 186 230 278 329
#     4  10  17  29  50  79 103 134 181 230 269 306
#     4   8  16  31  52  74 104 143 180 217 264 322
#     4  11  21  34  54  81 111 142 182 228 274 323
#
# _framework density 18.473037999999999
#
# number of rings (size 3 to 8) (size 9 to 14) (size 15 to 20)
#    0.000    1.333    5.000    1.750    0.000    2.667 
#    0.000    3.333    0.000    3.000    0.000    0.000 
#    0.000    0.000    0.000    0.000    0.000    0.000 
#
# Total GULP energy -594719.637745 kJ/mol
# GULP energy per Si atom -12389.992453 kJ/mol
# Density = 1.843099 g / cm^3
# Si number density = 18.473038 Si / 1000 Ang^3
#
#
#
# Elastic Constant Matrix: (Units=GPa)
#
#
# Indices 1 2 3 4 5 6 
#
# 1 138.3404 41.7449 51.6662 0.0000 0.0000 0.0000
# 2 41.7449 102.6000 45.4089 0.0000 0.0000 0.0000
# 3 51.6662 45.4089 111.2563 0.0000 0.0000 0.0000
# 4 0.0000 0.0000 0.0000 15.8574 0.0000 0.0000
# 5 0.0000 0.0000 0.0000 0.0000 12.2348 0.0000
# 6 0.0000 0.0000 0.0000 0.0000 0.0000 23.5141
#
#
#
# Elastic Compliance Matrix: (Units=1/GPa)
#
#
# Indices 1 2 3 4 5 6 
#
# 1 0.009152 -0.002249 -0.003332 0.000000 0.000000 0.000000
# 2 -0.002249 0.012448 -0.004036 0.000000 0.000000 0.000000
# 3 -0.003332 -0.004036 0.012183 0.000000 0.000000 0.000000
# 4 0.000000 0.000000 0.000000 0.063062 0.000000 0.000000
# 5 0.000000 0.000000 0.000000 0.000000 0.081734 0.000000
# 6 0.000000 0.000000 0.000000 0.000000 0.000000 0.042528
#
#
# Mechanical properties :
#
#
# Convention : Reuss Voigt Hill
#
# Bulk Modulus (GPa) = 68.73660 69.98183 69.35922
# Shear Modulus (GPa) = 20.39239 24.54639 22.46939
#
# Velocity S-wave (km/s) = 3.32610 3.64918 3.49138
# Velocity P-wave (km/s) = 7.21391 7.46464 7.34035
#
# Compressibility (1/GPa) = 0.01454829
#
# Stress axis : x y z
#
# Youngs Moduli (GPa) = 109.27109 80.33458 82.08156
#
# Poissons Ratio (x) = 0.18066 0.27350
# Poissons Ratio (y) = 0.24573 0.33130
# Poissons Ratio (z) = 0.36410 0.32425
#
# Static dielectric constant tensor:
#      x y z
#    x 2.710490 0.000000 0.000000 
#    y 0.000000 3.379170 0.000000 
#    z 0.000000 0.000000 3.343610 
# 
# 
# High freq. dielectric constant tensor:
#      x y z
#    x 1.720550 0.000000 0.000000 
#    y 0.000000 1.706530 0.000000 
#    z 0.000000 0.000000 1.704900 
# 
# From -- ./inp_files/32015.got.cif
#   From: 2010.03.12/outbox.cif.g09.slc.cpg/sg63_17_cif.got.tgz:32015.got - 2010.04.10 19:34:48.
