data_PCOD8255196
_publ_section_title
;
Structure prediction by ZEFSAII (Michael W. Deem and Ramdas Pophale) SiO2 
 PCOD8255196
Probable space group: P N M A
;
_chemical_formula_sum "Si O2"
_cell_formula_units_Z 36
_cell_length_a 11.965812
_cell_length_b 18.177841
_cell_length_c 7.420047
_cell_angle_alpha 90.000000
_cell_angle_beta 90.000000
_cell_angle_gamma 90.000000
_cell_volume 1613.953923
_symmetry_space_group_name_H-M "P N M A"
_symmetry_group_IT_number 62
_symmetry_cell_setting 'orthorhombic'
loop_
_space_group_symop_operation_xyz
x,y,z
1/2-x,-y,1/2+z
1/2+x,1/2-y,1/2-z
-x,1/2+y,-z
-x,-y,-z
1/2+x,y,1/2-z
1/2-x,1/2+y,1/2+z
x,1/2-y,z
loop_
_atom_site_type_symbol
_atom_site_label
_atom_site_fract_x
_atom_site_fract_y
_atom_site_fract_z
Si Si1 0.771349 0.750000 0.097598
Si Si2 0.967478 0.010877 0.791922
Si Si3 0.475138 0.250000 0.483435
Si Si4 0.421328 0.894679 0.997877
Si Si5 0.453446 0.250000 0.071860
Si Si6 0.192130 0.866885 0.132188
O O1 0.748793 0.676324 0.206416
O O2 0.899440 0.750000 0.050189
O O3 0.681753 0.750000 0.934230
O O4 0.059601 0.054758 0.674535
O O5 0.952323 0.932826 0.692204
O O6 0.851239 0.055577 0.790839
O O7 0.000000 0.000000 0.000000
O O8 0.492538 0.250000 0.273325
O O9 0.411143 0.177076 0.545879
O O10 0.495358 0.821457 0.027154
O O11 0.289137 0.877926 0.983716
#
# Coordination Sequence:
#
# PCOD8255196 Si02
#       6
#     4   8   4   8   4   8
#     4  11  24  43  77  96 149 193 237 309 369 424
#     4  11  25  48  69 107 148 192 240 292 364 435
#     4  11  26  44  74 109 139 194 242 296 366 435
#     4  11  26  46  73 106 146 188 242 300 354 437
#     4  12  24  49  67 107 144 185 251 297 363 427
#     4  11  24  45  72 104 143 186 244 296 365 435
#
# _framework density 22.305471000000001
#
# number of rings (size 3 to 8) (size 9 to 14) (size 15 to 20)
#    0.000    0.889    2.222    4.000    9.333    0.000 
#    0.000    0.000    0.000    0.000    0.000    0.000 
#    0.000    0.000    0.000    0.000    0.000    0.000 
#
# Total GULP energy -446444.196084 kJ/mol
# GULP energy per Si atom -12401.227669 kJ/mol
# Density = 2.225470 g / cm^3
# Si number density = 22.305471 Si / 1000 Ang^3
#
#
#
# Elastic Constant Matrix: (Units=GPa)
#
#
# Indices 1 2 3 4 5 6 
#
# 1 189.5112 61.2012 46.6519 0.0000 0.0000 0.0000
# 2 61.2012 130.5683 44.8511 0.0000 0.0000 0.0000
# 3 46.6519 44.8511 140.0866 0.0000 0.0000 0.0000
# 4 0.0000 0.0000 0.0000 -0.0784 0.0000 0.0000
# 5 0.0000 0.0000 0.0000 0.0000 31.8703 0.0000
# 6 0.0000 0.0000 0.0000 0.0000 0.0000 59.6733
#
#
#
# Elastic Compliance Matrix: (Units=1/GPa)
#
#
# Indices 1 2 3 4 5 6 
#
# 1 0.006429 -0.002559 -0.001321 0.000000 0.000000 0.000000
# 2 -0.002559 0.009624 -0.002229 0.000000 0.000000 0.000000
# 3 -0.001321 -0.002229 0.008292 0.000000 0.000000 0.000000
# 4 0.000000 0.000000 0.000000-12.757432 0.000000 0.000000
# 5 0.000000 0.000000 0.000000 0.000000 0.031377 0.000000
# 6 0.000000 0.000000 0.000000 0.000000 0.000000 0.016758
#
#
# Mechanical properties :
#
#
# Convention : Reuss Voigt Hill
#
# Bulk Modulus (GPa) = 82.47222 85.06381 83.76802
# Shear Modulus (GPa) = -0.39467 38.79050 19.19791
#
# Velocity S-wave (km/s) = -0.42110 4.17473 2.93692
# Velocity P-wave (km/s) = 6.06777 7.83941 7.00979
#
# Compressibility (1/GPa) = 0.01212529
#
# Stress axis : x y z
#
# Youngs Moduli (GPa) = 155.55620 103.90535 120.59578
#
# Poissons Ratio (x) = 0.26593 0.15936
# Poissons Ratio (y) = 0.39812 0.26881
# Poissons Ratio (z) = 0.20556 0.23161
#
# Static dielectric constant tensor:
#      x y z
#    x 4.260020 0.000000 0.000000 
#    y 0.000000 4.264360 0.000000 
#    z 0.000000 0.000000 3.906740 
# 
# 
# High freq. dielectric constant tensor:
#      x y z
#    x 1.886550 0.000000 0.000000 
#    y 0.000000 1.890680 0.000000 
#    z 0.000000 0.000000 1.876490 
# 
# From -- ./inp_files/4214.got.cif
#   From: 2010.03.12/outbox.cif.g09.slc.cpg/sg62_3_cif.got.tgz:4214.got - 2010.04.10 19:12:36.
