data_PCOD8255973
_publ_section_title
;
Structure prediction by ZEFSAII (Michael W. Deem and Ramdas Pophale) SiO2 
 PCOD8255973
Probable space group: C M C M
;
_chemical_formula_sum "Si O2"
_cell_formula_units_Z 56
_cell_length_a 14.172396
_cell_length_b 24.180069
_cell_length_c 8.696030
_cell_angle_alpha 90.000000
_cell_angle_beta 90.000000
_cell_angle_gamma 90.000000
_cell_volume 2980.038287
_symmetry_space_group_name_H-M "C M C M"
_symmetry_group_IT_number 63
_symmetry_cell_setting 'orthorhombic'
loop_
_space_group_symop_operation_xyz
x,y,z
-x,-y,1/2+z
x,-y,-z
-x,y,1/2-z
-x,-y,-z
x,y,1/2-z
-x,y,z
x,-y,1/2+z
1/2+x,1/2+y,z
1/2-x,1/2-y,1/2+z
1/2+x,1/2-y,-z
1/2-x,1/2+y,1/2-z
1/2-x,1/2-y,-z
1/2+x,1/2+y,1/2-z
1/2-x,1/2+y,z
1/2+x,1/2-y,1/2+z
loop_
_atom_site_type_symbol
_atom_site_label
_atom_site_fract_x
_atom_site_fract_y
_atom_site_fract_z
Si Si1 0.608547 0.260486 0.428849
Si Si2 0.308614 0.440147 0.069630
Si Si3 0.240748 0.662146 0.072847
Si Si4 0.500000 0.439031 0.567113
O O1 0.621140 0.275809 0.250000
O O2 0.500000 0.261668 0.480419
O O3 0.665053 0.304570 0.528660
O O4 0.648698 0.199076 0.461386
O O5 0.318860 0.447629 0.250000
O O6 0.283837 0.500000 0.000000
O O7 0.229752 0.394725 0.025084
O O8 0.404360 0.412470 0.999196
O O9 0.247687 0.645423 0.250000
O O10 0.500000 0.500000 0.500000
O O11 0.500000 0.438129 0.750000
#
# Coordination Sequence:
#
# PCOD8255973 Si02
#       4
#    16  16  16   8
#     4   9  19  36  56  77 104 138 176 218 263 308
#     4  11  21  34  51  73 104 139 173 213 258 311
#     4  10  20  34  53  79 107 137 175 217 260 311
#     4  10  18  30  46  68  98 132 170 206 247 300
#
# _framework density 18.791705
#
# number of rings (size 3 to 8) (size 9 to 14) (size 15 to 20)
#    0.000    2.000    0.000    6.429    2.000    1.714 
#    0.000    0.000    0.000    0.857    0.000    0.000 
#    0.000    0.000    0.000    0.000    0.000    0.000 
#
# Total GULP energy -347137.991149 kJ/mol
# GULP energy per Si atom -12397.785398 kJ/mol
# Density = 1.874893 g / cm^3
# Si number density = 18.791705 Si / 1000 Ang^3
#
#
#
# Elastic Constant Matrix: (Units=GPa)
#
#
# Indices 1 2 3 4 5 6 
#
# 1 61.0606 9.6797 12.0816 0.0000 0.0000 0.0000
# 2 9.6797 84.4044 36.3727 0.0000 0.0000 0.0000
# 3 12.0816 36.3727 121.5889 0.0000 0.0000 0.0000
# 4 0.0000 0.0000 0.0000 35.4240 0.0000 0.0000
# 5 0.0000 0.0000 0.0000 0.0000 22.0408 0.0000
# 6 0.0000 0.0000 0.0000 0.0000 0.0000 21.5608
#
#
#
# Elastic Compliance Matrix: (Units=1/GPa)
#
#
# Indices 1 2 3 4 5 6 
#
# 1 0.016846 -0.001390 -0.001258 0.000000 0.000000 0.000000
# 2 -0.001390 0.013716 -0.003965 0.000000 0.000000 0.000000
# 3 -0.001258 -0.003965 0.009536 0.000000 0.000000 0.000000
# 4 0.000000 0.000000 0.000000 0.028229 0.000000 0.000000
# 5 0.000000 0.000000 0.000000 0.000000 0.045370 0.000000
# 6 0.000000 0.000000 0.000000 0.000000 0.000000 0.046380
#
#
# Mechanical properties :
#
#
# Convention : Reuss Voigt Hill
#
# Bulk Modulus (GPa) = 37.21352 42.59131 39.90241
# Shear Modulus (GPa) = 27.43318 29.73312 28.58315
#
# Velocity S-wave (km/s) = 3.82495 3.98206 3.90430
# Velocity P-wave (km/s) = 6.27321 6.62243 6.45018
#
# Compressibility (1/GPa) = 0.02687195
#
# Stress axis : x y z
#
# Youngs Moduli (GPa) = 59.35968 72.90911 104.87102
#
# Poissons Ratio (x) = 0.10133 0.13195
# Poissons Ratio (y) = 0.08250 0.41580
# Poissons Ratio (z) = 0.07469 0.28908
#
# Static dielectric constant tensor:
#      x y z
#    x 3.797180 0.000000 0.000000 
#    y 0.000000 3.498720 0.000000 
#    z 0.000000 0.000000 3.493020 
# 
# 
# High freq. dielectric constant tensor:
#      x y z
#    x 1.694740 0.000000 0.000000 
#    y 0.000000 1.736250 0.000000 
#    z 0.000000 0.000000 1.740640 
# 
# From -- ./inp_files/4152.got.cif
#   From: 2010.03.12/outbox.cif.g09.slc.cpg/sg63_3_cif.got.tgz:4152.got - 2010.04.10 19:34:48.
