data_PCOD8255472
_publ_section_title
;
Structure prediction by ZEFSAII (Michael W. Deem and Ramdas Pophale) SiO2 
 PCOD8255472
Probable space group: C M C M
;
_chemical_formula_sum "Si O2"
_cell_formula_units_Z 112
_cell_length_a 20.870457
_cell_length_b 17.448488
_cell_length_c 18.199700
_cell_angle_alpha 90.000000
_cell_angle_beta 90.000000
_cell_angle_gamma 90.000000
_cell_volume 6627.564870
_symmetry_space_group_name_H-M "C M C M"
_symmetry_group_IT_number 63
_symmetry_cell_setting 'orthorhombic'
loop_
_space_group_symop_operation_xyz
x,y,z
-x,-y,1/2+z
x,-y,-z
-x,y,1/2-z
-x,-y,-z
x,y,1/2-z
-x,y,z
x,-y,1/2+z
1/2+x,1/2+y,z
1/2-x,1/2-y,1/2+z
1/2+x,1/2-y,-z
1/2-x,1/2+y,1/2-z
1/2-x,1/2-y,-z
1/2+x,1/2+y,1/2-z
1/2-x,1/2+y,z
1/2+x,1/2-y,1/2+z
loop_
_atom_site_type_symbol
_atom_site_label
_atom_site_fract_x
_atom_site_fract_y
_atom_site_fract_z
Si Si1 0.926886 0.286902 0.837152
Si Si2 0.348095 0.072083 0.335645
Si Si3 0.704895 0.535673 0.575567
Si Si4 0.331193 0.699781 0.565075
Si Si5 0.174829 0.591881 0.663704
Si Si6 0.814097 0.743083 0.592268
Si Si7 0.204485 0.899070 0.663731
O O1 0.919650 0.277206 0.750000
O O2 0.902208 0.370270 0.865237
O O3 0.884405 0.222641 0.875846
O O4 0.000000 0.278063 0.862254
O O5 0.340630 0.084491 0.250000
O O6 0.277899 0.094467 0.367400
O O7 0.369098 0.983678 0.352320
O O8 0.733028 0.500000 0.500000
O O9 0.660319 0.608098 0.554710
O O10 0.757469 0.570607 0.629413
O O11 0.667772 0.468513 0.621099
O O12 0.261165 0.724282 0.592719
O O13 0.343450 0.741962 0.487726
O O14 0.183217 0.606597 0.750000
O O15 0.148044 0.669696 0.626381
O O16 0.825456 0.817271 0.643071
O O17 0.198317 0.912266 0.750000
#
# Coordination Sequence:
#
# PCOD8255472 Si02
#       7
#    16  16  16  16  16  16  16
#     4  10  20  34  54  75  98 136 181 219 256 299
#     4   8  15  28  44  65  95 126 159 205 252 285
#     4  10  18  29  43  67 101 135 169 195 251 315
#     4  10  20  31  47  71 104 132 163 209 258 308
#     4   9  18  28  44  69  99 134 169 204 247 305
#     4  10  18  28  46  73 101 137 163 197 263 316
#     4  10  17  27  45  69  99 133 165 200 245 309
#
# _framework density 16.899118000000001
#
# number of rings (size 3 to 8) (size 9 to 14) (size 15 to 20)
#    0.000    2.429    2.857    1.714    0.000    2.857 
#    0.000    0.000    0.000    2.143    0.000    0.000 
#    0.000    1.714    0.000    0.286    0.000    0.000 
#
# Total GULP energy -693791.186998 kJ/mol
# GULP energy per Si atom -12389.128339 kJ/mol
# Density = 1.686065 g / cm^3
# Si number density = 16.899118 Si / 1000 Ang^3
#
#
#
# Elastic Constant Matrix: (Units=GPa)
#
#
# Indices 1 2 3 4 5 6 
#
# 1 42.5227 18.3061 14.0738 0.0000 0.0000 0.0000
# 2 18.3061 135.9192 37.2991 0.0000 0.0000 0.0000
# 3 14.0738 37.2991 76.9989 0.0000 0.0000 0.0000
# 4 0.0000 0.0000 0.0000 36.3311 0.0000 0.0000
# 5 0.0000 0.0000 0.0000 0.0000 13.0501 0.0000
# 6 0.0000 0.0000 0.0000 0.0000 0.0000 9.9608
#
#
#
# Elastic Compliance Matrix: (Units=1/GPa)
#
#
# Indices 1 2 3 4 5 6 
#
# 1 0.025753 -0.002511 -0.003491 0.000000 0.000000 0.000000
# 2 -0.002511 0.008730 -0.003770 0.000000 0.000000 0.000000
# 3 -0.003491 -0.003770 0.015452 0.000000 0.000000 0.000000
# 4 0.000000 0.000000 0.000000 0.027525 0.000000 0.000000
# 5 0.000000 0.000000 0.000000 0.000000 0.076628 0.000000
# 6 0.000000 0.000000 0.000000 0.000000 0.000000 0.100394
#
#
# Mechanical properties :
#
#
# Convention : Reuss Voigt Hill
#
# Bulk Modulus (GPa) = 32.90396 43.86655 38.38526
# Shear Modulus (GPa) = 17.59608 24.25251 20.92430
#
# Velocity S-wave (km/s) = 3.23033 3.79243 3.52261
# Velocity P-wave (km/s) = 5.78156 6.72242 6.26966
#
# Compressibility (1/GPa) = 0.03039148
#
# Stress axis : x y z
#
# Youngs Moduli (GPa) = 38.83030 114.54729 64.71851
#
# Poissons Ratio (x) = 0.28757 0.22593
# Poissons Ratio (y) = 0.09748 0.24399
# Poissons Ratio (z) = 0.13556 0.43185
#
# Static dielectric constant tensor:
#      x y z
#    x 2.585740 0.000000 0.000000 
#    y 0.000000 3.868480 0.000000 
#    z 0.000000 0.000000 3.191360 
# 
# 
# High freq. dielectric constant tensor:
#      x y z
#    x 1.559810 0.000000 0.000000 
#    y 0.000000 1.680760 0.000000 
#    z 0.000000 0.000000 1.657990 
# 
# From -- ./inp_files/47347.got.cif
#   From: 2010.03.12/outbox.cif.g09.slc.cpg/sg63_24_cif.got.tgz:47347.got - 2010.04.10 19:34:48.
