data_PCOD8255779
_publ_section_title
;
Structure prediction by ZEFSAII (Michael W. Deem and Ramdas Pophale) SiO2 
 PCOD8255779
Probable space group: C M C M
;
_chemical_formula_sum "Si O2"
_cell_formula_units_Z 80
_cell_length_a 23.124896
_cell_length_b 13.487934
_cell_length_c 13.300955
_cell_angle_alpha 90.000000
_cell_angle_beta 90.000000
_cell_angle_gamma 90.000000
_cell_volume 4148.661916
_symmetry_space_group_name_H-M "C M C M"
_symmetry_group_IT_number 63
_symmetry_cell_setting 'orthorhombic'
loop_
_space_group_symop_operation_xyz
x,y,z
-x,-y,1/2+z
x,-y,-z
-x,y,1/2-z
-x,-y,-z
x,y,1/2-z
-x,y,z
x,-y,1/2+z
1/2+x,1/2+y,z
1/2-x,1/2-y,1/2+z
1/2+x,1/2-y,-z
1/2-x,1/2+y,1/2-z
1/2-x,1/2-y,-z
1/2+x,1/2+y,1/2-z
1/2-x,1/2+y,z
1/2+x,1/2-y,1/2+z
loop_
_atom_site_type_symbol
_atom_site_label
_atom_site_fract_x
_atom_site_fract_y
_atom_site_fract_z
Si Si1 0.065998 0.729694 0.046891
Si Si2 0.683984 0.275129 0.368094
Si Si3 0.272703 0.116889 0.511470
Si Si4 0.875728 0.324628 0.137655
Si Si5 0.936639 0.473779 0.859472
O O1 0.081334 0.744574 0.928963
O O2 0.000000 0.764329 0.072014
O O3 0.113944 0.781487 0.117317
O O4 0.074215 0.610696 0.058465
O O5 0.697724 0.290898 0.250000
O O6 0.712149 0.169739 0.404624
O O7 0.709448 0.361975 0.440804
O O8 0.311957 0.175678 0.592415
O O9 0.282551 0.000000 0.500000
O O10 0.876868 0.280844 0.250000
O O11 0.890759 0.440196 0.134567
O O12 0.932905 0.421164 0.750000
O O13 0.000000 0.521740 0.875138
#
# Coordination Sequence:
#
# PCOD8255779 Si02
#       5
#    16  16  16  16  16
#     4  10  19  30  45  68 100 135 171 215 261 305
#     4  10  21  36  54  78 105 136 179 223 266 323
#     4  10  21  36  54  77 107 139 174 220 271 319
#     4  10  18  28  45  70 100 135 170 203 250 317
#     4   9  16  25  39  62  93 128 164 201 246 306
#
# _framework density 19.283327
#
# number of rings (size 3 to 8) (size 9 to 14) (size 15 to 20)
#    0.000    2.200    0.000    4.800    0.000    7.200 
#    0.000    0.000    0.000    0.600    0.000    0.000 
#    0.000    0.000    0.000    0.000    0.000    0.000 
#
# Total GULP energy -495531.363882 kJ/mol
# GULP energy per Si atom -12388.284097 kJ/mol
# Density = 1.923944 g / cm^3
# Si number density = 19.283327 Si / 1000 Ang^3
#
#
#
# Elastic Constant Matrix: (Units=GPa)
#
#
# Indices 1 2 3 4 5 6 
#
# 1 106.3454 7.2421 22.8400 0.0000 0.0000 0.0000
# 2 7.2421 28.4776 9.9187 0.0000 0.0000 0.0000
# 3 22.8400 9.9187 124.1908 0.0000 0.0000 0.0000
# 4 0.0000 0.0000 0.0000 14.5621 0.0000 0.0000
# 5 0.0000 0.0000 0.0000 0.0000 20.0217 0.0000
# 6 0.0000 0.0000 0.0000 0.0000 0.0000 22.9968
#
#
#
# Elastic Compliance Matrix: (Units=1/GPa)
#
#
# Indices 1 2 3 4 5 6 
#
# 1 0.009893 -0.001936 -0.001665 0.000000 0.000000 0.000000
# 2 -0.001936 0.036499 -0.002559 0.000000 0.000000 0.000000
# 3 -0.001665 -0.002559 0.008563 0.000000 0.000000 0.000000
# 4 0.000000 0.000000 0.000000 0.068671 0.000000 0.000000
# 5 0.000000 0.000000 0.000000 0.000000 0.049946 0.000000
# 6 0.000000 0.000000 0.000000 0.000000 0.000000 0.043484
#
#
# Mechanical properties :
#
#
# Convention : Reuss Voigt Hill
#
# Bulk Modulus (GPa) = 23.45500 37.66838 30.56169
# Shear Modulus (GPa) = 20.52656 26.11699 23.32177
#
# Velocity S-wave (km/s) = 3.26616 3.68419 3.48145
# Velocity P-wave (km/s) = 5.13941 6.13793 5.66073
#
# Compressibility (1/GPa) = 0.04263483
#
# Stress axis : x y z
#
# Youngs Moduli (GPa) = 101.08458 27.39809 116.78607
#
# Poissons Ratio (x) = 0.05304 0.19442
# Poissons Ratio (y) = 0.19570 0.29885
# Poissons Ratio (z) = 0.16828 0.07011
#
# Static dielectric constant tensor:
#      x y z
#    x 3.734050 0.000000 0.000000 
#    y 0.000000 2.906320 0.000000 
#    z 0.000000 0.000000 3.846980 
# 
# 
# High freq. dielectric constant tensor:
#      x y z
#    x 1.760640 0.000000 0.000000 
#    y 0.000000 1.671600 0.000000 
#    z 0.000000 0.000000 1.769100 
# 
# From -- ./inp_files/35102.got.cif
#   From: 2010.03.12/outbox.cif.g09.slc.cpg/sg63_18_cif.got.tgz:35102.got - 2010.04.10 19:34:48.
