data_PCOD8255701
_publ_section_title
;
Structure prediction by ZEFSAII (Michael W. Deem and Ramdas Pophale) SiO2 
 PCOD8255701
Probable space group: C M C M
;
_chemical_formula_sum "Si O2"
_cell_formula_units_Z 80
_cell_length_a 9.022321
_cell_length_b 19.950652
_cell_length_c 25.751684
_cell_angle_alpha 90.000000
_cell_angle_beta 90.000000
_cell_angle_gamma 90.000000
_cell_volume 4635.333674
_symmetry_space_group_name_H-M "C M C M"
_symmetry_group_IT_number 63
_symmetry_cell_setting 'orthorhombic'
loop_
_space_group_symop_operation_xyz
x,y,z
-x,-y,1/2+z
x,-y,-z
-x,y,1/2-z
-x,-y,-z
x,y,1/2-z
-x,y,z
x,-y,1/2+z
1/2+x,1/2+y,z
1/2-x,1/2-y,1/2+z
1/2+x,1/2-y,-z
1/2-x,1/2+y,1/2-z
1/2-x,1/2-y,-z
1/2+x,1/2+y,1/2-z
1/2-x,1/2+y,z
1/2+x,1/2-y,1/2+z
loop_
_atom_site_type_symbol
_atom_site_label
_atom_site_fract_x
_atom_site_fract_y
_atom_site_fract_z
Si Si1 0.676092 0.074352 0.891704
Si Si2 0.676007 0.820702 0.191982
Si Si3 0.324465 0.568109 0.106598
Si Si4 0.676083 0.328708 0.692163
Si Si5 0.663147 0.920739 0.505190
O O1 0.500000 0.063186 0.887490
O O2 0.739825 0.126048 0.849158
O O3 0.716551 0.105290 0.948529
O O4 0.753840 0.003626 0.881976
O O5 0.728052 0.841175 0.250000
O O6 0.500000 0.821071 0.188937
O O7 0.734720 0.746034 0.178523
O O8 0.500000 0.561306 0.107558
O O9 0.262525 0.618302 0.150606
O O10 0.276812 0.598733 0.050740
O O11 0.730417 0.349193 0.750000
O O12 0.500000 0.328224 0.690568
O O13 0.500000 0.891833 0.518892
O O14 0.653023 0.000000 0.500000
#
# Coordination Sequence:
#
# PCOD8255701 Si02
#       5
#    16  16  16  16  16
#     4   9  17  29  46  67  88 112 144 180 217 253
#     4   8  14  27  47  66  84 111 148 183 210 247
#     4  10  18  27  44  68  90 113 143 178 213 254
#     4   8  15  28  44  63  88 116 144 175 214 257
#     4   8  15  28  43  60  87 119 144 171 212 257
#
# _framework density 17.258735999999999
#
# number of rings (size 3 to 8) (size 9 to 14) (size 15 to 20)
#    0.000    3.400    0.000    3.000    0.000    4.400 
#    0.000    1.000    0.000    4.200    0.000    5.600 
#    0.000    0.000    0.000    0.000    0.000    0.000 
#
# Total GULP energy -495653.663107 kJ/mol
# GULP energy per Si atom -12391.341578 kJ/mol
# Density = 1.721945 g / cm^3
# Si number density = 17.258736 Si / 1000 Ang^3
#
#
#
# Elastic Constant Matrix: (Units=GPa)
#
#
# Indices 1 2 3 4 5 6 
#
# 1 33.9690 28.7425 35.8555 0.0000 0.0000 0.0000
# 2 28.7425 95.5343 93.8307 0.0000 0.0000 0.0000
# 3 35.8555 93.8307 172.0889 0.0000 0.0000 0.0000
# 4 0.0000 0.0000 0.0000 18.0995 0.0000 0.0000
# 5 0.0000 0.0000 0.0000 0.0000 19.3459 0.0000
# 6 0.0000 0.0000 0.0000 0.0000 0.0000 12.9898
#
#
#
# Elastic Compliance Matrix: (Units=1/GPa)
#
#
# Indices 1 2 3 4 5 6 
#
# 1 0.040660 -0.008423 -0.003879 0.000000 0.000000 0.000000
# 2 -0.008423 0.024281 -0.011484 0.000000 0.000000 0.000000
# 3 -0.003879 -0.011484 0.012881 0.000000 0.000000 0.000000
# 4 0.000000 0.000000 0.000000 0.055250 0.000000 0.000000
# 5 0.000000 0.000000 0.000000 0.000000 0.051690 0.000000
# 6 0.000000 0.000000 0.000000 0.000000 0.000000 0.076983
#
#
# Mechanical properties :
#
#
# Convention : Reuss Voigt Hill
#
# Bulk Modulus (GPa) = 33.05851 68.71661 50.88756
# Shear Modulus (GPa) = 15.65428 19.63129 17.64278
#
# Velocity S-wave (km/s) = 3.01497 3.37630 3.20074
# Velocity P-wave (km/s) = 5.59610 7.42302 6.57333
#
# Compressibility (1/GPa) = 0.03024939
#
# Stress axis : x y z
#
# Youngs Moduli (GPa) = 24.59401 41.18455 77.63499
#
# Poissons Ratio (x) = 0.34691 0.30115
# Poissons Ratio (y) = 0.20716 0.89156
# Poissons Ratio (z) = 0.09540 0.47297
#
# Static dielectric constant tensor:
#      x y z
#    x 2.834740 0.000000 0.000000 
#    y 0.000000 3.205090 0.000000 
#    z 0.000000 0.000000 3.851730 
# 
# 
# High freq. dielectric constant tensor:
#      x y z
#    x 1.625690 0.000000 0.000000 
#    y 0.000000 1.642970 0.000000 
#    z 0.000000 0.000000 1.682560 
# 
# From -- ./inp_files/71578.got.cif
#   From: 2010.03.12/outbox.cif.g09.slc.cpg/sg63_36_cif.got.tgz:71578.got - 2010.04.10 19:34:48.
