data_PCOD8255077
_publ_section_title
;
Structure prediction by ZEFSAII (Michael W. Deem and Ramdas Pophale) SiO2 
 PCOD8255077
Probable space group: P N M A
;
_chemical_formula_sum "Si O2"
_cell_formula_units_Z 64
_cell_length_a 17.839921
_cell_length_b 19.004731
_cell_length_c 9.291675
_cell_angle_alpha 90.000000
_cell_angle_beta 90.000000
_cell_angle_gamma 90.000000
_cell_volume 3150.276435
_symmetry_space_group_name_H-M "P N M A"
_symmetry_group_IT_number 62
_symmetry_cell_setting 'orthorhombic'
loop_
_space_group_symop_operation_xyz
x,y,z
1/2-x,-y,1/2+z
1/2+x,1/2-y,1/2-z
-x,1/2+y,-z
-x,-y,-z
1/2+x,y,1/2-z
1/2-x,1/2+y,1/2+z
x,1/2-y,z
loop_
_atom_site_type_symbol
_atom_site_label
_atom_site_fract_x
_atom_site_fract_y
_atom_site_fract_z
Si Si1 0.580297 0.331683 0.201588
Si Si2 0.692424 0.403553 0.680752
Si Si3 0.649412 0.934764 0.071333
Si Si4 0.194570 0.410586 0.482829
Si Si5 0.554092 0.573830 0.801339
Si Si6 0.068968 0.169873 0.966001
Si Si7 0.966609 0.438821 0.797106
Si Si8 0.640917 0.549011 0.546586
O O1 0.564391 0.250000 0.179435
O O2 0.509881 0.374783 0.137550
O O3 0.584255 0.352538 0.369281
O O4 0.656123 0.350257 0.114292
O O5 0.777491 0.393165 0.626041
O O6 0.676009 0.401764 0.850149
O O7 0.648321 0.337915 0.613666
O O8 0.659547 0.476515 0.624395
O O9 0.580144 0.906512 0.165616
O O10 0.625994 0.922803 0.906412
O O11 0.664535 0.017754 0.088432
O O12 0.284587 0.405911 0.479416
O O13 0.521495 0.495512 0.775342
O O14 0.587424 0.597547 0.647005
O O15 0.040732 0.250000 0.955689
O O16 0.009348 0.120837 0.885240
O O17 0.904059 0.472781 0.902891
#
# Coordination Sequence:
#
# PCOD8255077 Si02
#       8
#     8   8   8   8   8   8   8   8
#     4  11  26  44  64  91 126 171 216 261 322 389
#     4  11  23  40  61  95 130 164 208 260 320 379
#     4  11  24  37  65 101 128 157 212 269 314 375
#     4  11  23  40  61  95 130 163 208 262 318 381
#     4  12  22  39  66  98 129 164 212 271 319 374
#     4  11  25  43  64  90 127 171 214 262 322 388
#     4  12  21  41  65  98 128 167 212 265 323 376
#     4  11  22  37  65  96 124 163 210 265 316 372
#
# _framework density 20.315678999999999
#
# number of rings (size 3 to 8) (size 9 to 14) (size 15 to 20)
#    0.000    0.750    6.250    1.500    3.500    0.500 
#    0.000    2.500    0.000    0.000    0.000    0.000 
#    0.000    0.000    0.000    0.000    0.000    0.000 
#
# Total GULP energy -793334.407790 kJ/mol
# GULP energy per Si atom -12395.850122 kJ/mol
# Density = 2.026944 g / cm^3
# Si number density = 20.315679 Si / 1000 Ang^3
#
#
#
# Elastic Constant Matrix: (Units=GPa)
#
#
# Indices 1 2 3 4 5 6 
#
# 1 107.2153 32.1799 40.9694 0.0000 0.0000 0.0000
# 2 32.1799 71.0788 25.1613 0.0000 0.0000 0.0000
# 3 40.9694 25.1613 103.4591 0.0000 0.0000 0.0000
# 4 0.0000 0.0000 0.0000 21.9873 0.0000 0.0000
# 5 0.0000 0.0000 0.0000 0.0000 53.0217 0.0000
# 6 0.0000 0.0000 0.0000 0.0000 0.0000 25.2106
#
#
#
# Elastic Compliance Matrix: (Units=1/GPa)
#
#
# Indices 1 2 3 4 5 6 
#
# 1 0.011991 -0.004101 -0.003751 0.000000 0.000000 0.000000
# 2 -0.004101 0.016797 -0.002461 0.000000 0.000000 0.000000
# 3 -0.003751 -0.002461 0.011750 0.000000 0.000000 0.000000
# 4 0.000000 0.000000 0.000000 0.045481 0.000000 0.000000
# 5 0.000000 0.000000 0.000000 0.000000 0.018860 0.000000
# 6 0.000000 0.000000 0.000000 0.000000 0.000000 0.039666
#
#
# Mechanical properties :
#
#
# Convention : Reuss Voigt Hill
#
# Bulk Modulus (GPa) = 50.22262 53.15274 51.68768
# Shear Modulus (GPa) = 29.10226 32.27343 30.68785
#
# Velocity S-wave (km/s) = 3.78895 3.99004 3.89080
# Velocity P-wave (km/s) = 6.62694 6.88821 6.75884
#
# Compressibility (1/GPa) = 0.01991135
#
# Stress axis : x y z
#
# Youngs Moduli (GPa) = 83.39367 59.53537 85.10921
#
# Poissons Ratio (x) = 0.24416 0.31926
# Poissons Ratio (y) = 0.34200 0.20945
# Poissons Ratio (z) = 0.31282 0.14652
#
# Static dielectric constant tensor:
#      x y z
#    x 4.151780 0.000000 0.000000 
#    y 0.000000 3.277440 0.000000 
#    z 0.000000 0.000000 3.882540 
# 
# 
# High freq. dielectric constant tensor:
#      x y z
#    x 1.811940 0.000000 0.000000 
#    y 0.000000 1.745150 0.000000 
#    z 0.000000 0.000000 1.813610 
# 
# From -- ./inp_files/8091.got.cif
#   From: 2010.03.12/outbox.cif.g09.slc.cpg/sg62_5_cif.got.tgz:8091.got - 2010.04.10 19:12:36.
