data_PCOD8255354
_publ_section_title
;
Structure prediction by ZEFSAII (Michael W. Deem and Ramdas Pophale) SiO2 
 PCOD8255354
Probable space group: C M C M
;
_chemical_formula_sum "Si O2"
_cell_formula_units_Z 80
_cell_length_a 17.890104
_cell_length_b 14.682536
_cell_length_c 16.366540
_cell_angle_alpha 90.000000
_cell_angle_beta 90.000000
_cell_angle_gamma 90.000000
_cell_volume 4299.033366
_symmetry_space_group_name_H-M "C M C M"
_symmetry_group_IT_number 63
_symmetry_cell_setting 'orthorhombic'
loop_
_space_group_symop_operation_xyz
x,y,z
-x,-y,1/2+z
x,-y,-z
-x,y,1/2-z
-x,-y,-z
x,y,1/2-z
-x,y,z
x,-y,1/2+z
1/2+x,1/2+y,z
1/2-x,1/2-y,1/2+z
1/2+x,1/2-y,-z
1/2-x,1/2+y,1/2-z
1/2-x,1/2-y,-z
1/2+x,1/2+y,1/2-z
1/2-x,1/2+y,z
1/2+x,1/2-y,1/2+z
loop_
_atom_site_type_symbol
_atom_site_label
_atom_site_fract_x
_atom_site_fract_y
_atom_site_fract_z
Si Si1 0.916152 0.726310 0.504185
Si Si2 0.320239 0.238080 0.659465
Si Si3 0.418576 0.574280 0.929937
Si Si4 0.739279 0.571288 0.608392
Si Si5 0.717616 0.122287 0.432158
O O1 0.889771 0.730540 0.598339
O O2 0.913524 0.826131 0.467576
O O3 0.865858 0.658254 0.449730
O O4 0.000000 0.686807 0.503079
O O5 0.348184 0.266458 0.750000
O O6 0.279532 0.140317 0.669174
O O7 0.259897 0.310030 0.627773
O O8 0.500000 0.562355 0.886101
O O9 0.348787 0.558419 0.867917
O O10 0.410238 0.500000 0.000000
O O11 0.785040 0.476766 0.610276
O O12 0.738077 0.616033 0.517582
#
# Coordination Sequence:
#
# PCOD8255354 Si02
#       5
#    16  16  16  16  16
#     4  10  19  34  55  78 104 136 180 225 263 305
#     4  11  21  33  50  77 113 144 172 210 268 331
#     4  10  16  26  51  82 104 126 162 219 273 303
#     4  10  17  33  54  76 103 135 184 228 250 308
#     4  10  18  34  55  76 101 136 184 226 259 300
#
# _framework density 18.608834000000002
#
# number of rings (size 3 to 8) (size 9 to 14) (size 15 to 20)
#    0.000    1.800    6.000    1.200    0.000    1.200 
#    0.000    8.000    0.000    2.400    0.000    0.000 
#    0.000    0.000    0.000    0.000    0.000    0.000 
#
# Total GULP energy -495776.825018 kJ/mol
# GULP energy per Si atom -12394.420625 kJ/mol
# Density = 1.856648 g / cm^3
# Si number density = 18.608834 Si / 1000 Ang^3
#
#
#
# Elastic Constant Matrix: (Units=GPa)
#
#
# Indices 1 2 3 4 5 6 
#
# 1 143.0389 43.6613 15.8050 0.0000 0.0000 0.0000
# 2 43.6613 101.7600 26.2407 0.0000 0.0000 0.0000
# 3 15.8050 26.2407 51.0843 0.0000 0.0000 0.0000
# 4 0.0000 0.0000 0.0000 10.9330 0.0000 0.0000
# 5 0.0000 0.0000 0.0000 0.0000 11.8138 0.0000
# 6 0.0000 0.0000 0.0000 0.0000 0.0000 33.6922
#
#
#
# Elastic Compliance Matrix: (Units=1/GPa)
#
#
# Indices 1 2 3 4 5 6 
#
# 1 0.008075 -0.003251 -0.000828 0.000000 0.000000 0.000000
# 2 -0.003251 0.012636 -0.005485 0.000000 0.000000 0.000000
# 3 -0.000828 -0.005485 0.022649 0.000000 0.000000 0.000000
# 4 0.000000 0.000000 0.000000 0.091466 0.000000 0.000000
# 5 0.000000 0.000000 0.000000 0.000000 0.084647 0.000000
# 6 0.000000 0.000000 0.000000 0.000000 0.000000 0.029681
#
#
# Mechanical properties :
#
#
# Convention : Reuss Voigt Hill
#
# Bulk Modulus (GPa) = 41.26836 51.92189 46.59513
# Shear Modulus (GPa) = 18.09232 25.29955 21.69593
#
# Velocity S-wave (km/s) = 3.12147 3.69120 3.41822
# Velocity P-wave (km/s) = 5.93433 6.79183 6.37751
#
# Compressibility (1/GPa) = 0.02423164
#
# Stress axis : x y z
#
# Youngs Moduli (GPa) = 123.83922 79.13650 44.15142
#
# Poissons Ratio (x) = 0.25728 0.03657
# Poissons Ratio (y) = 0.40261 0.24218
# Poissons Ratio (z) = 0.10258 0.43407
#
# Static dielectric constant tensor:
#      x y z
#    x 3.816020 0.000000 0.000000 
#    y 0.000000 3.959270 0.000000 
#    z 0.000000 0.000000 2.988560 
# 
# 
# High freq. dielectric constant tensor:
#      x y z
#    x 1.724400 0.000000 0.000000 
#    y 0.000000 1.737410 0.000000 
#    z 0.000000 0.000000 1.669280 
# 
# From -- ./inp_files/45428.got.cif
#   From: 2010.03.12/outbox.cif.g09.slc.cpg/sg63_23_cif.got.tgz:45428.got - 2010.04.10 19:34:48.
