data_PCOD8255241
_publ_section_title
;
Structure prediction by ZEFSAII (Michael W. Deem and Ramdas Pophale) SiO2 
 PCOD8255241
Probable space group: P N M A
;
_chemical_formula_sum "Si O2"
_cell_formula_units_Z 48
_cell_length_a 8.646852
_cell_length_b 17.068236
_cell_length_c 16.297301
_cell_angle_alpha 90.000000
_cell_angle_beta 90.000000
_cell_angle_gamma 90.000000
_cell_volume 2405.261787
_symmetry_space_group_name_H-M "P N M A"
_symmetry_group_IT_number 62
_symmetry_cell_setting 'orthorhombic'
loop_
_space_group_symop_operation_xyz
x,y,z
1/2-x,-y,1/2+z
1/2+x,1/2-y,1/2-z
-x,1/2+y,-z
-x,-y,-z
1/2+x,y,1/2-z
1/2-x,1/2+y,1/2+z
x,1/2-y,z
loop_
_atom_site_type_symbol
_atom_site_label
_atom_site_fract_x
_atom_site_fract_y
_atom_site_fract_z
Si Si1 0.061336 0.159591 0.656754
Si Si2 0.568817 0.841532 0.845282
Si Si3 0.365883 0.422724 0.714265
Si Si4 0.906214 0.420355 0.512428
Si Si5 0.738877 0.418278 0.202681
Si Si6 0.593434 0.019611 0.581335
O O1 0.108408 0.250000 0.662354
O O2 0.924185 0.140796 0.720244
O O3 0.009019 0.140166 0.564474
O O4 0.204559 0.104282 0.677455
O O5 0.591220 0.750000 0.855593
O O6 0.389126 0.861477 0.835105
O O7 0.666570 0.870377 0.768788
O O8 0.636081 0.883763 0.925251
O O9 0.344275 0.505809 0.758909
O O10 0.488942 0.427671 0.640865
O O11 0.746634 0.432504 0.559997
O O12 0.000000 0.500000 0.500000
O O13 0.856215 0.440997 0.129414
O O14 0.500000 0.000000 0.500000
#
# Coordination Sequence:
#
# PCOD8255241 Si02
#       6
#     8   8   8   8   8   8
#     4  12  24  41  65 100 137 176 221 285 350 397
#     4  12  26  43  66  99 137 176 220 285 345 391
#     4  12  22  43  68  97 131 177 231 277 329 419
#     4  12  23  44  69  96 133 178 228 280 333 419
#     4  12  22  44  70  96 130 177 231 273 326 414
#     4  12  24  40  69 102 125 171 236 282 326 396
#
# _framework density 19.956247999999999
#
# number of rings (size 3 to 8) (size 9 to 14) (size 15 to 20)
#    0.000    0.000    6.667    4.500    0.000    0.000 
#    0.000    2.500    0.000    0.000    0.000    0.000 
#    0.000    0.000    0.000    0.000    0.000    0.000 
#
# Total GULP energy -595540.719570 kJ/mol
# GULP energy per Si atom -12407.098324 kJ/mol
# Density = 1.991083 g / cm^3
# Si number density = 19.956248 Si / 1000 Ang^3
#
#
#
# Elastic Constant Matrix: (Units=GPa)
#
#
# Indices 1 2 3 4 5 6 
#
# 1 83.5530 16.8163 26.9326 0.0000 0.0000 0.0000
# 2 16.8163 108.2212 38.9244 0.0000 0.0000 0.0000
# 3 26.9326 38.9244 112.2440 0.0000 0.0000 0.0000
# 4 0.0000 0.0000 0.0000 32.6495 0.0000 0.0000
# 5 0.0000 0.0000 0.0000 0.0000 52.3430 0.0000
# 6 0.0000 0.0000 0.0000 0.0000 0.0000 27.9261
#
#
#
# Elastic Compliance Matrix: (Units=1/GPa)
#
#
# Indices 1 2 3 4 5 6 
#
# 1 0.013072 -0.001032 -0.002779 0.000000 0.000000 0.000000
# 2 -0.001032 0.010639 -0.003442 0.000000 0.000000 0.000000
# 3 -0.002779 -0.003442 0.010769 0.000000 0.000000 0.000000
# 4 0.000000 0.000000 0.000000 0.030628 0.000000 0.000000
# 5 0.000000 0.000000 0.000000 0.000000 0.019105 0.000000
# 6 0.000000 0.000000 0.000000 0.000000 0.000000 0.035809
#
#
# Mechanical properties :
#
#
# Convention : Reuss Voigt Hill
#
# Bulk Modulus (GPa) = 50.06164 52.15165 51.10665
# Shear Modulus (GPa) = 35.41463 37.34005 36.37734
#
# Velocity S-wave (km/s) = 4.21719 4.33031 4.27412
# Velocity P-wave (km/s) = 6.98949 7.15485 7.07265
#
# Compressibility (1/GPa) = 0.01997538
#
# Stress axis : x y z
#
# Youngs Moduli (GPa) = 76.50046 93.99779 92.85539
#
# Poissons Ratio (x) = 0.09698 0.25802
# Poissons Ratio (y) = 0.07893 0.31958
# Poissons Ratio (z) = 0.21257 0.32351
#
# Static dielectric constant tensor:
#      x y z
#    x 3.854150 0.000000 0.000000 
#    y 0.000000 3.517270 0.000000 
#    z 0.000000 0.000000 3.826040 
# 
# 
# High freq. dielectric constant tensor:
#      x y z
#    x 1.793590 0.000000 0.000000 
#    y 0.000000 1.764660 0.000000 
#    z 0.000000 0.000000 1.801140 
# 
# From -- ./inp_files/16940.got.cif
#   From: 2010.03.12/outbox.cif.g09.slc.cpg/sg62_9_cif.got.tgz:16940.got - 2010.04.10 19:12:36.
