data_PCOD8255047
_publ_section_title
;
Structure prediction by ZEFSAII (Michael W. Deem and Ramdas Pophale) SiO2 
 PCOD8255047
Probable space group: P N M A
;
_chemical_formula_sum "Si O2"
_cell_formula_units_Z 64
_cell_length_a 13.969128
_cell_length_b 23.437295
_cell_length_c 9.522567
_cell_angle_alpha 90.000000
_cell_angle_beta 90.000000
_cell_angle_gamma 90.000000
_cell_volume 3117.674855
_symmetry_space_group_name_H-M "P N M A"
_symmetry_group_IT_number 62
_symmetry_cell_setting 'orthorhombic'
loop_
_space_group_symop_operation_xyz
x,y,z
1/2-x,-y,1/2+z
1/2+x,1/2-y,1/2-z
-x,1/2+y,-z
-x,-y,-z
1/2+x,y,1/2-z
1/2-x,1/2+y,1/2+z
x,1/2-y,z
loop_
_atom_site_type_symbol
_atom_site_label
_atom_site_fract_x
_atom_site_fract_y
_atom_site_fract_z
Si Si1 0.438434 0.391014 0.337707
Si Si2 0.255563 0.380008 0.961543
Si Si3 0.652871 0.996447 0.084663
Si Si4 0.946939 0.511051 0.309381
Si Si5 0.449636 0.614727 0.378165
Si Si6 0.447227 0.683740 0.864455
Si Si7 0.440776 0.316794 0.856006
Si Si8 0.230030 0.109498 0.290393
O O1 0.449067 0.445942 0.239140
O O2 0.498057 0.398812 0.477446
O O3 0.478035 0.337258 0.251985
O O4 0.327604 0.381664 0.378062
O O5 0.271421 0.445208 0.913191
O O6 0.153436 0.356225 0.906935
O O7 0.336273 0.339629 0.896167
O O8 0.255380 0.377880 0.129636
O O9 0.691283 0.045302 0.188565
O O10 0.551222 0.971252 0.133844
O O11 0.635241 0.020096 0.927129
O O12 0.923952 0.553241 0.183913
O O13 0.516540 0.654136 0.282813
O O14 0.431712 0.750000 0.839503
O O15 0.345431 0.653797 0.850355
O O16 0.486299 0.669727 0.018570
O O17 0.431204 0.250000 0.826152
#
# Coordination Sequence:
#
# PCOD8255047 Si02
#       8
#     8   8   8   8   8   8   8   8
#     4  12  24  44  67 103 139 178 226 288 339 414
#     4  12  24  44  69 103 136 183 227 278 351 409
#     4  11  22  38  68 100 135 182 229 270 335 422
#     4  11  21  41  68  94 143 182 218 277 347 406
#     4  12  26  42  68 107 140 175 226 291 346 408
#     4  11  24  46  72  96 129 181 236 281 336 406
#     4  11  26  49  73  97 135 185 235 285 347 412
#     4  12  24  42  70 103 140 179 233 280 341 405
#
# _framework density 20.528120000000001
#
# number of rings (size 3 to 8) (size 9 to 14) (size 15 to 20)
#    0.000    0.500    6.250    1.875    0.000    5.000 
#    0.000    1.250    0.000    0.000    0.000    0.000 
#    0.000    0.000    0.000    0.000    0.000    0.000 
#
# Total GULP energy -793879.495877 kJ/mol
# GULP energy per Si atom -12404.367123 kJ/mol
# Density = 2.048140 g / cm^3
# Si number density = 20.528120 Si / 1000 Ang^3
#
#
#
# Elastic Constant Matrix: (Units=GPa)
#
#
# Indices 1 2 3 4 5 6 
#
# 1 142.5206 34.5532 27.8527 0.0000 0.0000 0.0000
# 2 34.5532 67.3207 24.1835 0.0000 0.0000 0.0000
# 3 27.8527 24.1835 78.1039 0.0000 0.0000 0.0000
# 4 0.0000 0.0000 0.0000 19.4152 0.0000 0.0000
# 5 0.0000 0.0000 0.0000 0.0000 28.1694 0.0000
# 6 0.0000 0.0000 0.0000 0.0000 0.0000 25.0771
#
#
#
# Elastic Compliance Matrix: (Units=1/GPa)
#
#
# Indices 1 2 3 4 5 6 
#
# 1 0.008241 -0.003571 -0.001833 0.000000 0.000000 0.000000
# 2 -0.003571 0.018261 -0.004381 0.000000 0.000000 0.000000
# 3 -0.001833 -0.004381 0.014814 0.000000 0.000000 0.000000
# 4 0.000000 0.000000 0.000000 0.051506 0.000000 0.000000
# 5 0.000000 0.000000 0.000000 0.000000 0.035500 0.000000
# 6 0.000000 0.000000 0.000000 0.000000 0.000000 0.039877
#
#
# Mechanical properties :
#
#
# Convention : Reuss Voigt Hill
#
# Bulk Modulus (GPa) = 45.98658 51.23600 48.61129
# Shear Modulus (GPa) = 25.63899 27.95604 26.79751
#
# Velocity S-wave (km/s) = 3.53791 3.69432 3.61696
# Velocity P-wave (km/s) = 6.25615 6.57346 6.41677
#
# Compressibility (1/GPa) = 0.02174548
#
# Stress axis : x y z
#
# Youngs Moduli (GPa) = 121.35136 54.76192 67.50598
#
# Poissons Ratio (x) = 0.19556 0.12373
# Poissons Ratio (y) = 0.43336 0.29572
# Poissons Ratio (z) = 0.22243 0.23989
#
# Static dielectric constant tensor:
#      x y z
#    x 4.044470 0.000000 0.000000 
#    y 0.000000 3.591920 0.000000 
#    z 0.000000 0.000000 3.793210 
# 
# 
# High freq. dielectric constant tensor:
#      x y z
#    x 1.821090 0.000000 0.000000 
#    y 0.000000 1.794830 0.000000 
#    z 0.000000 0.000000 1.806510 
# 
# From -- ./inp_files/6970.got.cif
#   From: 2010.03.12/outbox.cif.g09.slc.cpg/sg62_4_cif.got.tgz:6970.got - 2010.04.10 19:12:36.
