data_PCOD8255743
_publ_section_title
;
Structure prediction by ZEFSAII (Michael W. Deem and Ramdas Pophale) SiO2 
 PCOD8255743
Probable space group: C M C M
;
_chemical_formula_sum "Si O2"
_cell_formula_units_Z 96
_cell_length_a 9.113625
_cell_length_b 23.077188
_cell_length_c 27.008525
_cell_angle_alpha 90.000000
_cell_angle_beta 90.000000
_cell_angle_gamma 90.000000
_cell_volume 5680.347563
_symmetry_space_group_name_H-M "C M C M"
_symmetry_group_IT_number 63
_symmetry_cell_setting 'orthorhombic'
loop_
_space_group_symop_operation_xyz
x,y,z
-x,-y,1/2+z
x,-y,-z
-x,y,1/2-z
-x,-y,-z
x,y,1/2-z
-x,y,z
x,-y,1/2+z
1/2+x,1/2+y,z
1/2-x,1/2-y,1/2+z
1/2+x,1/2-y,-z
1/2-x,1/2+y,1/2-z
1/2-x,1/2-y,-z
1/2+x,1/2+y,1/2-z
1/2-x,1/2+y,z
1/2+x,1/2-y,1/2+z
loop_
_atom_site_type_symbol
_atom_site_label
_atom_site_fract_x
_atom_site_fract_y
_atom_site_fract_z
Si Si1 0.172035 0.732380 0.349569
Si Si2 0.670550 0.098936 0.155233
Si Si3 0.672223 0.531316 0.072551
Si Si4 0.664050 0.399452 0.750000
Si Si5 0.666701 0.738213 0.250000
Si Si6 0.324697 0.284700 0.044917
Si Si7 0.170936 0.086892 0.970805
O O1 0.212756 0.665105 0.356617
O O2 0.253314 0.759134 0.300919
O O3 0.223946 0.762058 0.400803
O O4 0.000000 0.741679 0.340364
O O5 0.500000 0.092382 0.164666
O O6 0.721512 0.056733 0.112816
O O7 0.753839 0.075376 0.202917
O O8 0.500000 0.543165 0.083149
O O9 0.704089 0.462262 0.070249
O O10 0.727195 0.563089 0.023035
O O11 0.500000 0.423468 0.750000
O O12 0.670478 0.330538 0.750000
O O13 0.500000 0.761921 0.250000
O O14 0.500000 0.279647 0.038845
O O15 0.262131 0.350533 0.042573
O O16 0.250000 0.250000 0.000000
O O17 0.000000 0.096209 0.975462
#
# Coordination Sequence:
#
# PCOD8255743 Si02
#       7
#    16  16  16   8   8  16  16
#     4   9  18  30  45  66  95 125 150 181 229 280
#     4  10  18  28  43  67  95 119 143 180 228 271
#     4   9  16  29  48  66  86 118 155 189 221 260
#     4   9  17  29  45  66  89 116 149 184 220 265
#     4   9  17  29  47  68  89 116 155 194 226 263
#     4  10  19  31  47  69  96 125 154 188 229 276
#     4   8  16  30  47  66  89 118 155 191 221 257
#
# _framework density 16.900373999999999
#
# number of rings (size 3 to 8) (size 9 to 14) (size 15 to 20)
#    0.000    2.833    0.000    3.000    0.000    3.333 
#    0.000    2.500    0.000    1.000    0.000    3.500 
#    0.000    0.000    0.000    0.000    0.000    0.000 
#
# Total GULP energy -594861.335648 kJ/mol
# GULP energy per Si atom -12392.944493 kJ/mol
# Density = 1.686191 g / cm^3
# Si number density = 16.900374 Si / 1000 Ang^3
#
#
#
# Elastic Constant Matrix: (Units=GPa)
#
#
# Indices 1 2 3 4 5 6 
#
# 1 60.8052 31.3492 48.3283 0.0000 0.0000 0.0000
# 2 31.3492 90.0888 54.5973 0.0000 0.0000 0.0000
# 3 48.3283 54.5973 131.0333 0.0000 0.0000 0.0000
# 4 0.0000 0.0000 0.0000 14.5603 0.0000 0.0000
# 5 0.0000 0.0000 0.0000 0.0000 31.7276 0.0000
# 6 0.0000 0.0000 0.0000 0.0000 0.0000 16.5223
#
#
#
# Elastic Compliance Matrix: (Units=1/GPa)
#
#
# Indices 1 2 3 4 5 6 
#
# 1 0.024323 -0.004050 -0.007283 0.000000 0.000000 0.000000
# 2 -0.004050 0.015524 -0.004975 0.000000 0.000000 0.000000
# 3 -0.007283 -0.004975 0.012391 0.000000 0.000000 0.000000
# 4 0.000000 0.000000 0.000000 0.068680 0.000000 0.000000
# 5 0.000000 0.000000 0.000000 0.000000 0.031518 0.000000
# 6 0.000000 0.000000 0.000000 0.000000 0.000000 0.060524
#
#
# Mechanical properties :
#
#
# Convention : Reuss Voigt Hill
#
# Bulk Modulus (GPa) = 50.96369 61.16412 56.06391
# Shear Modulus (GPa) = 19.83202 22.40552 21.11877
#
# Velocity S-wave (km/s) = 3.42931 3.64502 3.53881
# Velocity P-wave (km/s) = 6.77503 7.34741 7.06702
#
# Compressibility (1/GPa) = 0.01962181
#
# Stress axis : x y z
#
# Youngs Moduli (GPa) = 41.11365 64.41487 80.70505
#
# Poissons Ratio (x) = 0.26087 0.58781
# Poissons Ratio (y) = 0.16650 0.40149
# Poissons Ratio (z) = 0.29945 0.32045
#
# Static dielectric constant tensor:
#      x y z
#    x 3.032850 0.000000 0.000000 
#    y 0.000000 3.325060 0.000000 
#    z 0.000000 0.000000 2.464120 
# 
# 
# High freq. dielectric constant tensor:
#      x y z
#    x 1.638620 0.000000 0.000000 
#    y 0.000000 1.626800 0.000000 
#    z 0.000000 0.000000 1.657510 
# 
# From -- ./inp_files/67268.got.cif
#   From: 2010.03.12/outbox.cif.g09.slc.cpg/sg63_34_cif.got.tgz:67268.got - 2010.04.10 19:34:48.
