data_PCOD8255030
_publ_section_title
;
Structure prediction by ZEFSAII (Michael W. Deem and Ramdas Pophale) SiO2 
 PCOD8255030
Probable space group: P N M A
;
_chemical_formula_sum "Si O2"
_cell_formula_units_Z 48
_cell_length_a 20.264005
_cell_length_b 8.385908
_cell_length_c 14.521679
_cell_angle_alpha 90.000000
_cell_angle_beta 90.000000
_cell_angle_gamma 90.000000
_cell_volume 2467.699141
_symmetry_space_group_name_H-M "P N M A"
_symmetry_group_IT_number 62
_symmetry_cell_setting 'orthorhombic'
loop_
_space_group_symop_operation_xyz
x,y,z
1/2-x,-y,1/2+z
1/2+x,1/2-y,1/2-z
-x,1/2+y,-z
-x,-y,-z
1/2+x,y,1/2-z
1/2-x,1/2+y,1/2+z
x,1/2-y,z
loop_
_atom_site_type_symbol
_atom_site_label
_atom_site_fract_x
_atom_site_fract_y
_atom_site_fract_z
Si Si1 0.690605 0.064405 0.307331
Si Si2 0.378203 0.060740 0.994389
Si Si3 0.269084 0.561825 0.493398
Si Si4 0.186507 0.064246 0.798076
Si Si5 0.071069 0.935569 0.298482
Si Si6 0.432660 0.435538 0.185717
O O1 0.708752 0.250000 0.297768
O O2 0.692727 0.010607 0.414208
O O3 0.743017 0.962438 0.249920
O O4 0.617221 0.031581 0.271576
O O5 0.374666 0.250000 0.000889
O O6 0.304515 0.987433 0.994419
O O7 0.415538 0.003927 0.902532
O O8 0.416677 0.995562 0.083898
O O9 0.261756 0.750000 0.485691
O O10 0.308699 0.502369 0.403561
O O11 0.168146 0.250000 0.791979
O O12 0.129982 0.961040 0.750769
O O13 0.087076 0.750000 0.287851
O O14 0.995296 0.970638 0.273630
O O15 0.450016 0.250000 0.182333
#
# Coordination Sequence:
#
# PCOD8255030 Si02
#       6
#     8   8   8   8   8   8
#     4  11  21  37  60  85 114 151 191 233 281 335
#     4   9  17  33  57  84 117 151 182 228 285 340
#     4   9  18  35  58  84 114 148 186 231 282 333
#     4  11  21  37  60  85 114 151 191 233 281 335
#     4  11  22  38  58  84 118 153 191 233 284 340
#     4  11  22  38  58  84 118 153 191 233 284 340
#
# _framework density 19.451318000000001
#
# number of rings (size 3 to 8) (size 9 to 14) (size 15 to 20)
#    0.000    1.667    3.333    2.500    0.000    0.000 
#    0.000    8.333    0.000    0.000    0.000    0.000 
#    0.000    0.000    0.000    0.000    0.000    0.000 
#
# Total GULP energy -595337.899554 kJ/mol
# GULP energy per Si atom -12402.872907 kJ/mol
# Density = 1.940705 g / cm^3
# Si number density = 19.451318 Si / 1000 Ang^3
#
#
#
# Elastic Constant Matrix: (Units=GPa)
#
#
# Indices 1 2 3 4 5 6 
#
# 1 97.4977 6.1469 35.7347 0.0000 0.0000 0.0000
# 2 6.1469 35.2487 17.9718 0.0000 0.0000 0.0000
# 3 35.7347 17.9718 130.0633 0.0000 0.0000 0.0000
# 4 0.0000 0.0000 0.0000 21.4049 0.0000 0.0000
# 5 0.0000 0.0000 0.0000 0.0000 31.0145 0.0000
# 6 0.0000 0.0000 0.0000 0.0000 0.0000 29.1791
#
#
#
# Elastic Compliance Matrix: (Units=1/GPa)
#
#
# Indices 1 2 3 4 5 6 
#
# 1 0.011411 -0.000421 -0.003077 0.000000 0.000000 0.000000
# 2 -0.000421 0.030536 -0.004104 0.000000 0.000000 0.000000
# 3 -0.003077 -0.004104 0.009101 0.000000 0.000000 0.000000
# 4 0.000000 0.000000 0.000000 0.046718 0.000000 0.000000
# 5 0.000000 0.000000 0.000000 0.000000 0.032243 0.000000
# 6 0.000000 0.000000 0.000000 0.000000 0.000000 0.034271
#
#
# Mechanical properties :
#
#
# Convention : Reuss Voigt Hill
#
# Bulk Modulus (GPa) = 27.89859 42.50183 35.20021
# Shear Modulus (GPa) = 26.11903 29.85012 27.98457
#
# Velocity S-wave (km/s) = 3.66838 3.92166 3.79713
# Velocity P-wave (km/s) = 5.68477 6.51181 6.11229
#
# Compressibility (1/GPa) = 0.03584411
#
# Stress axis : x y z
#
# Youngs Moduli (GPa) = 87.63502 32.74872 109.87827
#
# Poissons Ratio (x) = 0.01379 0.33809
# Poissons Ratio (y) = 0.03690 0.45090
# Poissons Ratio (z) = 0.26965 0.13439
#
# Static dielectric constant tensor:
#      x y z
#    x 3.413800 0.000000 0.000000 
#    y 0.000000 3.218230 0.000000 
#    z 0.000000 0.000000 3.780550 
# 
# 
# High freq. dielectric constant tensor:
#      x y z
#    x 1.754000 0.000000 0.000000 
#    y 0.000000 1.735700 0.000000 
#    z 0.000000 0.000000 1.760300 
# 
# From -- ./inp_files/19555.got.cif
#   From: 2010.03.12/outbox.cif.g09.slc.cpg/sg62_10_cif.got.tgz:19555.got - 2010.04.10 19:12:36.
