data_PCOD8255093
_publ_section_title
;
Structure prediction by ZEFSAII (Michael W. Deem and Ramdas Pophale) SiO2 
 PCOD8255093
Probable space group: P N M A
;
_chemical_formula_sum "Si O2"
_cell_formula_units_Z 48
_cell_length_a 8.796807
_cell_length_b 27.161651
_cell_length_c 9.320908
_cell_angle_alpha 90.000000
_cell_angle_beta 90.000000
_cell_angle_gamma 90.000000
_cell_volume 2227.098625
_symmetry_space_group_name_H-M "P N M A"
_symmetry_group_IT_number 62
_symmetry_cell_setting 'orthorhombic'
loop_
_space_group_symop_operation_xyz
x,y,z
1/2-x,-y,1/2+z
1/2+x,1/2-y,1/2-z
-x,1/2+y,-z
-x,-y,-z
1/2+x,y,1/2-z
1/2-x,1/2+y,1/2+z
x,1/2-y,z
loop_
_atom_site_type_symbol
_atom_site_label
_atom_site_fract_x
_atom_site_fract_y
_atom_site_fract_z
Si Si1 0.317237 0.552272 0.167442
Si Si2 0.037857 0.803927 0.542671
Si Si3 0.369376 0.398744 0.886444
Si Si4 0.143871 0.408274 0.135491
Si Si5 0.165004 0.195553 0.209656
Si Si6 0.826567 0.458629 0.132203
O O1 0.228041 0.598957 0.238749
O O2 0.487830 0.565609 0.127323
O O3 0.315007 0.509272 0.283341
O O4 0.232962 0.533104 0.027306
O O5 0.049418 0.750000 0.469512
O O6 0.072693 0.843375 0.418772
O O7 0.154932 0.808235 0.677540
O O8 0.873523 0.810797 0.619921
O O9 0.266531 0.420251 0.013630
O O10 0.090443 0.350860 0.125538
O O11 0.225450 0.417116 0.288864
O O12 0.001052 0.443284 0.118441
O O13 0.105763 0.250000 0.158129
#
# Coordination Sequence:
#
# PCOD8255093 Si02
#       6
#     8   8   8   8   8   8
#     4  12  26  44  63  87 119 160 206 253 308 366
#     4   9  18  35  60  91 125 160 199 246 299 357
#     4  11  24  42  63  88 122 161 203 251 304 363
#     4  11  22  39  63  92 124 159 201 250 304 361
#     4   9  17  31  56  89 122 154 192 239 290 345
#     4  12  25  41  63  89 120 158 203 253 305 364
#
# _framework density 21.552705
#
# number of rings (size 3 to 8) (size 9 to 14) (size 15 to 20)
#    0.000    1.333    0.000    7.000    0.000    4.000 
#    0.000    2.500    0.000    4.000    0.000    0.000 
#    0.000    0.000    0.000    0.000    0.000    0.000 
#
# Total GULP energy -594972.026885 kJ/mol
# GULP energy per Si atom -12395.250560 kJ/mol
# Density = 2.150365 g / cm^3
# Si number density = 21.552705 Si / 1000 Ang^3
#
#
#
# Elastic Constant Matrix: (Units=GPa)
#
#
# Indices 1 2 3 4 5 6 
#
# 1 102.6248 52.1052 53.8069 0.0000 0.0000 0.0000
# 2 52.1052 128.2419 74.8386 0.0000 0.0000 0.0000
# 3 53.8069 74.8386 129.8769 0.0000 0.0000 0.0000
# 4 0.0000 0.0000 0.0000 32.2237 0.0000 0.0000
# 5 0.0000 0.0000 0.0000 0.0000 39.4462 0.0000
# 6 0.0000 0.0000 0.0000 0.0000 0.0000 23.7292
#
#
#
# Elastic Compliance Matrix: (Units=1/GPa)
#
#
# Indices 1 2 3 4 5 6 
#
# 1 0.013315 -0.003301 -0.003614 0.000000 0.000000 0.000000
# 2 -0.003301 0.012567 -0.005874 0.000000 0.000000 0.000000
# 3 -0.003614 -0.005874 0.012582 0.000000 0.000000 0.000000
# 4 0.000000 0.000000 0.000000 0.031033 0.000000 0.000000
# 5 0.000000 0.000000 0.000000 0.000000 0.025351 0.000000
# 6 0.000000 0.000000 0.000000 0.000000 0.000000 0.042142
#
#
# Mechanical properties :
#
#
# Convention : Reuss Voigt Hill
#
# Bulk Modulus (GPa) = 77.60576 80.24945 78.92760
# Shear Modulus (GPa) = 29.96479 31.07937 30.52208
#
# Velocity S-wave (km/s) = 3.73272 3.80151 3.76727
# Velocity P-wave (km/s) = 7.39346 7.52220 7.45811
#
# Compressibility (1/GPa) = 0.01288564
#
# Stress axis : x y z
#
# Youngs Moduli (GPa) = 75.10241 79.57578 79.48097
#
# Poissons Ratio (x) = 0.26266 0.28727
# Poissons Ratio (y) = 0.24789 0.46685
# Poissons Ratio (z) = 0.27145 0.46741
#
# Static dielectric constant tensor:
#      x y z
#    x 3.999160 0.000000 0.000000 
#    y 0.000000 4.172420 0.000000 
#    z 0.000000 0.000000 3.780740 
# 
# 
# High freq. dielectric constant tensor:
#      x y z
#    x 1.852340 0.000000 0.000000 
#    y 0.000000 1.861900 0.000000 
#    z 0.000000 0.000000 1.818420 
# 
# From -- ./inp_files/4489.got.cif
#   From: 2010.03.12/outbox.cif.g09.slc.cpg/sg62_3_cif.got.tgz:4489.got - 2010.04.10 19:12:36.
