data_PCOD8255186
_publ_section_title
;
Structure prediction by ZEFSAII (Michael W. Deem and Ramdas Pophale) SiO2 
 PCOD8255186
Probable space group: P N M A
;
_chemical_formula_sum "Si O2"
_cell_formula_units_Z 48
_cell_length_a 9.240851
_cell_length_b 18.262046
_cell_length_c 13.155357
_cell_angle_alpha 90.000000
_cell_angle_beta 90.000000
_cell_angle_gamma 90.000000
_cell_volume 2220.056556
_symmetry_space_group_name_H-M "P N M A"
_symmetry_group_IT_number 62
_symmetry_cell_setting 'orthorhombic'
loop_
_space_group_symop_operation_xyz
x,y,z
1/2-x,-y,1/2+z
1/2+x,1/2-y,1/2-z
-x,1/2+y,-z
-x,-y,-z
1/2+x,y,1/2-z
1/2-x,1/2+y,1/2+z
x,1/2-y,z
loop_
_atom_site_type_symbol
_atom_site_label
_atom_site_fract_x
_atom_site_fract_y
_atom_site_fract_z
Si Si1 0.413897 0.671378 0.682186
Si Si2 0.003841 0.458698 0.672998
Si Si3 0.730835 0.027397 0.557770
Si Si4 0.164764 0.583241 0.766587
Si Si5 0.448668 0.668219 0.446934
Si Si6 0.810063 0.425401 0.871789
O O1 0.366853 0.750000 0.727651
O O2 0.321242 0.604569 0.725422
O O3 0.579783 0.657840 0.712200
O O4 0.403524 0.674244 0.562439
O O5 0.079740 0.537663 0.681325
O O6 0.142705 0.404052 0.656724
O O7 0.902774 0.458731 0.572489
O O8 0.901582 0.441780 0.769782
O O9 0.651858 0.102295 0.594322
O O10 0.677372 0.964249 0.632582
O O11 0.690064 0.997907 0.445207
O O12 0.424217 0.750000 0.397723
O O13 0.615686 0.643821 0.428081
#
# Coordination Sequence:
#
# PCOD8255186 Si02
#       6
#     8   8   8   8   8   8
#     4  11  24  40  63  97 138 176 213 273 343 405
#     4  12  23  40  68  99 129 166 235 275 329 383
#     4  12  23  41  71  99 131 177 226 280 328 405
#     4  12  20  39  67  97 129 174 219 269 329 406
#     4  11  24  43  65  95 133 179 224 280 347 400
#     4  12  23  42  67  98 130 173 225 278 329 403
#
# _framework density 21.621072000000002
#
# number of rings (size 3 to 8) (size 9 to 14) (size 15 to 20)
#    0.000    0.333    6.667    3.500    0.000    0.000 
#    0.000    4.167    0.000    0.000    0.000    0.000 
#    0.000    0.000    0.000    0.000    0.000    0.000 
#
# Total GULP energy -594675.438165 kJ/mol
# GULP energy per Si atom -12389.071628 kJ/mol
# Density = 2.157186 g / cm^3
# Si number density = 21.621072 Si / 1000 Ang^3
#
#
#
# Elastic Constant Matrix: (Units=GPa)
#
#
# Indices 1 2 3 4 5 6 
#
# 1 150.0083 49.8248 38.7132 0.0000 0.0000 0.0000
# 2 49.8248 115.0270 39.3704 0.0000 0.0000 0.0000
# 3 38.7132 39.3704 67.1990 0.0000 0.0000 0.0000
# 4 0.0000 0.0000 0.0000 43.0046 0.0000 0.0000
# 5 0.0000 0.0000 0.0000 0.0000 35.3336 0.0000
# 6 0.0000 0.0000 0.0000 0.0000 0.0000 8.6835
#
#
#
# Elastic Compliance Matrix: (Units=1/GPa)
#
#
# Indices 1 2 3 4 5 6 
#
# 1 0.008355 -0.002466 -0.003368 0.000000 0.000000 0.000000
# 2 -0.002466 0.011602 -0.005377 0.000000 0.000000 0.000000
# 3 -0.003368 -0.005377 0.019972 0.000000 0.000000 0.000000
# 4 0.000000 0.000000 0.000000 0.023253 0.000000 0.000000
# 5 0.000000 0.000000 0.000000 0.000000 0.028302 0.000000
# 6 0.000000 0.000000 0.000000 0.000000 0.000000 0.115160
#
#
# Mechanical properties :
#
#
# Convention : Reuss Voigt Hill
#
# Bulk Modulus (GPa) = 57.12204 65.33901 61.23052
# Shear Modulus (GPa) = 21.28552 31.02607 26.15580
#
# Velocity S-wave (km/s) = 3.14105 3.79224 3.48190
# Velocity P-wave (km/s) = 6.29539 7.03281 6.67429
#
# Compressibility (1/GPa) = 0.01750638
#
# Stress axis : x y z
#
# Youngs Moduli (GPa) = 119.69380 86.19149 50.07065
#
# Poissons Ratio (x) = 0.21255 0.16865
# Poissons Ratio (y) = 0.29516 0.26922
# Poissons Ratio (z) = 0.40317 0.46343
#
# Static dielectric constant tensor:
#      x y z
#    x 4.485860 0.000000 0.000000 
#    y 0.000000 3.254900 0.000000 
#    z 0.000000 0.000000 3.893360 
# 
# 
# High freq. dielectric constant tensor:
#      x y z
#    x 1.865390 0.000000 0.000000 
#    y 0.000000 1.826580 0.000000 
#    z 0.000000 0.000000 1.845550 
# 
# From -- ./inp_files/16961.got.cif
#   From: 2010.03.12/outbox.cif.g09.slc.cpg/sg62_9_cif.got.tgz:16961.got - 2010.04.10 19:12:36.
