data_PCOD8255226
_publ_section_title
;
Structure prediction by ZEFSAII (Michael W. Deem and Ramdas Pophale) SiO2 
 PCOD8255226
Probable space group: P N M A
;
_chemical_formula_sum "Si O2"
_cell_formula_units_Z 48
_cell_length_a 11.151024
_cell_length_b 20.947877
_cell_length_c 8.845864
_cell_angle_alpha 90.000000
_cell_angle_beta 90.000000
_cell_angle_gamma 90.000000
_cell_volume 2066.307841
_symmetry_space_group_name_H-M "P N M A"
_symmetry_group_IT_number 62
_symmetry_cell_setting 'orthorhombic'
loop_
_space_group_symop_operation_xyz
x,y,z
1/2-x,-y,1/2+z
1/2+x,1/2-y,1/2-z
-x,1/2+y,-z
-x,-y,-z
1/2+x,y,1/2-z
1/2-x,1/2+y,1/2+z
x,1/2-y,z
loop_
_atom_site_type_symbol
_atom_site_label
_atom_site_fract_x
_atom_site_fract_y
_atom_site_fract_z
Si Si1 0.118744 0.822945 0.929341
Si Si2 0.763255 0.891197 0.351702
Si Si3 0.299799 0.378717 0.121894
Si Si4 0.963518 0.565113 0.568846
Si Si5 0.873548 0.821421 0.074529
Si Si6 0.392148 0.513933 0.620588
O O1 0.116651 0.750000 0.873736
O O2 0.180414 0.867146 0.801007
O O3 0.192691 0.829456 0.085683
O O4 0.985232 0.846751 0.974255
O O5 0.844911 0.910616 0.491593
O O6 0.843426 0.871638 0.208073
O O7 0.667591 0.947831 0.319939
O O8 0.429807 0.384327 0.044892
O O9 0.219296 0.440610 0.071413
O O10 0.237646 0.318171 0.042289
O O11 0.951671 0.553906 0.746391
O O12 0.000000 0.500000 0.500000
O O13 0.898187 0.750000 0.137679
O O14 0.500000 0.500000 0.500000
#
# Coordination Sequence:
#
# PCOD8255226 Si02
#       6
#     8   8   8   8   8   8
#     4  11  26  49  74 103 143 194 251 305 360 431
#     4  12  26  46  73 107 148 190 243 303 373 445
#     4  12  24  47  72 104 143 188 245 302 367 436
#     4  12  26  42  67 108 142 189 230 289 374 437
#     4  11  27  48  73 105 145 197 251 307 368 435
#     4  12  27  45  74 107 145 186 236 303 369 442
#
# _framework density 23.229842000000001
#
# number of rings (size 3 to 8) (size 9 to 14) (size 15 to 20)
#    0.000    0.333    3.333    5.000    7.000    0.000 
#    0.000    2.500    0.000    0.000    0.000    0.000 
#    0.000    0.000    0.000    0.000    0.000    0.000 
#
# Total GULP energy -594786.040682 kJ/mol
# GULP energy per Si atom -12391.375848 kJ/mol
# Density = 2.317697 g / cm^3
# Si number density = 23.229842 Si / 1000 Ang^3
#
#
#
# Elastic Constant Matrix: (Units=GPa)
#
#
# Indices 1 2 3 4 5 6 
#
# 1 128.4614 40.1405 58.4764 0.0000 0.0000 0.0000
# 2 40.1405 83.2908 38.2089 0.0000 0.0000 0.0000
# 3 58.4764 38.2089 123.9434 0.0000 0.0000 0.0000
# 4 0.0000 0.0000 0.0000 36.6248 0.0000 0.0000
# 5 0.0000 0.0000 0.0000 0.0000 51.7218 0.0000
# 6 0.0000 0.0000 0.0000 0.0000 0.0000 36.7448
#
#
#
# Elastic Compliance Matrix: (Units=1/GPa)
#
#
# Indices 1 2 3 4 5 6 
#
# 1 0.010634 -0.003288 -0.004004 0.000000 0.000000 0.000000
# 2 -0.003288 0.015001 -0.003073 0.000000 0.000000 0.000000
# 3 -0.004004 -0.003073 0.010904 0.000000 0.000000 0.000000
# 4 0.000000 0.000000 0.000000 0.027304 0.000000 0.000000
# 5 0.000000 0.000000 0.000000 0.000000 0.019334 0.000000
# 6 0.000000 0.000000 0.000000 0.000000 0.000000 0.027215
#
#
# Mechanical properties :
#
#
# Convention : Reuss Voigt Hill
#
# Bulk Modulus (GPa) = 63.25254 67.70524 65.47889
# Shear Modulus (GPa) = 36.65910 38.27629 37.46770
#
# Velocity S-wave (km/s) = 3.97685 4.06362 4.02046
# Velocity P-wave (km/s) = 6.95523 7.15726 7.05697
#
# Compressibility (1/GPa) = 0.01580964
#
# Stress axis : x y z
#
# Youngs Moduli (GPa) = 94.03415 66.66412 91.70646
#
# Poissons Ratio (x) = 0.21922 0.36715
# Poissons Ratio (y) = 0.30923 0.28180
# Poissons Ratio (z) = 0.37647 0.20485
#
# Static dielectric constant tensor:
#      x y z
#    x 4.034140 0.000000 0.000000 
#    y 0.000000 4.045690 0.000000 
#    z 0.000000 0.000000 4.002740 
# 
# 
# High freq. dielectric constant tensor:
#      x y z
#    x 1.940760 0.000000 0.000000 
#    y 0.000000 1.913460 0.000000 
#    z 0.000000 0.000000 1.916190 
# 
# From -- ./inp_files/5288.got.cif
#   From: 2010.03.12/outbox.cif.g09.slc.cpg/sg62_3_cif.got.tgz:5288.got - 2010.04.10 19:12:36.
