data_PCOD8255952
_publ_section_title
;
Structure prediction by ZEFSAII (Michael W. Deem and Ramdas Pophale) SiO2 
 PCOD8255952
Probable space group: C M C M
;
_chemical_formula_sum "Si O2"
_cell_formula_units_Z 104
_cell_length_a 20.288445
_cell_length_b 32.281918
_cell_length_c 8.715103
_cell_angle_alpha 90.000000
_cell_angle_beta 90.000000
_cell_angle_gamma 90.000000
_cell_volume 5707.955994
_symmetry_space_group_name_H-M "C M C M"
_symmetry_group_IT_number 63
_symmetry_cell_setting 'orthorhombic'
loop_
_space_group_symop_operation_xyz
x,y,z
-x,-y,1/2+z
x,-y,-z
-x,y,1/2-z
-x,-y,-z
x,y,1/2-z
-x,y,z
x,-y,1/2+z
1/2+x,1/2+y,z
1/2-x,1/2-y,1/2+z
1/2+x,1/2-y,-z
1/2-x,1/2+y,1/2-z
1/2-x,1/2-y,-z
1/2+x,1/2+y,1/2-z
1/2-x,1/2+y,z
1/2+x,1/2-y,1/2+z
loop_
_atom_site_type_symbol
_atom_site_label
_atom_site_fract_x
_atom_site_fract_y
_atom_site_fract_z
Si Si1 0.073960 0.314560 0.575201
Si Si2 0.074896 0.771987 0.929233
Si Si3 0.768306 0.543445 0.931305
Si Si4 0.679982 0.333333 0.068283
Si Si5 0.195066 0.629880 0.429147
Si Si6 0.500000 0.544345 0.566935
Si Si7 0.133238 0.079013 0.568988
O O1 0.084476 0.299216 0.750000
O O2 0.087317 0.276074 0.463704
O O3 0.123040 0.351886 0.535595
O O4 0.000000 0.331707 0.550991
O O5 0.082051 0.780128 0.750000
O O6 0.000000 0.784460 0.984044
O O7 0.133309 0.796326 0.013937
O O8 0.778184 0.542384 0.750000
O O9 0.691621 0.547938 0.980712
O O10 0.795511 0.500000 0.000000
O O11 0.804779 0.584444 0.993484
O O12 0.688165 0.330682 0.250000
O O13 0.645718 0.375082 0.009166
O O14 0.753109 0.336117 0.995774
O O15 0.209038 0.624287 0.250000
O O16 0.500000 0.500000 0.500000
O O17 0.500000 0.544152 0.750000
O O18 0.564202 0.565975 0.495927
O O19 0.128064 0.079272 0.750000
#
# Coordination Sequence:
#
# PCOD8255952 Si02
#       7
#    16  16  16  16  16   8  16
#     4   9  19  37  59  81 104 135 174 211 258 324
#     4  10  21  35  52  77 108 141 179 223 267 312
#     4  10  19  33  52  76 104 136 174 213 258 313
#     4  10  20  34  52  75 103 140 182 221 262 311
#     4  10  20  35  56  81 108 136 169 217 269 314
#     4  10  18  30  44  62  88 120 164 210 254 298
#     4   8  17  30  46  67  93 128 170 213 254 298
#
# _framework density 18.220184
#
# number of rings (size 3 to 8) (size 9 to 14) (size 15 to 20)
#    0.000    2.462    0.000    3.231    1.077    2.769 
#    0.000    3.846    0.000    0.462    0.000    0.000 
#    0.000    0.000    0.000    0.000    0.000    0.000 
#
# Total GULP energy -644479.200181 kJ/mol
# GULP energy per Si atom -12393.830773 kJ/mol
# Density = 1.817871 g / cm^3
# Si number density = 18.220184 Si / 1000 Ang^3
#
#
#
# Elastic Constant Matrix: (Units=GPa)
#
#
# Indices 1 2 3 4 5 6 
#
# 1 120.1606 66.4681 40.8997 0.0000 0.0000 0.0000
# 2 66.4681 94.7159 43.0341 0.0000 0.0000 0.0000
# 3 40.8997 43.0341 75.4307 0.0000 0.0000 0.0000
# 4 0.0000 0.0000 0.0000 31.3578 0.0000 0.0000
# 5 0.0000 0.0000 0.0000 0.0000 21.4720 0.0000
# 6 0.0000 0.0000 0.0000 0.0000 0.0000 18.2241
#
#
#
# Elastic Compliance Matrix: (Units=1/GPa)
#
#
# Indices 1 2 3 4 5 6 
#
# 1 0.013993 -0.008602 -0.002679 0.000000 0.000000 0.000000
# 2 -0.008602 0.019540 -0.006484 0.000000 0.000000 0.000000
# 3 -0.002679 -0.006484 0.018409 0.000000 0.000000 0.000000
# 4 0.000000 0.000000 0.000000 0.031890 0.000000 0.000000
# 5 0.000000 0.000000 0.000000 0.000000 0.046572 0.000000
# 6 0.000000 0.000000 0.000000 0.000000 0.000000 0.054872
#
#
# Mechanical properties :
#
#
# Convention : Reuss Voigt Hill
#
# Bulk Modulus (GPa) = 60.93309 65.67901 63.30605
# Shear Modulus (GPa) = 22.09673 23.53780 22.81726
#
# Velocity S-wave (km/s) = 3.48625 3.59813 3.54263
# Velocity P-wave (km/s) = 7.05128 7.30669 7.18012
#
# Compressibility (1/GPa) = 0.01641144
#
# Stress axis : x y z
#
# Youngs Moduli (GPa) = 71.46684 51.17597 54.32086
#
# Poissons Ratio (x) = 0.44022 0.14555
# Poissons Ratio (y) = 0.61476 0.35221
# Poissons Ratio (z) = 0.19149 0.33182
#
# Static dielectric constant tensor:
#      x y z
#    x 3.579170 0.000000 0.000000 
#    y 0.000000 3.312060 0.000000 
#    z 0.000000 0.000000 2.360970 
# 
# 
# High freq. dielectric constant tensor:
#      x y z
#    x 1.700480 0.000000 0.000000 
#    y 0.000000 1.699990 0.000000 
#    z 0.000000 0.000000 1.703010 
# 
# From -- ./inp_files/9127.got.cif
#   From: 2010.03.12/outbox.cif.g09.slc.cpg/sg63_5_cif.got.tgz:9127.got - 2010.04.10 19:34:48.
