data_PCOD8255440
_publ_section_title
;
Structure prediction by ZEFSAII (Michael W. Deem and Ramdas Pophale) SiO2 
 PCOD8255440
Probable space group: C M C M
;
_chemical_formula_sum "Si O2"
_cell_formula_units_Z 64
_cell_length_a 21.636566
_cell_length_b 12.496004
_cell_length_c 13.302344
_cell_angle_alpha 90.000000
_cell_angle_beta 90.000000
_cell_angle_gamma 90.000000
_cell_volume 3596.562932
_symmetry_space_group_name_H-M "C M C M"
_symmetry_group_IT_number 63
_symmetry_cell_setting 'orthorhombic'
loop_
_space_group_symop_operation_xyz
x,y,z
-x,-y,1/2+z
x,-y,-z
-x,y,1/2-z
-x,-y,-z
x,y,1/2-z
-x,y,z
x,-y,1/2+z
1/2+x,1/2+y,z
1/2-x,1/2-y,1/2+z
1/2+x,1/2-y,-z
1/2-x,1/2+y,1/2-z
1/2-x,1/2-y,-z
1/2+x,1/2+y,1/2-z
1/2-x,1/2+y,z
1/2+x,1/2-y,1/2+z
loop_
_atom_site_type_symbol
_atom_site_label
_atom_site_fract_x
_atom_site_fract_y
_atom_site_fract_z
Si Si1 0.764156 0.358970 0.865306
Si Si2 0.429847 0.643549 0.365200
Si Si3 0.663890 0.738909 0.008745
Si Si4 0.830579 0.039385 0.862412
O O1 0.781920 0.335304 0.750000
O O2 0.824725 0.343116 0.937615
O O3 0.733950 0.475575 0.876365
O O4 0.715591 0.268202 0.903224
O O5 0.425708 0.681868 0.250000
O O6 0.500000 0.618410 0.396719
O O7 0.402968 0.739129 0.436388
O O8 0.388731 0.538243 0.382403
O O9 0.668675 0.633438 0.940693
O O10 0.834878 0.086080 0.750000
#
# Coordination Sequence:
#
# PCOD8255440 Si02
#       4
#    16  16  16  16
#     4   9  17  27  39  58  83 109 139 173 205 240
#     4   9  17  28  41  58  82 112 143 172 200 236
#     4  10  17  26  43  61  82 114 142 165 204 247
#     4   9  17  28  41  60  87 114 139 169 203 240
#
# _framework density 17.794768000000001
#
# number of rings (size 3 to 8) (size 9 to 14) (size 15 to 20)
#    0.000    2.750    0.000    6.000    0.000    2.000 
#    0.000    0.000    0.000    5.250    0.000    0.000 
#    0.000   36.000    0.000   60.250    0.000   10.500 
#
# Total GULP energy -396438.376393 kJ/mol
# GULP energy per Si atom -12388.699262 kJ/mol
# Density = 1.775427 g / cm^3
# Si number density = 17.794768 Si / 1000 Ang^3
#
#
#
# Elastic Constant Matrix: (Units=GPa)
#
#
# Indices 1 2 3 4 5 6 
#
# 1 90.8824 35.9359 34.8722 0.0000 0.0000 0.0000
# 2 35.9359 25.7388 23.1355 0.0000 0.0000 0.0000
# 3 34.8722 23.1355 91.4837 0.0000 0.0000 0.0000
# 4 0.0000 0.0000 0.0000 19.8370 0.0000 0.0000
# 5 0.0000 0.0000 0.0000 0.0000 32.2480 0.0000
# 6 0.0000 0.0000 0.0000 0.0000 0.0000 9.9667
#
#
#
# Elastic Compliance Matrix: (Units=1/GPa)
#
#
# Indices 1 2 3 4 5 6 
#
# 1 0.024621 -0.033570 -0.000895 0.000000 0.000000 0.000000
# 2 -0.033570 0.096054 -0.011495 0.000000 0.000000 0.000000
# 3 -0.000895 -0.011495 0.014179 0.000000 0.000000 0.000000
# 4 0.000000 0.000000 0.000000 0.050411 0.000000 0.000000
# 5 0.000000 0.000000 0.000000 0.000000 0.031010 0.000000
# 6 0.000000 0.000000 0.000000 0.000000 0.000000 0.100334
#
#
# Mechanical properties :
#
#
# Convention : Reuss Voigt Hill
#
# Bulk Modulus (GPa) = 23.29200 43.99912 33.64556
# Shear Modulus (GPa) = 11.82476 20.02109 15.92293
#
# Velocity S-wave (km/s) = 2.58060 3.35791 2.99458
# Velocity P-wave (km/s) = 4.69010 6.30980 5.55925
#
# Compressibility (1/GPa) = 0.04293320
#
# Stress axis : x y z
#
# Youngs Moduli (GPa) = 40.61586 10.41077 70.52583
#
# Poissons Ratio (x) = 0.34949 0.06315
# Poissons Ratio (y) = 1.36349 0.81068
# Poissons Ratio (z) = 0.03637 0.11967
#
# Static dielectric constant tensor:
#      x y z
#    x 3.461340 0.000000 0.000000 
#    y 0.000000 2.949460 0.000000 
#    z 0.000000 0.000000 3.918800 
# 
# 
# High freq. dielectric constant tensor:
#      x y z
#    x 1.655340 0.000000 0.000000 
#    y 0.000000 1.633060 0.000000 
#    z 0.000000 0.000000 1.722450 
# 
# From -- ./inp_files/22244.got.cif
#   From: 2010.03.12/outbox.cif.g09.slc.cpg/sg63_12_cif.got.tgz:22244.got - 2010.04.10 19:34:48.
