data_PCOD8255407
_publ_section_title
;
Structure prediction by ZEFSAII (Michael W. Deem and Ramdas Pophale) SiO2 
 PCOD8255407
Probable space group: C M C M
;
_chemical_formula_sum "Si O2"
_cell_formula_units_Z 80
_cell_length_a 24.798278
_cell_length_b 9.030262
_cell_length_c 17.986792
_cell_angle_alpha 90.000000
_cell_angle_beta 90.000000
_cell_angle_gamma 90.000000
_cell_volume 4027.871322
_symmetry_space_group_name_H-M "C M C M"
_symmetry_group_IT_number 63
_symmetry_cell_setting 'orthorhombic'
loop_
_space_group_symop_operation_xyz
x,y,z
-x,-y,1/2+z
x,-y,-z
-x,y,1/2-z
-x,-y,-z
x,y,1/2-z
-x,y,z
x,-y,1/2+z
1/2+x,1/2+y,z
1/2-x,1/2-y,1/2+z
1/2+x,1/2-y,-z
1/2-x,1/2+y,1/2-z
1/2-x,1/2-y,-z
1/2+x,1/2+y,1/2-z
1/2-x,1/2+y,z
1/2+x,1/2-y,1/2+z
loop_
_atom_site_type_symbol
_atom_site_label
_atom_site_fract_x
_atom_site_fract_y
_atom_site_fract_z
Si Si1 0.791992 0.752340 0.166142
Si Si2 0.790866 0.948416 0.920626
Si Si3 0.615965 0.923723 0.891742
Si Si4 0.000000 0.168317 0.477904
Si Si5 0.000000 0.587101 0.080319
Si Si6 0.615103 0.230514 0.549892
O O1 0.769848 0.763966 0.250000
O O2 0.750474 0.667297 0.113875
O O3 0.848236 0.660531 0.169133
O O4 0.800803 0.916282 0.134973
O O5 0.848119 0.871761 0.934937
O O6 0.766614 0.000000 0.000000
O O7 0.552895 0.943395 0.870200
O O8 0.636114 0.093318 0.899955
O O9 0.620380 0.824860 0.965696
O O10 0.946575 0.219796 0.432328
O O11 0.000000 0.241066 0.559315
O O12 0.000000 0.000000 0.500000
O O13 0.000000 0.500000 0.000000
#
# Coordination Sequence:
#
# PCOD8255407 Si02
#       6
#    16  16  16   8   8  16
#     4  12  27  43  60  87 126 165 202 255 323 378
#     4  12  24  40  64  91 118 158 213 261 305 366
#     4  10  19  36  61  89 128 154 201 245 305 361
#     4  10  18  28  52  91 138 148 186 248 316 342
#     4  10  16  32  57  93 125 158 194 250 301 345
#     4  10  19  34  59  96 121 155 195 256 298 347
#
# _framework density 19.861609000000001
#
# number of rings (size 3 to 8) (size 9 to 14) (size 15 to 20)
#    0.000    1.200    6.000    3.000    5.600    0.000 
#    0.000    1.500    0.000    0.000    0.000    4.900 
#    0.000    0.000    0.000    0.000    0.000    0.000 
#
# Total GULP energy -495773.402287 kJ/mol
# GULP energy per Si atom -12394.335057 kJ/mol
# Density = 1.981640 g / cm^3
# Si number density = 19.861609 Si / 1000 Ang^3
#
#
#
# Elastic Constant Matrix: (Units=GPa)
#
#
# Indices 1 2 3 4 5 6 
#
# 1 116.8791 40.7819 30.6953 0.0000 0.0000 0.0000
# 2 40.7819 138.6824 37.0770 0.0000 0.0000 0.0000
# 3 30.6953 37.0770 80.4095 0.0000 0.0000 0.0000
# 4 0.0000 0.0000 0.0000 16.7760 0.0000 0.0000
# 5 0.0000 0.0000 0.0000 0.0000 8.0964 0.0000
# 6 0.0000 0.0000 0.0000 0.0000 0.0000 35.9466
#
#
#
# Elastic Compliance Matrix: (Units=1/GPa)
#
#
# Indices 1 2 3 4 5 6 
#
# 1 0.010067 -0.002205 -0.002826 0.000000 0.000000 0.000000
# 2 -0.002205 0.008708 -0.003173 0.000000 0.000000 0.000000
# 3 -0.002826 -0.003173 0.014979 0.000000 0.000000 0.000000
# 4 0.000000 0.000000 0.000000 0.059609 0.000000 0.000000
# 5 0.000000 0.000000 0.000000 0.000000 0.123511 0.000000
# 6 0.000000 0.000000 0.000000 0.000000 0.000000 0.027819
#
#
# Mechanical properties :
#
#
# Convention : Reuss Voigt Hill
#
# Bulk Modulus (GPa) = 57.65634 61.45327 59.55481
# Shear Modulus (GPa) = 18.73476 27.32493 23.02985
#
# Velocity S-wave (km/s) = 3.07459 3.71316 3.40886
# Velocity P-wave (km/s) = 6.45726 7.02789 6.74861
#
# Compressibility (1/GPa) = 0.01734415
#
# Stress axis : x y z
#
# Youngs Moduli (GPa) = 99.32979 114.84350 66.76208
#
# Poissons Ratio (x) = 0.25321 0.18870
# Poissons Ratio (y) = 0.21901 0.21186
# Poissons Ratio (z) = 0.28075 0.36444
#
# Static dielectric constant tensor:
#      x y z
#    x 3.964560 0.000000 0.000000 
#    y 0.000000 3.916870 0.000000 
#    z 0.000000 0.000000 3.129700 
# 
# 
# High freq. dielectric constant tensor:
#      x y z
#    x 1.789380 0.000000 0.000000 
#    y 0.000000 1.800310 0.000000 
#    z 0.000000 0.000000 1.711690 
# 
# From -- ./inp_files/48883.got.cif
#   From: 2010.03.12/outbox.cif.g09.slc.cpg/sg63_25_cif.got.tgz:48883.got - 2010.04.10 19:34:48.
