data_PCOD8255122
_publ_section_title
;
Structure prediction by ZEFSAII (Michael W. Deem and Ramdas Pophale) SiO2 
 PCOD8255122
Probable space group: P N M A
;
_chemical_formula_sum "Si O2"
_cell_formula_units_Z 36
_cell_length_a 24.783121
_cell_length_b 9.717109
_cell_length_c 6.749362
_cell_angle_alpha 90.000000
_cell_angle_beta 90.000000
_cell_angle_gamma 90.000000
_cell_volume 1625.383301
_symmetry_space_group_name_H-M "P N M A"
_symmetry_group_IT_number 62
_symmetry_cell_setting 'orthorhombic'
loop_
_space_group_symop_operation_xyz
x,y,z
1/2-x,-y,1/2+z
1/2+x,1/2-y,1/2-z
-x,1/2+y,-z
-x,-y,-z
1/2+x,y,1/2-z
1/2-x,1/2+y,1/2+z
x,1/2-y,z
loop_
_atom_site_type_symbol
_atom_site_label
_atom_site_fract_x
_atom_site_fract_y
_atom_site_fract_z
Si Si1 0.781886 0.750000 0.647678
Si Si2 0.155747 0.043659 0.605443
Si Si3 0.927622 0.250000 0.859325
Si Si4 0.038417 0.250000 0.075732
Si Si5 0.340022 0.250000 0.282712
Si Si6 0.341173 0.750000 0.439393
Si Si7 0.553127 0.017169 0.124473
O O1 0.801837 0.606989 0.550498
O O2 0.718057 0.750000 0.615823
O O3 0.801517 0.750000 0.874358
O O4 0.169691 0.112291 0.815253
O O5 0.097289 0.086470 0.519395
O O6 0.156714 0.880119 0.635451
O O7 0.919185 0.382346 0.720296
O O8 0.886868 0.250000 0.048421
O O9 0.990064 0.250000 0.920675
O O10 0.033296 0.386430 0.201737
O O11 0.095979 0.250000 0.977254
O O12 0.500000 0.000000 0.000000
#
# Coordination Sequence:
#
# PCOD8255122 Si02
#       7
#     4   8   4   4   4   4   8
#     4  11  27  48  72  99 135 197 238 302 348 433
#     4  11  25  47  70 105 139 181 243 289 358 426
#     4  12  26  41  66 110 146 188 232 294 372 420
#     4  12  21  41  70  96 137 186 230 274 351 430
#     4  12  28  45  71 102 147 181 239 302 369 415
#     4  11  22  47  73 103 133 184 247 284 352 432
#     4  12  23  42  68 102 147 181 231 293 352 425
#
# _framework density 22.148620999999999
#
# number of rings (size 3 to 8) (size 9 to 14) (size 15 to 20)
#    0.000    0.444    2.222    6.667    3.111    0.000 
#    4.000    0.000    0.000    0.000    0.000    0.000 
#    0.000    0.000    0.000    0.000    0.000    0.000 
#
# Total GULP energy -446331.001681 kJ/mol
# GULP energy per Si atom -12398.083380 kJ/mol
# Density = 2.209821 g / cm^3
# Si number density = 22.148621 Si / 1000 Ang^3
#
#
#
# Elastic Constant Matrix: (Units=GPa)
#
#
# Indices 1 2 3 4 5 6 
#
# 1 102.3458 -11.5109 7.7937 0.0000 0.0000 0.0000
# 2 -11.5109 122.2224 31.0133 0.0000 0.0000 0.0000
# 3 7.7937 31.0133 100.1871 0.0000 0.0000 0.0000
# 4 0.0000 0.0000 0.0000 16.7889 0.0000 0.0000
# 5 0.0000 0.0000 0.0000 0.0000 29.2778 0.0000
# 6 0.0000 0.0000 0.0000 0.0000 0.0000 24.2095
#
#
#
# Elastic Compliance Matrix: (Units=1/GPa)
#
#
# Indices 1 2 3 4 5 6 
#
# 1 0.009998 0.001236 -0.001160 0.000000 0.000000 0.000000
# 2 0.001236 0.009032 -0.002892 0.000000 0.000000 0.000000
# 3 -0.001160 -0.002892 0.010967 0.000000 0.000000 0.000000
# 4 0.000000 0.000000 0.000000 0.059563 0.000000 0.000000
# 5 0.000000 0.000000 0.000000 0.000000 0.034156 0.000000
# 6 0.000000 0.000000 0.000000 0.000000 0.000000 0.041306
#
#
# Mechanical properties :
#
#
# Convention : Reuss Voigt Hill
#
# Bulk Modulus (GPa) = 41.04366 42.14973 41.59669
# Shear Modulus (GPa) = 27.96791 33.88585 30.92688
#
# Velocity S-wave (km/s) = 3.55736 3.91568 3.74081
# Velocity P-wave (km/s) = 5.95351 6.28610 6.12207
#
# Compressibility (1/GPa) = 0.02436430
#
# Stress axis : x y z
#
# Youngs Moduli (GPa) = 100.01817 110.71662 91.18388
#
# Poissons Ratio (x) = -0.13685 0.10581
# Poissons Ratio (y) = -0.12363 0.26371
# Poissons Ratio (z) = 0.11606 0.32020
#
# Static dielectric constant tensor:
#      x y z
#    x 4.010850 0.000000 0.000000 
#    y 0.000000 4.174570 0.000000 
#    z 0.000000 0.000000 3.873680 
# 
# 
# High freq. dielectric constant tensor:
#      x y z
#    x 1.876980 0.000000 0.000000 
#    y 0.000000 1.885020 0.000000 
#    z 0.000000 0.000000 1.884520 
# 
# From -- ./inp_files/2601.got.cif
#   From: 2010.03.12/outbox.cif.g09.slc.cpg/sg62_2_cif.got.tgz:2601.got - 2010.04.10 19:12:36.
