data_PCOD8255498
_publ_section_title
;
Structure prediction by ZEFSAII (Michael W. Deem and Ramdas Pophale) SiO2 
 PCOD8255498
Probable space group: C M C M
;
_chemical_formula_sum "Si O2"
_cell_formula_units_Z 128
_cell_length_a 18.099757
_cell_length_b 25.205084
_cell_length_c 18.540739
_cell_angle_alpha 90.000000
_cell_angle_beta 90.000000
_cell_angle_gamma 90.000000
_cell_volume 8458.394440
_symmetry_space_group_name_H-M "C M C M"
_symmetry_group_IT_number 63
_symmetry_cell_setting 'orthorhombic'
loop_
_space_group_symop_operation_xyz
x,y,z
-x,-y,1/2+z
x,-y,-z
-x,y,1/2-z
-x,-y,-z
x,y,1/2-z
-x,y,z
x,-y,1/2+z
1/2+x,1/2+y,z
1/2-x,1/2-y,1/2+z
1/2+x,1/2-y,-z
1/2-x,1/2+y,1/2-z
1/2-x,1/2-y,-z
1/2+x,1/2+y,1/2-z
1/2-x,1/2+y,z
1/2+x,1/2-y,1/2+z
loop_
_atom_site_type_symbol
_atom_site_label
_atom_site_fract_x
_atom_site_fract_y
_atom_site_fract_z
Si Si1 0.288476 0.312291 0.167961
Si Si2 0.301212 0.703868 0.330792
Si Si3 0.585078 0.744620 0.594974
Si Si4 0.584323 0.965179 0.432246
Si Si5 0.084335 0.746987 0.572924
Si Si6 0.328177 0.857636 0.431497
Si Si7 0.415720 0.940144 0.832246
Si Si8 0.673110 0.849071 0.902679
O O1 0.295042 0.333375 0.250000
O O2 0.244766 0.257618 0.164443
O O3 0.370068 0.302015 0.135479
O O4 0.244412 0.354954 0.119266
O O5 0.327126 0.691145 0.250000
O O6 0.373205 0.708828 0.380507
O O7 0.248972 0.656538 0.358412
O O8 0.500000 0.741029 0.619236
O O9 0.594457 0.736783 0.509848
O O10 0.615982 0.802237 0.617120
O O11 0.500000 0.946650 0.446514
O O12 0.634746 0.914309 0.420575
O O13 0.612027 0.000000 0.500000
O O14 0.590766 0.999626 0.359647
O O15 0.113922 0.688097 0.589978
O O16 0.000000 0.748060 0.597242
O O17 0.304204 0.848901 0.513825
O O18 0.388384 0.937597 0.750000
O O19 0.500000 0.920339 0.839350
O O20 0.365006 0.903977 0.882380
#
# Coordination Sequence:
#
# PCOD8255498 Si02
#       8
#    16  16  16  16  16  16  16  16
#     4   9  18  30  42  61  88 116 147 182 219 263
#     4   9  17  28  41  59  86 117 146 180 220 259
#     4   9  17  28  44  65  89 116 146 180 220 265
#     4  10  19  31  46  64  87 116 152 188 221 257
#     4   9  17  28  43  64  87 114 151 187 216 256
#     4  10  18  29  47  64  84 117 153 186 223 259
#     4  10  20  31  43  63  90 116 145 185 226 261
#     4  10  17  28  45  64  86 116 151 182 218 264
#
# _framework density 15.132896000000001
#
# number of rings (size 3 to 8) (size 9 to 14) (size 15 to 20)
#    0.000    2.500    1.250    1.875    0.000    5.500 
#    0.000    0.000    0.000    2.250    0.000    0.000 
#    0.000    1.500    0.000    2.750    0.000    0.625 
#
# Total GULP energy -793609.548344 kJ/mol
# GULP energy per Si atom -12400.149193 kJ/mol
# Density = 1.509845 g / cm^3
# Si number density = 15.132896 Si / 1000 Ang^3
#
#
#
# Elastic Constant Matrix: (Units=GPa)
#
#
# Indices 1 2 3 4 5 6 
#
# 1 94.0963 38.8755 47.2345 0.0000 0.0000 0.0000
# 2 38.8755 59.2127 26.1603 0.0000 0.0000 0.0000
# 3 47.2345 26.1603 80.4867 0.0000 0.0000 0.0000
# 4 0.0000 0.0000 0.0000 18.4091 0.0000 0.0000
# 5 0.0000 0.0000 0.0000 0.0000 22.6937 0.0000
# 6 0.0000 0.0000 0.0000 0.0000 0.0000 22.4964
#
#
#
# Elastic Compliance Matrix: (Units=1/GPa)
#
#
# Indices 1 2 3 4 5 6 
#
# 1 0.018030 -0.008363 -0.007862 0.000000 0.000000 0.000000
# 2 -0.008363 0.023600 -0.002762 0.000000 0.000000 0.000000
# 3 -0.007862 -0.002762 0.017936 0.000000 0.000000 0.000000
# 4 0.000000 0.000000 0.000000 0.054321 0.000000 0.000000
# 5 0.000000 0.000000 0.000000 0.000000 0.044065 0.000000
# 6 0.000000 0.000000 0.000000 0.000000 0.000000 0.044452
#
#
# Mechanical properties :
#
#
# Convention : Reuss Voigt Hill
#
# Bulk Modulus (GPa) = 46.31975 50.92626 48.62301
# Shear Modulus (GPa) = 20.19581 20.82153 20.50867
#
# Velocity S-wave (km/s) = 3.65713 3.71335 3.68535
# Velocity P-wave (km/s) = 6.96476 7.21880 7.09292
#
# Compressibility (1/GPa) = 0.02158906
#
# Stress axis : x y z
#
# Youngs Moduli (GPa) = 55.46452 42.37363 55.75245
#
# Poissons Ratio (x) = 0.35439 0.43835
# Poissons Ratio (y) = 0.46387 0.15401
# Poissons Ratio (z) = 0.43609 0.11705
#
# Static dielectric constant tensor:
#      x y z
#    x 2.878630 0.000000 0.000000 
#    y 0.000000 2.616890 0.000000 
#    z 0.000000 0.000000 3.044800 
# 
# 
# High freq. dielectric constant tensor:
#      x y z
#    x 1.566040 0.000000 0.000000 
#    y 0.000000 1.541860 0.000000 
#    z 0.000000 0.000000 1.591870 
# 
# From -- ./inp_files/46317.got.cif
#   From: 2010.03.12/outbox.cif.g09.slc.cpg/sg63_24_cif.got.tgz:46317.got - 2010.04.10 19:34:48.
