data_PCOD8255768
_publ_section_title
;
Structure prediction by ZEFSAII (Michael W. Deem and Ramdas Pophale) SiO2 
 PCOD8255768
Probable space group: C M C M
;
_chemical_formula_sum "Si O2"
_cell_formula_units_Z 80
_cell_length_a 8.422845
_cell_length_b 20.740110
_cell_length_c 24.998059
_cell_angle_alpha 90.000000
_cell_angle_beta 90.000000
_cell_angle_gamma 90.000000
_cell_volume 4366.929221
_symmetry_space_group_name_H-M "C M C M"
_symmetry_group_IT_number 63
_symmetry_cell_setting 'orthorhombic'
loop_
_space_group_symop_operation_xyz
x,y,z
-x,-y,1/2+z
x,-y,-z
-x,y,1/2-z
-x,-y,-z
x,y,1/2-z
-x,y,z
x,-y,1/2+z
1/2+x,1/2+y,z
1/2-x,1/2-y,1/2+z
1/2+x,1/2-y,-z
1/2-x,1/2+y,1/2-z
1/2-x,1/2-y,-z
1/2+x,1/2+y,1/2-z
1/2-x,1/2+y,z
1/2+x,1/2-y,1/2+z
loop_
_atom_site_type_symbol
_atom_site_label
_atom_site_fract_x
_atom_site_fract_y
_atom_site_fract_z
Si Si1 0.689243 0.364031 0.864047
Si Si2 0.186363 0.499032 0.750000
Si Si3 0.686717 0.938058 0.466773
Si Si4 0.186194 0.814780 0.525141
Si Si5 0.316377 0.640923 0.250000
Si Si6 0.688185 0.511909 0.859421
O O1 0.500000 0.362000 0.862795
O O2 0.757181 0.324385 0.914640
O O3 0.756301 0.334252 0.807111
O O4 0.743369 0.438242 0.869853
O O5 0.296238 0.435814 0.750000
O O6 0.236129 0.537680 0.696390
O O7 0.000000 0.482757 0.750000
O O8 0.500000 0.929252 0.472426
O O9 0.770864 0.874864 0.488675
O O10 0.747482 0.000000 0.500000
O O11 0.736850 0.944240 0.405388
O O12 0.250000 0.750000 0.500000
O O13 0.000000 0.809201 0.529530
O O14 0.500000 0.658554 0.250000
O O15 0.500000 0.519949 0.858797
#
# Coordination Sequence:
#
# PCOD8255768 Si02
#       6
#    16   8  16  16   8  16
#     4   8  15  28  50  75 102 132 173 218 265 321
#     4  10  18  28  44  75 112 141 170 219 275 321
#     4  11  22  35  54  82 111 140 177 226 277 327
#     4  11  22  37  54  77 108 147 185 226 276 331
#     4   8  14  28  48  73  98 133 174 215 263 323
#     4  10  18  32  53  77 105 142 182 222 268 326
#
# _framework density 18.319509
#
# number of rings (size 3 to 8) (size 9 to 14) (size 15 to 20)
#    0.000    2.200    2.000    3.900    0.000    0.800 
#    0.000    1.000    0.000    1.200    0.000    5.600 
#    0.000    0.000    0.000    0.000    0.000    0.000 
#
# Total GULP energy -495677.593373 kJ/mol
# GULP energy per Si atom -12391.939834 kJ/mol
# Density = 1.827781 g / cm^3
# Si number density = 18.319509 Si / 1000 Ang^3
#
#
#
# Elastic Constant Matrix: (Units=GPa)
#
#
# Indices 1 2 3 4 5 6 
#
# 1 26.8285 5.0768 7.6714 0.0000 0.0000 0.0000
# 2 5.0768 74.6203 55.2694 0.0000 0.0000 0.0000
# 3 7.6714 55.2694 199.6287 0.0000 0.0000 0.0000
# 4 0.0000 0.0000 0.0000 18.8760 0.0000 0.0000
# 5 0.0000 0.0000 0.0000 0.0000 25.5074 0.0000
# 6 0.0000 0.0000 0.0000 0.0000 0.0000 21.2544
#
#
#
# Elastic Compliance Matrix: (Units=1/GPa)
#
#
# Indices 1 2 3 4 5 6 
#
# 1 0.037898 -0.001887 -0.000934 0.000000 0.000000 0.000000
# 2 -0.001887 0.016952 -0.004621 0.000000 0.000000 0.000000
# 3 -0.000934 -0.004621 0.006325 0.000000 0.000000 0.000000
# 4 0.000000 0.000000 0.000000 0.052977 0.000000 0.000000
# 5 0.000000 0.000000 0.000000 0.000000 0.039204 0.000000
# 6 0.000000 0.000000 0.000000 0.000000 0.000000 0.047049
#
#
# Mechanical properties :
#
#
# Convention : Reuss Voigt Hill
#
# Bulk Modulus (GPa) = 21.60219 48.56807 35.08513
# Shear Modulus (GPa) = 21.67141 28.66489 25.16815
#
# Velocity S-wave (km/s) = 3.44316 3.95994 3.71056
# Velocity P-wave (km/s) = 5.25592 6.89039 6.12789
#
# Compressibility (1/GPa) = 0.04629160
#
# Stress axis : x y z
#
# Youngs Moduli (GPa) = 26.38667 58.98975 158.11440
#
# Poissons Ratio (x) = 0.11129 0.14769
# Poissons Ratio (y) = 0.04978 0.73063
# Poissons Ratio (z) = 0.02465 0.27258
#
# Static dielectric constant tensor:
#      x y z
#    x 3.205350 0.000000 0.000000 
#    y 0.000000 3.008830 0.000000 
#    z 0.000000 0.000000 4.175600 
# 
# 
# High freq. dielectric constant tensor:
#      x y z
#    x 1.699670 0.000000 0.000000 
#    y 0.000000 1.648430 0.000000 
#    z 0.000000 0.000000 1.744980 
# 
# From -- ./inp_files/59510.got.cif
#   From: 2010.03.12/outbox.cif.g09.slc.cpg/sg63_30_cif.got.tgz:59510.got - 2010.04.10 19:34:48.
