data_PCOD8255894
_publ_section_title
;
Structure prediction by ZEFSAII (Michael W. Deem and Ramdas Pophale) SiO2 
 PCOD8255894
Probable space group: C M C M
;
_chemical_formula_sum "Si O2"
_cell_formula_units_Z 112
_cell_length_a 22.819720
_cell_length_b 29.827352
_cell_length_c 9.450230
_cell_angle_alpha 90.000000
_cell_angle_beta 90.000000
_cell_angle_gamma 90.000000
_cell_volume 6432.316258
_symmetry_space_group_name_H-M "C M C M"
_symmetry_group_IT_number 63
_symmetry_cell_setting 'orthorhombic'
loop_
_space_group_symop_operation_xyz
x,y,z
-x,-y,1/2+z
x,-y,-z
-x,y,1/2-z
-x,-y,-z
x,y,1/2-z
-x,y,z
x,-y,1/2+z
1/2+x,1/2+y,z
1/2-x,1/2-y,1/2+z
1/2+x,1/2-y,-z
1/2-x,1/2+y,1/2-z
1/2-x,1/2-y,-z
1/2+x,1/2+y,1/2-z
1/2-x,1/2+y,z
1/2+x,1/2-y,1/2+z
loop_
_atom_site_type_symbol
_atom_site_label
_atom_site_fract_x
_atom_site_fract_y
_atom_site_fract_z
Si Si1 0.935553 0.116305 0.917105
Si Si2 0.209131 0.543880 0.914597
Si Si3 0.333958 0.137259 0.916958
Si Si4 0.932967 0.704113 0.916518
Si Si5 0.155241 0.956168 0.085093
Si Si6 0.760286 0.793547 0.410512
Si Si7 0.894576 0.790214 0.411275
O O1 0.927277 0.118912 0.750000
O O2 0.885351 0.083639 0.977413
O O3 0.930107 0.167371 0.973425
O O4 0.000000 0.098050 0.959541
O O5 0.197274 0.534201 0.750000
O O6 0.171316 0.586177 0.973611
O O7 0.277076 0.555964 0.941335
O O8 0.189378 0.500000 0.000000
O O9 0.327724 0.134049 0.750000
O O10 0.395433 0.160255 0.961913
O O11 0.279603 0.166708 0.975072
O O12 0.927202 0.712798 0.750000
O O13 0.000000 0.695489 0.961753
O O14 0.906885 0.747278 0.993355
O O15 0.142671 0.964818 0.250000
O O16 0.136817 0.000000 0.000000
O O17 0.740512 0.783412 0.250000
O O18 0.750000 0.750000 0.500000
O O19 0.827800 0.806858 0.418269
O O20 0.912427 0.778122 0.250000
#
# Coordination Sequence:
#
# PCOD8255894 Si02
#       7
#    16  16  16  16  16  16  16
#     4   9  17  29  45  65  90 123 161 195 228 272
#     4   9  17  31  51  72  93 118 150 191 237 285
#     4   9  17  31  50  70  96 128 158 190 233 284
#     4  10  20  33  49  69  95 129 164 194 229 279
#     4   9  17  30  48  68  89 116 151 191 236 282
#     4  10  18  29  47  71  97 125 157 194 237 282
#     4  10  19  31  49  71  95 125 162 200 237 277
#
# _framework density 17.41208
#
# number of rings (size 3 to 8) (size 9 to 14) (size 15 to 20)
#    0.000    2.571    1.429    1.286    0.000    4.571 
#    0.000    2.143    0.000    4.714    0.000    0.000 
#    0.000    0.000    0.000    0.000    0.000    0.000 
#
# Total GULP energy -694179.945005 kJ/mol
# GULP energy per Si atom -12396.070447 kJ/mol
# Density = 1.737245 g / cm^3
# Si number density = 17.412080 Si / 1000 Ang^3
#
#
#
# Elastic Constant Matrix: (Units=GPa)
#
#
# Indices 1 2 3 4 5 6 
#
# 1 92.3149 57.9228 20.5445 0.0000 0.0000 0.0000
# 2 57.9228 151.0036 35.9782 0.0000 0.0000 0.0000
# 3 20.5445 35.9782 32.7535 0.0000 0.0000 0.0000
# 4 0.0000 0.0000 0.0000 25.9295 0.0000 0.0000
# 5 0.0000 0.0000 0.0000 0.0000 16.0596 0.0000
# 6 0.0000 0.0000 0.0000 0.0000 0.0000 26.9391
#
#
#
# Elastic Compliance Matrix: (Units=1/GPa)
#
#
# Indices 1 2 3 4 5 6 
#
# 1 0.014659 -0.004649 -0.004088 0.000000 0.000000 0.000000
# 2 -0.004649 0.010444 -0.008557 0.000000 0.000000 0.000000
# 3 -0.004088 -0.008557 0.042494 0.000000 0.000000 0.000000
# 4 0.000000 0.000000 0.000000 0.038566 0.000000 0.000000
# 5 0.000000 0.000000 0.000000 0.000000 0.062268 0.000000
# 6 0.000000 0.000000 0.000000 0.000000 0.000000 0.037121
#
#
# Mechanical properties :
#
#
# Convention : Reuss Voigt Hill
#
# Bulk Modulus (GPa) = 30.29350 56.10697 43.20024
# Shear Modulus (GPa) = 19.90889 24.56074 22.23481
#
# Velocity S-wave (km/s) = 3.38508 3.75981 3.57736
# Velocity P-wave (km/s) = 5.71963 7.15131 6.47516
#
# Compressibility (1/GPa) = 0.03301038
#
# Stress axis : x y z
#
# Youngs Moduli (GPa) = 68.21588 95.74558 23.53257
#
# Poissons Ratio (x) = 0.44513 0.09621
# Poissons Ratio (y) = 0.31714 0.20136
# Poissons Ratio (z) = 0.27888 0.81925
#
# Static dielectric constant tensor:
#      x y z
#    x 3.488210 0.000000 0.000000 
#    y 0.000000 3.376460 0.000000 
#    z 0.000000 0.000000 2.980310 
# 
# 
# High freq. dielectric constant tensor:
#      x y z
#    x 1.670820 0.000000 0.000000 
#    y 0.000000 1.674360 0.000000 
#    z 0.000000 0.000000 1.636170 
# 
# From -- ./inp_files/23135.got.cif
#   From: 2010.03.12/outbox.cif.g09.slc.cpg/sg63_12_cif.got.tgz:23135.got - 2010.04.10 19:34:48.
