data_PCOD8255060
_publ_section_title
;
Structure prediction by ZEFSAII (Michael W. Deem and Ramdas Pophale) SiO2 
 PCOD8255060
Probable space group: P N M A
;
_chemical_formula_sum "Si O2"
_cell_formula_units_Z 40
_cell_length_a 9.664694
_cell_length_b 8.648727
_cell_length_c 25.611746
_cell_angle_alpha 90.000000
_cell_angle_beta 90.000000
_cell_angle_gamma 90.000000
_cell_volume 2140.816695
_symmetry_space_group_name_H-M "P N M A"
_symmetry_group_IT_number 62
_symmetry_cell_setting 'orthorhombic'
loop_
_space_group_symop_operation_xyz
x,y,z
1/2-x,-y,1/2+z
1/2+x,1/2-y,1/2-z
-x,1/2+y,-z
-x,-y,-z
1/2+x,y,1/2-z
1/2-x,1/2+y,1/2+z
x,1/2-y,z
loop_
_atom_site_type_symbol
_atom_site_label
_atom_site_fract_x
_atom_site_fract_y
_atom_site_fract_z
Si Si1 0.334870 0.567944 0.907891
Si Si2 0.148547 0.566455 0.585934
Si Si3 0.847589 0.567624 0.004416
Si Si4 0.667608 0.934573 0.798671
Si Si5 0.861721 0.932771 0.709429
O O1 0.319590 0.750000 0.918075
O O2 0.490077 0.510316 0.922768
O O3 0.220933 0.477455 0.940901
O O4 0.302109 0.525902 0.847664
O O5 0.147172 0.750000 0.584228
O O6 0.250031 0.498603 0.541700
O O7 0.205402 0.510765 0.642527
O O8 0.858656 0.750000 0.999536
O O9 0.000000 0.500000 0.000000
O O10 0.668567 0.750000 0.796431
O O11 0.771012 0.007209 0.755913
O O12 0.515980 0.998503 0.784583
O O13 0.864233 0.750000 0.715807
#
# Coordination Sequence:
#
# PCOD8255060 Si02
#       5
#     8   8   8   8   8
#     4   9  17  32  51  72  96 124 157 194 233 283
#     4   8  16  30  48  69  96 126 159 196 236 281
#     4  11  22  34  48  70  97 127 160 200 245 287
#     4   8  13  23  39  65  96 122 148 186 233 278
#     4   8  14  23  40  66  95 121 147 182 229 277
#
# _framework density 18.684457999999999
#
# number of rings (size 3 to 8) (size 9 to 14) (size 15 to 20)
#    0.000    3.200    0.000    3.600    0.000    1.600 
#    0.000    7.000    0.000    0.000    0.000   14.000 
#    0.000    0.000    0.000    0.000    0.000    0.000 
#
# Total GULP energy -495725.595084 kJ/mol
# GULP energy per Si atom -12393.139877 kJ/mol
# Density = 1.864193 g / cm^3
# Si number density = 18.684458 Si / 1000 Ang^3
#
#
#
# Elastic Constant Matrix: (Units=GPa)
#
#
# Indices 1 2 3 4 5 6 
#
# 1 98.2173 14.7992 58.4476 0.0000 0.0000 0.0000
# 2 14.7992 21.6619 12.4267 0.0000 0.0000 0.0000
# 3 58.4476 12.4267 111.7167 0.0000 0.0000 0.0000
# 4 0.0000 0.0000 0.0000 19.1568 0.0000 0.0000
# 5 0.0000 0.0000 0.0000 0.0000 43.4441 0.0000
# 6 0.0000 0.0000 0.0000 0.0000 0.0000 18.2955
#
#
#
# Elastic Compliance Matrix: (Units=1/GPa)
#
#
# Indices 1 2 3 4 5 6 
#
# 1 0.015566 -0.006369 -0.007435 0.000000 0.000000 0.000000
# 2 -0.006369 0.051916 -0.002443 0.000000 0.000000 0.000000
# 3 -0.007435 -0.002443 0.013113 0.000000 0.000000 0.000000
# 4 0.000000 0.000000 0.000000 0.052201 0.000000 0.000000
# 5 0.000000 0.000000 0.000000 0.000000 0.023018 0.000000
# 6 0.000000 0.000000 0.000000 0.000000 0.000000 0.054658
#
#
# Mechanical properties :
#
#
# Convention : Reuss Voigt Hill
#
# Bulk Modulus (GPa) = 20.78953 44.77144 32.78049
# Shear Modulus (GPa) = 19.30504 25.90744 22.60624
#
# Velocity S-wave (km/s) = 3.21785 3.72772 3.48213
# Velocity P-wave (km/s) = 4.99569 6.52240 5.80941
#
# Compressibility (1/GPa) = 0.04810113
#
# Stress axis : x y z
#
# Youngs Moduli (GPa) = 64.24371 19.26172 76.26105
#
# Poissons Ratio (x) = 0.12268 0.56701
# Poissons Ratio (y) = 0.40917 0.18629
# Poissons Ratio (z) = 0.47766 0.04705
#
# Static dielectric constant tensor:
#      x y z
#    x 3.688100 0.000000 0.000000 
#    y 0.000000 2.793310 0.000000 
#    z 0.000000 0.000000 3.831220 
# 
# 
# High freq. dielectric constant tensor:
#      x y z
#    x 1.724950 0.000000 0.000000 
#    y 0.000000 1.661910 0.000000 
#    z 0.000000 0.000000 1.740680 
# 
# From -- ./inp_files/28589.got.cif
#   From: 2010.03.12/outbox.cif.g09.slc.cpg/sg62_15_cif.got.tgz:28589.got - 2010.04.10 19:12:36.
