data_PCOD8255177
_publ_section_title
;
Structure prediction by ZEFSAII (Michael W. Deem and Ramdas Pophale) SiO2 
 PCOD8255177
Probable space group: P N M A
;
_chemical_formula_sum "Si O2"
_cell_formula_units_Z 44
_cell_length_a 17.875608
_cell_length_b 14.213650
_cell_length_c 8.703905
_cell_angle_alpha 90.000000
_cell_angle_beta 90.000000
_cell_angle_gamma 90.000000
_cell_volume 2211.467603
_symmetry_space_group_name_H-M "P N M A"
_symmetry_group_IT_number 62
_symmetry_cell_setting 'orthorhombic'
loop_
_space_group_symop_operation_xyz
x,y,z
1/2-x,-y,1/2+z
1/2+x,1/2-y,1/2-z
-x,1/2+y,-z
-x,-y,-z
1/2+x,y,1/2-z
1/2-x,1/2+y,1/2+z
x,1/2-y,z
loop_
_atom_site_type_symbol
_atom_site_label
_atom_site_fract_x
_atom_site_fract_y
_atom_site_fract_z
Si Si1 0.773788 0.902772 0.846252
Si Si2 0.389156 0.750000 0.555752
Si Si3 0.812933 0.423391 0.645082
Si Si4 0.752726 0.750000 0.320296
Si Si5 0.475820 0.395181 0.962265
Si Si6 0.189493 0.750000 0.846458
Si Si7 0.076736 0.250000 0.704419
Si Si8 0.970358 0.250000 0.274143
O O1 0.839509 0.842560 0.922476
O O2 0.722617 0.842145 0.733055
O O3 0.811739 0.985265 0.750619
O O4 0.721833 0.946921 0.978767
O O5 0.424732 0.750000 0.387729
O O6 0.454103 0.750000 0.679341
O O7 0.764945 0.340620 0.719099
O O8 0.898177 0.390896 0.629077
O O9 0.705557 0.750000 0.474321
O O10 0.839869 0.750000 0.363536
O O11 0.536929 0.344267 0.856002
O O12 0.500000 0.500000 0.000000
O O13 0.467352 0.342919 0.123318
O O14 0.100231 0.750000 0.837997
#
# Coordination Sequence:
#
# PCOD8255177 Si02
#       8
#     8   4   8   4   8   4   4   4
#     4  11  24  43  70  98 133 173 227 279 333 406
#     4  11  24  45  66  99 136 175 226 282 330 395
#     4  12  24  45  67  98 132 177 221 281 341 403
#     4  12  25  43  70  96 137 177 229 279 339 397
#     4  11  26  44  68  98 136 177 224 273 346 409
#     4  11  24  41  69  97 129 174 222 276 334 401
#     4  11  26  45  69  97 135 180 222 277 336 403
#     4  11  23  44  68  95 137 178 219 278 337 404
#
# _framework density 19.89629
#
# number of rings (size 3 to 8) (size 9 to 14) (size 15 to 20)
#    0.000    0.727    3.636    3.818   12.727    0.000 
#    3.273    1.818    0.000    0.000    0.000    0.000 
#    0.000    0.000    0.000    0.000    0.000    0.000 
#
# Total GULP energy -545921.086291 kJ/mol
# GULP energy per Si atom -12407.297416 kJ/mol
# Density = 1.985100 g / cm^3
# Si number density = 19.896290 Si / 1000 Ang^3
#
#
#
# Elastic Constant Matrix: (Units=GPa)
#
#
# Indices 1 2 3 4 5 6 
#
# 1 142.6569 42.9168 31.0592 0.0000 0.0000 0.0000
# 2 42.9168 132.9013 38.7320 0.0000 0.0000 0.0000
# 3 31.0592 38.7320 100.3634 0.0000 0.0000 0.0000
# 4 0.0000 0.0000 0.0000 30.1257 0.0000 0.0000
# 5 0.0000 0.0000 0.0000 0.0000 47.1289 0.0000
# 6 0.0000 0.0000 0.0000 0.0000 0.0000 40.0205
#
#
#
# Elastic Compliance Matrix: (Units=1/GPa)
#
#
# Indices 1 2 3 4 5 6 
#
# 1 0.008004 -0.002099 -0.001667 0.000000 0.000000 0.000000
# 2 -0.002099 0.009028 -0.002835 0.000000 0.000000 0.000000
# 3 -0.001667 -0.002835 0.011574 0.000000 0.000000 0.000000
# 4 0.000000 0.000000 0.000000 0.033194 0.000000 0.000000
# 5 0.000000 0.000000 0.000000 0.000000 0.021218 0.000000
# 6 0.000000 0.000000 0.000000 0.000000 0.000000 0.024987
#
#
# Mechanical properties :
#
#
# Convention : Reuss Voigt Hill
#
# Bulk Modulus (GPa) = 64.91417 66.81530 65.86474
# Shear Modulus (GPa) = 39.57512 41.00261 40.28886
#
# Velocity S-wave (km/s) = 4.46474 4.54455 4.50482
# Velocity P-wave (km/s) = 7.69907 7.82253 7.76104
#
# Compressibility (1/GPa) = 0.01540496
#
# Stress axis : x y z
#
# Youngs Moduli (GPa) = 124.93439 110.76316 86.40340
#
# Poissons Ratio (x) = 0.23248 0.14404
# Poissons Ratio (y) = 0.26222 0.24492
# Poissons Ratio (z) = 0.20827 0.31397
#
# Static dielectric constant tensor:
#      x y z
#    x 3.760240 0.000000 0.000000 
#    y 0.000000 3.053690 0.000000 
#    z 0.000000 0.000000 3.703950 
# 
# 
# High freq. dielectric constant tensor:
#      x y z
#    x 1.791620 0.000000 0.000000 
#    y 0.000000 1.783490 0.000000 
#    z 0.000000 0.000000 1.787800 
# 
# From -- ./inp_files/7590.got.cif
#   From: 2010.03.12/outbox.cif.g09.slc.cpg/sg62_4_cif.got.tgz:7590.got - 2010.04.10 19:12:36.
