data_PCOD8255189
_publ_section_title
;
Structure prediction by ZEFSAII (Michael W. Deem and Ramdas Pophale) SiO2 
 PCOD8255189
Probable space group: P N M A
;
_chemical_formula_sum "Si O2"
_cell_formula_units_Z 40
_cell_length_a 8.190330
_cell_length_b 25.694516
_cell_length_c 8.649665
_cell_angle_alpha 90.000000
_cell_angle_beta 90.000000
_cell_angle_gamma 90.000000
_cell_volume 1820.292290
_symmetry_space_group_name_H-M "P N M A"
_symmetry_group_IT_number 62
_symmetry_cell_setting 'orthorhombic'
loop_
_space_group_symop_operation_xyz
x,y,z
1/2-x,-y,1/2+z
1/2+x,1/2-y,1/2-z
-x,1/2+y,-z
-x,-y,-z
1/2+x,y,1/2-z
1/2-x,1/2+y,1/2+z
x,1/2-y,z
loop_
_atom_site_type_symbol
_atom_site_label
_atom_site_fract_x
_atom_site_fract_y
_atom_site_fract_z
Si Si1 0.163418 0.946690 0.373767
Si Si2 0.789663 0.847909 0.965501
Si Si3 0.840878 0.348252 0.135393
Si Si4 0.291550 0.553319 0.039621
Si Si5 0.842517 0.250000 0.639527
Si Si6 0.711352 0.250000 0.967609
O O1 0.276199 0.900862 0.438323
O O2 0.177525 0.949723 0.189465
O O3 0.976589 0.935158 0.413191
O O4 0.226915 0.999925 0.447129
O O5 0.667441 0.848942 0.820632
O O6 0.972490 0.840798 0.908039
O O7 0.747448 0.800829 0.077815
O O8 0.769292 0.401806 0.072679
O O9 0.735538 0.300642 0.071614
O O10 0.836665 0.250000 0.825016
O O11 0.029644 0.250000 0.595057
#
# Coordination Sequence:
#
# PCOD8255189 Si02
#       6
#     8   8   8   8   4   4
#     4  11  24  42  65  94 128 167 211 259 313 372
#     4  12  25  43  66  94 128 166 210 259 314 373
#     4  12  25  43  66  94 128 166 210 259 314 373
#     4  11  24  42  65  94 128 167 211 259 313 372
#     4  12  25  44  67  94 128 166 210 258 313 372
#     4  12  25  44  67  94 128 166 210 258 313 372
#
# _framework density 21.974492999999999
#
# number of rings (size 3 to 8) (size 9 to 14) (size 15 to 20)
#    0.000    0.400    0.000    9.600    0.000    6.400 
#    0.000    0.000    0.000    0.000    0.000    0.000 
#    0.000    0.000    0.000    0.000    0.000    0.000 
#
# Total GULP energy -496432.430061 kJ/mol
# GULP energy per Si atom -12410.810752 kJ/mol
# Density = 2.192448 g / cm^3
# Si number density = 21.974493 Si / 1000 Ang^3
#
#
#
# Elastic Constant Matrix: (Units=GPa)
#
#
# Indices 1 2 3 4 5 6 
#
# 1 63.9883 20.9116 -21.8526 0.0000 0.0000 0.0000
# 2 20.9116 135.6578 36.9256 0.0000 0.0000 0.0000
# 3 -21.8526 36.9256 98.0743 0.0000 0.0000 0.0000
# 4 0.0000 0.0000 0.0000 35.5621 0.0000 0.0000
# 5 0.0000 0.0000 0.0000 0.0000 39.3560 0.0000
# 6 0.0000 0.0000 0.0000 0.0000 0.0000 41.7006
#
#
#
# Elastic Compliance Matrix: (Units=1/GPa)
#
#
# Indices 1 2 3 4 5 6 
#
# 1 0.019177 -0.004590 0.006001 0.000000 0.000000 0.000000
# 2 -0.004590 0.009312 -0.004529 0.000000 0.000000 0.000000
# 3 0.006001 -0.004529 0.013238 0.000000 0.000000 0.000000
# 4 0.000000 0.000000 0.000000 0.028120 0.000000 0.000000
# 5 0.000000 0.000000 0.000000 0.000000 0.025409 0.000000
# 6 0.000000 0.000000 0.000000 0.000000 0.000000 0.023980
#
#
# Mechanical properties :
#
#
# Convention : Reuss Voigt Hill
#
# Bulk Modulus (GPa) = 28.17453 41.07660 34.62557
# Shear Modulus (GPa) = 36.41610 40.77280 38.59445
#
# Velocity S-wave (km/s) = 4.07529 4.31218 4.19540
# Velocity P-wave (km/s) = 5.91551 6.59747 6.26577
#
# Compressibility (1/GPa) = 0.03549305
#
# Stress axis : x y z
#
# Youngs Moduli (GPa) = 52.14534 107.39266 75.53729
#
# Poissons Ratio (x) = 0.49289 -0.45330
# Poissons Ratio (y) = 0.23933 0.34207
# Poissons Ratio (z) = -0.31292 0.48633
#
# Static dielectric constant tensor:
#      x y z
#    x 3.996200 0.000000 0.000000 
#    y 0.000000 4.106280 0.000000 
#    z 0.000000 0.000000 4.239000 
# 
# 
# High freq. dielectric constant tensor:
#      x y z
#    x 1.878230 0.000000 0.000000 
#    y 0.000000 1.882900 0.000000 
#    z 0.000000 0.000000 1.880590 
# 
# From -- ./inp_files/4332.got.cif
#   From: 2010.03.12/outbox.cif.g09.slc.cpg/sg62_3_cif.got.tgz:4332.got - 2010.04.10 19:12:36.
