data_PCOD8255987
_publ_section_title
;
Structure prediction by ZEFSAII (Michael W. Deem and Ramdas Pophale) SiO2 
 PCOD8255987
Probable space group: C M C M
;
_chemical_formula_sum "Si O2"
_cell_formula_units_Z 96
_cell_length_a 22.454661
_cell_length_b 27.168882
_cell_length_c 9.106430
_cell_angle_alpha 90.000000
_cell_angle_beta 90.000000
_cell_angle_gamma 90.000000
_cell_volume 5555.541857
_symmetry_space_group_name_H-M "C M C M"
_symmetry_group_IT_number 63
_symmetry_cell_setting 'orthorhombic'
loop_
_space_group_symop_operation_xyz
x,y,z
-x,-y,1/2+z
x,-y,-z
-x,y,1/2-z
-x,-y,-z
x,y,1/2-z
-x,y,z
x,-y,1/2+z
1/2+x,1/2+y,z
1/2-x,1/2-y,1/2+z
1/2+x,1/2-y,-z
1/2-x,1/2+y,1/2-z
1/2-x,1/2-y,-z
1/2+x,1/2+y,1/2-z
1/2-x,1/2+y,z
1/2+x,1/2-y,1/2+z
loop_
_atom_site_type_symbol
_atom_site_label
_atom_site_fract_x
_atom_site_fract_y
_atom_site_fract_z
Si Si1 0.184565 0.692341 0.914600
Si Si2 0.740993 0.948669 0.574518
Si Si3 0.500000 0.130192 0.422246
Si Si4 0.880248 0.210758 0.080945
Si Si5 0.627388 0.892207 0.921259
Si Si6 0.000000 0.264837 0.423336
Si Si7 0.195630 0.861409 0.419805
O O1 0.165147 0.677833 0.750000
O O2 0.172801 0.749761 0.942024
O O3 0.253298 0.679588 0.940713
O O4 0.142275 0.661761 0.020916
O O5 0.746135 0.952633 0.750000
O O6 0.674275 0.932866 0.519465
O O7 0.788680 0.909511 0.514547
O O8 0.756558 0.000000 0.500000
O O9 0.500000 0.142344 0.250000
O O10 0.441660 0.097359 0.464152
O O11 0.500000 0.181912 0.503989
O O12 0.884626 0.194141 0.250000
O O13 0.942389 0.233865 0.026635
O O14 0.864696 0.162868 0.983447
O O15 0.636683 0.890029 0.750000
O O16 0.000000 0.273714 0.250000
O O17 0.186629 0.876185 0.250000
#
# Coordination Sequence:
#
# PCOD8255987 Si02
#       7
#    16  16   8  16  16   8  16
#     4   9  17  29  46  68  97 131 167 203 241 289
#     4  10  20  36  55  74  97 125 160 207 260 308
#     4  10  18  30  47  69  97 133 175 210 244 287
#     4  10  19  31  46  69 101 136 169 202 241 287
#     4   9  18  30  47  70  97 130 167 208 250 292
#     4  10  20  32  48  69 100 141 177 206 238 281
#     4  10  20  32  49  74  99 127 163 205 250 298
#
# _framework density 17.280042999999999
#
# number of rings (size 3 to 8) (size 9 to 14) (size 15 to 20)
#    0.000    2.333    1.667    1.500    0.000    2.667 
#    0.000    0.417    0.000    0.000    0.000    0.583 
#    0.000    0.000    0.000    0.000    0.000    0.000 
#
# Total GULP energy -594973.056956 kJ/mol
# GULP energy per Si atom -12395.272020 kJ/mol
# Density = 1.724071 g / cm^3
# Si number density = 17.280043 Si / 1000 Ang^3
#
#
#
# Elastic Constant Matrix: (Units=GPa)
#
#
# Indices 1 2 3 4 5 6 
#
# 1 50.5768 34.8273 20.8290 0.0000 0.0000 0.0000
# 2 34.8273 85.6468 33.0144 0.0000 0.0000 0.0000
# 3 20.8290 33.0144 42.3520 0.0000 0.0000 0.0000
# 4 0.0000 0.0000 0.0000 27.6493 0.0000 0.0000
# 5 0.0000 0.0000 0.0000 0.0000 20.1097 0.0000
# 6 0.0000 0.0000 0.0000 0.0000 0.0000 15.6167
#
#
#
# Elastic Compliance Matrix: (Units=1/GPa)
#
#
# Indices 1 2 3 4 5 6 
#
# 1 0.028932 -0.008978 -0.007231 0.000000 0.000000 0.000000
# 2 -0.008978 0.019477 -0.010768 0.000000 0.000000 0.000000
# 3 -0.007231 -0.010768 0.035561 0.000000 0.000000 0.000000
# 4 0.000000 0.000000 0.000000 0.036167 0.000000 0.000000
# 5 0.000000 0.000000 0.000000 0.000000 0.049727 0.000000
# 6 0.000000 0.000000 0.000000 0.000000 0.000000 0.064034
#
#
# Mechanical properties :
#
#
# Convention : Reuss Voigt Hill
#
# Bulk Modulus (GPa) = 33.31276 39.54632 36.42954
# Shear Modulus (GPa) = 16.78662 18.66880 17.72771
#
# Velocity S-wave (km/s) = 3.12018 3.29046 3.20645
# Velocity P-wave (km/s) = 5.68337 6.11322 5.90221
#
# Compressibility (1/GPa) = 0.03001853
#
# Stress axis : x y z
#
# Youngs Moduli (GPa) = 34.56420 51.34242 28.12045
#
# Poissons Ratio (x) = 0.46093 0.20333
# Poissons Ratio (y) = 0.31030 0.30279
# Poissons Ratio (z) = 0.24992 0.55284
#
# Static dielectric constant tensor:
#      x y z
#    x 3.314570 0.000000 0.000000 
#    y 0.000000 2.966760 0.000000 
#    z 0.000000 0.000000 3.247030 
# 
# 
# High freq. dielectric constant tensor:
#      x y z
#    x 1.655530 0.000000 0.000000 
#    y 0.000000 1.638090 0.000000 
#    z 0.000000 0.000000 1.671140 
# 
# From -- ./inp_files/10747.got.cif
#   From: 2010.03.12/outbox.cif.g09.slc.cpg/sg63_6_cif.got.tgz:10747.got - 2010.04.10 19:34:48.
