data_PCOD8255157
_publ_section_title
;
Structure prediction by ZEFSAII (Michael W. Deem and Ramdas Pophale) SiO2 
 PCOD8255157
Probable space group: P N M A
;
_chemical_formula_sum "Si O2"
_cell_formula_units_Z 48
_cell_length_a 28.147202
_cell_length_b 8.653820
_cell_length_c 9.254026
_cell_angle_alpha 90.000000
_cell_angle_beta 90.000000
_cell_angle_gamma 90.000000
_cell_volume 2254.103238
_symmetry_space_group_name_H-M "P N M A"
_symmetry_group_IT_number 62
_symmetry_cell_setting 'orthorhombic'
loop_
_space_group_symop_operation_xyz
x,y,z
1/2-x,-y,1/2+z
1/2+x,1/2-y,1/2-z
-x,1/2+y,-z
-x,-y,-z
1/2+x,y,1/2-z
1/2-x,1/2+y,1/2+z
x,1/2-y,z
loop_
_atom_site_type_symbol
_atom_site_label
_atom_site_fract_x
_atom_site_fract_y
_atom_site_fract_z
Si Si1 0.196874 0.928102 0.011287
Si Si2 0.958998 0.923623 0.409281
Si Si3 0.380344 0.568805 0.702254
Si Si4 0.636383 0.929879 0.996989
Si Si5 0.786409 0.572003 0.295264
Si Si6 0.020930 0.576690 0.139646
O O1 0.192243 0.750000 0.966635
O O2 0.233970 0.952731 0.141251
O O3 0.146210 0.988242 0.068144
O O4 0.213770 0.022247 0.871417
O O5 0.948250 0.750000 0.466157
O O6 0.976167 0.919857 0.245542
O O7 0.912338 0.026759 0.418244
O O8 0.000000 0.000000 0.500000
O O9 0.376075 0.750000 0.679997
O O10 0.435363 0.519406 0.705203
O O11 0.356591 0.522392 0.854132
O O12 0.636436 0.750000 0.035404
O O13 0.678293 0.967152 0.887229
O O14 0.802448 0.750000 0.306862
O O15 0.039024 0.750000 0.107851
O O16 0.000000 0.500000 0.000000
#
# Coordination Sequence:
#
# PCOD8255157 Si02
#       6
#     8   8   8   8   8   8
#     4  11  25  45  70  99 133 171 215 267 325 388
#     4  11  23  41  66  95 130 173 221 268 321 386
#     4  12  25  43  68  96 132 174 218 271 327 388
#     4  12  25  42  67  97 133 174 219 270 325 388
#     4  11  25  45  70 100 133 171 216 267 324 388
#     4  11  25  43  65  94 132 174 220 270 326 388
#
# _framework density 21.294498999999998
#
# number of rings (size 3 to 8) (size 9 to 14) (size 15 to 20)
#    0.000    0.667    1.667    6.000    2.333    7.333 
#    0.000    0.000    0.000    0.000    0.000    0.000 
#    0.000    0.000    0.000    0.000    0.000    0.000 
#
# Total GULP energy -595553.538020 kJ/mol
# GULP energy per Si atom -12407.365375 kJ/mol
# Density = 2.124603 g / cm^3
# Si number density = 21.294499 Si / 1000 Ang^3
#
#
#
# Elastic Constant Matrix: (Units=GPa)
#
#
# Indices 1 2 3 4 5 6 
#
# 1 71.7503 29.2714 10.9585 0.0000 0.0000 0.0000
# 2 29.2714 116.6121 27.3203 0.0000 0.0000 0.0000
# 3 10.9585 27.3203 104.4045 0.0000 0.0000 0.0000
# 4 0.0000 0.0000 0.0000 38.4160 0.0000 0.0000
# 5 0.0000 0.0000 0.0000 0.0000 41.8812 0.0000
# 6 0.0000 0.0000 0.0000 0.0000 0.0000 32.2612
#
#
#
# Elastic Compliance Matrix: (Units=1/GPa)
#
#
# Indices 1 2 3 4 5 6 
#
# 1 0.015569 -0.003755 -0.000651 0.000000 0.000000 0.000000
# 2 -0.003755 0.010041 -0.002233 0.000000 0.000000 0.000000
# 3 -0.000651 -0.002233 0.010231 0.000000 0.000000 0.000000
# 4 0.000000 0.000000 0.000000 0.026031 0.000000 0.000000
# 5 0.000000 0.000000 0.000000 0.000000 0.023877 0.000000
# 6 0.000000 0.000000 0.000000 0.000000 0.000000 0.030997
#
#
# Mechanical properties :
#
#
# Convention : Reuss Voigt Hill
#
# Bulk Modulus (GPa) = 44.32508 47.54082 45.93295
# Shear Modulus (GPa) = 36.35133 37.52613 36.93873
#
# Velocity S-wave (km/s) = 4.13616 4.20246 4.16944
# Velocity P-wave (km/s) = 6.60840 6.77654 6.69300
#
# Compressibility (1/GPa) = 0.02256059
#
# Stress axis : x y z
#
# Youngs Moduli (GPa) = 64.23119 99.58829 97.74274
#
# Poissons Ratio (x) = 0.37399 0.06367
# Poissons Ratio (y) = 0.24121 0.21830
# Poissons Ratio (z) = 0.04184 0.22242
#
# Static dielectric constant tensor:
#      x y z
#    x 3.689410 0.000000 0.000000 
#    y 0.000000 4.047000 0.000000 
#    z 0.000000 0.000000 3.403450 
# 
# 
# High freq. dielectric constant tensor:
#      x y z
#    x 1.840740 0.000000 0.000000 
#    y 0.000000 1.852260 0.000000 
#    z 0.000000 0.000000 1.844480 
# 
# From -- ./inp_files/10232.got.cif
#   From: 2010.03.12/outbox.cif.g09.slc.cpg/sg62_6_cif.got.tgz:10232.got - 2010.04.10 19:12:36.
