data_PCOD8255493
_publ_section_title
;
Structure prediction by ZEFSAII (Michael W. Deem and Ramdas Pophale) SiO2 
 PCOD8255493
Probable space group: C M C M
;
_chemical_formula_sum "Si O2"
_cell_formula_units_Z 112
_cell_length_a 21.724417
_cell_length_b 18.908698
_cell_length_c 17.811696
_cell_angle_alpha 90.000000
_cell_angle_beta 90.000000
_cell_angle_gamma 90.000000
_cell_volume 7316.696325
_symmetry_space_group_name_H-M "C M C M"
_symmetry_group_IT_number 63
_symmetry_cell_setting 'orthorhombic'
loop_
_space_group_symop_operation_xyz
x,y,z
-x,-y,1/2+z
x,-y,-z
-x,y,1/2-z
-x,-y,-z
x,y,1/2-z
-x,y,z
x,-y,1/2+z
1/2+x,1/2+y,z
1/2-x,1/2-y,1/2+z
1/2+x,1/2-y,-z
1/2-x,1/2+y,1/2-z
1/2-x,1/2-y,-z
1/2+x,1/2+y,1/2-z
1/2-x,1/2+y,z
1/2+x,1/2-y,1/2+z
loop_
_atom_site_type_symbol
_atom_site_label
_atom_site_fract_x
_atom_site_fract_y
_atom_site_fract_z
Si Si1 0.430341 0.756138 0.435843
Si Si2 0.567629 0.381347 0.834807
Si Si3 0.329698 0.198314 0.835397
Si Si4 0.337630 0.278029 0.446625
Si Si5 0.691089 0.543629 0.162715
Si Si6 0.708151 0.615231 0.662415
Si Si7 0.236029 0.822006 0.909808
O O1 0.500000 0.784663 0.441841
O O2 0.426214 0.683446 0.390852
O O3 0.387947 0.813185 0.391249
O O4 0.404249 0.742520 0.519847
O O5 0.575853 0.352191 0.750000
O O6 0.500000 0.416773 0.844295
O O7 0.619352 0.439279 0.853157
O O8 0.352169 0.190751 0.750000
O O9 0.277514 0.140965 0.855297
O O10 0.301711 0.276483 0.848279
O O11 0.341999 0.335663 0.380044
O O12 0.305932 0.206166 0.415661
O O13 0.295495 0.314439 0.509653
O O14 0.708065 0.549524 0.250000
O O15 0.702979 0.464762 0.132979
O O16 0.735375 0.596816 0.116977
O O17 0.692403 0.621016 0.750000
#
# Coordination Sequence:
#
# PCOD8255493 Si02
#       7
#    16  16  16  16  16  16  16
#     4  10  18  28  45  67  90 119 152 184 219 265
#     4   9  16  26  41  63  92 122 150 178 210 256
#     4   9  15  27  44  67  94 116 141 185 233 275
#     4   9  17  30  42  60  89 116 147 183 224 263
#     4  10  17  28  44  67  92 118 152 187 217 265
#     4   9  19  30  44  64  90 119 150 188 232 266
#     4   9  16  26  44  64  85 118 147 179 223 263
#
# _framework density 15.307454999999999
#
# number of rings (size 3 to 8) (size 9 to 14) (size 15 to 20)
#    0.000    2.714    2.857    1.714    0.000    2.000 
#    0.000    0.714    0.000    3.000    0.000    2.000 
#    0.000    1.143    0.000    0.000    0.000    0.143 
#
# Total GULP energy -694143.411254 kJ/mol
# GULP energy per Si atom -12395.418058 kJ/mol
# Density = 1.527261 g / cm^3
# Si number density = 15.307455 Si / 1000 Ang^3
#
#
#
# Elastic Constant Matrix: (Units=GPa)
#
#
# Indices 1 2 3 4 5 6 
#
# 1 91.9966 34.5245 37.3059 0.0000 0.0000 0.0000
# 2 34.5245 68.9500 30.5854 0.0000 0.0000 0.0000
# 3 37.3059 30.5854 56.3158 0.0000 0.0000 0.0000
# 4 0.0000 0.0000 0.0000 18.3575 0.0000 0.0000
# 5 0.0000 0.0000 0.0000 0.0000 22.5990 0.0000
# 6 0.0000 0.0000 0.0000 0.0000 0.0000 16.4470
#
#
#
# Elastic Compliance Matrix: (Units=1/GPa)
#
#
# Indices 1 2 3 4 5 6 
#
# 1 0.015774 -0.004299 -0.008115 0.000000 0.000000 0.000000
# 2 -0.004299 0.020278 -0.008165 0.000000 0.000000 0.000000
# 3 -0.008115 -0.008165 0.027567 0.000000 0.000000 0.000000
# 4 0.000000 0.000000 0.000000 0.054474 0.000000 0.000000
# 5 0.000000 0.000000 0.000000 0.000000 0.044250 0.000000
# 6 0.000000 0.000000 0.000000 0.000000 0.000000 0.060801
#
#
# Mechanical properties :
#
#
# Convention : Reuss Voigt Hill
#
# Bulk Modulus (GPa) = 44.52078 46.89934 45.71006
# Shear Modulus (GPa) = 18.39674 19.13715 18.76695
#
# Velocity S-wave (km/s) = 3.47048 3.53963 3.50523
# Velocity P-wave (km/s) = 6.72358 6.88550 6.80502
#
# Compressibility (1/GPa) = 0.02246142
#
# Stress axis : x y z
#
# Youngs Moduli (GPa) = 63.39657 49.31517 36.27525
#
# Poissons Ratio (x) = 0.21199 0.29436
# Poissons Ratio (y) = 0.27252 0.29620
# Poissons Ratio (z) = 0.51443 0.40267
#
# Static dielectric constant tensor:
#      x y z
#    x 3.059470 0.000000 0.000000 
#    y 0.000000 2.785440 0.000000 
#    z 0.000000 0.000000 3.018010 
# 
# 
# High freq. dielectric constant tensor:
#      x y z
#    x 1.568200 0.000000 0.000000 
#    y 0.000000 1.555830 0.000000 
#    z 0.000000 0.000000 1.588590 
# 
# From -- ./inp_files/56887.got.cif
#   From: 2010.03.12/outbox.cif.g09.slc.cpg/sg63_29_cif.got.tgz:56887.got - 2010.04.10 19:34:48.
