data_PCOD8255772
_publ_section_title
;
Structure prediction by ZEFSAII (Michael W. Deem and Ramdas Pophale) SiO2 
 PCOD8255772
Probable space group: C M C M
;
_chemical_formula_sum "Si O2"
_cell_formula_units_Z 80
_cell_length_a 9.248249
_cell_length_b 27.344284
_cell_length_c 18.704710
_cell_angle_alpha 90.000000
_cell_angle_beta 90.000000
_cell_angle_gamma 90.000000
_cell_volume 4730.173268
_symmetry_space_group_name_H-M "C M C M"
_symmetry_group_IT_number 63
_symmetry_cell_setting 'orthorhombic'
loop_
_space_group_symop_operation_xyz
x,y,z
-x,-y,1/2+z
x,-y,-z
-x,y,1/2-z
-x,-y,-z
x,y,1/2-z
-x,y,z
x,-y,1/2+z
1/2+x,1/2+y,z
1/2-x,1/2-y,1/2+z
1/2+x,1/2-y,-z
1/2-x,1/2+y,1/2-z
1/2-x,1/2-y,-z
1/2+x,1/2+y,1/2-z
1/2-x,1/2+y,z
1/2+x,1/2-y,1/2+z
loop_
_atom_site_type_symbol
_atom_site_label
_atom_site_fract_x
_atom_site_fract_y
_atom_site_fract_z
Si Si1 0.327172 0.423985 0.250000
Si Si2 0.671788 0.475201 0.107770
Si Si3 0.830283 0.178604 0.027499
Si Si4 0.671376 0.428815 0.962180
Si Si5 0.168002 0.276719 0.399639
Si Si6 0.668201 0.178123 0.750000
O O1 0.500000 0.420088 0.250000
O O2 0.266289 0.453178 0.318793
O O3 0.264244 0.369915 0.250000
O O4 0.500000 0.474263 0.111435
O O5 0.727307 0.531287 0.095820
O O6 0.728195 0.442570 0.041465
O O7 0.776693 0.126007 0.057764
O O8 0.788671 0.220208 0.085027
O O9 0.000000 0.177561 0.012161
O O10 0.755489 0.187733 0.951576
O O11 0.500000 0.431715 0.963449
O O12 0.208109 0.288874 0.318345
O O13 0.000000 0.285185 0.415502
O O14 0.500000 0.163235 0.750000
#
# Coordination Sequence:
#
# PCOD8255772 Si02
#       6
#     8  16  16  16  16   8
#     4  10  18  28  45  67  85 105 140 180 209 242
#     4   8  14  23  37  61  88 106 127 166 210 245
#     4   9  16  28  47  66  83 110 148 182 211 249
#     4   8  13  23  39  59  84 110 131 160 208 253
#     4   9  18  30  43  62  88 115 144 178 214 253
#     4  10  20  32  43  59  89 121 140 166 217 266
#
# _framework density 16.912699
#
# number of rings (size 3 to 8) (size 9 to 14) (size 15 to 20)
#    0.000    3.200    0.000    2.400    0.000    2.400 
#    0.000    1.000    0.000    7.200    0.000    5.600 
#    0.000    1.600    0.000    0.000    0.000    0.000 
#
# Total GULP energy -495714.059336 kJ/mol
# GULP energy per Si atom -12392.851483 kJ/mol
# Density = 1.687420 g / cm^3
# Si number density = 16.912699 Si / 1000 Ang^3
#
#
#
# Elastic Constant Matrix: (Units=GPa)
#
#
# Indices 1 2 3 4 5 6 
#
# 1 16.2061 23.8722 21.3868 0.0000 0.0000 0.0000
# 2 23.8722 155.1264 71.3888 0.0000 0.0000 0.0000
# 3 21.3868 71.3888 125.0881 0.0000 0.0000 0.0000
# 4 0.0000 0.0000 0.0000 22.1488 0.0000 0.0000
# 5 0.0000 0.0000 0.0000 0.0000 15.5135 0.0000
# 6 0.0000 0.0000 0.0000 0.0000 0.0000 18.7253
#
#
#
# Elastic Compliance Matrix: (Units=1/GPa)
#
#
# Indices 1 2 3 4 5 6 
#
# 1 0.088032 -0.008979 -0.009927 0.000000 0.000000 0.000000
# 2 -0.008979 0.009658 -0.003977 0.000000 0.000000 0.000000
# 3 -0.009927 -0.003977 0.011961 0.000000 0.000000 0.000000
# 4 0.000000 0.000000 0.000000 0.045149 0.000000 0.000000
# 5 0.000000 0.000000 0.000000 0.000000 0.064460 0.000000
# 6 0.000000 0.000000 0.000000 0.000000 0.000000 0.053404
#
#
# Mechanical properties :
#
#
# Convention : Reuss Voigt Hill
#
# Bulk Modulus (GPa) = 15.65287 58.85734 37.25510
# Shear Modulus (GPa) = 14.71782 23.26238 18.99010
#
# Velocity S-wave (km/s) = 2.95315 3.71271 3.35450
# Velocity P-wave (km/s) = 4.57202 7.29762 6.08928
#
# Compressibility (1/GPa) = 0.06388606
#
# Stress axis : x y z
#
# Youngs Moduli (GPa) = 11.35956 103.53851 83.60326
#
# Poissons Ratio (x) = 0.92964 0.82992
# Poissons Ratio (y) = 0.10199 0.33248
# Poissons Ratio (z) = 0.11276 0.41176
#
# Static dielectric constant tensor:
#      x y z
#    x 2.760720 0.000000 0.000000 
#    y 0.000000 3.606700 0.000000 
#    z 0.000000 0.000000 3.287060 
# 
# 
# High freq. dielectric constant tensor:
#      x y z
#    x 1.605160 0.000000 0.000000 
#    y 0.000000 1.666380 0.000000 
#    z 0.000000 0.000000 1.641540 
# 
# From -- ./inp_files/40753.got.cif
#   From: 2010.03.12/outbox.cif.g09.slc.cpg/sg63_21_cif.got.tgz:40753.got - 2010.04.10 19:34:48.
