data_PCOD8255380
_publ_section_title
;
Structure prediction by ZEFSAII (Michael W. Deem and Ramdas Pophale) SiO2 
 PCOD8255380
Probable space group: C M C M
;
_chemical_formula_sum "Si O2"
_cell_formula_units_Z 64
_cell_length_a 24.542118
_cell_length_b 8.854487
_cell_length_c 14.685165
_cell_angle_alpha 90.000000
_cell_angle_beta 90.000000
_cell_angle_gamma 90.000000
_cell_volume 3191.201850
_symmetry_space_group_name_H-M "C M C M"
_symmetry_group_IT_number 63
_symmetry_cell_setting 'orthorhombic'
loop_
_space_group_symop_operation_xyz
x,y,z
-x,-y,1/2+z
x,-y,-z
-x,y,1/2-z
-x,-y,-z
x,y,1/2-z
-x,y,z
x,-y,1/2+z
1/2+x,1/2+y,z
1/2-x,1/2-y,1/2+z
1/2+x,1/2-y,-z
1/2-x,1/2+y,1/2-z
1/2-x,1/2-y,-z
1/2+x,1/2+y,1/2-z
1/2-x,1/2+y,z
1/2+x,1/2-y,1/2+z
loop_
_atom_site_type_symbol
_atom_site_label
_atom_site_fract_x
_atom_site_fract_y
_atom_site_fract_z
Si Si1 0.000000 0.900895 0.092543
Si Si2 0.116935 0.185221 0.143074
Si Si3 0.808803 0.677564 0.498634
Si Si4 0.500000 0.290776 0.652550
Si Si5 0.885742 0.166738 0.856472
O O1 0.053579 0.796465 0.105092
O O2 0.000000 0.027228 0.172234
O O3 0.000000 0.000000 0.000000
O O4 0.119730 0.219754 0.250000
O O5 0.057648 0.243003 0.102531
O O6 0.126472 0.008838 0.123539
O O7 0.162769 0.278190 0.092858
O O8 0.802361 0.500000 0.500000
O O9 0.750000 0.750000 0.500000
O O10 0.842420 0.732474 0.410711
O O11 0.500000 0.207989 0.750000
O O12 0.880761 0.207067 0.750000
#
# Coordination Sequence:
#
# PCOD8255380 Si02
#       5
#     8  16  16   8  16
#     4  10  16  28  58  93 127 157 190 232 281 348
#     4   9  18  36  63  90 117 149 190 238 290 348
#     4  12  26  42  59  80 112 154 203 254 303 362
#     4   8  14  28  54  87 115 143 180 222 271 336
#     4  10  20  37  62  92 123 157 196 243 297 358
#
# _framework density 20.055140000000002
#
# number of rings (size 3 to 8) (size 9 to 14) (size 15 to 20)
#    0.000    2.000    0.000    7.875    0.000    2.000 
#    0.000    2.500    0.000    3.000    0.000    0.000 
#    0.000    0.000    0.000    0.000    0.000    0.000 
#
# Total GULP energy -396461.714418 kJ/mol
# GULP energy per Si atom -12389.428576 kJ/mol
# Density = 2.000949 g / cm^3
# Si number density = 20.055140 Si / 1000 Ang^3
#
#
#
# Elastic Constant Matrix: (Units=GPa)
#
#
# Indices 1 2 3 4 5 6 
#
# 1 203.5035 76.2030 70.7934 0.0000 0.0000 0.0000
# 2 76.2030 106.9276 49.3197 0.0000 0.0000 0.0000
# 3 70.7934 49.3197 122.6277 0.0000 0.0000 0.0000
# 4 0.0000 0.0000 0.0000 29.2948 0.0000 0.0000
# 5 0.0000 0.0000 0.0000 0.0000 24.1151 0.0000
# 6 0.0000 0.0000 0.0000 0.0000 0.0000 31.7725
#
#
#
# Elastic Compliance Matrix: (Units=1/GPa)
#
#
# Indices 1 2 3 4 5 6 
#
# 1 0.007327 -0.004016 -0.002615 0.000000 0.000000 0.000000
# 2 -0.004016 0.013683 -0.003185 0.000000 0.000000 0.000000
# 3 -0.002615 -0.003185 0.010945 0.000000 0.000000 0.000000
# 4 0.000000 0.000000 0.000000 0.034136 0.000000 0.000000
# 5 0.000000 0.000000 0.000000 0.000000 0.041468 0.000000
# 6 0.000000 0.000000 0.000000 0.000000 0.000000 0.031474
#
#
# Mechanical properties :
#
#
# Convention : Reuss Voigt Hill
#
# Bulk Modulus (GPa) = 81.13960 91.74343 86.44151
# Shear Modulus (GPa) = 30.71776 32.81932 31.76854
#
# Velocity S-wave (km/s) = 3.91790 4.04970 3.98434
# Velocity P-wave (km/s) = 7.81106 8.22871 8.02260
#
# Compressibility (1/GPa) = 0.01232444
#
# Stress axis : x y z
#
# Youngs Moduli (GPa) = 136.47547 73.08345 91.36310
#
# Poissons Ratio (x) = 0.29348 0.23891
# Poissons Ratio (y) = 0.54805 0.29098
# Poissons Ratio (z) = 0.35688 0.23276
#
# Static dielectric constant tensor:
#      x y z
#    x 3.437210 0.000000 0.000000 
#    y 0.000000 3.259930 0.000000 
#    z 0.000000 0.000000 3.737310 
# 
# 
# High freq. dielectric constant tensor:
#      x y z
#    x 1.796590 0.000000 0.000000 
#    y 0.000000 1.732240 0.000000 
#    z 0.000000 0.000000 1.796610 
# 
# From -- ./inp_files/36226.got.cif
#   From: 2010.03.12/outbox.cif.g09.slc.cpg/sg63_19_cif.got.tgz:36226.got - 2010.04.10 19:34:48.
