data_PCOD8255148
_publ_section_title
;
Structure prediction by ZEFSAII (Michael W. Deem and Ramdas Pophale) SiO2 
 PCOD8255148
Probable space group: P N M A
;
_chemical_formula_sum "Si O2"
_cell_formula_units_Z 32
_cell_length_a 8.554814
_cell_length_b 18.131345
_cell_length_c 9.190398
_cell_angle_alpha 90.000000
_cell_angle_beta 90.000000
_cell_angle_gamma 90.000000
_cell_volume 1425.525244
_symmetry_space_group_name_H-M "P N M A"
_symmetry_group_IT_number 62
_symmetry_cell_setting 'orthorhombic'
loop_
_space_group_symop_operation_xyz
x,y,z
1/2-x,-y,1/2+z
1/2+x,1/2-y,1/2-z
-x,1/2+y,-z
-x,-y,-z
1/2+x,y,1/2-z
1/2-x,1/2+y,1/2+z
x,1/2-y,z
loop_
_atom_site_type_symbol
_atom_site_label
_atom_site_fract_x
_atom_site_fract_y
_atom_site_fract_z
Si Si1 0.065082 0.833278 0.353336
Si Si2 0.136362 0.442685 0.487707
Si Si3 0.600808 0.398652 0.611439
Si Si4 0.894482 0.975021 0.830211
O O1 0.108836 0.750000 0.397841
O O2 0.214365 0.886831 0.365947
O O3 0.925932 0.863096 0.457342
O O4 0.999590 0.833519 0.186783
O O5 0.283083 0.468154 0.582356
O O6 0.177898 0.439448 0.315100
O O7 0.000000 0.500000 0.500000
O O8 0.566385 0.406608 0.439156
O O9 0.550943 0.474974 0.697134
#
# Coordination Sequence:
#
# PCOD8255148 Si02
#       4
#     8   8   8   8
#     4  12  25  43  63  96 139 184 223 274 348 411
#     4  12  23  42  69 102 135 171 225 288 331 405
#     4  11  23  40  68  97 132 172 225 284 331 402
#     4  11  24  39  71 106 128 171 230 287 342 383
#
# _framework density 22.447866000000001
#
# number of rings (size 3 to 8) (size 9 to 14) (size 15 to 20)
#    0.000    0.500    5.000    3.750    3.500    0.000 
#    0.000    3.750    0.000    0.000    0.000    0.000 
#    0.000    0.000    0.000    0.000    0.000    0.000 
#
# Total GULP energy -396557.148044 kJ/mol
# GULP energy per Si atom -12392.410876 kJ/mol
# Density = 2.239677 g / cm^3
# Si number density = 22.447866 Si / 1000 Ang^3
#
#
#
# Elastic Constant Matrix: (Units=GPa)
#
#
# Indices 1 2 3 4 5 6 
#
# 1 89.9783 43.4618 44.2920 0.0000 0.0000 0.0000
# 2 43.4618 93.9440 60.3831 0.0000 0.0000 0.0000
# 3 44.2920 60.3831 154.3333 0.0000 0.0000 0.0000
# 4 0.0000 0.0000 0.0000 25.2447 0.0000 0.0000
# 5 0.0000 0.0000 0.0000 0.0000 31.4477 0.0000
# 6 0.0000 0.0000 0.0000 0.0000 0.0000 20.6596
#
#
#
# Elastic Compliance Matrix: (Units=1/GPa)
#
#
# Indices 1 2 3 4 5 6 
#
# 1 0.014803 -0.005501 -0.002096 0.000000 0.000000 0.000000
# 2 -0.005501 0.016265 -0.004785 0.000000 0.000000 0.000000
# 3 -0.002096 -0.004785 0.008953 0.000000 0.000000 0.000000
# 4 0.000000 0.000000 0.000000 0.039612 0.000000 0.000000
# 5 0.000000 0.000000 0.000000 0.000000 0.031799 0.000000
# 6 0.000000 0.000000 0.000000 0.000000 0.000000 0.048404
#
#
# Mechanical properties :
#
#
# Convention : Reuss Voigt Hill
#
# Bulk Modulus (GPa) = 65.54368 70.50326 68.02347
# Shear Modulus (GPa) = 26.35942 28.14498 27.25220
#
# Velocity S-wave (km/s) = 3.43045 3.54474 3.48806
# Velocity P-wave (km/s) = 6.70464 6.94473 6.82574
#
# Compressibility (1/GPa) = 0.01525700
#
# Stress axis : x y z
#
# Youngs Moduli (GPa) = 67.55541 61.48082 111.69270
#
# Poissons Ratio (x) = 0.33821 0.23410
# Poissons Ratio (y) = 0.37163 0.53445
# Poissons Ratio (z) = 0.14159 0.29419
#
# Static dielectric constant tensor:
#      x y z
#    x 4.691480 0.000000 0.000000 
#    y 0.000000 3.663040 0.000000 
#    z 0.000000 0.000000 5.052330 
# 
# 
# High freq. dielectric constant tensor:
#      x y z
#    x 1.907090 0.000000 0.000000 
#    y 0.000000 1.827540 0.000000 
#    z 0.000000 0.000000 1.896880 
# 
# From -- ./inp_files/5110.got.cif
#   From: 2010.03.12/outbox.cif.g09.slc.cpg/sg62_3_cif.got.tgz:5110.got - 2010.04.10 19:12:36.
