data_PCOD8255528
_publ_section_title
;
Structure prediction by ZEFSAII (Michael W. Deem and Ramdas Pophale) SiO2 
 PCOD8255528
Probable space group: C M C M
;
_chemical_formula_sum "Si O2"
_cell_formula_units_Z 64
_cell_length_a 10.628494
_cell_length_b 16.904890
_cell_length_c 16.726162
_cell_angle_alpha 90.000000
_cell_angle_beta 90.000000
_cell_angle_gamma 90.000000
_cell_volume 3005.248435
_symmetry_space_group_name_H-M "C M C M"
_symmetry_group_IT_number 63
_symmetry_cell_setting 'orthorhombic'
loop_
_space_group_symop_operation_xyz
x,y,z
-x,-y,1/2+z
x,-y,-z
-x,y,1/2-z
-x,-y,-z
x,y,1/2-z
-x,y,z
x,-y,1/2+z
1/2+x,1/2+y,z
1/2-x,1/2-y,1/2+z
1/2+x,1/2-y,-z
1/2-x,1/2+y,1/2-z
1/2-x,1/2-y,-z
1/2+x,1/2+y,1/2-z
1/2-x,1/2+y,z
1/2+x,1/2-y,1/2+z
loop_
_atom_site_type_symbol
_atom_site_label
_atom_site_fract_x
_atom_site_fract_y
_atom_site_fract_z
Si Si1 0.000000 0.271752 0.585989
Si Si2 0.746224 0.529747 0.910733
Si Si3 0.500000 0.708686 0.093008
Si Si4 0.745100 0.215360 0.588954
Si Si5 0.500000 0.958878 0.914378
Si Si6 0.000000 0.038708 0.158619
O O1 0.125296 0.242376 0.632880
O O2 0.000000 0.228437 0.500600
O O3 0.000000 0.365332 0.575971
O O4 0.772770 0.622281 0.912204
O O5 0.624307 0.512852 0.857365
O O6 0.870119 0.487043 0.871959
O O7 0.719834 0.500000 0.000000
O O8 0.375032 0.746000 0.133875
O O9 0.500000 0.614672 0.101583
O O10 0.750000 0.250000 0.500000
O O11 0.500000 0.000000 0.000000
O O12 0.000000 0.066557 0.250000
#
# Coordination Sequence:
#
# PCOD8255528 Si02
#       6
#     8  16   8  16   8   8
#     4  10  17  28  48  82 114 136 170 222 280 336
#     4  11  20  36  61  88 117 148 186 239 297 347
#     4  10  18  34  53  75 110 147 184 227 277 328
#     4  10  18  30  53  85 112 137 178 228 285 344
#     4  10  18  31  56  91 118 137 176 235 294 346
#     4  12  26  41  55  80 118 162 205 238 275 338
#
# _framework density 21.296075999999999
#
# number of rings (size 3 to 8) (size 9 to 14) (size 15 to 20)
#    0.000    1.500    0.000   12.375    0.000    0.000 
#    0.000    1.875    0.000    0.000    0.000    0.000 
#    0.000    0.000    0.000    0.000    0.000    0.000 
#
# Total GULP energy -396635.617014 kJ/mol
# GULP energy per Si atom -12394.863032 kJ/mol
# Density = 2.124761 g / cm^3
# Si number density = 21.296076 Si / 1000 Ang^3
#
#
#
# Elastic Constant Matrix: (Units=GPa)
#
#
# Indices 1 2 3 4 5 6 
#
# 1 215.0570 23.2824 21.1571 0.0000 0.0000 0.0000
# 2 23.2824 125.7088 18.4546 0.0000 0.0000 0.0000
# 3 21.1571 18.4546 24.6766 0.0000 0.0000 0.0000
# 4 0.0000 0.0000 0.0000 4.1469 0.0000 0.0000
# 5 0.0000 0.0000 0.0000 0.0000 2.8716 0.0000
# 6 0.0000 0.0000 0.0000 0.0000 0.0000 44.3632
#
#
#
# Elastic Compliance Matrix: (Units=1/GPa)
#
#
# Indices 1 2 3 4 5 6 
#
# 1 0.005091 -0.000339 -0.004111 0.000000 0.000000 0.000000
# 2 -0.000339 0.008959 -0.006409 0.000000 0.000000 0.000000
# 3 -0.004111 -0.006409 0.048842 0.000000 0.000000 0.000000
# 4 0.000000 0.000000 0.000000 0.241141 0.000000 0.000000
# 5 0.000000 0.000000 0.000000 0.000000 0.348236 0.000000
# 6 0.000000 0.000000 0.000000 0.000000 0.000000 0.022541
#
#
# Mechanical properties :
#
#
# Convention : Reuss Voigt Hill
#
# Bulk Modulus (GPa) = 24.28778 54.58118 39.43448
# Shear Modulus (GPa) = 7.03974 30.44624 18.74299
#
# Velocity S-wave (km/s) = 1.82012 3.78519 2.96989
# Velocity P-wave (km/s) = 3.98079 6.69245 5.50616
#
# Compressibility (1/GPa) = 0.04117297
#
# Stress axis : x y z
#
# Youngs Moduli (GPa) = 196.42008 111.62479 20.47419
#
# Poissons Ratio (x) = 0.03788 0.08417
# Poissons Ratio (y) = 0.06666 0.13121
# Poissons Ratio (z) = 0.80752 0.71538
#
# Static dielectric constant tensor:
#      x y z
#    x 8.047140 0.000000 0.000000 
#    y 0.000000 3.911900 0.000000 
#    z 0.000000 0.000000 3.346070 
# 
# 
# High freq. dielectric constant tensor:
#      x y z
#    x 1.883740 0.000000 0.000000 
#    y 0.000000 1.853240 0.000000 
#    z 0.000000 0.000000 1.739870 
# 
# From -- ./inp_files/41593.got.cif
#   From: 2010.03.12/outbox.cif.g09.slc.cpg/sg63_21_cif.got.tgz:41593.got - 2010.04.10 19:34:48.
