data_PCOD8255807
_publ_section_title
;
Structure prediction by ZEFSAII (Michael W. Deem and Ramdas Pophale) SiO2 
 PCOD8255807
Probable space group: C M C M
;
_chemical_formula_sum "Si O2"
_cell_formula_units_Z 80
_cell_length_a 18.829126
_cell_length_b 26.049367
_cell_length_c 9.068129
_cell_angle_alpha 90.000000
_cell_angle_beta 90.000000
_cell_angle_gamma 90.000000
_cell_volume 4447.797697
_symmetry_space_group_name_H-M "C M C M"
_symmetry_group_IT_number 63
_symmetry_cell_setting 'orthorhombic'
loop_
_space_group_symop_operation_xyz
x,y,z
-x,-y,1/2+z
x,-y,-z
-x,y,1/2-z
-x,-y,-z
x,y,1/2-z
-x,y,z
x,-y,1/2+z
1/2+x,1/2+y,z
1/2-x,1/2-y,1/2+z
1/2+x,1/2-y,-z
1/2-x,1/2+y,1/2-z
1/2-x,1/2-y,-z
1/2+x,1/2+y,1/2-z
1/2-x,1/2+y,z
1/2+x,1/2-y,1/2+z
loop_
_atom_site_type_symbol
_atom_site_label
_atom_site_fract_x
_atom_site_fract_y
_atom_site_fract_z
Si Si1 0.665003 0.549322 0.084168
Si Si2 0.579083 0.748668 0.924302
Si Si3 0.833739 0.452270 0.911631
Si Si4 0.173183 0.152899 0.574819
Si Si5 0.822016 0.659726 0.073538
O O1 0.633636 0.552297 0.250000
O O2 0.749210 0.543825 0.092079
O O3 0.632401 0.500000 0.000000
O O4 0.644103 0.600028 0.993426
O O5 0.574739 0.752592 0.750000
O O6 0.500000 0.749992 0.993135
O O7 0.616690 0.696073 0.970950
O O8 0.623349 0.797409 0.982991
O O9 0.866585 0.457515 0.750000
O O10 0.853283 0.395984 0.976060
O O11 0.867120 0.500000 0.000000
O O12 0.181373 0.146812 0.750000
O O13 0.247789 0.170189 0.506348
O O14 0.809120 0.660537 0.250000
#
# Coordination Sequence:
#
# PCOD8255807 Si02
#       5
#    16  16  16  16  16
#     4   9  16  27  44  68  98 126 153 188 231 278
#     4   9  18  32  49  68  91 122 161 202 242 285
#     4   8  14  23  38  62  89 116 144 178 222 268
#     4  10  18  28  47  73  97 122 154 194 239 285
#     4   9  17  30  48  69  93 122 158 198 237 280
#
# _framework density 17.986429000000001
#
# number of rings (size 3 to 8) (size 9 to 14) (size 15 to 20)
#    0.000    3.000    0.000    3.000    0.000    4.800 
#    0.000    1.000    0.000    6.600    0.000    0.000 
#    0.000    0.000    0.000    0.000    0.000    2.200 
#
# Total GULP energy -495771.818430 kJ/mol
# GULP energy per Si atom -12394.295461 kJ/mol
# Density = 1.794549 g / cm^3
# Si number density = 17.986429 Si / 1000 Ang^3
#
#
#
# Elastic Constant Matrix: (Units=GPa)
#
#
# Indices 1 2 3 4 5 6 
#
# 1 74.1133 66.9202 31.3813 0.0000 0.0000 0.0000
# 2 66.9202 177.0318 55.7599 0.0000 0.0000 0.0000
# 3 31.3813 55.7599 73.5445 0.0000 0.0000 0.0000
# 4 0.0000 0.0000 0.0000 27.8332 0.0000 0.0000
# 5 0.0000 0.0000 0.0000 0.0000 10.9150 0.0000
# 6 0.0000 0.0000 0.0000 0.0000 0.0000 1.7288
#
#
#
# Elastic Compliance Matrix: (Units=1/GPa)
#
#
# Indices 1 2 3 4 5 6 
#
# 1 0.021313 -0.006821 -0.003923 0.000000 0.000000 0.000000
# 2 -0.006821 0.009604 -0.004371 0.000000 0.000000 0.000000
# 3 -0.003923 -0.004371 0.018585 0.000000 0.000000 0.000000
# 4 0.000000 0.000000 0.000000 0.035928 0.000000 0.000000
# 5 0.000000 0.000000 0.000000 0.000000 0.091617 0.000000
# 6 0.000000 0.000000 0.000000 0.000000 0.000000 0.578428
#
#
# Mechanical properties :
#
#
# Convention : Reuss Voigt Hill
#
# Bulk Modulus (GPa) = 51.88739 70.31249 61.09994
# Shear Modulus (GPa) = 6.31211 19.47062 12.89136
#
# Velocity S-wave (km/s) = 1.87536 3.29373 2.68008
# Velocity P-wave (km/s) = 5.79655 7.32405 6.60461
#
# Compressibility (1/GPa) = 0.01927250
#
# Stress axis : x y z
#
# Youngs Moduli (GPa) = 46.92034 104.12515 53.80715
#
# Poissons Ratio (x) = 0.71024 0.21106
# Poissons Ratio (y) = 0.32004 0.23519
# Poissons Ratio (z) = 0.18405 0.45512
#
# Static dielectric constant tensor:
#      x y z
#    x 2.978560 0.000000 0.000000 
#    y 0.000000 3.698180 0.000000 
#    z 0.000000 0.000000 3.304500 
# 
# 
# High freq. dielectric constant tensor:
#      x y z
#    x 1.639710 0.000000 0.000000 
#    y 0.000000 1.720510 0.000000 
#    z 0.000000 0.000000 1.681580 
# 
# From -- ./inp_files/6350.got.cif
#   From: 2010.03.12/outbox.cif.g09.slc.cpg/sg63_4_cif.got.tgz:6350.got - 2010.04.10 19:34:48.
