data_PCOD8255142
_publ_section_title
;
Structure prediction by ZEFSAII (Michael W. Deem and Ramdas Pophale) SiO2 
 PCOD8255142
Probable space group: P N M A
;
_chemical_formula_sum "Si O2"
_cell_formula_units_Z 40
_cell_length_a 10.234044
_cell_length_b 8.330331
_cell_length_c 22.578620
_cell_angle_alpha 90.000000
_cell_angle_beta 90.000000
_cell_angle_gamma 90.000000
_cell_volume 1924.894504
_symmetry_space_group_name_H-M "P N M A"
_symmetry_group_IT_number 62
_symmetry_cell_setting 'orthorhombic'
loop_
_space_group_symop_operation_xyz
x,y,z
1/2-x,-y,1/2+z
1/2+x,1/2-y,1/2-z
-x,1/2+y,-z
-x,-y,-z
1/2+x,y,1/2-z
1/2-x,1/2+y,1/2+z
x,1/2-y,z
loop_
_atom_site_type_symbol
_atom_site_label
_atom_site_fract_x
_atom_site_fract_y
_atom_site_fract_z
Si Si1 0.250174 0.064025 0.122850
Si Si2 0.499962 0.935116 0.317875
Si Si3 0.489212 0.564981 0.810407
Si Si4 0.854211 0.564401 0.495521
Si Si5 0.240487 0.564865 0.384627
O O1 0.218212 0.250000 0.133607
O O2 0.374694 0.008349 0.161122
O O3 0.128342 0.957919 0.142846
O O4 0.276146 0.034108 0.053835
O O5 0.485747 0.750000 0.299131
O O6 0.375903 0.991857 0.355844
O O7 0.506501 0.043697 0.259754
O O8 0.461838 0.750000 0.826108
O O9 0.374177 0.458011 0.837106
O O10 0.857350 0.750000 0.477690
O O11 0.781709 0.543184 0.557762
O O12 0.000000 0.500000 0.500000
O O13 0.245507 0.750000 0.403857
#
# Coordination Sequence:
#
# PCOD8255142 Si02
#       5
#     8   8   8   8   8
#     4  11  24  42  66  95 127 167 213 260 314 374
#     4  11  25  42  62  93 130 168 210 260 318 374
#     4  11  23  40  65  94 126 167 213 261 314 374
#     4  12  24  41  67  95 126 163 209 260 314 375
#     4  11  24  42  66  94 127 167 213 261 314 374
#
# _framework density 20.780360999999999
#
# number of rings (size 3 to 8) (size 9 to 14) (size 15 to 20)
#    0.000    0.800    2.000    5.400    0.000    9.600 
#    0.000    0.000    0.000    0.000    0.000    0.000 
#    0.000    0.000    0.000    0.000    0.000    0.000 
#
# Total GULP energy -496399.028535 kJ/mol
# GULP energy per Si atom -12409.975713 kJ/mol
# Density = 2.073306 g / cm^3
# Si number density = 20.780361 Si / 1000 Ang^3
#
#
#
# Elastic Constant Matrix: (Units=GPa)
#
#
# Indices 1 2 3 4 5 6 
#
# 1 144.1910 17.5935 58.0215 0.0000 0.0000 0.0000
# 2 17.5935 52.1601 6.6737 0.0000 0.0000 0.0000
# 3 58.0215 6.6737 129.7815 0.0000 0.0000 0.0000
# 4 0.0000 0.0000 0.0000 30.3631 0.0000 0.0000
# 5 0.0000 0.0000 0.0000 0.0000 -26.1673 0.0000
# 6 0.0000 0.0000 0.0000 0.0000 0.0000 27.1690
#
#
#
# Elastic Compliance Matrix: (Units=1/GPa)
#
#
# Indices 1 2 3 4 5 6 
#
# 1 0.008762 -0.002470 -0.003790 0.000000 0.000000 0.000000
# 2 -0.002470 0.019995 0.000076 0.000000 0.000000 0.000000
# 3 -0.003790 0.000076 0.009396 0.000000 0.000000 0.000000
# 4 0.000000 0.000000 0.000000 0.032935 0.000000 0.000000
# 5 0.000000 0.000000 0.000000 0.000000 -0.038216 0.000000
# 6 0.000000 0.000000 0.000000 0.000000 0.000000 0.036807
#
#
# Mechanical properties :
#
#
# Convention : Reuss Voigt Hill
#
# Bulk Modulus (GPa) = 38.78333 54.52335 46.65334
# Shear Modulus (GPa) = 55.16222 22.52923 38.84573
#
# Velocity S-wave (km/s) = 5.15781 3.29623 4.32829
# Velocity P-wave (km/s) = 7.36034 6.38606 6.89044
#
# Compressibility (1/GPa) = 0.02578428
#
# Stress axis : x y z
#
# Youngs Moduli (GPa) = 114.13198 50.01186 106.43073
#
# Poissons Ratio (x) = 0.12355 0.40338
# Poissons Ratio (y) = 0.28195 -0.00811
# Poissons Ratio (z) = 0.43257 -0.00381
#
# Static dielectric constant tensor:
#      x y z
#    x 3.841890 0.000000 0.000000 
#    y 0.000000 6.229880 0.000000 
#    z 0.000000 0.000000 3.797120 
# 
# 
# High freq. dielectric constant tensor:
#      x y z
#    x 1.819620 0.000000 0.000000 
#    y 0.000000 1.820610 0.000000 
#    z 0.000000 0.000000 1.823480 
# 
# From -- ./inp_files/26453.got.cif
#   From: 2010.03.12/outbox.cif.g09.slc.cpg/sg62_14_cif.got.tgz:26453.got - 2010.04.10 19:12:36.
