data_PCOD8255097
_publ_section_title
;
Structure prediction by ZEFSAII (Michael W. Deem and Ramdas Pophale) SiO2 
 PCOD8255097
Probable space group: P N M A
;
_chemical_formula_sum "Si O2"
_cell_formula_units_Z 44
_cell_length_a 17.689968
_cell_length_b 14.533461
_cell_length_c 8.719329
_cell_angle_alpha 90.000000
_cell_angle_beta 90.000000
_cell_angle_gamma 90.000000
_cell_volume 2241.708620
_symmetry_space_group_name_H-M "P N M A"
_symmetry_group_IT_number 62
_symmetry_cell_setting 'orthorhombic'
loop_
_space_group_symop_operation_xyz
x,y,z
1/2-x,-y,1/2+z
1/2+x,1/2-y,1/2-z
-x,1/2+y,-z
-x,-y,-z
1/2+x,y,1/2-z
1/2-x,1/2+y,1/2+z
x,1/2-y,z
loop_
_atom_site_type_symbol
_atom_site_label
_atom_site_fract_x
_atom_site_fract_y
_atom_site_fract_z
Si Si1 0.232574 0.250000 0.301659
Si Si2 0.320245 0.932248 0.635284
Si Si3 0.516921 0.250000 0.715346
Si Si4 0.593940 0.750000 0.725007
Si Si5 0.674678 0.250000 0.860004
Si Si6 0.374329 0.250000 0.926881
Si Si7 0.260160 0.099351 0.829691
Si Si8 0.031731 0.347261 0.077476
O O1 0.215387 0.159771 0.203869
O O2 0.321768 0.250000 0.341099
O O3 0.186531 0.250000 0.458876
O O4 0.291693 0.944601 0.461680
O O5 0.412655 0.928755 0.629531
O O6 0.299106 0.018663 0.735999
O O7 0.585053 0.250000 0.835555
O O8 0.438443 0.250000 0.800978
O O9 0.519610 0.157779 0.607699
O O10 0.550287 0.657231 0.662551
O O11 0.588842 0.750000 0.906874
O O12 0.709933 0.340868 0.785470
O O13 0.324653 0.159103 0.909399
O O14 0.074355 0.250000 0.121472
#
# Coordination Sequence:
#
# PCOD8255097 Si02
#       8
#     4   8   4   4   4   4   8   8
#     4  12  21  37  70  88 127 157 217 259 319 363
#     4  12  21  44  61  93 122 173 203 265 307 377
#     4   9  19  38  66  85 123 162 205 246 317 368
#     4   9  20  37  63  89 119 166 202 253 312 367
#     4  11  22  39  65  95 119 168 206 264 314 375
#     4  11  22  41  62  93 126 161 206 268 306 365
#     4  11  24  40  64  91 128 161 214 260 311 366
#     4   8  19  38  61  83 120 164 196 243 316 370
#
# _framework density 19.627884000000002
#
# number of rings (size 3 to 8) (size 9 to 14) (size 15 to 20)
#    1.091    0.364    4.545    1.636    7.636    0.000 
#    0.000    3.636    0.000    0.000    0.000    0.000 
#    0.000    0.000    0.000    0.000    0.000    0.000 
#
# Total GULP energy -545220.327553 kJ/mol
# GULP energy per Si atom -12391.371081 kJ/mol
# Density = 1.958321 g / cm^3
# Si number density = 19.627884 Si / 1000 Ang^3
#
#
#
# Elastic Constant Matrix: (Units=GPa)
#
#
# Indices 1 2 3 4 5 6 
#
# 1 88.1421 1.8267 3.1927 0.0000 0.0000 0.0000
# 2 1.8267 61.5972 12.6241 0.0000 0.0000 0.0000
# 3 3.1927 12.6241 82.6059 0.0000 0.0000 0.0000
# 4 0.0000 0.0000 0.0000 5.6424 0.0000 0.0000
# 5 0.0000 0.0000 0.0000 0.0000 42.3532 0.0000
# 6 0.0000 0.0000 0.0000 0.0000 0.0000 -1.7619
#
#
#
# Elastic Compliance Matrix: (Units=1/GPa)
#
#
# Indices 1 2 3 4 5 6 
#
# 1 0.011365 -0.000255 -0.000400 0.000000 0.000000 0.000000
# 2 -0.000255 0.016765 -0.002552 0.000000 0.000000 0.000000
# 3 -0.000400 -0.002552 0.012511 0.000000 0.000000 0.000000
# 4 0.000000 0.000000 0.000000 0.177229 0.000000 0.000000
# 5 0.000000 0.000000 0.000000 0.000000 0.023611 0.000000
# 6 0.000000 0.000000 0.000000 0.000000 0.000000 -0.567578
#
#
# Mechanical properties :
#
#
# Convention : Reuss Voigt Hill
#
# Bulk Modulus (GPa) = 29.21725 29.73691 29.47708
# Shear Modulus (GPa) = -16.21940 23.56019 3.67039
#
# Velocity S-wave (km/s) = -2.87774 3.46835 1.36896
# Velocity P-wave (km/s) = 1.96877 5.58771 4.18919
#
# Compressibility (1/GPa) = 0.03422635
#
# Stress axis : x y z
#
# Youngs Moduli (GPa) = 87.98862 59.64759 79.92846
#
# Poissons Ratio (x) = 0.01521 0.03199
# Poissons Ratio (y) = 0.02244 0.20400
# Poissons Ratio (z) = 0.03522 0.15224
#
# Static dielectric constant tensor:
#      x y z
#    x 3.590160 0.000000 0.000000 
#    y 0.000000 3.249700 0.000000 
#    z 0.000000 0.000000 3.586840 
# 
# 
# High freq. dielectric constant tensor:
#      x y z
#    x 1.773970 0.000000 0.000000 
#    y 0.000000 1.734130 0.000000 
#    z 0.000000 0.000000 1.774930 
# 
# From -- ./inp_files/7596.got.cif
#   From: 2010.03.12/outbox.cif.g09.slc.cpg/sg62_4_cif.got.tgz:7596.got - 2010.04.10 19:12:36.
