data_PCOD8255042
_publ_section_title
;
Structure prediction by ZEFSAII (Michael W. Deem and Ramdas Pophale) SiO2 
 PCOD8255042
Probable space group: P N M A
;
_chemical_formula_sum "Si O2"
_cell_formula_units_Z 40
_cell_length_a 9.273772
_cell_length_b 21.884828
_cell_length_c 9.308978
_cell_angle_alpha 90.000000
_cell_angle_beta 90.000000
_cell_angle_gamma 90.000000
_cell_volume 1889.302747
_symmetry_space_group_name_H-M "P N M A"
_symmetry_group_IT_number 62
_symmetry_cell_setting 'orthorhombic'
loop_
_space_group_symop_operation_xyz
x,y,z
1/2-x,-y,1/2+z
1/2+x,1/2-y,1/2-z
-x,1/2+y,-z
-x,-y,-z
1/2+x,y,1/2-z
1/2-x,1/2+y,1/2+z
x,1/2-y,z
loop_
_atom_site_type_symbol
_atom_site_label
_atom_site_fract_x
_atom_site_fract_y
_atom_site_fract_z
Si Si1 0.357073 0.750000 0.149386
Si Si2 0.712541 0.117583 0.918211
Si Si3 0.090115 0.423465 0.293315
Si Si4 0.183811 0.750000 0.432733
Si Si5 0.691896 0.878551 0.926951
Si Si6 0.928487 0.066228 0.705951
O O1 0.294469 0.690865 0.067378
O O2 0.309285 0.750000 0.314788
O O3 0.530247 0.750000 0.147194
O O4 0.862520 0.096500 0.848726
O O5 0.585183 0.095393 0.813159
O O6 0.699211 0.087196 0.074135
O O7 0.160353 0.398880 0.147544
O O8 0.055037 0.494365 0.275918
O O9 0.941928 0.387474 0.318928
O O10 0.201515 0.692127 0.534543
O O11 0.670823 0.919717 0.068163
#
# Coordination Sequence:
#
# PCOD8255042 Si02
#       6
#     4   8   8   4   8   8
#     4  12  20  45  67  95 125 159 219 266 302 378
#     4  11  22  38  68  92 123 171 211 264 319 365
#     4  11  23  41  62  94 135 165 209 260 320 379
#     4  12  24  45  71  91 131 161 221 262 318 374
#     4  11  24  42  63  94 129 173 206 263 318 373
#     4  11  21  40  64  95 127 169 214 259 311 380
#
# _framework density 21.171831999999998
#
# number of rings (size 3 to 8) (size 9 to 14) (size 15 to 20)
#    0.000    0.800    6.000    4.800    0.000    3.200 
#    3.600    4.000    0.000    0.000    0.000    0.000 
#    0.000    0.000    0.000    0.000    0.000    0.000 
#
# Total GULP energy -496252.970047 kJ/mol
# GULP energy per Si atom -12406.324251 kJ/mol
# Density = 2.112364 g / cm^3
# Si number density = 21.171832 Si / 1000 Ang^3
#
#
#
# Elastic Constant Matrix: (Units=GPa)
#
#
# Indices 1 2 3 4 5 6 
#
# 1 18.3085 15.0063 6.5437 0.0000 0.0000 0.0000
# 2 15.0063 140.7958 12.4293 0.0000 0.0000 0.0000
# 3 6.5437 12.4293 19.8847 0.0000 0.0000 0.0000
# 4 0.0000 0.0000 0.0000 46.0402 0.0000 0.0000
# 5 0.0000 0.0000 0.0000 0.0000 45.5649 0.0000
# 6 0.0000 0.0000 0.0000 0.0000 0.0000 21.7632
#
#
#
# Elastic Compliance Matrix: (Units=1/GPa)
#
#
# Indices 1 2 3 4 5 6 
#
# 1 0.065534 -0.005378 -0.018205 0.000000 0.000000 0.000000
# 2 -0.005378 0.007959 -0.003205 0.000000 0.000000 0.000000
# 3 -0.018205 -0.003205 0.058284 0.000000 0.000000 0.000000
# 4 0.000000 0.000000 0.000000 0.021720 0.000000 0.000000
# 5 0.000000 0.000000 0.000000 0.000000 0.021947 0.000000
# 6 0.000000 0.000000 0.000000 0.000000 0.000000 0.045949
#
#
# Mechanical properties :
#
#
# Convention : Reuss Voigt Hill
#
# Bulk Modulus (GPa) = 12.78743 27.43863 20.11303
# Shear Modulus (GPa) = 16.60941 32.34097 24.47519
#
# Velocity S-wave (km/s) = 2.80394 3.91262 3.40373
# Velocity P-wave (km/s) = 4.06641 5.77924 4.99677
#
# Compressibility (1/GPa) = 0.07820180
#
# Stress axis : x y z
#
# Youngs Moduli (GPa) = 15.25931 125.65068 17.15738
#
# Poissons Ratio (x) = 0.67570 0.31234
# Poissons Ratio (y) = 0.08206 0.05499
# Poissons Ratio (z) = 0.27779 0.40270
#
# Static dielectric constant tensor:
#      x y z
#    x 3.793940 0.000000 0.000000 
#    y 0.000000 4.076060 0.000000 
#    z 0.000000 0.000000 3.726550 
# 
# 
# High freq. dielectric constant tensor:
#      x y z
#    x 1.826710 0.000000 0.000000 
#    y 0.000000 1.847210 0.000000 
#    z 0.000000 0.000000 1.819840 
# 
# From -- ./inp_files/4346.got.cif
#   From: 2010.03.12/outbox.cif.g09.slc.cpg/sg62_3_cif.got.tgz:4346.got - 2010.04.10 19:12:36.
