data_PCOD8255007
_publ_section_title
;
Structure prediction by ZEFSAII (Michael W. Deem and Ramdas Pophale) SiO2 
 PCOD8255007
Probable space group: P N M A
;
_chemical_formula_sum "Si O2"
_cell_formula_units_Z 40
_cell_length_a 20.674069
_cell_length_b 9.288664
_cell_length_c 12.503588
_cell_angle_alpha 90.000000
_cell_angle_beta 90.000000
_cell_angle_gamma 90.000000
_cell_volume 2401.120025
_symmetry_space_group_name_H-M "P N M A"
_symmetry_group_IT_number 62
_symmetry_cell_setting 'orthorhombic'
loop_
_space_group_symop_operation_xyz
x,y,z
1/2-x,-y,1/2+z
1/2+x,1/2-y,1/2-z
-x,1/2+y,-z
-x,-y,-z
1/2+x,y,1/2-z
1/2-x,1/2+y,1/2+z
x,1/2-y,z
loop_
_atom_site_type_symbol
_atom_site_label
_atom_site_fract_x
_atom_site_fract_y
_atom_site_fract_z
Si Si1 0.339451 0.413868 0.148339
Si Si2 0.337841 0.580202 0.813309
Si Si3 0.307855 0.915941 0.585193
Si Si4 0.067580 0.420544 0.497905
Si Si5 0.200182 0.583411 0.882240
O O1 0.360484 0.250000 0.122043
O O2 0.267912 0.443141 0.104964
O O3 0.388703 0.525258 0.095424
O O4 0.342274 0.440319 0.275827
O O5 0.326728 0.750000 0.807775
O O6 0.346506 0.526819 0.690620
O O7 0.272049 0.516727 0.864563
O O8 0.399035 0.537291 0.885088
O O9 0.322927 0.750000 0.563702
O O10 0.332672 0.002402 0.481965
O O11 0.058101 0.250000 0.508647
O O12 0.000000 0.500000 0.500000
O O13 0.204091 0.750000 0.912771
#
# Coordination Sequence:
#
# PCOD8255007 Si02
#       5
#     8   8   8   8   8
#     4   9  18  31  47  70 100 129 160 196 239 289
#     4   8  16  30  46  67  97 130 156 188 241 291
#     4   9  16  28  48  72  98 125 156 195 237 287
#     4  11  21  34  52  70  97 131 167 202 237 286
#     4   9  16  29  48  71 100 128 154 193 245 293
#
# _framework density 16.658891000000001
#
# number of rings (size 3 to 8) (size 9 to 14) (size 15 to 20)
#    0.000    2.800    2.000    3.000    0.000    0.800 
#    0.000    5.000    0.000    1.200    0.000    0.000 
#    0.000    0.000    0.000    0.000    0.000    0.000 
#
# Total GULP energy -495813.781585 kJ/mol
# GULP energy per Si atom -12395.344540 kJ/mol
# Density = 1.662098 g / cm^3
# Si number density = 16.658891 Si / 1000 Ang^3
#
#
#
# Elastic Constant Matrix: (Units=GPa)
#
#
# Indices 1 2 3 4 5 6 
#
# 1 63.1818 38.9227 34.8618 0.0000 0.0000 0.0000
# 2 38.9227 70.5452 59.4280 0.0000 0.0000 0.0000
# 3 34.8618 59.4280 139.7807 0.0000 0.0000 0.0000
# 4 0.0000 0.0000 0.0000 32.2700 0.0000 0.0000
# 5 0.0000 0.0000 0.0000 0.0000 18.2579 0.0000
# 6 0.0000 0.0000 0.0000 0.0000 0.0000 21.9582
#
#
#
# Elastic Compliance Matrix: (Units=1/GPa)
#
#
# Indices 1 2 3 4 5 6 
#
# 1 0.024005 -0.012777 -0.000555 0.000000 0.000000 0.000000
# 2 -0.012777 0.028886 -0.009094 0.000000 0.000000 0.000000
# 3 -0.000555 -0.009094 0.011159 0.000000 0.000000 0.000000
# 4 0.000000 0.000000 0.000000 0.030989 0.000000 0.000000
# 5 0.000000 0.000000 0.000000 0.000000 0.054771 0.000000
# 6 0.000000 0.000000 0.000000 0.000000 0.000000 0.045541
#
#
# Mechanical properties :
#
#
# Convention : Reuss Voigt Hill
#
# Bulk Modulus (GPa) = 52.09021 59.99252 56.04136
# Shear Modulus (GPa) = 20.27564 23.85024 22.06294
#
# Velocity S-wave (km/s) = 3.49249 3.78786 3.64317
# Velocity P-wave (km/s) = 6.89927 7.43108 7.17011
#
# Compressibility (1/GPa) = 0.01919746
#
# Stress axis : x y z
#
# Youngs Moduli (GPa) = 41.65864 34.61873 89.61502
#
# Poissons Ratio (x) = 0.44233 0.04970
# Poissons Ratio (y) = 0.53228 0.81499
# Poissons Ratio (z) = 0.02310 0.31483
#
# Static dielectric constant tensor:
#      x y z
#    x 2.851920 0.000000 0.000000 
#    y 0.000000 2.953730 0.000000 
#    z 0.000000 0.000000 3.367980 
# 
# 
# High freq. dielectric constant tensor:
#      x y z
#    x 1.597700 0.000000 0.000000 
#    y 0.000000 1.627240 0.000000 
#    z 0.000000 0.000000 1.657130 
# 
# From -- ./inp_files/8471.got.cif
#   From: 2010.03.12/outbox.cif.g09.slc.cpg/sg62_5_cif.got.tgz:8471.got - 2010.04.10 19:12:36.
