data_PCOD8255773
_publ_section_title
;
Structure prediction by ZEFSAII (Michael W. Deem and Ramdas Pophale) SiO2 
 PCOD8255773
Probable space group: C M C M
;
_chemical_formula_sum "Si O2"
_cell_formula_units_Z 80
_cell_length_a 25.972816
_cell_length_b 19.889000
_cell_length_c 8.759630
_cell_angle_alpha 90.000000
_cell_angle_beta 90.000000
_cell_angle_gamma 90.000000
_cell_volume 4524.991304
_symmetry_space_group_name_H-M "C M C M"
_symmetry_group_IT_number 63
_symmetry_cell_setting 'orthorhombic'
loop_
_space_group_symop_operation_xyz
x,y,z
-x,-y,1/2+z
x,-y,-z
-x,y,1/2-z
-x,-y,-z
x,y,1/2-z
-x,y,z
x,-y,1/2+z
1/2+x,1/2+y,z
1/2-x,1/2-y,1/2+z
1/2+x,1/2-y,-z
1/2-x,1/2+y,1/2-z
1/2-x,1/2-y,-z
1/2+x,1/2+y,1/2-z
1/2-x,1/2+y,z
1/2+x,1/2-y,1/2+z
loop_
_atom_site_type_symbol
_atom_site_label
_atom_site_fract_x
_atom_site_fract_y
_atom_site_fract_z
Si Si1 0.057590 0.177444 0.068602
Si Si2 0.860138 0.927036 0.928697
Si Si3 0.557270 0.827475 0.068565
Si Si4 0.354834 0.925919 0.431270
Si Si5 0.246840 0.427217 0.928323
O O1 0.061571 0.177366 0.250000
O O2 0.098429 0.124520 0.999239
O O3 0.070264 0.252463 0.007742
O O4 0.000000 0.156365 0.017153
O O5 0.869001 0.936321 0.750000
O O6 0.803134 0.894882 0.959160
O O7 0.867809 0.000000 0.000000
O O8 0.559056 0.826917 0.250000
O O9 0.500000 0.848718 0.013110
O O10 0.598664 0.880326 0.004297
O O11 0.355135 0.930133 0.250000
O O12 0.301230 0.890835 0.487847
O O13 0.361288 0.000000 0.500000
O O14 0.234348 0.431767 0.750000
O O15 0.250068 0.500000 0.000000
#
# Coordination Sequence:
#
# PCOD8255773 Si02
#       5
#    16  16  16  16  16
#     4   8  14  27  46  65  86 114 147 179 211 251
#     4   9  17  28  45  68  90 114 144 178 214 252
#     4   8  15  28  45  64  86 113 145 179 213 253
#     4  10  18  28  45  67  88 111 143 180 216 255
#     4   9  16  27  42  61  88 117 143 172 211 256
#
# _framework density 17.679593000000001
#
# number of rings (size 3 to 8) (size 9 to 14) (size 15 to 20)
#    0.000    3.200    0.000    3.600    0.000    1.600 
#    0.000    1.000    0.000    4.200    0.000    5.600 
#    0.000    0.000    0.000    0.000    0.000    0.000 
#
# Total GULP energy -495543.870318 kJ/mol
# GULP energy per Si atom -12388.596758 kJ/mol
# Density = 1.763935 g / cm^3
# Si number density = 17.679593 Si / 1000 Ang^3
#
#
#
# Elastic Constant Matrix: (Units=GPa)
#
#
# Indices 1 2 3 4 5 6 
#
# 1 185.3661 92.6400 33.4999 0.0000 0.0000 0.0000
# 2 92.6400 90.8602 20.7850 0.0000 0.0000 0.0000
# 3 33.4999 20.7850 40.6438 0.0000 0.0000 0.0000
# 4 0.0000 0.0000 0.0000 12.3558 0.0000 0.0000
# 5 0.0000 0.0000 0.0000 0.0000 14.1103 0.0000
# 6 0.0000 0.0000 0.0000 0.0000 0.0000 19.7014
#
#
#
# Elastic Compliance Matrix: (Units=1/GPa)
#
#
# Indices 1 2 3 4 5 6 
#
# 1 0.011535 -0.010856 -0.003956 0.000000 0.000000 0.000000
# 2 -0.010856 0.022681 -0.002651 0.000000 0.000000 0.000000
# 3 -0.003956 -0.002651 0.029220 0.000000 0.000000 0.000000
# 4 0.000000 0.000000 0.000000 0.080934 0.000000 0.000000
# 5 0.000000 0.000000 0.000000 0.000000 0.070870 0.000000
# 6 0.000000 0.000000 0.000000 0.000000 0.000000 0.050758
#
#
# Mechanical properties :
#
#
# Convention : Reuss Voigt Hill
#
# Bulk Modulus (GPa) = 35.07476 67.85777 51.46627
# Shear Modulus (GPa) = 16.10675 20.56316 18.33496
#
# Velocity S-wave (km/s) = 3.02161 3.41413 3.22385
# Velocity P-wave (km/s) = 5.66178 7.34894 6.55983
#
# Compressibility (1/GPa) = 0.02851053
#
# Stress axis : x y z
#
# Youngs Moduli (GPa) = 86.69050 44.08914 34.22282
#
# Poissons Ratio (x) = 0.47865 0.13538
# Poissons Ratio (y) = 0.94114 0.09072
# Poissons Ratio (z) = 0.34294 0.11688
#
# Static dielectric constant tensor:
#      x y z
#    x 4.229850 0.000000 0.000000 
#    y 0.000000 3.257410 0.000000 
#    z 0.000000 0.000000 2.979540 
# 
# 
# High freq. dielectric constant tensor:
#      x y z
#    x 1.705610 0.000000 0.000000 
#    y 0.000000 1.654030 0.000000 
#    z 0.000000 0.000000 1.650830 
# 
# From -- ./inp_files/12002.got.cif
#   From: 2010.03.12/outbox.cif.g09.slc.cpg/sg63_7_cif.got.tgz:12002.got - 2010.04.10 19:34:48.
