data_PCOD8255970
_publ_section_title
;
Structure prediction by ZEFSAII (Michael W. Deem and Ramdas Pophale) SiO2 
 PCOD8255970
Probable space group: C M C M
;
_chemical_formula_sum "Si O2"
_cell_formula_units_Z 80
_cell_length_a 23.627867
_cell_length_b 24.246724
_cell_length_c 8.855866
_cell_angle_alpha 90.000000
_cell_angle_beta 90.000000
_cell_angle_gamma 90.000000
_cell_volume 5073.511195
_symmetry_space_group_name_H-M "C M C M"
_symmetry_group_IT_number 63
_symmetry_cell_setting 'orthorhombic'
loop_
_space_group_symop_operation_xyz
x,y,z
-x,-y,1/2+z
x,-y,-z
-x,y,1/2-z
-x,-y,-z
x,y,1/2-z
-x,y,z
x,-y,1/2+z
1/2+x,1/2+y,z
1/2-x,1/2-y,1/2+z
1/2+x,1/2-y,-z
1/2-x,1/2+y,1/2-z
1/2-x,1/2-y,-z
1/2+x,1/2+y,1/2-z
1/2-x,1/2+y,z
1/2+x,1/2-y,1/2+z
loop_
_atom_site_type_symbol
_atom_site_label
_atom_site_fract_x
_atom_site_fract_y
_atom_site_fract_z
Si Si1 0.235757 0.944696 0.928054
Si Si2 0.724601 0.828003 0.574412
Si Si3 0.664473 0.264465 0.927277
Si Si4 0.886143 0.056371 0.929283
Si Si5 0.564072 0.660129 0.424560
O O1 0.226285 0.952592 0.750000
O O2 0.277248 0.893274 0.962289
O O3 0.175802 0.932089 0.004129
O O4 0.262928 0.000000 0.000000
O O5 0.718675 0.816979 0.750000
O O6 0.672239 0.796895 0.495183
O O7 0.784390 0.803526 0.515681
O O8 0.664596 0.258109 0.750000
O O9 0.605535 0.291256 0.982613
O O10 0.883034 0.051085 0.750000
O O11 0.927464 0.105685 0.975927
O O12 0.910819 0.000000 0.000000
O O13 0.577564 0.645785 0.250000
O O14 0.500000 0.681121 0.445229
#
# Coordination Sequence:
#
# PCOD8255970 Si02
#       5
#    16  16  16  16  16
#     4  10  18  30  46  67  94 120 151 185 224 268
#     4   9  17  29  46  66  91 117 145 182 221 267
#     4   9  17  30  46  66  89 114 149 184 221 268
#     4  11  21  32  47  64  87 118 155 194 231 266
#     4  10  20  35  51  65  87 118 152 193 232 265
#
# _framework density 15.768173000000001
#
# number of rings (size 3 to 8) (size 9 to 14) (size 15 to 20)
#    0.000    2.200    2.000    3.600    0.000    3.200 
#    0.000    0.000    0.000    0.000    0.000    0.000 
#    0.000    0.800    0.000    1.800    0.000    2.800 
#
# Total GULP energy -495929.041306 kJ/mol
# GULP energy per Si atom -12398.226033 kJ/mol
# Density = 1.573228 g / cm^3
# Si number density = 15.768173 Si / 1000 Ang^3
#
#
#
# Elastic Constant Matrix: (Units=GPa)
#
#
# Indices 1 2 3 4 5 6 
#
# 1 73.4148 61.8271 31.4007 0.0000 0.0000 0.0000
# 2 61.8271 119.3598 45.3621 0.0000 0.0000 0.0000
# 3 31.4007 45.3621 72.7425 0.0000 0.0000 0.0000
# 4 0.0000 0.0000 0.0000 29.0587 0.0000 0.0000
# 5 0.0000 0.0000 0.0000 0.0000 16.3514 0.0000
# 6 0.0000 0.0000 0.0000 0.0000 0.0000 22.9557
#
#
#
# Elastic Compliance Matrix: (Units=1/GPa)
#
#
# Indices 1 2 3 4 5 6 
#
# 1 0.024836 -0.011521 -0.003537 0.000000 0.000000 0.000000
# 2 -0.011521 0.016325 -0.005207 0.000000 0.000000 0.000000
# 3 -0.003537 -0.005207 0.018521 0.000000 0.000000 0.000000
# 4 0.000000 0.000000 0.000000 0.034413 0.000000 0.000000
# 5 0.000000 0.000000 0.000000 0.000000 0.061157 0.000000
# 6 0.000000 0.000000 0.000000 0.000000 0.000000 0.043562
#
#
# Mechanical properties :
#
#
# Convention : Reuss Voigt Hill
#
# Bulk Modulus (GPa) = 52.21117 60.29966 56.25542
# Shear Modulus (GPa) = 20.34782 22.13497 21.24140
#
# Velocity S-wave (km/s) = 3.59616 3.75076 3.67428
# Velocity P-wave (km/s) = 7.10118 7.55526 7.33174
#
# Compressibility (1/GPa) = 0.01915299
#
# Stress axis : x y z
#
# Youngs Moduli (GPa) = 40.26354 61.25754 53.99352
#
# Poissons Ratio (x) = 0.70574 0.19096
# Poissons Ratio (y) = 0.46387 0.28113
# Poissons Ratio (z) = 0.14240 0.31895
#
# Static dielectric constant tensor:
#      x y z
#    x 2.747000 0.000000 0.000000 
#    y 0.000000 3.197740 0.000000 
#    z 0.000000 0.000000 3.005710 
# 
# 
# High freq. dielectric constant tensor:
#      x y z
#    x 1.558420 0.000000 0.000000 
#    y 0.000000 1.605080 0.000000 
#    z 0.000000 0.000000 1.610820 
# 
# From -- ./inp_files/6369.got.cif
#   From: 2010.03.12/outbox.cif.g09.slc.cpg/sg63_4_cif.got.tgz:6369.got - 2010.04.10 19:34:48.
