data_PCOD8255750
_publ_section_title
;
Structure prediction by ZEFSAII (Michael W. Deem and Ramdas Pophale) SiO2 
 PCOD8255750
Probable space group: C M C M
;
_chemical_formula_sum "Si O2"
_cell_formula_units_Z 96
_cell_length_a 9.323509
_cell_length_b 28.098501
_cell_length_c 21.018663
_cell_angle_alpha 90.000000
_cell_angle_beta 90.000000
_cell_angle_gamma 90.000000
_cell_volume 5506.398436
_symmetry_space_group_name_H-M "C M C M"
_symmetry_group_IT_number 63
_symmetry_cell_setting 'orthorhombic'
loop_
_space_group_symop_operation_xyz
x,y,z
-x,-y,1/2+z
x,-y,-z
-x,y,1/2-z
-x,-y,-z
x,y,1/2-z
-x,y,z
x,-y,1/2+z
1/2+x,1/2+y,z
1/2-x,1/2-y,1/2+z
1/2+x,1/2-y,-z
1/2-x,1/2+y,1/2-z
1/2-x,1/2-y,-z
1/2+x,1/2+y,1/2-z
1/2-x,1/2+y,z
1/2+x,1/2-y,1/2+z
loop_
_atom_site_type_symbol
_atom_site_label
_atom_site_fract_x
_atom_site_fract_y
_atom_site_fract_z
Si Si1 0.162111 0.563308 0.109147
Si Si2 0.830145 0.755143 0.679564
Si Si3 0.337976 0.106209 0.969643
Si Si4 0.338394 0.521577 0.929808
Si Si5 0.843351 0.139412 0.323843
Si Si6 0.170101 0.285783 0.047460
O O1 0.249889 0.514259 0.114742
O O2 0.228039 0.600738 0.157124
O O3 0.000000 0.552041 0.129345
O O4 0.168942 0.586304 0.040155
O O5 0.767841 0.739977 0.750000
O O6 0.780349 0.808363 0.660442
O O7 0.780190 0.721747 0.621164
O O8 0.000000 0.754911 0.685351
O O9 0.500000 0.103240 0.942657
O O10 0.235311 0.073502 0.926367
O O11 0.283755 0.160535 0.969710
O O12 0.500000 0.526488 0.903933
O O13 0.337233 0.500000 0.000000
O O14 0.868888 0.135171 0.250000
O O15 0.000000 0.131403 0.357482
O O16 0.000000 0.277715 0.039612
O O17 0.250000 0.250000 0.000000
#
# Coordination Sequence:
#
# PCOD8255750 Si02
#       6
#    16  16  16  16  16  16
#     4  10  18  28  44  65  92 120 145 181 230 282
#     4   8  15  29  48  68  91 124 163 195 225 269
#     4   9  18  30  43  65  95 122 148 185 235 278
#     4   9  17  29  46  66  86 114 152 186 220 272
#     4   9  17  29  45  65  89 117 151 189 225 265
#     4  10  19  30  47  71  98 125 156 197 240 282
#
# _framework density 17.434263000000001
#
# number of rings (size 3 to 8) (size 9 to 14) (size 15 to 20)
#    0.000    2.833    0.000    3.000    0.000    3.667 
#    0.000    0.000    0.000    2.500    0.000    2.333 
#    0.000    0.000    0.000    0.000    0.000    0.000 
#
# Total GULP energy -594893.221003 kJ/mol
# GULP energy per Si atom -12393.608771 kJ/mol
# Density = 1.739458 g / cm^3
# Si number density = 17.434263 Si / 1000 Ang^3
#
#
#
# Elastic Constant Matrix: (Units=GPa)
#
#
# Indices 1 2 3 4 5 6 
#
# 1 88.8512 62.9426 18.0402 0.0000 0.0000 0.0000
# 2 62.9426 116.2332 28.2678 0.0000 0.0000 0.0000
# 3 18.0402 28.2678 38.0657 0.0000 0.0000 0.0000
# 4 0.0000 0.0000 0.0000 20.8566 0.0000 0.0000
# 5 0.0000 0.0000 0.0000 0.0000 17.2043 0.0000
# 6 0.0000 0.0000 0.0000 0.0000 0.0000 -38.0970
#
#
#
# Elastic Compliance Matrix: (Units=1/GPa)
#
#
# Indices 1 2 3 4 5 6 
#
# 1 0.018339 -0.009540 -0.001607 0.000000 0.000000 0.000000
# 2 -0.009540 0.015463 -0.006961 0.000000 0.000000 0.000000
# 3 -0.001607 -0.006961 0.032201 0.000000 0.000000 0.000000
# 4 0.000000 0.000000 0.000000 0.047946 0.000000 0.000000
# 5 0.000000 0.000000 0.000000 0.000000 0.058125 0.000000
# 6 0.000000 0.000000 0.000000 0.000000 0.000000 -0.026249
#
#
# Mechanical properties :
#
#
# Convention : Reuss Voigt Hill
#
# Bulk Modulus (GPa) = 33.57210 51.29459 42.43335
# Shear Modulus (GPa) = 26.04550 8.91942 17.48246
#
# Velocity S-wave (km/s) = 3.86933 2.26432 3.17008
# Velocity P-wave (km/s) = 6.26582 6.02675 6.14745
#
# Compressibility (1/GPa) = 0.02978664
#
# Stress axis : x y z
#
# Youngs Moduli (GPa) = 54.52720 64.67171 31.05467
#
# Poissons Ratio (x) = 0.61700 0.04990
# Poissons Ratio (y) = 0.52021 0.21618
# Poissons Ratio (z) = 0.08761 0.45020
#
# Static dielectric constant tensor:
#      x y z
#    x 2.909530 0.000000 0.000000 
#    y 0.000000 3.638790 0.000000 
#    z 0.000000 0.000000 3.190380 
# 
# 
# High freq. dielectric constant tensor:
#      x y z
#    x 1.662860 0.000000 0.000000 
#    y 0.000000 1.674090 0.000000 
#    z 0.000000 0.000000 1.641630 
# 
# From -- ./inp_files/51355.got.cif
#   From: 2010.03.12/outbox.cif.g09.slc.cpg/sg63_26_cif.got.tgz:51355.got - 2010.04.10 19:34:48.
