data_PCOD8255738
_publ_section_title
;
Structure prediction by ZEFSAII (Michael W. Deem and Ramdas Pophale) SiO2 
 PCOD8255738
Probable space group: C M C M
;
_chemical_formula_sum "Si O2"
_cell_formula_units_Z 96
_cell_length_a 9.581051
_cell_length_b 23.799152
_cell_length_c 26.068039
_cell_angle_alpha 90.000000
_cell_angle_beta 90.000000
_cell_angle_gamma 90.000000
_cell_volume 5944.057429
_symmetry_space_group_name_H-M "C M C M"
_symmetry_group_IT_number 63
_symmetry_cell_setting 'orthorhombic'
loop_
_space_group_symop_operation_xyz
x,y,z
-x,-y,1/2+z
x,-y,-z
-x,y,1/2-z
-x,-y,-z
x,y,1/2-z
-x,y,z
x,-y,1/2+z
1/2+x,1/2+y,z
1/2-x,1/2-y,1/2+z
1/2+x,1/2-y,-z
1/2-x,1/2+y,1/2-z
1/2-x,1/2-y,-z
1/2+x,1/2+y,1/2-z
1/2-x,1/2+y,z
1/2+x,1/2-y,1/2+z
loop_
_atom_site_type_symbol
_atom_site_label
_atom_site_fract_x
_atom_site_fract_y
_atom_site_fract_z
Si Si1 0.162538 0.605092 0.570809
Si Si2 0.837166 0.082272 0.308209
Si Si3 0.658447 0.916486 0.541353
Si Si4 0.163247 0.271878 0.451435
Si Si5 0.659011 0.337529 0.602731
Si Si6 0.337163 0.001911 0.870489
O O1 0.191949 0.571212 0.518038
O O2 0.225334 0.668167 0.568115
O O3 0.217153 0.565812 0.617985
O O4 0.000000 0.611575 0.580339
O O5 0.795674 0.096455 0.250000
O O6 0.795071 0.137275 0.341844
O O7 0.000000 0.068004 0.313302
O O8 0.752857 0.026942 0.325930
O O9 0.500000 0.896228 0.547886
O O10 0.751949 0.864213 0.557535
O O11 0.688961 0.970430 0.575762
O O12 0.250000 0.250000 0.500000
O O13 0.179499 0.229588 0.402689
O O14 0.000000 0.276960 0.467609
O O15 0.500000 0.354748 0.592661
O O16 0.500000 0.000103 0.854580
#
# Coordination Sequence:
#
# PCOD8255738 Si02
#       6
#    16  16  16  16  16  16
#     4   9  16  26  41  62  91 123 148 173 211 256
#     4   9  18  33  50  65  84 111 143 184 233 273
#     4   9  15  25  42  62  87 120 150 174 208 257
#     4  10  18  28  43  63  91 124 153 179 209 253
#     4   9  17  28  43  65  89 114 148 186 218 252
#     4   9  17  28  44  66  89 113 146 183 218 259
#
# _framework density 16.150583999999998
#
# number of rings (size 3 to 8) (size 9 to 14) (size 15 to 20)
#    0.000    2.833    1.667    0.500    0.000    2.333 
#    0.000    1.667    0.000    5.000    0.000    4.667 
#    0.000    0.000    0.000    0.000    0.000    0.000 
#
# Total GULP energy -594658.418639 kJ/mol
# GULP energy per Si atom -12388.717055 kJ/mol
# Density = 1.611382 g / cm^3
# Si number density = 16.150584 Si / 1000 Ang^3
#
#
#
# Elastic Constant Matrix: (Units=GPa)
#
#
# Indices 1 2 3 4 5 6 
#
# 1 33.8783 27.0228 22.8519 0.0000 0.0000 0.0000
# 2 27.0228 101.4605 47.2787 0.0000 0.0000 0.0000
# 3 22.8519 47.2787 67.0138 0.0000 0.0000 0.0000
# 4 0.0000 0.0000 0.0000 16.7415 0.0000 0.0000
# 5 0.0000 0.0000 0.0000 0.0000 19.1402 0.0000
# 6 0.0000 0.0000 0.0000 0.0000 0.0000 18.7080
#
#
#
# Elastic Compliance Matrix: (Units=1/GPa)
#
#
# Indices 1 2 3 4 5 6 
#
# 1 0.041083 -0.006576 -0.009370 0.000000 0.000000 0.000000
# 2 -0.006576 0.015736 -0.008859 0.000000 0.000000 0.000000
# 3 -0.009370 -0.008859 0.024368 0.000000 0.000000 0.000000
# 4 0.000000 0.000000 0.000000 0.059732 0.000000 0.000000
# 5 0.000000 0.000000 0.000000 0.000000 0.052246 0.000000
# 6 0.000000 0.000000 0.000000 0.000000 0.000000 0.053453
#
#
# Mechanical properties :
#
#
# Convention : Reuss Voigt Hill
#
# Bulk Modulus (GPa) = 31.66952 44.07327 37.87139
# Shear Modulus (GPa) = 16.29974 17.93121 17.11547
#
# Velocity S-wave (km/s) = 3.18029 3.33566 3.25890
# Velocity P-wave (km/s) = 5.75649 6.49490 6.13681
#
# Compressibility (1/GPa) = 0.03157610
#
# Stress axis : x y z
#
# Youngs Moduli (GPa) = 24.34104 63.54987 41.03754
#
# Poissons Ratio (x) = 0.41788 0.38453
# Poissons Ratio (y) = 0.16006 0.36357
# Poissons Ratio (z) = 0.22808 0.56301
#
# Static dielectric constant tensor:
#      x y z
#    x 2.962140 0.000000 0.000000 
#    y 0.000000 3.456220 0.000000 
#    z 0.000000 0.000000 2.929360 
# 
# 
# High freq. dielectric constant tensor:
#      x y z
#    x 1.603040 0.000000 0.000000 
#    y 0.000000 1.624340 0.000000 
#    z 0.000000 0.000000 1.591630 
# 
# From -- ./inp_files/52884.got.cif
#   From: 2010.03.12/outbox.cif.g09.slc.cpg/sg63_27_cif.got.tgz:52884.got - 2010.04.10 19:34:48.
