data_PCOD8255415
_publ_section_title
;
Structure prediction by ZEFSAII (Michael W. Deem and Ramdas Pophale) SiO2 
 PCOD8255415
Probable space group: C M C M
;
_chemical_formula_sum "Si O2"
_cell_formula_units_Z 72
_cell_length_a 25.083050
_cell_length_b 8.851116
_cell_length_c 14.952671
_cell_angle_alpha 90.000000
_cell_angle_beta 90.000000
_cell_angle_gamma 90.000000
_cell_volume 3319.687125
_symmetry_space_group_name_H-M "C M C M"
_symmetry_group_IT_number 63
_symmetry_cell_setting 'orthorhombic'
loop_
_space_group_symop_operation_xyz
x,y,z
-x,-y,1/2+z
x,-y,-z
-x,y,1/2-z
-x,-y,-z
x,y,1/2-z
-x,y,z
x,-y,1/2+z
1/2+x,1/2+y,z
1/2-x,1/2-y,1/2+z
1/2+x,1/2-y,-z
1/2-x,1/2+y,1/2-z
1/2-x,1/2-y,-z
1/2+x,1/2+y,1/2-z
1/2-x,1/2+y,z
1/2+x,1/2-y,1/2+z
loop_
_atom_site_type_symbol
_atom_site_label
_atom_site_fract_x
_atom_site_fract_y
_atom_site_fract_z
Si Si1 0.841101 0.067321 0.403443
Si Si2 0.089946 0.059355 0.750000
Si Si3 0.232358 0.824988 0.750000
Si Si4 0.000000 0.179276 0.250000
Si Si5 0.000000 0.566326 0.611379
Si Si6 0.672996 0.019403 0.750000
Si Si7 0.384041 0.896995 0.425667
Si Si8 0.000000 0.693653 0.250000
O O1 0.790098 0.103891 0.342011
O O2 0.871451 0.220576 0.428921
O O3 0.824033 0.000000 0.500000
O O4 0.876384 0.952176 0.342740
O O5 0.054305 0.208969 0.750000
O O6 0.053732 0.913176 0.750000
O O7 0.219566 0.646896 0.750000
O O8 0.295986 0.858160 0.750000
O O9 0.000000 0.281704 0.334614
O O10 0.946528 0.578873 0.554011
O O11 0.000000 0.408492 0.663005
O O12 0.632845 0.032628 0.831599
O O13 0.353772 0.000000 0.500000
#
# Coordination Sequence:
#
# PCOD8255415 Si02
#       8
#    16   8   8   4   8   8  16   4
#     4  10  22  41  64  91 127 162 210 255 310 369
#     4  10  20  40  58  85 121 169 206 249 314 351
#     4   9  22  42  67  91 121 163 202 259 319 371
#     4  10  16  36  64  76 114 174 202 248 296 360
#     4  11  21  40  59  91 130 163 211 251 301 364
#     4  10  22  45  65  92 122 164 205 254 320 370
#     4  11  24  41  65  92 127 168 208 254 308 367
#     4  10  24  32  60  90 120 162 222 256 296 366
#
# _framework density 21.688790000000001
#
# number of rings (size 3 to 8) (size 9 to 14) (size 15 to 20)
#    0.000    1.778    2.222    2.333    3.111    2.667 
#    4.000    7.222    0.000    0.000    0.000    0.000 
#    0.000    0.000    0.000    0.000    0.000    0.000 
#
# Total GULP energy -446035.181764 kJ/mol
# GULP energy per Si atom -12389.866160 kJ/mol
# Density = 2.163943 g / cm^3
# Si number density = 21.688790 Si / 1000 Ang^3
#
#
#
# Elastic Constant Matrix: (Units=GPa)
#
#
# Indices 1 2 3 4 5 6 
#
# 1 61.2967 8.2532 5.4145 0.0000 0.0000 0.0000
# 2 8.2532 78.6774 25.6584 0.0000 0.0000 0.0000
# 3 5.4145 25.6584 144.6018 0.0000 0.0000 0.0000
# 4 0.0000 0.0000 0.0000 31.3649 0.0000 0.0000
# 5 0.0000 0.0000 0.0000 0.0000 -12.4621 0.0000
# 6 0.0000 0.0000 0.0000 0.0000 0.0000 43.5998
#
#
#
# Elastic Compliance Matrix: (Units=1/GPa)
#
#
# Indices 1 2 3 4 5 6 
#
# 1 0.016563 -0.001629 -0.000331 0.000000 0.000000 0.000000
# 2 -0.001629 0.013651 -0.002361 0.000000 0.000000 0.000000
# 3 -0.000331 -0.002361 0.007347 0.000000 0.000000 0.000000
# 4 0.000000 0.000000 0.000000 0.031883 0.000000 0.000000
# 5 0.000000 0.000000 0.000000 0.000000 -0.080243 0.000000
# 6 0.000000 0.000000 0.000000 0.000000 0.000000 0.022936
#
#
# Mechanical properties :
#
#
# Convention : Reuss Voigt Hill
#
# Bulk Modulus (GPa) = 34.58144 40.35868 37.47006
# Shear Modulus (GPa) = 164.37269 28.85052 96.61161
#
# Velocity S-wave (km/s) = 8.71501 3.65115 6.68141
# Velocity P-wave (km/s) = 10.82809 6.03515 8.76558
#
# Compressibility (1/GPa) = 0.02891725
#
# Stress axis : x y z
#
# Youngs Moduli (GPa) = 60.37651 73.25409 136.11133
#
# Poissons Ratio (x) = 0.11936 0.04506
# Poissons Ratio (y) = 0.09838 0.32140
# Poissons Ratio (z) = 0.01999 0.17297
#
# Static dielectric constant tensor:
#      x y z
#    x 3.849240 0.000000 0.000000 
#    y 0.000000 3.919860 0.000000 
#    z 0.000000 0.000000 3.950370 
# 
# 
# High freq. dielectric constant tensor:
#      x y z
#    x 1.844260 0.000000 0.000000 
#    y 0.000000 1.858480 0.000000 
#    z 0.000000 0.000000 1.860740 
# 
# From -- ./inp_files/37637.got.cif
#   From: 2010.03.12/outbox.cif.g09.slc.cpg/sg63_19_cif.got.tgz:37637.got - 2010.04.10 19:34:48.
