data_PCOD8255446
_publ_section_title
;
Structure prediction by ZEFSAII (Michael W. Deem and Ramdas Pophale) SiO2 
 PCOD8255446
Probable space group: C M C M
;
_chemical_formula_sum "Si O2"
_cell_formula_units_Z 112
_cell_length_a 19.070590
_cell_length_b 20.021681
_cell_length_c 17.250138
_cell_angle_alpha 90.000000
_cell_angle_beta 90.000000
_cell_angle_gamma 90.000000
_cell_volume 6586.538590
_symmetry_space_group_name_H-M "C M C M"
_symmetry_group_IT_number 63
_symmetry_cell_setting 'orthorhombic'
loop_
_space_group_symop_operation_xyz
x,y,z
-x,-y,1/2+z
x,-y,-z
-x,y,1/2-z
-x,-y,-z
x,y,1/2-z
-x,y,z
x,-y,1/2+z
1/2+x,1/2+y,z
1/2-x,1/2-y,1/2+z
1/2+x,1/2-y,-z
1/2-x,1/2+y,1/2-z
1/2-x,1/2-y,-z
1/2+x,1/2+y,1/2-z
1/2-x,1/2+y,z
1/2+x,1/2-y,1/2+z
loop_
_atom_site_type_symbol
_atom_site_label
_atom_site_fract_x
_atom_site_fract_y
_atom_site_fract_z
Si Si1 0.218798 0.125555 0.841865
Si Si2 0.279591 0.011381 0.341014
Si Si3 0.383353 0.813321 0.571284
Si Si4 0.757071 0.155819 0.342273
Si Si5 0.923958 0.809307 0.161341
Si Si6 0.195902 0.267445 0.066195
Si Si7 0.577904 0.035922 0.080522
O O1 0.227529 0.127990 0.750000
O O2 0.138991 0.142469 0.867523
O O3 0.274464 0.176263 0.877129
O O4 0.238190 0.052185 0.875347
O O5 0.275660 0.009765 0.250000
O O6 0.240314 0.078649 0.370400
O O7 0.361826 0.010710 0.361956
O O8 0.314429 0.812327 0.625522
O O9 0.431305 0.756713 0.609111
O O10 0.371564 0.794739 0.480169
O O11 0.421002 0.884348 0.571838
O O12 0.760717 0.162689 0.250000
O O13 0.818960 0.200108 0.382399
O O14 0.909491 0.787987 0.250000
O O15 0.000000 0.846148 0.154560
O O16 0.250000 0.250000 0.000000
O O17 0.500000 0.016271 0.111400
O O18 0.593380 0.000000 0.000000
#
# Coordination Sequence:
#
# PCOD8255446 Si02
#       7
#    16  16  16  16  16  16  16
#     4  10  18  31  48  69  98 130 163 209 250 292
#     4   9  19  32  48  69  96 127 165 204 245 290
#     4  10  18  29  46  69  98 125 162 195 239 295
#     4   9  16  28  44  67  95 121 153 202 244 285
#     4  10  19  30  47  71  98 127 158 197 250 302
#     4  10  17  26  45  67  94 125 160 197 243 287
#     4  10  20  33  47  66  98 133 164 198 239 292
#
# _framework density 17.004379
#
# number of rings (size 3 to 8) (size 9 to 14) (size 15 to 20)
#    0.000    2.286    2.857    2.143    0.000    0.857 
#    0.000    0.000    0.000    0.000    0.000    3.000 
#    0.000    7.429    0.000    0.571    0.000    0.000 
#
# Total GULP energy -693863.938240 kJ/mol
# GULP energy per Si atom -12390.427469 kJ/mol
# Density = 1.696568 g / cm^3
# Si number density = 17.004379 Si / 1000 Ang^3
#
#
#
# Elastic Constant Matrix: (Units=GPa)
#
#
# Indices 1 2 3 4 5 6 
#
# 1 67.2062 42.7584 14.6471 0.0000 0.0000 0.0000
# 2 42.7584 119.0510 31.6702 0.0000 0.0000 0.0000
# 3 14.6471 31.6702 40.0272 0.0000 0.0000 0.0000
# 4 0.0000 0.0000 0.0000 24.7773 0.0000 0.0000
# 5 0.0000 0.0000 0.0000 0.0000 17.7497 0.0000
# 6 0.0000 0.0000 0.0000 0.0000 0.0000 16.0036
#
#
#
# Elastic Compliance Matrix: (Units=1/GPa)
#
#
# Indices 1 2 3 4 5 6 
#
# 1 0.019414 -0.006438 -0.002010 0.000000 0.000000 0.000000
# 2 -0.006438 0.012774 -0.007751 0.000000 0.000000 0.000000
# 3 -0.002010 -0.007751 0.031851 0.000000 0.000000 0.000000
# 4 0.000000 0.000000 0.000000 0.040360 0.000000 0.000000
# 5 0.000000 0.000000 0.000000 0.000000 0.056339 0.000000
# 6 0.000000 0.000000 0.000000 0.000000 0.000000 0.062486
#
#
# Mechanical properties :
#
#
# Convention : Reuss Voigt Hill
#
# Bulk Modulus (GPa) = 31.60510 44.93734 38.27122
# Shear Modulus (GPa) = 18.78505 20.85335 19.81920
#
# Velocity S-wave (km/s) = 3.32734 3.50573 3.41770
# Velocity P-wave (km/s) = 5.77827 6.54761 6.17493
#
# Compressibility (1/GPa) = 0.03164046
#
# Stress axis : x y z
#
# Youngs Moduli (GPa) = 51.51022 78.28423 31.39570
#
# Poissons Ratio (x) = 0.50398 0.06311
# Poissons Ratio (y) = 0.33161 0.24335
# Poissons Ratio (z) = 0.10355 0.60680
#
# Static dielectric constant tensor:
#      x y z
#    x 3.188320 0.000000 0.000000 
#    y 0.000000 3.714670 0.000000 
#    z 0.000000 0.000000 3.701510 
# 
# 
# High freq. dielectric constant tensor:
#      x y z
#    x 1.621850 0.000000 0.000000 
#    y 0.000000 1.661580 0.000000 
#    z 0.000000 0.000000 1.652990 
# 
# From -- ./inp_files/46129.got.cif
#   From: 2010.03.12/outbox.cif.g09.slc.cpg/sg63_24_cif.got.tgz:46129.got - 2010.04.10 19:34:48.
