data_PCOD8255259
_publ_section_title
;
Structure prediction by ZEFSAII (Michael W. Deem and Ramdas Pophale) SiO2 
 PCOD8255259
Probable space group: P N M A
;
_chemical_formula_sum "Si O2"
_cell_formula_units_Z 40
_cell_length_a 8.405803
_cell_length_b 21.826463
_cell_length_c 9.718314
_cell_angle_alpha 90.000000
_cell_angle_beta 90.000000
_cell_angle_gamma 90.000000
_cell_volume 1783.008848
_symmetry_space_group_name_H-M "P N M A"
_symmetry_group_IT_number 62
_symmetry_cell_setting 'orthorhombic'
loop_
_space_group_symop_operation_xyz
x,y,z
1/2-x,-y,1/2+z
1/2+x,1/2-y,1/2-z
-x,1/2+y,-z
-x,-y,-z
1/2+x,y,1/2-z
1/2-x,1/2+y,1/2+z
x,1/2-y,z
loop_
_atom_site_type_symbol
_atom_site_label
_atom_site_fract_x
_atom_site_fract_y
_atom_site_fract_z
Si Si1 0.843393 0.250000 0.647609
Si Si2 0.738718 0.076940 0.313577
Si Si3 0.521802 0.750000 0.441267
Si Si4 0.909025 0.381243 0.575380
Si Si5 0.265331 0.565856 0.182237
Si Si6 0.587651 0.620618 0.564167
O O1 0.858156 0.250000 0.812679
O O2 0.658059 0.250000 0.611529
O O3 0.932832 0.308225 0.581924
O O4 0.871321 0.098907 0.421224
O O5 0.563605 0.089095 0.367567
O O6 0.766147 0.113503 0.171000
O O7 0.759615 0.005452 0.285385
O O8 0.554847 0.691599 0.536166
O O9 0.761438 0.398583 0.674557
O O10 0.064367 0.416526 0.623691
O O11 0.127256 0.585102 0.076318
#
# Coordination Sequence:
#
# PCOD8255259 Si02
#       6
#     4   8   4   8   8   8
#     4  12  24  47  71 102 140 174 242 294 338 427
#     4  12  25  46  68 104 149 182 236 294 357 427
#     4  12  26  47  73 102 140 182 244 288 356 419
#     4  12  24  42  73 102 136 190 232 296 353 411
#     4  12  24  44  71 107 139 190 239 288 353 426
#     4  12  26  45  70 102 143 193 234 295 357 419
#
# _framework density 22.433989
#
# number of rings (size 3 to 8) (size 9 to 14) (size 15 to 20)
#    0.000    0.000    4.000    7.200    0.000    1.600 
#    0.000    0.000    0.000    0.000    0.000    0.000 
#    0.000    0.000    0.000    0.000    0.000    0.000 
#
# Total GULP energy -496400.482085 kJ/mol
# GULP energy per Si atom -12410.012052 kJ/mol
# Density = 2.238293 g / cm^3
# Si number density = 22.433989 Si / 1000 Ang^3
#
#
#
# Elastic Constant Matrix: (Units=GPa)
#
#
# Indices 1 2 3 4 5 6 
#
# 1 52.2556 -2.0514 -1.3004 0.0000 0.0000 0.0000
# 2 -2.0514 130.0850 36.9241 0.0000 0.0000 0.0000
# 3 -1.3004 36.9241 74.2381 0.0000 0.0000 0.0000
# 4 0.0000 0.0000 0.0000 36.7318 0.0000 0.0000
# 5 0.0000 0.0000 0.0000 0.0000 39.5980 0.0000
# 6 0.0000 0.0000 0.0000 0.0000 0.0000 18.5984
#
#
#
# Elastic Compliance Matrix: (Units=1/GPa)
#
#
# Indices 1 2 3 4 5 6 
#
# 1 0.019152 0.000241 0.000216 0.000000 0.000000 0.000000
# 2 0.000241 0.008954 -0.004449 0.000000 0.000000 0.000000
# 3 0.000216 -0.004449 0.015687 0.000000 0.000000 0.000000
# 4 0.000000 0.000000 0.000000 0.027224 0.000000 0.000000
# 5 0.000000 0.000000 0.000000 0.000000 0.025254 0.000000
# 6 0.000000 0.000000 0.000000 0.000000 0.000000 0.053768
#
#
# Mechanical properties :
#
#
# Convention : Reuss Voigt Hill
#
# Bulk Modulus (GPa) = 27.92759 35.96925 31.94842
# Shear Modulus (GPa) = 29.41871 33.85273 31.63572
#
# Velocity S-wave (km/s) = 3.62518 3.88879 3.75930
# Velocity P-wave (km/s) = 5.47708 6.01928 5.75457
#
# Compressibility (1/GPa) = 0.03580689
#
# Stress axis : x y z
#
# Youngs Moduli (GPa) = 52.21511 111.68220 63.74749
#
# Poissons Ratio (x) = -0.02689 -0.01375
# Poissons Ratio (y) = -0.01257 0.28363
# Poissons Ratio (z) = -0.01126 0.49690
#
# Static dielectric constant tensor:
#      x y z
#    x 4.138840 0.000000 0.000000 
#    y 0.000000 4.200580 0.000000 
#    z 0.000000 0.000000 4.381780 
# 
# 
# High freq. dielectric constant tensor:
#      x y z
#    x 1.894250 0.000000 0.000000 
#    y 0.000000 1.896330 0.000000 
#    z 0.000000 0.000000 1.893440 
# 
# From -- ./inp_files/4331.got.cif
#   From: 2010.03.12/outbox.cif.g09.slc.cpg/sg62_3_cif.got.tgz:4331.got - 2010.04.10 19:12:36.
