data_PCOD8255627
_publ_section_title
;
Structure prediction by ZEFSAII (Michael W. Deem and Ramdas Pophale) SiO2 
 PCOD8255627
Probable space group: C M C M
;
_chemical_formula_sum "Si O2"
_cell_formula_units_Z 88
_cell_length_a 26.177936
_cell_length_b 27.204784
_cell_length_c 9.176723
_cell_angle_alpha 90.000000
_cell_angle_beta 90.000000
_cell_angle_gamma 90.000000
_cell_volume 6535.341802
_symmetry_space_group_name_H-M "C M C M"
_symmetry_group_IT_number 63
_symmetry_cell_setting 'orthorhombic'
loop_
_space_group_symop_operation_xyz
x,y,z
-x,-y,1/2+z
x,-y,-z
-x,y,1/2-z
-x,-y,-z
x,y,1/2-z
-x,y,z
x,-y,1/2+z
1/2+x,1/2+y,z
1/2-x,1/2-y,1/2+z
1/2+x,1/2-y,-z
1/2-x,1/2+y,1/2-z
1/2-x,1/2-y,-z
1/2+x,1/2+y,1/2-z
1/2-x,1/2+y,z
1/2+x,1/2-y,1/2+z
loop_
_atom_site_type_symbol
_atom_site_label
_atom_site_fract_x
_atom_site_fract_y
_atom_site_fract_z
Si Si1 0.296467 0.949084 0.580207
Si Si2 0.700762 0.270764 0.079063
Si Si3 0.250492 0.633163 0.911417
Si Si4 0.353622 0.806187 0.085168
Si Si5 0.000000 0.448517 0.920908
Si Si6 0.101275 0.391725 0.920039
O O1 0.289441 0.957807 0.750000
O O2 0.252774 0.910919 0.527266
O O3 0.352170 0.928037 0.540524
O O4 0.288399 0.000000 0.500000
O O5 0.702476 0.257129 0.250000
O O6 0.701408 0.330289 0.057215
O O7 0.750000 0.250000 0.000000
O O8 0.651354 0.245352 0.003902
O O9 0.255566 0.610074 0.750000
O O10 0.200066 0.666197 0.919439
O O11 0.370960 0.794758 0.250000
O O12 0.395563 0.840818 0.008524
O O13 0.049589 0.418190 0.969266
O O14 0.000000 0.458898 0.750000
O O15 0.000000 0.500000 0.000000
O O16 0.101698 0.378620 0.750000
#
# Coordination Sequence:
#
# PCOD8255627 Si02
#       6
#    16  16  16  16   8  16
#     4  10  18  26  37  50  66  89 116 147 180 213
#     4   9  15  23  36  53  72  91 109 133 166 205
#     4   8  15  25  35  49  68  88 110 135 165 202
#     4   9  16  25  38  54  70  88 109 137 173 213
#     4  10  20  32  44  56  70  90 118 154 195 234
#     4   9  18  30  41  53  68  88 115 148 187 228
#
# _framework density 13.465249
#
# number of rings (size 3 to 8) (size 9 to 14) (size 15 to 20)
#    0.000    2.909    0.000    3.273    0.000    6.545 
#    0.000    0.000    0.000    0.000    0.000    0.000 
#    0.000    0.000    0.000    0.000    0.000    0.000 
#
# Total GULP energy -545325.652524 kJ/mol
# GULP energy per Si atom -12393.764830 kJ/mol
# Density = 1.343460 g / cm^3
# Si number density = 13.465249 Si / 1000 Ang^3
#
#
#
# Elastic Constant Matrix: (Units=GPa)
#
#
# Indices 1 2 3 4 5 6 
#
# 1 36.2867 45.5553 28.7469 0.0000 0.0000 0.0000
# 2 45.5553 98.4417 59.6843 0.0000 0.0000 0.0000
# 3 28.7469 59.6843 86.8743 0.0000 0.0000 0.0000
# 4 0.0000 0.0000 0.0000 27.9561 0.0000 0.0000
# 5 0.0000 0.0000 0.0000 0.0000 12.1884 0.0000
# 6 0.0000 0.0000 0.0000 0.0000 0.0000 19.6021
#
#
#
# Elastic Compliance Matrix: (Units=1/GPa)
#
#
# Indices 1 2 3 4 5 6 
#
# 1 0.065875 -0.029597 -0.001465 0.000000 0.000000 0.000000
# 2 -0.029597 0.030707 -0.011303 0.000000 0.000000 0.000000
# 3 -0.001465 -0.011303 0.019761 0.000000 0.000000 0.000000
# 4 0.000000 0.000000 0.000000 0.035770 0.000000 0.000000
# 5 0.000000 0.000000 0.000000 0.000000 0.082045 0.000000
# 6 0.000000 0.000000 0.000000 0.000000 0.000000 0.051015
#
#
# Mechanical properties :
#
#
# Convention : Reuss Voigt Hill
#
# Bulk Modulus (GPa) = 31.63082 54.39731 43.01407
# Shear Modulus (GPa) = 13.14262 17.79038 15.46650
#
# Velocity S-wave (km/s) = 3.12755 3.63878 3.39281
# Velocity P-wave (km/s) = 6.04846 7.62498 6.88201
#
# Compressibility (1/GPa) = 0.03161473
#
# Stress axis : x y z
#
# Youngs Moduli (GPa) = 15.18022 32.56537 50.60472
#
# Poissons Ratio (x) = 0.96382 0.07413
# Poissons Ratio (y) = 0.44928 0.57199
# Poissons Ratio (z) = 0.02224 0.36809
#
# Static dielectric constant tensor:
#      x y z
#    x 2.440950 0.000000 0.000000 
#    y 0.000000 2.908360 0.000000 
#    z 0.000000 0.000000 2.840990 
# 
# 
# High freq. dielectric constant tensor:
#      x y z
#    x 1.448860 0.000000 0.000000 
#    y 0.000000 1.507980 0.000000 
#    z 0.000000 0.000000 1.529100 
# 
# From -- ./inp_files/11019.got.cif
#   From: 2010.03.12/outbox.cif.g09.slc.cpg/sg63_6_cif.got.tgz:11019.got - 2010.04.10 19:34:48.
