data_PCOD8255677
_publ_section_title
;
Structure prediction by ZEFSAII (Michael W. Deem and Ramdas Pophale) SiO2 
 PCOD8255677
Probable space group: C M C M
;
_chemical_formula_sum "Si O2"
_cell_formula_units_Z 80
_cell_length_a 9.674483
_cell_length_b 24.657966
_cell_length_c 20.607315
_cell_angle_alpha 90.000000
_cell_angle_beta 90.000000
_cell_angle_gamma 90.000000
_cell_volume 4915.938317
_symmetry_space_group_name_H-M "C M C M"
_symmetry_group_IT_number 63
_symmetry_cell_setting 'orthorhombic'
loop_
_space_group_symop_operation_xyz
x,y,z
-x,-y,1/2+z
x,-y,-z
-x,y,1/2-z
-x,-y,-z
x,y,1/2-z
-x,y,z
x,-y,1/2+z
1/2+x,1/2+y,z
1/2-x,1/2-y,1/2+z
1/2+x,1/2-y,-z
1/2-x,1/2+y,1/2-z
1/2-x,1/2-y,-z
1/2+x,1/2+y,1/2-z
1/2-x,1/2+y,z
1/2+x,1/2-y,1/2+z
loop_
_atom_site_type_symbol
_atom_site_label
_atom_site_fract_x
_atom_site_fract_y
_atom_site_fract_z
Si Si1 0.500000 0.005692 0.681707
Si Si2 0.794254 0.596178 0.655195
Si Si3 0.000000 0.168422 0.532520
Si Si4 0.707232 0.874010 0.013735
Si Si5 0.500000 0.188765 0.819702
Si Si6 0.500000 0.948943 0.951667
Si Si7 0.500000 0.634919 0.822204
Si Si8 0.500000 0.217844 0.538177
O O1 0.500000 0.972833 0.750000
O O2 0.363687 0.042994 0.683818
O O3 0.500000 0.964715 0.622919
O O4 0.820232 0.592432 0.578787
O O5 0.863718 0.651381 0.680691
O O6 0.633648 0.596455 0.674345
O O7 0.869962 0.135288 0.504292
O O8 0.000000 0.173130 0.612356
O O9 0.000000 0.227620 0.502357
O O10 0.636144 0.815160 0.017732
O O11 0.637544 0.911875 0.959441
O O12 0.500000 0.220974 0.750000
O O13 0.500000 0.227949 0.883147
O O14 0.500000 0.000000 0.000000
O O15 0.500000 0.664391 0.750000
#
# Coordination Sequence:
#
# PCOD8255677 Si02
#       8
#     8  16   8  16   8   8   8   8
#     4  11  19  29  50  71  89 119 162 197 227 274
#     4   9  16  28  44  68  94 119 147 187 241 289
#     4  10  19  31  48  71  98 122 162 194 234 281
#     4   9  18  31  49  72  93 127 156 195 234 277
#     4   9  15  25  43  65  90 114 151 194 232 280
#     4  11  18  34  53  66  95 126 161 187 232 278
#     4  10  18  27  41  65 101 124 139 183 248 296
#     4   9  17  30  49  68  93 123 159 193 236 275
#
# _framework density 16.273596999999999
#
# number of rings (size 3 to 8) (size 9 to 14) (size 15 to 20)
#    0.000    2.400    2.000    4.200    0.000    0.000 
#    0.000    1.500    0.000    3.600    0.000    0.000 
#    0.000    0.000    0.000    0.000    0.000    0.000 
#
# Total GULP energy -495556.404244 kJ/mol
# GULP energy per Si atom -12388.910106 kJ/mol
# Density = 1.623656 g / cm^3
# Si number density = 16.273597 Si / 1000 Ang^3
#
#
#
# Elastic Constant Matrix: (Units=GPa)
#
#
# Indices 1 2 3 4 5 6 
#
# 1 132.8519 33.8741 38.9232 0.0000 0.0000 0.0000
# 2 33.8741 62.8559 60.2533 0.0000 0.0000 0.0000
# 3 38.9232 60.2533 145.6208 0.0000 0.0000 0.0000
# 4 0.0000 0.0000 0.0000 18.0206 0.0000 0.0000
# 5 0.0000 0.0000 0.0000 0.0000 7.1383 0.0000
# 6 0.0000 0.0000 0.0000 0.0000 0.0000 9.4559
#
#
#
# Elastic Compliance Matrix: (Units=1/GPa)
#
#
# Indices 1 2 3 4 5 6 
#
# 1 0.008762 -0.004105 -0.000643 0.000000 0.000000 0.000000
# 2 -0.004105 0.028291 -0.010609 0.000000 0.000000 0.000000
# 3 -0.000643 -0.010609 0.011429 0.000000 0.000000 0.000000
# 4 0.000000 0.000000 0.000000 0.055492 0.000000 0.000000
# 5 0.000000 0.000000 0.000000 0.000000 0.140089 0.000000
# 6 0.000000 0.000000 0.000000 0.000000 0.000000 0.105754
#
#
# Mechanical properties :
#
#
# Convention : Reuss Voigt Hill
#
# Bulk Modulus (GPa) = 56.28311 67.49219 61.88765
# Shear Modulus (GPa) = 12.93811 20.80816 16.87314
#
# Velocity S-wave (km/s) = 2.82270 3.57969 3.22350
# Velocity P-wave (km/s) = 6.72935 7.65827 7.20879
#
# Compressibility (1/GPa) = 0.01776732
#
# Stress axis : x y z
#
# Youngs Moduli (GPa) = 114.12281 35.34648 87.49908
#
# Poissons Ratio (x) = 0.14511 0.05630
# Poissons Ratio (y) = 0.46853 0.92825
# Poissons Ratio (z) = 0.07343 0.37498
#
# Static dielectric constant tensor:
#      x y z
#    x 3.350740 0.000000 0.000000 
#    y 0.000000 2.613920 0.000000 
#    z 0.000000 0.000000 3.247290 
# 
# 
# High freq. dielectric constant tensor:
#      x y z
#    x 1.639730 0.000000 0.000000 
#    y 0.000000 1.569840 0.000000 
#    z 0.000000 0.000000 1.630240 
# 
# From -- ./inp_files/51018.got.cif
#   From: 2010.03.12/outbox.cif.g09.slc.cpg/sg63_26_cif.got.tgz:51018.got - 2010.04.10 19:34:48.
