data_PCOD8255320
_publ_section_title
;
Structure prediction by ZEFSAII (Michael W. Deem and Ramdas Pophale) SiO2 
 PCOD8255320
Probable space group: P N M A
;
_chemical_formula_sum "Si O2"
_cell_formula_units_Z 48
_cell_length_a 18.000000
_cell_length_b 9.000000
_cell_length_c 15.000000
_cell_angle_alpha 90.000000
_cell_angle_beta 90.000000
_cell_angle_gamma 90.000000
_cell_volume 2430.000000
_symmetry_space_group_name_H-M "P N M A"
_symmetry_group_IT_number 62
_symmetry_cell_setting 'orthorhombic'
loop_
_space_group_symop_operation_xyz
x,y,z
1/2-x,-y,1/2+z
1/2+x,1/2-y,1/2-z
-x,1/2+y,-z
-x,-y,-z
1/2+x,y,1/2-z
1/2-x,1/2+y,1/2+z
x,1/2-y,z
loop_
_atom_site_type_symbol
_atom_site_label
_atom_site_fract_x
_atom_site_fract_y
_atom_site_fract_z
Si Si1 0.746698 0.583185 0.185341
Si Si2 0.436783 0.074095 0.558146
Si Si3 0.661960 0.423642 0.857268
Si Si4 0.277890 0.425449 0.495521
Si Si5 0.918725 0.080362 0.739838
Si Si6 0.487195 0.425277 0.094725
O O1 0.755711 0.750000 0.148296
O O2 0.809390 0.547155 0.257687
O O3 0.752879 0.474042 0.102337
O O4 0.669736 0.565962 0.237694
O O5 0.441346 0.250000 0.547168
O O6 0.358785 0.011471 0.520754
O O7 0.446084 0.030295 0.662112
O O8 0.500000 0.000000 0.500000
O O9 0.643466 0.250000 0.872304
O O10 0.590131 0.524193 0.864684
O O11 0.719483 0.482786 0.931271
O O12 0.280124 0.250000 0.498482
O O13 0.943890 0.250000 0.720566
O O14 0.949695 0.972644 0.664153
O O15 0.489700 0.250000 0.081587
O O16 0.500000 0.500000 0.000000
#
# Coordination Sequence:
#
# PCOD8255320 Si02
#       6
#     8   8   8   8   8   8
#     4  10  21  38  63  90 117 156 201 246 298 358
#     4  10  22  40  61  87 122 163 202 248 301 360
#     4  10  21  41  64  88 121 160 200 246 304 362
#     4  10  21  39  62  88 121 157 196 249 303 355
#     4  10  21  42  66  89 123 165 205 247 302 364
#     4  12  26  42  62  91 124 160 202 253 305 362
#
# _framework density 19.753086
#
# number of rings (size 3 to 8) (size 9 to 14) (size 15 to 20)
#    0.000    1.667    1.667    2.500    2.333    6.000 
#    0.000    0.000    0.000    0.000    0.000    0.000 
#    0.000    0.000    0.000    0.000    0.000    0.000 
#
# Total GULP energy -595356.309042 kJ/mol
# GULP energy per Si atom -12403.256438 kJ/mol
# Density = 1.970813 g / cm^3
# Si number density = 19.753086 Si / 1000 Ang^3
#
#
#
# Elastic Constant Matrix: (Units=GPa)
#
#
# Indices 1 2 3 4 5 6 
#
# 1 68.6598 25.1000 18.2813 0.0000 0.0000 0.0000
# 2 25.1000 64.6161 29.9361 0.0000 0.0000 0.0000
# 3 18.2813 29.9361 113.5196 0.0000 0.0000 0.0000
# 4 0.0000 0.0000 0.0000 33.5273 0.0000 0.0000
# 5 0.0000 0.0000 0.0000 0.0000 37.0944 0.0000
# 6 0.0000 0.0000 0.0000 0.0000 0.0000 32.0967
#
#
#
# Elastic Compliance Matrix: (Units=1/GPa)
#
#
# Indices 1 2 3 4 5 6 
#
# 1 0.017104 -0.006115 -0.001142 0.000000 0.000000 0.000000
# 2 -0.006115 0.019816 -0.004241 0.000000 0.000000 0.000000
# 3 -0.001142 -0.004241 0.010111 0.000000 0.000000 0.000000
# 4 0.000000 0.000000 0.000000 0.029826 0.000000 0.000000
# 5 0.000000 0.000000 0.000000 0.000000 0.026958 0.000000
# 6 0.000000 0.000000 0.000000 0.000000 0.000000 0.031156
#
#
# Mechanical properties :
#
#
# Convention : Reuss Voigt Hill
#
# Bulk Modulus (GPa) = 41.60443 43.71449 42.65946
# Shear Modulus (GPa) = 30.12414 32.10887 31.11651
#
# Velocity S-wave (km/s) = 3.90941 4.03614 3.97328
# Velocity P-wave (km/s) = 6.44096 6.62564 6.53395
#
# Compressibility (1/GPa) = 0.02403590
#
# Stress axis : x y z
#
# Youngs Moduli (GPa) = 58.46559 50.46376 98.89919
#
# Poissons Ratio (x) = 0.30859 0.11293
# Poissons Ratio (y) = 0.35752 0.41943
# Poissons Ratio (z) = 0.06676 0.21401
#
# Static dielectric constant tensor:
#      x y z
#    x 3.737660 0.000000 0.000000 
#    y 0.000000 3.499160 0.000000 
#    z 0.000000 0.000000 3.663930 
# 
# 
# High freq. dielectric constant tensor:
#      x y z
#    x 1.778730 0.000000 0.000000 
#    y 0.000000 1.753720 0.000000 
#    z 0.000000 0.000000 1.789380 
# 
# From -- ./inp_files/19574.got.cif
#   From: 2010.03.12/outbox.ucp.g09.slc.cvg/sg62_10_cif.got.tgz:19574.got - 2010.05.04 19:35:18.
