data_PCOD8255231
_publ_section_title
;
Structure prediction by ZEFSAII (Michael W. Deem and Ramdas Pophale) SiO2 
 PCOD8255231
Probable space group: P N M A
;
_chemical_formula_sum "Si O2"
_cell_formula_units_Z 56
_cell_length_a 9.336855
_cell_length_b 23.132615
_cell_length_c 13.900705
_cell_angle_alpha 90.000000
_cell_angle_beta 90.000000
_cell_angle_gamma 90.000000
_cell_volume 3002.355891
_symmetry_space_group_name_H-M "P N M A"
_symmetry_group_IT_number 62
_symmetry_cell_setting 'orthorhombic'
loop_
_space_group_symop_operation_xyz
x,y,z
1/2-x,-y,1/2+z
1/2+x,1/2-y,1/2-z
-x,1/2+y,-z
-x,-y,-z
1/2+x,y,1/2-z
1/2-x,1/2+y,1/2+z
x,1/2-y,z
loop_
_atom_site_type_symbol
_atom_site_label
_atom_site_fract_x
_atom_site_fract_y
_atom_site_fract_z
Si Si1 0.155466 0.505396 0.265175
Si Si2 0.462425 0.250000 0.141211
Si Si3 0.909653 0.071567 0.247129
Si Si4 0.967694 0.357307 0.067312
Si Si5 0.297322 0.143481 0.091020
Si Si6 0.308579 0.250000 0.350087
Si Si7 0.146547 0.971871 0.474835
Si Si8 0.603477 0.542920 0.444629
O O1 0.316547 0.486272 0.243877
O O2 0.160175 0.543520 0.361657
O O3 0.092467 0.537909 0.171641
O O4 0.063026 0.447436 0.290477
O O5 0.408638 0.196048 0.076261
O O6 0.380568 0.250000 0.244480
O O7 0.634455 0.250000 0.157208
O O8 0.936718 0.089991 0.138758
O O9 0.829861 0.124052 0.299911
O O10 0.860690 0.304738 0.087642
O O11 0.132749 0.336190 0.077385
O O12 0.933805 0.389191 0.965837
O O13 0.329431 0.089832 0.023095
O O14 0.244855 0.022996 0.515437
O O15 0.000000 0.000000 0.500000
O O16 0.500000 0.500000 0.500000
#
# Coordination Sequence:
#
# PCOD8255231 Si02
#       8
#     8   4   8   8   8   4   8   8
#     4  12  22  36  56  94 128 168 200 246 307 380
#     4  12  28  42  64  89 124 161 216 255 320 372
#     4  12  20  33  60  86 126 159 199 243 299 367
#     4  12  24  40  62  86 126 166 211 252 309 371
#     4  12  24  41  58  91 125 167 206 258 306 376
#     4  12  28  42  64  91 118 169 210 263 314 378
#     4  12  23  35  60  93 130 164 205 256 319 369
#     4  12  21  39  60  89 126 168 204 254 308 377
#
# _framework density 18.652018999999999
#
# number of rings (size 3 to 8) (size 9 to 14) (size 15 to 20)
#    0.000    0.000   10.000    1.286    4.000    0.000 
#    0.000    0.000    0.000    0.857    0.000    0.000 
#    0.000    0.000    0.000    0.000    0.000    0.000 
#
# Total GULP energy -693945.965421 kJ/mol
# GULP energy per Si atom -12391.892240 kJ/mol
# Density = 1.860957 g / cm^3
# Si number density = 18.652019 Si / 1000 Ang^3
#
#
#
# Elastic Constant Matrix: (Units=GPa)
#
#
# Indices 1 2 3 4 5 6 
#
# 1 138.4603 40.7841 23.1132 0.0000 0.0000 0.0000
# 2 40.7841 89.1760 21.1600 0.0000 0.0000 0.0000
# 3 23.1132 21.1600 82.0186 0.0000 0.0000 0.0000
# 4 0.0000 0.0000 0.0000 24.8441 0.0000 0.0000
# 5 0.0000 0.0000 0.0000 0.0000 19.3793 0.0000
# 6 0.0000 0.0000 0.0000 0.0000 0.0000 31.4871
#
#
#
# Elastic Compliance Matrix: (Units=1/GPa)
#
#
# Indices 1 2 3 4 5 6 
#
# 1 0.008513 -0.003541 -0.001486 0.000000 0.000000 0.000000
# 2 -0.003541 0.013418 -0.002464 0.000000 0.000000 0.000000
# 3 -0.001486 -0.002464 0.013247 0.000000 0.000000 0.000000
# 4 0.000000 0.000000 0.000000 0.040251 0.000000 0.000000
# 5 0.000000 0.000000 0.000000 0.000000 0.051602 0.000000
# 6 0.000000 0.000000 0.000000 0.000000 0.000000 0.031759
#
#
# Mechanical properties :
#
#
# Convention : Reuss Voigt Hill
#
# Bulk Modulus (GPa) = 49.51211 53.30771 51.40991
# Shear Modulus (GPa) = 27.70047 30.11526 28.90786
#
# Velocity S-wave (km/s) = 3.85790 4.02255 3.94109
# Velocity P-wave (km/s) = 6.81523 7.08637 6.95212
#
# Compressibility (1/GPa) = 0.02019708
#
# Stress axis : x y z
#
# Youngs Moduli (GPa) = 117.46340 74.52752 75.49092
#
# Poissons Ratio (x) = 0.26390 0.11214
# Poissons Ratio (y) = 0.41594 0.18599
# Poissons Ratio (z) = 0.17450 0.18362
#
# Static dielectric constant tensor:
#      x y z
#    x 3.685590 0.000000 0.000000 
#    y 0.000000 3.259230 0.000000 
#    z 0.000000 0.000000 3.477600 
# 
# 
# High freq. dielectric constant tensor:
#      x y z
#    x 1.750200 0.000000 0.000000 
#    y 0.000000 1.699870 0.000000 
#    z 0.000000 0.000000 1.707700 
# 
# From -- ./inp_files/17228.got.cif
#   From: 2010.03.12/outbox.cif.g09.slc.cpg/sg62_9_cif.got.tgz:17228.got - 2010.04.10 19:12:36.
