data_PCOD8255817
_publ_section_title
;
Structure prediction by ZEFSAII (Michael W. Deem and Ramdas Pophale) SiO2 
 PCOD8255817
Probable space group: C M C M
;
_chemical_formula_sum "Si O2"
_cell_formula_units_Z 80
_cell_length_a 8.980919
_cell_length_b 18.318612
_cell_length_c 25.991966
_cell_angle_alpha 90.000000
_cell_angle_beta 90.000000
_cell_angle_gamma 90.000000
_cell_volume 4276.145497
_symmetry_space_group_name_H-M "C M C M"
_symmetry_group_IT_number 63
_symmetry_cell_setting 'orthorhombic'
loop_
_space_group_symop_operation_xyz
x,y,z
-x,-y,1/2+z
x,-y,-z
-x,y,1/2-z
-x,-y,-z
x,y,1/2-z
-x,y,z
x,-y,1/2+z
1/2+x,1/2+y,z
1/2-x,1/2-y,1/2+z
1/2+x,1/2-y,-z
1/2-x,1/2+y,1/2-z
1/2-x,1/2-y,-z
1/2+x,1/2+y,1/2-z
1/2-x,1/2+y,z
1/2+x,1/2-y,1/2+z
loop_
_atom_site_type_symbol
_atom_site_label
_atom_site_fract_x
_atom_site_fract_y
_atom_site_fract_z
Si Si1 0.173970 0.047937 0.250000
Si Si2 0.177126 0.456709 0.451037
Si Si3 0.673678 0.958071 0.852257
Si Si4 0.331265 0.787300 0.638196
Si Si5 0.830808 0.302936 0.750000
Si Si6 0.824244 0.290755 0.452720
O O1 0.243429 0.012608 0.301388
O O2 0.209868 0.133569 0.250000
O O3 0.000000 0.033874 0.250000
O O4 0.242373 0.500000 0.500000
O O5 0.238104 0.495624 0.399804
O O6 0.233765 0.373743 0.452847
O O7 0.000000 0.460043 0.451661
O O8 0.500000 0.972063 0.844270
O O9 0.706312 0.873063 0.862866
O O10 0.500000 0.774024 0.618977
O O11 0.310447 0.757053 0.697098
O O12 0.218865 0.745442 0.601346
O O13 0.000000 0.336861 0.750000
O O14 0.750000 0.250000 0.500000
O O15 0.000000 0.286818 0.459568
#
# Coordination Sequence:
#
# PCOD8255817 Si02
#       6
#     8  16  16  16   8  16
#     4  10  18  28  47  78 111 135 163 209 257 296
#     4   9  18  34  55  75  95 127 173 214 245 291
#     4   9  17  33  56  76  99 136 177 209 241 294
#     4   9  17  32  55  79 102 132 170 210 250 296
#     4   8  16  32  53  74  99 139 181 205 235 294
#     4  11  22  35  53  77 103 132 167 211 261 307
#
# _framework density 18.708438000000001
#
# number of rings (size 3 to 8) (size 9 to 14) (size 15 to 20)
#    0.000    2.600    0.000    3.900    0.000    6.400 
#    0.000    3.000    0.000    7.800    0.000    0.000 
#    0.000    0.000    0.000    0.000    0.000    0.000 
#
# Total GULP energy -495877.996235 kJ/mol
# GULP energy per Si atom -12396.949906 kJ/mol
# Density = 1.866586 g / cm^3
# Si number density = 18.708438 Si / 1000 Ang^3
#
#
#
# Elastic Constant Matrix: (Units=GPa)
#
#
# Indices 1 2 3 4 5 6 
#
# 1 60.9820 35.6289 52.1545 0.0000 0.0000 0.0000
# 2 35.6289 95.5990 76.8473 0.0000 0.0000 0.0000
# 3 52.1545 76.8473 194.8500 0.0000 0.0000 0.0000
# 4 0.0000 0.0000 0.0000 31.3525 0.0000 0.0000
# 5 0.0000 0.0000 0.0000 0.0000 27.0891 0.0000
# 6 0.0000 0.0000 0.0000 0.0000 0.0000 20.7339
#
#
#
# Elastic Compliance Matrix: (Units=1/GPa)
#
#
# Indices 1 2 3 4 5 6 
#
# 1 0.022963 -0.005296 -0.004057 0.000000 0.000000 0.000000
# 2 -0.005296 0.016538 -0.005105 0.000000 0.000000 0.000000
# 3 -0.004057 -0.005105 0.008231 0.000000 0.000000 0.000000
# 4 0.000000 0.000000 0.000000 0.031895 0.000000 0.000000
# 5 0.000000 0.000000 0.000000 0.000000 0.036915 0.000000
# 6 0.000000 0.000000 0.000000 0.000000 0.000000 0.048230
#
#
# Mechanical properties :
#
#
# Convention : Reuss Voigt Hill
#
# Bulk Modulus (GPa) = 53.14959 75.63249 64.39104
# Shear Modulus (GPa) = 25.00479 28.28844 26.64662
#
# Velocity S-wave (km/s) = 3.65985 3.89275 3.77810
# Velocity P-wave (km/s) = 6.80665 7.79226 7.31607
#
# Compressibility (1/GPa) = 0.01881482
#
# Stress axis : x y z
#
# Youngs Moduli (GPa) = 43.54848 60.46787 121.48551
#
# Poissons Ratio (x) = 0.32027 0.49292
# Poissons Ratio (y) = 0.23065 0.62014
# Poissons Ratio (z) = 0.17670 0.30867
#
# Static dielectric constant tensor:
#      x y z
#    x 3.138090 0.000000 0.000000 
#    y 0.000000 3.251920 0.000000 
#    z 0.000000 0.000000 3.971910 
# 
# 
# High freq. dielectric constant tensor:
#      x y z
#    x 1.700410 0.000000 0.000000 
#    y 0.000000 1.695040 0.000000 
#    z 0.000000 0.000000 1.752880 
# 
# From -- ./inp_files/66667.got.cif
#   From: 2010.03.12/outbox.cif.g09.slc.cpg/sg63_34_cif.got.tgz:66667.got - 2010.04.10 19:34:48.
