data_PCOD8255667
_publ_section_title
;
Structure prediction by ZEFSAII (Michael W. Deem and Ramdas Pophale) SiO2 
 PCOD8255667
Probable space group: C M C M
;
_chemical_formula_sum "Si O2"
_cell_formula_units_Z 96
_cell_length_a 9.389988
_cell_length_b 23.729738
_cell_length_c 26.060807
_cell_angle_alpha 90.000000
_cell_angle_beta 90.000000
_cell_angle_gamma 90.000000
_cell_volume 5806.919966
_symmetry_space_group_name_H-M "C M C M"
_symmetry_group_IT_number 63
_symmetry_cell_setting 'orthorhombic'
loop_
_space_group_symop_operation_xyz
x,y,z
-x,-y,1/2+z
x,-y,-z
-x,y,1/2-z
-x,-y,-z
x,y,1/2-z
-x,y,z
x,-y,1/2+z
1/2+x,1/2+y,z
1/2-x,1/2-y,1/2+z
1/2+x,1/2-y,-z
1/2-x,1/2+y,1/2-z
1/2-x,1/2-y,-z
1/2+x,1/2+y,1/2-z
1/2-x,1/2+y,z
1/2+x,1/2-y,1/2+z
loop_
_atom_site_type_symbol
_atom_site_label
_atom_site_fract_x
_atom_site_fract_y
_atom_site_fract_z
Si Si1 0.336076 0.333395 0.034810
Si Si2 0.334371 0.975287 0.552895
Si Si3 0.660345 0.250549 0.372573
Si Si4 0.667396 0.150272 0.437686
Si Si5 0.333090 0.833099 0.307630
Si Si6 0.835031 0.586148 0.896778
O O1 0.500000 0.347853 0.023613
O O2 0.320042 0.281541 0.073251
O O3 0.260184 0.387950 0.058557
O O4 0.255516 0.318653 0.982338
O O5 0.500000 0.966670 0.542758
O O6 0.273660 0.913827 0.568389
O O7 0.266411 0.000000 0.500000
O O8 0.307787 0.018764 0.600262
O O9 0.500000 0.257900 0.351849
O O10 0.695323 0.184838 0.384630
O O11 0.763244 0.276159 0.329604
O O12 0.500000 0.153160 0.451276
O O13 0.278077 0.844309 0.250000
O O14 0.500000 0.822436 0.308488
O O15 0.291027 0.888057 0.341476
O O16 0.000000 0.600173 0.908553
#
# Coordination Sequence:
#
# PCOD8255667 Si02
#       6
#    16  16  16  16  16  16
#     4  10  18  27  40  63  93 121 152 185 218 255
#     4   9  15  25  44  66  87 119 157 181 208 255
#     4   9  19  31  44  65  91 119 149 184 223 267
#     4  10  18  29  44  62  90 125 157 180 211 262
#     4   9  18  32  51  71  87 108 143 188 235 275
#     4   9  16  29  47  65  88 118 150 185 223 264
#
# _framework density 16.532
#
# number of rings (size 3 to 8) (size 9 to 14) (size 15 to 20)
#    0.000    2.667    1.667    1.000    0.000    1.667 
#    0.000    1.667    0.000    1.000    0.000    4.667 
#    0.000    0.000    0.000    0.000    0.000    0.000 
#
# Total GULP energy -594870.932184 kJ/mol
# GULP energy per Si atom -12393.144421 kJ/mol
# Density = 1.649437 g / cm^3
# Si number density = 16.532000 Si / 1000 Ang^3
#
#
#
# Elastic Constant Matrix: (Units=GPa)
#
#
# Indices 1 2 3 4 5 6 
#
# 1 43.6605 18.5526 28.5561 0.0000 0.0000 0.0000
# 2 18.5526 99.1429 41.0296 0.0000 0.0000 0.0000
# 3 28.5561 41.0296 90.6088 0.0000 0.0000 0.0000
# 4 0.0000 0.0000 0.0000 16.5678 0.0000 0.0000
# 5 0.0000 0.0000 0.0000 0.0000 19.7651 0.0000
# 6 0.0000 0.0000 0.0000 0.0000 0.0000 16.3441
#
#
#
# Elastic Compliance Matrix: (Units=1/GPa)
#
#
# Indices 1 2 3 4 5 6 
#
# 1 0.029181 -0.002036 -0.008275 0.000000 0.000000 0.000000
# 2 -0.002036 0.012555 -0.005043 0.000000 0.000000 0.000000
# 3 -0.008275 -0.005043 0.015928 0.000000 0.000000 0.000000
# 4 0.000000 0.000000 0.000000 0.060358 0.000000 0.000000
# 5 0.000000 0.000000 0.000000 0.000000 0.050594 0.000000
# 6 0.000000 0.000000 0.000000 0.000000 0.000000 0.061184
#
#
# Mechanical properties :
#
#
# Convention : Reuss Voigt Hill
#
# Bulk Modulus (GPa) = 37.09817 45.52097 41.30957
# Shear Modulus (GPa) = 18.55331 20.22033 19.38682
#
# Velocity S-wave (km/s) = 3.35366 3.50108 3.42816
# Velocity P-wave (km/s) = 6.12250 6.62860 6.38057
#
# Compressibility (1/GPa) = 0.02695551
#
# Stress axis : x y z
#
# Youngs Moduli (GPa) = 34.26857 79.65195 62.78259
#
# Poissons Ratio (x) = 0.16219 0.51950
# Poissons Ratio (y) = 0.06978 0.31663
# Poissons Ratio (z) = 0.28356 0.40171
#
# Static dielectric constant tensor:
#      x y z
#    x 3.019640 0.000000 0.000000 
#    y 0.000000 3.345250 0.000000 
#    z 0.000000 0.000000 2.963970 
# 
# 
# High freq. dielectric constant tensor:
#      x y z
#    x 1.619790 0.000000 0.000000 
#    y 0.000000 1.638510 0.000000 
#    z 0.000000 0.000000 1.602690 
# 
# From -- ./inp_files/53056.got.cif
#   From: 2010.03.12/outbox.cif.g09.slc.cpg/sg63_27_cif.got.tgz:53056.got - 2010.04.10 19:34:48.
