data_PCOD8255824
_publ_section_title
;
Structure prediction by ZEFSAII (Michael W. Deem and Ramdas Pophale) SiO2 
 PCOD8255824
Probable space group: C M C M
;
_chemical_formula_sum "Si O2"
_cell_formula_units_Z 80
_cell_length_a 8.817051
_cell_length_b 20.349021
_cell_length_c 24.482019
_cell_angle_alpha 90.000000
_cell_angle_beta 90.000000
_cell_angle_gamma 90.000000
_cell_volume 4392.523599
_symmetry_space_group_name_H-M "C M C M"
_symmetry_group_IT_number 63
_symmetry_cell_setting 'orthorhombic'
loop_
_space_group_symop_operation_xyz
x,y,z
-x,-y,1/2+z
x,-y,-z
-x,y,1/2-z
-x,-y,-z
x,y,1/2-z
-x,y,z
x,-y,1/2+z
1/2+x,1/2+y,z
1/2-x,1/2-y,1/2+z
1/2+x,1/2-y,-z
1/2-x,1/2+y,1/2-z
1/2-x,1/2-y,-z
1/2+x,1/2+y,1/2-z
1/2-x,1/2+y,z
1/2+x,1/2-y,1/2+z
loop_
_atom_site_type_symbol
_atom_site_label
_atom_site_fract_x
_atom_site_fract_y
_atom_site_fract_z
Si Si1 0.672051 0.256434 0.750000
Si Si2 0.177085 0.894114 0.638087
Si Si3 0.322638 0.689517 0.531219
Si Si4 0.676972 0.108822 0.250000
Si Si5 0.828727 0.739316 0.867708
Si Si6 0.175229 0.430589 0.971616
O O1 0.500000 0.287867 0.750000
O O2 0.796549 0.313207 0.750000
O O3 0.691725 0.213703 0.694887
O O4 0.247802 0.920541 0.694963
O O5 0.209310 0.816703 0.629781
O O6 0.254011 0.933409 0.588709
O O7 0.000000 0.909581 0.638522
O O8 0.500000 0.690180 0.521053
O O9 0.250000 0.750000 0.500000
O O10 0.285308 0.697426 0.595323
O O11 0.258321 0.621747 0.509473
O O12 0.500000 0.092462 0.250000
O O13 0.000000 0.726985 0.888332
O O14 0.000000 0.411138 0.966684
O O15 0.199315 0.500000 0.000000
#
# Coordination Sequence:
#
# PCOD8255824 Si02
#       6
#     8  16  16   8  16  16
#     4   8  16  30  48  73 108 143 178 221 277 329
#     4  10  19  33  54  79 110 145 182 226 275 330
#     4  12  23  35  55  81 111 147 184 227 273 327
#     4  10  18  28  48  77 110 143 180 227 273 321
#     4   9  17  31  52  79 109 142 180 227 276 326
#     4  11  24  40  58  81 111 146 186 233 284 339
#
# _framework density 18.212764
#
# number of rings (size 3 to 8) (size 9 to 14) (size 15 to 20)
#    0.000    1.800    2.000    5.100    0.000    4.800 
#    0.000    0.000    0.000    1.200    0.000    2.800 
#    0.000    0.000    0.000    0.000    0.000    0.000 
#
# Total GULP energy -495967.364356 kJ/mol
# GULP energy per Si atom -12399.184109 kJ/mol
# Density = 1.817131 g / cm^3
# Si number density = 18.212764 Si / 1000 Ang^3
#
#
#
# Elastic Constant Matrix: (Units=GPa)
#
#
# Indices 1 2 3 4 5 6 
#
# 1 150.6242 49.1403 76.9905 0.0000 0.0000 0.0000
# 2 49.1403 51.0988 40.9251 0.0000 0.0000 0.0000
# 3 76.9905 40.9251 171.6374 0.0000 0.0000 0.0000
# 4 0.0000 0.0000 0.0000 19.3481 0.0000 0.0000
# 5 0.0000 0.0000 0.0000 0.0000 36.1651 0.0000
# 6 0.0000 0.0000 0.0000 0.0000 0.0000 21.7190
#
#
#
# Elastic Compliance Matrix: (Units=1/GPa)
#
#
# Indices 1 2 3 4 5 6 
#
# 1 0.010733 -0.007992 -0.002909 0.000000 0.000000 0.000000
# 2 -0.007992 0.030140 -0.003602 0.000000 0.000000 0.000000
# 3 -0.002909 -0.003602 0.007990 0.000000 0.000000 0.000000
# 4 0.000000 0.000000 0.000000 0.051685 0.000000 0.000000
# 5 0.000000 0.000000 0.000000 0.000000 0.027651 0.000000
# 6 0.000000 0.000000 0.000000 0.000000 0.000000 0.046043
#
#
# Mechanical properties :
#
#
# Convention : Reuss Voigt Hill
#
# Bulk Modulus (GPa) = 50.35748 78.60801 64.48275
# Shear Modulus (GPa) = 23.82467 29.20008 26.51237
#
# Velocity S-wave (km/s) = 3.62073 4.00844 3.81951
# Velocity P-wave (km/s) = 6.72229 8.04227 7.41172
#
# Compressibility (1/GPa) = 0.01985802
#
# Stress axis : x y z
#
# Youngs Moduli (GPa) = 93.16788 33.17815 125.15869
#
# Poissons Ratio (x) = 0.26516 0.36408
# Poissons Ratio (y) = 0.74461 0.45078
# Poissons Ratio (z) = 0.27102 0.11950
#
# Static dielectric constant tensor:
#      x y z
#    x 3.491960 0.000000 0.000000 
#    y 0.000000 3.174270 0.000000 
#    z 0.000000 0.000000 5.790750 
# 
# 
# High freq. dielectric constant tensor:
#      x y z
#    x 1.716910 0.000000 0.000000 
#    y 0.000000 1.643710 0.000000 
#    z 0.000000 0.000000 1.733040 
# 
# From -- ./inp_files/66817.got.cif
#   From: 2010.03.12/outbox.cif.g09.slc.cpg/sg63_34_cif.got.tgz:66817.got - 2010.04.10 19:34:48.
