data_PCOD8255079
_publ_section_title
;
Structure prediction by ZEFSAII (Michael W. Deem and Ramdas Pophale) SiO2 
 PCOD8255079
Probable space group: P N M A
;
_chemical_formula_sum "Si O2"
_cell_formula_units_Z 48
_cell_length_a 30.653838
_cell_length_b 8.851274
_cell_length_c 9.381243
_cell_angle_alpha 90.000000
_cell_angle_beta 90.000000
_cell_angle_gamma 90.000000
_cell_volume 2545.370629
_symmetry_space_group_name_H-M "P N M A"
_symmetry_group_IT_number 62
_symmetry_cell_setting 'orthorhombic'
loop_
_space_group_symop_operation_xyz
x,y,z
1/2-x,-y,1/2+z
1/2+x,1/2-y,1/2-z
-x,1/2+y,-z
-x,-y,-z
1/2+x,y,1/2-z
1/2-x,1/2+y,1/2+z
x,1/2-y,z
loop_
_atom_site_type_symbol
_atom_site_label
_atom_site_fract_x
_atom_site_fract_y
_atom_site_fract_z
Si Si1 0.462518 0.930167 0.904190
Si Si2 0.712253 0.079473 0.580109
Si Si3 0.613249 0.071117 0.583873
Si Si4 0.538329 0.929713 0.407266
Si Si5 0.117608 0.071371 0.596337
Si Si6 0.787120 0.921584 0.409627
O O1 0.467713 0.750000 0.894598
O O2 0.464648 0.003392 0.750089
O O3 0.416739 0.977360 0.976696
O O4 0.500000 0.000000 0.000000
O O5 0.716693 0.250000 0.529614
O O6 0.662998 0.025660 0.548516
O O7 0.723551 0.060148 0.744567
O O8 0.747343 0.988740 0.493694
O O9 0.604989 0.250000 0.562688
O O10 0.602019 0.019496 0.745937
O O11 0.584182 0.975452 0.475843
O O12 0.533249 0.750000 0.400993
O O13 0.500000 0.000000 0.500000
O O14 0.123181 0.250000 0.606959
O O15 0.165382 0.002243 0.557594
O O16 0.789915 0.750000 0.457797
#
# Coordination Sequence:
#
# PCOD8255079 Si02
#       6
#     8   8   8   8   8   8
#     4  11  22  38  60  86 114 146 186 229 277 331
#     4   9  19  34  53  79 110 144 181 225 276 325
#     4   9  18  37  60  80 107 143 183 227 276 328
#     4  12  25  40  58  83 113 145 183 227 278 333
#     4   8  17  35  58  79 104 142 183 225 274 326
#     4   9  18  34  54  77 107 144 185 225 268 323
#
# _framework density 18.857764
#
# number of rings (size 3 to 8) (size 9 to 14) (size 15 to 20)
#    0.000    2.333    0.000    5.000    0.000    4.000 
#    0.000   10.000    0.000    0.000    0.000    0.000 
#    0.000    0.000    0.000    0.000    0.000    0.000 
#
# Total GULP energy -595034.760861 kJ/mol
# GULP energy per Si atom -12396.557518 kJ/mol
# Density = 1.881484 g / cm^3
# Si number density = 18.857764 Si / 1000 Ang^3
#
#
#
# Elastic Constant Matrix: (Units=GPa)
#
#
# Indices 1 2 3 4 5 6 
#
# 1 138.0189 62.1775 85.1873 0.0000 0.0000 0.0000
# 2 62.1775 86.7011 60.4902 0.0000 0.0000 0.0000
# 3 85.1873 60.4902 127.7480 0.0000 0.0000 0.0000
# 4 0.0000 0.0000 0.0000 32.8602 0.0000 0.0000
# 5 0.0000 0.0000 0.0000 0.0000 44.1466 0.0000
# 6 0.0000 0.0000 0.0000 0.0000 0.0000 33.6640
#
#
#
# Elastic Compliance Matrix: (Units=1/GPa)
#
#
# Indices 1 2 3 4 5 6 
#
# 1 0.013699 -0.005153 -0.006695 0.000000 0.000000 0.000000
# 2 -0.005153 0.019163 -0.005637 0.000000 0.000000 0.000000
# 3 -0.006695 -0.005637 0.014962 0.000000 0.000000 0.000000
# 4 0.000000 0.000000 0.000000 0.030432 0.000000 0.000000
# 5 0.000000 0.000000 0.000000 0.000000 0.022652 0.000000
# 6 0.000000 0.000000 0.000000 0.000000 0.000000 0.029705
#
#
# Mechanical properties :
#
#
# Convention : Reuss Voigt Hill
#
# Bulk Modulus (GPa) = 77.80699 85.35311 81.58005
# Shear Modulus (GPa) = 29.43459 31.77501 30.60480
#
# Velocity S-wave (km/s) = 3.95508 4.10931 4.03293
# Velocity P-wave (km/s) = 7.88710 8.23863 8.06478
#
# Compressibility (1/GPa) = 0.01285232
#
# Stress axis : x y z
#
# Youngs Moduli (GPa) = 72.99677 52.18480 66.83719
#
# Poissons Ratio (x) = 0.26893 0.44748
# Poissons Ratio (y) = 0.37618 0.37678
# Poissons Ratio (z) = 0.48871 0.29418
#
# Static dielectric constant tensor:
#      x y z
#    x 3.728210 0.000000 0.000000 
#    y 0.000000 3.193130 0.000000 
#    z 0.000000 0.000000 3.231110 
# 
# 
# High freq. dielectric constant tensor:
#      x y z
#    x 1.751520 0.000000 0.000000 
#    y 0.000000 1.713450 0.000000 
#    z 0.000000 0.000000 1.736260 
# 
# From -- ./inp_files/10135.got.cif
#   From: 2010.03.12/outbox.cif.g09.slc.cpg/sg62_6_cif.got.tgz:10135.got - 2010.04.10 19:12:36.
