data_PCOD8255302
_publ_section_title
;
Structure prediction by ZEFSAII (Michael W. Deem and Ramdas Pophale) SiO2 
 PCOD8255302
Probable space group: P N M A
;
_chemical_formula_sum "Si O2"
_cell_formula_units_Z 64
_cell_length_a 15.000000
_cell_length_b 9.000000
_cell_length_c 30.000000
_cell_angle_alpha 90.000000
_cell_angle_beta 90.000000
_cell_angle_gamma 90.000000
_cell_volume 4050.000000
_symmetry_space_group_name_H-M "P N M A"
_symmetry_group_IT_number 62
_symmetry_cell_setting 'orthorhombic'
loop_
_space_group_symop_operation_xyz
x,y,z
1/2-x,-y,1/2+z
1/2+x,1/2-y,1/2-z
-x,1/2+y,-z
-x,-y,-z
1/2+x,y,1/2-z
1/2-x,1/2+y,1/2+z
x,1/2-y,z
loop_
_atom_site_type_symbol
_atom_site_label
_atom_site_fract_x
_atom_site_fract_y
_atom_site_fract_z
Si Si1 0.605098 0.924868 0.451859
Si Si2 0.488600 0.084983 0.323748
Si Si3 0.796143 0.927891 0.293041
Si Si4 0.176314 0.424280 0.862654
Si Si5 0.172709 0.072201 0.133954
Si Si6 0.398506 0.575943 0.455679
Si Si7 0.988715 0.419082 0.280358
Si Si8 0.323554 0.425831 0.793685
O O1 0.624228 0.750000 0.449263
O O2 0.500886 0.960891 0.442240
O O3 0.669080 0.008964 0.416538
O O4 0.630849 0.982900 0.501134
O O5 0.468827 0.250000 0.342256
O O6 0.579227 0.022299 0.344656
O O7 0.503304 0.086778 0.271693
O O8 0.406262 0.981707 0.334404
O O9 0.802225 0.750000 0.296844
O O10 0.735804 0.973782 0.249781
O O11 0.751356 0.995642 0.337591
O O12 0.897205 0.992241 0.291099
O O13 0.168087 0.250000 0.860030
O O14 0.166168 0.473755 0.914566
O O15 0.268165 0.474098 0.838415
O O16 0.186574 0.250000 0.133797
O O17 0.388670 0.750000 0.466680
O O18 0.981696 0.250000 0.299393
O O19 0.079642 0.496556 0.298486
O O20 0.339913 0.250000 0.792049
#
# Coordination Sequence:
#
# PCOD8255302 Si02
#       8
#     8   8   8   8   8   8   8   8
#     4  10  19  31  49  73 101 134 171 210 254 306
#     4  10  20  30  46  71 101 135 170 209 250 295
#     4  11  22  35  53  75 101 135 175 214 254 300
#     4  10  19  33  51  73 100 135 175 210 251 300
#     4  11  21  34  50  73 104 138 175 211 255 304
#     4   9  18  31  48  71 102 135 167 209 256 304
#     4  11  22  36  51  71 102 137 173 214 255 297
#     4  10  21  34  51  74 100 133 172 212 251 297
#
# _framework density 15.802469
#
# number of rings (size 3 to 8) (size 9 to 14) (size 15 to 20)
#    0.000    1.750    3.750    1.500    0.000    3.000 
#    0.000    0.000    0.000    0.000    0.000    0.875 
#    0.000    0.000    0.000    0.000    0.000    0.000 
#
# Total GULP energy -793341.862042 kJ/mol
# GULP energy per Si atom -12395.966594 kJ/mol
# Density = 1.576650 g / cm^3
# Si number density = 15.802469 Si / 1000 Ang^3
#
#
#
# Elastic Constant Matrix: (Units=GPa)
#
#
# Indices 1 2 3 4 5 6 
#
# 1 118.3758 43.2426 47.1134 0.0000 0.0000 0.0000
# 2 43.2426 74.6853 41.3587 0.0000 0.0000 0.0000
# 3 47.1134 41.3587 101.4477 0.0000 0.0000 0.0000
# 4 0.0000 0.0000 0.0000 27.5360 0.0000 0.0000
# 5 0.0000 0.0000 0.0000 0.0000 28.2330 0.0000
# 6 0.0000 0.0000 0.0000 0.0000 0.0000 29.5516
#
#
#
# Elastic Compliance Matrix: (Units=1/GPa)
#
#
# Indices 1 2 3 4 5 6 
#
# 1 0.011560 -0.004805 -0.003410 0.000000 0.000000 0.000000
# 2 -0.004805 0.019291 -0.005633 0.000000 0.000000 0.000000
# 3 -0.003410 -0.005633 0.013737 0.000000 0.000000 0.000000
# 4 0.000000 0.000000 0.000000 0.036316 0.000000 0.000000
# 5 0.000000 0.000000 0.000000 0.000000 0.035420 0.000000
# 6 0.000000 0.000000 0.000000 0.000000 0.000000 0.033839
#
#
# Mechanical properties :
#
#
# Convention : Reuss Voigt Hill
#
# Bulk Modulus (GPa) = 59.19714 61.99314 60.59514
# Shear Modulus (GPa) = 27.24945 27.91704 27.58324
#
# Velocity S-wave (km/s) = 4.15707 4.20768 4.18245
# Velocity P-wave (km/s) = 7.78355 7.93230 7.85828
#
# Compressibility (1/GPa) = 0.01689271
#
# Stress axis : x y z
#
# Youngs Moduli (GPa) = 86.50533 51.83731 72.79433
#
# Poissons Ratio (x) = 0.24908 0.24820
# Poissons Ratio (y) = 0.41566 0.41006
# Poissons Ratio (z) = 0.29495 0.29201
#
# Static dielectric constant tensor:
#      x y z
#    x 3.071010 0.000000 0.000000 
#    y 0.000000 3.202570 0.000000 
#    z 0.000000 0.000000 3.166730 
# 
# 
# High freq. dielectric constant tensor:
#      x y z
#    x 1.596190 0.000000 0.000000 
#    y 0.000000 1.622920 0.000000 
#    z 0.000000 0.000000 1.606590 
# 
# From -- ./inp_files/32686.got.cif
#   From: 2010.03.12/outbox.ucp.g09.slc.cvg/sg62_17_cif.got.tgz:32686.got - 2010.05.04 19:35:18.
