data_PCOD8255536
_publ_section_title
;
Structure prediction by ZEFSAII (Michael W. Deem and Ramdas Pophale) SiO2 
 PCOD8255536
Probable space group: C M C M
;
_chemical_formula_sum "Si O2"
_cell_formula_units_Z 96
_cell_length_a 12.064579
_cell_length_b 18.363777
_cell_length_c 24.927675
_cell_angle_alpha 90.000000
_cell_angle_beta 90.000000
_cell_angle_gamma 90.000000
_cell_volume 5522.757266
_symmetry_space_group_name_H-M "C M C M"
_symmetry_group_IT_number 63
_symmetry_cell_setting 'orthorhombic'
loop_
_space_group_symop_operation_xyz
x,y,z
-x,-y,1/2+z
x,-y,-z
-x,y,1/2-z
-x,-y,-z
x,y,1/2-z
-x,y,z
x,-y,1/2+z
1/2+x,1/2+y,z
1/2-x,1/2-y,1/2+z
1/2+x,1/2-y,-z
1/2-x,1/2+y,1/2-z
1/2-x,1/2-y,-z
1/2+x,1/2+y,1/2-z
1/2-x,1/2+y,z
1/2+x,1/2-y,1/2+z
loop_
_atom_site_type_symbol
_atom_site_label
_atom_site_fract_x
_atom_site_fract_y
_atom_site_fract_z
Si Si1 0.235506 0.339211 0.149261
Si Si2 0.500000 0.841701 0.185543
Si Si3 0.000000 0.819628 0.811096
Si Si4 0.373441 0.415753 0.562516
Si Si5 0.623997 0.162475 0.250000
Si Si6 0.771668 0.165264 0.152074
Si Si7 0.374921 0.584964 0.938120
Si Si8 0.624723 0.664160 0.750000
O O1 0.113742 0.374284 0.160579
O O2 0.235505 0.251805 0.146586
O O3 0.284346 0.368990 0.094049
O O4 0.313971 0.365856 0.197537
O O5 0.500000 0.850510 0.250000
O O6 0.500000 0.759906 0.162362
O O7 0.110354 0.863157 0.825438
O O8 0.000000 0.799676 0.750000
O O9 0.500000 0.389467 0.577068
O O10 0.273897 0.372944 0.593675
O O11 0.361588 0.500480 0.575833
O O12 0.351351 0.400556 0.500319
O O13 0.500000 0.131076 0.250000
O O14 0.681312 0.135104 0.194586
O O15 0.627166 0.248968 0.250000
O O16 0.500000 0.610571 0.923600
O O17 0.500000 0.633949 0.750000
#
# Coordination Sequence:
#
# PCOD8255536 Si02
#       8
#    16   8   8  16   8  16  16   8
#     4  10  18  29  50  75 102 131 163 203 239 289
#     4   9  16  28  46  71 100 132 165 193 236 290
#     4   9  14  24  46  77  98 120 161 207 248 280
#     4   9  18  34  55  74  95 126 164 211 258 291
#     4   9  18  29  44  71 105 137 159 185 242 303
#     4  10  17  28  52  76  99 128 163 206 241 284
#     4   9  19  35  53  73  98 128 162 206 259 299
#     4   9  16  27  46  73 103 131 157 197 252 297
#
# _framework density 17.382621
#
# number of rings (size 3 to 8) (size 9 to 14) (size 15 to 20)
#    0.000    2.667    2.500    1.500    0.000    1.333 
#    0.000    0.833    3.667    3.000    0.000    0.000 
#    0.000    0.000    0.000    0.000    0.000    0.000 
#
# Total GULP energy -594672.542501 kJ/mol
# GULP energy per Si atom -12389.011302 kJ/mol
# Density = 1.734306 g / cm^3
# Si number density = 17.382621 Si / 1000 Ang^3
#
#
#
# Elastic Constant Matrix: (Units=GPa)
#
#
# Indices 1 2 3 4 5 6 
#
# 1 142.9266 30.0410 71.2036 0.0000 0.0000 0.0000
# 2 30.0410 28.2497 34.7136 0.0000 0.0000 0.0000
# 3 71.2036 34.7136 107.1949 0.0000 0.0000 0.0000
# 4 0.0000 0.0000 0.0000 8.5377 0.0000 0.0000
# 5 0.0000 0.0000 0.0000 0.0000 38.1615 0.0000
# 6 0.0000 0.0000 0.0000 0.0000 0.0000 16.2253
#
#
#
# Elastic Compliance Matrix: (Units=1/GPa)
#
#
# Indices 1 2 3 4 5 6 
#
# 1 0.010780 -0.004426 -0.005727 0.000000 0.000000 0.000000
# 2 -0.004426 0.060612 -0.016689 0.000000 0.000000 0.000000
# 3 -0.005727 -0.016689 0.018538 0.000000 0.000000 0.000000
# 4 0.000000 0.000000 0.000000 0.117127 0.000000 0.000000
# 5 0.000000 0.000000 0.000000 0.000000 0.026204 0.000000
# 6 0.000000 0.000000 0.000000 0.000000 0.000000 0.061632
#
#
# Mechanical properties :
#
#
# Convention : Reuss Voigt Hill
#
# Bulk Modulus (GPa) = 27.58904 61.14308 44.36606
# Shear Modulus (GPa) = 13.86350 22.07910 17.97130
#
# Velocity S-wave (km/s) = 2.82716 3.56783 3.21887
# Velocity P-wave (km/s) = 5.15395 7.22660 6.27642
#
# Compressibility (1/GPa) = 0.03624627
#
# Stress axis : x y z
#
# Youngs Moduli (GPa) = 92.76328 16.49831 53.94442
#
# Poissons Ratio (x) = 0.07302 0.30896
# Poissons Ratio (y) = 0.41055 0.90026
# Poissons Ratio (z) = 0.53129 0.27533
#
# Static dielectric constant tensor:
#      x y z
#    x 3.397480 0.000000 0.000000 
#    y 0.000000 2.782140 0.000000 
#    z 0.000000 0.000000 3.258300 
# 
# 
# High freq. dielectric constant tensor:
#      x y z
#    x 1.670790 0.000000 0.000000 
#    y 0.000000 1.624980 0.000000 
#    z 0.000000 0.000000 1.675690 
# 
# From -- ./inp_files/61737.got.cif
#   From: 2010.03.12/outbox.cif.g09.slc.cpg/sg63_31_cif.got.tgz:61737.got - 2010.04.10 19:34:48.
