data_PCOD8255636
_publ_section_title
;
Structure prediction by ZEFSAII (Michael W. Deem and Ramdas Pophale) SiO2 
 PCOD8255636
Probable space group: C M C M
;
_chemical_formula_sum "Si O2"
_cell_formula_units_Z 112
_cell_length_a 33.670498
_cell_length_b 26.343035
_cell_length_c 9.051467
_cell_angle_alpha 90.000000
_cell_angle_beta 90.000000
_cell_angle_gamma 90.000000
_cell_volume 8028.498325
_symmetry_space_group_name_H-M "C M C M"
_symmetry_group_IT_number 63
_symmetry_cell_setting 'orthorhombic'
loop_
_space_group_symop_operation_xyz
x,y,z
-x,-y,1/2+z
x,-y,-z
-x,y,1/2-z
-x,-y,-z
x,y,1/2-z
-x,y,z
x,-y,1/2+z
1/2+x,1/2+y,z
1/2-x,1/2-y,1/2+z
1/2+x,1/2-y,-z
1/2-x,1/2+y,1/2-z
1/2-x,1/2-y,-z
1/2+x,1/2+y,1/2-z
1/2-x,1/2+y,z
1/2+x,1/2-y,1/2+z
loop_
_atom_site_type_symbol
_atom_site_label
_atom_site_fract_x
_atom_site_fract_y
_atom_site_fract_z
Si Si1 0.579415 0.902012 0.923559
Si Si2 0.500000 0.781985 0.416028
Si Si3 0.921659 0.716840 0.078570
Si Si4 0.708705 0.853916 0.421369
Si Si5 0.845028 0.740732 0.919543
Si Si6 0.500000 0.902673 0.417916
Si Si7 0.655499 0.051692 0.575295
Si Si8 0.730446 0.702856 0.079667
O O1 0.579350 0.914126 0.750000
O O2 0.584841 0.842471 0.954961
O O3 0.538582 0.922437 0.994687
O O4 0.614317 0.931899 0.003085
O O5 0.500000 0.760631 0.250000
O O6 0.539161 0.761868 0.498522
O O7 0.500000 0.842324 0.418215
O O8 0.927007 0.727634 0.250000
O O9 0.883866 0.747837 0.019023
O O10 0.718420 0.848425 0.250000
O O11 0.678378 0.809741 0.471283
O O12 0.689738 0.907800 0.461021
O O13 0.750843 0.848086 0.507762
O O14 0.858420 0.734194 0.750000
O O15 0.817255 0.790904 0.939519
O O16 0.500000 0.923555 0.250000
O O17 0.649288 0.045260 0.750000
O O18 0.670105 0.000000 0.500000
O O19 0.742327 0.704299 0.250000
O O20 0.750000 0.750000 0.000000
#
# Coordination Sequence:
#
# PCOD8255636 Si02
#       8
#    16   8  16  16  16   8  16  16
#     4  10  19  31  45  62  79  97 124 159 199 241
#     4   9  17  27  39  54  76 105 131 157 192 233
#     4  10  18  26  40  60  80 101 129 163 193 229
#     4   9  18  31  45  59  79 103 126 157 195 236
#     4   9  16  27  41  60  82 104 127 153 191 234
#     4   9  17  29  46  62  75  97 123 153 198 245
#     4  11  22  35  48  62  79 100 129 162 199 244
#     4   9  17  27  41  61  83 104 127 154 187 232
#
# _framework density 13.950305
#
# number of rings (size 3 to 8) (size 9 to 14) (size 15 to 20)
#    0.000    2.429    1.429    3.000    0.000    6.857 
#    0.000    0.357    0.000    0.000    0.000    0.000 
#    0.000    0.000    0.000    0.000    0.000    0.000 
#
# Total GULP energy -694265.570777 kJ/mol
# GULP energy per Si atom -12397.599478 kJ/mol
# Density = 1.391855 g / cm^3
# Si number density = 13.950305 Si / 1000 Ang^3
#
#
#
# Elastic Constant Matrix: (Units=GPa)
#
#
# Indices 1 2 3 4 5 6 
#
# 1 101.1219 45.5887 60.7249 0.0000 0.0000 0.0000
# 2 45.5887 39.1363 34.7082 0.0000 0.0000 0.0000
# 3 60.7249 34.7082 92.5901 0.0000 0.0000 0.0000
# 4 0.0000 0.0000 0.0000 16.4838 0.0000 0.0000
# 5 0.0000 0.0000 0.0000 0.0000 29.2802 0.0000
# 6 0.0000 0.0000 0.0000 0.0000 0.0000 14.2750
#
#
#
# Elastic Compliance Matrix: (Units=1/GPa)
#
#
# Indices 1 2 3 4 5 6 
#
# 1 0.024182 -0.021127 -0.007940 0.000000 0.000000 0.000000
# 2 -0.021127 0.056735 -0.007412 0.000000 0.000000 0.000000
# 3 -0.007940 -0.007412 0.018786 0.000000 0.000000 0.000000
# 4 0.000000 0.000000 0.000000 0.060665 0.000000 0.000000
# 5 0.000000 0.000000 0.000000 0.000000 0.034153 0.000000
# 6 0.000000 0.000000 0.000000 0.000000 0.000000 0.070053
#
#
# Mechanical properties :
#
#
# Convention : Reuss Voigt Hill
#
# Bulk Modulus (GPa) = 37.38917 57.21022 47.29970
# Shear Modulus (GPa) = 14.43230 18.12958 16.28094
#
# Velocity S-wave (km/s) = 3.21993 3.60888 3.41994
# Velocity P-wave (km/s) = 6.37839 7.64620 7.04089
#
# Compressibility (1/GPa) = 0.02674571
#
# Stress axis : x y z
#
# Youngs Moduli (GPa) = 41.35366 17.62586 53.23154
#
# Poissons Ratio (x) = 0.37238 0.42265
# Poissons Ratio (y) = 0.87368 0.39453
# Poissons Ratio (z) = 0.32834 0.13063
#
# Static dielectric constant tensor:
#      x y z
#    x 3.005810 0.000000 0.000000 
#    y 0.000000 2.604790 0.000000 
#    z 0.000000 0.000000 2.926110 
# 
# 
# High freq. dielectric constant tensor:
#      x y z
#    x 1.530200 0.000000 0.000000 
#    y 0.000000 1.467950 0.000000 
#    z 0.000000 0.000000 1.551070 
# 
# From -- ./inp_files/14987.got.cif
#   From: 2010.03.12/outbox.cif.g09.slc.cpg/sg63_8_cif.got.tgz:14987.got - 2010.04.10 19:34:48.
