data_PCOD8255441
_publ_section_title
;
Structure prediction by ZEFSAII (Michael W. Deem and Ramdas Pophale) SiO2 
 PCOD8255441
Probable space group: C M C M
;
_chemical_formula_sum "Si O2"
_cell_formula_units_Z 80
_cell_length_a 8.581011
_cell_length_b 26.295016
_cell_length_c 18.353087
_cell_angle_alpha 90.000000
_cell_angle_beta 90.000000
_cell_angle_gamma 90.000000
_cell_volume 4141.150569
_symmetry_space_group_name_H-M "C M C M"
_symmetry_group_IT_number 63
_symmetry_cell_setting 'orthorhombic'
loop_
_space_group_symop_operation_xyz
x,y,z
-x,-y,1/2+z
x,-y,-z
-x,y,1/2-z
-x,-y,-z
x,y,1/2-z
-x,y,z
x,-y,1/2+z
1/2+x,1/2+y,z
1/2-x,1/2-y,1/2+z
1/2+x,1/2-y,-z
1/2-x,1/2+y,1/2-z
1/2-x,1/2-y,-z
1/2+x,1/2+y,1/2-z
1/2-x,1/2+y,z
1/2+x,1/2-y,1/2+z
loop_
_atom_site_type_symbol
_atom_site_label
_atom_site_fract_x
_atom_site_fract_y
_atom_site_fract_z
Si Si1 0.818973 0.049954 0.579785
Si Si2 0.684734 0.339495 0.070050
Si Si3 0.316977 0.651542 0.094697
Si Si4 0.818680 0.549951 0.421776
Si Si5 0.181125 0.747565 0.166352
O O1 0.765007 0.106296 0.606479
O O2 0.787721 0.050220 0.493501
O O3 0.000000 0.041138 0.595596
O O4 0.722797 0.003821 0.618570
O O5 0.500000 0.336544 0.070041
O O6 0.752925 0.293357 0.117876
O O7 0.744801 0.334716 0.986718
O O8 0.500000 0.641828 0.095702
O O9 0.231009 0.600058 0.123557
O O10 0.274220 0.696446 0.149308
O O11 0.000000 0.551342 0.441228
O O12 0.207189 0.762362 0.250000
O O13 0.000000 0.738601 0.148682
#
# Coordination Sequence:
#
# PCOD8255441 Si02
#       5
#    16  16  16  16  16
#     4   9  15  26  44  68  99 130 159 194 239 289
#     4   8  16  30  49  73  98 127 161 197 239 285
#     4  10  19  32  50  71  97 128 164 203 239 284
#     4  10  17  26  43  70 100 126 157 198 245 291
#     4  10  20  34  51  71  97 127 159 198 244 292
#
# _framework density 19.318301999999999
#
# number of rings (size 3 to 8) (size 9 to 14) (size 15 to 20)
#    0.000    2.600    0.000    6.000    0.000    0.400 
#    0.000    5.000    0.000    1.200    0.000    2.800 
#    0.000    0.000    0.000    0.000    0.000    0.000 
#
# Total GULP energy -495680.001526 kJ/mol
# GULP energy per Si atom -12392.000038 kJ/mol
# Density = 1.927433 g / cm^3
# Si number density = 19.318302 Si / 1000 Ang^3
#
#
#
# Elastic Constant Matrix: (Units=GPa)
#
#
# Indices 1 2 3 4 5 6 
#
# 1 56.5532 31.3238 11.5284 0.0000 0.0000 0.0000
# 2 31.3238 152.1674 18.7568 0.0000 0.0000 0.0000
# 3 11.5284 18.7568 33.0590 0.0000 0.0000 0.0000
# 4 0.0000 0.0000 0.0000 6.1065 0.0000 0.0000
# 5 0.0000 0.0000 0.0000 0.0000 13.4063 0.0000
# 6 0.0000 0.0000 0.0000 0.0000 0.0000 30.6777
#
#
#
# Elastic Compliance Matrix: (Units=1/GPa)
#
#
# Indices 1 2 3 4 5 6 
#
# 1 0.020750 -0.003634 -0.005174 0.000000 0.000000 0.000000
# 2 -0.003634 0.007702 -0.003103 0.000000 0.000000 0.000000
# 3 -0.005174 -0.003103 0.033814 0.000000 0.000000 0.000000
# 4 0.000000 0.000000 0.000000 0.163759 0.000000 0.000000
# 5 0.000000 0.000000 0.000000 0.000000 0.074592 0.000000
# 6 0.000000 0.000000 0.000000 0.000000 0.000000 0.032597
#
#
# Mechanical properties :
#
#
# Convention : Reuss Voigt Hill
#
# Bulk Modulus (GPa) = 26.01168 40.55530 33.28349
# Shear Modulus (GPa) = 13.51900 22.04947 17.78424
#
# Velocity S-wave (km/s) = 2.64825 3.38209 3.03741
# Velocity P-wave (km/s) = 4.77964 6.02413 5.43761
#
# Compressibility (1/GPa) = 0.03844427
#
# Stress axis : x y z
#
# Youngs Moduli (GPa) = 48.19318 129.83369 29.57364
#
# Poissons Ratio (x) = 0.47176 0.15302
# Poissons Ratio (y) = 0.17511 0.09176
# Poissons Ratio (z) = 0.24937 0.40286
#
# Static dielectric constant tensor:
#      x y z
#    x 3.251870 0.000000 0.000000 
#    y 0.000000 4.551470 0.000000 
#    z 0.000000 0.000000 3.018220 
# 
# 
# High freq. dielectric constant tensor:
#      x y z
#    x 1.736320 0.000000 0.000000 
#    y 0.000000 1.786220 0.000000 
#    z 0.000000 0.000000 1.678930 
# 
# From -- ./inp_files/40689.got.cif
#   From: 2010.03.12/outbox.cif.g09.slc.cpg/sg63_21_cif.got.tgz:40689.got - 2010.04.10 19:34:48.
