data_PCOD8255704
_publ_section_title
;
Structure prediction by ZEFSAII (Michael W. Deem and Ramdas Pophale) SiO2 
 PCOD8255704
Probable space group: C M C M
;
_chemical_formula_sum "Si O2"
_cell_formula_units_Z 80
_cell_length_a 14.154533
_cell_length_b 18.568577
_cell_length_c 14.299496
_cell_angle_alpha 90.000000
_cell_angle_beta 90.000000
_cell_angle_gamma 90.000000
_cell_volume 3758.329897
_symmetry_space_group_name_H-M "C M C M"
_symmetry_group_IT_number 63
_symmetry_cell_setting 'orthorhombic'
loop_
_space_group_symop_operation_xyz
x,y,z
-x,-y,1/2+z
x,-y,-z
-x,y,1/2-z
-x,-y,-z
x,y,1/2-z
-x,y,z
x,-y,1/2+z
1/2+x,1/2+y,z
1/2-x,1/2-y,1/2+z
1/2+x,1/2-y,-z
1/2-x,1/2+y,1/2-z
1/2-x,1/2-y,-z
1/2+x,1/2+y,1/2-z
1/2-x,1/2+y,z
1/2+x,1/2-y,1/2+z
loop_
_atom_site_type_symbol
_atom_site_label
_atom_site_fract_x
_atom_site_fract_y
_atom_site_fract_z
Si Si1 0.110714 0.172030 0.462258
Si Si2 0.109741 0.900442 0.353212
Si Si3 0.887998 0.310533 0.354019
Si Si4 0.213928 0.955650 0.639757
Si Si5 0.604196 0.031511 0.639064
O O1 0.129699 0.164319 0.573617
O O2 0.145535 0.250435 0.428344
O O3 0.172334 0.113617 0.408913
O O4 0.000000 0.159972 0.438625
O O5 0.148422 0.877967 0.250000
O O6 0.000000 0.917464 0.347553
O O7 0.156518 0.973554 0.390073
O O8 0.848279 0.292307 0.250000
O O9 0.854161 0.389448 0.389416
O O10 0.000000 0.313594 0.348724
O O11 0.207739 0.943265 0.750000
O O12 0.322684 0.969640 0.606380
O O13 0.596215 0.032033 0.750000
O O14 0.500000 0.015982 0.595665
#
# Coordination Sequence:
#
# PCOD8255704 Si02
#       5
#    16  16  16  16  16
#     4  10  18  28  46  73 101 125 154 199 251 295
#     4   9  18  31  45  64  94 130 163 196 240 297
#     4   8  14  26  45  69  97 126 156 195 242 286
#     4  10  18  27  44  71  99 126 158 197 241 289
#     4   8  15  29  47  67  94 129 166 200 235 279
#
# _framework density 21.286051
#
# number of rings (size 3 to 8) (size 9 to 14) (size 15 to 20)
#    0.000    3.000    0.000    3.000    0.000    3.600 
#    0.000    1.000    0.000    2.400    0.000    4.200 
#    0.000   14.400    0.000    0.000    0.000    0.000 
#
# Total GULP energy -495733.215409 kJ/mol
# GULP energy per Si atom -12393.330385 kJ/mol
# Density = 2.123760 g / cm^3
# Si number density = 21.286051 Si / 1000 Ang^3
#
#
#
# Elastic Constant Matrix: (Units=GPa)
#
#
# Indices 1 2 3 4 5 6 
#
# 1 57.9200 40.2691 20.5454 0.0000 0.0000 0.0000
# 2 40.2691 80.6767 28.1118 0.0000 0.0000 0.0000
# 3 20.5454 28.1118 51.6493 0.0000 0.0000 0.0000
# 4 0.0000 0.0000 0.0000 18.4796 0.0000 0.0000
# 5 0.0000 0.0000 0.0000 0.0000 8.4579 0.0000
# 6 0.0000 0.0000 0.0000 0.0000 0.0000 25.0939
#
#
#
# Elastic Compliance Matrix: (Units=1/GPa)
#
#
# Indices 1 2 3 4 5 6 
#
# 1 0.027169 -0.012088 -0.004228 0.000000 0.000000 0.000000
# 2 -0.012088 0.020674 -0.006444 0.000000 0.000000 0.000000
# 3 -0.004228 -0.006444 0.024551 0.000000 0.000000 0.000000
# 4 0.000000 0.000000 0.000000 0.054114 0.000000 0.000000
# 5 0.000000 0.000000 0.000000 0.000000 0.118233 0.000000
# 6 0.000000 0.000000 0.000000 0.000000 0.000000 0.039850
#
#
# Mechanical properties :
#
#
# Convention : Reuss Voigt Hill
#
# Bulk Modulus (GPa) = 37.21161 40.89985 39.05573
# Shear Modulus (GPa) = 14.74624 17.16094 15.95359
#
# Velocity S-wave (km/s) = 2.63490 2.84246 2.74064
# Velocity P-wave (km/s) = 5.17461 5.47986 5.32942
#
# Compressibility (1/GPa) = 0.02687333
#
# Stress axis : x y z
#
# Youngs Moduli (GPa) = 36.80639 48.36945 40.73194
#
# Poissons Ratio (x) = 0.58469 0.17223
# Poissons Ratio (y) = 0.44491 0.26248
# Poissons Ratio (z) = 0.15563 0.31170
#
# Static dielectric constant tensor:
#      x y z
#    x 4.011820 0.000000 0.000000 
#    y 0.000000 3.837540 0.000000 
#    z 0.000000 0.000000 4.001330 
# 
# 
# High freq. dielectric constant tensor:
#      x y z
#    x 1.835430 0.000000 0.000000 
#    y 0.000000 1.807510 0.000000 
#    z 0.000000 0.000000 1.830170 
# 
# From -- ./inp_files/31635.got.cif
#   From: 2010.03.12/outbox.cif.g09.slc.cpg/sg63_16_cif.got.tgz:31635.got - 2010.04.10 19:34:48.
