data_PCOD8255766
_publ_section_title
;
Structure prediction by ZEFSAII (Michael W. Deem and Ramdas Pophale) SiO2 
 PCOD8255766
Probable space group: C M C M
;
_chemical_formula_sum "Si O2"
_cell_formula_units_Z 128
_cell_length_a 12.659175
_cell_length_b 22.692650
_cell_length_c 25.770513
_cell_angle_alpha 90.000000
_cell_angle_beta 90.000000
_cell_angle_gamma 90.000000
_cell_volume 7403.101134
_symmetry_space_group_name_H-M "C M C M"
_symmetry_group_IT_number 63
_symmetry_cell_setting 'orthorhombic'
loop_
_space_group_symop_operation_xyz
x,y,z
-x,-y,1/2+z
x,-y,-z
-x,y,1/2-z
-x,-y,-z
x,y,1/2-z
-x,y,z
x,-y,1/2+z
1/2+x,1/2+y,z
1/2-x,1/2-y,1/2+z
1/2+x,1/2-y,-z
1/2-x,1/2+y,1/2-z
1/2-x,1/2-y,-z
1/2+x,1/2+y,1/2-z
1/2-x,1/2+y,z
1/2+x,1/2-y,1/2+z
loop_
_atom_site_type_symbol
_atom_site_label
_atom_site_fract_x
_atom_site_fract_y
_atom_site_fract_z
Si Si1 0.379825 0.340587 0.922798
Si Si2 0.763259 0.147245 0.529678
Si Si3 0.208212 0.375294 0.310379
Si Si4 0.773414 0.046102 0.113198
Si Si5 0.378110 0.787220 0.107033
Si Si6 0.886318 0.437128 0.521956
Si Si7 0.615661 0.000494 0.190522
Si Si8 0.122604 0.078439 0.614373
O O1 0.500000 0.349135 0.941143
O O2 0.347951 0.396596 0.887484
O O3 0.367834 0.283301 0.886169
O O4 0.310004 0.332057 0.974755
O O5 0.701566 0.198743 0.559709
O O6 0.673743 0.098287 0.522475
O O7 0.856045 0.119239 0.564424
O O8 0.224751 0.358692 0.250000
O O9 0.158069 0.319460 0.340140
O O10 0.130325 0.430529 0.317380
O O11 0.319774 0.394050 0.335468
O O12 0.682635 0.057461 0.072479
O O13 0.711187 0.038419 0.166954
O O14 0.841491 0.988042 0.100985
O O15 0.500000 0.804149 0.094112
O O16 0.910847 0.500000 0.500000
O O17 0.000000 0.406961 0.534860
O O18 0.617597 0.017782 0.250000
O O19 0.500000 0.016028 0.166636
O O20 0.000000 0.078254 0.627571
#
# Coordination Sequence:
#
# PCOD8255766 Si02
#       8
#    16  16  16  16  16  16  16  16
#     4  10  21  34  50  70 100 139 175 204 235 282
#     4  10  19  33  49  72 100 134 169 209 246 292
#     4   9  19  34  53  77 100 122 156 204 257 304
#     4  10  19  32  47  72 103 135 166 203 243 294
#     4  10  20  34  52  74  98 129 167 208 250 291
#     4  10  18  28  44  71 103 132 161 198 249 299
#     4   9  17  31  53  78 100 124 154 197 256 311
#     4  10  19  31  50  74  99 130 165 202 247 295
#
# _framework density 17.290050999999998
#
# number of rings (size 3 to 8) (size 9 to 14) (size 15 to 20)
#    0.000    2.250    1.250    2.250    0.000    1.000 
#    0.000    2.500    0.000   12.375    0.000    0.000 
#    0.000    0.000    0.000    0.000    0.000    0.000 
#
# Total GULP energy -793243.192769 kJ/mol
# GULP energy per Si atom -12394.424887 kJ/mol
# Density = 1.725070 g / cm^3
# Si number density = 17.290051 Si / 1000 Ang^3
#
#
#
# Elastic Constant Matrix: (Units=GPa)
#
#
# Indices 1 2 3 4 5 6 
#
# 1 102.5418 30.5582 25.9802 0.0000 0.0000 0.0000
# 2 30.5582 84.2245 36.6485 0.0000 0.0000 0.0000
# 3 25.9802 36.6485 73.7635 0.0000 0.0000 0.0000
# 4 0.0000 0.0000 0.0000 21.4316 0.0000 0.0000
# 5 0.0000 0.0000 0.0000 0.0000 19.5186 0.0000
# 6 0.0000 0.0000 0.0000 0.0000 0.0000 21.5245
#
#
#
# Elastic Compliance Matrix: (Units=1/GPa)
#
#
# Indices 1 2 3 4 5 6 
#
# 1 0.011277 -0.003015 -0.002474 0.000000 0.000000 0.000000
# 2 -0.003015 0.015954 -0.006865 0.000000 0.000000 0.000000
# 3 -0.002474 -0.006865 0.017839 0.000000 0.000000 0.000000
# 4 0.000000 0.000000 0.000000 0.046660 0.000000 0.000000
# 5 0.000000 0.000000 0.000000 0.000000 0.051233 0.000000
# 6 0.000000 0.000000 0.000000 0.000000 0.000000 0.046459
#
#
# Mechanical properties :
#
#
# Convention : Reuss Voigt Hill
#
# Bulk Modulus (GPa) = 49.10918 49.65592 49.38255
# Shear Modulus (GPa) = 22.63290 23.65113 23.14201
#
# Velocity S-wave (km/s) = 3.62195 3.70253 3.66246
# Velocity P-wave (km/s) = 6.77910 6.86003 6.81969
#
# Compressibility (1/GPa) = 0.02036279
#
# Stress axis : x y z
#
# Youngs Moduli (GPa) = 88.67234 62.68035 56.05764
#
# Poissons Ratio (x) = 0.18899 0.13869
# Poissons Ratio (y) = 0.26736 0.38481
# Poissons Ratio (z) = 0.21937 0.43027
#
# Static dielectric constant tensor:
#      x y z
#    x 3.457070 0.000000 0.000000 
#    y 0.000000 3.213860 0.000000 
#    z 0.000000 0.000000 3.130360 
# 
# 
# High freq. dielectric constant tensor:
#      x y z
#    x 1.680600 0.000000 0.000000 
#    y 0.000000 1.654710 0.000000 
#    z 0.000000 0.000000 1.654280 
# 
# From -- ./inp_files/62037.got.cif
#   From: 2010.03.12/outbox.cif.g09.slc.cpg/sg63_32_cif.got.tgz:62037.got - 2010.04.10 19:34:48.
