data_PCOD8255089
_publ_section_title
;
Structure prediction by ZEFSAII (Michael W. Deem and Ramdas Pophale) SiO2 
 PCOD8255089
Probable space group: P N M A
;
_chemical_formula_sum "Si O2"
_cell_formula_units_Z 40
_cell_length_a 18.134208
_cell_length_b 8.271494
_cell_length_c 13.208936
_cell_angle_alpha 90.000000
_cell_angle_beta 90.000000
_cell_angle_gamma 90.000000
_cell_volume 1981.300676
_symmetry_space_group_name_H-M "P N M A"
_symmetry_group_IT_number 62
_symmetry_cell_setting 'orthorhombic'
loop_
_space_group_symop_operation_xyz
x,y,z
1/2-x,-y,1/2+z
1/2+x,1/2-y,1/2-z
-x,1/2+y,-z
-x,-y,-z
1/2+x,y,1/2-z
1/2-x,1/2+y,1/2+z
x,1/2-y,z
loop_
_atom_site_type_symbol
_atom_site_label
_atom_site_fract_x
_atom_site_fract_y
_atom_site_fract_z
Si Si1 0.524696 0.938332 0.811414
Si Si2 0.373874 0.436167 0.875328
Si Si3 0.467002 0.060520 0.604071
Si Si4 0.315805 0.561847 0.672802
Si Si5 0.833472 0.564374 0.414471
O O1 0.534592 0.750000 0.833749
O O2 0.458558 0.006237 0.880580
O O3 0.508523 0.966471 0.693476
O O4 0.599116 0.029584 0.839816
O O5 0.370861 0.250000 0.842118
O O6 0.329953 0.539813 0.792285
O O7 0.337167 0.457400 0.984398
O O8 0.479808 0.250000 0.617759
O O9 0.500000 0.000000 0.500000
O O10 0.380417 0.019846 0.607001
O O11 0.311689 0.750000 0.646503
O O12 0.240173 0.475738 0.645666
O O13 0.834344 0.750000 0.447251
#
# Coordination Sequence:
#
# PCOD8255089 Si02
#       5
#     8   8   8   8   8
#     4  11  22  39  61  89 119 154 197 244 291 348
#     4  11  22  40  62  87 118 156 194 239 293 350
#     4  11  22  40  63  89 119 158 199 242 291 348
#     4  11  23  41  61  88 120 154 194 243 295 350
#     4  12  24  40  61  89 120 156 197 244 294 348
#
# _framework density 20.188758
#
# number of rings (size 3 to 8) (size 9 to 14) (size 15 to 20)
#    0.000    0.800    0.000   12.000    0.000    1.600 
#    0.000    8.000    0.000    0.000    0.000    0.000 
#    0.000    0.000    0.000    0.000    0.000    0.000 
#
# Total GULP energy -496323.366466 kJ/mol
# GULP energy per Si atom -12408.084162 kJ/mol
# Density = 2.014281 g / cm^3
# Si number density = 20.188758 Si / 1000 Ang^3
#
#
#
# Elastic Constant Matrix: (Units=GPa)
#
#
# Indices 1 2 3 4 5 6 
#
# 1 146.8684 13.2205 56.4792 0.0000 0.0000 0.0000
# 2 13.2205 110.9015 0.5799 0.0000 0.0000 0.0000
# 3 56.4792 0.5799 80.3381 0.0000 0.0000 0.0000
# 4 0.0000 0.0000 0.0000 35.8991 0.0000 0.0000
# 5 0.0000 0.0000 0.0000 0.0000 26.1616 0.0000
# 6 0.0000 0.0000 0.0000 0.0000 0.0000 34.4483
#
#
#
# Elastic Compliance Matrix: (Units=1/GPa)
#
#
# Indices 1 2 3 4 5 6 
#
# 1 0.009462 -0.001093 -0.006644 0.000000 0.000000 0.000000
# 2 -0.001093 0.009144 0.000703 0.000000 0.000000 0.000000
# 3 -0.006644 0.000703 0.017113 0.000000 0.000000 0.000000
# 4 0.000000 0.000000 0.000000 0.027856 0.000000 0.000000
# 5 0.000000 0.000000 0.000000 0.000000 0.038224 0.000000
# 6 0.000000 0.000000 0.000000 0.000000 0.000000 0.029029
#
#
# Mechanical properties :
#
#
# Convention : Reuss Voigt Hill
#
# Bulk Modulus (GPa) = 46.19058 53.18523 49.68791
# Shear Modulus (GPa) = 32.86994 37.15703 35.01349
#
# Velocity S-wave (km/s) = 4.03939 4.29474 4.16902
# Velocity P-wave (km/s) = 6.68465 7.14102 6.91660
#
# Compressibility (1/GPa) = 0.02164943
#
# Stress axis : x y z
#
# Youngs Moduli (GPa) = 105.68209 109.36538 58.43372
#
# Poissons Ratio (x) = 0.11956 0.38825
# Poissons Ratio (y) = 0.11554 -0.04105
# Poissons Ratio (z) = 0.70219 -0.07684
#
# Static dielectric constant tensor:
#      x y z
#    x 3.713570 0.000000 0.000000 
#    y 0.000000 3.803060 0.000000 
#    z 0.000000 0.000000 3.559890 
# 
# 
# High freq. dielectric constant tensor:
#      x y z
#    x 1.790340 0.000000 0.000000 
#    y 0.000000 1.811360 0.000000 
#    z 0.000000 0.000000 1.790760 
# 
# From -- ./inp_files/19360.got.cif
#   From: 2010.03.12/outbox.cif.g09.slc.cpg/sg62_10_cif.got.tgz:19360.got - 2010.04.10 19:12:36.
