data_PCOD8255652
_publ_section_title
;
Structure prediction by ZEFSAII (Michael W. Deem and Ramdas Pophale) SiO2 
 PCOD8255652
Probable space group: C M C M
;
_chemical_formula_sum "Si O2"
_cell_formula_units_Z 80
_cell_length_a 8.970580
_cell_length_b 20.407435
_cell_length_c 24.517696
_cell_angle_alpha 90.000000
_cell_angle_beta 90.000000
_cell_angle_gamma 90.000000
_cell_volume 4488.369488
_symmetry_space_group_name_H-M "C M C M"
_symmetry_group_IT_number 63
_symmetry_cell_setting 'orthorhombic'
loop_
_space_group_symop_operation_xyz
x,y,z
-x,-y,1/2+z
x,-y,-z
-x,y,1/2-z
-x,-y,-z
x,y,1/2-z
-x,y,z
x,-y,1/2+z
1/2+x,1/2+y,z
1/2-x,1/2-y,1/2+z
1/2+x,1/2-y,-z
1/2-x,1/2+y,1/2-z
1/2-x,1/2-y,-z
1/2+x,1/2+y,1/2-z
1/2-x,1/2+y,z
1/2+x,1/2-y,1/2+z
loop_
_atom_site_type_symbol
_atom_site_label
_atom_site_fract_x
_atom_site_fract_y
_atom_site_fract_z
Si Si1 0.673530 0.360505 0.858484
Si Si2 0.668582 0.497029 0.750000
Si Si3 0.672677 0.934186 0.467292
Si Si4 0.175950 0.813729 0.524637
Si Si5 0.174108 0.637210 0.250000
Si Si6 0.669502 0.512754 0.867671
O O1 0.500000 0.353316 0.846470
O O2 0.758982 0.331580 0.805628
O O3 0.715012 0.436361 0.869122
O O4 0.721728 0.319532 0.911787
O O5 0.500000 0.466076 0.750000
O O6 0.788799 0.439523 0.750000
O O7 0.688187 0.539383 0.805261
O O8 0.500000 0.914728 0.469761
O O9 0.769642 0.876769 0.492189
O O10 0.708168 0.000000 0.500000
O O11 0.720113 0.945083 0.404731
O O12 0.250000 0.750000 0.500000
O O13 0.000000 0.808847 0.518015
O O14 0.000000 0.649760 0.250000
O O15 0.500000 0.521752 0.888459
#
# Coordination Sequence:
#
# PCOD8255652 Si02
#       6
#    16   8  16  16   8  16
#     4   9  18  33  52  74 105 142 177 215 265 324
#     4   8  16  30  46  71 106 141 174 215 269 325
#     4  11  22  34  52  80 112 142 178 223 266 314
#     4  11  23  39  58  79 108 146 184 224 273 326
#     4  10  18  26  46  77 106 135 172 221 267 307
#     4   9  16  30  52  76 104 139 181 220 266 322
#
# _framework density 17.823844000000001
#
# number of rings (size 3 to 8) (size 9 to 14) (size 15 to 20)
#    0.000    2.200    2.000    3.300    0.000    5.600 
#    0.000    0.000    0.000    1.200    0.000    5.600 
#    0.000    0.000    0.000    0.000    0.000    0.000 
#
# Total GULP energy -495891.970017 kJ/mol
# GULP energy per Si atom -12397.299250 kJ/mol
# Density = 1.778328 g / cm^3
# Si number density = 17.823844 Si / 1000 Ang^3
#
#
#
# Elastic Constant Matrix: (Units=GPa)
#
#
# Indices 1 2 3 4 5 6 
#
# 1 79.3371 40.2538 70.4023 0.0000 0.0000 0.0000
# 2 40.2538 60.9637 54.4173 0.0000 0.0000 0.0000
# 3 70.4023 54.4173 176.9302 0.0000 0.0000 0.0000
# 4 0.0000 0.0000 0.0000 19.6362 0.0000 0.0000
# 5 0.0000 0.0000 0.0000 0.0000 25.7885 0.0000
# 6 0.0000 0.0000 0.0000 0.0000 0.0000 25.1749
#
#
#
# Elastic Compliance Matrix: (Units=1/GPa)
#
#
# Indices 1 2 3 4 5 6 
#
# 1 0.022988 -0.009668 -0.006174 0.000000 0.000000 0.000000
# 2 -0.009668 0.026677 -0.004358 0.000000 0.000000 0.000000
# 3 -0.006174 -0.004358 0.009449 0.000000 0.000000 0.000000
# 4 0.000000 0.000000 0.000000 0.050926 0.000000 0.000000
# 5 0.000000 0.000000 0.000000 0.000000 0.038777 0.000000
# 6 0.000000 0.000000 0.000000 0.000000 0.000000 0.039722
#
#
# Mechanical properties :
#
#
# Convention : Reuss Voigt Hill
#
# Bulk Modulus (GPa) = 53.43410 71.93088 62.68249
# Shear Modulus (GPa) = 21.26057 24.26374 22.76216
#
# Velocity S-wave (km/s) = 3.45746 3.69359 3.57748
# Velocity P-wave (km/s) = 6.78106 7.65731 7.23247
#
# Compressibility (1/GPa) = 0.01871464
#
# Stress axis : x y z
#
# Youngs Moduli (GPa) = 43.50035 37.48563 105.83352
#
# Poissons Ratio (x) = 0.36242 0.65338
# Poissons Ratio (y) = 0.42057 0.46120
# Poissons Ratio (z) = 0.26856 0.16335
#
# Static dielectric constant tensor:
#      x y z
#    x 3.248870 0.000000 0.000000 
#    y 0.000000 2.725220 0.000000 
#    z 0.000000 0.000000 3.767750 
# 
# 
# High freq. dielectric constant tensor:
#      x y z
#    x 1.691860 0.000000 0.000000 
#    y 0.000000 1.631450 0.000000 
#    z 0.000000 0.000000 1.714360 
# 
# From -- ./inp_files/59508.got.cif
#   From: 2010.03.12/outbox.cif.g09.slc.cpg/sg63_30_cif.got.tgz:59508.got - 2010.04.10 19:34:48.
