data_PCOD8255466
_publ_section_title
;
Structure prediction by ZEFSAII (Michael W. Deem and Ramdas Pophale) SiO2 
 PCOD8255466
Probable space group: C M C M
;
_chemical_formula_sum "Si O2"
_cell_formula_units_Z 96
_cell_length_a 26.138933
_cell_length_b 28.947622
_cell_length_c 8.931125
_cell_angle_alpha 90.000000
_cell_angle_beta 90.000000
_cell_angle_gamma 90.000000
_cell_volume 6757.824614
_symmetry_space_group_name_H-M "C M C M"
_symmetry_group_IT_number 63
_symmetry_cell_setting 'orthorhombic'
loop_
_space_group_symop_operation_xyz
x,y,z
-x,-y,1/2+z
x,-y,-z
-x,y,1/2-z
-x,-y,-z
x,y,1/2-z
-x,y,z
x,-y,1/2+z
1/2+x,1/2+y,z
1/2-x,1/2-y,1/2+z
1/2+x,1/2-y,-z
1/2-x,1/2+y,1/2-z
1/2-x,1/2-y,-z
1/2+x,1/2+y,1/2-z
1/2-x,1/2+y,z
1/2+x,1/2-y,1/2+z
loop_
_atom_site_type_symbol
_atom_site_label
_atom_site_fract_x
_atom_site_fract_y
_atom_site_fract_z
Si Si1 0.355810 0.308322 0.073433
Si Si2 0.261084 0.638595 0.426418
Si Si3 0.295266 0.775347 0.921618
Si Si4 0.558865 0.637108 0.078027
Si Si5 0.098880 0.952732 0.424310
Si Si6 0.218539 0.047236 0.575903
O O1 0.357407 0.319278 0.250000
O O2 0.347474 0.252905 0.040177
O O3 0.310673 0.338548 0.001782
O O4 0.409345 0.322042 0.999997
O O5 0.271335 0.633017 0.250000
O O6 0.209694 0.669875 0.459347
O O7 0.250410 0.588955 0.499482
O O8 0.283155 0.768259 0.750000
O O9 0.250000 0.750000 0.000000
O O10 0.575842 0.632131 0.250000
O O11 0.500000 0.651368 0.063435
O O12 0.567578 0.588642 0.996782
O O13 0.086060 0.955385 0.250000
O O14 0.158692 0.944458 0.453874
O O15 0.080271 0.000000 0.500000
O O16 0.231785 0.045051 0.750000
O O17 0.237127 0.000000 0.500000
#
# Coordination Sequence:
#
# PCOD8255466 Si02
#       6
#    16  16  16  16  16  16
#     4  10  18  30  45  61  81 103 130 165 200 241
#     4  10  17  27  44  63  84 107 129 160 198 238
#     4   8  16  27  41  62  83 103 127 155 194 237
#     4  11  23  35  46  60  78 102 133 169 211 254
#     4  10  20  33  48  61  76  99 130 169 211 252
#     4  10  19  29  42  61  82 107 136 167 201 242
#
# _framework density 14.205755
#
# number of rings (size 3 to 8) (size 9 to 14) (size 15 to 20)
#    0.000    2.167    1.667    2.500    0.000    4.333 
#    0.000    0.000    0.000    0.000    0.000    0.000 
#    0.000    0.000    0.000    0.000    0.000    0.833 
#
# Total GULP energy -594841.916029 kJ/mol
# GULP energy per Si atom -12392.539917 kJ/mol
# Density = 1.417342 g / cm^3
# Si number density = 14.205755 Si / 1000 Ang^3
#
#
#
# Elastic Constant Matrix: (Units=GPa)
#
#
# Indices 1 2 3 4 5 6 
#
# 1 43.0561 49.7060 32.9611 0.0000 0.0000 0.0000
# 2 49.7060 115.5305 57.2390 0.0000 0.0000 0.0000
# 3 32.9611 57.2390 92.2491 0.0000 0.0000 0.0000
# 4 0.0000 0.0000 0.0000 24.2963 0.0000 0.0000
# 5 0.0000 0.0000 0.0000 0.0000 14.8328 0.0000
# 6 0.0000 0.0000 0.0000 0.0000 0.0000 20.5595
#
#
#
# Elastic Compliance Matrix: (Units=1/GPa)
#
#
# Indices 1 2 3 4 5 6 
#
# 1 0.048583 -0.017762 -0.006338 0.000000 0.000000 0.000000
# 2 -0.017762 0.018992 -0.005437 0.000000 0.000000 0.000000
# 3 -0.006338 -0.005437 0.016479 0.000000 0.000000 0.000000
# 4 0.000000 0.000000 0.000000 0.041159 0.000000 0.000000
# 5 0.000000 0.000000 0.000000 0.000000 0.067418 0.000000
# 6 0.000000 0.000000 0.000000 0.000000 0.000000 0.048639
#
#
# Mechanical properties :
#
#
# Convention : Reuss Voigt Hill
#
# Bulk Modulus (GPa) = 40.03490 58.96087 49.49789
# Shear Modulus (GPa) = 16.19848 19.33303 17.76575
#
# Velocity S-wave (km/s) = 3.38046 3.69308 3.54022
# Velocity P-wave (km/s) = 6.59394 7.73176 7.18541
#
# Compressibility (1/GPa) = 0.02497821
#
# Stress axis : x y z
#
# Youngs Moduli (GPa) = 20.58328 52.65422 60.68480
#
# Poissons Ratio (x) = 0.93527 0.38460
# Poissons Ratio (y) = 0.36561 0.32997
# Poissons Ratio (z) = 0.13045 0.28631
#
# Static dielectric constant tensor:
#      x y z
#    x 2.570010 0.000000 0.000000 
#    y 0.000000 3.190050 0.000000 
#    z 0.000000 0.000000 2.914640 
# 
# 
# High freq. dielectric constant tensor:
#      x y z
#    x 1.484340 0.000000 0.000000 
#    y 0.000000 1.544180 0.000000 
#    z 0.000000 0.000000 1.565630 
# 
# From -- ./inp_files/10735.got.cif
#   From: 2010.03.12/outbox.cif.g09.slc.cpg/sg63_6_cif.got.tgz:10735.got - 2010.04.10 19:34:48.
