data_PCOD8255504
_publ_section_title
;
Structure prediction by ZEFSAII (Michael W. Deem and Ramdas Pophale) SiO2 
 PCOD8255504
Probable space group: C M C M
;
_chemical_formula_sum "Si O2"
_cell_formula_units_Z 88
_cell_length_a 13.560099
_cell_length_b 19.431782
_cell_length_c 20.210341
_cell_angle_alpha 90.000000
_cell_angle_beta 90.000000
_cell_angle_gamma 90.000000
_cell_volume 5325.361952
_symmetry_space_group_name_H-M "C M C M"
_symmetry_group_IT_number 63
_symmetry_cell_setting 'orthorhombic'
loop_
_space_group_symop_operation_xyz
x,y,z
-x,-y,1/2+z
x,-y,-z
-x,y,1/2-z
-x,-y,-z
x,y,1/2-z
-x,y,z
x,-y,1/2+z
1/2+x,1/2+y,z
1/2-x,1/2-y,1/2+z
1/2+x,1/2-y,-z
1/2-x,1/2+y,1/2-z
1/2-x,1/2-y,-z
1/2+x,1/2+y,1/2-z
1/2-x,1/2+y,z
1/2+x,1/2-y,1/2+z
loop_
_atom_site_type_symbol
_atom_site_label
_atom_site_fract_x
_atom_site_fract_y
_atom_site_fract_z
Si Si1 0.883071 0.882130 0.823900
Si Si2 0.114976 0.750727 0.450413
Si Si3 0.109495 0.028915 0.858913
Si Si4 0.670857 0.500000 0.500000
Si Si5 0.217709 0.147117 0.043954
Si Si6 0.383083 0.673908 0.822662
O O1 0.861941 0.852259 0.750000
O O2 0.821356 0.842929 0.880557
O O3 0.000000 0.878191 0.840501
O O4 0.843886 0.961131 0.825786
O O5 0.136608 0.814649 0.498788
O O6 0.176609 0.682664 0.467967
O O7 0.151649 0.771466 0.376880
O O8 0.000000 0.732001 0.454204
O O9 0.165890 0.098674 0.836979
O O10 0.000000 0.034512 0.830768
O O11 0.104344 0.022389 0.938374
O O12 0.733592 0.567305 0.477324
O O13 0.350506 0.699680 0.750000
O O14 0.500000 0.666746 0.829070
#
# Coordination Sequence:
#
# PCOD8255504 Si02
#       6
#    16  16  16   8  16  16
#     4   9  17  28  44  69  99 126 153 189 233 279
#     4  10  20  34  48  68  96 126 158 195 239 285
#     4   9  15  23  40  66  96 124 149 183 232 282
#     4  10  17  28  45  70  94 120 158 196 232 274
#     4  10  20  32  50  70  94 126 158 196 236 283
#     4   9  16  26  42  64  91 121 150 182 227 283
#
# _framework density 16.524697
#
# number of rings (size 3 to 8) (size 9 to 14) (size 15 to 20)
#    0.000    2.545    1.818    1.364    0.000    4.364 
#    0.000    0.455    0.000    0.000    0.000    0.000 
#    0.000    0.000    0.000    0.000    0.000    0.000 
#
# Total GULP energy -545088.661724 kJ/mol
# GULP energy per Si atom -12388.378676 kJ/mol
# Density = 1.648709 g / cm^3
# Si number density = 16.524697 Si / 1000 Ang^3
#
#
#
# Elastic Constant Matrix: (Units=GPa)
#
#
# Indices 1 2 3 4 5 6 
#
# 1 52.5214 30.1793 18.7828 0.0000 0.0000 0.0000
# 2 30.1793 77.1371 24.0308 0.0000 0.0000 0.0000
# 3 18.7828 24.0308 109.6447 0.0000 0.0000 0.0000
# 4 0.0000 0.0000 0.0000 19.1857 0.0000 0.0000
# 5 0.0000 0.0000 0.0000 0.0000 14.8198 0.0000
# 6 0.0000 0.0000 0.0000 0.0000 0.0000 13.0724
#
#
#
# Elastic Compliance Matrix: (Units=1/GPa)
#
#
# Indices 1 2 3 4 5 6 
#
# 1 0.025092 -0.009099 -0.002304 0.000000 0.000000 0.000000
# 2 -0.009099 0.017214 -0.002214 0.000000 0.000000 0.000000
# 3 -0.002304 -0.002214 0.010000 0.000000 0.000000 0.000000
# 4 0.000000 0.000000 0.000000 0.052122 0.000000 0.000000
# 5 0.000000 0.000000 0.000000 0.000000 0.067477 0.000000
# 6 0.000000 0.000000 0.000000 0.000000 0.000000 0.076497
#
#
# Mechanical properties :
#
#
# Convention : Reuss Voigt Hill
#
# Bulk Modulus (GPa) = 39.88600 42.80989 41.34795
# Shear Modulus (GPa) = 17.60594 20.50295 19.05444
#
# Velocity S-wave (km/s) = 3.26764 3.52624 3.39940
# Velocity P-wave (km/s) = 6.19889 6.52243 6.36271
#
# Compressibility (1/GPa) = 0.02507145
#
# Stress axis : x y z
#
# Youngs Moduli (GPa) = 39.85257 58.09320 99.99686
#
# Poissons Ratio (x) = 0.52861 0.23041
# Poissons Ratio (y) = 0.36264 0.22139
# Poissons Ratio (z) = 0.09183 0.12861
#
# Static dielectric constant tensor:
#      x y z
#    x 2.545550 0.000000 0.000000 
#    y 0.000000 3.101140 0.000000 
#    z 0.000000 0.000000 3.354070 
# 
# 
# High freq. dielectric constant tensor:
#      x y z
#    x 1.571290 0.000000 0.000000 
#    y 0.000000 1.630130 0.000000 
#    z 0.000000 0.000000 1.657260 
# 
# From -- ./inp_files/44129.got.cif
#   From: 2010.03.12/outbox.cif.g09.slc.cpg/sg63_23_cif.got.tgz:44129.got - 2010.04.10 19:34:48.
