data_PCOD8255072
_publ_section_title
;
Structure prediction by ZEFSAII (Michael W. Deem and Ramdas Pophale) SiO2 
 PCOD8255072
Probable space group: P N M A
;
_chemical_formula_sum "Si O2"
_cell_formula_units_Z 48
_cell_length_a 11.787637
_cell_length_b 8.888372
_cell_length_c 23.722302
_cell_angle_alpha 90.000000
_cell_angle_beta 90.000000
_cell_angle_gamma 90.000000
_cell_volume 2485.454438
_symmetry_space_group_name_H-M "P N M A"
_symmetry_group_IT_number 62
_symmetry_cell_setting 'orthorhombic'
loop_
_space_group_symop_operation_xyz
x,y,z
1/2-x,-y,1/2+z
1/2+x,1/2-y,1/2-z
-x,1/2+y,-z
-x,-y,-z
1/2+x,y,1/2-z
1/2-x,1/2+y,1/2+z
x,1/2-y,z
loop_
_atom_site_type_symbol
_atom_site_label
_atom_site_fract_x
_atom_site_fract_y
_atom_site_fract_z
Si Si1 0.778890 0.075291 0.539116
Si Si2 0.848491 0.423447 0.719536
Si Si3 0.129145 0.080183 0.854175
Si Si4 0.269789 0.928076 0.078647
Si Si5 0.398390 0.925584 0.665026
Si Si6 0.484101 0.071236 0.886685
O O1 0.788770 0.250000 0.522340
O O2 0.678956 0.049869 0.583971
O O3 0.897242 0.013923 0.565217
O O4 0.747952 0.978135 0.484986
O O5 0.871191 0.250000 0.736074
O O6 0.724992 0.442419 0.692748
O O7 0.853124 0.525609 0.774296
O O8 0.943306 0.482262 0.675152
O O9 0.081240 0.250000 0.850578
O O10 0.030420 0.963139 0.841460
O O11 0.269087 0.750000 0.082057
O O12 0.390853 0.991833 0.100604
O O13 0.170010 0.990288 0.116663
O O14 0.379463 0.750000 0.657560
O O15 0.478355 0.250000 0.887196
#
# Coordination Sequence:
#
# PCOD8255072 Si02
#       6
#     8   8   8   8   8   8
#     4   9  18  37  62  88 116 146 186 241 292 334
#     4   9  19  39  64  85 109 147 194 239 285 344
#     4   9  20  40  64  84 109 150 195 235 286 349
#     4  11  22  36  57  87 119 155 195 230 279 349
#     4  12  26  39  54  83 120 154 192 241 291 337
#     4   8  17  35  61  89 114 147 190 233 284 343
#
# _framework density 19.312362
#
# number of rings (size 3 to 8) (size 9 to 14) (size 15 to 20)
#    0.000    2.333    0.000    4.500    2.333    2.000 
#    0.000    4.167    0.000    0.000    0.000    0.000 
#    0.000    0.000    0.000    0.000    0.000    0.000 
#
# Total GULP energy -595290.679571 kJ/mol
# GULP energy per Si atom -12401.889158 kJ/mol
# Density = 1.926841 g / cm^3
# Si number density = 19.312362 Si / 1000 Ang^3
#
#
#
# Elastic Constant Matrix: (Units=GPa)
#
#
# Indices 1 2 3 4 5 6 
#
# 1 88.8050 31.1980 51.2079 0.0000 0.0000 0.0000
# 2 31.1980 70.5079 49.9528 0.0000 0.0000 0.0000
# 3 51.2079 49.9528 99.6543 0.0000 0.0000 0.0000
# 4 0.0000 0.0000 0.0000 35.6020 0.0000 0.0000
# 5 0.0000 0.0000 0.0000 0.0000 21.4142 0.0000
# 6 0.0000 0.0000 0.0000 0.0000 0.0000 16.6092
#
#
#
# Elastic Compliance Matrix: (Units=1/GPa)
#
#
# Indices 1 2 3 4 5 6 
#
# 1 0.016176 -0.001967 -0.007326 0.000000 0.000000 0.000000
# 2 -0.001967 0.022232 -0.010133 0.000000 0.000000 0.000000
# 3 -0.007326 -0.010133 0.018879 0.000000 0.000000 0.000000
# 4 0.000000 0.000000 0.000000 0.028088 0.000000 0.000000
# 5 0.000000 0.000000 0.000000 0.000000 0.046698 0.000000
# 6 0.000000 0.000000 0.000000 0.000000 0.000000 0.060208
#
#
# Mechanical properties :
#
#
# Convention : Reuss Voigt Hill
#
# Bulk Modulus (GPa) = 54.24786 58.18719 56.21753
# Shear Modulus (GPa) = 21.07218 23.16564 22.11891
#
# Velocity S-wave (km/s) = 3.30680 3.46717 3.38794
# Velocity P-wave (km/s) = 6.53686 6.79877 6.66910
#
# Compressibility (1/GPa) = 0.01843391
#
# Stress axis : x y z
#
# Youngs Moduli (GPa) = 61.81906 44.97923 52.96963
#
# Poissons Ratio (x) = 0.08848 0.38806
# Poissons Ratio (y) = 0.12161 0.53676
# Poissons Ratio (z) = 0.45290 0.45579
#
# Static dielectric constant tensor:
#      x y z
#    x 3.632530 0.000000 0.000000 
#    y 0.000000 3.271340 0.000000 
#    z 0.000000 0.000000 3.558610 
# 
# 
# High freq. dielectric constant tensor:
#      x y z
#    x 1.756580 0.000000 0.000000 
#    y 0.000000 1.727670 0.000000 
#    z 0.000000 0.000000 1.762590 
# 
# From -- ./inp_files/29223.got.cif
#   From: 2010.03.12/outbox.cif.g09.slc.cpg/sg62_15_cif.got.tgz:29223.got - 2010.04.10 19:12:36.
