data_PCOD8255462
_publ_section_title
;
Structure prediction by ZEFSAII (Michael W. Deem and Ramdas Pophale) SiO2 
 PCOD8255462
Probable space group: C M C M
;
_chemical_formula_sum "Si O2"
_cell_formula_units_Z 104
_cell_length_a 17.220972
_cell_length_b 27.323020
_cell_length_c 13.595843
_cell_angle_alpha 90.000000
_cell_angle_beta 90.000000
_cell_angle_gamma 90.000000
_cell_volume 6397.237899
_symmetry_space_group_name_H-M "C M C M"
_symmetry_group_IT_number 63
_symmetry_cell_setting 'orthorhombic'
loop_
_space_group_symop_operation_xyz
x,y,z
-x,-y,1/2+z
x,-y,-z
-x,y,1/2-z
-x,-y,-z
x,y,1/2-z
-x,y,z
x,-y,1/2+z
1/2+x,1/2+y,z
1/2-x,1/2-y,1/2+z
1/2+x,1/2-y,-z
1/2-x,1/2+y,1/2-z
1/2-x,1/2-y,-z
1/2+x,1/2+y,1/2-z
1/2-x,1/2+y,z
1/2+x,1/2-y,1/2+z
loop_
_atom_site_type_symbol
_atom_site_label
_atom_site_fract_x
_atom_site_fract_y
_atom_site_fract_z
Si Si1 0.682390 0.000000 0.500000
Si Si2 0.915044 0.679178 0.633485
Si Si3 0.590376 0.617491 0.451550
Si Si4 0.310733 0.466180 0.636651
Si Si5 0.411129 0.439891 0.360188
Si Si6 0.092542 0.783436 0.639615
Si Si7 0.592695 0.926705 0.137869
O O1 0.733926 0.965401 0.570130
O O2 0.628432 0.966152 0.434066
O O3 0.924814 0.681219 0.750000
O O4 0.872880 0.730507 0.601862
O O5 0.873714 0.627444 0.606682
O O6 0.000000 0.677848 0.583760
O O7 0.500000 0.612163 0.423256
O O8 0.637459 0.581365 0.381339
O O9 0.605342 0.605007 0.566080
O O10 0.619618 0.672914 0.432469
O O11 0.285909 0.467422 0.750000
O O12 0.359049 0.514513 0.607587
O O13 0.391118 0.421829 0.250000
O O14 0.500000 0.457512 0.367533
O O15 0.122018 0.795453 0.750000
O O16 0.000000 0.778459 0.639932
O O17 0.617628 0.938767 0.250000
O O18 0.500000 0.927298 0.128835
#
# Coordination Sequence:
#
# PCOD8255462 Si02
#       7
#     8  16  16  16  16  16  16
#     4  12  21  32  45  68  94 118 148 180 219 274
#     4   7  11  23  43  67  91 110 134 177 229 269
#     4  10  17  27  43  66  92 122 158 192 224 256
#     4  11  21  31  42  61  90 126 157 188 224 262
#     4   9  17  29  43  59  84 123 168 202 221 245
#     4   8  13  21  38  66  94 115 141 183 227 261
#     4   9  18  33  53  73  91 112 141 181 228 276
#
# _framework density 16.257016
#
# number of rings (size 3 to 8) (size 9 to 14) (size 15 to 20)
#    0.000    2.769    1.538    3.462    0.000    2.769 
#    0.000    0.000    0.000    0.923    0.000    2.154 
#    0.000    9.846    0.000    0.000    0.000    0.000 
#
# Total GULP energy -644245.687002 kJ/mol
# GULP energy per Si atom -12389.340135 kJ/mol
# Density = 1.622001 g / cm^3
# Si number density = 16.257016 Si / 1000 Ang^3
#
#
#
# Elastic Constant Matrix: (Units=GPa)
#
#
# Indices 1 2 3 4 5 6 
#
# 1 32.4923 34.2255 27.9761 0.0000 0.0000 0.0000
# 2 34.2255 153.9857 63.6038 0.0000 0.0000 0.0000
# 3 27.9761 63.6038 81.3613 0.0000 0.0000 0.0000
# 4 0.0000 0.0000 0.0000 22.5746 0.0000 0.0000
# 5 0.0000 0.0000 0.0000 0.0000 17.6345 0.0000
# 6 0.0000 0.0000 0.0000 0.0000 0.0000 2.0373
#
#
#
# Elastic Compliance Matrix: (Units=1/GPa)
#
#
# Indices 1 2 3 4 5 6 
#
# 1 0.046710 -0.005535 -0.011734 0.000000 0.000000 0.000000
# 2 -0.005535 0.010247 -0.006107 0.000000 0.000000 0.000000
# 3 -0.011734 -0.006107 0.021100 0.000000 0.000000 0.000000
# 4 0.000000 0.000000 0.000000 0.044298 0.000000 0.000000
# 5 0.000000 0.000000 0.000000 0.000000 0.056707 0.000000
# 6 0.000000 0.000000 0.000000 0.000000 0.000000 0.490846
#
#
# Mechanical properties :
#
#
# Convention : Reuss Voigt Hill
#
# Bulk Modulus (GPa) = 31.94490 57.71665 44.83078
# Shear Modulus (GPa) = 6.87667 17.91822 12.39744
#
# Velocity S-wave (km/s) = 2.05892 3.32352 2.76450
# Velocity P-wave (km/s) = 5.03436 7.09277 6.15029
#
# Compressibility (1/GPa) = 0.03130390
#
# Stress axis : x y z
#
# Youngs Moduli (GPa) = 21.40857 97.58974 47.39344
#
# Poissons Ratio (x) = 0.54018 0.55613
# Poissons Ratio (y) = 0.11850 0.28944
# Poissons Ratio (z) = 0.25121 0.59600
#
# Static dielectric constant tensor:
#      x y z
#    x 2.717470 0.000000 0.000000 
#    y 0.000000 3.417060 0.000000 
#    z 0.000000 0.000000 2.989940 
# 
# 
# High freq. dielectric constant tensor:
#      x y z
#    x 1.583010 0.000000 0.000000 
#    y 0.000000 1.629340 0.000000 
#    z 0.000000 0.000000 1.611080 
# 
# From -- ./inp_files/34483.got.cif
#   From: 2010.03.12/outbox.cif.g09.slc.cpg/sg63_18_cif.got.tgz:34483.got - 2010.04.10 19:34:48.
