data_PCOD8255124
_publ_section_title
;
Structure prediction by ZEFSAII (Michael W. Deem and Ramdas Pophale) SiO2 
 PCOD8255124
Probable space group: P N M A
;
_chemical_formula_sum "Si O2"
_cell_formula_units_Z 32
_cell_length_a 10.821729
_cell_length_b 14.193879
_cell_length_c 10.909672
_cell_angle_alpha 90.000000
_cell_angle_beta 90.000000
_cell_angle_gamma 90.000000
_cell_volume 1675.750842
_symmetry_space_group_name_H-M "P N M A"
_symmetry_group_IT_number 62
_symmetry_cell_setting 'orthorhombic'
loop_
_space_group_symop_operation_xyz
x,y,z
1/2-x,-y,1/2+z
1/2+x,1/2-y,1/2-z
-x,1/2+y,-z
-x,-y,-z
1/2+x,y,1/2-z
1/2-x,1/2+y,1/2+z
x,1/2-y,z
loop_
_atom_site_type_symbol
_atom_site_label
_atom_site_fract_x
_atom_site_fract_y
_atom_site_fract_z
Si Si1 0.408251 0.601621 0.912456
Si Si2 0.589104 0.750000 0.811126
Si Si3 0.246553 0.750000 0.464831
Si Si4 0.987646 0.250000 0.847656
Si Si5 0.298298 0.250000 0.439611
Si Si6 0.433209 0.398201 0.854571
O O1 0.512825 0.657400 0.841196
O O2 0.280038 0.655753 0.922174
O O3 0.385741 0.505187 0.835759
O O4 0.452330 0.590707 0.052524
O O5 0.602293 0.750000 0.666895
O O6 0.718989 0.750000 0.888220
O O7 0.391409 0.750000 0.433995
O O8 0.182702 0.658483 0.407293
O O9 0.985272 0.154785 0.765852
O O10 0.865325 0.250000 0.929968
#
# Coordination Sequence:
#
# PCOD8255124 Si02
#       6
#     8   4   4   4   4   8
#     4   9  20  41  61  82 115 161 198 228 306 362
#     4   9  20  39  58  77 118 163 199 238 292 358
#     4   9  20  37  58  87 118 155 191 248 300 340
#     4  11  23  35  63  95 119 145 203 257 293 337
#     4  11  23  37  61  87 117 159 193 245 295 351
#     4   9  20  39  62  86 115 152 191 249 298 354
#
# _framework density 19.095918000000001
#
# number of rings (size 3 to 8) (size 9 to 14) (size 15 to 20)
#    0.000    2.500    0.000    2.250   10.500    2.000 
#    9.000    2.500    0.000    0.000    0.000    0.000 
#    0.000    0.000    0.000    0.000    0.000    0.000 
#
# Total GULP energy -396640.335484 kJ/mol
# GULP energy per Si atom -12395.010484 kJ/mol
# Density = 1.905245 g / cm^3
# Si number density = 19.095918 Si / 1000 Ang^3
#
#
#
# Elastic Constant Matrix: (Units=GPa)
#
#
# Indices 1 2 3 4 5 6 
#
# 1 81.1286 44.6670 29.5857 0.0000 0.0000 0.0000
# 2 44.6670 173.4455 43.6421 0.0000 0.0000 0.0000
# 3 29.5857 43.6421 96.8688 0.0000 0.0000 0.0000
# 4 0.0000 0.0000 0.0000 12.6315 0.0000 0.0000
# 5 0.0000 0.0000 0.0000 0.0000 25.1528 0.0000
# 6 0.0000 0.0000 0.0000 0.0000 0.0000 -12.2249
#
#
#
# Elastic Compliance Matrix: (Units=1/GPa)
#
#
# Indices 1 2 3 4 5 6 
#
# 1 0.015219 -0.003101 -0.003251 0.000000 0.000000 0.000000
# 2 -0.003101 0.007135 -0.002267 0.000000 0.000000 0.000000
# 3 -0.003251 -0.002267 0.012338 0.000000 0.000000 0.000000
# 4 0.000000 0.000000 0.000000 0.079167 0.000000 0.000000
# 5 0.000000 0.000000 0.000000 0.000000 0.039757 0.000000
# 6 0.000000 0.000000 0.000000 0.000000 0.000000 -0.081800
#
#
# Mechanical properties :
#
#
# Convention : Reuss Voigt Hill
#
# Bulk Modulus (GPa) = 57.29867 65.24806 61.27336
# Shear Modulus (GPa) = 52.70248 20.68173 36.69210
#
# Velocity S-wave (km/s) = 5.25916 3.29453 4.38821
# Velocity P-wave (km/s) = 8.18225 6.97959 7.60473
#
# Compressibility (1/GPa) = 0.01745241
#
# Stress axis : x y z
#
# Youngs Moduli (GPa) = 65.70649 140.16128 81.05327
#
# Poissons Ratio (x) = 0.43469 0.26350
# Poissons Ratio (y) = 0.20378 0.18376
# Poissons Ratio (z) = 0.21361 0.31776
#
# Static dielectric constant tensor:
#      x y z
#    x 3.259630 0.000000 0.000000 
#    y 0.000000 3.613490 0.000000 
#    z 0.000000 0.000000 3.427400 
# 
# 
# High freq. dielectric constant tensor:
#      x y z
#    x 1.732440 0.000000 0.000000 
#    y 0.000000 1.750700 0.000000 
#    z 0.000000 0.000000 1.733380 
# 
# From -- ./inp_files/4884.got.cif
#   From: 2010.03.12/outbox.cif.g09.slc.cpg/sg62_3_cif.got.tgz:4884.got - 2010.04.10 19:12:36.
