data_PCOD8255277
_publ_section_title
;
Structure prediction by ZEFSAII (Michael W. Deem and Ramdas Pophale) SiO2 
 PCOD8255277
Probable space group: P N M A
;
_chemical_formula_sum "Si O2"
_cell_formula_units_Z 48
_cell_length_a 16.887941
_cell_length_b 9.778693
_cell_length_c 17.018630
_cell_angle_alpha 90.000000
_cell_angle_beta 90.000000
_cell_angle_gamma 90.000000
_cell_volume 2810.490433
_symmetry_space_group_name_H-M "P N M A"
_symmetry_group_IT_number 62
_symmetry_cell_setting 'orthorhombic'
loop_
_space_group_symop_operation_xyz
x,y,z
1/2-x,-y,1/2+z
1/2+x,1/2-y,1/2-z
-x,1/2+y,-z
-x,-y,-z
1/2+x,y,1/2-z
1/2-x,1/2+y,1/2+z
x,1/2-y,z
loop_
_atom_site_type_symbol
_atom_site_label
_atom_site_fract_x
_atom_site_fract_y
_atom_site_fract_z
Si Si1 0.392300 0.912790 0.267056
Si Si2 0.605204 0.907883 0.048914
Si Si3 0.519522 0.598649 0.387649
Si Si4 0.387114 0.901365 0.518496
Si Si5 0.929622 0.590682 0.404976
Si Si6 0.770230 0.588814 0.109930
O O1 0.393311 0.750000 0.267358
O O2 0.470694 0.962528 0.313712
O O3 0.395302 0.964997 0.177559
O O4 0.313062 0.969751 0.311231
O O5 0.612857 0.750000 0.022311
O O6 0.524171 0.933640 0.095550
O O7 0.677402 0.949286 0.107114
O O8 0.611387 0.001987 0.972244
O O9 0.553260 0.750000 0.368002
O O10 0.593264 0.499670 0.407775
O O11 0.462174 0.609586 0.461844
O O12 0.366794 0.750000 0.551448
O O13 0.313521 0.965168 0.469301
O O14 0.909890 0.750000 0.419237
O O15 0.784310 0.750000 0.110828
#
# Coordination Sequence:
#
# PCOD8255277 Si02
#       6
#     8   8   8   8   8   8
#     4   8  14  26  44  65  88 113 142 177 216 254
#     4   9  17  30  48  66  84 112 148 178 209 255
#     4   8  13  22  37  57  82 110 138 169 205 247
#     4   8  13  22  37  56  79 110 143 169 199 246
#     4   9  17  30  48  67  86 110 143 182 216 247
#     4   8  14  26  44  63  85 115 146 175 211 258
#
# _framework density 17.078870999999999
#
# number of rings (size 3 to 8) (size 9 to 14) (size 15 to 20)
#    0.000    3.667    0.000    2.000    0.000    0.000 
#    0.000    3.333    0.000    7.000    0.000    0.000 
#    0.000    0.000    0.000    0.000    0.000    0.000 
#
# Total GULP energy -594739.629542 kJ/mol
# GULP energy per Si atom -12390.408949 kJ/mol
# Density = 1.704000 g / cm^3
# Si number density = 17.078871 Si / 1000 Ang^3
#
#
#
# Elastic Constant Matrix: (Units=GPa)
#
#
# Indices 1 2 3 4 5 6 
#
# 1 79.9441 24.2304 48.6026 0.0000 0.0000 0.0000
# 2 24.2304 43.1502 32.5800 0.0000 0.0000 0.0000
# 3 48.6026 32.5800 105.7195 0.0000 0.0000 0.0000
# 4 0.0000 0.0000 0.0000 19.8220 0.0000 0.0000
# 5 0.0000 0.0000 0.0000 0.0000 17.2359 0.0000
# 6 0.0000 0.0000 0.0000 0.0000 0.0000 17.0536
#
#
#
# Elastic Compliance Matrix: (Units=1/GPa)
#
#
# Indices 1 2 3 4 5 6 
#
# 1 0.018177 -0.005079 -0.006791 0.000000 0.000000 0.000000
# 2 -0.005079 0.031622 -0.007410 0.000000 0.000000 0.000000
# 3 -0.006791 -0.007410 0.014865 0.000000 0.000000 0.000000
# 4 0.000000 0.000000 0.000000 0.050449 0.000000 0.000000
# 5 0.000000 0.000000 0.000000 0.000000 0.058018 0.000000
# 6 0.000000 0.000000 0.000000 0.000000 0.000000 0.058639
#
#
# Mechanical properties :
#
#
# Convention : Reuss Voigt Hill
#
# Bulk Modulus (GPa) = 38.31045 48.84886 43.57966
# Shear Modulus (GPa) = 17.91914 19.04904 18.48409
#
# Velocity S-wave (km/s) = 3.24265 3.34332 3.29337
# Velocity P-wave (km/s) = 6.04151 6.60059 6.32723
#
# Compressibility (1/GPa) = 0.02610254
#
# Stress axis : x y z
#
# Youngs Moduli (GPa) = 55.01443 31.62371 67.27374
#
# Poissons Ratio (x) = 0.16063 0.45687
# Poissons Ratio (y) = 0.27944 0.49849
# Poissons Ratio (z) = 0.37361 0.23433
#
# Static dielectric constant tensor:
#      x y z
#    x 3.193270 0.000000 0.000000 
#    y 0.000000 3.117630 0.000000 
#    z 0.000000 0.000000 3.231710 
# 
# 
# High freq. dielectric constant tensor:
#      x y z
#    x 1.646450 0.000000 0.000000 
#    y 0.000000 1.622350 0.000000 
#    z 0.000000 0.000000 1.640200 
# 
# From -- ./inp_files/19741.got.cif
#   From: 2010.03.12/outbox.cif.g09.slc.cpg/sg62_10_cif.got.tgz:19741.got - 2010.04.10 19:12:36.
