data_PCOD8255087
_publ_section_title
;
Structure prediction by ZEFSAII (Michael W. Deem and Ramdas Pophale) SiO2 
 PCOD8255087
Probable space group: P N M A
;
_chemical_formula_sum "Si O2"
_cell_formula_units_Z 48
_cell_length_a 9.780851
_cell_length_b 26.267863
_cell_length_c 10.297192
_cell_angle_alpha 90.000000
_cell_angle_beta 90.000000
_cell_angle_gamma 90.000000
_cell_volume 2645.575720
_symmetry_space_group_name_H-M "P N M A"
_symmetry_group_IT_number 62
_symmetry_cell_setting 'orthorhombic'
loop_
_space_group_symop_operation_xyz
x,y,z
1/2-x,-y,1/2+z
1/2+x,1/2-y,1/2-z
-x,1/2+y,-z
-x,-y,-z
1/2+x,y,1/2-z
1/2-x,1/2+y,1/2+z
x,1/2-y,z
loop_
_atom_site_type_symbol
_atom_site_label
_atom_site_fract_x
_atom_site_fract_y
_atom_site_fract_z
Si Si1 0.642860 0.460760 0.258802
Si Si2 0.963281 0.588963 0.499347
Si Si3 0.605718 0.030208 0.744734
Si Si4 0.738011 0.306422 0.639719
Si Si5 0.218630 0.093090 0.991583
Si Si6 0.048040 0.193090 0.619786
O O1 0.544929 0.508752 0.283880
O O2 0.795538 0.481743 0.247523
O O3 0.637044 0.422007 0.379435
O O4 0.604109 0.429785 0.131100
O O5 0.890724 0.559917 0.380904
O O6 0.936642 0.649829 0.490412
O O7 0.123767 0.575365 0.498239
O O8 0.646507 0.068276 0.631668
O O9 0.701174 0.250000 0.587824
O O10 0.706082 0.345954 0.524381
O O11 0.653496 0.319895 0.767266
O O12 0.896642 0.310176 0.680791
O O13 0.074565 0.250000 0.561725
#
# Coordination Sequence:
#
# PCOD8255087 Si02
#       6
#     8   8   8   8   8   8
#     4  12  24  39  56  82 118 156 190 233 276 335
#     4  11  22  40  58  85 119 148 187 238 286 331
#     4  12  22  39  60  82 112 156 194 232 279 328
#     4   9  18  35  59  85 111 141 183 234 283 335
#     4  11  22  39  59  86 114 151 191 232 286 336
#     4   9  18  35  60  85 110 142 184 233 283 334
#
# _framework density 18.143498999999998
#
# number of rings (size 3 to 8) (size 9 to 14) (size 15 to 20)
#    0.000    1.333    5.000    2.000    0.000    0.000 
#    3.000    0.833    0.000    0.000    0.000    0.000 
#    0.000    0.000    0.000    0.000    0.000    0.000 
#
# Total GULP energy -595246.339302 kJ/mol
# GULP energy per Si atom -12400.965402 kJ/mol
# Density = 1.810220 g / cm^3
# Si number density = 18.143499 Si / 1000 Ang^3
#
#
#
# Elastic Constant Matrix: (Units=GPa)
#
#
# Indices 1 2 3 4 5 6 
#
# 1 54.5496 34.7391 40.7773 0.0000 0.0000 0.0000
# 2 34.7391 116.3098 66.0660 0.0000 0.0000 0.0000
# 3 40.7773 66.0660 139.7064 0.0000 0.0000 0.0000
# 4 0.0000 0.0000 0.0000 14.9520 0.0000 0.0000
# 5 0.0000 0.0000 0.0000 0.0000 26.6973 0.0000
# 6 0.0000 0.0000 0.0000 0.0000 0.0000 26.6492
#
#
#
# Elastic Compliance Matrix: (Units=1/GPa)
#
#
# Indices 1 2 3 4 5 6 
#
# 1 0.025101 -0.004561 -0.005170 0.000000 0.000000 0.000000
# 2 -0.004561 0.012584 -0.004620 0.000000 0.000000 0.000000
# 3 -0.005170 -0.004620 0.010851 0.000000 0.000000 0.000000
# 4 0.000000 0.000000 0.000000 0.066881 0.000000 0.000000
# 5 0.000000 0.000000 0.000000 0.000000 0.037457 0.000000
# 6 0.000000 0.000000 0.000000 0.000000 0.000000 0.037525
#
#
# Mechanical properties :
#
#
# Convention : Reuss Voigt Hill
#
# Bulk Modulus (GPa) = 50.41297 65.97007 58.19152
# Shear Modulus (GPa) = 22.15228 24.92526 23.53877
#
# Velocity S-wave (km/s) = 3.49800 3.71048 3.60581
# Velocity P-wave (km/s) = 6.64535 7.40243 7.03408
#
# Compressibility (1/GPa) = 0.01983616
#
# Stress axis : x y z
#
# Youngs Moduli (GPa) = 39.83941 79.46637 92.15374
#
# Poissons Ratio (x) = 0.36241 0.47641
# Poissons Ratio (y) = 0.18169 0.42572
# Poissons Ratio (z) = 0.20596 0.36711
#
# Static dielectric constant tensor:
#      x y z
#    x 3.505660 0.000000 0.000000 
#    y 0.000000 3.615720 0.000000 
#    z 0.000000 0.000000 3.159880 
# 
# 
# High freq. dielectric constant tensor:
#      x y z
#    x 1.710180 0.000000 0.000000 
#    y 0.000000 1.717190 0.000000 
#    z 0.000000 0.000000 1.679320 
# 
# From -- ./inp_files/4512.got.cif
#   From: 2010.03.12/outbox.cif.g09.slc.cpg/sg62_3_cif.got.tgz:4512.got - 2010.04.10 19:12:36.
