data_PCOD8255303
_publ_section_title
;
Structure prediction by ZEFSAII (Michael W. Deem and Ramdas Pophale) SiO2 
 PCOD8255303
Probable space group: P N M A
;
_chemical_formula_sum "Si O2"
_cell_formula_units_Z 56
_cell_length_a 21.000000
_cell_length_b 9.000000
_cell_length_c 15.000000
_cell_angle_alpha 90.000000
_cell_angle_beta 90.000000
_cell_angle_gamma 90.000000
_cell_volume 2835.000000
_symmetry_space_group_name_H-M "P N M A"
_symmetry_group_IT_number 62
_symmetry_cell_setting 'orthorhombic'
loop_
_space_group_symop_operation_xyz
x,y,z
1/2-x,-y,1/2+z
1/2+x,1/2-y,1/2-z
-x,1/2+y,-z
-x,-y,-z
1/2+x,y,1/2-z
1/2-x,1/2+y,1/2+z
x,1/2-y,z
loop_
_atom_site_type_symbol
_atom_site_label
_atom_site_fract_x
_atom_site_fract_y
_atom_site_fract_z
Si Si1 0.828700 0.427489 0.821355
Si Si2 0.691591 0.428490 0.506965
Si Si3 0.096031 0.090292 0.492722
Si Si4 0.294375 0.571800 0.863711
Si Si5 0.473983 0.408974 0.118102
Si Si6 0.448063 0.917267 0.444447
Si Si7 0.529779 0.916980 0.278097
O O1 0.817861 0.250000 0.825001
O O2 0.795386 0.495075 0.733317
O O3 0.903861 0.471150 0.822327
O O4 0.797010 0.504381 0.908135
O O5 0.700494 0.250000 0.505968
O O6 0.737864 0.504378 0.577896
O O7 0.622289 0.480929 0.541439
O O8 0.124630 0.250000 0.522195
O O9 0.140942 0.024038 0.415433
O O10 0.024082 0.113721 0.460895
O O11 0.090211 0.988402 0.581175
O O12 0.288116 0.750000 0.852928
O O13 0.451035 0.250000 0.155063
O O14 0.513156 0.490237 0.192971
O O15 0.449052 0.750000 0.479008
O O16 0.469015 0.930789 0.342193
O O17 0.500000 0.000000 0.500000
O O18 0.540200 0.750000 0.245436
#
# Coordination Sequence:
#
# PCOD8255303 Si02
#       7
#     8   8   8   8   8   8   8
#     4  11  22  39  66  93 119 158 204 250 305 369
#     4  11  24  42  64  91 124 161 205 258 311 368
#     4   9  19  35  55  81 115 154 194 244 302 354
#     4  11  23  42  65  89 123 165 210 257 306 370
#     4  10  19  32  54  85 117 151 197 246 297 353
#     4  10  21  38  61  89 120 154 194 248 305 360
#     4  10  20  35  58  87 119 154 194 241 298 362
#
# _framework density 19.753086
#
# number of rings (size 3 to 8) (size 9 to 14) (size 15 to 20)
#    0.000    1.714    2.857    1.714    0.000    3.429 
#    2.571    0.000    0.000    0.000    0.000    0.000 
#    0.000    0.000    0.000    0.000    0.000    0.000 
#
# Total GULP energy -694061.061069 kJ/mol
# GULP energy per Si atom -12393.947519 kJ/mol
# Density = 1.970813 g / cm^3
# Si number density = 19.753086 Si / 1000 Ang^3
#
#
#
# Elastic Constant Matrix: (Units=GPa)
#
#
# Indices 1 2 3 4 5 6 
#
# 1 88.6319 41.1661 51.1167 0.0000 0.0000 0.0000
# 2 41.1661 85.2446 58.7027 0.0000 0.0000 0.0000
# 3 51.1167 58.7027 97.4285 0.0000 0.0000 0.0000
# 4 0.0000 0.0000 0.0000 31.1403 0.0000 0.0000
# 5 0.0000 0.0000 0.0000 0.0000 38.8021 0.0000
# 6 0.0000 0.0000 0.0000 0.0000 0.0000 23.3108
#
#
#
# Elastic Compliance Matrix: (Units=1/GPa)
#
#
# Indices 1 2 3 4 5 6 
#
# 1 0.016762 -0.003484 -0.006695 0.000000 0.000000 0.000000
# 2 -0.003484 0.020774 -0.010689 0.000000 0.000000 0.000000
# 3 -0.006695 -0.010689 0.020217 0.000000 0.000000 0.000000
# 4 0.000000 0.000000 0.000000 0.032113 0.000000 0.000000
# 5 0.000000 0.000000 0.000000 0.000000 0.025772 0.000000
# 6 0.000000 0.000000 0.000000 0.000000 0.000000 0.042898
#
#
# Mechanical properties :
#
#
# Convention : Reuss Voigt Hill
#
# Bulk Modulus (GPa) = 62.43421 63.69733 63.06577
# Shear Modulus (GPa) = 24.31764 26.67195 25.49479
#
# Velocity S-wave (km/s) = 3.51248 3.67858 3.59649
# Velocity P-wave (km/s) = 6.93729 7.09644 7.01731
#
# Compressibility (1/GPa) = 0.01601686
#
# Stress axis : x y z
#
# Youngs Moduli (GPa) = 59.65813 48.13615 49.46355
#
# Poissons Ratio (x) = 0.16772 0.33116
# Poissons Ratio (y) = 0.20786 0.52871
# Poissons Ratio (z) = 0.39942 0.51453
#
# Static dielectric constant tensor:
#      x y z
#    x 3.751910 0.000000 0.000000 
#    y 0.000000 3.908250 0.000000 
#    z 0.000000 0.000000 1.981860 
# 
# 
# High freq. dielectric constant tensor:
#      x y z
#    x 1.755590 0.000000 0.000000 
#    y 0.000000 1.778950 0.000000 
#    z 0.000000 0.000000 1.768330 
# 
# From -- ./inp_files/20379.got.cif
#   From: 2010.03.12/outbox.ucp.g09.slc.cvg/sg62_11_cif.got.tgz:20379.got - 2010.05.04 19:35:18.
