data_PCOD8255560
_publ_section_title
;
Structure prediction by ZEFSAII (Michael W. Deem and Ramdas Pophale) SiO2 
 PCOD8255560
Probable space group: C M C M
;
_chemical_formula_sum "Si O2"
_cell_formula_units_Z 128
_cell_length_a 23.857637
_cell_length_b 18.745143
_cell_length_c 16.109746
_cell_angle_alpha 90.000000
_cell_angle_beta 90.000000
_cell_angle_gamma 90.000000
_cell_volume 7204.517113
_symmetry_space_group_name_H-M "C M C M"
_symmetry_group_IT_number 63
_symmetry_cell_setting 'orthorhombic'
loop_
_space_group_symop_operation_xyz
x,y,z
-x,-y,1/2+z
x,-y,-z
-x,y,1/2-z
-x,-y,-z
x,y,1/2-z
-x,y,z
x,-y,1/2+z
1/2+x,1/2+y,z
1/2-x,1/2-y,1/2+z
1/2+x,1/2-y,-z
1/2-x,1/2+y,1/2-z
1/2-x,1/2-y,-z
1/2+x,1/2+y,1/2-z
1/2-x,1/2+y,z
1/2+x,1/2-y,1/2+z
loop_
_atom_site_type_symbol
_atom_site_label
_atom_site_fract_x
_atom_site_fract_y
_atom_site_fract_z
Si Si1 0.250892 0.818556 0.847659
Si Si2 0.937861 0.826826 0.349027
Si Si3 0.722615 0.838980 0.348084
Si Si4 0.839129 0.533309 0.590611
Si Si5 0.228099 0.032632 0.407963
Si Si6 0.835641 0.088212 0.845543
Si Si7 0.121344 0.315398 0.651388
Si Si8 0.938164 0.544709 0.153341
O O1 0.248420 0.836933 0.750000
O O2 0.217515 0.745374 0.866644
O O3 0.221352 0.882151 0.900230
O O4 0.314628 0.810543 0.879363
O O5 0.941252 0.827355 0.250000
O O6 0.895204 0.887352 0.384474
O O7 0.914228 0.751416 0.381344
O O8 0.000000 0.839939 0.386279
O O9 0.714482 0.854547 0.250000
O O10 0.676031 0.882261 0.402106
O O11 0.783558 0.865387 0.380062
O O12 0.846529 0.500000 0.500000
O O13 0.787460 0.490335 0.634782
O O14 0.898065 0.522923 0.637444
O O15 0.228574 0.000000 0.500000
O O16 0.175641 0.995576 0.361418
O O17 0.840562 0.106430 0.750000
O O18 0.121172 0.316872 0.750000
O O19 0.091890 0.385835 0.613753
O O20 0.945732 0.556853 0.250000
O O21 0.000000 0.533144 0.113350
#
# Coordination Sequence:
#
# PCOD8255560 Si02
#       8
#    16  16  16  16  16  16  16  16
#     4  10  17  29  51  74  95 126 162 200 247 291
#     4   9  15  24  41  66  95 120 145 186 240 294
#     4   9  17  30  50  72  95 124 162 205 244 288
#     4  10  20  33  46  67  99 131 163 199 248 296
#     4  10  20  32  45  66  97 128 163 198 243 296
#     4   9  16  28  45  67  92 122 156 193 236 284
#     4   9  15  25  41  67  96 119 149 189 237 292
#     4  10  19  30  47  69  93 127 168 206 243 285
#
# _framework density 17.766631
#
# number of rings (size 3 to 8) (size 9 to 14) (size 15 to 20)
#    0.000    2.500    2.500    1.125    0.000    2.750 
#    0.000    6.875    0.000    0.375    0.000    0.875 
#    0.000    3.000    0.000    0.000    0.000    0.000 
#
# Total GULP energy -793001.653196 kJ/mol
# GULP energy per Si atom -12390.650831 kJ/mol
# Density = 1.772619 g / cm^3
# Si number density = 17.766631 Si / 1000 Ang^3
#
#
#
# Elastic Constant Matrix: (Units=GPa)
#
#
# Indices 1 2 3 4 5 6 
#
# 1 116.4129 74.8460 16.3360 0.0000 0.0000 0.0000
# 2 74.8460 140.0465 24.5110 0.0000 0.0000 0.0000
# 3 16.3360 24.5110 26.9554 0.0000 0.0000 0.0000
# 4 0.0000 0.0000 0.0000 18.3258 0.0000 0.0000
# 5 0.0000 0.0000 0.0000 0.0000 10.3026 0.0000
# 6 0.0000 0.0000 0.0000 0.0000 0.0000 27.1626
#
#
#
# Elastic Compliance Matrix: (Units=1/GPa)
#
#
# Indices 1 2 3 4 5 6 
#
# 1 0.013167 -0.006708 -0.001880 0.000000 0.000000 0.000000
# 2 -0.006708 0.011909 -0.006764 0.000000 0.000000 0.000000
# 3 -0.001880 -0.006764 0.044388 0.000000 0.000000 0.000000
# 4 0.000000 0.000000 0.000000 0.054568 0.000000 0.000000
# 5 0.000000 0.000000 0.000000 0.000000 0.097063 0.000000
# 6 0.000000 0.000000 0.000000 0.000000 0.000000 0.036815
#
#
# Mechanical properties :
#
#
# Convention : Reuss Voigt Hill
#
# Bulk Modulus (GPa) = 25.79943 57.20009 41.49976
# Shear Modulus (GPa) = 16.58189 22.33966 19.46078
#
# Velocity S-wave (km/s) = 3.05834 3.54982 3.31321
# Velocity P-wave (km/s) = 5.19847 7.00477 6.16810
#
# Compressibility (1/GPa) = 0.03876055
#
# Stress axis : x y z
#
# Youngs Moduli (GPa) = 75.95031 83.96912 22.52836
#
# Poissons Ratio (x) = 0.56323 0.04235
# Poissons Ratio (y) = 0.50945 0.15238
# Poissons Ratio (z) = 0.14279 0.56798
#
# Static dielectric constant tensor:
#      x y z
#    x 3.478380 0.000000 0.000000 
#    y 0.000000 3.362530 0.000000 
#    z 0.000000 0.000000 2.858100 
# 
# 
# High freq. dielectric constant tensor:
#      x y z
#    x 1.668380 0.000000 0.000000 
#    y 0.000000 1.683890 0.000000 
#    z 0.000000 0.000000 1.640960 
# 
# From -- ./inp_files/48413.got.cif
#   From: 2010.03.12/outbox.cif.g09.slc.cpg/sg63_25_cif.got.tgz:48413.got - 2010.04.10 19:34:48.
