data_PCOD8255129
_publ_section_title
;
Structure prediction by ZEFSAII (Michael W. Deem and Ramdas Pophale) SiO2 
 PCOD8255129
Probable space group: P N M A
;
_chemical_formula_sum "Si O2"
_cell_formula_units_Z 48
_cell_length_a 8.583658
_cell_length_b 30.555114
_cell_length_c 8.891396
_cell_angle_alpha 90.000000
_cell_angle_beta 90.000000
_cell_angle_gamma 90.000000
_cell_volume 2331.987763
_symmetry_space_group_name_H-M "P N M A"
_symmetry_group_IT_number 62
_symmetry_cell_setting 'orthorhombic'
loop_
_space_group_symop_operation_xyz
x,y,z
1/2-x,-y,1/2+z
1/2+x,1/2-y,1/2-z
-x,1/2+y,-z
-x,-y,-z
1/2+x,y,1/2-z
1/2-x,1/2+y,1/2+z
x,1/2-y,z
loop_
_atom_site_type_symbol
_atom_site_label
_atom_site_fract_x
_atom_site_fract_y
_atom_site_fract_z
Si Si1 0.349836 0.299024 0.357979
Si Si2 0.797968 0.701114 0.948324
Si Si3 0.848163 0.880111 0.135333
Si Si4 0.699448 0.956770 0.947408
Si Si5 0.844103 0.956618 0.630991
Si Si6 0.794268 0.120575 0.950985
O O1 0.286383 0.250000 0.392019
O O2 0.533330 0.301922 0.374818
O O3 0.319960 0.311802 0.184708
O O4 0.266638 0.332240 0.472480
O O5 0.764361 0.750000 0.011017
O O6 0.781878 0.667155 0.084647
O O7 0.824082 0.884468 0.313012
O O8 0.030092 0.885472 0.104991
O O9 0.752179 0.916797 0.049485
O O10 0.815037 0.962578 0.807568
O O11 0.525878 0.947464 0.890612
O O12 0.711291 0.000337 0.045129
O O13 0.742589 0.916142 0.573279
#
# Coordination Sequence:
#
# PCOD8255129 Si02
#       6
#     8   8   8   8   8   8
#     4   9  19  36  57  82 112 147 188 233 282 336
#     4   9  19  36  57  82 112 147 188 233 282 336
#     4  11  23  38  58  84 116 152 191 236 284 336
#     4  11  24  41  62  87 116 150 188 232 282 336
#     4  11  24  41  62  87 116 150 188 232 282 336
#     4  11  23  38  58  84 116 152 191 236 284 336
#
# _framework density 20.583299
#
# number of rings (size 3 to 8) (size 9 to 14) (size 15 to 20)
#    0.000    1.667    0.000    4.000    0.000   11.333 
#    0.000    0.000    0.000    0.000    0.000    0.000 
#    0.000    0.000    0.000    0.000    0.000    0.000 
#
# Total GULP energy -595445.192302 kJ/mol
# GULP energy per Si atom -12405.108173 kJ/mol
# Density = 2.053645 g / cm^3
# Si number density = 20.583299 Si / 1000 Ang^3
#
#
#
# Elastic Constant Matrix: (Units=GPa)
#
#
# Indices 1 2 3 4 5 6 
#
# 1 32.6020 28.3647 -3.5747 0.0000 0.0000 0.0000
# 2 28.3647 106.8577 24.7209 0.0000 0.0000 0.0000
# 3 -3.5747 24.7209 63.9891 0.0000 0.0000 0.0000
# 4 0.0000 0.0000 0.0000 37.4899 0.0000 0.0000
# 5 0.0000 0.0000 0.0000 0.0000 37.4849 0.0000
# 6 0.0000 0.0000 0.0000 0.0000 0.0000 23.6060
#
#
#
# Elastic Compliance Matrix: (Units=1/GPa)
#
#
# Indices 1 2 3 4 5 6 
#
# 1 0.042901 -0.013114 0.007463 0.000000 0.000000 0.000000
# 2 -0.013114 0.014286 -0.006252 0.000000 0.000000 0.000000
# 3 0.007463 -0.006252 0.018460 0.000000 0.000000 0.000000
# 4 0.000000 0.000000 0.000000 0.026674 0.000000 0.000000
# 5 0.000000 0.000000 0.000000 0.000000 0.026677 0.000000
# 6 0.000000 0.000000 0.000000 0.000000 0.000000 0.042362
#
#
# Mechanical properties :
#
#
# Convention : Reuss Voigt Hill
#
# Bulk Modulus (GPa) = 19.28979 33.60784 26.44881
# Shear Modulus (GPa) = 23.53538 29.97869 26.75704
#
# Velocity S-wave (km/s) = 3.38512 3.82050 3.60938
# Velocity P-wave (km/s) = 4.96695 5.98538 5.49979
#
# Compressibility (1/GPa) = 0.05184091
#
# Stress axis : x y z
#
# Youngs Moduli (GPa) = 23.30936 70.00033 54.17190
#
# Poissons Ratio (x) = 0.91801 -0.40429
# Poissons Ratio (y) = 0.30569 0.33866
# Poissons Ratio (z) = -0.17396 0.43761
#
# Static dielectric constant tensor:
#      x y z
#    x 3.687190 0.000000 0.000000 
#    y 0.000000 4.079110 0.000000 
#    z 0.000000 0.000000 3.729260 
# 
# 
# High freq. dielectric constant tensor:
#      x y z
#    x 1.807390 0.000000 0.000000 
#    y 0.000000 1.821290 0.000000 
#    z 0.000000 0.000000 1.805260 
# 
# From -- ./inp_files/4506.got.cif
#   From: 2010.03.12/outbox.cif.g09.slc.cpg/sg62_3_cif.got.tgz:4506.got - 2010.04.10 19:12:36.
