data_PCOD8255707
_publ_section_title
;
Structure prediction by ZEFSAII (Michael W. Deem and Ramdas Pophale) SiO2 
 PCOD8255707
Probable space group: C M C M
;
_chemical_formula_sum "Si O2"
_cell_formula_units_Z 80
_cell_length_a 16.444933
_cell_length_b 28.159169
_cell_length_c 9.931350
_cell_angle_alpha 90.000000
_cell_angle_beta 90.000000
_cell_angle_gamma 90.000000
_cell_volume 4598.966332
_symmetry_space_group_name_H-M "C M C M"
_symmetry_group_IT_number 63
_symmetry_cell_setting 'orthorhombic'
loop_
_space_group_symop_operation_xyz
x,y,z
-x,-y,1/2+z
x,-y,-z
-x,y,1/2-z
-x,-y,-z
x,y,1/2-z
-x,y,z
x,-y,1/2+z
1/2+x,1/2+y,z
1/2-x,1/2-y,1/2+z
1/2+x,1/2-y,-z
1/2-x,1/2+y,1/2-z
1/2-x,1/2-y,-z
1/2+x,1/2+y,1/2-z
1/2-x,1/2+y,z
1/2+x,1/2-y,1/2+z
loop_
_atom_site_type_symbol
_atom_site_label
_atom_site_fract_x
_atom_site_fract_y
_atom_site_fract_z
Si Si1 0.747179 0.642224 0.093664
Si Si2 0.659152 0.211563 0.597746
Si Si3 0.500000 0.849214 0.107260
Si Si4 0.679230 0.958794 0.594750
Si Si5 0.409959 0.309568 0.593722
Si Si6 0.000000 0.431020 0.900472
O O1 0.770423 0.651064 0.250000
O O2 0.782397 0.591324 0.047108
O O3 0.648738 0.644398 0.072972
O O4 0.781431 0.684908 0.004243
O O5 0.696443 0.213932 0.750000
O O6 0.576282 0.183861 0.599636
O O7 0.638229 0.263549 0.536921
O O8 0.500000 0.877518 0.250000
O O9 0.500000 0.884631 0.986741
O O10 0.702205 0.969078 0.750000
O O11 0.581789 0.960717 0.573093
O O12 0.716592 0.000000 0.500000
O O13 0.423589 0.299353 0.750000
O O14 0.500000 0.317601 0.527296
O O15 0.000000 0.411306 0.750000
#
# Coordination Sequence:
#
# PCOD8255707 Si02
#       6
#    16  16   8  16  16   8
#     4  10  20  33  51  74  99 127 162 203 246 286
#     4  10  18  30  49  73 102 135 167 194 228 278
#     4  10  18  27  45  72 101 136 167 189 225 277
#     4  10  21  34  49  70  94 125 161 200 245 290
#     4   9  17  31  51  74 100 130 164 200 235 282
#     4  10  19  33  49  68 100 130 158 199 241 281
#
# _framework density 17.395212999999998
#
# number of rings (size 3 to 8) (size 9 to 14) (size 15 to 20)
#    0.000    2.200    3.000    0.900    0.000    1.600 
#    0.000    0.000    0.000    2.400    0.000    0.000 
#    0.000    0.000    0.000    0.000    0.000    0.000 
#
# Total GULP energy -495614.286362 kJ/mol
# GULP energy per Si atom -12390.357159 kJ/mol
# Density = 1.735562 g / cm^3
# Si number density = 17.395213 Si / 1000 Ang^3
#
#
#
# Elastic Constant Matrix: (Units=GPa)
#
#
# Indices 1 2 3 4 5 6 
#
# 1 94.6320 47.0949 32.2987 0.0000 0.0000 0.0000
# 2 47.0949 75.3213 40.0601 0.0000 0.0000 0.0000
# 3 32.2987 40.0601 53.1774 0.0000 0.0000 0.0000
# 4 0.0000 0.0000 0.0000 20.2587 0.0000 0.0000
# 5 0.0000 0.0000 0.0000 0.0000 17.0032 0.0000
# 6 0.0000 0.0000 0.0000 0.0000 0.0000 19.4076
#
#
#
# Elastic Compliance Matrix: (Units=1/GPa)
#
#
# Indices 1 2 3 4 5 6 
#
# 1 0.015739 -0.007936 -0.003581 0.000000 0.000000 0.000000
# 2 -0.007936 0.026154 -0.014882 0.000000 0.000000 0.000000
# 3 -0.003581 -0.014882 0.032191 0.000000 0.000000 0.000000
# 4 0.000000 0.000000 0.000000 0.049361 0.000000 0.000000
# 5 0.000000 0.000000 0.000000 0.000000 0.058812 0.000000
# 6 0.000000 0.000000 0.000000 0.000000 0.000000 0.051526
#
#
# Mechanical properties :
#
#
# Convention : Reuss Voigt Hill
#
# Bulk Modulus (GPa) = 46.98075 51.33757 49.15916
# Shear Modulus (GPa) = 17.02545 18.24570 17.63557
#
# Velocity S-wave (km/s) = 3.13188 3.24217 3.18750
# Velocity P-wave (km/s) = 6.33599 6.60243 6.47058
#
# Compressibility (1/GPa) = 0.02128532
#
# Stress axis : x y z
#
# Youngs Moduli (GPa) = 63.53616 38.23520 31.06457
#
# Poissons Ratio (x) = 0.30345 0.11123
# Poissons Ratio (y) = 0.50425 0.46231
# Poissons Ratio (z) = 0.22751 0.56902
#
# Static dielectric constant tensor:
#      x y z
#    x 3.374780 0.000000 0.000000 
#    y 0.000000 3.102090 0.000000 
#    z 0.000000 0.000000 3.187390 
# 
# 
# High freq. dielectric constant tensor:
#      x y z
#    x 1.666510 0.000000 0.000000 
#    y 0.000000 1.657180 0.000000 
#    z 0.000000 0.000000 1.656640 
# 
# From -- ./inp_files/6469.got.cif
#   From: 2010.03.12/outbox.cif.g09.slc.cpg/sg63_4_cif.got.tgz:6469.got - 2010.04.10 19:34:48.
