data_PCOD8255722
_publ_section_title
;
Structure prediction by ZEFSAII (Michael W. Deem and Ramdas Pophale) SiO2 
 PCOD8255722
Probable space group: C M C M
;
_chemical_formula_sum "Si O2"
_cell_formula_units_Z 112
_cell_length_a 8.779645
_cell_length_b 27.709285
_cell_length_c 29.598390
_cell_angle_alpha 90.000000
_cell_angle_beta 90.000000
_cell_angle_gamma 90.000000
_cell_volume 7200.627814
_symmetry_space_group_name_H-M "C M C M"
_symmetry_group_IT_number 63
_symmetry_cell_setting 'orthorhombic'
loop_
_space_group_symop_operation_xyz
x,y,z
-x,-y,1/2+z
x,-y,-z
-x,y,1/2-z
-x,-y,-z
x,y,1/2-z
-x,y,z
x,-y,1/2+z
1/2+x,1/2+y,z
1/2-x,1/2-y,1/2+z
1/2+x,1/2-y,-z
1/2-x,1/2+y,1/2-z
1/2-x,1/2-y,-z
1/2+x,1/2+y,1/2-z
1/2-x,1/2+y,z
1/2+x,1/2-y,1/2+z
loop_
_atom_site_type_symbol
_atom_site_label
_atom_site_fract_x
_atom_site_fract_y
_atom_site_fract_z
Si Si1 0.319479 0.520641 0.571107
Si Si2 0.823659 0.331428 0.250000
Si Si3 0.180273 0.178370 0.017704
Si Si4 0.680046 0.571447 0.481135
Si Si5 0.819406 0.727908 0.933532
Si Si6 0.821974 0.067064 0.750000
Si Si7 0.677090 0.175918 0.652902
Si Si8 0.819717 0.566368 0.657811
O O1 0.500000 0.523698 0.579030
O O2 0.265502 0.466757 0.556588
O O3 0.264297 0.556863 0.531395
O O4 0.233896 0.533072 0.616971
O O5 0.710979 0.376203 0.250000
O O6 0.792818 0.301947 0.203465
O O7 0.000000 0.350169 0.250000
O O8 0.238578 0.125060 0.031734
O O9 0.232504 0.217066 0.055780
O O10 0.000000 0.179051 0.011219
O O11 0.254144 0.191258 0.970096
O O12 0.500000 0.569291 0.482324
O O13 0.750843 0.711334 0.884885
O O14 0.000000 0.724696 0.935175
O O15 0.749050 0.044741 0.795630
O O16 0.000000 0.056317 0.750000
O O17 0.500000 0.173413 0.642373
O O18 0.741344 0.121262 0.649998
O O19 0.000000 0.565344 0.661794
#
# Coordination Sequence:
#
# PCOD8255722 Si02
#       8
#    16   8  16  16  16   8  16  16
#     4   9  16  27  42  58  77 105 141 171 200 241
#     4   8  14  26  40  54  77 104 127 155 192 229
#     4   9  16  26  39  55  77 104 132 162 197 233
#     4   8  15  27  41  57  79 107 137 171 206 238
#     4   9  16  25  38  57  78 101 131 161 193 236
#     4  10  18  28  42  60  81 106 135 161 192 237
#     4   8  14  24  38  55  76 102 126 152 190 233
#     4  10  18  28  41  59  84 108 131 162 200 237
#
# _framework density 15.554199000000001
#
# number of rings (size 3 to 8) (size 9 to 14) (size 15 to 20)
#    0.000    3.143    0.000    3.643    0.000    0.000 
#    0.000    5.000    0.000    0.000    0.000    1.000 
#    0.000    5.714    0.000    0.714    0.000    4.000 
#
# Total GULP energy -693798.454334 kJ/mol
# GULP energy per Si atom -12389.258113 kJ/mol
# Density = 1.551880 g / cm^3
# Si number density = 15.554199 Si / 1000 Ang^3
#
#
#
# Elastic Constant Matrix: (Units=GPa)
#
#
# Indices 1 2 3 4 5 6 
#
# 1 33.3403 16.6683 27.7324 0.0000 0.0000 0.0000
# 2 16.6683 102.7898 67.7492 0.0000 0.0000 0.0000
# 3 27.7324 67.7492 157.9284 0.0000 0.0000 0.0000
# 4 0.0000 0.0000 0.0000 24.4793 0.0000 0.0000
# 5 0.0000 0.0000 0.0000 0.0000 21.9040 0.0000
# 6 0.0000 0.0000 0.0000 0.0000 0.0000 11.6585
#
#
#
# Elastic Compliance Matrix: (Units=1/GPa)
#
#
# Indices 1 2 3 4 5 6 
#
# 1 0.035509 -0.002298 -0.005250 0.000000 0.000000 0.000000
# 2 -0.002298 0.013712 -0.005479 0.000000 0.000000 0.000000
# 3 -0.005250 -0.005479 0.009604 0.000000 0.000000 0.000000
# 4 0.000000 0.000000 0.000000 0.040851 0.000000 0.000000
# 5 0.000000 0.000000 0.000000 0.000000 0.045654 0.000000
# 6 0.000000 0.000000 0.000000 0.000000 0.000000 0.085774
#
#
# Mechanical properties :
#
#
# Convention : Reuss Voigt Hill
#
# Bulk Modulus (GPa) = 30.51323 57.59535 44.05429
# Shear Modulus (GPa) = 18.65101 23.73561 21.19331
#
# Velocity S-wave (km/s) = 3.46656 3.91064 3.69527
# Velocity P-wave (km/s) = 5.97349 7.58287 6.82578
#
# Compressibility (1/GPa) = 0.03277267
#
# Stress axis : x y z
#
# Youngs Moduli (GPa) = 28.16164 72.92662 104.12127
#
# Poissons Ratio (x) = 0.16759 0.54659
# Poissons Ratio (y) = 0.06472 0.57047
# Poissons Ratio (z) = 0.14784 0.39956
#
# Static dielectric constant tensor:
#      x y z
#    x 2.716630 0.000000 0.000000 
#    y 0.000000 3.187250 0.000000 
#    z 0.000000 0.000000 3.279360 
# 
# 
# High freq. dielectric constant tensor:
#      x y z
#    x 1.575340 0.000000 0.000000 
#    y 0.000000 1.566180 0.000000 
#    z 0.000000 0.000000 1.600180 
# 
# From -- ./inp_files/72268.got.cif
#   From: 2010.03.12/outbox.cif.g09.slc.cpg/sg63_37_cif.got.tgz:72268.got - 2010.04.10 19:34:48.
