data_PCOD8255439
_publ_section_title
;
Structure prediction by ZEFSAII (Michael W. Deem and Ramdas Pophale) SiO2 
 PCOD8255439
Probable space group: C M C M
;
_chemical_formula_sum "Si O2"
_cell_formula_units_Z 56
_cell_length_a 27.201595
_cell_length_b 8.313112
_cell_length_c 9.650136
_cell_angle_alpha 90.000000
_cell_angle_beta 90.000000
_cell_angle_gamma 90.000000
_cell_volume 2182.184345
_symmetry_space_group_name_H-M "C M C M"
_symmetry_group_IT_number 63
_symmetry_cell_setting 'orthorhombic'
loop_
_space_group_symop_operation_xyz
x,y,z
-x,-y,1/2+z
x,-y,-z
-x,y,1/2-z
-x,-y,-z
x,y,1/2-z
-x,y,z
x,-y,1/2+z
1/2+x,1/2+y,z
1/2-x,1/2-y,1/2+z
1/2+x,1/2-y,-z
1/2-x,1/2+y,1/2-z
1/2-x,1/2-y,-z
1/2+x,1/2+y,1/2-z
1/2-x,1/2+y,z
1/2+x,1/2-y,1/2+z
loop_
_atom_site_type_symbol
_atom_site_label
_atom_site_fract_x
_atom_site_fract_y
_atom_site_fract_z
Si Si1 0.313466 0.000000 0.500000
Si Si2 0.444401 0.897172 0.750000
Si Si3 0.115104 0.224480 0.984773
Si Si4 0.757730 0.641261 0.250000
Si Si5 0.056505 0.220176 0.250000
Si Si6 0.326333 0.436651 0.250000
O O1 0.345411 0.847178 0.451771
O O2 0.277719 0.951946 0.620000
O O3 0.500000 0.837740 0.750000
O O4 0.419860 0.830440 0.612284
O O5 0.440376 0.088474 0.750000
O O6 0.141252 0.088034 0.889138
O O7 0.083806 0.149162 0.112845
O O8 0.697583 0.616995 0.250000
O O9 0.777926 0.822011 0.250000
O O10 0.000000 0.160040 0.250000
#
# Coordination Sequence:
#
# PCOD8255439 Si02
#       6
#     8   8  16   8   8   8
#     4  10  18  32  53  70 110 142 185 222 274 316
#     4  10  17  26  42  67 103 144 183 212 258 337
#     4  10  18  30  46  70 103 150 181 215 275 329
#     4  10  21  36  54  78 102 146 194 227 274 320
#     4  11  18  26  46  75 109 146 184 215 260 343
#     4   9  22  38  55  74 108 154 186 226 274 326
#
# _framework density 25.662362000000002
#
# number of rings (size 3 to 8) (size 9 to 14) (size 15 to 20)
#    0.000    2.000    2.857    2.571    0.000    6.857 
#    0.000    1.429    0.000    0.000    0.000    0.000 
#    0.000    0.000    0.000  493.714    0.000    0.000 
#
# Total GULP energy -347102.385593 kJ/mol
# GULP energy per Si atom -12396.513771 kJ/mol
# Density = 2.560395 g / cm^3
# Si number density = 25.662362 Si / 1000 Ang^3
#
#
#
# Elastic Constant Matrix: (Units=GPa)
#
#
# Indices 1 2 3 4 5 6 
#
# 1 141.1470 45.9972 50.5878 0.0000 0.0000 0.0000
# 2 45.9972 45.0212 31.8692 0.0000 0.0000 0.0000
# 3 50.5878 31.8692 155.5801 0.0000 0.0000 0.0000
# 4 0.0000 0.0000 0.0000 24.8659 0.0000 0.0000
# 5 0.0000 0.0000 0.0000 0.0000 29.8227 0.0000
# 6 0.0000 0.0000 0.0000 0.0000 0.0000 32.1681
#
#
#
# Elastic Compliance Matrix: (Units=1/GPa)
#
#
# Indices 1 2 3 4 5 6 
#
# 1 0.010904 -0.010094 -0.001478 0.000000 0.000000 0.000000
# 2 -0.010094 0.035323 -0.003953 0.000000 0.000000 0.000000
# 3 -0.001478 -0.003953 0.007718 0.000000 0.000000 0.000000
# 4 0.000000 0.000000 0.000000 0.040216 0.000000 0.000000
# 5 0.000000 0.000000 0.000000 0.000000 0.033532 0.000000
# 6 0.000000 0.000000 0.000000 0.000000 0.000000 0.031087
#
#
# Mechanical properties :
#
#
# Convention : Reuss Voigt Hill
#
# Bulk Modulus (GPa) = 43.67912 66.51743 55.09828
# Shear Modulus (GPa) = 25.32135 31.59095 28.45615
#
# Velocity S-wave (km/s) = 3.14460 3.51240 3.33358
# Velocity P-wave (km/s) = 5.49931 6.51351 6.02777
#
# Compressibility (1/GPa) = 0.02289423
#
# Stress axis : x y z
#
# Youngs Moduli (GPa) = 91.70931 28.30977 129.56900
#
# Poissons Ratio (x) = 0.28577 0.19147
# Poissons Ratio (y) = 0.92575 0.51225
# Poissons Ratio (z) = 0.13552 0.11192
#
# Static dielectric constant tensor:
#      x y z
#    x 4.973620 0.000000 0.000000 
#    y 0.000000 4.441650 0.000000 
#    z 0.000000 0.000000 4.776910 
# 
# 
# High freq. dielectric constant tensor:
#      x y z
#    x 2.036190 0.000000 0.000000 
#    y 0.000000 2.017020 0.000000 
#    z 0.000000 0.000000 2.039650 
# 
# From -- ./inp_files/11493.got.cif
#   From: 2010.03.12/outbox.cif.g09.slc.cpg/sg63_6_cif.got.tgz:11493.got - 2010.04.10 19:34:48.
