data_PCOD8255264
_publ_section_title
;
Structure prediction by ZEFSAII (Michael W. Deem and Ramdas Pophale) SiO2 
 PCOD8255264
Probable space group: P N M A
;
_chemical_formula_sum "Si O2"
_cell_formula_units_Z 32
_cell_length_a 8.675951
_cell_length_b 11.295214
_cell_length_c 15.121539
_cell_angle_alpha 90.000000
_cell_angle_beta 90.000000
_cell_angle_gamma 90.000000
_cell_volume 1481.861272
_symmetry_space_group_name_H-M "P N M A"
_symmetry_group_IT_number 62
_symmetry_cell_setting 'orthorhombic'
loop_
_space_group_symop_operation_xyz
x,y,z
1/2-x,-y,1/2+z
1/2+x,1/2-y,1/2-z
-x,1/2+y,-z
-x,-y,-z
1/2+x,y,1/2-z
1/2-x,1/2+y,1/2+z
x,1/2-y,z
loop_
_atom_site_type_symbol
_atom_site_label
_atom_site_fract_x
_atom_site_fract_y
_atom_site_fract_z
Si Si1 0.829996 0.493102 0.155363
Si Si2 0.663988 0.110035 0.327996
Si Si3 0.674160 0.477119 0.975866
Si Si4 0.778721 0.250000 0.682258
Si Si5 0.637989 0.250000 0.864445
O O1 0.746074 0.436046 0.239485
O O2 0.803708 0.633563 0.144253
O O3 0.008294 0.464146 0.164439
O O4 0.768589 0.441999 0.063228
O O5 0.632863 0.250000 0.319540
O O6 0.762188 0.087046 0.417417
O O7 0.684850 0.364394 0.915935
O O8 0.500000 0.500000 0.000000
O O9 0.758217 0.250000 0.785806
O O10 0.959442 0.250000 0.661745
#
# Coordination Sequence:
#
# PCOD8255264 Si02
#       5
#     8   8   8   4   4
#     4  12  26  49  73 106 147 193 242 301 366 432
#     4  12  28  49  72 107 148 195 237 300 364 436
#     4  12  27  47  72 108 145 193 244 296 369 433
#     4  12  24  48  76 105 145 186 246 306 358 430
#     4  12  26  46  76 107 145 192 244 306 366 438
#
# _framework density 21.594465
#
# number of rings (size 3 to 8) (size 9 to 14) (size 15 to 20)
#    0.000    0.000    5.000    4.500    7.000    0.000 
#    0.000    0.000    0.000    0.000    0.000    0.000 
#    0.000    0.000    0.000    0.000    0.000    0.000 
#
# Total GULP energy -396836.312660 kJ/mol
# GULP energy per Si atom -12401.134771 kJ/mol
# Density = 2.154531 g / cm^3
# Si number density = 21.594465 Si / 1000 Ang^3
#
#
#
# Elastic Constant Matrix: (Units=GPa)
#
#
# Indices 1 2 3 4 5 6 
#
# 1 131.4520 37.3598 72.6004 0.0000 0.0000 0.0000
# 2 37.3598 95.8315 22.0656 0.0000 0.0000 0.0000
# 3 72.6004 22.0656 151.8588 0.0000 0.0000 0.0000
# 4 0.0000 0.0000 0.0000 51.2029 0.0000 0.0000
# 5 0.0000 0.0000 0.0000 0.0000 51.2750 0.0000
# 6 0.0000 0.0000 0.0000 0.0000 0.0000 26.7790
#
#
#
# Elastic Compliance Matrix: (Units=1/GPa)
#
#
# Indices 1 2 3 4 5 6 
#
# 1 0.011238 -0.003253 -0.004900 0.000000 0.000000 0.000000
# 2 -0.003253 0.011738 -0.000150 0.000000 0.000000 0.000000
# 3 -0.004900 -0.000150 0.008950 0.000000 0.000000 0.000000
# 4 0.000000 0.000000 0.000000 0.019530 0.000000 0.000000
# 5 0.000000 0.000000 0.000000 0.000000 0.019503 0.000000
# 6 0.000000 0.000000 0.000000 0.000000 0.000000 0.037343
#
#
# Mechanical properties :
#
#
# Convention : Reuss Voigt Hill
#
# Bulk Modulus (GPa) = 65.27964 71.46596 68.37280
# Shear Modulus (GPa) = 38.45746 42.32583 40.39164
#
# Velocity S-wave (km/s) = 4.22464 4.43203 4.32958
# Velocity P-wave (km/s) = 7.35474 7.70434 7.53157
#
# Compressibility (1/GPa) = 0.01531871
#
# Stress axis : x y z
#
# Youngs Moduli (GPa) = 88.98288 85.19522 111.73781
#
# Poissons Ratio (x) = 0.27713 0.54752
# Poissons Ratio (y) = 0.28945 0.01680
# Poissons Ratio (z) = 0.43602 0.01281
#
# Static dielectric constant tensor:
#      x y z
#    x 4.075140 0.000000 0.000000 
#    y 0.000000 4.353030 0.000000 
#    z 0.000000 0.000000 4.107820 
# 
# 
# High freq. dielectric constant tensor:
#      x y z
#    x 1.861050 0.000000 0.000000 
#    y 0.000000 1.861430 0.000000 
#    z 0.000000 0.000000 1.872560 
# 
# From -- ./inp_files/16461.got.cif
#   From: 2010.03.12/outbox.cif.g09.slc.cpg/sg62_9_cif.got.tgz:16461.got - 2010.04.10 19:12:36.
