data_PCOD8255022
_publ_section_title
;
Structure prediction by ZEFSAII (Michael W. Deem and Ramdas Pophale) SiO2 
 PCOD8255022
Probable space group: P N M A
;
_chemical_formula_sum "Si O2"
_cell_formula_units_Z 48
_cell_length_a 9.591977
_cell_length_b 8.698816
_cell_length_c 29.311947
_cell_angle_alpha 90.000000
_cell_angle_beta 90.000000
_cell_angle_gamma 90.000000
_cell_volume 2445.754944
_symmetry_space_group_name_H-M "P N M A"
_symmetry_group_IT_number 62
_symmetry_cell_setting 'orthorhombic'
loop_
_space_group_symop_operation_xyz
x,y,z
1/2-x,-y,1/2+z
1/2+x,1/2-y,1/2-z
-x,1/2+y,-z
-x,-y,-z
1/2+x,y,1/2-z
1/2-x,1/2+y,1/2+z
x,1/2-y,z
loop_
_atom_site_type_symbol
_atom_site_label
_atom_site_fract_x
_atom_site_fract_y
_atom_site_fract_z
Si Si1 0.796512 0.932966 0.119255
Si Si2 0.859364 0.567685 0.017618
Si Si3 0.520343 0.432851 0.702217
Si Si4 0.795483 0.566627 0.286532
Si Si5 0.013085 0.067657 0.632174
Si Si6 0.611415 0.432271 0.966376
O O1 0.793763 0.750000 0.118078
O O2 0.825434 0.996012 0.068352
O O3 0.645782 0.994193 0.136569
O O4 0.918032 0.990285 0.153615
O O5 0.860154 0.750000 0.018042
O O6 0.756259 0.505285 0.979650
O O7 0.000000 0.500000 0.000000
O O8 0.514005 0.250000 0.703661
O O9 0.627838 0.492140 0.740806
O O10 0.363416 0.498101 0.710133
O O11 0.790298 0.750000 0.287709
O O12 0.887946 0.500743 0.328228
O O13 0.010779 0.250000 0.635590
O O14 0.076622 0.013163 0.584458
O O15 0.614660 0.250000 0.970325
O O16 0.500000 0.500000 0.000000
#
# Coordination Sequence:
#
# PCOD8255022 Si02
#       6
#     8   8   8   8   8   8
#     4   9  17  30  46  67  99 136 173 217 270 321
#     4  11  23  38  55  79 111 148 187 230 277 326
#     4   9  16  25  40  63  95 133 171 213 265 324
#     4   9  16  25  40  64  95 132 171 212 265 325
#     4   9  17  29  46  69  99 135 173 216 269 322
#     4  11  21  36  57  81 111 148 187 228 272 325
#
# _framework density 19.625841000000001
#
# number of rings (size 3 to 8) (size 9 to 14) (size 15 to 20)
#    0.000    2.333    1.667    2.000    2.333    4.000 
#    0.000    0.000    0.000    0.000    0.000    0.000 
#    0.000    8.000    0.000    0.000    0.000    0.000 
#
# Total GULP energy -594980.434038 kJ/mol
# GULP energy per Si atom -12395.425709 kJ/mol
# Density = 1.958117 g / cm^3
# Si number density = 19.625841 Si / 1000 Ang^3
#
#
#
# Elastic Constant Matrix: (Units=GPa)
#
#
# Indices 1 2 3 4 5 6 
#
# 1 184.3207 8.5247 70.0298 0.0000 0.0000 0.0000
# 2 8.5247 21.5344 10.9148 0.0000 0.0000 0.0000
# 3 70.0298 10.9148 129.8616 0.0000 0.0000 0.0000
# 4 0.0000 0.0000 0.0000 17.5089 0.0000 0.0000
# 5 0.0000 0.0000 0.0000 0.0000 44.1682 0.0000
# 6 0.0000 0.0000 0.0000 0.0000 0.0000 20.9315
#
#
#
# Elastic Compliance Matrix: (Units=1/GPa)
#
#
# Indices 1 2 3 4 5 6 
#
# 1 0.006839 -0.000875 -0.003615 0.000000 0.000000 0.000000
# 2 -0.000875 0.048616 -0.003614 0.000000 0.000000 0.000000
# 3 -0.003615 -0.003614 0.009953 0.000000 0.000000 0.000000
# 4 0.000000 0.000000 0.000000 0.057114 0.000000 0.000000
# 5 0.000000 0.000000 0.000000 0.000000 0.022641 0.000000
# 6 0.000000 0.000000 0.000000 0.000000 0.000000 0.047775
#
#
# Mechanical properties :
#
#
# Convention : Reuss Voigt Hill
#
# Bulk Modulus (GPa) = 20.32510 57.18392 38.75451
# Shear Modulus (GPa) = 22.16847 32.93821 27.55334
#
# Velocity S-wave (km/s) = 3.36453 4.10116 3.75097
# Velocity P-wave (km/s) = 5.04700 7.18515 6.20881
#
# Compressibility (1/GPa) = 0.04920025
#
# Stress axis : x y z
#
# Youngs Moduli (GPa) = 146.21834 20.56954 100.46767
#
# Poissons Ratio (x) = 0.01800 0.36314
# Poissons Ratio (y) = 0.12799 0.36310
# Poissons Ratio (z) = 0.52851 0.07434
#
# Static dielectric constant tensor:
#      x y z
#    x 3.713450 0.000000 0.000000 
#    y 0.000000 2.923770 0.000000 
#    z 0.000000 0.000000 3.801300 
# 
# 
# High freq. dielectric constant tensor:
#      x y z
#    x 1.785930 0.000000 0.000000 
#    y 0.000000 1.689920 0.000000 
#    z 0.000000 0.000000 1.780760 
# 
# From -- ./inp_files/31974.got.cif
#   From: 2010.03.12/outbox.cif.g09.slc.cpg/sg62_16_cif.got.tgz:31974.got - 2010.04.10 19:12:36.
