data_PCOD8255884
_publ_section_title
;
Structure prediction by ZEFSAII (Michael W. Deem and Ramdas Pophale) SiO2 
 PCOD8255884
Probable space group: C M C M
;
_chemical_formula_sum "Si O2"
_cell_formula_units_Z 80
_cell_length_a 23.536935
_cell_length_b 24.212324
_cell_length_c 8.722919
_cell_angle_alpha 90.000000
_cell_angle_beta 90.000000
_cell_angle_gamma 90.000000
_cell_volume 4971.051066
_symmetry_space_group_name_H-M "C M C M"
_symmetry_group_IT_number 63
_symmetry_cell_setting 'orthorhombic'
loop_
_space_group_symop_operation_xyz
x,y,z
-x,-y,1/2+z
x,-y,-z
-x,y,1/2-z
-x,-y,-z
x,y,1/2-z
-x,y,z
x,-y,1/2+z
1/2+x,1/2+y,z
1/2-x,1/2-y,1/2+z
1/2+x,1/2-y,-z
1/2-x,1/2+y,1/2-z
1/2-x,1/2-y,-z
1/2+x,1/2+y,1/2-z
1/2-x,1/2+y,z
1/2+x,1/2-y,1/2+z
loop_
_atom_site_type_symbol
_atom_site_label
_atom_site_fract_x
_atom_site_fract_y
_atom_site_fract_z
Si Si1 0.936109 0.657811 0.573755
Si Si2 0.329533 0.226192 0.926890
Si Si3 0.744468 0.943257 0.430213
Si Si4 0.227757 0.835913 0.573076
Si Si5 0.621339 0.056624 0.069566
O O1 0.929594 0.639141 0.750000
O O2 0.894431 0.709271 0.538067
O O3 0.921865 0.605697 0.467776
O O4 0.000000 0.677682 0.537258
O O5 0.312853 0.214846 0.750000
O O6 0.321437 0.291167 0.964759
O O7 0.288857 0.189676 0.032291
O O8 0.741509 0.949623 0.250000
O O9 0.784360 0.891620 0.476774
O O10 0.682037 0.930416 0.494641
O O11 0.769234 0.000000 0.500000
O O12 0.228276 0.852488 0.750000
O O13 0.629054 0.050098 0.250000
O O14 0.596201 0.000000 0.000000
#
# Coordination Sequence:
#
# PCOD8255884 Si02
#       5
#    16  16  16  16  16
#     4  10  20  34  50  67  90 121 157 197 233 268
#     4   9  18  31  47  67  92 121 154 189 228 273
#     4  11  20  31  47  68  94 122 152 188 231 276
#     4  10  18  29  47  70  93 120 151 187 228 275
#     4  11  21  33  48  65  87 119 157 198 237 273
#
# _framework density 16.093176
#
# number of rings (size 3 to 8) (size 9 to 14) (size 15 to 20)
#    0.000    1.800    2.000    5.400    0.000    1.600 
#    0.000    0.000    0.000    0.000    0.000    0.000 
#    0.000    0.800    0.000    1.400    0.000    2.000 
#
# Total GULP energy -496012.453515 kJ/mol
# GULP energy per Si atom -12400.311338 kJ/mol
# Density = 1.605655 g / cm^3
# Si number density = 16.093176 Si / 1000 Ang^3
#
#
#
# Elastic Constant Matrix: (Units=GPa)
#
#
# Indices 1 2 3 4 5 6 
#
# 1 68.5849 56.0922 27.8284 0.0000 0.0000 0.0000
# 2 56.0922 129.0280 51.1676 0.0000 0.0000 0.0000
# 3 27.8284 51.1676 107.2018 0.0000 0.0000 0.0000
# 4 0.0000 0.0000 0.0000 26.9300 0.0000 0.0000
# 5 0.0000 0.0000 0.0000 0.0000 13.6546 0.0000
# 6 0.0000 0.0000 0.0000 0.0000 0.0000 22.5389
#
#
#
# Elastic Compliance Matrix: (Units=1/GPa)
#
#
# Indices 1 2 3 4 5 6 
#
# 1 0.022810 -0.009335 -0.001466 0.000000 0.000000 0.000000
# 2 -0.009335 0.013380 -0.003963 0.000000 0.000000 0.000000
# 3 -0.001466 -0.003963 0.011600 0.000000 0.000000 0.000000
# 4 0.000000 0.000000 0.000000 0.037133 0.000000 0.000000
# 5 0.000000 0.000000 0.000000 0.000000 0.073235 0.000000
# 6 0.000000 0.000000 0.000000 0.000000 0.000000 0.044368
#
#
# Mechanical properties :
#
#
# Convention : Reuss Voigt Hill
#
# Bulk Modulus (GPa) = 54.75590 63.88788 59.32189
# Shear Modulus (GPa) = 20.99601 23.93982 22.46792
#
# Velocity S-wave (km/s) = 3.61592 3.86109 3.74051
# Velocity P-wave (km/s) = 7.17853 7.72414 7.45633
#
# Compressibility (1/GPa) = 0.01826287
#
# Stress axis : x y z
#
# Youngs Moduli (GPa) = 43.84115 74.73868 86.20520
#
# Poissons Ratio (x) = 0.69767 0.12634
# Poissons Ratio (y) = 0.40925 0.34164
# Poissons Ratio (z) = 0.06425 0.29619
#
# Static dielectric constant tensor:
#      x y z
#    x 2.780730 0.000000 0.000000 
#    y 0.000000 3.278030 0.000000 
#    z 0.000000 0.000000 3.135510 
# 
# 
# High freq. dielectric constant tensor:
#      x y z
#    x 1.565300 0.000000 0.000000 
#    y 0.000000 1.623730 0.000000 
#    z 0.000000 0.000000 1.631890 
# 
# From -- ./inp_files/6443.got.cif
#   From: 2010.03.12/outbox.cif.g09.slc.cpg/sg63_4_cif.got.tgz:6443.got - 2010.04.10 19:34:48.
