data_PCOD8255943
_publ_section_title
;
Structure prediction by ZEFSAII (Michael W. Deem and Ramdas Pophale) SiO2 
 PCOD8255943
Probable space group: C M C M
;
_chemical_formula_sum "Si O2"
_cell_formula_units_Z 128
_cell_length_a 18.521905
_cell_length_b 21.652386
_cell_length_c 18.785435
_cell_angle_alpha 90.000000
_cell_angle_beta 90.000000
_cell_angle_gamma 90.000000
_cell_volume 7533.775409
_symmetry_space_group_name_H-M "C M C M"
_symmetry_group_IT_number 63
_symmetry_cell_setting 'orthorhombic'
loop_
_space_group_symop_operation_xyz
x,y,z
-x,-y,1/2+z
x,-y,-z
-x,y,1/2-z
-x,-y,-z
x,y,1/2-z
-x,y,z
x,-y,1/2+z
1/2+x,1/2+y,z
1/2-x,1/2-y,1/2+z
1/2+x,1/2-y,-z
1/2-x,1/2+y,1/2-z
1/2-x,1/2-y,-z
1/2+x,1/2+y,1/2-z
1/2-x,1/2+y,z
1/2+x,1/2-y,1/2+z
loop_
_atom_site_type_symbol
_atom_site_label
_atom_site_fract_x
_atom_site_fract_y
_atom_site_fract_z
Si Si1 0.159306 0.070513 0.832715
Si Si2 0.579512 0.518395 0.073962
Si Si3 0.290087 0.650187 0.332186
Si Si4 0.916380 0.180094 0.911362
Si Si5 0.634560 0.799020 0.668527
Si Si6 0.774345 0.477052 0.666467
Si Si7 0.078156 0.567901 0.165881
Si Si8 0.420454 0.336929 0.924864
O O1 0.147469 0.085422 0.750000
O O2 0.138564 0.130373 0.877685
O O3 0.112321 0.011833 0.855532
O O4 0.240937 0.045115 0.848392
O O5 0.500000 0.488998 0.067924
O O6 0.576382 0.590366 0.083894
O O7 0.620940 0.500000 0.000000
O O8 0.312839 0.646450 0.250000
O O9 0.220154 0.693195 0.342582
O O10 0.273306 0.580899 0.363645
O O11 0.355536 0.684652 0.373633
O O12 0.897023 0.246452 0.881353
O O13 0.000000 0.162945 0.894582
O O14 0.902031 0.182475 0.995078
O O15 0.617740 0.781294 0.750000
O O16 0.593725 0.861255 0.646344
O O17 0.779023 0.463024 0.750000
O O18 0.856308 0.474548 0.635137
O O19 0.074756 0.560294 0.250000
O O20 0.000000 0.548619 0.132989
O O21 0.500000 0.310028 0.903237
#
# Coordination Sequence:
#
# PCOD8255943 Si02
#       8
#    16  16  16  16  16  16  16  16
#     4  11  20  29  44  65  92 126 158 190 229 274
#     4  10  18  30  43  58  87 126 161 192 225 265
#     4   9  17  32  50  68  90 117 155 201 239 272
#     4  11  22  33  44  66 100 132 159 187 223 280
#     4   9  18  31  48  68  93 123 154 192 235 278
#     4   8  15  26  40  63  90 113 145 190 232 269
#     4   8  13  24  44  66  87 113 143 182 235 282
#     4  10  20  31  46  67  93 124 158 196 235 274
#
# _framework density 16.990154
#
# number of rings (size 3 to 8) (size 9 to 14) (size 15 to 20)
#    0.000    2.500    2.500    2.625    0.000    3.000 
#    0.000    1.250    0.000    0.000    0.000    0.875 
#    0.000   17.500    0.000    0.000    0.000    0.000 
#
# Total GULP energy -792919.288129 kJ/mol
# GULP energy per Si atom -12389.363877 kJ/mol
# Density = 1.695148 g / cm^3
# Si number density = 16.990154 Si / 1000 Ang^3
#
#
#
# Elastic Constant Matrix: (Units=GPa)
#
#
# Indices 1 2 3 4 5 6 
#
# 1 126.5506 26.4000 44.5106 0.0000 0.0000 0.0000
# 2 26.4000 38.1028 14.8025 0.0000 0.0000 0.0000
# 3 44.5106 14.8025 51.5823 0.0000 0.0000 0.0000
# 4 0.0000 0.0000 0.0000 15.5727 0.0000 0.0000
# 5 0.0000 0.0000 0.0000 0.0000 13.9729 0.0000
# 6 0.0000 0.0000 0.0000 0.0000 0.0000 60.7273
#
#
#
# Elastic Compliance Matrix: (Units=1/GPa)
#
#
# Indices 1 2 3 4 5 6 
#
# 1 0.012098 -0.004870 -0.009042 0.000000 0.000000 0.000000
# 2 -0.004870 0.031498 -0.004837 0.000000 0.000000 0.000000
# 3 -0.009042 -0.004837 0.028577 0.000000 0.000000 0.000000
# 4 0.000000 0.000000 0.000000 0.064215 0.000000 0.000000
# 5 0.000000 0.000000 0.000000 0.000000 0.071567 0.000000
# 6 0.000000 0.000000 0.000000 0.000000 0.000000 0.016467
#
#
# Mechanical properties :
#
#
# Convention : Reuss Voigt Hill
#
# Bulk Modulus (GPa) = 28.83858 43.07355 35.95607
# Shear Modulus (GPa) = 18.28298 26.75607 22.51953
#
# Velocity S-wave (km/s) = 3.28394 3.97268 3.64462
# Velocity P-wave (km/s) = 5.60264 6.81542 6.23857
#
# Compressibility (1/GPa) = 0.03467577
#
# Stress axis : x y z
#
# Youngs Moduli (GPa) = 82.65727 31.74817 34.99314
#
# Poissons Ratio (x) = 0.15460 0.31641
# Poissons Ratio (y) = 0.40251 0.16926
# Poissons Ratio (z) = 0.74740 0.15356
#
# Static dielectric constant tensor:
#      x y z
#    x 3.682310 0.000000 0.000000 
#    y 0.000000 2.903140 0.000000 
#    z 0.000000 0.000000 3.017200 
# 
# 
# High freq. dielectric constant tensor:
#      x y z
#    x 1.663430 0.000000 0.000000 
#    y 0.000000 1.622390 0.000000 
#    z 0.000000 0.000000 1.629280 
# 
# From -- ./inp_files/46339.got.cif
#   From: 2010.03.12/outbox.cif.g09.slc.cpg/sg63_24_cif.got.tgz:46339.got - 2010.04.10 19:34:48.
