data_PCOD8255651
_publ_section_title
;
Structure prediction by ZEFSAII (Michael W. Deem and Ramdas Pophale) SiO2 
 PCOD8255651
Probable space group: C M C M
;
_chemical_formula_sum "Si O2"
_cell_formula_units_Z 80
_cell_length_a 15.013952
_cell_length_b 16.571074
_cell_length_c 16.872360
_cell_angle_alpha 90.000000
_cell_angle_beta 90.000000
_cell_angle_gamma 90.000000
_cell_volume 4197.797775
_symmetry_space_group_name_H-M "C M C M"
_symmetry_group_IT_number 63
_symmetry_cell_setting 'orthorhombic'
loop_
_space_group_symop_operation_xyz
x,y,z
-x,-y,1/2+z
x,-y,-z
-x,y,1/2-z
-x,-y,-z
x,y,1/2-z
-x,y,z
x,-y,1/2+z
1/2+x,1/2+y,z
1/2-x,1/2-y,1/2+z
1/2+x,1/2-y,-z
1/2-x,1/2+y,1/2-z
1/2-x,1/2-y,-z
1/2+x,1/2+y,1/2-z
1/2-x,1/2+y,z
1/2+x,1/2-y,1/2+z
loop_
_atom_site_type_symbol
_atom_site_label
_atom_site_fract_x
_atom_site_fract_y
_atom_site_fract_z
Si Si1 0.181822 0.845394 0.919195
Si Si2 0.000000 0.097252 0.002414
Si Si3 0.804914 0.582627 0.542241
Si Si4 0.813607 0.997817 0.335483
Si Si5 0.897441 0.306622 0.157514
Si Si6 0.000000 0.072760 0.665931
O O1 0.208454 0.909279 0.852011
O O2 0.171709 0.760041 0.875335
O O3 0.088122 0.868627 0.957936
O O4 0.264656 0.849803 0.981828
O O5 0.000000 0.130339 0.910962
O O6 0.000000 0.000000 0.000000
O O7 0.839597 0.500000 0.500000
O O8 0.722091 0.561221 0.597654
O O9 0.883017 0.616827 0.598966
O O10 0.772144 0.974920 0.250000
O O11 0.918924 0.989146 0.335859
O O12 0.876022 0.326420 0.250000
O O13 0.000000 0.278678 0.149605
O O14 0.000000 0.122716 0.750000
#
# Coordination Sequence:
#
# PCOD8255651 Si02
#       6
#    16   8  16  16  16   8
#     4  11  19  33  54  80 111 142 178 219 272 325
#     4  12  16  30  48  78 115 144 174 213 260 324
#     4  10  21  37  58  77 103 142 187 229 264 315
#     4  10  18  29  49  78 110 142 176 217 264 321
#     4  11  24  39  55  80 112 143 176 225 279 325
#     4  10  18  26  44  76 110 144 174 207 257 312
#
# _framework density 19.057611000000001
#
# number of rings (size 3 to 8) (size 9 to 14) (size 15 to 20)
#    0.000    1.400    5.000    2.400    0.000    0.400 
#    0.000    0.000    0.000    0.000    0.000    0.000 
#    0.000    0.000    0.000    0.000    0.000    0.000 
#
# Total GULP energy -495585.541486 kJ/mol
# GULP energy per Si atom -12389.638537 kJ/mol
# Density = 1.901424 g / cm^3
# Si number density = 19.057611 Si / 1000 Ang^3
#
#
#
# Elastic Constant Matrix: (Units=GPa)
#
#
# Indices 1 2 3 4 5 6 
#
# 1 37.5069 14.4161 20.8468 0.0000 0.0000 0.0000
# 2 14.4161 66.4814 37.8134 0.0000 0.0000 0.0000
# 3 20.8468 37.8134 129.3403 0.0000 0.0000 0.0000
# 4 0.0000 0.0000 0.0000 21.9140 0.0000 0.0000
# 5 0.0000 0.0000 0.0000 0.0000 27.8712 0.0000
# 6 0.0000 0.0000 0.0000 0.0000 0.0000 21.3892
#
#
#
# Elastic Compliance Matrix: (Units=1/GPa)
#
#
# Indices 1 2 3 4 5 6 
#
# 1 0.030397 -0.004564 -0.003565 0.000000 0.000000 0.000000
# 2 -0.004564 0.018727 -0.004739 0.000000 0.000000 0.000000
# 3 -0.003565 -0.004739 0.009692 0.000000 0.000000 0.000000
# 4 0.000000 0.000000 0.000000 0.045633 0.000000 0.000000
# 5 0.000000 0.000000 0.000000 0.000000 0.035879 0.000000
# 6 0.000000 0.000000 0.000000 0.000000 0.000000 0.046752
#
#
# Mechanical properties :
#
#
# Convention : Reuss Voigt Hill
#
# Bulk Modulus (GPa) = 30.23000 42.16458 36.19729
# Shear Modulus (GPa) = 22.33698 24.91838 23.62768
#
# Velocity S-wave (km/s) = 3.42727 3.61990 3.52490
# Velocity P-wave (km/s) = 5.61769 6.29638 5.96669
#
# Compressibility (1/GPa) = 0.03307972
#
# Stress axis : x y z
#
# Youngs Moduli (GPa) = 32.89757 53.39860 103.18033
#
# Poissons Ratio (x) = 0.24369 0.36786
# Poissons Ratio (y) = 0.15013 0.48901
# Poissons Ratio (z) = 0.11729 0.25308
#
# Static dielectric constant tensor:
#      x y z
#    x 3.191790 0.000000 0.000000 
#    y 0.000000 3.251620 0.000000 
#    z 0.000000 0.000000 4.195060 
# 
# 
# High freq. dielectric constant tensor:
#      x y z
#    x 1.712740 0.000000 0.000000 
#    y 0.000000 1.707620 0.000000 
#    z 0.000000 0.000000 1.769830 
# 
# From -- ./inp_files/44001.got.cif
#   From: 2010.03.12/outbox.cif.g09.slc.cpg/sg63_23_cif.got.tgz:44001.got - 2010.04.10 19:34:48.
