data_PCOD8255822
_publ_section_title
;
Structure prediction by ZEFSAII (Michael W. Deem and Ramdas Pophale) SiO2 
 PCOD8255822
Probable space group: C M C M
;
_chemical_formula_sum "Si O2"
_cell_formula_units_Z 128
_cell_length_a 12.792613
_cell_length_b 24.638931
_cell_length_c 23.462987
_cell_angle_alpha 90.000000
_cell_angle_beta 90.000000
_cell_angle_gamma 90.000000
_cell_volume 7395.446901
_symmetry_space_group_name_H-M "C M C M"
_symmetry_group_IT_number 63
_symmetry_cell_setting 'orthorhombic'
loop_
_space_group_symop_operation_xyz
x,y,z
-x,-y,1/2+z
x,-y,-z
-x,y,1/2-z
-x,-y,-z
x,y,1/2-z
-x,y,z
x,-y,1/2+z
1/2+x,1/2+y,z
1/2-x,1/2-y,1/2+z
1/2+x,1/2-y,-z
1/2-x,1/2+y,1/2-z
1/2-x,1/2-y,-z
1/2+x,1/2+y,1/2-z
1/2-x,1/2+y,z
1/2+x,1/2-y,1/2+z
loop_
_atom_site_type_symbol
_atom_site_label
_atom_site_fract_x
_atom_site_fract_y
_atom_site_fract_z
Si Si1 0.618587 0.440927 0.454700
Si Si2 0.120361 0.909313 0.686881
Si Si3 0.287734 0.552318 0.069465
Si Si4 0.383117 0.292916 0.647083
Si Si5 0.761829 0.847875 0.088284
Si Si6 0.214480 0.268671 0.560988
Si Si7 0.119041 0.674615 0.686304
Si Si8 0.879421 0.371074 0.521723
O O1 0.500000 0.460714 0.443821
O O2 0.631852 0.424040 0.521564
O O3 0.703947 0.487107 0.438250
O O4 0.642088 0.389457 0.414910
O O5 0.158245 0.929594 0.750000
O O6 0.185060 0.934863 0.634925
O O7 0.134638 0.844432 0.687504
O O8 0.000000 0.925716 0.677927
O O9 0.173722 0.578039 0.055151
O O10 0.500000 0.291920 0.622480
O O11 0.311163 0.297933 0.591729
O O12 0.359472 0.239039 0.683108
O O13 0.814664 0.787862 0.092101
O O14 0.695740 0.858550 0.145290
O O15 0.681753 0.858045 0.036389
O O16 0.250000 0.250000 0.500000
O O17 0.124513 0.314780 0.558608
O O18 0.141903 0.654694 0.750000
O O19 0.000000 0.661880 0.668587
O O20 0.000000 0.386096 0.510236
#
# Coordination Sequence:
#
# PCOD8255822 Si02
#       8
#    16  16  16  16  16  16  16  16
#     4  10  20  35  55  75 100 132 167 207 252 307
#     4  10  18  28  48  77 103 127 160 206 259 307
#     4  10  19  35  52  74 100 130 166 207 254 303
#     4   9  16  27  44  70 102 130 163 206 253 301
#     4   9  19  32  48  73 102 130 170 207 248 293
#     4   9  17  29  43  70 102 134 164 198 247 299
#     4   9  16  28  47  70 100 137 171 204 245 292
#     4  10  19  32  50  73 102 131 164 206 252 300
#
# _framework density 17.307946999999999
#
# number of rings (size 3 to 8) (size 9 to 14) (size 15 to 20)
#    0.000    2.500    1.250    2.250    0.000    5.000 
#    0.000    6.250    0.000    1.500    0.000    0.000 
#    0.000    0.000    0.000    0.000    0.000    0.000 
#
# Total GULP energy -792844.464057 kJ/mol
# GULP energy per Si atom -12388.194751 kJ/mol
# Density = 1.726855 g / cm^3
# Si number density = 17.307947 Si / 1000 Ang^3
#
#
#
# Elastic Constant Matrix: (Units=GPa)
#
#
# Indices 1 2 3 4 5 6 
#
# 1 66.7697 33.1465 24.3990 0.0000 0.0000 0.0000
# 2 33.1465 72.2638 19.9967 0.0000 0.0000 0.0000
# 3 24.3990 19.9967 94.6373 0.0000 0.0000 0.0000
# 4 0.0000 0.0000 0.0000 18.9710 0.0000 0.0000
# 5 0.0000 0.0000 0.0000 0.0000 23.5317 0.0000
# 6 0.0000 0.0000 0.0000 0.0000 0.0000 19.2446
#
#
#
# Elastic Compliance Matrix: (Units=1/GPa)
#
#
# Indices 1 2 3 4 5 6 
#
# 1 0.020423 -0.008402 -0.003490 0.000000 0.000000 0.000000
# 2 -0.008402 0.018154 -0.001670 0.000000 0.000000 0.000000
# 3 -0.003490 -0.001670 0.011819 0.000000 0.000000 0.000000
# 4 0.000000 0.000000 0.000000 0.052712 0.000000 0.000000
# 5 0.000000 0.000000 0.000000 0.000000 0.042496 0.000000
# 6 0.000000 0.000000 0.000000 0.000000 0.000000 0.051962
#
#
# Mechanical properties :
#
#
# Convention : Reuss Voigt Hill
#
# Bulk Modulus (GPa) = 42.96859 43.19500 43.08180
# Shear Modulus (GPa) = 21.51013 22.75805 22.13409
#
# Velocity S-wave (km/s) = 3.52915 3.63008 3.57997
# Velocity P-wave (km/s) = 6.44099 6.52540 6.48333
#
# Compressibility (1/GPa) = 0.02327281
#
# Stress axis : x y z
#
# Youngs Moduli (GPa) = 48.96376 55.08368 84.60761
#
# Poissons Ratio (x) = 0.46282 0.29529
# Poissons Ratio (y) = 0.41140 0.14127
# Poissons Ratio (z) = 0.17089 0.09198
#
# Static dielectric constant tensor:
#      x y z
#    x 2.969890 0.000000 0.000000 
#    y 0.000000 3.355400 0.000000 
#    z 0.000000 0.000000 3.140810 
# 
# 
# High freq. dielectric constant tensor:
#      x y z
#    x 1.635240 0.000000 0.000000 
#    y 0.000000 1.663320 0.000000 
#    z 0.000000 0.000000 1.657560 
# 
# From -- ./inp_files/62138.got.cif
#   From: 2010.03.12/outbox.cif.g09.slc.cpg/sg63_32_cif.got.tgz:62138.got - 2010.04.10 19:34:48.
