data_PCOD8255856
_publ_section_title
;
Structure prediction by ZEFSAII (Michael W. Deem and Ramdas Pophale) SiO2 
 PCOD8255856
Probable space group: C M C M
;
_chemical_formula_sum "Si O2"
_cell_formula_units_Z 96
_cell_length_a 26.004363
_cell_length_b 28.773599
_cell_length_c 8.628714
_cell_angle_alpha 90.000000
_cell_angle_beta 90.000000
_cell_angle_gamma 90.000000
_cell_volume 6456.341312
_symmetry_space_group_name_H-M "C M C M"
_symmetry_group_IT_number 63
_symmetry_cell_setting 'orthorhombic'
loop_
_space_group_symop_operation_xyz
x,y,z
-x,-y,1/2+z
x,-y,-z
-x,y,1/2-z
-x,-y,-z
x,y,1/2-z
-x,y,z
x,-y,1/2+z
1/2+x,1/2+y,z
1/2-x,1/2-y,1/2+z
1/2+x,1/2-y,-z
1/2-x,1/2+y,1/2-z
1/2-x,1/2-y,-z
1/2+x,1/2+y,1/2-z
1/2-x,1/2+y,z
1/2+x,1/2-y,1/2+z
loop_
_atom_site_type_symbol
_atom_site_label
_atom_site_fract_x
_atom_site_fract_y
_atom_site_fract_z
Si Si1 0.282713 0.951353 0.068864
Si Si2 0.798431 0.777437 0.066209
Si Si3 0.647644 0.802708 0.432268
Si Si4 0.243525 0.642571 0.067009
Si Si5 0.559013 0.858741 0.572410
Si Si6 0.597343 0.951345 0.431253
O O1 0.271180 0.949938 0.250000
O O2 0.342686 0.944242 0.032150
O O3 0.251030 0.910749 0.984507
O O4 0.263096 0.000000 0.000000
O O5 0.798553 0.777970 0.250000
O O6 0.750000 0.750000 0.000000
O O7 0.848225 0.749530 0.003397
O O8 0.793242 0.829861 0.001157
O O9 0.655869 0.800523 0.250000
O O10 0.690475 0.836929 0.501401
O O11 0.591784 0.822733 0.471031
O O12 0.243180 0.647078 0.250000
O O13 0.577199 0.855959 0.750000
O O14 0.500000 0.843957 0.553900
O O15 0.565580 0.911095 0.513594
O O16 0.585924 0.950101 0.250000
O O17 0.577766 0.000000 0.500000
#
# Coordination Sequence:
#
# PCOD8255856 Si02
#       6
#    16  16  16  16  16  16
#     4  10  19  30  44  64  86 113 143 176 214 258
#     4  10  18  29  45  65  87 109 135 168 207 252
#     4  11  20  32  47  64  85 108 136 173 215 259
#     4  11  19  29  46  66  88 112 138 172 210 253
#     4  11  23  36  49  64  82 107 140 178 222 267
#     4  10  20  33  49  63  80 105 138 178 222 266
#
# _framework density 14.869102
#
# number of rings (size 3 to 8) (size 9 to 14) (size 15 to 20)
#    0.000    1.500    1.667    8.000    0.000    3.000 
#    0.000    0.000    0.000    0.000    0.000    0.000 
#    0.000    0.000    0.000    0.000    0.000    0.833 
#
# Total GULP energy -595262.211891 kJ/mol
# GULP energy per Si atom -12401.296081 kJ/mol
# Density = 1.483526 g / cm^3
# Si number density = 14.869102 Si / 1000 Ang^3
#
#
#
# Elastic Constant Matrix: (Units=GPa)
#
#
# Indices 1 2 3 4 5 6 
#
# 1 38.4175 40.6868 26.7328 0.0000 0.0000 0.0000
# 2 40.6868 104.1090 52.0612 0.0000 0.0000 0.0000
# 3 26.7328 52.0612 128.5210 0.0000 0.0000 0.0000
# 4 0.0000 0.0000 0.0000 29.9639 0.0000 0.0000
# 5 0.0000 0.0000 0.0000 0.0000 16.9789 0.0000
# 6 0.0000 0.0000 0.0000 0.0000 0.0000 21.3104
#
#
#
# Elastic Compliance Matrix: (Units=1/GPa)
#
#
# Indices 1 2 3 4 5 6 
#
# 1 0.045211 -0.016260 -0.002817 0.000000 0.000000 0.000000
# 2 -0.016260 0.017893 -0.003866 0.000000 0.000000 0.000000
# 3 -0.002817 -0.003866 0.009933 0.000000 0.000000 0.000000
# 4 0.000000 0.000000 0.000000 0.033373 0.000000 0.000000
# 5 0.000000 0.000000 0.000000 0.000000 0.058897 0.000000
# 6 0.000000 0.000000 0.000000 0.000000 0.000000 0.046925
#
#
# Mechanical properties :
#
#
# Convention : Reuss Voigt Hill
#
# Bulk Modulus (GPa) = 36.83235 56.66767 46.75001
# Shear Modulus (GPa) = 18.71476 23.75510 21.23493
#
# Velocity S-wave (km/s) = 3.55157 4.00135 3.78315
# Velocity P-wave (km/s) = 6.45314 7.71632 7.11283
#
# Compressibility (1/GPa) = 0.02715005
#
# Stress axis : x y z
#
# Youngs Moduli (GPa) = 22.11864 55.88747 100.67547
#
# Poissons Ratio (x) = 0.90872 0.28365
# Poissons Ratio (y) = 0.35965 0.38921
# Poissons Ratio (z) = 0.06232 0.21606
#
# Static dielectric constant tensor:
#      x y z
#    x 2.644820 0.000000 0.000000 
#    y 0.000000 3.249060 0.000000 
#    z 0.000000 0.000000 3.040220 
# 
# 
# High freq. dielectric constant tensor:
#      x y z
#    x 1.509350 0.000000 0.000000 
#    y 0.000000 1.569230 0.000000 
#    z 0.000000 0.000000 1.595920 
# 
# From -- ./inp_files/13002.got.cif
#   From: 2010.03.12/outbox.cif.g09.slc.cpg/sg63_7_cif.got.tgz:13002.got - 2010.04.10 19:34:48.
