data_PCOD8255036
_publ_section_title
;
Structure prediction by ZEFSAII (Michael W. Deem and Ramdas Pophale) SiO2 
 PCOD8255036
Probable space group: P N M A
;
_chemical_formula_sum "Si O2"
_cell_formula_units_Z 32
_cell_length_a 13.279849
_cell_length_b 17.351876
_cell_length_c 6.687453
_cell_angle_alpha 90.000000
_cell_angle_beta 90.000000
_cell_angle_gamma 90.000000
_cell_volume 1540.991755
_symmetry_space_group_name_H-M "P N M A"
_symmetry_group_IT_number 62
_symmetry_cell_setting 'orthorhombic'
loop_
_space_group_symop_operation_xyz
x,y,z
1/2-x,-y,1/2+z
1/2+x,1/2-y,1/2-z
-x,1/2+y,-z
-x,-y,-z
1/2+x,y,1/2-z
1/2-x,1/2+y,1/2+z
x,1/2-y,z
loop_
_atom_site_type_symbol
_atom_site_label
_atom_site_fract_x
_atom_site_fract_y
_atom_site_fract_z
Si Si1 0.846470 0.161170 0.193607
Si Si2 0.792450 0.903559 0.399750
Si Si3 0.464877 0.567017 0.849804
Si Si4 0.703060 0.434754 0.450511
O O1 0.872455 0.250000 0.224364
O O2 0.806229 0.145997 0.965805
O O3 0.754608 0.134691 0.331966
O O4 0.943447 0.112207 0.251453
O O5 0.893593 0.876596 0.516905
O O6 0.724417 0.008193 0.973898
O O7 0.816984 0.898695 0.167297
O O8 0.399551 0.537471 0.658719
O O9 0.500000 0.500000 0.000000
#
# Coordination Sequence:
#
# PCOD8255036 Si02
#       4
#     8   8   8   8
#     4  11  25  42  61  95 140 170 214 283 340 387
#     4  11  21  41  66  97 123 171 223 272 327 401
#     4  11  21  39  67  98 130 171 226 270 331 405
#     4  11  21  41  68  95 129 171 225 272 330 402
#
# _framework density 20.765846
#
# number of rings (size 3 to 8) (size 9 to 14) (size 15 to 20)
#    0.000    1.000    7.500    0.000    0.000   11.000 
#    0.000    0.000    0.000    0.000    0.000    0.000 
#    0.000    0.000    0.000    0.000    0.000    0.000 
#
# Total GULP energy -396546.173903 kJ/mol
# GULP energy per Si atom -12392.067934 kJ/mol
# Density = 2.071858 g / cm^3
# Si number density = 20.765846 Si / 1000 Ang^3
#
#
#
# Elastic Constant Matrix: (Units=GPa)
#
#
# Indices 1 2 3 4 5 6 
#
# 1 141.2563 36.8769 71.5957 0.0000 0.0000 0.0000
# 2 36.8769 79.8382 12.3117 0.0000 0.0000 0.0000
# 3 71.5957 12.3117 132.2794 0.0000 0.0000 0.0000
# 4 0.0000 0.0000 0.0000 22.0073 0.0000 0.0000
# 5 0.0000 0.0000 0.0000 0.0000 36.8229 0.0000
# 6 0.0000 0.0000 0.0000 0.0000 0.0000 18.2277
#
#
#
# Elastic Compliance Matrix: (Units=1/GPa)
#
#
# Indices 1 2 3 4 5 6 
#
# 1 0.011000 -0.004224 -0.005561 0.000000 0.000000 0.000000
# 2 -0.004224 0.014329 0.000952 0.000000 0.000000 0.000000
# 3 -0.005561 0.000952 0.010481 0.000000 0.000000 0.000000
# 4 0.000000 0.000000 0.000000 0.045439 0.000000 0.000000
# 5 0.000000 0.000000 0.000000 0.000000 0.027157 0.000000
# 6 0.000000 0.000000 0.000000 0.000000 0.000000 0.054862
#
#
# Mechanical properties :
#
#
# Convention : Reuss Voigt Hill
#
# Bulk Modulus (GPa) = 55.10709 66.10473 60.60591
# Shear Modulus (GPa) = 26.74059 30.91757 28.82908
#
# Velocity S-wave (km/s) = 3.59237 3.86277 3.73002
# Velocity P-wave (km/s) = 6.61830 7.19702 6.91372
#
# Compressibility (1/GPa) = 0.01814649
#
# Stress axis : x y z
#
# Youngs Moduli (GPa) = 90.90523 69.78706 95.41147
#
# Poissons Ratio (x) = 0.29475 0.53057
# Poissons Ratio (y) = 0.38394 -0.09086
# Poissons Ratio (z) = 0.50551 -0.06646
#
# Static dielectric constant tensor:
#      x y z
#    x 4.093620 0.000000 0.000000 
#    y 0.000000 3.636850 0.000000 
#    z 0.000000 0.000000 4.067680 
# 
# 
# High freq. dielectric constant tensor:
#      x y z
#    x 1.828050 0.000000 0.000000 
#    y 0.000000 1.763610 0.000000 
#    z 0.000000 0.000000 1.830870 
# 
# From -- ./inp_files/1529.got.cif
#   From: 2010.03.12/outbox.cif.g09.slc.cpg/sg62_1_cif.got.tgz:1529.got - 2010.04.10 19:12:36.
