data_PCOD8255713
_publ_section_title
;
Structure prediction by ZEFSAII (Michael W. Deem and Ramdas Pophale) SiO2 
 PCOD8255713
Probable space group: C M C M
;
_chemical_formula_sum "Si O2"
_cell_formula_units_Z 104
_cell_length_a 37.445065
_cell_length_b 27.143166
_cell_length_c 9.036835
_cell_angle_alpha 90.000000
_cell_angle_beta 90.000000
_cell_angle_gamma 90.000000
_cell_volume 9184.836806
_symmetry_space_group_name_H-M "C M C M"
_symmetry_group_IT_number 63
_symmetry_cell_setting 'orthorhombic'
loop_
_space_group_symop_operation_xyz
x,y,z
-x,-y,1/2+z
x,-y,-z
-x,y,1/2-z
-x,-y,-z
x,y,1/2-z
-x,y,z
x,-y,1/2+z
1/2+x,1/2+y,z
1/2-x,1/2-y,1/2+z
1/2+x,1/2-y,-z
1/2-x,1/2+y,1/2-z
1/2-x,1/2-y,-z
1/2+x,1/2+y,1/2-z
1/2-x,1/2+y,z
1/2+x,1/2-y,1/2+z
loop_
_atom_site_type_symbol
_atom_site_label
_atom_site_fract_x
_atom_site_fract_y
_atom_site_fract_z
Si Si1 0.000000 0.449738 0.081995
Si Si2 0.283962 0.726373 0.923896
Si Si3 0.639377 0.887983 0.575462
Si Si4 0.746370 0.132702 0.913969
Si Si5 0.209958 0.448265 0.921678
Si Si6 0.824675 0.302821 0.082236
Si Si7 0.922435 0.446678 0.075507
O O1 0.037782 0.422811 0.047114
O O2 0.000000 0.465819 0.250000
O O3 0.000000 0.500000 0.000000
O O4 0.283890 0.739178 0.750000
O O5 0.281127 0.666935 0.949128
O O6 0.250000 0.750000 0.000000
O O7 0.319148 0.749861 0.000764
O O8 0.633873 0.882970 0.750000
O O9 0.672023 0.924361 0.536647
O O10 0.645867 0.834002 0.507015
O O11 0.604247 0.908942 0.499781
O O12 0.749734 0.109866 0.750000
O O13 0.712233 0.167948 0.921514
O O14 0.742160 0.087782 0.027961
O O15 0.213999 0.457416 0.750000
O O16 0.213617 0.500000 0.000000
O O17 0.837786 0.293922 0.250000
O O18 0.913940 0.451952 0.250000
O O19 0.918556 0.500000 0.000000
#
# Coordination Sequence:
#
# PCOD8255713 Si02
#       7
#     8  16  16  16  16  16  16
#     4   8  16  28  40  52  64  78  98 124 152 182
#     4   9  15  23  35  49  63  79  98 122 148 176
#     4  10  19  28  37  50  65  82 102 124 152 188
#     4   8  15  25  35  46  60  77  98 121 146 175
#     4  10  19  27  35  45  60  80 101 125 152 183
#     4   9  16  25  36  49  64  81  98 120 148 180
#     4  10  18  28  40  52  65  81 101 125 153 186
#
# _framework density 11.323010999999999
#
# number of rings (size 3 to 8) (size 9 to 14) (size 15 to 20)
#    0.000    2.769    0.000    3.692    0.000    8.000 
#    0.000    0.000    0.000    0.000    0.000    0.000 
#    0.000    0.000    0.000    0.000    0.000    0.000 
#
# Total GULP energy -644264.652366 kJ/mol
# GULP energy per Si atom -12389.704853 kJ/mol
# Density = 1.129724 g / cm^3
# Si number density = 11.323011 Si / 1000 Ang^3
#
#
#
# Elastic Constant Matrix: (Units=GPa)
#
#
# Indices 1 2 3 4 5 6 
#
# 1 51.0232 41.2686 33.4966 0.0000 0.0000 0.0000
# 2 41.2686 57.7365 42.0365 0.0000 0.0000 0.0000
# 3 33.4966 42.0365 74.1586 0.0000 0.0000 0.0000
# 4 0.0000 0.0000 0.0000 20.4595 0.0000 0.0000
# 5 0.0000 0.0000 0.0000 0.0000 13.6929 0.0000
# 6 0.0000 0.0000 0.0000 0.0000 0.0000 12.2622
#
#
#
# Elastic Compliance Matrix: (Units=1/GPa)
#
#
# Indices 1 2 3 4 5 6 
#
# 1 0.047054 -0.030919 -0.003727 0.000000 0.000000 0.000000
# 2 -0.030919 0.049808 -0.014268 0.000000 0.000000 0.000000
# 3 -0.003727 -0.014268 0.023256 0.000000 0.000000 0.000000
# 4 0.000000 0.000000 0.000000 0.048877 0.000000 0.000000
# 5 0.000000 0.000000 0.000000 0.000000 0.073030 0.000000
# 6 0.000000 0.000000 0.000000 0.000000 0.000000 0.081552
#
#
# Mechanical properties :
#
#
# Convention : Reuss Voigt Hill
#
# Bulk Modulus (GPa) = 44.86417 46.28020 45.57219
# Shear Modulus (GPa) = 11.65946 13.69069 12.67508
#
# Velocity S-wave (km/s) = 3.21240 3.48099 3.34939
# Velocity P-wave (km/s) = 7.31215 7.55763 7.43590
#
# Compressibility (1/GPa) = 0.02228950
#
# Stress axis : x y z
#
# Youngs Moduli (GPa) = 21.25214 20.07691 42.99999
#
# Poissons Ratio (x) = 0.62076 0.16027
# Poissons Ratio (y) = 0.65710 0.61352
# Poissons Ratio (z) = 0.07921 0.28645
#
# Static dielectric constant tensor:
#      x y z
#    x 2.880660 0.000000 0.000000 
#    y 0.000000 2.609700 0.000000 
#    z 0.000000 0.000000 2.596200 
# 
# 
# High freq. dielectric constant tensor:
#      x y z
#    x 1.385180 0.000000 0.000000 
#    y 0.000000 1.404590 0.000000 
#    z 0.000000 0.000000 1.449440 
# 
# From -- ./inp_files/13271.got.cif
#   From: 2010.03.12/outbox.cif.g09.slc.cpg/sg63_7_cif.got.tgz:13271.got - 2010.04.10 19:34:48.
