data_PCOD8255646
_publ_section_title
;
Structure prediction by ZEFSAII (Michael W. Deem and Ramdas Pophale) SiO2 
 PCOD8255646
Probable space group: C M C M
;
_chemical_formula_sum "Si O2"
_cell_formula_units_Z 80
_cell_length_a 9.020330
_cell_length_b 20.715733
_cell_length_c 24.641749
_cell_angle_alpha 90.000000
_cell_angle_beta 90.000000
_cell_angle_gamma 90.000000
_cell_volume 4604.624930
_symmetry_space_group_name_H-M "C M C M"
_symmetry_group_IT_number 63
_symmetry_cell_setting 'orthorhombic'
loop_
_space_group_symop_operation_xyz
x,y,z
-x,-y,1/2+z
x,-y,-z
-x,y,1/2-z
-x,-y,-z
x,y,1/2-z
-x,y,z
x,-y,1/2+z
1/2+x,1/2+y,z
1/2-x,1/2-y,1/2+z
1/2+x,1/2-y,-z
1/2-x,1/2+y,1/2-z
1/2-x,1/2-y,-z
1/2+x,1/2+y,1/2-z
1/2-x,1/2+y,z
1/2+x,1/2-y,1/2+z
loop_
_atom_site_type_symbol
_atom_site_label
_atom_site_fract_x
_atom_site_fract_y
_atom_site_fract_z
Si Si1 0.325198 0.306973 0.032792
Si Si2 0.168172 0.753963 0.750000
Si Si3 0.672755 0.389561 0.641880
Si Si4 0.673836 0.885780 0.750000
Si Si5 0.323704 0.434895 0.526435
Si Si6 0.332457 0.761902 0.366846
O O1 0.500000 0.300427 0.026827
O O2 0.278915 0.302117 0.095706
O O3 0.250000 0.250000 0.000000
O O4 0.267160 0.374671 0.009159
O O5 0.288511 0.810262 0.750000
O O6 0.188153 0.712070 0.804847
O O7 0.000000 0.784318 0.750000
O O8 0.500000 0.401439 0.651881
O O9 0.758460 0.416518 0.694856
O O10 0.730359 0.427969 0.588760
O O11 0.705191 0.314032 0.631722
O O12 0.500000 0.897505 0.750000
O O13 0.257200 0.500000 0.500000
O O14 0.500000 0.436433 0.525464
O O15 0.500000 0.773153 0.387511
#
# Coordination Sequence:
#
# PCOD8255646 Si02
#       6
#    16   8  16   8  16  16
#     4  11  20  31  49  74 100 128 160 200 247 292
#     4   8  16  30  46  65  96 131 163 197 239 291
#     4   9  16  30  49  69  95 128 163 198 241 293
#     4  10  18  26  42  71 100 125 157 201 247 285
#     4   9  18  33  52  72  96 129 170 208 241 284
#     4   9  16  29  48  72  97 127 164 200 241 290
#
# _framework density 17.373837000000002
#
# number of rings (size 3 to 8) (size 9 to 14) (size 15 to 20)
#    0.000    2.600    2.000    2.700    0.000    3.200 
#    0.000    0.000    0.000    6.600    0.000    5.600 
#    0.000    0.000    0.000    0.000    0.000    0.000 
#
# Total GULP energy -495778.923702 kJ/mol
# GULP energy per Si atom -12394.473093 kJ/mol
# Density = 1.733429 g / cm^3
# Si number density = 17.373837 Si / 1000 Ang^3
#
#
#
# Elastic Constant Matrix: (Units=GPa)
#
#
# Indices 1 2 3 4 5 6 
#
# 1 60.8390 29.1717 50.2975 0.0000 0.0000 0.0000
# 2 29.1717 84.3973 62.7287 0.0000 0.0000 0.0000
# 3 50.2975 62.7287 182.7883 0.0000 0.0000 0.0000
# 4 0.0000 0.0000 0.0000 20.6579 0.0000 0.0000
# 5 0.0000 0.0000 0.0000 0.0000 31.1719 0.0000
# 6 0.0000 0.0000 0.0000 0.0000 0.0000 12.8828
#
#
#
# Elastic Compliance Matrix: (Units=1/GPa)
#
#
# Indices 1 2 3 4 5 6 
#
# 1 0.022350 -0.004234 -0.004697 0.000000 0.000000 0.000000
# 2 -0.004234 0.016708 -0.004569 0.000000 0.000000 0.000000
# 3 -0.004697 -0.004569 0.008331 0.000000 0.000000 0.000000
# 4 0.000000 0.000000 0.000000 0.048408 0.000000 0.000000
# 5 0.000000 0.000000 0.000000 0.000000 0.032080 0.000000
# 6 0.000000 0.000000 0.000000 0.000000 0.000000 0.077623
#
#
# Mechanical properties :
#
#
# Convention : Reuss Voigt Hill
#
# Bulk Modulus (GPa) = 49.04469 68.04670 58.54570
# Shear Modulus (GPa) = 20.89460 25.33097 23.11278
#
# Velocity S-wave (km/s) = 3.47168 3.82251 3.65131
# Velocity P-wave (km/s) = 6.66036 7.66377 7.17962
#
# Compressibility (1/GPa) = 0.02038957
#
# Stress axis : x y z
#
# Youngs Moduli (GPa) = 44.74222 59.85173 120.03190
#
# Poissons Ratio (x) = 0.25343 0.56379
# Poissons Ratio (y) = 0.18945 0.54838
# Poissons Ratio (z) = 0.21015 0.27344
#
# Static dielectric constant tensor:
#      x y z
#    x 3.036070 0.000000 0.000000 
#    y 0.000000 2.958120 0.000000 
#    z 0.000000 0.000000 3.856280 
# 
# 
# High freq. dielectric constant tensor:
#      x y z
#    x 1.649160 0.000000 0.000000 
#    y 0.000000 1.612950 0.000000 
#    z 0.000000 0.000000 1.698690 
# 
# From -- ./inp_files/59790.got.cif
#   From: 2010.03.12/outbox.cif.g09.slc.cpg/sg63_30_cif.got.tgz:59790.got - 2010.04.10 19:34:48.
