data_PCOD8255893
_publ_section_title
;
Structure prediction by ZEFSAII (Michael W. Deem and Ramdas Pophale) SiO2 
 PCOD8255893
Probable space group: C M C M
;
_chemical_formula_sum "Si O2"
_cell_formula_units_Z 96
_cell_length_a 7.715954
_cell_length_b 23.079561
_cell_length_c 30.560115
_cell_angle_alpha 90.000000
_cell_angle_beta 90.000000
_cell_angle_gamma 90.000000
_cell_volume 5442.170675
_symmetry_space_group_name_H-M "C M C M"
_symmetry_group_IT_number 63
_symmetry_cell_setting 'orthorhombic'
loop_
_space_group_symop_operation_xyz
x,y,z
-x,-y,1/2+z
x,-y,-z
-x,y,1/2-z
-x,-y,-z
x,y,1/2-z
-x,y,z
x,-y,1/2+z
1/2+x,1/2+y,z
1/2-x,1/2-y,1/2+z
1/2+x,1/2-y,-z
1/2-x,1/2+y,1/2-z
1/2-x,1/2-y,-z
1/2+x,1/2+y,1/2-z
1/2-x,1/2+y,z
1/2+x,1/2-y,1/2+z
loop_
_atom_site_type_symbol
_atom_site_label
_atom_site_fract_x
_atom_site_fract_y
_atom_site_fract_z
Si Si1 0.689257 0.899698 0.644619
Si Si2 0.500000 0.398991 0.797610
Si Si3 0.203020 0.733340 0.133770
Si Si4 0.500000 0.261754 0.700088
Si Si5 0.204636 0.968675 0.564603
Si Si6 0.704271 0.413720 0.475015
Si Si7 0.296437 0.712714 0.957585
O O1 0.500000 0.900954 0.666948
O O2 0.732619 0.835146 0.628216
O O3 0.687923 0.943392 0.604378
O O4 0.828497 0.922367 0.679080
O O5 0.500000 0.427132 0.750000
O O6 0.500000 0.330239 0.795304
O O7 0.325618 0.757196 0.173331
O O8 0.270970 0.759812 0.087836
O O9 0.000000 0.748185 0.143709
O O10 0.500000 0.235351 0.750000
O O11 0.272361 0.934366 0.522075
O O12 0.000000 0.959365 0.571744
O O13 0.251063 0.036934 0.560555
O O14 0.500000 0.407689 0.478288
O O15 0.786739 0.351643 0.462229
O O16 0.500000 0.708203 0.954163
O O17 0.250000 0.750000 0.000000
#
# Coordination Sequence:
#
# PCOD8255893 Si02
#       7
#    16   8  16   8  16  16  16
#     4  10  18  29  47  71  96 125 156 191 237 285
#     4   9  18  32  48  71  97 123 152 189 240 295
#     4   9  19  31  46  71 102 127 159 198 240 294
#     4   9  18  32  52  72  95 126 160 200 247 290
#     4   9  15  28  47  67  92 126 166 200 233 273
#     4   8  16  28  45  66  93 128 167 201 230 272
#     4  10  19  30  44  67  99 135 167 197 242 287
#
# _framework density 17.640018999999999
#
# number of rings (size 3 to 8) (size 9 to 14) (size 15 to 20)
#    0.000    2.833    0.833    2.000    1.167    0.667 
#    0.000    5.833    0.000    0.000    0.000    1.167 
#    0.000    0.000    0.000    0.000    0.000    0.000 
#
# Total GULP energy -594859.696237 kJ/mol
# GULP energy per Si atom -12392.910338 kJ/mol
# Density = 1.759987 g / cm^3
# Si number density = 17.640019 Si / 1000 Ang^3
#
#
#
# Elastic Constant Matrix: (Units=GPa)
#
#
# Indices 1 2 3 4 5 6 
#
# 1 78.4791 24.6796 51.2470 0.0000 0.0000 0.0000
# 2 24.6796 91.2887 48.7238 0.0000 0.0000 0.0000
# 3 51.2470 48.7238 137.9542 0.0000 0.0000 0.0000
# 4 0.0000 0.0000 0.0000 18.1941 0.0000 0.0000
# 5 0.0000 0.0000 0.0000 0.0000 15.8080 0.0000
# 6 0.0000 0.0000 0.0000 0.0000 0.0000 11.3040
#
#
#
# Elastic Compliance Matrix: (Units=1/GPa)
#
#
# Indices 1 2 3 4 5 6 
#
# 1 0.016990 -0.001509 -0.005779 0.000000 0.000000 0.000000
# 2 -0.001509 0.013633 -0.004254 0.000000 0.000000 0.000000
# 3 -0.005779 -0.004254 0.010898 0.000000 0.000000 0.000000
# 4 0.000000 0.000000 0.000000 0.054963 0.000000 0.000000
# 5 0.000000 0.000000 0.000000 0.000000 0.063259 0.000000
# 6 0.000000 0.000000 0.000000 0.000000 0.000000 0.088464
#
#
# Mechanical properties :
#
#
# Convention : Reuss Voigt Hill
#
# Bulk Modulus (GPa) = 54.23831 61.89143 58.06487
# Shear Modulus (GPa) = 18.02211 21.26600 19.64405
#
# Velocity S-wave (km/s) = 3.19981 3.47588 3.34070
# Velocity P-wave (km/s) = 6.66827 7.16037 6.91870
#
# Compressibility (1/GPa) = 0.01843715
#
# Stress axis : x y z
#
# Youngs Moduli (GPa) = 58.85755 73.35168 91.76012
#
# Poissons Ratio (x) = 0.11069 0.53024
# Poissons Ratio (y) = 0.08882 0.39039
# Poissons Ratio (z) = 0.34011 0.31207
#
# Static dielectric constant tensor:
#      x y z
#    x 3.254370 0.000000 0.000000 
#    y 0.000000 3.371310 0.000000 
#    z 0.000000 0.000000 3.191340 
# 
# 
# High freq. dielectric constant tensor:
#      x y z
#    x 1.681990 0.000000 0.000000 
#    y 0.000000 1.653910 0.000000 
#    z 0.000000 0.000000 1.665450 
# 
# From -- ./inp_files/67307.got.cif
#   From: 2010.03.12/outbox.cif.g09.slc.cpg/sg63_34_cif.got.tgz:67307.got - 2010.04.10 19:34:48.
