data_PCOD8255882
_publ_section_title
;
Structure prediction by ZEFSAII (Michael W. Deem and Ramdas Pophale) SiO2 
 PCOD8255882
Probable space group: C M C M
;
_chemical_formula_sum "Si O2"
_cell_formula_units_Z 80
_cell_length_a 7.698775
_cell_length_b 28.592317
_cell_length_c 20.750935
_cell_angle_alpha 90.000000
_cell_angle_beta 90.000000
_cell_angle_gamma 90.000000
_cell_volume 4567.816485
_symmetry_space_group_name_H-M "C M C M"
_symmetry_group_IT_number 63
_symmetry_cell_setting 'orthorhombic'
loop_
_space_group_symop_operation_xyz
x,y,z
-x,-y,1/2+z
x,-y,-z
-x,y,1/2-z
-x,-y,-z
x,y,1/2-z
-x,y,z
x,-y,1/2+z
1/2+x,1/2+y,z
1/2-x,1/2-y,1/2+z
1/2+x,1/2-y,-z
1/2-x,1/2+y,1/2-z
1/2-x,1/2-y,-z
1/2+x,1/2+y,1/2-z
1/2-x,1/2+y,z
1/2+x,1/2-y,1/2+z
loop_
_atom_site_type_symbol
_atom_site_label
_atom_site_fract_x
_atom_site_fract_y
_atom_site_fract_z
Si Si1 0.000000 0.427364 0.680350
Si Si2 0.000000 0.549284 0.465542
Si Si3 0.701287 0.240308 0.179893
Si Si4 0.190141 0.139318 0.154721
Si Si5 0.699417 0.619631 0.490113
Si Si6 0.203909 0.212126 0.946433
O O1 0.830503 0.395370 0.683689
O O2 0.000000 0.455712 0.750000
O O3 0.000000 0.457006 0.613243
O O4 0.000000 0.500000 0.500000
O O5 0.173163 0.575224 0.490626
O O6 0.727087 0.264853 0.250000
O O7 0.500000 0.230881 0.164887
O O8 0.794701 0.190690 0.183734
O O9 0.781031 0.272552 0.123140
O O10 0.210991 0.144546 0.078551
O O11 0.000000 0.119197 0.172658
O O12 0.500000 0.603725 0.505659
O O13 0.772763 0.659804 0.538116
O O14 0.000000 0.207484 0.943285
O O15 0.250000 0.250000 0.000000
#
# Coordination Sequence:
#
# PCOD8255882 Si02
#       6
#     8   8  16  16  16  16
#     4  10  20  34  52  74 106 132 160 208 264 320
#     4  10  22  38  60  80 100 132 174 220 274 310
#     4  10  19  29  42  64 100 142 180 211 246 293
#     4  10  18  29  46  71 102 136 168 202 251 311
#     4   9  19  34  52  78 103 131 173 215 259 310
#     4  10  19  29  47  70 100 139 176 207 246 299
#
# _framework density 17.513839000000001
#
# number of rings (size 3 to 8) (size 9 to 14) (size 15 to 20)
#    0.000    2.200    3.000    0.600    1.400    2.000 
#    0.000    0.000    0.000    1.200    0.000    0.000 
#    0.000    0.000    0.000    0.000    0.000    0.000 
#
# Total GULP energy -495606.906567 kJ/mol
# GULP energy per Si atom -12390.172664 kJ/mol
# Density = 1.747398 g / cm^3
# Si number density = 17.513839 Si / 1000 Ang^3
#
#
#
# Elastic Constant Matrix: (Units=GPa)
#
#
# Indices 1 2 3 4 5 6 
#
# 1 82.7879 32.5926 29.8587 0.0000 0.0000 0.0000
# 2 32.5926 91.0927 61.9722 0.0000 0.0000 0.0000
# 3 29.8587 61.9722 130.4483 0.0000 0.0000 0.0000
# 4 0.0000 0.0000 0.0000 17.4081 0.0000 0.0000
# 5 0.0000 0.0000 0.0000 0.0000 -8.3159 0.0000
# 6 0.0000 0.0000 0.0000 0.0000 0.0000 17.7630
#
#
#
# Elastic Compliance Matrix: (Units=1/GPa)
#
#
# Indices 1 2 3 4 5 6 
#
# 1 0.014193 -0.004238 -0.001235 0.000000 0.000000 0.000000
# 2 -0.004238 0.017485 -0.007337 0.000000 0.000000 0.000000
# 3 -0.001235 -0.007337 0.011434 0.000000 0.000000 0.000000
# 4 0.000000 0.000000 0.000000 0.057445 0.000000 0.000000
# 5 0.000000 0.000000 0.000000 0.000000 -0.120252 0.000000
# 6 0.000000 0.000000 0.000000 0.000000 0.000000 0.056297
#
#
# Mechanical properties :
#
#
# Convention : Reuss Voigt Hill
#
# Bulk Modulus (GPa) = 57.16701 61.46400 59.31550
# Shear Modulus (GPa) = 73.47235 17.36474 45.41855
#
# Velocity S-wave (km/s) = 6.48399 3.15220 5.09796
# Velocity P-wave (km/s) = 9.42168 6.95839 8.28213
#
# Compressibility (1/GPa) = 0.01749261
#
# Stress axis : x y z
#
# Youngs Moduli (GPa) = 70.45739 57.19038 87.45704
#
# Poissons Ratio (x) = 0.24235 0.10805
# Poissons Ratio (y) = 0.29858 0.64166
# Poissons Ratio (z) = 0.08705 0.41960
#
# Static dielectric constant tensor:
#      x y z
#    x 3.476310 0.000000 0.000000 
#    y 0.000000 2.820320 0.000000 
#    z 0.000000 0.000000 3.646320 
# 
# 
# High freq. dielectric constant tensor:
#      x y z
#    x 1.688230 0.000000 0.000000 
#    y 0.000000 1.615710 0.000000 
#    z 0.000000 0.000000 1.684300 
# 
# From -- ./inp_files/51207.got.cif
#   From: 2010.03.12/outbox.cif.g09.slc.cpg/sg63_26_cif.got.tgz:51207.got - 2010.04.10 19:34:48.
