data_PCOD8255367
_publ_section_title
;
Structure prediction by ZEFSAII (Michael W. Deem and Ramdas Pophale) SiO2 
 PCOD8255367
Probable space group: C M C M
;
_chemical_formula_sum "Si O2"
_cell_formula_units_Z 80
_cell_length_a 21.504155
_cell_length_b 11.711786
_cell_length_c 14.580998
_cell_angle_alpha 90.000000
_cell_angle_beta 90.000000
_cell_angle_gamma 90.000000
_cell_volume 3672.254405
_symmetry_space_group_name_H-M "C M C M"
_symmetry_group_IT_number 63
_symmetry_cell_setting 'orthorhombic'
loop_
_space_group_symop_operation_xyz
x,y,z
-x,-y,1/2+z
x,-y,-z
-x,y,1/2-z
-x,-y,-z
x,y,1/2-z
-x,y,z
x,-y,1/2+z
1/2+x,1/2+y,z
1/2-x,1/2-y,1/2+z
1/2+x,1/2-y,-z
1/2-x,1/2+y,1/2-z
1/2-x,1/2-y,-z
1/2+x,1/2+y,1/2-z
1/2-x,1/2+y,z
1/2+x,1/2-y,1/2+z
loop_
_atom_site_type_symbol
_atom_site_label
_atom_site_fract_x
_atom_site_fract_y
_atom_site_fract_z
Si Si1 0.304140 0.664667 0.523571
Si Si2 0.786185 0.451142 0.145640
Si Si3 0.632211 0.276283 0.644874
Si Si4 0.128725 0.339562 0.856818
Si Si5 0.000000 0.295368 0.149629
Si Si6 0.500000 0.954651 0.602185
O O1 0.250000 0.750000 0.500000
O O2 0.274135 0.558585 0.579104
O O3 0.337077 0.632185 0.425775
O O4 0.355367 0.725517 0.587801
O O5 0.762966 0.467100 0.250000
O O6 0.830766 0.342103 0.139367
O O7 0.824015 0.561031 0.111357
O O8 0.633067 0.322518 0.750000
O O9 0.563285 0.250669 0.603855
O O10 0.137477 0.313579 0.750000
O O11 0.058811 0.376269 0.877416
O O12 0.000000 0.241759 0.250000
O O13 0.000000 0.432117 0.163396
O O14 0.500000 0.000000 0.500000
#
# Coordination Sequence:
#
# PCOD8255367 Si02
#       6
#    16  16  16  16   8   8
#     4  10  21  33  50  71 106 143 187 224 266 319
#     4   9  18  33  52  72 103 142 181 221 267 318
#     4   9  17  29  46  69  99 137 176 216 263 315
#     4  11  22  36  55  81 112 149 185 223 273 330
#     4  10  16  28  46  68 100 137 174 210 261 325
#     4  12  22  30  52  80 116 145 178 215 276 337
#
# _framework density 21.784983
#
# number of rings (size 3 to 8) (size 9 to 14) (size 15 to 20)
#    0.000    2.000    2.000    2.700    2.800    0.800 
#    0.000    0.000    0.000    1.200    0.000    0.000 
#    0.000   33.600    0.000   90.000    0.000    0.000 
#
# Total GULP energy -495716.204676 kJ/mol
# GULP energy per Si atom -12392.905117 kJ/mol
# Density = 2.173540 g / cm^3
# Si number density = 21.784983 Si / 1000 Ang^3
#
#
#
# Elastic Constant Matrix: (Units=GPa)
#
#
# Indices 1 2 3 4 5 6 
#
# 1 140.4476 35.8491 64.8941 0.0000 0.0000 0.0000
# 2 35.8491 35.0609 28.1512 0.0000 0.0000 0.0000
# 3 64.8941 28.1512 128.6982 0.0000 0.0000 0.0000
# 4 0.0000 0.0000 0.0000 18.4312 0.0000 0.0000
# 5 0.0000 0.0000 0.0000 0.0000 34.6830 0.0000
# 6 0.0000 0.0000 0.0000 0.0000 0.0000 23.8112
#
#
#
# Elastic Compliance Matrix: (Units=1/GPa)
#
#
# Indices 1 2 3 4 5 6 
#
# 1 0.010929 -0.008188 -0.003720 0.000000 0.000000 0.000000
# 2 -0.008188 0.040733 -0.004781 0.000000 0.000000 0.000000
# 3 -0.003720 -0.004781 0.010692 0.000000 0.000000 0.000000
# 4 0.000000 0.000000 0.000000 0.054256 0.000000 0.000000
# 5 0.000000 0.000000 0.000000 0.000000 0.028833 0.000000
# 6 0.000000 0.000000 0.000000 0.000000 0.000000 0.041997
#
#
# Mechanical properties :
#
#
# Convention : Reuss Voigt Hill
#
# Bulk Modulus (GPa) = 34.51191 62.44395 48.47793
# Shear Modulus (GPa) = 21.69441 27.07255 24.38348
#
# Velocity S-wave (km/s) = 3.15912 3.52904 3.34919
# Velocity P-wave (km/s) = 5.40215 6.73287 6.10388
#
# Compressibility (1/GPa) = 0.02897551
#
# Stress axis : x y z
#
# Youngs Moduli (GPa) = 91.50226 24.55039 93.53208
#
# Poissons Ratio (x) = 0.20101 0.34791
# Poissons Ratio (y) = 0.74920 0.44719
# Poissons Ratio (z) = 0.34036 0.11738
#
# Static dielectric constant tensor:
#      x y z
#    x 4.281620 0.000000 0.000000 
#    y 0.000000 3.508110 0.000000 
#    z 0.000000 0.000000 4.552120 
# 
# 
# High freq. dielectric constant tensor:
#      x y z
#    x 1.859120 0.000000 0.000000 
#    y 0.000000 1.802270 0.000000 
#    z 0.000000 0.000000 1.878870 
# 
# From -- ./inp_files/36527.got.cif
#   From: 2010.03.12/outbox.cif.g09.slc.cpg/sg63_19_cif.got.tgz:36527.got - 2010.04.10 19:34:48.
