data_PCOD8255789
_publ_section_title
;
Structure prediction by ZEFSAII (Michael W. Deem and Ramdas Pophale) SiO2 
 PCOD8255789
Probable space group: C M C M
;
_chemical_formula_sum "Si O2"
_cell_formula_units_Z 80
_cell_length_a 10.104486
_cell_length_b 17.472483
_cell_length_c 23.372981
_cell_angle_alpha 90.000000
_cell_angle_beta 90.000000
_cell_angle_gamma 90.000000
_cell_volume 4126.510544
_symmetry_space_group_name_H-M "C M C M"
_symmetry_group_IT_number 63
_symmetry_cell_setting 'orthorhombic'
loop_
_space_group_symop_operation_xyz
x,y,z
-x,-y,1/2+z
x,-y,-z
-x,y,1/2-z
-x,-y,-z
x,y,1/2-z
-x,y,z
x,-y,1/2+z
1/2+x,1/2+y,z
1/2-x,1/2-y,1/2+z
1/2+x,1/2-y,-z
1/2-x,1/2+y,1/2-z
1/2-x,1/2-y,-z
1/2+x,1/2+y,1/2-z
1/2-x,1/2+y,z
1/2+x,1/2-y,1/2+z
loop_
_atom_site_type_symbol
_atom_site_label
_atom_site_fract_x
_atom_site_fract_y
_atom_site_fract_z
Si Si1 0.730848 0.716819 0.370353
Si Si2 0.344374 0.698616 0.250000
Si Si3 0.339075 0.949485 0.750000
Si Si4 0.248032 0.464245 0.869680
Si Si5 0.000000 0.455279 0.942074
Si Si6 0.000000 0.791625 0.551074
Si Si7 0.500000 0.224383 0.427917
Si Si8 0.000000 0.972077 0.564847
O O1 0.685332 0.748136 0.307671
O O2 0.728057 0.625733 0.366020
O O3 0.629201 0.745310 0.419141
O O4 0.875238 0.745842 0.388459
O O5 0.500000 0.671468 0.250000
O O6 0.236329 0.631205 0.250000
O O7 0.500000 0.937616 0.750000
O O8 0.288792 0.995463 0.693814
O O9 0.375299 0.503783 0.898786
O O10 0.127093 0.485202 0.909554
O O11 0.000000 0.363513 0.948676
O O12 0.000000 0.500000 0.000000
O O13 0.000000 0.776505 0.483870
O O14 0.000000 0.881324 0.562043
O O15 0.000000 0.000000 0.500000
#
# Coordination Sequence:
#
# PCOD8255789 Si02
#       8
#    16   8   8  16   8   8   8   8
#     4   9  18  29  46  69  98 125 157 198 244 288
#     4  10  18  28  46  70  99 130 158 200 256 291
#     4  10  18  28  46  72 101 128 158 200 252 297
#     4   9  18  29  46  69  99 126 157 199 244 286
#     4  10  18  31  47  69  97 130 163 198 236 286
#     4  10  18  33  49  69  99 128 159 200 238 290
#     4  10  20  31  47  73  97 128 163 196 240 286
#     4  10  20  33  49  73  99 128 163 200 242 292
#
# _framework density 19.386838999999998
#
# number of rings (size 3 to 8) (size 9 to 14) (size 15 to 20)
#    0.000    2.400    2.000    1.200    8.400    0.000 
#    0.000    0.000    0.000    0.000    0.000    8.400 
#    0.000    0.000    0.000    0.000    0.000    0.000 
#
# Total GULP energy -495613.448654 kJ/mol
# GULP energy per Si atom -12390.336216 kJ/mol
# Density = 1.934271 g / cm^3
# Si number density = 19.386839 Si / 1000 Ang^3
#
#
#
# Elastic Constant Matrix: (Units=GPa)
#
#
# Indices 1 2 3 4 5 6 
#
# 1 194.8332 11.0496 93.5720 0.0000 0.0000 0.0000
# 2 11.0496 6.5826 10.9336 0.0000 0.0000 0.0000
# 3 93.5720 10.9336 194.4482 0.0000 0.0000 0.0000
# 4 0.0000 0.0000 0.0000 22.8518 0.0000 0.0000
# 5 0.0000 0.0000 0.0000 0.0000 42.4912 0.0000
# 6 0.0000 0.0000 0.0000 0.0000 0.0000 1.0129
#
#
#
# Elastic Compliance Matrix: (Units=1/GPa)
#
#
# Indices 1 2 3 4 5 6 
#
# 1 0.006935 -0.006726 -0.002959 0.000000 0.000000 0.000000
# 2 -0.006726 0.174088 -0.006552 0.000000 0.000000 0.000000
# 3 -0.002959 -0.006552 0.006935 0.000000 0.000000 0.000000
# 4 0.000000 0.000000 0.000000 0.043760 0.000000 0.000000
# 5 0.000000 0.000000 0.000000 0.000000 0.023534 0.000000
# 6 0.000000 0.000000 0.000000 0.000000 0.000000 0.987305
#
#
# Mechanical properties :
#
#
# Convention : Reuss Voigt Hill
#
# Bulk Modulus (GPa) = 6.43155 69.66381 38.04768
# Shear Modulus (GPa) = 3.76829 31.95843 17.86336
#
# Velocity S-wave (km/s) = 1.39569 4.06453 3.03878
# Velocity P-wave (km/s) = 2.43351 7.61832 5.65512
#
# Compressibility (1/GPa) = 0.15548359
#
# Stress axis : x y z
#
# Youngs Moduli (GPa) = 144.19083 5.74422 144.19279
#
# Poissons Ratio (x) = 0.03864 0.42669
# Poissons Ratio (y) = 0.96988 0.94473
# Poissons Ratio (z) = 0.42668 0.03764
#
# Static dielectric constant tensor:
#      x y z
#    x 3.991700 0.000000 0.000000 
#    y 0.000000 2.759720 0.000000 
#    z 0.000000 0.000000 4.176010 
# 
# 
# High freq. dielectric constant tensor:
#      x y z
#    x 1.780250 0.000000 0.000000 
#    y 0.000000 1.662810 0.000000 
#    z 0.000000 0.000000 1.782700 
# 
# From -- ./inp_files/51019.got.cif
#   From: 2010.03.12/outbox.cif.g09.slc.cpg/sg63_26_cif.got.tgz:51019.got - 2010.04.10 19:34:48.
