data_PCOD8255307
_publ_section_title
;
Structure prediction by ZEFSAII (Michael W. Deem and Ramdas Pophale) SiO2 
 PCOD8255307
Probable space group: P N M A
;
_chemical_formula_sum "Si O2"
_cell_formula_units_Z 48
_cell_length_a 9.000000
_cell_length_b 9.000000
_cell_length_c 30.000000
_cell_angle_alpha 90.000000
_cell_angle_beta 90.000000
_cell_angle_gamma 90.000000
_cell_volume 2430.000000
_symmetry_space_group_name_H-M "P N M A"
_symmetry_group_IT_number 62
_symmetry_cell_setting 'orthorhombic'
loop_
_space_group_symop_operation_xyz
x,y,z
1/2-x,-y,1/2+z
1/2+x,1/2-y,1/2-z
-x,1/2+y,-z
-x,-y,-z
1/2+x,y,1/2-z
1/2-x,1/2+y,1/2+z
x,1/2-y,z
loop_
_atom_site_type_symbol
_atom_site_label
_atom_site_fract_x
_atom_site_fract_y
_atom_site_fract_z
Si Si1 0.647687 0.425937 0.784978
Si Si2 0.819559 0.581698 0.535482
Si Si3 0.356926 0.422076 0.377446
Si Si4 0.154850 0.920846 0.553280
Si Si5 0.170942 0.573748 0.130733
Si Si6 0.184073 0.573352 0.301861
O O1 0.653160 0.250000 0.785967
O O2 0.748385 0.487715 0.825072
O O3 0.480599 0.482969 0.790374
O O4 0.709379 0.482514 0.737798
O O5 0.816185 0.750000 0.516781
O O6 0.691524 0.556079 0.571523
O O7 0.789721 0.467201 0.495757
O O8 0.979226 0.551654 0.558071
O O9 0.375754 0.250000 0.365462
O O10 0.508685 0.506449 0.369731
O O11 0.230461 0.493443 0.346975
O O12 0.199100 0.750000 0.561455
O O13 0.235407 0.024461 0.588407
O O14 0.157072 0.750000 0.130940
O O15 0.190997 0.750000 0.308530
#
# Coordination Sequence:
#
# PCOD8255307 Si02
#       6
#     8   8   8   8   8   8
#     4   9  19  35  59  86 111 143 184 227 269 323
#     4   9  20  38  58  80 110 147 185 226 276 336
#     4  11  23  38  55  80 113 147 184 227 275 325
#     4  10  20  36  59  85 111 141 182 233 283 331
#     4  11  22  37  57  82 113 150 189 228 274 328
#     4  10  19  36  60  84 110 142 182 225 271 323
#
# _framework density 19.753086
#
# number of rings (size 3 to 8) (size 9 to 14) (size 15 to 20)
#    0.000    2.000    0.000    3.500    0.000    5.333 
#    0.000    5.000    0.000    0.000    0.000    0.000 
#    0.000    0.000    0.000    0.000    0.000    0.000 
#
# Total GULP energy -595376.135549 kJ/mol
# GULP energy per Si atom -12403.669491 kJ/mol
# Density = 1.970813 g / cm^3
# Si number density = 19.753086 Si / 1000 Ang^3
#
#
#
# Elastic Constant Matrix: (Units=GPa)
#
#
# Indices 1 2 3 4 5 6 
#
# 1 28.9459 13.6453 -3.1629 0.0000 0.0000 0.0000
# 2 13.6453 64.6640 18.3610 0.0000 0.0000 0.0000
# 3 -3.1629 18.3610 52.8165 0.0000 0.0000 0.0000
# 4 0.0000 0.0000 0.0000 28.7330 0.0000 0.0000
# 5 0.0000 0.0000 0.0000 0.0000 25.6457 0.0000
# 6 0.0000 0.0000 0.0000 0.0000 0.0000 28.1911
#
#
#
# Elastic Compliance Matrix: (Units=1/GPa)
#
#
# Indices 1 2 3 4 5 6 
#
# 1 0.039958 -0.010109 0.005907 0.000000 0.000000 0.000000
# 2 -0.010109 0.019716 -0.007459 0.000000 0.000000 0.000000
# 3 0.005907 -0.007459 0.021880 0.000000 0.000000 0.000000
# 4 0.000000 0.000000 0.000000 0.034803 0.000000 0.000000
# 5 0.000000 0.000000 0.000000 0.000000 0.038993 0.000000
# 6 0.000000 0.000000 0.000000 0.000000 0.000000 0.035472
#
#
# Mechanical properties :
#
#
# Convention : Reuss Voigt Hill
#
# Bulk Modulus (GPa) = 17.17276 22.67926 19.92601
# Shear Modulus (GPa) = 21.40812 24.35282 22.88047
#
# Velocity S-wave (km/s) = 3.29566 3.51502 3.40711
# Velocity P-wave (km/s) = 4.81606 5.28963 5.05839
#
# Compressibility (1/GPa) = 0.05823176
#
# Stress axis : x y z
#
# Youngs Moduli (GPa) = 25.02610 50.72063 45.70303
#
# Poissons Ratio (x) = 0.51275 -0.26998
# Poissons Ratio (y) = 0.25300 0.34092
# Poissons Ratio (z) = -0.14784 0.37834
#
# Static dielectric constant tensor:
#      x y z
#    x 3.707110 0.000000 0.000000 
#    y 0.000000 3.451130 0.000000 
#    z 0.000000 0.000000 3.634730 
# 
# 
# High freq. dielectric constant tensor:
#      x y z
#    x 1.776470 0.000000 0.000000 
#    y 0.000000 1.755890 0.000000 
#    z 0.000000 0.000000 1.776340 
# 
# From -- ./inp_files/31909.got.cif
#   From: 2010.03.12/outbox.ucp.g09.slc.cvg/sg62_16_cif.got.tgz:31909.got - 2010.05.04 19:35:18.
