data_PCOD8255098
_publ_section_title
;
Structure prediction by ZEFSAII (Michael W. Deem and Ramdas Pophale) SiO2 
 PCOD8255098
Probable space group: P N M A
;
_chemical_formula_sum "Si O2"
_cell_formula_units_Z 40
_cell_length_a 17.996044
_cell_length_b 13.068450
_cell_length_c 8.195599
_cell_angle_alpha 90.000000
_cell_angle_beta 90.000000
_cell_angle_gamma 90.000000
_cell_volume 1927.444261
_symmetry_space_group_name_H-M "P N M A"
_symmetry_group_IT_number 62
_symmetry_cell_setting 'orthorhombic'
loop_
_space_group_symop_operation_xyz
x,y,z
1/2-x,-y,1/2+z
1/2+x,1/2-y,1/2-z
-x,1/2+y,-z
-x,-y,-z
1/2+x,y,1/2-z
1/2-x,1/2+y,1/2+z
x,1/2-y,z
loop_
_atom_site_type_symbol
_atom_site_label
_atom_site_fract_x
_atom_site_fract_y
_atom_site_fract_z
Si Si1 0.537229 0.957475 0.756446
Si Si2 0.829128 0.976772 0.050725
Si Si3 0.092769 0.940049 0.404732
Si Si4 0.278196 0.133223 0.702669
Si Si5 0.110420 0.363296 0.241094
O O1 0.589315 0.988187 0.607904
O O2 0.477843 0.872294 0.696395
O O3 0.490336 0.056455 0.824469
O O4 0.587556 0.911842 0.904737
O O5 0.783782 0.930011 0.199600
O O6 0.789971 0.075934 0.969980
O O7 0.839691 0.888467 0.916457
O O8 0.145555 0.861821 0.308482
O O9 0.128937 0.054691 0.383868
O O10 0.252901 0.250000 0.669667
O O11 0.129773 0.250000 0.302522
#
# Coordination Sequence:
#
# PCOD8255098 Si02
#       5
#     8   8   8   8   8
#     4   9  18  38  60  85 118 157 186 254 308 344
#     4  11  22  40  59  85 126 159 201 262 292 359
#     4   8  19  38  59  87 120 150 193 248 300 359
#     4  11  24  41  62  88 121 168 207 246 311 367
#     4   9  18  33  58  87 114 151 193 240 301 359
#
# _framework density 20.752869
#
# number of rings (size 3 to 8) (size 9 to 14) (size 15 to 20)
#    1.200    1.200    0.000    2.400    0.000    1.600 
#    0.000   14.000    0.000    0.000    0.000    0.000 
#    0.000    0.000    0.000    0.000    0.000    0.000 
#
# Total GULP energy -495596.694505 kJ/mol
# GULP energy per Si atom -12389.917363 kJ/mol
# Density = 2.070563 g / cm^3
# Si number density = 20.752869 Si / 1000 Ang^3
#
#
#
# Elastic Constant Matrix: (Units=GPa)
#
#
# Indices 1 2 3 4 5 6 
#
# 1 48.4027 9.9281 3.5564 0.0000 0.0000 0.0000
# 2 9.9281 112.2569 20.4689 0.0000 0.0000 0.0000
# 3 3.5564 20.4689 46.2058 0.0000 0.0000 0.0000
# 4 0.0000 0.0000 0.0000 16.4284 0.0000 0.0000
# 5 0.0000 0.0000 0.0000 0.0000 45.9146 0.0000
# 6 0.0000 0.0000 0.0000 0.0000 0.0000 18.4624
#
#
#
# Elastic Compliance Matrix: (Units=1/GPa)
#
#
# Indices 1 2 3 4 5 6 
#
# 1 0.021074 -0.001706 -0.000866 0.000000 0.000000 0.000000
# 2 -0.001706 0.009829 -0.004223 0.000000 0.000000 0.000000
# 3 -0.000866 -0.004223 0.023580 0.000000 0.000000 0.000000
# 4 0.000000 0.000000 0.000000 0.060870 0.000000 0.000000
# 5 0.000000 0.000000 0.000000 0.000000 0.021780 0.000000
# 6 0.000000 0.000000 0.000000 0.000000 0.000000 0.054164
#
#
# Mechanical properties :
#
#
# Convention : Reuss Voigt Hill
#
# Bulk Modulus (GPa) = 24.45455 30.53024 27.49240
# Shear Modulus (GPa) = 22.88152 27.68854 25.28503
#
# Velocity S-wave (km/s) = 3.32410 3.65664 3.49433
# Velocity P-wave (km/s) = 5.15191 5.70712 5.43661
#
# Compressibility (1/GPa) = 0.04089218
#
# Stress axis : x y z
#
# Youngs Moduli (GPa) = 47.45288 101.73972 42.40932
#
# Poissons Ratio (x) = 0.17355 0.03674
# Poissons Ratio (y) = 0.08094 0.17909
# Poissons Ratio (z) = 0.04111 0.42964
#
# Static dielectric constant tensor:
#      x y z
#    x 3.736910 0.000000 0.000000 
#    y 0.000000 3.297910 0.000000 
#    z 0.000000 0.000000 3.519150 
# 
# 
# High freq. dielectric constant tensor:
#      x y z
#    x 1.814150 0.000000 0.000000 
#    y 0.000000 1.772230 0.000000 
#    z 0.000000 0.000000 1.805650 
# 
# From -- ./inp_files/8469.got.cif
#   From: 2010.03.12/outbox.cif.g09.slc.cpg/sg62_5_cif.got.tgz:8469.got - 2010.04.10 19:12:36.
