data_PCOD8255358
_publ_section_title
;
Structure prediction by ZEFSAII (Michael W. Deem and Ramdas Pophale) SiO2 
 PCOD8255358
Probable space group: C M C M
;
_chemical_formula_sum "Si O2"
_cell_formula_units_Z 96
_cell_length_a 23.118186
_cell_length_b 12.771555
_cell_length_c 20.583828
_cell_angle_alpha 90.000000
_cell_angle_beta 90.000000
_cell_angle_gamma 90.000000
_cell_volume 6077.481924
_symmetry_space_group_name_H-M "C M C M"
_symmetry_group_IT_number 63
_symmetry_cell_setting 'orthorhombic'
loop_
_space_group_symop_operation_xyz
x,y,z
-x,-y,1/2+z
x,-y,-z
-x,y,1/2-z
-x,-y,-z
x,y,1/2-z
-x,y,z
x,-y,1/2+z
1/2+x,1/2+y,z
1/2-x,1/2-y,1/2+z
1/2+x,1/2-y,-z
1/2-x,1/2+y,1/2-z
1/2-x,1/2-y,-z
1/2+x,1/2+y,1/2-z
1/2-x,1/2+y,z
1/2+x,1/2-y,1/2+z
loop_
_atom_site_type_symbol
_atom_site_label
_atom_site_fract_x
_atom_site_fract_y
_atom_site_fract_z
Si Si1 0.135394 0.070465 0.677052
Si Si2 0.566801 0.404975 0.049192
Si Si3 0.266262 0.722028 0.822504
Si Si4 0.729672 0.889030 0.062771
Si Si5 0.720696 0.585507 0.112644
Si Si6 0.665642 0.283126 0.994620
O O1 0.110044 0.050143 0.750000
O O2 0.085265 0.065071 0.622667
O O3 0.167088 0.182986 0.675326
O O4 0.184649 0.984389 0.662554
O O5 0.500000 0.374139 0.049426
O O6 0.580057 0.500000 0.000000
O O7 0.601737 0.303613 0.022701
O O8 0.241685 0.720835 0.750000
O O9 0.222109 0.645913 0.862056
O O10 0.265152 0.840885 0.849218
O O11 0.677270 0.841937 0.018656
O O12 0.740611 0.014672 0.061318
O O13 0.788741 0.825977 0.046690
O O14 0.675038 0.653518 0.071991
#
# Coordination Sequence:
#
# PCOD8255358 Si02
#       6
#    16  16  16  16  16  16
#     4  10  19  31  44  64  95 124 152 185 223 269
#     4  11  20  32  48  65  89 122 158 191 224 265
#     4   9  17  26  40  63  92 123 148 176 221 269
#     4   9  17  25  45  63  91 116 147 183 220 275
#     4  10  16  27  44  67  93 120 146 181 224 273
#     4  10  16  29  43  67  90 114 149 182 228 265
#
# _framework density 15.796016
#
# number of rings (size 3 to 8) (size 9 to 14) (size 15 to 20)
#    0.000    2.167    5.000    1.000    0.000    1.000 
#    0.000    0.000    0.000    0.000    0.000    2.333 
#    0.000    0.000    0.000    0.000    0.000    0.000 
#
# Total GULP energy -594686.102633 kJ/mol
# GULP energy per Si atom -12389.293805 kJ/mol
# Density = 1.576006 g / cm^3
# Si number density = 15.796016 Si / 1000 Ang^3
#
#
#
# Elastic Constant Matrix: (Units=GPa)
#
#
# Indices 1 2 3 4 5 6 
#
# 1 74.0843 22.9046 28.6894 0.0000 0.0000 0.0000
# 2 22.9046 35.4451 -1.6069 0.0000 0.0000 0.0000
# 3 28.6894 -1.6069 85.2293 0.0000 0.0000 0.0000
# 4 0.0000 0.0000 0.0000 22.2387 0.0000 0.0000
# 5 0.0000 0.0000 0.0000 0.0000 16.2800 0.0000
# 6 0.0000 0.0000 0.0000 0.0000 0.0000 16.4516
#
#
#
# Elastic Compliance Matrix: (Units=1/GPa)
#
#
# Indices 1 2 3 4 5 6 
#
# 1 0.020448 -0.013537 -0.007138 0.000000 0.000000 0.000000
# 2 -0.013537 0.037198 0.005258 0.000000 0.000000 0.000000
# 3 -0.007138 0.005258 0.014235 0.000000 0.000000 0.000000
# 4 0.000000 0.000000 0.000000 0.044967 0.000000 0.000000
# 5 0.000000 0.000000 0.000000 0.000000 0.061425 0.000000
# 6 0.000000 0.000000 0.000000 0.000000 0.000000 0.060784
#
#
# Mechanical properties :
#
#
# Convention : Reuss Voigt Hill
#
# Bulk Modulus (GPa) = 24.36227 32.74812 28.55519
# Shear Modulus (GPa) = 17.63211 20.64549 19.13880
#
# Velocity S-wave (km/s) = 3.34464 3.61918 3.48461
# Velocity P-wave (km/s) = 5.51108 6.18397 5.85720
#
# Compressibility (1/GPa) = 0.04104708
#
# Stress axis : x y z
#
# Youngs Moduli (GPa) = 48.90551 26.88285 70.24935
#
# Poissons Ratio (x) = 0.36391 0.50145
# Poissons Ratio (y) = 0.66202 -0.36937
# Poissons Ratio (z) = 0.34910 -0.14135
#
# Static dielectric constant tensor:
#      x y z
#    x 2.603090 0.000000 0.000000 
#    y 0.000000 3.103400 0.000000 
#    z 0.000000 0.000000 3.316480 
# 
# 
# High freq. dielectric constant tensor:
#      x y z
#    x 1.543580 0.000000 0.000000 
#    y 0.000000 1.597880 0.000000 
#    z 0.000000 0.000000 1.632830 
# 
# From -- ./inp_files/56688.got.cif
#   From: 2010.03.12/outbox.cif.g09.slc.cpg/sg63_29_cif.got.tgz:56688.got - 2010.04.10 19:34:48.
