data_PCOD8255570
_publ_section_title
;
Structure prediction by ZEFSAII (Michael W. Deem and Ramdas Pophale) SiO2 
 PCOD8255570
Probable space group: C M C M
;
_chemical_formula_sum "Si O2"
_cell_formula_units_Z 96
_cell_length_a 20.001900
_cell_length_b 12.278296
_cell_length_c 22.033792
_cell_angle_alpha 90.000000
_cell_angle_beta 90.000000
_cell_angle_gamma 90.000000
_cell_volume 5411.262425
_symmetry_space_group_name_H-M "C M C M"
_symmetry_group_IT_number 63
_symmetry_cell_setting 'orthorhombic'
loop_
_space_group_symop_operation_xyz
x,y,z
-x,-y,1/2+z
x,-y,-z
-x,y,1/2-z
-x,-y,-z
x,y,1/2-z
-x,y,z
x,-y,1/2+z
1/2+x,1/2+y,z
1/2-x,1/2-y,1/2+z
1/2+x,1/2-y,-z
1/2-x,1/2+y,1/2-z
1/2-x,1/2-y,-z
1/2+x,1/2+y,1/2-z
1/2-x,1/2+y,z
1/2+x,1/2-y,1/2+z
loop_
_atom_site_type_symbol
_atom_site_label
_atom_site_fract_x
_atom_site_fract_y
_atom_site_fract_z
Si Si1 0.264880 0.370638 0.393208
Si Si2 0.358952 0.487834 0.818791
Si Si3 0.857730 0.277981 0.531272
Si Si4 0.000000 0.194783 0.539305
Si Si5 0.500000 0.476667 0.358140
Si Si6 0.000000 0.788286 0.598706
Si Si7 0.643607 0.731255 0.104609
Si Si8 0.295166 0.000000 0.000000
O O1 0.301656 0.426764 0.336985
O O2 0.309462 0.272472 0.418584
O O3 0.195793 0.318015 0.367996
O O4 0.251797 0.458624 0.445761
O O5 0.346811 0.449856 0.750000
O O6 0.430703 0.550243 0.823480
O O7 0.352136 0.385029 0.863252
O O8 0.842561 0.216508 0.467426
O O9 0.843317 0.405609 0.524935
O O10 0.934002 0.265301 0.553874
O O11 0.000000 0.083289 0.577233
O O12 0.000000 0.163155 0.469051
O O13 0.500000 0.606550 0.359652
O O14 0.932232 0.719905 0.612001
#
# Coordination Sequence:
#
# PCOD8255570 Si02
#       8
#    16  16  16   8   8   8  16   8
#     4  11  19  33  52  75 105 136 169 208 256 308
#     4  11  22  34  51  74 101 135 174 213 253 296
#     4  10  19  32  52  77 105 137 168 205 257 309
#     4  10  17  30  49  76 105 133 166 201 249 313
#     4  10  18  34  49  71 102 132 167 212 254 299
#     4   8  17  29  50  77  99 130 164 207 255 302
#     4   9  19  33  51  74 104 131 169 210 254 302
#     4  10  20  33  52  77 104 136 166 208 258 311
#
# _framework density 17.740777000000001
#
# number of rings (size 3 to 8) (size 9 to 14) (size 15 to 20)
#    0.000    2.000    1.667    4.500    0.000    1.000 
#    0.000    0.833    0.000    0.000    0.000    0.000 
#    0.000    0.000    0.000    0.000    0.000    0.000 
#
# Total GULP energy -594946.767238 kJ/mol
# GULP energy per Si atom -12394.724317 kJ/mol
# Density = 1.770040 g / cm^3
# Si number density = 17.740777 Si / 1000 Ang^3
#
#
#
# Elastic Constant Matrix: (Units=GPa)
#
#
# Indices 1 2 3 4 5 6 
#
# 1 139.9846 46.4827 33.1597 0.0000 0.0000 0.0000
# 2 46.4827 80.1698 32.4298 0.0000 0.0000 0.0000
# 3 33.1597 32.4298 55.2598 0.0000 0.0000 0.0000
# 4 0.0000 0.0000 0.0000 10.9683 0.0000 0.0000
# 5 0.0000 0.0000 0.0000 0.0000 15.1765 0.0000
# 6 0.0000 0.0000 0.0000 0.0000 0.0000 29.2900
#
#
#
# Elastic Compliance Matrix: (Units=1/GPa)
#
#
# Indices 1 2 3 4 5 6 
#
# 1 0.009247 -0.004087 -0.003150 0.000000 0.000000 0.000000
# 2 -0.004087 0.018163 -0.008207 0.000000 0.000000 0.000000
# 3 -0.003150 -0.008207 0.024803 0.000000 0.000000 0.000000
# 4 0.000000 0.000000 0.000000 0.091172 0.000000 0.000000
# 5 0.000000 0.000000 0.000000 0.000000 0.065891 0.000000
# 6 0.000000 0.000000 0.000000 0.000000 0.000000 0.034141
#
#
# Mechanical properties :
#
#
# Convention : Reuss Voigt Hill
#
# Bulk Modulus (GPa) = 46.89361 55.50652 51.20006
# Shear Modulus (GPa) = 17.76744 21.97643 19.87193
#
# Velocity S-wave (km/s) = 3.16809 3.52341 3.35046
# Velocity P-wave (km/s) = 6.31446 6.92156 6.62497
#
# Compressibility (1/GPa) = 0.02132487
#
# Stress axis : x y z
#
# Youngs Moduli (GPa) = 108.14267 55.05729 40.31800
#
# Poissons Ratio (x) = 0.22503 0.12701
# Poissons Ratio (y) = 0.44199 0.33087
# Poissons Ratio (z) = 0.34068 0.45183
#
# Static dielectric constant tensor:
#      x y z
#    x 3.829750 0.000000 0.000000 
#    y 0.000000 3.023200 0.000000 
#    z 0.000000 0.000000 2.976920 
# 
# 
# High freq. dielectric constant tensor:
#      x y z
#    x 1.712070 0.000000 0.000000 
#    y 0.000000 1.660720 0.000000 
#    z 0.000000 0.000000 1.651470 
# 
# From -- ./inp_files/64605.got.cif
#   From: 2010.03.12/outbox.cif.g09.slc.cpg/sg63_33_cif.got.tgz:64605.got - 2010.04.10 19:34:48.
