data_PCOD8255916
_publ_section_title
;
Structure prediction by ZEFSAII (Michael W. Deem and Ramdas Pophale) SiO2 
 PCOD8255916
Probable space group: C M C M
;
_chemical_formula_sum "Si O2"
_cell_formula_units_Z 128
_cell_length_a 18.937078
_cell_length_b 18.645641
_cell_length_c 19.722973
_cell_angle_alpha 90.000000
_cell_angle_beta 90.000000
_cell_angle_gamma 90.000000
_cell_volume 6964.062600
_symmetry_space_group_name_H-M "C M C M"
_symmetry_group_IT_number 63
_symmetry_cell_setting 'orthorhombic'
loop_
_space_group_symop_operation_xyz
x,y,z
-x,-y,1/2+z
x,-y,-z
-x,y,1/2-z
-x,-y,-z
x,y,1/2-z
-x,y,z
x,-y,1/2+z
1/2+x,1/2+y,z
1/2-x,1/2-y,1/2+z
1/2+x,1/2-y,-z
1/2-x,1/2+y,1/2-z
1/2-x,1/2-y,-z
1/2+x,1/2+y,1/2-z
1/2-x,1/2+y,z
1/2+x,1/2-y,1/2+z
loop_
_atom_site_type_symbol
_atom_site_label
_atom_site_fract_x
_atom_site_fract_y
_atom_site_fract_z
Si Si1 0.338487 0.325561 0.827309
Si Si2 0.077435 0.688218 0.669712
Si Si3 0.077771 0.091390 0.065691
Si Si4 0.918445 0.593838 0.331080
Si Si5 0.156228 0.550805 0.830649
Si Si6 0.922379 0.924040 0.082205
Si Si7 0.799216 0.124731 0.669315
Si Si8 0.683219 0.215648 0.327233
O O1 0.363310 0.341239 0.750000
O O2 0.366704 0.248427 0.852567
O O3 0.367586 0.384830 0.877507
O O4 0.254518 0.330275 0.832371
O O5 0.074718 0.685160 0.750000
O O6 0.101917 0.611011 0.642595
O O7 0.000000 0.705600 0.639719
O O8 0.000000 0.125030 0.079577
O O9 0.071873 0.007349 0.070331
O O10 0.102850 0.112301 0.989137
O O11 0.917129 0.592581 0.250000
O O12 0.872792 0.525505 0.358626
O O13 0.880062 0.666718 0.358883
O O14 0.000000 0.591207 0.356909
O O15 0.158685 0.547824 0.750000
O O16 0.233443 0.576475 0.857888
O O17 0.870709 0.911143 0.144530
O O18 0.000000 0.893773 0.101699
O O19 0.795410 0.126840 0.750000
O O20 0.802463 0.206332 0.639113
O O21 0.662423 0.230490 0.250000
#
# Coordination Sequence:
#
# PCOD8255916 Si02
#       8
#    16  16  16  16  16  16  16  16
#     4  10  18  29  48  77 106 131 161 203 255 311
#     4   9  15  24  41  66  97 130 160 195 248 308
#     4   9  19  36  53  71 101 135 167 207 256 310
#     4   9  17  28  43  65  96 137 177 205 242 304
#     4   9  16  27  43  67  98 130 164 208 255 298
#     4   9  20  37  53  70  97 135 173 211 256 306
#     4  10  19  32  51  75 103 134 169 213 261 305
#     4   9  18  31  45  69 107 138 161 204 261 302
#
# _framework density 18.380075999999999
#
# number of rings (size 3 to 8) (size 9 to 14) (size 15 to 20)
#    0.000    2.750    1.250    1.500    1.750    3.500 
#    0.000    3.125    0.000    0.000    0.000    0.000 
#    0.000    1.000    0.000    0.000    0.000    0.000 
#
# Total GULP energy -792852.519057 kJ/mol
# GULP energy per Si atom -12388.320610 kJ/mol
# Density = 1.833824 g / cm^3
# Si number density = 18.380076 Si / 1000 Ang^3
#
#
#
# Elastic Constant Matrix: (Units=GPa)
#
#
# Indices 1 2 3 4 5 6 
#
# 1 128.3005 55.4705 18.6844 0.0000 0.0000 0.0000
# 2 55.4705 78.9607 11.8832 0.0000 0.0000 0.0000
# 3 18.6844 11.8832 12.1186 0.0000 0.0000 0.0000
# 4 0.0000 0.0000 0.0000 8.3485 0.0000 0.0000
# 5 0.0000 0.0000 0.0000 0.0000 5.6054 0.0000
# 6 0.0000 0.0000 0.0000 0.0000 0.0000 25.4652
#
#
#
# Elastic Compliance Matrix: (Units=1/GPa)
#
#
# Indices 1 2 3 4 5 6 
#
# 1 0.012660 -0.006987 -0.012667 0.000000 0.000000 0.000000
# 2 -0.006987 0.018713 -0.007577 0.000000 0.000000 0.000000
# 3 -0.012667 -0.007577 0.109478 0.000000 0.000000 0.000000
# 4 0.000000 0.000000 0.000000 0.119782 0.000000 0.000000
# 5 0.000000 0.000000 0.000000 0.000000 0.178400 0.000000
# 6 0.000000 0.000000 0.000000 0.000000 0.000000 0.039269
#
#
# Mechanical properties :
#
#
# Convention : Reuss Voigt Hill
#
# Bulk Modulus (GPa) = 11.57566 43.49511 27.53538
# Shear Modulus (GPa) = 8.90373 16.77327 12.83850
#
# Velocity S-wave (km/s) = 2.20335 3.02417 2.64578
# Velocity P-wave (km/s) = 3.57556 5.99248 4.93429
#
# Compressibility (1/GPa) = 0.08638819
#
# Stress axis : x y z
#
# Youngs Moduli (GPa) = 78.98975 53.43752 9.13423
#
# Poissons Ratio (x) = 0.37338 0.11571
# Poissons Ratio (y) = 0.55192 0.06921
# Poissons Ratio (z) = 1.00059 0.40490
#
# Static dielectric constant tensor:
#      x y z
#    x 3.665970 0.000000 0.000000 
#    y 0.000000 3.503680 0.000000 
#    z 0.000000 0.000000 2.889740 
# 
# 
# High freq. dielectric constant tensor:
#      x y z
#    x 1.723650 0.000000 0.000000 
#    y 0.000000 1.714490 0.000000 
#    z 0.000000 0.000000 1.641490 
# 
# From -- ./inp_files/64074.got.cif
#   From: 2010.03.12/outbox.cif.g09.slc.cpg/sg63_33_cif.got.tgz:64074.got - 2010.04.10 19:34:48.
