data_PCOD8255725
_publ_section_title
;
Structure prediction by ZEFSAII (Michael W. Deem and Ramdas Pophale) SiO2 
 PCOD8255725
Probable space group: C M C M
;
_chemical_formula_sum "Si O2"
_cell_formula_units_Z 96
_cell_length_a 13.378117
_cell_length_b 25.218260
_cell_length_c 18.864157
_cell_angle_alpha 90.000000
_cell_angle_beta 90.000000
_cell_angle_gamma 90.000000
_cell_volume 6364.254086
_symmetry_space_group_name_H-M "C M C M"
_symmetry_group_IT_number 63
_symmetry_cell_setting 'orthorhombic'
loop_
_space_group_symop_operation_xyz
x,y,z
-x,-y,1/2+z
x,-y,-z
-x,y,1/2-z
-x,-y,-z
x,y,1/2-z
-x,y,z
x,-y,1/2+z
1/2+x,1/2+y,z
1/2-x,1/2-y,1/2+z
1/2+x,1/2-y,-z
1/2-x,1/2+y,1/2-z
1/2-x,1/2-y,-z
1/2+x,1/2+y,1/2-z
1/2-x,1/2+y,z
1/2+x,1/2-y,1/2+z
loop_
_atom_site_type_symbol
_atom_site_label
_atom_site_fract_x
_atom_site_fract_y
_atom_site_fract_z
Si Si1 0.882967 0.884025 0.168430
Si Si2 0.881329 0.003473 0.171591
Si Si3 0.117867 0.202000 0.172527
Si Si4 0.881294 0.897804 0.584911
Si Si5 0.197543 0.831554 0.035714
Si Si6 0.114633 0.267452 0.039969
O O1 0.859182 0.869640 0.250000
O O2 0.821438 0.844604 0.118015
O O3 0.000000 0.877628 0.152635
O O4 0.847838 0.944144 0.151478
O O5 0.839918 0.018324 0.250000
O O6 0.842264 0.045173 0.112755
O O7 0.000000 0.006431 0.174600
O O8 0.166782 0.211942 0.250000
O O9 0.153359 0.145326 0.142878
O O10 0.148189 0.248447 0.118480
O O11 0.000000 0.200691 0.179513
O O12 0.829334 0.883586 0.510351
O O13 0.000000 0.897150 0.572869
O O14 0.313702 0.816755 0.021748
O O15 0.128450 0.781595 0.014012
O O16 0.000000 0.286549 0.036767
#
# Coordination Sequence:
#
# PCOD8255725 Si02
#       6
#    16  16  16  16  16  16
#     4   9  17  28  41  59  85 113 136 158 188 233
#     4   8  14  24  38  59  87 112 129 152 193 241
#     4   8  13  22  37  56  77 100 125 154 191 235
#     4   9  15  23  38  60  84 107 129 157 195 237
#     4  10  18  28  42  59  80 106 137 167 199 239
#     4   9  18  30  42  57  79 106 134 169 207 237
#
# _framework density 15.084250000000001
#
# number of rings (size 3 to 8) (size 9 to 14) (size 15 to 20)
#    0.000    3.167    0.000    4.000    0.000    3.333 
#    0.000    2.500    0.000    0.000    0.000    2.333 
#    0.000    1.333    0.000    0.000    0.000    0.000 
#
# Total GULP energy -594874.370340 kJ/mol
# GULP energy per Si atom -12393.216049 kJ/mol
# Density = 1.504992 g / cm^3
# Si number density = 15.084250 Si / 1000 Ang^3
#
#
#
# Elastic Constant Matrix: (Units=GPa)
#
#
# Indices 1 2 3 4 5 6 
#
# 1 50.7776 27.5862 27.7757 0.0000 0.0000 0.0000
# 2 27.5862 55.2001 43.8112 0.0000 0.0000 0.0000
# 3 27.7757 43.8112 98.2870 0.0000 0.0000 0.0000
# 4 0.0000 0.0000 0.0000 7.7713 0.0000 0.0000
# 5 0.0000 0.0000 0.0000 0.0000 9.9098 0.0000
# 6 0.0000 0.0000 0.0000 0.0000 0.0000 15.4275
#
#
#
# Elastic Compliance Matrix: (Units=1/GPa)
#
#
# Indices 1 2 3 4 5 6 
#
# 1 0.027437 -0.011695 -0.002541 0.000000 0.000000 0.000000
# 2 -0.011695 0.033019 -0.011413 0.000000 0.000000 0.000000
# 3 -0.002541 -0.011413 0.015980 0.000000 0.000000 0.000000
# 4 0.000000 0.000000 0.000000 0.128679 0.000000 0.000000
# 5 0.000000 0.000000 0.000000 0.000000 0.100910 0.000000
# 6 0.000000 0.000000 0.000000 0.000000 0.000000 0.064819
#
#
# Mechanical properties :
#
#
# Convention : Reuss Voigt Hill
#
# Bulk Modulus (GPa) = 39.78059 44.73454 42.25756
# Shear Modulus (GPa) = 11.61382 13.62782 12.62082
#
# Velocity S-wave (km/s) = 2.77777 3.00900 2.89569
# Velocity P-wave (km/s) = 6.05950 6.46475 6.26540
#
# Compressibility (1/GPa) = 0.02513789
#
# Stress axis : x y z
#
# Youngs Moduli (GPa) = 36.44692 30.28566 62.57999
#
# Poissons Ratio (x) = 0.35420 0.15899
# Poissons Ratio (y) = 0.42626 0.71423
# Poissons Ratio (z) = 0.09259 0.34565
#
# Static dielectric constant tensor:
#      x y z
#    x 2.455450 0.000000 0.000000 
#    y 0.000000 2.861610 0.000000 
#    z 0.000000 0.000000 2.754120 
# 
# 
# High freq. dielectric constant tensor:
#      x y z
#    x 1.517670 0.000000 0.000000 
#    y 0.000000 1.565840 0.000000 
#    z 0.000000 0.000000 1.589360 
# 
# From -- ./inp_files/53027.got.cif
#   From: 2010.03.12/outbox.cif.g09.slc.cpg/sg63_27_cif.got.tgz:53027.got - 2010.04.10 19:34:48.
