data_PCOD8255658
_publ_section_title
;
Structure prediction by ZEFSAII (Michael W. Deem and Ramdas Pophale) SiO2 
 PCOD8255658
Probable space group: C M C M
;
_chemical_formula_sum "Si O2"
_cell_formula_units_Z 72
_cell_length_a 23.509536
_cell_length_b 22.647596
_cell_length_c 9.059221
_cell_angle_alpha 90.000000
_cell_angle_beta 90.000000
_cell_angle_gamma 90.000000
_cell_volume 4823.441563
_symmetry_space_group_name_H-M "C M C M"
_symmetry_group_IT_number 63
_symmetry_cell_setting 'orthorhombic'
loop_
_space_group_symop_operation_xyz
x,y,z
-x,-y,1/2+z
x,-y,-z
-x,y,1/2-z
-x,-y,-z
x,y,1/2-z
-x,y,z
x,-y,1/2+z
1/2+x,1/2+y,z
1/2-x,1/2-y,1/2+z
1/2+x,1/2-y,-z
1/2-x,1/2+y,1/2-z
1/2-x,1/2-y,-z
1/2+x,1/2+y,1/2-z
1/2-x,1/2+y,z
1/2+x,1/2-y,1/2+z
loop_
_atom_site_type_symbol
_atom_site_label
_atom_site_fract_x
_atom_site_fract_y
_atom_site_fract_z
Si Si1 0.000000 0.437378 0.576243
Si Si2 0.272458 0.062338 0.076463
Si Si3 0.717348 0.334122 0.083337
Si Si4 0.387116 0.129680 0.422056
Si Si5 0.835815 0.733864 0.916040
O O1 0.000000 0.500000 0.500000
O O2 0.944711 0.401413 0.524982
O O3 0.000000 0.447999 0.750000
O O4 0.262294 0.056335 0.250000
O O5 0.335425 0.085886 0.039792
O O6 0.225234 0.106267 0.010175
O O7 0.264350 0.000000 0.000000
O O8 0.698655 0.349700 0.250000
O O9 0.775340 0.297816 0.083916
O O10 0.668251 0.294857 0.007078
O O11 0.387865 0.145249 0.250000
O O12 0.382015 0.191180 0.508912
O O13 0.855528 0.748265 0.750000
#
# Coordination Sequence:
#
# PCOD8255658 Si02
#       5
#     8  16  16  16  16
#     4  10  20  32  44  58  78 106 141 178 213 244
#     4  10  18  27  39  56  79 106 136 167 200 239
#     4   9  16  26  40  57  77 100 126 158 197 240
#     4   9  18  30  42  56  76 104 137 173 209 243
#     4   9  16  26  41  59  76  96 126 163 201 241
#
# _framework density 14.927102
#
# number of rings (size 3 to 8) (size 9 to 14) (size 15 to 20)
#    0.000    2.667    0.000    2.667    0.000    7.111 
#    0.000    0.000    0.000    0.000    0.000    0.000 
#    0.000    0.000    0.000    1.000    0.000   12.667 
#
# Total GULP energy -446411.912154 kJ/mol
# GULP energy per Si atom -12400.330893 kJ/mol
# Density = 1.489313 g / cm^3
# Si number density = 14.927102 Si / 1000 Ang^3
#
#
#
# Elastic Constant Matrix: (Units=GPa)
#
#
# Indices 1 2 3 4 5 6 
#
# 1 51.5846 55.6728 34.7374 0.0000 0.0000 0.0000
# 2 55.6728 126.9609 71.2124 0.0000 0.0000 0.0000
# 3 34.7374 71.2124 102.6855 0.0000 0.0000 0.0000
# 4 0.0000 0.0000 0.0000 33.7478 0.0000 0.0000
# 5 0.0000 0.0000 0.0000 0.0000 14.8466 0.0000
# 6 0.0000 0.0000 0.0000 0.0000 0.0000 22.1509
#
#
#
# Elastic Compliance Matrix: (Units=1/GPa)
#
#
# Indices 1 2 3 4 5 6 
#
# 1 0.037071 -0.015092 -0.002074 0.000000 0.000000 0.000000
# 2 -0.015092 0.019035 -0.008095 0.000000 0.000000 0.000000
# 3 -0.002074 -0.008095 0.016054 0.000000 0.000000 0.000000
# 4 0.000000 0.000000 0.000000 0.029632 0.000000 0.000000
# 5 0.000000 0.000000 0.000000 0.000000 0.067355 0.000000
# 6 0.000000 0.000000 0.000000 0.000000 0.000000 0.045145
#
#
# Mechanical properties :
#
#
# Convention : Reuss Voigt Hill
#
# Bulk Modulus (GPa) = 46.21785 67.16402 56.69093
# Shear Modulus (GPa) = 18.38048 22.12295 20.25172
#
# Velocity S-wave (km/s) = 3.51287 3.85394 3.68735
# Velocity P-wave (km/s) = 6.89081 8.05581 7.49598
#
# Compressibility (1/GPa) = 0.02163666
#
# Stress axis : x y z
#
# Youngs Moduli (GPa) = 26.97544 52.53456 62.28899
#
# Poissons Ratio (x) = 0.79287 0.12920
# Poissons Ratio (y) = 0.40712 0.50425
# Poissons Ratio (z) = 0.05595 0.42528
#
# Static dielectric constant tensor:
#      x y z
#    x 2.587010 0.000000 0.000000 
#    y 0.000000 2.888670 0.000000 
#    z 0.000000 0.000000 3.065930 
# 
# 
# High freq. dielectric constant tensor:
#      x y z
#    x 1.515080 0.000000 0.000000 
#    y 0.000000 1.568070 0.000000 
#    z 0.000000 0.000000 1.588250 
# 
# From -- ./inp_files/6113.got.cif
#   From: 2010.03.12/outbox.cif.g09.slc.cpg/sg63_4_cif.got.tgz:6113.got - 2010.04.10 19:34:48.
