data_PCOD8255353
_publ_section_title
;
Structure prediction by ZEFSAII (Michael W. Deem and Ramdas Pophale) SiO2 
 PCOD8255353
Probable space group: C M C M
;
_chemical_formula_sum "Si O2"
_cell_formula_units_Z 80
_cell_length_a 19.687545
_cell_length_b 8.449631
_cell_length_c 26.486567
_cell_angle_alpha 90.000000
_cell_angle_beta 90.000000
_cell_angle_gamma 90.000000
_cell_volume 4406.106386
_symmetry_space_group_name_H-M "C M C M"
_symmetry_group_IT_number 63
_symmetry_cell_setting 'orthorhombic'
loop_
_space_group_symop_operation_xyz
x,y,z
-x,-y,1/2+z
x,-y,-z
-x,y,1/2-z
-x,-y,-z
x,y,1/2-z
-x,y,z
x,-y,1/2+z
1/2+x,1/2+y,z
1/2-x,1/2-y,1/2+z
1/2+x,1/2-y,-z
1/2-x,1/2+y,1/2-z
1/2-x,1/2-y,-z
1/2+x,1/2+y,1/2-z
1/2-x,1/2+y,z
1/2+x,1/2-y,1/2+z
loop_
_atom_site_type_symbol
_atom_site_label
_atom_site_fract_x
_atom_site_fract_y
_atom_site_fract_z
Si Si1 0.176860 0.367622 0.144467
Si Si2 0.419909 0.589548 0.353700
Si Si3 0.351190 0.489820 0.750000
Si Si4 0.155165 0.954045 0.447250
Si Si5 0.721851 0.844732 0.913585
Si Si6 0.776450 0.333093 0.250000
O O1 0.107787 0.267664 0.138815
O O2 0.241799 0.260910 0.129121
O O3 0.171768 0.526368 0.111526
O O4 0.189494 0.418193 0.201946
O O5 0.500000 0.596236 0.355561
O O6 0.397133 0.516890 0.300070
O O7 0.393248 0.480393 0.399273
O O8 0.305648 0.648659 0.750000
O O9 0.294949 0.351686 0.750000
O O10 0.176348 0.769200 0.448588
O O11 0.117787 0.000000 0.500000
O O12 0.221685 0.065388 0.446248
#
# Coordination Sequence:
#
# PCOD8255353 Si02
#       6
#    16  16   8  16  16   8
#     4   9  17  29  49  73 101 129 159 207 253 298
#     4  10  21  35  49  69 101 140 174 198 234 297
#     4  10  19  32  54  76  99 128 160 206 254 296
#     4  10  19  32  53  76 101 131 165 213 260 301
#     4   9  17  31  49  75 100 122 160 211 268 303
#     4  10  16  26  48  78  98 120 158 202 254 296
#
# _framework density 18.156621000000001
#
# number of rings (size 3 to 8) (size 9 to 14) (size 15 to 20)
#    0.000    2.400    0.000    5.700    0.000    0.400 
#    0.000    1.000    0.000    1.200    0.000    7.000 
#    0.000    0.000    0.000    0.000    0.000    0.000 
#
# Total GULP energy -495916.936914 kJ/mol
# GULP energy per Si atom -12397.923423 kJ/mol
# Density = 1.811530 g / cm^3
# Si number density = 18.156621 Si / 1000 Ang^3
#
#
#
# Elastic Constant Matrix: (Units=GPa)
#
#
# Indices 1 2 3 4 5 6 
#
# 1 95.3742 27.7113 21.3446 0.0000 0.0000 0.0000
# 2 27.7113 75.7103 23.1578 0.0000 0.0000 0.0000
# 3 21.3446 23.1578 107.1765 0.0000 0.0000 0.0000
# 4 0.0000 0.0000 0.0000 22.1755 0.0000 0.0000
# 5 0.0000 0.0000 0.0000 0.0000 10.5820 0.0000
# 6 0.0000 0.0000 0.0000 0.0000 0.0000 15.8560
#
#
#
# Elastic Compliance Matrix: (Units=1/GPa)
#
#
# Indices 1 2 3 4 5 6 
#
# 1 0.011965 -0.003909 -0.001538 0.000000 0.000000 0.000000
# 2 -0.003909 0.015420 -0.002553 0.000000 0.000000 0.000000
# 3 -0.001538 -0.002553 0.010188 0.000000 0.000000 0.000000
# 4 0.000000 0.000000 0.000000 0.045095 0.000000 0.000000
# 5 0.000000 0.000000 0.000000 0.000000 0.094500 0.000000
# 6 0.000000 0.000000 0.000000 0.000000 0.000000 0.063068
#
#
# Mechanical properties :
#
#
# Convention : Reuss Voigt Hill
#
# Bulk Modulus (GPa) = 46.35548 46.96537 46.66043
# Shear Modulus (GPa) = 18.98053 23.45919 21.21986
#
# Velocity S-wave (km/s) = 3.23674 3.59840 3.42235
# Velocity P-wave (km/s) = 6.28927 6.57173 6.43205
#
# Compressibility (1/GPa) = 0.02157242
#
# Stress axis : x y z
#
# Youngs Moduli (GPa) = 83.57694 64.85097 98.15022
#
# Poissons Ratio (x) = 0.25350 0.15098
# Poissons Ratio (y) = 0.32669 0.25061
# Poissons Ratio (z) = 0.12856 0.16559
#
# Static dielectric constant tensor:
#      x y z
#    x 2.973960 0.000000 0.000000 
#    y 0.000000 3.434090 0.000000 
#    z 0.000000 0.000000 3.501740 
# 
# 
# High freq. dielectric constant tensor:
#      x y z
#    x 1.657150 0.000000 0.000000 
#    y 0.000000 1.699890 0.000000 
#    z 0.000000 0.000000 1.718860 
# 
# From -- ./inp_files/64304.got.cif
#   From: 2010.03.12/outbox.cif.g09.slc.cpg/sg63_33_cif.got.tgz:64304.got - 2010.04.10 19:34:48.
