data_PCOD8255197
_publ_section_title
;
Structure prediction by ZEFSAII (Michael W. Deem and Ramdas Pophale) SiO2 
 PCOD8255197
Probable space group: P N M A
;
_chemical_formula_sum "Si O2"
_cell_formula_units_Z 40
_cell_length_a 10.598835
_cell_length_b 25.958478
_cell_length_c 6.639120
_cell_angle_alpha 90.000000
_cell_angle_beta 90.000000
_cell_angle_gamma 90.000000
_cell_volume 1826.618597
_symmetry_space_group_name_H-M "P N M A"
_symmetry_group_IT_number 62
_symmetry_cell_setting 'orthorhombic'
loop_
_space_group_symop_operation_xyz
x,y,z
1/2-x,-y,1/2+z
1/2+x,1/2-y,1/2-z
-x,1/2+y,-z
-x,-y,-z
1/2+x,y,1/2-z
1/2-x,1/2+y,1/2+z
x,1/2-y,z
loop_
_atom_site_type_symbol
_atom_site_label
_atom_site_fract_x
_atom_site_fract_y
_atom_site_fract_z
Si Si1 0.656224 0.548720 0.428314
Si Si2 0.681271 0.858797 0.144940
Si Si3 0.906364 0.530449 0.635753
Si Si4 0.960352 0.124330 0.248901
Si Si5 0.046420 0.310680 0.899335
O O1 0.693054 0.583832 0.234419
O O2 0.770649 0.523082 0.543408
O O3 0.582149 0.498067 0.351758
O O4 0.581713 0.583376 0.583445
O O5 0.818480 0.832762 0.173767
O O6 0.568498 0.827908 0.255217
O O7 0.648896 0.859661 0.905707
O O8 0.000000 0.500000 0.500000
O O9 0.931655 0.592143 0.635295
O O10 0.016650 0.173387 0.131250
O O11 0.056956 0.250000 0.891430
#
# Coordination Sequence:
#
# PCOD8255197 Si02
#       5
#     8   8   8   8   8
#     4  11  25  39  63  98 135 180 230 279 340 411
#     4  11  24  47  71 101 139 181 236 292 353 420
#     4  12  23  40  65  96 137 186 224 277 339 408
#     4  11  24  44  66  98 137 181 233 282 343 418
#     4  11  26  45  73 102 136 181 233 297 358 419
#
# _framework density 21.898387
#
# number of rings (size 3 to 8) (size 9 to 14) (size 15 to 20)
#    0.000    0.800    2.000    4.800    5.600    3.200 
#    0.000    0.000    0.000    0.000    0.000    0.000 
#    0.000    0.000    0.000    0.000    0.000    0.000 
#
# Total GULP energy -495799.118323 kJ/mol
# GULP energy per Si atom -12394.977958 kJ/mol
# Density = 2.184855 g / cm^3
# Si number density = 21.898387 Si / 1000 Ang^3
#
#
#
# Elastic Constant Matrix: (Units=GPa)
#
#
# Indices 1 2 3 4 5 6 
#
# 1 89.1452 8.1587 20.3888 0.0000 0.0000 0.0000
# 2 8.1587 86.1414 11.9262 0.0000 0.0000 0.0000
# 3 20.3888 11.9262 92.0110 0.0000 0.0000 0.0000
# 4 0.0000 0.0000 0.0000 32.5281 0.0000 0.0000
# 5 0.0000 0.0000 0.0000 0.0000 41.1124 0.0000
# 6 0.0000 0.0000 0.0000 0.0000 0.0000 31.4014
#
#
#
# Elastic Compliance Matrix: (Units=1/GPa)
#
#
# Indices 1 2 3 4 5 6 
#
# 1 0.011867 -0.000774 -0.002529 0.000000 0.000000 0.000000
# 2 -0.000774 0.011871 -0.001367 0.000000 0.000000 0.000000
# 3 -0.002529 -0.001367 0.011606 0.000000 0.000000 0.000000
# 4 0.000000 0.000000 0.000000 0.030743 0.000000 0.000000
# 5 0.000000 0.000000 0.000000 0.000000 0.024324 0.000000
# 6 0.000000 0.000000 0.000000 0.000000 0.000000 0.031846
#
#
# Mechanical properties :
#
#
# Convention : Reuss Voigt Hill
#
# Bulk Modulus (GPa) = 38.45621 38.69388 38.57505
# Shear Modulus (GPa) = 35.64685 36.12997 35.88841
#
# Velocity S-wave (km/s) = 4.03901 4.06629 4.05268
# Velocity P-wave (km/s) = 6.27303 6.30511 6.28909
#
# Compressibility (1/GPa) = 0.02600360
#
# Stress axis : x y z
#
# Youngs Moduli (GPa) = 84.26755 84.23606 86.16265
#
# Poissons Ratio (x) = 0.06518 0.21793
# Poissons Ratio (y) = 0.06520 0.11781
# Poissons Ratio (z) = 0.21314 0.11517
#
# Static dielectric constant tensor:
#      x y z
#    x 3.425320 0.000000 0.000000 
#    y 0.000000 4.045020 0.000000 
#    z 0.000000 0.000000 5.213740 
# 
# 
# High freq. dielectric constant tensor:
#      x y z
#    x 1.868500 0.000000 0.000000 
#    y 0.000000 1.858230 0.000000 
#    z 0.000000 0.000000 1.873300 
# 
# From -- ./inp_files/602.got.cif
#   From: 2010.03.12/outbox.cif.g09.slc.cpg/sg62_1_cif.got.tgz:602.got - 2010.04.10 19:12:36.
