data_PCOD8255437
_publ_section_title
;
Structure prediction by ZEFSAII (Michael W. Deem and Ramdas Pophale) SiO2 
 PCOD8255437
Probable space group: C M C M
;
_chemical_formula_sum "Si O2"
_cell_formula_units_Z 96
_cell_length_a 28.894490
_cell_length_b 26.376128
_cell_length_c 8.913393
_cell_angle_alpha 90.000000
_cell_angle_beta 90.000000
_cell_angle_gamma 90.000000
_cell_volume 6793.117561
_symmetry_space_group_name_H-M "C M C M"
_symmetry_group_IT_number 63
_symmetry_cell_setting 'orthorhombic'
loop_
_space_group_symop_operation_xyz
x,y,z
-x,-y,1/2+z
x,-y,-z
-x,y,1/2-z
-x,-y,-z
x,y,1/2-z
-x,y,z
x,-y,1/2+z
1/2+x,1/2+y,z
1/2-x,1/2-y,1/2+z
1/2+x,1/2-y,-z
1/2-x,1/2+y,1/2-z
1/2-x,1/2-y,-z
1/2+x,1/2+y,1/2-z
1/2-x,1/2+y,z
1/2+x,1/2-y,1/2+z
loop_
_atom_site_type_symbol
_atom_site_label
_atom_site_fract_x
_atom_site_fract_y
_atom_site_fract_z
Si Si1 0.225936 0.295928 0.577937
Si Si2 0.190993 0.856503 0.926800
Si Si3 0.139072 0.052848 0.572740
Si Si4 0.052408 0.901830 0.577016
Si Si5 0.359136 0.261696 0.425138
Si Si6 0.448278 0.283433 0.576134
O O1 0.235640 0.286428 0.750000
O O2 0.250000 0.250000 0.500000
O O3 0.253815 0.347487 0.534594
O O4 0.170722 0.290472 0.544590
O O5 0.182004 0.864306 0.750000
O O6 0.175634 0.906053 0.014858
O O7 0.161218 0.808413 0.980465
O O8 0.142197 0.048766 0.750000
O O9 0.086652 0.066605 0.527404
O O10 0.153764 0.000000 0.500000
O O11 0.064155 0.913425 0.750000
O O12 0.059059 0.842674 0.543498
O O13 0.000000 0.918467 0.539634
O O14 0.358578 0.276103 0.250000
O O15 0.411483 0.251323 0.479276
O O16 0.440653 0.271404 0.750000
O O17 0.500000 0.267185 0.527049
#
# Coordination Sequence:
#
# PCOD8255437 Si02
#       6
#    16  16  16  16  16  16
#     4   8  16  27  41  61  83 104 126 155 195 238
#     4  10  18  31  46  59  80 106 129 161 202 242
#     4  12  24  35  47  62  78 100 131 169 210 253
#     4   9  18  33  49  61  76 100 131 168 210 252
#     4  10  17  26  42  65  85 103 131 164 197 237
#     4   9  17  28  42  59  81 110 138 164 201 244
#
# _framework density 14.13195
#
# number of rings (size 3 to 8) (size 9 to 14) (size 15 to 20)
#    0.000    2.333    1.667    3.500    0.000    2.333 
#    0.000    1.667    0.000    0.000    0.000    0.000 
#    0.000    0.000    0.000    0.000    0.000    0.833 
#
# Total GULP energy -594708.422797 kJ/mol
# GULP energy per Si atom -12389.758808 kJ/mol
# Density = 1.409979 g / cm^3
# Si number density = 14.131950 Si / 1000 Ang^3
#
#
#
# Elastic Constant Matrix: (Units=GPa)
#
#
# Indices 1 2 3 4 5 6 
#
# 1 105.1990 54.8695 46.6357 0.0000 0.0000 0.0000
# 2 54.8695 52.2562 34.2128 0.0000 0.0000 0.0000
# 3 46.6357 34.2128 75.7000 0.0000 0.0000 0.0000
# 4 0.0000 0.0000 0.0000 16.1870 0.0000 0.0000
# 5 0.0000 0.0000 0.0000 0.0000 21.9249 0.0000
# 6 0.0000 0.0000 0.0000 0.0000 0.0000 16.2418
#
#
#
# Elastic Compliance Matrix: (Units=1/GPa)
#
#
# Indices 1 2 3 4 5 6 
#
# 1 0.022011 -0.020215 -0.004424 0.000000 0.000000 0.000000
# 2 -0.020215 0.045745 -0.008221 0.000000 0.000000 0.000000
# 3 -0.004424 -0.008221 0.019651 0.000000 0.000000 0.000000
# 4 0.000000 0.000000 0.000000 0.061778 0.000000 0.000000
# 5 0.000000 0.000000 0.000000 0.000000 0.045610 0.000000
# 6 0.000000 0.000000 0.000000 0.000000 0.000000 0.061570
#
#
# Mechanical properties :
#
#
# Convention : Reuss Voigt Hill
#
# Bulk Modulus (GPa) = 46.11037 56.06569 51.08803
# Shear Modulus (GPa) = 15.18320 17.36657 16.27488
#
# Velocity S-wave (km/s) = 3.28134 3.50935 3.39726
# Velocity P-wave (km/s) = 6.85971 7.49532 7.18455
#
# Compressibility (1/GPa) = 0.02168709
#
# Stress axis : x y z
#
# Youngs Moduli (GPa) = 45.43280 21.86044 50.88902
#
# Poissons Ratio (x) = 0.44191 0.22511
# Poissons Ratio (y) = 0.91843 0.41835
# Poissons Ratio (z) = 0.20097 0.17971
#
# Static dielectric constant tensor:
#      x y z
#    x 3.234530 0.000000 0.000000 
#    y 0.000000 2.593240 0.000000 
#    z 0.000000 0.000000 2.791990 
# 
# 
# High freq. dielectric constant tensor:
#      x y z
#    x 1.541890 0.000000 0.000000 
#    y 0.000000 1.484720 0.000000 
#    z 0.000000 0.000000 1.551730 
# 
# From -- ./inp_files/12971.got.cif
#   From: 2010.03.12/outbox.cif.g09.slc.cpg/sg63_7_cif.got.tgz:12971.got - 2010.04.10 19:34:48.
