data_PCOD8255732
_publ_section_title
;
Structure prediction by ZEFSAII (Michael W. Deem and Ramdas Pophale) SiO2 
 PCOD8255732
Probable space group: C M C M
;
_chemical_formula_sum "Si O2"
_cell_formula_units_Z 96
_cell_length_a 33.113111
_cell_length_b 18.178328
_cell_length_c 9.372417
_cell_angle_alpha 90.000000
_cell_angle_beta 90.000000
_cell_angle_gamma 90.000000
_cell_volume 5641.641994
_symmetry_space_group_name_H-M "C M C M"
_symmetry_group_IT_number 63
_symmetry_cell_setting 'orthorhombic'
loop_
_space_group_symop_operation_xyz
x,y,z
-x,-y,1/2+z
x,-y,-z
-x,y,1/2-z
-x,-y,-z
x,y,1/2-z
-x,y,z
x,-y,1/2+z
1/2+x,1/2+y,z
1/2-x,1/2-y,1/2+z
1/2+x,1/2-y,-z
1/2-x,1/2+y,1/2-z
1/2-x,1/2-y,-z
1/2+x,1/2+y,1/2-z
1/2-x,1/2+y,z
1/2+x,1/2-y,1/2+z
loop_
_atom_site_type_symbol
_atom_site_label
_atom_site_fract_x
_atom_site_fract_y
_atom_site_fract_z
Si Si1 0.000000 0.325280 0.579873
Si Si2 0.079127 0.074719 0.918282
Si Si3 0.500000 0.659050 0.919084
Si Si4 0.332964 0.927674 0.917695
Si Si5 0.869644 0.208104 0.918277
Si Si6 0.587212 0.149697 0.419594
Si Si7 0.788766 0.277468 0.582773
O O1 0.958859 0.366640 0.525949
O O2 0.000000 0.322797 0.750000
O O3 0.000000 0.241819 0.519432
O O4 0.077482 0.059502 0.750000
O O5 0.116504 0.126871 0.962723
O O6 0.038712 0.114261 0.973408
O O7 0.086046 0.000000 0.000000
O O8 0.500000 0.664051 0.750000
O O9 0.332411 0.943759 0.750000
O O10 0.378869 0.908736 0.970445
O O11 0.302300 0.860969 0.954343
O O12 0.317913 0.000000 0.000000
O O13 0.871253 0.217689 0.750000
O O14 0.900195 0.269919 0.979698
O O15 0.824168 0.222627 0.969863
O O16 0.587593 0.150677 0.250000
O O17 0.780185 0.270163 0.750000
O O18 0.750000 0.250000 0.500000
#
# Coordination Sequence:
#
# PCOD8255732 Si02
#       7
#     8  16   8  16  16  16  16
#     4   9  12  19  40  69  91 112 153 202 230 254
#     4  10  18  28  42  63  91 122 155 191 230 271
#     4   9  15  23  40  65  89 116 155 196 229 264
#     4   9  18  32  50  73  99 125 153 187 229 277
#     4   8  14  27  45  63  87 118 151 188 227 268
#     4   8  13  23  42  67  91 116 153 194 224 257
#     4   9  18  33  53  75  95 118 152 193 234 278
#
# _framework density 17.016323
#
# number of rings (size 3 to 8) (size 9 to 14) (size 15 to 20)
#    0.000    3.167    1.667    2.250    0.000    0.667 
#    0.000    2.083    0.000    5.000    0.000    0.000 
#    0.000    0.000    0.000    0.000    0.000    0.000 
#
# Total GULP energy -594664.052244 kJ/mol
# GULP energy per Si atom -12388.834422 kJ/mol
# Density = 1.697759 g / cm^3
# Si number density = 17.016323 Si / 1000 Ang^3
#
#
#
# Elastic Constant Matrix: (Units=GPa)
#
#
# Indices 1 2 3 4 5 6 
#
# 1 144.5681 60.0782 32.6032 0.0000 0.0000 0.0000
# 2 60.0782 98.6352 34.0024 0.0000 0.0000 0.0000
# 3 32.6032 34.0024 27.4174 0.0000 0.0000 0.0000
# 4 0.0000 0.0000 0.0000 25.0376 0.0000 0.0000
# 5 0.0000 0.0000 0.0000 0.0000 18.6168 0.0000
# 6 0.0000 0.0000 0.0000 0.0000 0.0000 19.9841
#
#
#
# Elastic Compliance Matrix: (Units=1/GPa)
#
#
# Indices 1 2 3 4 5 6 
#
# 1 0.010105 -0.003515 -0.007656 0.000000 0.000000 0.000000
# 2 -0.003515 0.018933 -0.019300 0.000000 0.000000 0.000000
# 3 -0.007656 -0.019300 0.069513 0.000000 0.000000 0.000000
# 4 0.000000 0.000000 0.000000 0.039940 0.000000 0.000000
# 5 0.000000 0.000000 0.000000 0.000000 0.053715 0.000000
# 6 0.000000 0.000000 0.000000 0.000000 0.000000 0.050040
#
#
# Mechanical properties :
#
#
# Convention : Reuss Voigt Hill
#
# Bulk Modulus (GPa) = 26.59046 58.22093 42.40570
# Shear Modulus (GPa) = 15.83666 22.32348 19.08007
#
# Velocity S-wave (km/s) = 3.05401 3.62593 3.35219
# Velocity P-wave (km/s) = 5.30059 7.19853 6.32120
#
# Compressibility (1/GPa) = 0.03760747
#
# Stress axis : x y z
#
# Youngs Moduli (GPa) = 98.96403 52.81860 14.38588
#
# Poissons Ratio (x) = 0.18568 0.11014
# Poissons Ratio (y) = 0.34790 0.27764
# Poissons Ratio (z) = 0.75769 1.01938
#
# Static dielectric constant tensor:
#      x y z
#    x 3.543280 0.000000 0.000000 
#    y 0.000000 3.223130 0.000000 
#    z 0.000000 0.000000 2.607190 
# 
# 
# High freq. dielectric constant tensor:
#      x y z
#    x 1.662270 0.000000 0.000000 
#    y 0.000000 1.649000 0.000000 
#    z 0.000000 0.000000 1.598740 
# 
# From -- ./inp_files/25892.got.cif
#   From: 2010.03.12/outbox.cif.g09.slc.cpg/sg63_13_cif.got.tgz:25892.got - 2010.04.10 19:34:48.
