data_PCOD8255121
_publ_section_title
;
Structure prediction by ZEFSAII (Michael W. Deem and Ramdas Pophale) SiO2 
 PCOD8255121
Probable space group: P N M A
;
_chemical_formula_sum "Si O2"
_cell_formula_units_Z 40
_cell_length_a 16.517058
_cell_length_b 9.661223
_cell_length_c 11.354843
_cell_angle_alpha 90.000000
_cell_angle_beta 90.000000
_cell_angle_gamma 90.000000
_cell_volume 1811.948852
_symmetry_space_group_name_H-M "P N M A"
_symmetry_group_IT_number 62
_symmetry_cell_setting 'orthorhombic'
loop_
_space_group_symop_operation_xyz
x,y,z
1/2-x,-y,1/2+z
1/2+x,1/2-y,1/2-z
-x,1/2+y,-z
-x,-y,-z
1/2+x,y,1/2-z
1/2-x,1/2+y,1/2+z
x,1/2-y,z
loop_
_atom_site_type_symbol
_atom_site_label
_atom_site_fract_x
_atom_site_fract_y
_atom_site_fract_z
Si Si1 0.154490 0.250000 0.351407
Si Si2 0.271237 0.022880 0.772097
Si Si3 0.368322 0.250000 0.870124
Si Si4 0.588277 0.969295 0.727133
Si Si5 0.272411 0.250000 0.571775
Si Si6 0.556140 0.750000 0.546651
Si Si7 0.994783 0.750000 0.199721
Si Si8 0.464243 0.250000 0.099397
O O1 0.176054 0.382146 0.268914
O O2 0.199398 0.250000 0.477519
O O3 0.059646 0.250000 0.380346
O O4 0.310870 0.115598 0.876297
O O5 0.268245 0.109816 0.650447
O O6 0.181313 0.981931 0.810288
O O7 0.411899 0.250000 0.741456
O O8 0.441075 0.250000 0.962566
O O9 0.540601 0.886667 0.624941
O O10 0.578552 0.885768 0.848049
O O11 0.550695 0.117944 0.750084
O O12 0.352925 0.250000 0.497052
O O13 0.491495 0.750000 0.441792
#
# Coordination Sequence:
#
# PCOD8255121 Si02
#       8
#     4   8   4   8   4   4   4   4
#     4  12  25  48  72 103 144 183 231 295 350 412
#     4  11  24  46  69  96 136 184 231 277 344 419
#     4  11  26  45  68 103 140 180 224 282 352 418
#     4  11  25  45  68  99 136 180 231 287 339 418
#     4  11  24  45  70  99 138 183 228 286 345 420
#     4  11  22  47  65  95 137 175 228 287 338 411
#     4  12  23  42  70  97 135 175 234 284 347 400
#     4  11  28  43  69 109 142 178 227 288 356 409
#
# _framework density 22.075678
#
# number of rings (size 3 to 8) (size 9 to 14) (size 15 to 20)
#    0.000    0.800    4.000    3.600    5.600    1.600 
#    0.000    0.000    0.000    0.000    0.000    0.000 
#    0.000    0.000    0.000    0.000    0.000    0.000 
#
# Total GULP energy -496049.937060 kJ/mol
# GULP energy per Si atom -12401.248427 kJ/mol
# Density = 2.202543 g / cm^3
# Si number density = 22.075678 Si / 1000 Ang^3
#
#
#
# Elastic Constant Matrix: (Units=GPa)
#
#
# Indices 1 2 3 4 5 6 
#
# 1 116.9397 44.7375 14.4210 0.0000 0.0000 0.0000
# 2 44.7375 185.9187 41.6914 0.0000 0.0000 0.0000
# 3 14.4210 41.6914 92.6623 0.0000 0.0000 0.0000
# 4 0.0000 0.0000 0.0000 -19.9772 0.0000 0.0000
# 5 0.0000 0.0000 0.0000 0.0000 22.2913 0.0000
# 6 0.0000 0.0000 0.0000 0.0000 0.0000 44.2562
#
#
#
# Elastic Compliance Matrix: (Units=1/GPa)
#
#
# Indices 1 2 3 4 5 6 
#
# 1 0.009439 -0.002160 -0.000497 0.000000 0.000000 0.000000
# 2 -0.002160 0.006476 -0.002578 0.000000 0.000000 0.000000
# 3 -0.000497 -0.002578 0.012029 0.000000 0.000000 0.000000
# 4 0.000000 0.000000 0.000000 -0.050057 0.000000 0.000000
# 5 0.000000 0.000000 0.000000 0.000000 0.044861 0.000000
# 6 0.000000 0.000000 0.000000 0.000000 0.000000 0.022596
#
#
# Mechanical properties :
#
#
# Convention : Reuss Voigt Hill
#
# Bulk Modulus (GPa) = 57.22503 66.35782 61.79143
# Shear Modulus (GPa) = 81.11814 28.95877 55.03845
#
# Velocity S-wave (km/s) = 6.06838 3.62580 4.99858
# Velocity P-wave (km/s) = 8.66480 6.90312 7.83364
#
# Compressibility (1/GPa) = 0.01747487
#
# Stress axis : x y z
#
# Youngs Moduli (GPa) = 105.94337 154.40503 83.13173
#
# Poissons Ratio (x) = 0.33348 0.04134
# Poissons Ratio (y) = 0.22882 0.21430
# Poissons Ratio (z) = 0.05268 0.39803
#
# Static dielectric constant tensor:
#      x y z
#    x 3.911870 0.000000 0.000000 
#    y 0.000000 4.216570 0.000000 
#    z 0.000000 0.000000 3.918980 
# 
# 
# High freq. dielectric constant tensor:
#      x y z
#    x 1.874660 0.000000 0.000000 
#    y 0.000000 1.886120 0.000000 
#    z 0.000000 0.000000 1.859380 
# 
# From -- ./inp_files/13935.got.cif
#   From: 2010.03.12/outbox.cif.g09.slc.cpg/sg62_7_cif.got.tgz:13935.got - 2010.04.10 19:12:36.
