data_PCOD8255398
_publ_section_title
;
Structure prediction by ZEFSAII (Michael W. Deem and Ramdas Pophale) SiO2 
 PCOD8255398
Probable space group: C M C M
;
_chemical_formula_sum "Si O2"
_cell_formula_units_Z 72
_cell_length_a 13.873117
_cell_length_b 14.992844
_cell_length_c 15.723572
_cell_angle_alpha 90.000000
_cell_angle_beta 90.000000
_cell_angle_gamma 90.000000
_cell_volume 3270.463336
_symmetry_space_group_name_H-M "C M C M"
_symmetry_group_IT_number 63
_symmetry_cell_setting 'orthorhombic'
loop_
_space_group_symop_operation_xyz
x,y,z
-x,-y,1/2+z
x,-y,-z
-x,y,1/2-z
-x,-y,-z
x,y,1/2-z
-x,y,z
x,-y,1/2+z
1/2+x,1/2+y,z
1/2-x,1/2-y,1/2+z
1/2+x,1/2-y,-z
1/2-x,1/2+y,1/2-z
1/2-x,1/2-y,-z
1/2+x,1/2+y,1/2-z
1/2-x,1/2+y,z
1/2+x,1/2-y,1/2+z
loop_
_atom_site_type_symbol
_atom_site_label
_atom_site_fract_x
_atom_site_fract_y
_atom_site_fract_z
Si Si1 0.389583 0.251322 0.576346
Si Si2 0.386696 0.071656 0.750000
Si Si3 0.688493 0.730155 0.250000
Si Si4 0.395979 0.266953 0.250000
Si Si5 0.606227 0.380195 0.080238
Si Si6 0.806375 0.557144 0.921935
O O1 0.500000 0.221868 0.584859
O O2 0.359194 0.305389 0.662558
O O3 0.370896 0.313351 0.496540
O O4 0.328296 0.161493 0.564359
O O5 0.500000 0.091151 0.750000
O O6 0.325907 0.162909 0.750000
O O7 0.355615 0.019135 0.835556
O O8 0.802292 0.703245 0.250000
O O9 0.500000 0.214682 0.250000
O O10 0.390764 0.327664 0.332423
O O11 0.500000 0.424538 0.068181
O O12 0.689835 0.454875 0.082549
O O13 0.848383 0.500000 0.000000
#
# Coordination Sequence:
#
# PCOD8255398 Si02
#       6
#    16   8   8   8  16  16
#     4  10  20  34  55  81 107 140 178 218 261 310
#     4  10  20  36  54  75 104 142 183 215 254 316
#     4  10  16  30  55  76 102 136 181 220 252 305
#     4  10  18  30  53  79 104 138 178 217 260 311
#     4  10  20  36  56  80 109 139 177 218 261 314
#     4  11  21  35  56  81 108 139 178 218 266 313
#
# _framework density 22.015229999999999
#
# number of rings (size 3 to 8) (size 9 to 14) (size 15 to 20)
#    0.000    1.778    4.444    3.667    0.000    2.222 
#    0.000    2.222    0.000    1.333    0.000    0.000 
#    0.000    0.000    0.000    0.000    0.000    0.000 
#
# Total GULP energy -446160.681071 kJ/mol
# GULP energy per Si atom -12393.352252 kJ/mol
# Density = 2.196512 g / cm^3
# Si number density = 22.015230 Si / 1000 Ang^3
#
#
#
# Elastic Constant Matrix: (Units=GPa)
#
#
# Indices 1 2 3 4 5 6 
#
# 1 153.1077 12.8793 44.0887 0.0000 0.0000 0.0000
# 2 12.8793 13.4863 28.6842 0.0000 0.0000 0.0000
# 3 44.0887 28.6842 215.1792 0.0000 0.0000 0.0000
# 4 0.0000 0.0000 0.0000 96.7841 0.0000 0.0000
# 5 0.0000 0.0000 0.0000 0.0000 36.5730 0.0000
# 6 0.0000 0.0000 0.0000 0.0000 0.0000 8.0655
#
#
#
# Elastic Compliance Matrix: (Units=1/GPa)
#
#
# Indices 1 2 3 4 5 6 
#
# 1 0.007194 -0.005213 -0.000779 0.000000 0.000000 0.000000
# 2 -0.005213 0.107270 -0.013231 0.000000 0.000000 0.000000
# 3 -0.000779 -0.013231 0.006571 0.000000 0.000000 0.000000
# 4 0.000000 0.000000 0.000000 0.010332 0.000000 0.000000
# 5 0.000000 0.000000 0.000000 0.000000 0.027343 0.000000
# 6 0.000000 0.000000 0.000000 0.000000 0.000000 0.123986
#
#
# Mechanical properties :
#
#
# Convention : Reuss Voigt Hill
#
# Bulk Modulus (GPa) = 12.10842 61.45308 36.78075
# Shear Modulus (GPa) = 14.34014 48.02591 31.18303
#
# Velocity S-wave (km/s) = 2.55497 4.67570 3.76763
# Velocity P-wave (km/s) = 3.77038 7.55805 5.97243
#
# Compressibility (1/GPa) = 0.08258716
#
# Stress axis : x y z
#
# Youngs Moduli (GPa) = 139.00000 9.32229 152.19103
#
# Poissons Ratio (x) = 0.04860 0.11857
# Poissons Ratio (y) = 0.72467 2.01368
# Poissons Ratio (z) = 0.10829 0.12335
#
# Static dielectric constant tensor:
#      x y z
#    x 4.580290 0.000000 0.000000 
#    y 0.000000 3.049780 0.000000 
#    z 0.000000 0.000000 4.613630 
# 
# 
# High freq. dielectric constant tensor:
#      x y z
#    x 1.893550 0.000000 0.000000 
#    y 0.000000 1.779600 0.000000 
#    z 0.000000 0.000000 1.901510 
# 
# From -- ./inp_files/31502.got.cif
#   From: 2010.03.12/outbox.cif.g09.slc.cpg/sg63_16_cif.got.tgz:31502.got - 2010.04.10 19:34:48.
