data_PCOD8255363
_publ_section_title
;
Structure prediction by ZEFSAII (Michael W. Deem and Ramdas Pophale) SiO2 
 PCOD8255363
Probable space group: C M C M
;
_chemical_formula_sum "Si O2"
_cell_formula_units_Z 104
_cell_length_a 18.187998
_cell_length_b 12.210915
_cell_length_c 23.800443
_cell_angle_alpha 90.000000
_cell_angle_beta 90.000000
_cell_angle_gamma 90.000000
_cell_volume 5285.890310
_symmetry_space_group_name_H-M "C M C M"
_symmetry_group_IT_number 63
_symmetry_cell_setting 'orthorhombic'
loop_
_space_group_symop_operation_xyz
x,y,z
-x,-y,1/2+z
x,-y,-z
-x,y,1/2-z
-x,-y,-z
x,y,1/2-z
-x,y,z
x,-y,1/2+z
1/2+x,1/2+y,z
1/2-x,1/2-y,1/2+z
1/2+x,1/2-y,-z
1/2-x,1/2+y,1/2-z
1/2-x,1/2-y,-z
1/2+x,1/2+y,1/2-z
1/2-x,1/2+y,z
1/2+x,1/2-y,1/2+z
loop_
_atom_site_type_symbol
_atom_site_label
_atom_site_fract_x
_atom_site_fract_y
_atom_site_fract_z
Si Si1 0.817340 0.009911 0.128058
Si Si2 0.326547 0.708647 0.937181
Si Si3 0.841506 0.224065 0.064829
Si Si4 0.916595 0.374660 0.146276
Si Si5 0.819776 0.700691 0.750000
Si Si6 0.654473 0.095657 0.135767
Si Si7 0.797374 0.645421 0.250000
Si Si8 0.201271 0.961704 0.250000
O O1 0.856496 0.116336 0.102276
O O2 0.729724 0.029338 0.123007
O O3 0.842690 0.990703 0.192860
O O4 0.844354 0.904451 0.093743
O O5 0.240249 0.729482 0.930454
O O6 0.366675 0.815631 0.911511
O O7 0.356739 0.696261 0.000109
O O8 0.896855 0.316912 0.087326
O O9 0.863084 0.327806 0.194101
O O10 0.909352 0.505459 0.139645
O O11 0.000000 0.348298 0.163322
O O12 0.792282 0.826759 0.750000
O O13 0.731339 0.663567 0.750000
O O14 0.658920 0.169697 0.192710
O O15 0.784778 0.512967 0.250000
#
# Coordination Sequence:
#
# PCOD8255363 Si02
#       8
#    16  16  16  16   8  16   8   8
#     4  10  17  32  55  83 115 139 178 258 300 347
#     4  10  19  33  56  78 112 147 189 259 290 347
#     4  10  21  34  52  83 111 150 198 233 305 339
#     4  12  23  38  55  80 125 160 193 232 279 370
#     4  12  19  35  55  86 111 146 191 223 299 340
#     4  10  19  33  51  84 115 150 191 229 305 347
#     4  10  18  30  56  80 118 140 171 253 280 349
#     4  10  16  27  50  82 115 134 166 220 293 357
#
# _framework density 19.675021000000001
#
# number of rings (size 3 to 8) (size 9 to 14) (size 15 to 20)
#    0.000    1.538    4.615    4.385    0.000    0.615 
#    0.000    1.538    0.000    2.769    0.000    0.000 
#    0.000    2.462    0.000    0.000    0.000    0.000 
#
# Total GULP energy -644455.060796 kJ/mol
# GULP energy per Si atom -12393.366554 kJ/mol
# Density = 1.963024 g / cm^3
# Si number density = 19.675021 Si / 1000 Ang^3
#
#
#
# Elastic Constant Matrix: (Units=GPa)
#
#
# Indices 1 2 3 4 5 6 
#
# 1 44.2479 34.2784 34.1180 0.0000 0.0000 0.0000
# 2 34.2784 92.0841 63.7725 0.0000 0.0000 0.0000
# 3 34.1180 63.7725 165.3717 0.0000 0.0000 0.0000
# 4 0.0000 0.0000 0.0000 38.6696 0.0000 0.0000
# 5 0.0000 0.0000 0.0000 0.0000 8.9509 0.0000
# 6 0.0000 0.0000 0.0000 0.0000 0.0000 15.8642
#
#
#
# Elastic Compliance Matrix: (Units=1/GPa)
#
#
# Indices 1 2 3 4 5 6 
#
# 1 0.032681 -0.010227 -0.002798 0.000000 0.000000 0.000000
# 2 -0.010227 0.018017 -0.004838 0.000000 0.000000 0.000000
# 3 -0.002798 -0.004838 0.008490 0.000000 0.000000 0.000000
# 4 0.000000 0.000000 0.000000 0.025860 0.000000 0.000000
# 5 0.000000 0.000000 0.000000 0.000000 0.111720 0.000000
# 6 0.000000 0.000000 0.000000 0.000000 0.000000 0.063035
#
#
# Mechanical properties :
#
#
# Convention : Reuss Voigt Hill
#
# Bulk Modulus (GPa) = 42.62495 62.89349 52.75922
# Shear Modulus (GPa) = 16.48254 23.99926 20.24090
#
# Velocity S-wave (km/s) = 2.89751 3.49633 3.21091
# Velocity P-wave (km/s) = 5.73634 6.95231 6.37339
#
# Compressibility (1/GPa) = 0.02346044
#
# Stress axis : x y z
#
# Youngs Moduli (GPa) = 30.59906 55.50192 117.78546
#
# Poissons Ratio (x) = 0.56764 0.32961
# Poissons Ratio (y) = 0.31295 0.56985
# Poissons Ratio (z) = 0.08563 0.26852
#
# Static dielectric constant tensor:
#      x y z
#    x 2.860600 0.000000 0.000000 
#    y 0.000000 3.779370 0.000000 
#    z 0.000000 0.000000 3.800030 
# 
# 
# High freq. dielectric constant tensor:
#      x y z
#    x 1.681250 0.000000 0.000000 
#    y 0.000000 1.792780 0.000000 
#    z 0.000000 0.000000 1.782050 
# 
# From -- ./inp_files/56793.got.cif
#   From: 2010.03.12/outbox.cif.g09.slc.cpg/sg63_29_cif.got.tgz:56793.got - 2010.04.10 19:34:48.
