data_PCOD8255114
_publ_section_title
;
Structure prediction by ZEFSAII (Michael W. Deem and Ramdas Pophale) SiO2 
 PCOD8255114
Probable space group: P N M A
;
_chemical_formula_sum "Si O2"
_cell_formula_units_Z 56
_cell_length_a 15.638739
_cell_length_b 14.271300
_cell_length_c 11.745677
_cell_angle_alpha 90.000000
_cell_angle_beta 90.000000
_cell_angle_gamma 90.000000
_cell_volume 2621.460517
_symmetry_space_group_name_H-M "P N M A"
_symmetry_group_IT_number 62
_symmetry_cell_setting 'orthorhombic'
loop_
_space_group_symop_operation_xyz
x,y,z
1/2-x,-y,1/2+z
1/2+x,1/2-y,1/2-z
-x,1/2+y,-z
-x,-y,-z
1/2+x,y,1/2-z
1/2-x,1/2+y,1/2+z
x,1/2-y,z
loop_
_atom_site_type_symbol
_atom_site_label
_atom_site_fract_x
_atom_site_fract_y
_atom_site_fract_z
Si Si1 0.719547 0.859546 0.385939
Si Si2 0.873491 0.947273 0.511301
Si Si3 0.183200 0.143876 0.053897
Si Si4 0.937004 0.492113 0.894525
Si Si5 0.821490 0.354729 0.260915
Si Si6 0.518542 0.550091 0.826390
Si Si7 0.755680 0.539452 0.152919
O O1 0.701639 0.750000 0.376853
O O2 0.796046 0.878051 0.476016
O O3 0.630804 0.909395 0.421318
O O4 0.748019 0.900082 0.265328
O O5 0.944510 0.902301 0.595967
O O6 0.919755 0.982891 0.398782
O O7 0.834625 0.032234 0.586894
O O8 0.154388 0.250000 0.038413
O O9 0.180888 0.094385 0.930818
O O10 0.273965 0.133814 0.117516
O O11 0.112394 0.090159 0.127577
O O12 0.986554 0.481211 0.775065
O O13 0.000000 0.500000 0.000000
O O14 0.803987 0.250000 0.211073
O O15 0.923155 0.365643 0.278756
O O16 0.789096 0.433851 0.174241
#
# Coordination Sequence:
#
# PCOD8255114 Si02
#       7
#     8   8   8   8   8   8   8
#     4  12  26  45  70 103 138 188 240 284 351 431
#     4  11  23  41  74  98 138 187 225 291 349 413
#     4  11  23  43  70  95 128 183 230 270 344 423
#     4  12  25  44  70  98 143 184 223 299 350 409
#     4  11  23  40  70 102 135 180 228 280 344 415
#     4  11  22  43  69 101 140 181 232 285 360 406
#     4  12  19  46  66 100 135 182 229 282 343 408
#
# _framework density 21.362137000000001
#
# number of rings (size 3 to 8) (size 9 to 14) (size 15 to 20)
#    0.000    0.571    7.143    1.286    0.000    2.286 
#    0.000    0.714    0.000    0.000    0.000    0.000 
#    0.000    0.000    0.000    0.000    0.000    0.000 
#
# Total GULP energy -694177.882107 kJ/mol
# GULP energy per Si atom -12396.033609 kJ/mol
# Density = 2.131352 g / cm^3
# Si number density = 21.362137 Si / 1000 Ang^3
#
#
#
# Elastic Constant Matrix: (Units=GPa)
#
#
# Indices 1 2 3 4 5 6 
#
# 1 128.7273 57.3312 50.7190 0.0000 0.0000 0.0000
# 2 57.3312 157.5301 45.4753 0.0000 0.0000 0.0000
# 3 50.7190 45.4753 100.0702 0.0000 0.0000 0.0000
# 4 0.0000 0.0000 0.0000 25.8020 0.0000 0.0000
# 5 0.0000 0.0000 0.0000 0.0000 45.4627 0.0000
# 6 0.0000 0.0000 0.0000 0.0000 0.0000 18.1960
#
#
#
# Elastic Compliance Matrix: (Units=1/GPa)
#
#
# Indices 1 2 3 4 5 6 
#
# 1 0.010589 -0.002653 -0.004162 0.000000 0.000000 0.000000
# 2 -0.002653 0.007971 -0.002278 0.000000 0.000000 0.000000
# 3 -0.004162 -0.002278 0.013137 0.000000 0.000000 0.000000
# 4 0.000000 0.000000 0.000000 0.038757 0.000000 0.000000
# 5 0.000000 0.000000 0.000000 0.000000 0.021996 0.000000
# 6 0.000000 0.000000 0.000000 0.000000 0.000000 0.054957
#
#
# Mechanical properties :
#
#
# Convention : Reuss Voigt Hill
#
# Bulk Modulus (GPa) = 73.99949 77.04207 75.52078
# Shear Modulus (GPa) = 29.39511 33.41228 31.40369
#
# Velocity S-wave (km/s) = 3.71352 3.95915 3.83830
# Velocity P-wave (km/s) = 7.28716 7.55267 7.42110
#
# Compressibility (1/GPa) = 0.01351361
#
# Stress axis : x y z
#
# Youngs Moduli (GPa) = 94.43377 125.45617 76.11850
#
# Poissons Ratio (x) = 0.33277 0.31678
# Poissons Ratio (y) = 0.25049 0.17339
# Poissons Ratio (z) = 0.39300 0.28577
#
# Static dielectric constant tensor:
#      x y z
#    x 4.179760 0.000000 0.000000 
#    y 0.000000 3.646250 0.000000 
#    z 0.000000 0.000000 4.041540 
# 
# 
# High freq. dielectric constant tensor:
#      x y z
#    x 1.849280 0.000000 0.000000 
#    y 0.000000 1.806560 0.000000 
#    z 0.000000 0.000000 1.858230 
# 
# From -- ./inp_files/13358.got.cif
#   From: 2010.03.12/outbox.cif.g09.slc.cpg/sg62_7_cif.got.tgz:13358.got - 2010.04.10 19:12:36.
