data_PCOD8255092
_publ_section_title
;
Structure prediction by ZEFSAII (Michael W. Deem and Ramdas Pophale) SiO2 
 PCOD8255092
Probable space group: P N M A
;
_chemical_formula_sum "Si O2"
_cell_formula_units_Z 48
_cell_length_a 18.648838
_cell_length_b 25.116362
_cell_length_c 5.071942
_cell_angle_alpha 90.000000
_cell_angle_beta 90.000000
_cell_angle_gamma 90.000000
_cell_volume 2375.651813
_symmetry_space_group_name_H-M "P N M A"
_symmetry_group_IT_number 62
_symmetry_cell_setting 'orthorhombic'
loop_
_space_group_symop_operation_xyz
x,y,z
1/2-x,-y,1/2+z
1/2+x,1/2-y,1/2-z
-x,1/2+y,-z
-x,-y,-z
1/2+x,y,1/2-z
1/2-x,1/2+y,1/2+z
x,1/2-y,z
loop_
_atom_site_type_symbol
_atom_site_label
_atom_site_fract_x
_atom_site_fract_y
_atom_site_fract_z
Si Si1 0.187649 0.548021 0.679684
Si Si2 0.338097 0.311766 0.016773
Si Si3 0.552505 0.599129 0.997158
Si Si4 0.976256 0.938512 0.998896
Si Si5 0.724522 0.862187 0.495328
Si Si6 0.814712 0.570306 0.176593
O O1 0.114054 0.553912 0.518198
O O2 0.204270 0.486297 0.694185
O O3 0.253717 0.579416 0.543274
O O4 0.179885 0.581890 0.954275
O O5 0.355885 0.250000 0.032354
O O6 0.412624 0.343324 0.064125
O O7 0.278086 0.326915 0.237882
O O8 0.311186 0.326375 0.727474
O O9 0.490706 0.586848 0.785365
O O10 0.518374 0.595820 0.285113
O O11 0.892225 0.931381 0.049022
O O12 0.000000 0.000000 0.000000
O O13 0.803710 0.882401 0.394675
#
# Coordination Sequence:
#
# PCOD8255092 Si02
#       6
#     8   8   8   8   8   8
#     4  11  23  36  66  92 136 176 221 251 312 391
#     4  11  24  44  73  95 118 162 231 290 327 366
#     4  11  24  44  60  94 132 168 224 265 312 389
#     4  12  27  38  60  94 142 180 209 250 326 401
#     4  11  22  39  63 100 126 157 215 278 325 372
#     4  12  24  36  64  94 144 178 209 256 327 390
#
# _framework density 20.204982000000001
#
# number of rings (size 3 to 8) (size 9 to 14) (size 15 to 20)
#    0.000    0.667    6.667    3.000    4.667    0.000 
#    0.000    0.000    0.000    6.000    0.000    0.000 
#    0.000    0.000    0.000    0.000    0.000    0.000 
#
# Total GULP energy -594855.538422 kJ/mol
# GULP energy per Si atom -12392.823717 kJ/mol
# Density = 2.015899 g / cm^3
# Si number density = 20.204982 Si / 1000 Ang^3
#
#
#
# Elastic Constant Matrix: (Units=GPa)
#
#
# Indices 1 2 3 4 5 6 
#
# 1 98.3533 4.3532 27.8272 0.0000 0.0000 0.0000
# 2 4.3532 121.7063 29.0485 0.0000 0.0000 0.0000
# 3 27.8272 29.0485 93.8969 0.0000 0.0000 0.0000
# 4 0.0000 0.0000 0.0000 27.5510 0.0000 0.0000
# 5 0.0000 0.0000 0.0000 0.0000 32.9612 0.0000
# 6 0.0000 0.0000 0.0000 0.0000 0.0000 22.9948
#
#
#
# Elastic Compliance Matrix: (Units=1/GPa)
#
#
# Indices 1 2 3 4 5 6 
#
# 1 0.011118 0.000420 -0.003425 0.000000 0.000000 0.000000
# 2 0.000420 0.008887 -0.002874 0.000000 0.000000 0.000000
# 3 -0.003425 -0.002874 0.012554 0.000000 0.000000 0.000000
# 4 0.000000 0.000000 0.000000 0.036296 0.000000 0.000000
# 5 0.000000 0.000000 0.000000 0.000000 0.030339 0.000000
# 6 0.000000 0.000000 0.000000 0.000000 0.000000 0.043488
#
#
# Mechanical properties :
#
#
# Convention : Reuss Voigt Hill
#
# Bulk Modulus (GPa) = 48.07333 48.49047 48.28190
# Shear Modulus (GPa) = 30.98394 33.54990 32.26692
#
# Velocity S-wave (km/s) = 3.92022 4.07932 4.00056
# Velocity P-wave (km/s) = 6.65847 6.79994 6.72958
#
# Compressibility (1/GPa) = 0.02080155
#
# Stress axis : x y z
#
# Youngs Moduli (GPa) = 89.94577 112.51864 79.65584
#
# Poissons Ratio (x) = -0.04723 0.27280
# Poissons Ratio (y) = -0.03775 0.22892
# Poissons Ratio (z) = 0.30804 0.32336
#
# Static dielectric constant tensor:
#      x y z
#    x 3.639590 0.000000 0.000000 
#    y 0.000000 3.592780 0.000000 
#    z 0.000000 0.000000 4.062200 
# 
# 
# High freq. dielectric constant tensor:
#      x y z
#    x 1.770960 0.000000 0.000000 
#    y 0.000000 1.763480 0.000000 
#    z 0.000000 0.000000 1.812100 
# 
# From -- ./inp_files/1763.got.cif
#   From: 2010.03.12/outbox.cif.g09.slc.cpg/sg62_1_cif.got.tgz:1763.got - 2010.04.10 19:12:36.
