data_PCOD8255786
_publ_section_title
;
Structure prediction by ZEFSAII (Michael W. Deem and Ramdas Pophale) SiO2 
 PCOD8255786
Probable space group: C M C M
;
_chemical_formula_sum "Si O2"
_cell_formula_units_Z 96
_cell_length_a 8.814776
_cell_length_b 27.608347
_cell_length_c 23.763157
_cell_angle_alpha 90.000000
_cell_angle_beta 90.000000
_cell_angle_gamma 90.000000
_cell_volume 5783.035026
_symmetry_space_group_name_H-M "C M C M"
_symmetry_group_IT_number 63
_symmetry_cell_setting 'orthorhombic'
loop_
_space_group_symop_operation_xyz
x,y,z
-x,-y,1/2+z
x,-y,-z
-x,y,1/2-z
-x,-y,-z
x,y,1/2-z
-x,y,z
x,-y,1/2+z
1/2+x,1/2+y,z
1/2-x,1/2-y,1/2+z
1/2+x,1/2-y,-z
1/2-x,1/2+y,1/2-z
1/2-x,1/2-y,-z
1/2+x,1/2+y,1/2-z
1/2-x,1/2+y,z
1/2+x,1/2-y,1/2+z
loop_
_atom_site_type_symbol
_atom_site_label
_atom_site_fract_x
_atom_site_fract_y
_atom_site_fract_z
Si Si1 0.323861 0.318823 0.185347
Si Si2 0.679436 0.930520 0.520282
Si Si3 0.180595 0.985993 0.418024
Si Si4 0.819841 0.072719 0.811790
Si Si5 0.178198 0.735990 0.586056
Si Si6 0.177856 0.319685 0.975969
O O1 0.295376 0.304026 0.250000
O O2 0.500000 0.315906 0.170023
O O3 0.260563 0.373171 0.174332
O O4 0.235897 0.281381 0.146317
O O5 0.500000 0.937124 0.511479
O O6 0.767282 0.948050 0.465073
O O7 0.725027 0.875329 0.531634
O O8 0.737107 0.962443 0.573031
O O9 0.237078 0.965529 0.357997
O O10 0.000000 0.992422 0.420881
O O11 0.760511 0.056404 0.750000
O O12 0.000000 0.075165 0.811190
O O13 0.232755 0.698885 0.537258
O O14 0.242191 0.789374 0.573275
O O15 0.000000 0.739505 0.588469
O O16 0.000000 0.312283 0.969375
#
# Coordination Sequence:
#
# PCOD8255786 Si02
#       6
#    16  16  16  16  16  16
#     4   9  17  30  48  68  92 123 153 179 216 270
#     4  10  19  31  46  64  92 124 151 182 222 270
#     4  10  18  28  46  70  93 117 150 189 225 265
#     4   8  15  28  46  68  92 119 150 183 220 263
#     4  10  19  30  47  70  93 116 147 190 231 266
#     4   9  19  33  47  65  90 122 154 183 224 276
#
# _framework density 16.600279
#
# number of rings (size 3 to 8) (size 9 to 14) (size 15 to 20)
#    0.000    2.667    0.000    4.500    0.000    2.333 
#    0.000    0.833    0.000    5.000    0.000    4.667 
#    0.000    0.000    0.000    0.000    0.000    0.000 
#
# Total GULP energy -595121.114986 kJ/mol
# GULP energy per Si atom -12398.356562 kJ/mol
# Density = 1.656250 g / cm^3
# Si number density = 16.600279 Si / 1000 Ang^3
#
#
#
# Elastic Constant Matrix: (Units=GPa)
#
#
# Indices 1 2 3 4 5 6 
#
# 1 40.0078 36.9300 23.5977 0.0000 0.0000 0.0000
# 2 36.9300 135.0523 68.6488 0.0000 0.0000 0.0000
# 3 23.5977 68.6488 99.7994 0.0000 0.0000 0.0000
# 4 0.0000 0.0000 0.0000 29.1014 0.0000 0.0000
# 5 0.0000 0.0000 0.0000 0.0000 20.4377 0.0000
# 6 0.0000 0.0000 0.0000 0.0000 0.0000 25.0474
#
#
#
# Elastic Compliance Matrix: (Units=1/GPa)
#
#
# Indices 1 2 3 4 5 6 
#
# 1 0.033840 -0.007975 -0.002516 0.000000 0.000000 0.000000
# 2 -0.007975 0.013265 -0.007239 0.000000 0.000000 0.000000
# 3 -0.002516 -0.007239 0.015594 0.000000 0.000000 0.000000
# 4 0.000000 0.000000 0.000000 0.034363 0.000000 0.000000
# 5 0.000000 0.000000 0.000000 0.000000 0.048929 0.000000
# 6 0.000000 0.000000 0.000000 0.000000 0.000000 0.039924
#
#
# Mechanical properties :
#
#
# Convention : Reuss Voigt Hill
#
# Bulk Modulus (GPa) = 36.71019 59.24585 47.97802
# Shear Modulus (GPa) = 21.69624 24.62951 23.16288
#
# Velocity S-wave (km/s) = 3.61914 3.85604 3.73946
# Velocity P-wave (km/s) = 6.29495 7.45604 6.89996
#
# Compressibility (1/GPa) = 0.02724040
#
# Stress axis : x y z
#
# Youngs Moduli (GPa) = 29.55053 75.38747 64.12567
#
# Poissons Ratio (x) = 0.60119 0.16134
# Poissons Ratio (y) = 0.23566 0.46419
# Poissons Ratio (z) = 0.07435 0.54572
#
# Static dielectric constant tensor:
#      x y z
#    x 2.992570 0.000000 0.000000 
#    y 0.000000 3.174320 0.000000 
#    z 0.000000 0.000000 3.251710 
# 
# 
# High freq. dielectric constant tensor:
#      x y z
#    x 1.633180 0.000000 0.000000 
#    y 0.000000 1.632340 0.000000 
#    z 0.000000 0.000000 1.629610 
# 
# From -- ./inp_files/67507.got.cif
#   From: 2010.03.12/outbox.cif.g09.slc.cpg/sg63_34_cif.got.tgz:67507.got - 2010.04.10 19:34:48.
