data_PCOD8255642
_publ_section_title
;
Structure prediction by ZEFSAII (Michael W. Deem and Ramdas Pophale) SiO2 
 PCOD8255642
Probable space group: C M C M
;
_chemical_formula_sum "Si O2"
_cell_formula_units_Z 128
_cell_length_a 12.530276
_cell_length_b 31.239868
_cell_length_c 21.016146
_cell_angle_alpha 90.000000
_cell_angle_beta 90.000000
_cell_angle_gamma 90.000000
_cell_volume 8226.647791
_symmetry_space_group_name_H-M "C M C M"
_symmetry_group_IT_number 63
_symmetry_cell_setting 'orthorhombic'
loop_
_space_group_symop_operation_xyz
x,y,z
-x,-y,1/2+z
x,-y,-z
-x,y,1/2-z
-x,-y,-z
x,y,1/2-z
-x,y,z
x,-y,1/2+z
1/2+x,1/2+y,z
1/2-x,1/2-y,1/2+z
1/2+x,1/2-y,-z
1/2-x,1/2+y,1/2-z
1/2-x,1/2-y,-z
1/2+x,1/2+y,1/2-z
1/2-x,1/2+y,z
1/2+x,1/2-y,1/2+z
loop_
_atom_site_type_symbol
_atom_site_label
_atom_site_fract_x
_atom_site_fract_y
_atom_site_fract_z
Si Si1 0.626578 0.463377 0.047420
Si Si2 0.623904 0.784622 0.541589
Si Si3 0.250621 0.704805 0.582281
Si Si4 0.126948 0.995984 0.180460
Si Si5 0.378573 0.746607 0.322424
Si Si6 0.121780 0.132883 0.532506
Si Si7 0.807221 0.833359 0.900966
Si Si8 0.120118 0.907655 0.677310
O O1 0.500000 0.467985 0.047455
O O2 0.669922 0.469082 0.120134
O O3 0.673873 0.500000 0.000000
O O4 0.661950 0.416185 0.024464
O O5 0.500000 0.792817 0.551769
O O6 0.653942 0.736884 0.563291
O O7 0.654247 0.791176 0.468053
O O8 0.686586 0.818914 0.584968
O O9 0.199703 0.716504 0.650388
O O10 0.302567 0.657329 0.583618
O O11 0.169216 0.979129 0.250000
O O12 0.000000 0.995721 0.182739
O O13 0.165367 0.044632 0.170043
O O14 0.343911 0.737349 0.250000
O O15 0.500000 0.762955 0.325657
O O16 0.369820 0.703250 0.362992
O O17 0.129846 0.158130 0.466296
O O18 0.000000 0.133211 0.557046
O O19 0.801131 0.876652 0.860614
O O20 0.118217 0.892999 0.750000
O O21 0.000000 0.904128 0.648669
#
# Coordination Sequence:
#
# PCOD8255642 Si02
#       8
#    16  16  16  16  16  16  16  16
#     4   9  16  25  38  58  86 116 142 171 208 251
#     4   9  17  29  44  60  81 109 136 167 206 241
#     4   9  18  29  44  62  80 105 139 173 201 240
#     4   8  14  24  37  54  79 113 146 171 203 249
#     4  10  19  30  45  63  84 109 136 174 220 255
#     4  10  18  27  42  63  87 115 143 172 208 248
#     4  10  18  26  41  64  87 110 138 172 208 256
#     4   9  15  23  38  60  87 115 140 171 208 247
#
# _framework density 15.559193
#
# number of rings (size 3 to 8) (size 9 to 14) (size 15 to 20)
#    0.000    2.750    0.000    4.500    0.000    3.000 
#    0.000    0.625    0.000   13.500    0.000    0.000 
#    0.000   41.500    0.000    2.250    0.000    0.000 
#
# Total GULP energy -793282.740383 kJ/mol
# GULP energy per Si atom -12395.042818 kJ/mol
# Density = 1.552378 g / cm^3
# Si number density = 15.559193 Si / 1000 Ang^3
#
#
#
# Elastic Constant Matrix: (Units=GPa)
#
#
# Indices 1 2 3 4 5 6 
#
# 1 62.0335 28.5597 23.9061 0.0000 0.0000 0.0000
# 2 28.5597 90.8115 46.5920 0.0000 0.0000 0.0000
# 3 23.9061 46.5920 95.5223 0.0000 0.0000 0.0000
# 4 0.0000 0.0000 0.0000 29.4214 0.0000 0.0000
# 5 0.0000 0.0000 0.0000 0.0000 15.6921 0.0000
# 6 0.0000 0.0000 0.0000 0.0000 0.0000 17.2819
#
#
#
# Elastic Compliance Matrix: (Units=1/GPa)
#
#
# Indices 1 2 3 4 5 6 
#
# 1 0.019284 -0.004786 -0.002492 0.000000 0.000000 0.000000
# 2 -0.004786 0.015875 -0.006546 0.000000 0.000000 0.000000
# 3 -0.002492 -0.006546 0.014285 0.000000 0.000000 0.000000
# 4 0.000000 0.000000 0.000000 0.033989 0.000000 0.000000
# 5 0.000000 0.000000 0.000000 0.000000 0.063726 0.000000
# 6 0.000000 0.000000 0.000000 0.000000 0.000000 0.057864
#
#
# Mechanical properties :
#
#
# Convention : Reuss Voigt Hill
#
# Bulk Modulus (GPa) = 45.87680 49.60921 47.74300
# Shear Modulus (GPa) = 20.83884 22.43303 21.63593
#
# Velocity S-wave (km/s) = 3.66365 3.80121 3.73306
# Velocity P-wave (km/s) = 6.88809 7.15674 7.02370
#
# Compressibility (1/GPa) = 0.02179751
#
# Stress axis : x y z
#
# Youngs Moduli (GPa) = 51.85605 62.99056 70.00376
#
# Poissons Ratio (x) = 0.30150 0.17442
# Poissons Ratio (y) = 0.24821 0.45821
# Poissons Ratio (z) = 0.12920 0.41230
#
# Static dielectric constant tensor:
#      x y z
#    x 2.553870 0.000000 0.000000 
#    y 0.000000 3.034060 0.000000 
#    z 0.000000 0.000000 3.153140 
# 
# 
# High freq. dielectric constant tensor:
#      x y z
#    x 1.542710 0.000000 0.000000 
#    y 0.000000 1.592610 0.000000 
#    z 0.000000 0.000000 1.599750 
# 
# From -- ./inp_files/62158.got.cif
#   From: 2010.03.12/outbox.cif.g09.slc.cpg/sg63_32_cif.got.tgz:62158.got - 2010.04.10 19:34:48.
