data_PCOD8255179
_publ_section_title
;
Structure prediction by ZEFSAII (Michael W. Deem and Ramdas Pophale) SiO2 
 PCOD8255179
Probable space group: P N M A
;
_chemical_formula_sum "Si O2"
_cell_formula_units_Z 32
_cell_length_a 9.502669
_cell_length_b 25.689876
_cell_length_c 6.579089
_cell_angle_alpha 90.000000
_cell_angle_beta 90.000000
_cell_angle_gamma 90.000000
_cell_volume 1606.102919
_symmetry_space_group_name_H-M "P N M A"
_symmetry_group_IT_number 62
_symmetry_cell_setting 'orthorhombic'
loop_
_space_group_symop_operation_xyz
x,y,z
1/2-x,-y,1/2+z
1/2+x,1/2-y,1/2-z
-x,1/2+y,-z
-x,-y,-z
1/2+x,y,1/2-z
1/2-x,1/2+y,1/2+z
x,1/2-y,z
loop_
_atom_site_type_symbol
_atom_site_label
_atom_site_fract_x
_atom_site_fract_y
_atom_site_fract_z
Si Si1 0.775584 0.309798 0.981990
Si Si2 0.488751 0.439153 0.028789
Si Si3 0.288908 0.611604 0.678954
Si Si4 0.954010 0.855093 0.211542
O O1 0.794409 0.250000 0.042864
O O2 0.627698 0.318006 0.868521
O O3 0.898533 0.327635 0.831365
O O4 0.781351 0.342735 0.188747
O O5 0.332580 0.426544 0.103596
O O6 0.602102 0.422526 0.195088
O O7 0.500000 0.500000 0.000000
O O8 0.519023 0.411205 0.813980
O O9 0.366346 0.638612 0.492482
#
# Coordination Sequence:
#
# PCOD8255179 Si02
#       4
#     8   8   8   8
#     4  11  24  42  67  93 126 173 212 265 325 376
#     4  11  26  42  69  96 130 174 212 266 325 378
#     4  11  24  45  62  97 132 164 218 268 311 392
#     4  11  23  45  63  96 134 161 220 267 311 390
#
# _framework density 19.924004
#
# number of rings (size 3 to 8) (size 9 to 14) (size 15 to 20)
#    0.000    1.000    5.000    0.750    3.500    3.000 
#    0.000    0.000    0.000    0.000    0.000    0.000 
#    0.000    0.000    0.000    0.000    0.000    0.000 
#
# Total GULP energy -397027.374860 kJ/mol
# GULP energy per Si atom -12407.105464 kJ/mol
# Density = 1.987866 g / cm^3
# Si number density = 19.924004 Si / 1000 Ang^3
#
#
#
# Elastic Constant Matrix: (Units=GPa)
#
#
# Indices 1 2 3 4 5 6 
#
# 1 85.2028 8.6382 9.4813 0.0000 0.0000 0.0000
# 2 8.6382 114.0896 11.0417 0.0000 0.0000 0.0000
# 3 9.4813 11.0417 70.8780 0.0000 0.0000 0.0000
# 4 0.0000 0.0000 0.0000 22.4159 0.0000 0.0000
# 5 0.0000 0.0000 0.0000 0.0000 39.1254 0.0000
# 6 0.0000 0.0000 0.0000 0.0000 0.0000 18.7828
#
#
#
# Elastic Compliance Matrix: (Units=1/GPa)
#
#
# Indices 1 2 3 4 5 6 
#
# 1 0.011979 -0.000763 -0.001484 0.000000 0.000000 0.000000
# 2 -0.000763 0.008948 -0.001292 0.000000 0.000000 0.000000
# 3 -0.001484 -0.001292 0.014508 0.000000 0.000000 0.000000
# 4 0.000000 0.000000 0.000000 0.044611 0.000000 0.000000
# 5 0.000000 0.000000 0.000000 0.000000 0.025559 0.000000
# 6 0.000000 0.000000 0.000000 0.000000 0.000000 0.053240
#
#
# Mechanical properties :
#
#
# Convention : Reuss Voigt Hill
#
# Bulk Modulus (GPa) = 35.26345 36.49922 35.88133
# Shear Modulus (GPa) = 28.51019 32.13211 30.32115
#
# Velocity S-wave (km/s) = 3.78689 4.02024 3.90531
# Velocity P-wave (km/s) = 6.07109 6.31734 6.19544
#
# Compressibility (1/GPa) = 0.02835798
#
# Stress axis : x y z
#
# Youngs Moduli (GPa) = 83.47815 111.75854 68.92537
#
# Poissons Ratio (x) = 0.08532 0.10225
# Poissons Ratio (y) = 0.06373 0.08904
# Poissons Ratio (z) = 0.12384 0.14437
#
# Static dielectric constant tensor:
#      x y z
#    x 3.981470 0.000000 0.000000 
#    y 0.000000 3.473870 0.000000 
#    z 0.000000 0.000000 4.054570 
# 
# 
# High freq. dielectric constant tensor:
#      x y z
#    x 1.799610 0.000000 0.000000 
#    y 0.000000 1.771390 0.000000 
#    z 0.000000 0.000000 1.789510 
# 
# From -- ./inp_files/194.got.cif
#   From: 2010.03.12/outbox.cif.g09.slc.cpg/sg62_1_cif.got.tgz:194.got - 2010.04.10 19:12:36.
