data_PCOD8255034
_publ_section_title
;
Structure prediction by ZEFSAII (Michael W. Deem and Ramdas Pophale) SiO2 
 PCOD8255034
Probable space group: P N M A
;
_chemical_formula_sum "Si O2"
_cell_formula_units_Z 48
_cell_length_a 16.567993
_cell_length_b 28.080092
_cell_length_c 4.951448
_cell_angle_alpha 90.000000
_cell_angle_beta 90.000000
_cell_angle_gamma 90.000000
_cell_volume 2303.565954
_symmetry_space_group_name_H-M "P N M A"
_symmetry_group_IT_number 62
_symmetry_cell_setting 'orthorhombic'
loop_
_space_group_symop_operation_xyz
x,y,z
1/2-x,-y,1/2+z
1/2+x,1/2-y,1/2-z
-x,1/2+y,-z
-x,-y,-z
1/2+x,y,1/2-z
1/2-x,1/2+y,1/2+z
x,1/2-y,z
loop_
_atom_site_type_symbol
_atom_site_label
_atom_site_fract_x
_atom_site_fract_y
_atom_site_fract_z
Si Si1 0.629107 0.109706 0.673915
Si Si2 0.142318 0.881605 0.628293
Si Si3 0.243111 0.468212 0.002297
Si Si4 0.880493 0.750000 0.610447
Si Si5 0.200060 0.155778 0.325794
Si Si6 0.545244 0.644409 0.382919
Si Si7 0.012736 0.250000 0.888234
O O1 0.658261 0.058401 0.562213
O O2 0.650775 0.149061 0.450665
O O3 0.534046 0.116656 0.726177
O O4 0.677872 0.115754 0.953300
O O5 0.186545 0.932198 0.596255
O O6 0.205446 0.844298 0.757819
O O7 0.114674 0.862993 0.337886
O O8 0.068133 0.882463 0.838307
O O9 0.223880 0.504707 0.240814
O O10 0.824433 0.705455 0.543172
O O11 0.958838 0.750000 0.421328
O O12 0.910044 0.750000 0.917737
O O13 0.536961 0.701166 0.435930
#
# Coordination Sequence:
#
# PCOD8255034 Si02
#       7
#     8   8   8   4   8   8   4
#     4  11  22  41  66  93 125 174 213 256 325 387
#     4  11  25  41  64  95 133 163 210 272 339 366
#     4  11  23  45  70  93 122 167 221 273 327 395
#     4  12  20  38  62  94 120 168 236 256 284 378
#     4  11  21  39  62  91 124 171 218 262 301 374
#     4  12  23  42  62  97 136 174 205 263 322 380
#     4  12  24  38  64  94 136 174 220 246 308 382
#
# _framework density 20.837257000000001
#
# number of rings (size 3 to 8) (size 9 to 14) (size 15 to 20)
#    0.000    0.667    3.333    7.000    0.000    1.333 
#    0.000    5.000    0.000    0.000    0.000    0.000 
#    0.000    0.000    0.000    0.000    0.000    0.000 
#
# Total GULP energy -595262.283652 kJ/mol
# GULP energy per Si atom -12401.297576 kJ/mol
# Density = 2.078983 g / cm^3
# Si number density = 20.837257 Si / 1000 Ang^3
#
#
#
# Elastic Constant Matrix: (Units=GPa)
#
#
# Indices 1 2 3 4 5 6 
#
# 1 84.9372 48.2932 26.1078 0.0000 0.0000 0.0000
# 2 48.2932 106.5098 27.7758 0.0000 0.0000 0.0000
# 3 26.1078 27.7758 111.6631 0.0000 0.0000 0.0000
# 4 0.0000 0.0000 0.0000 37.3867 0.0000 0.0000
# 5 0.0000 0.0000 0.0000 0.0000 41.2680 0.0000
# 6 0.0000 0.0000 0.0000 0.0000 0.0000 24.7851
#
#
#
# Elastic Compliance Matrix: (Units=1/GPa)
#
#
# Indices 1 2 3 4 5 6 
#
# 1 0.016316 -0.006847 -0.002112 0.000000 0.000000 0.000000
# 2 -0.006847 0.012914 -0.001611 0.000000 0.000000 0.000000
# 3 -0.002112 -0.001611 0.009850 0.000000 0.000000 0.000000
# 4 0.000000 0.000000 0.000000 0.026748 0.000000 0.000000
# 5 0.000000 0.000000 0.000000 0.000000 0.024232 0.000000
# 6 0.000000 0.000000 0.000000 0.000000 0.000000 0.040347
#
#
# Mechanical properties :
#
#
# Convention : Reuss Voigt Hill
#
# Bulk Modulus (GPa) = 55.74351 56.38487 56.06419
# Shear Modulus (GPa) = 31.74102 34.08351 32.91226
#
# Velocity S-wave (km/s) = 3.90716 4.04877 3.97859
# Velocity P-wave (km/s) = 6.86764 6.99822 6.93324
#
# Compressibility (1/GPa) = 0.01793931
#
# Stress axis : x y z
#
# Youngs Moduli (GPa) = 61.29136 77.43788 101.52273
#
# Poissons Ratio (x) = 0.53022 0.21437
# Poissons Ratio (y) = 0.41967 0.16358
# Poissons Ratio (z) = 0.12942 0.12478
#
# Static dielectric constant tensor:
#      x y z
#    x 3.673110 0.000000 0.000000 
#    y 0.000000 3.739230 0.000000 
#    z 0.000000 0.000000 3.878130 
# 
# 
# High freq. dielectric constant tensor:
#      x y z
#    x 1.804960 0.000000 0.000000 
#    y 0.000000 1.806940 0.000000 
#    z 0.000000 0.000000 1.841570 
# 
# From -- ./inp_files/1175.got.cif
#   From: 2010.03.12/outbox.cif.g09.slc.cpg/sg62_1_cif.got.tgz:1175.got - 2010.04.10 19:12:36.
