data_PCOD8255438
_publ_section_title
;
Structure prediction by ZEFSAII (Michael W. Deem and Ramdas Pophale) SiO2 
 PCOD8255438
Probable space group: C M C M
;
_chemical_formula_sum "Si O2"
_cell_formula_units_Z 96
_cell_length_a 19.540325
_cell_length_b 31.453643
_cell_length_c 8.773907
_cell_angle_alpha 90.000000
_cell_angle_beta 90.000000
_cell_angle_gamma 90.000000
_cell_volume 5392.569645
_symmetry_space_group_name_H-M "C M C M"
_symmetry_group_IT_number 63
_symmetry_cell_setting 'orthorhombic'
loop_
_space_group_symop_operation_xyz
x,y,z
-x,-y,1/2+z
x,-y,-z
-x,y,1/2-z
-x,-y,-z
x,y,1/2-z
-x,y,z
x,-y,1/2+z
1/2+x,1/2+y,z
1/2-x,1/2-y,1/2+z
1/2+x,1/2-y,-z
1/2-x,1/2+y,1/2-z
1/2-x,1/2-y,-z
1/2+x,1/2+y,1/2-z
1/2-x,1/2+y,z
1/2+x,1/2-y,1/2+z
loop_
_atom_site_type_symbol
_atom_site_label
_atom_site_fract_x
_atom_site_fract_y
_atom_site_fract_z
Si Si1 0.820807 0.540401 0.928385
Si Si2 0.171696 0.957730 0.930019
Si Si3 0.922829 0.705698 0.569001
Si Si4 0.175013 0.366574 0.072338
Si Si5 0.670433 0.371493 0.068994
Si Si6 0.078367 0.793346 0.428525
O O1 0.807134 0.533066 0.750000
O O2 0.857065 0.586091 0.956146
O O3 0.862889 0.500000 0.000000
O O4 0.750099 0.542040 0.018455
O O5 0.164409 0.958759 0.750000
O O6 0.138651 0.914303 0.995232
O O7 0.135297 0.000000 0.000000
O O8 0.921426 0.705009 0.750000
O O9 0.874760 0.668631 0.497861
O O10 0.895035 0.750988 0.511824
O O11 0.000000 0.698151 0.508400
O O12 0.179164 0.357006 0.250000
O O13 0.252262 0.363362 0.007462
O O14 0.669598 0.377361 0.250000
O O15 0.624054 0.332437 0.013802
O O16 0.087365 0.786166 0.250000
O O17 0.000000 0.803137 0.472478
#
# Coordination Sequence:
#
# PCOD8255438 Si02
#       6
#    16  16  16  16  16  16
#     4   9  15  25  41  61  88 118 147 179 216 259
#     4  10  17  26  42  65  92 118 146 178 213 256
#     4   9  17  30  47  64  84 114 150 182 213 257
#     4   8  15  27  43  64  88 114 144 179 218 255
#     4   9  17  30  46  64  89 117 144 178 218 258
#     4   9  18  32  48  65  86 114 145 177 219 266
#
# _framework density 17.802274000000001
#
# number of rings (size 3 to 8) (size 9 to 14) (size 15 to 20)
#    0.000    3.000    0.000    4.000    0.000    1.333 
#    0.000    4.167    0.000    1.000    0.000    0.000 
#    0.000    0.000    0.000    0.000    0.000    6.000 
#
# Total GULP energy -594773.109820 kJ/mol
# GULP energy per Si atom -12391.106455 kJ/mol
# Density = 1.776176 g / cm^3
# Si number density = 17.802274 Si / 1000 Ang^3
#
#
#
# Elastic Constant Matrix: (Units=GPa)
#
#
# Indices 1 2 3 4 5 6 
#
# 1 53.5223 68.9755 17.6220 0.0000 0.0000 0.0000
# 2 68.9755 201.0409 44.7176 0.0000 0.0000 0.0000
# 3 17.6220 44.7176 53.1441 0.0000 0.0000 0.0000
# 4 0.0000 0.0000 0.0000 31.6088 0.0000 0.0000
# 5 0.0000 0.0000 0.0000 0.0000 10.8836 0.0000
# 6 0.0000 0.0000 0.0000 0.0000 0.0000 8.3932
#
#
#
# Elastic Compliance Matrix: (Units=1/GPa)
#
#
# Indices 1 2 3 4 5 6 
#
# 1 0.033628 -0.011143 -0.001775 0.000000 0.000000 0.000000
# 2 -0.011143 0.009812 -0.004561 0.000000 0.000000 0.000000
# 3 -0.001775 -0.004561 0.023243 0.000000 0.000000 0.000000
# 4 0.000000 0.000000 0.000000 0.031637 0.000000 0.000000
# 5 0.000000 0.000000 0.000000 0.000000 0.091881 0.000000
# 6 0.000000 0.000000 0.000000 0.000000 0.000000 0.119145
#
#
# Mechanical properties :
#
#
# Convention : Reuss Voigt Hill
#
# Bulk Modulus (GPa) = 31.52016 63.37084 47.44550
# Shear Modulus (GPa) = 14.08936 21.93660 18.01298
#
# Velocity S-wave (km/s) = 2.81630 3.51413 3.18439
# Velocity P-wave (km/s) = 5.32161 7.22079 6.34269
#
# Compressibility (1/GPa) = 0.03172572
#
# Stress axis : x y z
#
# Youngs Moduli (GPa) = 29.73705 101.91977 43.02345
#
# Poissons Ratio (x) = 1.13567 0.07635
# Poissons Ratio (y) = 0.33135 0.19623
# Poissons Ratio (z) = 0.05277 0.46487
#
# Static dielectric constant tensor:
#      x y z
#    x 3.082360 0.000000 0.000000 
#    y 0.000000 4.116660 0.000000 
#    z 0.000000 0.000000 3.121130 
# 
# 
# High freq. dielectric constant tensor:
#      x y z
#    x 1.634360 0.000000 0.000000 
#    y 0.000000 1.715700 0.000000 
#    z 0.000000 0.000000 1.671240 
# 
# From -- ./inp_files/8515.got.cif
#   From: 2010.03.12/outbox.cif.g09.slc.cpg/sg63_5_cif.got.tgz:8515.got - 2010.04.10 19:34:48.
