data_PCOD8255546
_publ_section_title
;
Structure prediction by ZEFSAII (Michael W. Deem and Ramdas Pophale) SiO2 
 PCOD8255546
Probable space group: C M C M
;
_chemical_formula_sum "Si O2"
_cell_formula_units_Z 96
_cell_length_a 22.792142
_cell_length_b 27.918170
_cell_length_c 8.705149
_cell_angle_alpha 90.000000
_cell_angle_beta 90.000000
_cell_angle_gamma 90.000000
_cell_volume 5539.215972
_symmetry_space_group_name_H-M "C M C M"
_symmetry_group_IT_number 63
_symmetry_cell_setting 'orthorhombic'
loop_
_space_group_symop_operation_xyz
x,y,z
-x,-y,1/2+z
x,-y,-z
-x,y,1/2-z
-x,-y,-z
x,y,1/2-z
-x,y,z
x,-y,1/2+z
1/2+x,1/2+y,z
1/2-x,1/2-y,1/2+z
1/2+x,1/2-y,-z
1/2-x,1/2+y,1/2-z
1/2-x,1/2-y,-z
1/2+x,1/2+y,1/2-z
1/2-x,1/2+y,z
1/2+x,1/2-y,1/2+z
loop_
_atom_site_type_symbol
_atom_site_label
_atom_site_fract_x
_atom_site_fract_y
_atom_site_fract_z
Si Si1 0.320568 0.808572 0.575062
Si Si2 0.500000 0.130084 0.568327
Si Si3 0.798015 0.140416 0.076668
Si Si4 0.769213 0.449446 0.567712
Si Si5 0.500000 0.238406 0.932132
Si Si6 0.374783 0.101893 0.571048
Si Si7 0.877441 0.220283 0.433355
O O1 0.342616 0.815629 0.750000
O O2 0.251650 0.818941 0.564981
O O3 0.355116 0.844155 0.462794
O O4 0.332268 0.755555 0.516224
O O5 0.500000 0.136992 0.750000
O O6 0.500000 0.184388 0.498300
O O7 0.442929 0.099530 0.517681
O O8 0.810073 0.125036 0.250000
O O9 0.775354 0.091055 0.996747
O O10 0.857418 0.166217 0.013320
O O11 0.749515 0.500000 0.500000
O O12 0.766689 0.451015 0.750000
O O13 0.836019 0.436610 0.521406
O O14 0.500000 0.235967 0.750000
O O15 0.556768 0.268067 0.989717
O O16 0.367542 0.090510 0.750000
O O17 0.870903 0.225393 0.250000
#
# Coordination Sequence:
#
# PCOD8255546 Si02
#       7
#    16   8  16  16   8  16  16
#     4  10  18  28  41  65  97 126 157 194 228 272
#     4   9  16  28  45  69  94 123 166 200 220 262
#     4   8  17  30  46  67  92 118 150 193 234 276
#     4  10  20  36  53  73  94 114 149 194 244 292
#     4   9  16  26  44  69  94 125 165 196 218 260
#     4  10  18  31  50  69  92 126 162 196 233 270
#     4  10  17  29  46  65  92 127 159 190 228 269
#
# _framework density 17.330973
#
# number of rings (size 3 to 8) (size 9 to 14) (size 15 to 20)
#    0.000    2.500    1.667    3.000    0.000    0.000 
#    0.000    7.500    0.000    0.000    0.000    0.583 
#    0.000    0.000    0.000    0.000    0.000    0.000 
#
# Total GULP energy -594708.438161 kJ/mol
# GULP energy per Si atom -12389.759128 kJ/mol
# Density = 1.729153 g / cm^3
# Si number density = 17.330973 Si / 1000 Ang^3
#
#
#
# Elastic Constant Matrix: (Units=GPa)
#
#
# Indices 1 2 3 4 5 6 
#
# 1 54.4277 51.1563 14.3994 0.0000 0.0000 0.0000
# 2 51.1563 118.1939 20.2306 0.0000 0.0000 0.0000
# 3 14.3994 20.2306 37.8411 0.0000 0.0000 0.0000
# 4 0.0000 0.0000 0.0000 17.5075 0.0000 0.0000
# 5 0.0000 0.0000 0.0000 0.0000 13.8858 0.0000
# 6 0.0000 0.0000 0.0000 0.0000 0.0000 16.2149
#
#
#
# Elastic Compliance Matrix: (Units=1/GPa)
#
#
# Indices 1 2 3 4 5 6 
#
# 1 0.031888 -0.012906 -0.005234 0.000000 0.000000 0.000000
# 2 -0.012906 0.014536 -0.002860 0.000000 0.000000 0.000000
# 3 -0.005234 -0.002860 0.029947 0.000000 0.000000 0.000000
# 4 0.000000 0.000000 0.000000 0.057118 0.000000 0.000000
# 5 0.000000 0.000000 0.000000 0.000000 0.072016 0.000000
# 6 0.000000 0.000000 0.000000 0.000000 0.000000 0.061672
#
#
# Mechanical properties :
#
#
# Convention : Reuss Voigt Hill
#
# Bulk Modulus (GPa) = 29.09489 42.44835 35.77162
# Shear Modulus (GPa) = 15.59410 17.83342 16.71376
#
# Velocity S-wave (km/s) = 3.00289 3.21127 3.10883
# Velocity P-wave (km/s) = 5.37098 6.18834 5.79409
#
# Compressibility (1/GPa) = 0.03437029
#
# Stress axis : x y z
#
# Youngs Moduli (GPa) = 31.36010 68.79468 33.39199
#
# Poissons Ratio (x) = 0.88783 0.17479
# Poissons Ratio (y) = 0.40472 0.09551
# Poissons Ratio (z) = 0.16415 0.19678
#
# Static dielectric constant tensor:
#      x y z
#    x 3.403220 0.000000 0.000000 
#    y 0.000000 3.245290 0.000000 
#    z 0.000000 0.000000 3.003810 
# 
# 
# High freq. dielectric constant tensor:
#      x y z
#    x 1.655450 0.000000 0.000000 
#    y 0.000000 1.650490 0.000000 
#    z 0.000000 0.000000 1.646650 
# 
# From -- ./inp_files/10755.got.cif
#   From: 2010.03.12/outbox.cif.g09.slc.cpg/sg63_6_cif.got.tgz:10755.got - 2010.04.10 19:34:48.
