data_PCOD8255246
_publ_section_title
;
Structure prediction by ZEFSAII (Michael W. Deem and Ramdas Pophale) SiO2 
 PCOD8255246
Probable space group: P N M A
;
_chemical_formula_sum "Si O2"
_cell_formula_units_Z 40
_cell_length_a 17.128110
_cell_length_b 21.530975
_cell_length_c 4.967895
_cell_angle_alpha 90.000000
_cell_angle_beta 90.000000
_cell_angle_gamma 90.000000
_cell_volume 1832.084702
_symmetry_space_group_name_H-M "P N M A"
_symmetry_group_IT_number 62
_symmetry_cell_setting 'orthorhombic'
loop_
_space_group_symop_operation_xyz
x,y,z
1/2-x,-y,1/2+z
1/2+x,1/2-y,1/2-z
-x,1/2+y,-z
-x,-y,-z
1/2+x,y,1/2-z
1/2-x,1/2+y,1/2+z
x,1/2-y,z
loop_
_atom_site_type_symbol
_atom_site_label
_atom_site_fract_x
_atom_site_fract_y
_atom_site_fract_z
Si Si1 0.632783 0.638501 0.652626
Si Si2 0.199702 0.320395 0.194987
Si Si3 0.196253 0.504192 0.818979
Si Si4 0.124840 0.378085 0.696767
Si Si5 0.460095 0.322436 0.847378
O O1 0.708618 0.674818 0.752416
O O2 0.648709 0.565831 0.609049
O O3 0.608127 0.667257 0.368015
O O4 0.564341 0.648986 0.867171
O O5 0.172122 0.250000 0.237635
O O6 0.149613 0.363882 0.391675
O O7 0.183259 0.340487 0.889720
O O8 0.254446 0.518976 0.574238
O O9 0.133787 0.451598 0.741918
O O10 0.036411 0.358679 0.754084
O O11 0.479153 0.250000 0.881318
#
# Coordination Sequence:
#
# PCOD8255246 Si02
#       5
#     8   8   8   8   8
#     4  12  25  43  70  98 134 181 219 278 336 386
#     4  12  23  41  68 100 128 177 233 270 324 398
#     4  12  23  46  70  98 134 168 231 284 320 390
#     4  12  25  44  70  97 135 181 218 277 336 387
#     4  12  26  44  64 101 143 173 217 277 338 401
#
# _framework density 21.833054000000001
#
# number of rings (size 3 to 8) (size 9 to 14) (size 15 to 20)
#    0.000    0.000    4.000    7.200    0.000    1.600 
#    0.000    0.000    0.000    0.000    0.000    0.000 
#    0.000    0.000    0.000    0.000    0.000    0.000 
#
# Total GULP energy -496454.361213 kJ/mol
# GULP energy per Si atom -12411.359030 kJ/mol
# Density = 2.178336 g / cm^3
# Si number density = 21.833054 Si / 1000 Ang^3
#
#
#
# Elastic Constant Matrix: (Units=GPa)
#
#
# Indices 1 2 3 4 5 6 
#
# 1 80.5984 24.9260 5.3339 0.0000 0.0000 0.0000
# 2 24.9260 99.0604 5.3506 0.0000 0.0000 0.0000
# 3 5.3339 5.3506 79.0800 0.0000 0.0000 0.0000
# 4 0.0000 0.0000 0.0000 31.4157 0.0000 0.0000
# 5 0.0000 0.0000 0.0000 0.0000 37.8499 0.0000
# 6 0.0000 0.0000 0.0000 0.0000 0.0000 31.4535
#
#
#
# Elastic Compliance Matrix: (Units=1/GPa)
#
#
# Indices 1 2 3 4 5 6 
#
# 1 0.013491 -0.003358 -0.000683 0.000000 0.000000 0.000000
# 2 -0.003358 0.010968 -0.000516 0.000000 0.000000 0.000000
# 3 -0.000683 -0.000516 0.012726 0.000000 0.000000 0.000000
# 4 0.000000 0.000000 0.000000 0.031831 0.000000 0.000000
# 5 0.000000 0.000000 0.000000 0.000000 0.026420 0.000000
# 6 0.000000 0.000000 0.000000 0.000000 0.000000 0.031793
#
#
# Mechanical properties :
#
#
# Convention : Reuss Voigt Hill
#
# Bulk Modulus (GPa) = 35.62196 36.66219 36.14207
# Shear Modulus (GPa) = 34.31740 35.01906 34.66823
#
# Velocity S-wave (km/s) = 3.96891 4.00928 3.98914
# Velocity P-wave (km/s) = 6.11179 6.18554 6.14878
#
# Compressibility (1/GPa) = 0.02807257
#
# Stress axis : x y z
#
# Youngs Moduli (GPa) = 74.12463 91.17783 78.57704
#
# Poissons Ratio (x) = 0.30615 0.05365
# Poissons Ratio (y) = 0.24889 0.04051
# Poissons Ratio (z) = 0.05061 0.04701
#
# Static dielectric constant tensor:
#      x y z
#    x 3.823270 0.000000 0.000000 
#    y 0.000000 3.978540 0.000000 
#    z 0.000000 0.000000 4.059600 
# 
# 
# High freq. dielectric constant tensor:
#      x y z
#    x 1.852710 0.000000 0.000000 
#    y 0.000000 1.871420 0.000000 
#    z 0.000000 0.000000 1.874340 
# 
# From -- ./inp_files/1048.got.cif
#   From: 2010.03.12/outbox.cif.g09.slc.cpg/sg62_1_cif.got.tgz:1048.got - 2010.04.10 19:12:36.
