data_PCOD8255557
_publ_section_title
;
Structure prediction by ZEFSAII (Michael W. Deem and Ramdas Pophale) SiO2 
 PCOD8255557
Probable space group: C M C M
;
_chemical_formula_sum "Si O2"
_cell_formula_units_Z 128
_cell_length_a 21.678152
_cell_length_b 21.330967
_cell_length_c 17.379095
_cell_angle_alpha 90.000000
_cell_angle_beta 90.000000
_cell_angle_gamma 90.000000
_cell_volume 8036.370637
_symmetry_space_group_name_H-M "C M C M"
_symmetry_group_IT_number 63
_symmetry_cell_setting 'orthorhombic'
loop_
_space_group_symop_operation_xyz
x,y,z
-x,-y,1/2+z
x,-y,-z
-x,y,1/2-z
-x,-y,-z
x,y,1/2-z
-x,y,z
x,-y,1/2+z
1/2+x,1/2+y,z
1/2-x,1/2-y,1/2+z
1/2+x,1/2-y,-z
1/2-x,1/2+y,1/2-z
1/2-x,1/2-y,-z
1/2+x,1/2+y,1/2-z
1/2-x,1/2+y,z
1/2+x,1/2-y,1/2+z
loop_
_atom_site_type_symbol
_atom_site_label
_atom_site_fract_x
_atom_site_fract_y
_atom_site_fract_z
Si Si1 0.329220 0.147665 0.432337
Si Si2 0.429520 0.383169 0.160211
Si Si3 0.646606 0.073117 0.663318
Si Si4 0.244103 0.649938 0.580658
Si Si5 0.068866 0.572415 0.518690
Si Si6 0.233275 0.457706 0.838380
Si Si7 0.842536 0.231199 0.659507
Si Si8 0.667600 0.463939 0.076220
O O1 0.292890 0.174909 0.506307
O O2 0.387584 0.107847 0.459297
O O3 0.281751 0.105254 0.384500
O O4 0.356947 0.202382 0.379327
O O5 0.425371 0.398249 0.250000
O O6 0.500000 0.381060 0.131283
O O7 0.399011 0.315766 0.142653
O O8 0.393874 0.438945 0.117394
O O9 0.622552 0.081714 0.750000
O O10 0.698096 0.125161 0.646155
O O11 0.589187 0.082333 0.606801
O O12 0.676172 0.004817 0.650745
O O13 0.280377 0.706269 0.620142
O O14 0.288467 0.593740 0.553272
O O15 0.071824 0.500000 0.500000
O O16 0.000000 0.599233 0.509569
O O17 0.243299 0.439812 0.750000
O O18 0.296501 0.488415 0.868121
O O19 0.831802 0.239915 0.750000
O O20 0.646618 0.500000 0.000000
#
# Coordination Sequence:
#
# PCOD8255557 Si02
#       8
#    16  16  16  16  16  16  16  16
#     4  11  19  31  50  71  97 129 164 197 244 293
#     4   9  19  35  51  68  96 133 167 200 238 280
#     4   9  17  29  49  69  92 126 162 199 243 292
#     4   9  18  30  49  71 100 127 156 194 248 295
#     4  10  20  33  47  65  95 130 164 203 244 285
#     4  10  18  28  45  72 101 126 155 195 245 294
#     4  10  20  33  49  71  99 129 163 201 237 286
#     4  10  17  29  50  75  98 126 157 197 242 299
#
# _framework density 15.927587000000001
#
# number of rings (size 3 to 8) (size 9 to 14) (size 15 to 20)
#    0.000    2.250    2.500    1.500    0.000    4.000 
#    0.000    0.000    0.000    1.125    0.000    0.000 
#    0.000    0.000    0.000    0.000    0.000    0.000 
#
# Total GULP energy -793622.624990 kJ/mol
# GULP energy per Si atom -12400.353515 kJ/mol
# Density = 1.589134 g / cm^3
# Si number density = 15.927587 Si / 1000 Ang^3
#
#
#
# Elastic Constant Matrix: (Units=GPa)
#
#
# Indices 1 2 3 4 5 6 
#
# 1 107.6612 40.7062 47.5996 0.0000 0.0000 0.0000
# 2 40.7062 72.0978 46.6693 0.0000 0.0000 0.0000
# 3 47.5996 46.6693 100.7634 0.0000 0.0000 0.0000
# 4 0.0000 0.0000 0.0000 28.1555 0.0000 0.0000
# 5 0.0000 0.0000 0.0000 0.0000 19.0651 0.0000
# 6 0.0000 0.0000 0.0000 0.0000 0.0000 13.6152
#
#
#
# Elastic Compliance Matrix: (Units=1/GPa)
#
#
# Indices 1 2 3 4 5 6 
#
# 1 0.012775 -0.004722 -0.003848 0.000000 0.000000 0.000000
# 2 -0.004722 0.021554 -0.007752 0.000000 0.000000 0.000000
# 3 -0.003848 -0.007752 0.015332 0.000000 0.000000 0.000000
# 4 0.000000 0.000000 0.000000 0.035517 0.000000 0.000000
# 5 0.000000 0.000000 0.000000 0.000000 0.052452 0.000000
# 6 0.000000 0.000000 0.000000 0.000000 0.000000 0.073447
#
#
# Mechanical properties :
#
#
# Convention : Reuss Voigt Hill
#
# Bulk Modulus (GPa) = 58.76345 61.16363 59.96354
# Shear Modulus (GPa) = 20.04857 21.87033 20.95945
#
# Velocity S-wave (km/s) = 3.55171 3.70957 3.63150
# Velocity P-wave (km/s) = 7.33442 7.53872 7.43727
#
# Compressibility (1/GPa) = 0.01701738
#
# Stress axis : x y z
#
# Youngs Moduli (GPa) = 78.27828 46.39459 65.22133
#
# Poissons Ratio (x) = 0.21908 0.25095
# Poissons Ratio (y) = 0.36963 0.50562
# Poissons Ratio (z) = 0.30119 0.35967
#
# Static dielectric constant tensor:
#      x y z
#    x 2.975860 0.000000 0.000000 
#    y 0.000000 2.876430 0.000000 
#    z 0.000000 0.000000 3.064730 
# 
# 
# High freq. dielectric constant tensor:
#      x y z
#    x 1.598570 0.000000 0.000000 
#    y 0.000000 1.598410 0.000000 
#    z 0.000000 0.000000 1.620980 
# 
# From -- ./inp_files/47568.got.cif
#   From: 2010.03.12/outbox.cif.g09.slc.cpg/sg63_24_cif.got.tgz:47568.got - 2010.04.10 19:34:48.
