data_PCOD8255257
_publ_section_title
;
Structure prediction by ZEFSAII (Michael W. Deem and Ramdas Pophale) SiO2 
 PCOD8255257
Probable space group: P N M A
;
_chemical_formula_sum "Si O2"
_cell_formula_units_Z 40
_cell_length_a 8.385698
_cell_length_b 12.830346
_cell_length_c 20.287842
_cell_angle_alpha 90.000000
_cell_angle_beta 90.000000
_cell_angle_gamma 90.000000
_cell_volume 2182.797462
_symmetry_space_group_name_H-M "P N M A"
_symmetry_group_IT_number 62
_symmetry_cell_setting 'orthorhombic'
loop_
_space_group_symop_operation_xyz
x,y,z
1/2-x,-y,1/2+z
1/2+x,1/2-y,1/2-z
-x,1/2+y,-z
-x,-y,-z
1/2+x,y,1/2-z
1/2-x,1/2+y,1/2+z
x,1/2-y,z
loop_
_atom_site_type_symbol
_atom_site_label
_atom_site_fract_x
_atom_site_fract_y
_atom_site_fract_z
Si Si1 0.754554 0.750000 0.702897
Si Si2 0.258952 0.580910 0.570916
Si Si3 0.114289 0.750000 0.658880
Si Si4 0.124461 0.581073 0.889226
Si Si5 0.284978 0.137420 0.530141
Si Si6 0.849536 0.637289 0.069958
O O1 0.739212 0.750000 0.781347
O O2 0.671939 0.854288 0.674949
O O3 0.939352 0.750000 0.687448
O O4 0.138088 0.646021 0.615573
O O5 0.436289 0.594038 0.599464
O O6 0.202885 0.458875 0.569091
O O7 0.246449 0.622982 0.496339
O O8 0.174502 0.458953 0.879424
O O9 0.224905 0.624248 0.951304
O O10 0.208213 0.250000 0.549675
O O11 0.468968 0.134865 0.547981
O O12 0.806436 0.750000 0.102439
#
# Coordination Sequence:
#
# PCOD8255257 Si02
#       6
#     4   8   4   8   8   8
#     4  12  24  36  50  68  96 132 169 210 247 288
#     4   9  16  29  50  74 100 129 164 199 235 288
#     4  12  24  36  50  68  96 132 169 210 247 288
#     4   9  16  29  50  74 100 129 164 199 235 288
#     4   8  13  24  49  79 103 128 157 193 237 290
#     4   8  13  24  49  79 103 128 157 193 237 290
#
# _framework density 18.325109000000001
#
# number of rings (size 3 to 8) (size 9 to 14) (size 15 to 20)
#    0.000    2.800    2.000    4.200    0.000    0.000 
#    0.000    4.000    0.000    1.200    0.000    0.000 
#    0.000    0.000    0.000    0.000    0.000    0.000 
#
# Total GULP energy -495588.307389 kJ/mol
# GULP energy per Si atom -12389.707685 kJ/mol
# Density = 1.828340 g / cm^3
# Si number density = 18.325109 Si / 1000 Ang^3
#
#
#
# Elastic Constant Matrix: (Units=GPa)
#
#
# Indices 1 2 3 4 5 6 
#
# 1 20.7250 2.6386 -9.9868 0.0000 0.0000 0.0000
# 2 2.6386 178.5756 24.4897 0.0000 0.0000 0.0000
# 3 -9.9868 24.4897 32.8085 0.0000 0.0000 0.0000
# 4 0.0000 0.0000 0.0000 15.4607 0.0000 0.0000
# 5 0.0000 0.0000 0.0000 0.0000 20.2050 0.0000
# 6 0.0000 0.0000 0.0000 0.0000 0.0000 14.1642
#
#
#
# Elastic Compliance Matrix: (Units=1/GPa)
#
#
# Indices 1 2 3 4 5 6 
#
# 1 0.058653 -0.003693 0.020611 0.000000 0.000000 0.000000
# 2 -0.003693 0.006471 -0.005954 0.000000 0.000000 0.000000
# 3 0.020611 -0.005954 0.041198 0.000000 0.000000 0.000000
# 4 0.000000 0.000000 0.000000 0.064680 0.000000 0.000000
# 5 0.000000 0.000000 0.000000 0.000000 0.049493 0.000000
# 6 0.000000 0.000000 0.000000 0.000000 0.000000 0.070600
#
#
# Mechanical properties :
#
#
# Convention : Reuss Voigt Hill
#
# Bulk Modulus (GPa) = 7.79739 29.59911 18.69825
# Shear Modulus (GPa) = 16.02981 24.29717 20.16349
#
# Velocity S-wave (km/s) = 2.96082 3.64523 3.32071
# Velocity P-wave (km/s) = 3.99410 5.82274 4.99285
#
# Compressibility (1/GPa) = 0.12824810
#
# Stress axis : x y z
#
# Youngs Moduli (GPa) = 17.04947 154.53507 24.27281
#
# Poissons Ratio (x) = 0.57072 -0.50028
# Poissons Ratio (y) = 0.06297 0.14453
# Poissons Ratio (z) = -0.35140 0.92017
#
# Static dielectric constant tensor:
#      x y z
#    x 2.902230 0.000000 0.000000 
#    y 0.000000 4.180720 0.000000 
#    z 0.000000 0.000000 3.000200 
# 
# 
# High freq. dielectric constant tensor:
#      x y z
#    x 1.672830 0.000000 0.000000 
#    y 0.000000 1.736800 0.000000 
#    z 0.000000 0.000000 1.655410 
# 
# From -- ./inp_files/18620.got.cif
#   From: 2010.03.12/outbox.cif.g09.slc.cpg/sg62_10_cif.got.tgz:18620.got - 2010.04.10 19:12:36.
