data_PCOD8255273
_publ_section_title
;
Structure prediction by ZEFSAII (Michael W. Deem and Ramdas Pophale) SiO2 
 PCOD8255273
Probable space group: P N M A
;
_chemical_formula_sum "Si O2"
_cell_formula_units_Z 64
_cell_length_a 12.159832
_cell_length_b 9.571678
_cell_length_c 34.122800
_cell_angle_alpha 90.000000
_cell_angle_beta 90.000000
_cell_angle_gamma 90.000000
_cell_volume 3971.552570
_symmetry_space_group_name_H-M "P N M A"
_symmetry_group_IT_number 62
_symmetry_cell_setting 'orthorhombic'
loop_
_space_group_symop_operation_xyz
x,y,z
1/2-x,-y,1/2+z
1/2+x,1/2-y,1/2-z
-x,1/2+y,-z
-x,-y,-z
1/2+x,y,1/2-z
1/2-x,1/2+y,1/2+z
x,1/2-y,z
loop_
_atom_site_type_symbol
_atom_site_label
_atom_site_fract_x
_atom_site_fract_y
_atom_site_fract_z
Si Si1 0.175807 0.083793 0.129363
Si Si2 0.200881 0.915857 0.768874
Si Si3 0.635202 0.583167 0.815403
Si Si4 0.642666 0.911420 0.528983
Si Si5 0.767460 0.084332 0.108708
Si Si6 0.388689 0.588398 0.544125
Si Si7 0.454627 0.416034 0.335324
Si Si8 0.609607 0.083623 0.174411
O O1 0.170563 0.250000 0.129261
O O2 0.290070 0.030942 0.148260
O O3 0.162584 0.031024 0.084770
O O4 0.076469 0.024596 0.156466
O O5 0.208267 0.750000 0.767874
O O6 0.188872 0.974930 0.724895
O O7 0.091519 0.962463 0.792859
O O8 0.311091 0.972432 0.790577
O O9 0.630883 0.750000 0.814112
O O10 0.512580 0.521053 0.820689
O O11 0.661660 0.750000 0.518177
O O12 0.726459 0.963453 0.563263
O O13 0.519320 0.935572 0.544751
O O14 0.668030 0.002110 0.490707
O O15 0.775531 0.250000 0.109691
O O16 0.872957 0.023652 0.131573
O O17 0.657332 0.035644 0.131796
O O18 0.359844 0.750000 0.537555
O O19 0.456873 0.250000 0.337812
O O20 0.605766 0.250000 0.176291
#
# Coordination Sequence:
#
# PCOD8255273 Si02
#       8
#     8   8   8   8   8   8   8   8
#     4   9  15  22  32  46  68  99 126 149 185 235
#     4   8  14  20  28  41  61  90 125 162 185 210
#     4   9  16  21  28  43  64  95 129 157 186 222
#     4   9  15  24  40  59  75  98 131 163 194 231
#     4   8  12  21  35  48  64  88 120 157 188 220
#     4   9  16  25  37  56  82 103 124 158 199 239
#     4   8  12  19  30  43  61  88 122 151 179 220
#     4   8  14  22  29  42  64  90 124 160 188 218
#
# _framework density 16.114605000000001
#
# number of rings (size 3 to 8) (size 9 to 14) (size 15 to 20)
#    0.000    3.500    1.250    1.500    1.750    0.000 
#    0.000    0.000    0.000    0.750    0.000    0.000 
#    0.000    0.000    0.000    5.625    0.000   10.000 
#
# Total GULP energy -792851.633258 kJ/mol
# GULP energy per Si atom -12388.306770 kJ/mol
# Density = 1.607793 g / cm^3
# Si number density = 16.114605 Si / 1000 Ang^3
#
#
#
# Elastic Constant Matrix: (Units=GPa)
#
#
# Indices 1 2 3 4 5 6 
#
# 1 115.2150 9.4758 72.1703 0.0000 0.0000 0.0000
# 2 9.4758 11.2152 20.8247 0.0000 0.0000 0.0000
# 3 72.1703 20.8247 154.2034 0.0000 0.0000 0.0000
# 4 0.0000 0.0000 0.0000 13.3570 0.0000 0.0000
# 5 0.0000 0.0000 0.0000 0.0000 24.3068 0.0000
# 6 0.0000 0.0000 0.0000 0.0000 0.0000 3.9841
#
#
#
# Elastic Compliance Matrix: (Units=1/GPa)
#
#
# Indices 1 2 3 4 5 6 
#
# 1 0.012281 0.000395 -0.005801 0.000000 0.000000 0.000000
# 2 0.000395 0.119019 -0.016258 0.000000 0.000000 0.000000
# 3 -0.005801 -0.016258 0.011396 0.000000 0.000000 0.000000
# 4 0.000000 0.000000 0.000000 0.074867 0.000000 0.000000
# 5 0.000000 0.000000 0.000000 0.000000 0.041141 0.000000
# 6 0.000000 0.000000 0.000000 0.000000 0.000000 0.250997
#
#
# Mechanical properties :
#
#
# Convention : Reuss Voigt Hill
#
# Bulk Modulus (GPa) = 10.06365 53.95280 32.00823
# Shear Modulus (GPa) = 8.53024 20.20709 14.36867
#
# Velocity S-wave (km/s) = 2.30325 3.54497 2.98930
# Velocity P-wave (km/s) = 3.65129 7.09289 5.64097
#
# Compressibility (1/GPa) = 0.09936756
#
# Stress axis : x y z
#
# Youngs Moduli (GPa) = 81.42907 8.40203 87.75355
#
# Poissons Ratio (x) = -0.00332 0.50906
# Poissons Ratio (y) = -0.03220 1.42672
# Poissons Ratio (z) = 0.47237 0.13660
#
# Static dielectric constant tensor:
#      x y z
#    x 3.189470 0.000000 0.000000 
#    y 0.000000 2.312000 0.000000 
#    z 0.000000 0.000000 3.352710 
# 
# 
# High freq. dielectric constant tensor:
#      x y z
#    x 1.605260 0.000000 0.000000 
#    y 0.000000 1.528910 0.000000 
#    z 0.000000 0.000000 1.631120 
# 
# From -- ./inp_files/31219.got.cif
#   From: 2010.03.12/outbox.cif.g09.slc.cpg/sg62_16_cif.got.tgz:31219.got - 2010.04.10 19:12:36.
