data_PCOD8255880
_publ_section_title
;
Structure prediction by ZEFSAII (Michael W. Deem and Ramdas Pophale) SiO2 
 PCOD8255880
Probable space group: C M C M
;
_chemical_formula_sum "Si O2"
_cell_formula_units_Z 96
_cell_length_a 25.308166
_cell_length_b 23.519227
_cell_length_c 9.409455
_cell_angle_alpha 90.000000
_cell_angle_beta 90.000000
_cell_angle_gamma 90.000000
_cell_volume 5600.775796
_symmetry_space_group_name_H-M "C M C M"
_symmetry_group_IT_number 63
_symmetry_cell_setting 'orthorhombic'
loop_
_space_group_symop_operation_xyz
x,y,z
-x,-y,1/2+z
x,-y,-z
-x,y,1/2-z
-x,-y,-z
x,y,1/2-z
-x,y,z
x,-y,1/2+z
1/2+x,1/2+y,z
1/2-x,1/2-y,1/2+z
1/2+x,1/2-y,-z
1/2-x,1/2+y,1/2-z
1/2-x,1/2-y,-z
1/2+x,1/2+y,1/2-z
1/2-x,1/2+y,z
1/2+x,1/2-y,1/2+z
loop_
_atom_site_type_symbol
_atom_site_label
_atom_site_fract_x
_atom_site_fract_y
_atom_site_fract_z
Si Si1 0.810081 0.055251 0.585705
Si Si2 0.500000 0.557945 0.584433
Si Si3 0.810082 0.556125 0.583845
Si Si4 0.061516 0.243955 0.418009
Si Si5 0.096635 0.365522 0.417494
Si Si6 0.597037 0.636982 0.915356
Si Si7 0.000000 0.558512 0.581051
O O1 0.815875 0.038963 0.750000
O O2 0.750137 0.072546 0.546730
O O3 0.846859 0.108493 0.547124
O O4 0.828661 0.000000 0.500000
O O5 0.500000 0.500000 0.500000
O O6 0.500000 0.543029 0.750000
O O7 0.448749 0.593544 0.540040
O O8 0.827900 0.500000 0.500000
O O9 0.817690 0.543093 0.750000
O O10 0.846617 0.609073 0.535728
O O11 0.068423 0.237244 0.250000
O O12 0.087819 0.302077 0.477389
O O13 0.092928 0.193675 0.493443
O O14 0.000000 0.242961 0.460829
O O15 0.091587 0.361125 0.250000
O O16 0.051013 0.407117 0.472545
O O17 0.592405 0.652952 0.750000
O O18 0.000000 0.500000 0.500000
O O19 0.000000 0.548336 0.750000
#
# Coordination Sequence:
#
# PCOD8255880 Si02
#       7
#    16   8  16  16  16  16   8
#     4   9  18  32  51  73  98 128 160 194 238 289
#     4  10  20  31  46  68  94 121 149 188 239 286
#     4   9  17  31  51  73  98 129 160 195 239 286
#     4  10  19  33  52  71  91 126 170 202 232 281
#     4   9  17  31  50  70  96 127 161 198 238 281
#     4  10  20  34  49  69  98 127 156 196 246 289
#     4  10  18  29  46  70  98 125 153 194 241 284
#
# _framework density 17.140483
#
# number of rings (size 3 to 8) (size 9 to 14) (size 15 to 20)
#    0.000    2.500    1.667    1.000    0.000    1.333 
#    0.000    2.500    0.000    0.000    0.000    0.000 
#    0.000    0.000    0.000    0.000    0.000    0.000 
#
# Total GULP energy -595217.740815 kJ/mol
# GULP energy per Si atom -12400.369600 kJ/mol
# Density = 1.710147 g / cm^3
# Si number density = 17.140483 Si / 1000 Ang^3
#
#
#
# Elastic Constant Matrix: (Units=GPa)
#
#
# Indices 1 2 3 4 5 6 
#
# 1 110.4077 78.9555 34.6933 0.0000 0.0000 0.0000
# 2 78.9555 166.8557 53.0076 0.0000 0.0000 0.0000
# 3 34.6933 53.0076 37.4576 0.0000 0.0000 0.0000
# 4 0.0000 0.0000 0.0000 31.9222 0.0000 0.0000
# 5 0.0000 0.0000 0.0000 0.0000 13.1125 0.0000
# 6 0.0000 0.0000 0.0000 0.0000 0.0000 27.8736
#
#
#
# Elastic Compliance Matrix: (Units=1/GPa)
#
#
# Indices 1 2 3 4 5 6 
#
# 1 0.014584 -0.004742 -0.006798 0.000000 0.000000 0.000000
# 2 -0.004742 0.012430 -0.013198 0.000000 0.000000 0.000000
# 3 -0.006798 -0.013198 0.051670 0.000000 0.000000 0.000000
# 4 0.000000 0.000000 0.000000 0.031326 0.000000 0.000000
# 5 0.000000 0.000000 0.000000 0.000000 0.076263 0.000000
# 6 0.000000 0.000000 0.000000 0.000000 0.000000 0.035876
#
#
# Mechanical properties :
#
#
# Convention : Reuss Voigt Hill
#
# Bulk Modulus (GPa) = 34.23609 72.00376 53.11992
# Shear Modulus (GPa) = 17.77074 24.45264 21.11169
#
# Velocity S-wave (km/s) = 3.22338 3.78114 3.51335
# Velocity P-wave (km/s) = 5.81986 7.82060 6.89321
#
# Compressibility (1/GPa) = 0.02920894
#
# Stress axis : x y z
#
# Youngs Moduli (GPa) = 68.56678 80.45192 19.35349
#
# Poissons Ratio (x) = 0.38147 0.13156
# Poissons Ratio (y) = 0.32512 0.25543
# Poissons Ratio (z) = 0.46611 1.06181
#
# Static dielectric constant tensor:
#      x y z
#    x 3.396240 0.000000 0.000000 
#    y 0.000000 3.228430 0.000000 
#    z 0.000000 0.000000 2.983570 
# 
# 
# High freq. dielectric constant tensor:
#      x y z
#    x 1.668160 0.000000 0.000000 
#    y 0.000000 1.660470 0.000000 
#    z 0.000000 0.000000 1.640750 
# 
# From -- ./inp_files/10514.got.cif
#   From: 2010.03.12/outbox.cif.g09.slc.cpg/sg63_6_cif.got.tgz:10514.got - 2010.04.10 19:34:48.
