data_PCOD8255211
_publ_section_title
;
Structure prediction by ZEFSAII (Michael W. Deem and Ramdas Pophale) SiO2 
 PCOD8255211
Probable space group: P N M A
;
_chemical_formula_sum "Si O2"
_cell_formula_units_Z 28
_cell_length_a 13.222583
_cell_length_b 14.196831
_cell_length_c 4.658307
_cell_angle_alpha 90.000000
_cell_angle_beta 90.000000
_cell_angle_gamma 90.000000
_cell_volume 874.451689
_symmetry_space_group_name_H-M "P N M A"
_symmetry_group_IT_number 62
_symmetry_cell_setting 'orthorhombic'
loop_
_space_group_symop_operation_xyz
x,y,z
1/2-x,-y,1/2+z
1/2+x,1/2-y,1/2-z
-x,1/2+y,-z
-x,-y,-z
1/2+x,y,1/2-z
1/2-x,1/2+y,1/2+z
x,1/2-y,z
loop_
_atom_site_type_symbol
_atom_site_label
_atom_site_fract_x
_atom_site_fract_y
_atom_site_fract_z
Si Si1 0.903988 0.750000 0.934666
Si Si2 0.734944 0.750000 0.558447
Si Si3 0.434721 0.250000 0.820272
Si Si4 0.286134 0.054364 0.618728
Si Si5 0.036826 0.913676 0.691471
O O1 0.781982 0.750000 0.880859
O O2 0.942499 0.750000 0.267917
O O3 0.944451 0.847238 0.792062
O O4 0.610721 0.750000 0.513532
O O5 0.768736 0.656358 0.387892
O O6 0.395370 0.155629 0.981039
O O7 0.397134 0.051054 0.465394
O O8 0.289906 0.016219 0.944362
O O9 0.000000 0.000000 0.500000
#
# Coordination Sequence:
#
# PCOD8255211 Si02
#       5
#     4   4   4   8   8
#     4  11  25  45  73 111 139 206 251 316 402 461
#     4  12  25  50  76 107 159 202 258 329 396 468
#     4  11  24  49  73 108 156 202 257 331 394 473
#     4  12  27  47  75 112 150 207 261 320 396 474
#     4  11  25  46  72 108 153 195 260 324 390 471
#
# _framework density 32.020063999999998
#
# number of rings (size 3 to 8) (size 9 to 14) (size 15 to 20)
#    0.000    0.571    2.857    4.286    4.000    2.286 
#    5.143    0.000    0.000    0.000    0.000    0.000 
#    0.000    0.000    0.000    0.000    0.000    0.000 
#
# Total GULP energy -346912.694683 kJ/mol
# GULP energy per Si atom -12389.739096 kJ/mol
# Density = 3.194718 g / cm^3
# Si number density = 32.020064 Si / 1000 Ang^3
#
#
#
# Elastic Constant Matrix: (Units=GPa)
#
#
# Indices 1 2 3 4 5 6 
#
# 1 76.0513 -13.5019 -5.6170 0.0000 0.0000 0.0000
# 2 -13.5019 222.2023 -14.3805 0.0000 0.0000 0.0000
# 3 -5.6170 -14.3805 82.7021 0.0000 0.0000 0.0000
# 4 0.0000 0.0000 0.0000 -11.6259 0.0000 0.0000
# 5 0.0000 0.0000 0.0000 0.0000 34.4758 0.0000
# 6 0.0000 0.0000 0.0000 0.0000 0.0000 18.6131
#
#
#
# Elastic Compliance Matrix: (Units=1/GPa)
#
#
# Indices 1 2 3 4 5 6 
#
# 1 0.013384 0.000882 0.001062 0.000000 0.000000 0.000000
# 2 0.000882 0.004610 0.000861 0.000000 0.000000 0.000000
# 3 0.001062 0.000861 0.012314 0.000000 0.000000 0.000000
# 4 0.000000 0.000000 0.000000 -0.086015 0.000000 0.000000
# 5 0.000000 0.000000 0.000000 0.000000 0.029006 0.000000
# 6 0.000000 0.000000 0.000000 0.000000 0.000000 0.053726
#
#
# Mechanical properties :
#
#
# Convention : Reuss Voigt Hill
#
# Bulk Modulus (GPa) = 27.84030 34.88409 31.36219
# Shear Modulus (GPa) = 149.76618 35.92294 92.84456
#
# Velocity S-wave (km/s) = 6.84647 3.35309 5.39061
# Velocity P-wave (km/s) = 8.43874 5.09010 6.96855
#
# Compressibility (1/GPa) = 0.03591915
#
# Stress axis : x y z
#
# Youngs Moduli (GPa) = 74.71564 216.93143 81.21142
#
# Poissons Ratio (x) = -0.19134 -0.08628
# Poissons Ratio (y) = -0.06590 -0.06996
# Poissons Ratio (z) = -0.07938 -0.18688
#
# Static dielectric constant tensor:
#      x y z
#    x 5.865180 0.000000 0.000000 
#    y 0.000000 7.165310 0.000000 
#    z 0.000000 0.000000 6.177460 
# 
# 
# High freq. dielectric constant tensor:
#      x y z
#    x 2.319510 0.000000 0.000000 
#    y 0.000000 2.362080 0.000000 
#    z 0.000000 0.000000 2.329760 
# 
# From -- ./inp_files/951.got.cif
#   From: 2010.03.12/outbox.cif.g09.slc.cpg/sg62_1_cif.got.tgz:951.got - 2010.04.10 19:12:36.
