data_PCOD8255154
_publ_section_title
;
Structure prediction by ZEFSAII (Michael W. Deem and Ramdas Pophale) SiO2 
 PCOD8255154
Probable space group: P N M A
;
_chemical_formula_sum "Si O2"
_cell_formula_units_Z 48
_cell_length_a 20.098108
_cell_length_b 8.481689
_cell_length_c 13.830311
_cell_angle_alpha 90.000000
_cell_angle_beta 90.000000
_cell_angle_gamma 90.000000
_cell_volume 2357.596433
_symmetry_space_group_name_H-M "P N M A"
_symmetry_group_IT_number 62
_symmetry_cell_setting 'orthorhombic'
loop_
_space_group_symop_operation_xyz
x,y,z
1/2-x,-y,1/2+z
1/2+x,1/2-y,1/2-z
-x,1/2+y,-z
-x,-y,-z
1/2+x,y,1/2-z
1/2-x,1/2+y,1/2+z
x,1/2-y,z
loop_
_atom_site_type_symbol
_atom_site_label
_atom_site_fract_x
_atom_site_fract_y
_atom_site_fract_z
Si Si1 0.187039 0.069567 0.086506
Si Si2 0.299014 0.570684 0.967286
Si Si3 0.561321 0.432727 0.941298
Si Si4 0.739750 0.930866 0.229097
Si Si5 0.616507 0.566711 0.750366
Si Si6 0.931095 0.434545 0.038306
O O1 0.178773 0.250000 0.117946
O O2 0.190513 0.961517 0.181434
O O3 0.255150 0.050804 0.027692
O O4 0.126548 0.020027 0.019731
O O5 0.278767 0.750000 0.994065
O O6 0.285426 0.544610 0.854886
O O7 0.375402 0.537701 0.990659
O O8 0.550098 0.250000 0.918728
O O9 0.568670 0.521789 0.839141
O O10 0.500000 0.500000 0.000000
O O11 0.734372 0.750000 0.196721
O O12 0.815671 0.967684 0.258424
O O13 0.635305 0.750000 0.754604
O O14 0.577456 0.526156 0.651655
O O15 0.926699 0.250000 0.018718
O O16 0.000000 0.500000 0.000000
#
# Coordination Sequence:
#
# PCOD8255154 Si02
#       6
#     8   8   8   8   8   8
#     4  12  24  40  66  96 129 170 217 269 324 382
#     4  11  23  41  64  95 130 167 216 269 321 383
#     4  11  25  43  67  95 132 172 216 268 326 392
#     4  12  24  39  65  98 131 171 219 269 326 386
#     4  11  23  41  67  94 128 170 215 267 329 389
#     4  11  25  44  67  96 134 174 218 270 327 393
#
# _framework density 20.359718000000001
#
# number of rings (size 3 to 8) (size 9 to 14) (size 15 to 20)
#    0.000    0.667    3.333    5.000    0.000    5.333 
#    0.000    1.667    0.000    0.000    0.000    0.000 
#    0.000    0.000    0.000    0.000    0.000    0.000 
#
# Total GULP energy -595529.977515 kJ/mol
# GULP energy per Si atom -12406.874532 kJ/mol
# Density = 2.031338 g / cm^3
# Si number density = 20.359718 Si / 1000 Ang^3
#
#
#
# Elastic Constant Matrix: (Units=GPa)
#
#
# Indices 1 2 3 4 5 6 
#
# 1 89.4966 40.0489 24.1103 0.0000 0.0000 0.0000
# 2 40.0489 97.1531 20.8399 0.0000 0.0000 0.0000
# 3 24.1103 20.8399 103.1364 0.0000 0.0000 0.0000
# 4 0.0000 0.0000 0.0000 36.4554 0.0000 0.0000
# 5 0.0000 0.0000 0.0000 0.0000 39.0250 0.0000
# 6 0.0000 0.0000 0.0000 0.0000 0.0000 32.9570
#
#
#
# Elastic Compliance Matrix: (Units=1/GPa)
#
#
# Indices 1 2 3 4 5 6 
#
# 1 0.014175 -0.005365 -0.002230 0.000000 0.000000 0.000000
# 2 -0.005365 0.012790 -0.001330 0.000000 0.000000 0.000000
# 3 -0.002230 -0.001330 0.010486 0.000000 0.000000 0.000000
# 4 0.000000 0.000000 0.000000 0.027431 0.000000 0.000000
# 5 0.000000 0.000000 0.000000 0.000000 0.025625 0.000000
# 6 0.000000 0.000000 0.000000 0.000000 0.000000 0.030343
#
#
# Mechanical properties :
#
#
# Convention : Reuss Voigt Hill
#
# Bulk Modulus (GPa) = 51.01724 51.08714 51.05219
# Shear Modulus (GPa) = 34.42758 35.33994 34.88376
#
# Velocity S-wave (km/s) = 4.11660 4.17079 4.14378
# Velocity P-wave (km/s) = 6.90706 6.95275 6.92994
#
# Compressibility (1/GPa) = 0.01960122
#
# Stress axis : x y z
#
# Youngs Moduli (GPa) = 70.54631 78.18627 95.36610
#
# Poissons Ratio (x) = 0.41947 0.21263
# Poissons Ratio (y) = 0.37848 0.12685
# Poissons Ratio (z) = 0.15729 0.10400
#
# Static dielectric constant tensor:
#      x y z
#    x 11.207200 0.000000 0.000000 
#    y 0.000000 3.659780 0.000000 
#    z 0.000000 0.000000 3.860050 
# 
# 
# High freq. dielectric constant tensor:
#      x y z
#    x 1.789430 0.000000 0.000000 
#    y 0.000000 1.810000 0.000000 
#    z 0.000000 0.000000 1.811560 
# 
# From -- ./inp_files/19616.got.cif
#   From: 2010.03.12/outbox.cif.g09.slc.cpg/sg62_10_cif.got.tgz:19616.got - 2010.04.10 19:12:36.
