data_PCOD8255940
_publ_section_title
;
Structure prediction by ZEFSAII (Michael W. Deem and Ramdas Pophale) SiO2 
 PCOD8255940
Probable space group: C M C M
;
_chemical_formula_sum "Si O2"
_cell_formula_units_Z 80
_cell_length_a 7.756149
_cell_length_b 23.295035
_cell_length_c 24.377666
_cell_angle_alpha 90.000000
_cell_angle_beta 90.000000
_cell_angle_gamma 90.000000
_cell_volume 4404.550901
_symmetry_space_group_name_H-M "C M C M"
_symmetry_group_IT_number 63
_symmetry_cell_setting 'orthorhombic'
loop_
_space_group_symop_operation_xyz
x,y,z
-x,-y,1/2+z
x,-y,-z
-x,y,1/2-z
-x,-y,-z
x,y,1/2-z
-x,y,z
x,-y,1/2+z
1/2+x,1/2+y,z
1/2-x,1/2-y,1/2+z
1/2+x,1/2-y,-z
1/2-x,1/2+y,1/2-z
1/2-x,1/2-y,-z
1/2+x,1/2+y,1/2-z
1/2-x,1/2+y,z
1/2+x,1/2-y,1/2+z
loop_
_atom_site_type_symbol
_atom_site_label
_atom_site_fract_x
_atom_site_fract_y
_atom_site_fract_z
Si Si1 0.689848 0.932128 0.500890
Si Si2 0.696551 0.939142 0.621147
Si Si3 0.000000 0.754341 0.814808
Si Si4 0.698143 0.328167 0.185706
Si Si5 0.000000 0.116809 0.315013
Si Si6 0.306624 0.435057 0.386048
O O1 0.500000 0.905411 0.493648
O O2 0.761738 0.915622 0.561369
O O3 0.802340 0.911215 0.449070
O O4 0.680081 0.000000 0.500000
O O5 0.500000 0.918818 0.632990
O O6 0.825953 0.914651 0.666098
O O7 0.691397 0.008546 0.622276
O O8 0.174520 0.722332 0.834412
O O9 0.000000 0.818530 0.838959
O O10 0.000000 0.757708 0.750000
O O11 0.719688 0.340243 0.250000
O O12 0.500000 0.311497 0.171252
O O13 0.757998 0.385507 0.154524
O O14 0.000000 0.115788 0.250000
O O15 0.500000 0.452736 0.371031
#
# Coordination Sequence:
#
# PCOD8255940 Si02
#       6
#    16  16   8  16   8  16
#     4   8  16  29  48  76 108 143 182 213 253 319
#     4  10  21  36  53  80 114 146 175 216 271 319
#     4   9  20  38  58  75  96 140 191 221 256 312
#     4   9  19  34  52  79 108 135 172 223 271 312
#     4  11  24  40  57  79 105 140 187 225 259 320
#     4  10  18  29  53  86 114 143 177 216 268 324
#
# _framework density 18.163031
#
# number of rings (size 3 to 8) (size 9 to 14) (size 15 to 20)
#    0.000    2.600    1.000    1.800    4.200    3.200 
#    0.000    2.000    0.000    1.200    0.000    0.000 
#    0.000    0.000    0.000    0.000    0.000    0.000 
#
# Total GULP energy -495696.600205 kJ/mol
# GULP energy per Si atom -12392.415005 kJ/mol
# Density = 1.812169 g / cm^3
# Si number density = 18.163031 Si / 1000 Ang^3
#
#
#
# Elastic Constant Matrix: (Units=GPa)
#
#
# Indices 1 2 3 4 5 6 
#
# 1 96.8562 44.7586 39.9151 0.0000 0.0000 0.0000
# 2 44.7586 79.0121 42.8277 0.0000 0.0000 0.0000
# 3 39.9151 42.8277 83.9689 0.0000 0.0000 0.0000
# 4 0.0000 0.0000 0.0000 2.8652 0.0000 0.0000
# 5 0.0000 0.0000 0.0000 0.0000 24.3316 0.0000
# 6 0.0000 0.0000 0.0000 0.0000 0.0000 17.8675
#
#
#
# Elastic Compliance Matrix: (Units=1/GPa)
#
#
# Indices 1 2 3 4 5 6 
#
# 1 0.014822 -0.006326 -0.003819 0.000000 0.000000 0.000000
# 2 -0.006326 0.020192 -0.007292 0.000000 0.000000 0.000000
# 3 -0.003819 -0.007292 0.017444 0.000000 0.000000 0.000000
# 4 0.000000 0.000000 0.000000 0.349014 0.000000 0.000000
# 5 0.000000 0.000000 0.000000 0.000000 0.041099 0.000000
# 6 0.000000 0.000000 0.000000 0.000000 0.000000 0.055968
#
#
# Mechanical properties :
#
#
# Convention : Reuss Voigt Hill
#
# Bulk Modulus (GPa) = 56.87015 57.20446 57.03731
# Shear Modulus (GPa) = 9.27173 17.83523 13.55348
#
# Velocity S-wave (km/s) = 2.26181 3.13701 2.73465
# Velocity P-wave (km/s) = 6.18061 6.68465 6.43756
#
# Compressibility (1/GPa) = 0.01758392
#
# Stress axis : x y z
#
# Youngs Moduli (GPa) = 67.46795 49.52363 57.32731
#
# Poissons Ratio (x) = 0.31330 0.21893
# Poissons Ratio (y) = 0.42681 0.41802
# Poissons Ratio (z) = 0.25766 0.36112
#
# Static dielectric constant tensor:
#      x y z
#    x 3.408340 0.000000 0.000000 
#    y 0.000000 3.143220 0.000000 
#    z 0.000000 0.000000 3.503350 
# 
# 
# High freq. dielectric constant tensor:
#      x y z
#    x 1.713020 0.000000 0.000000 
#    y 0.000000 1.660680 0.000000 
#    z 0.000000 0.000000 1.699180 
# 
# From -- ./inp_files/59488.got.cif
#   From: 2010.03.12/outbox.cif.g09.slc.cpg/sg63_30_cif.got.tgz:59488.got - 2010.04.10 19:34:48.
