data_PCOD8255223
_publ_section_title
;
Structure prediction by ZEFSAII (Michael W. Deem and Ramdas Pophale) SiO2 
 PCOD8255223
Probable space group: P N M A
;
_chemical_formula_sum "Si O2"
_cell_formula_units_Z 36
_cell_length_a 18.757070
_cell_length_b 9.693054
_cell_length_c 8.985412
_cell_angle_alpha 90.000000
_cell_angle_beta 90.000000
_cell_angle_gamma 90.000000
_cell_volume 1633.667339
_symmetry_space_group_name_H-M "P N M A"
_symmetry_group_IT_number 62
_symmetry_cell_setting 'orthorhombic'
loop_
_space_group_symop_operation_xyz
x,y,z
1/2-x,-y,1/2+z
1/2+x,1/2-y,1/2-z
-x,1/2+y,-z
-x,-y,-z
1/2+x,y,1/2-z
1/2-x,1/2+y,1/2+z
x,1/2-y,z
loop_
_atom_site_type_symbol
_atom_site_label
_atom_site_fract_x
_atom_site_fract_y
_atom_site_fract_z
Si Si1 0.429543 0.750000 0.665133
Si Si2 0.337039 0.450497 0.274529
Si Si3 0.007803 0.750000 0.149428
Si Si4 0.512616 0.523149 0.827462
Si Si5 0.282446 0.750000 0.282767
Si Si6 0.761568 0.750000 0.888589
Si Si7 0.162381 0.750000 0.038929
O O1 0.473069 0.750000 0.512713
O O2 0.449328 0.615880 0.761454
O O3 0.346043 0.750000 0.633854
O O4 0.410665 0.404056 0.195871
O O5 0.332471 0.615575 0.278023
O O6 0.270776 0.387465 0.184446
O O7 0.335822 0.389126 0.440826
O O8 0.982966 0.618417 0.239595
O O9 0.092780 0.750000 0.139652
O O10 0.500000 0.500000 0.000000
O O11 0.239971 0.750000 0.438172
O O12 0.230199 0.750000 0.144402
#
# Coordination Sequence:
#
# PCOD8255223 Si02
#       7
#     4   8   4   8   4   4   4
#     4  12  25  48  74 108 141 201 244 302 368 454
#     4  11  25  49  65 106 146 184 234 305 360 438
#     4  12  26  45  76 103 144 190 250 297 374 437
#     4  12  27  45  74 106 146 189 251 307 369 436
#     4  12  26  41  75 101 139 184 243 284 371 432
#     4  11  27  43  72 100 145 185 234 293 367 437
#     4  11  26  45  73 104 143 194 235 302 362 440
#
# _framework density 22.036311000000001
#
# number of rings (size 3 to 8) (size 9 to 14) (size 15 to 20)
#    0.000    0.444    2.222    5.333    9.333    3.556 
#    0.000    0.000    0.000    0.000    0.000    0.000 
#    0.000    0.000    0.000    0.000    0.000    0.000 
#
# Total GULP energy -446628.671720 kJ/mol
# GULP energy per Si atom -12406.351992 kJ/mol
# Density = 2.198616 g / cm^3
# Si number density = 22.036311 Si / 1000 Ang^3
#
#
#
# Elastic Constant Matrix: (Units=GPa)
#
#
# Indices 1 2 3 4 5 6 
#
# 1 114.1514 26.1402 36.3735 0.0000 0.0000 0.0000
# 2 26.1402 145.1642 41.1916 0.0000 0.0000 0.0000
# 3 36.3735 41.1916 160.4394 0.0000 0.0000 0.0000
# 4 0.0000 0.0000 0.0000 17.9358 0.0000 0.0000
# 5 0.0000 0.0000 0.0000 0.0000 35.4638 0.0000
# 6 0.0000 0.0000 0.0000 0.0000 0.0000 21.2297
#
#
#
# Elastic Compliance Matrix: (Units=1/GPa)
#
#
# Indices 1 2 3 4 5 6 
#
# 1 0.009633 -0.001203 -0.001875 0.000000 0.000000 0.000000
# 2 -0.001203 0.007580 -0.001674 0.000000 0.000000 0.000000
# 3 -0.001875 -0.001674 0.007088 0.000000 0.000000 0.000000
# 4 0.000000 0.000000 0.000000 0.055754 0.000000 0.000000
# 5 0.000000 0.000000 0.000000 0.000000 0.028198 0.000000
# 6 0.000000 0.000000 0.000000 0.000000 0.000000 0.047104
#
#
# Mechanical properties :
#
#
# Convention : Reuss Voigt Hill
#
# Bulk Modulus (GPa) = 67.57460 69.68506 68.62983
# Shear Modulus (GPa) = 29.44773 35.99585 32.72179
#
# Velocity S-wave (km/s) = 3.65955 4.04602 3.85762
# Velocity P-wave (km/s) = 6.97051 7.31563 7.14516
#
# Compressibility (1/GPa) = 0.01479846
#
# Stress axis : x y z
#
# Youngs Moduli (GPa) = 103.80770 131.92299 141.08994
#
# Poissons Ratio (x) = 0.15865 0.26457
# Poissons Ratio (y) = 0.12484 0.23612
# Poissons Ratio (z) = 0.19466 0.22078
#
# Static dielectric constant tensor:
#      x y z
#    x 4.020210 0.000000 0.000000 
#    y 0.000000 4.215130 0.000000 
#    z 0.000000 0.000000 4.222270 
# 
# 
# High freq. dielectric constant tensor:
#      x y z
#    x 1.878320 0.000000 0.000000 
#    y 0.000000 1.883190 0.000000 
#    z 0.000000 0.000000 1.875320 
# 
# From -- ./inp_files/8366.got.cif
#   From: 2010.03.12/outbox.cif.g09.slc.cpg/sg62_5_cif.got.tgz:8366.got - 2010.04.10 19:12:36.
