data_PCOD8255006
_publ_section_title
;
Structure prediction by ZEFSAII (Michael W. Deem and Ramdas Pophale) SiO2 
 PCOD8255006
Probable space group: P N M A
;
_chemical_formula_sum "Si O2"
_cell_formula_units_Z 48
_cell_length_a 17.962837
_cell_length_b 16.761176
_cell_length_c 8.817079
_cell_angle_alpha 90.000000
_cell_angle_beta 90.000000
_cell_angle_gamma 90.000000
_cell_volume 2654.630913
_symmetry_space_group_name_H-M "P N M A"
_symmetry_group_IT_number 62
_symmetry_cell_setting 'orthorhombic'
loop_
_space_group_symop_operation_xyz
x,y,z
1/2-x,-y,1/2+z
1/2+x,1/2-y,1/2-z
-x,1/2+y,-z
-x,-y,-z
1/2+x,y,1/2-z
1/2-x,1/2+y,1/2+z
x,1/2-y,z
loop_
_atom_site_type_symbol
_atom_site_label
_atom_site_fract_x
_atom_site_fract_y
_atom_site_fract_z
Si Si1 0.040888 0.923307 0.682368
Si Si2 0.185082 0.015513 0.195229
Si Si3 0.921484 0.659746 0.308103
Si Si4 0.400199 0.659856 0.837449
Si Si5 0.437258 0.425152 0.852239
Si Si6 0.659799 0.483637 0.658111
O O1 0.085204 0.904523 0.526140
O O2 0.984900 0.851246 0.728156
O O3 0.099194 0.945920 0.813584
O O4 0.984881 0.995039 0.651311
O O5 0.158131 0.100114 0.260975
O O6 0.137336 0.939847 0.255688
O O7 0.269788 0.001999 0.238652
O O8 0.181117 0.017178 0.015565
O O9 0.902965 0.750000 0.260909
O O10 0.901025 0.642321 0.482813
O O11 0.873073 0.602294 0.202414
O O12 0.010246 0.644703 0.283889
O O13 0.374591 0.750000 0.802329
#
# Coordination Sequence:
#
# PCOD8255006 Si02
#       6
#     8   8   8   8   8   8
#     4   8  15  30  51  73  97 127 162 199 243 298
#     4  11  21  33  51  74 102 137 174 211 251 298
#     4   9  18  34  55  77 102 131 163 205 257 307
#     4   9  18  34  55  77 102 131 163 205 257 307
#     4   8  15  30  51  73  97 127 162 199 243 298
#     4  11  21  33  51  74 102 137 174 211 251 298
#
# _framework density 18.081609
#
# number of rings (size 3 to 8) (size 9 to 14) (size 15 to 20)
#    0.000    2.667    0.000    5.000    0.000    6.667 
#    0.000    1.667    0.000    6.000    0.000    0.000 
#    0.000    0.000    0.000    0.000    0.000    0.000 
#
# Total GULP energy -594894.704738 kJ/mol
# GULP energy per Si atom -12393.639682 kJ/mol
# Density = 1.804045 g / cm^3
# Si number density = 18.081609 Si / 1000 Ang^3
#
#
#
# Elastic Constant Matrix: (Units=GPa)
#
#
# Indices 1 2 3 4 5 6 
#
# 1 52.5168 17.9652 -4.7174 0.0000 0.0000 0.0000
# 2 17.9652 62.8068 14.2775 0.0000 0.0000 0.0000
# 3 -4.7174 14.2775 40.3182 0.0000 0.0000 0.0000
# 4 0.0000 0.0000 0.0000 20.4894 0.0000 0.0000
# 5 0.0000 0.0000 0.0000 0.0000 31.7944 0.0000
# 6 0.0000 0.0000 0.0000 0.0000 0.0000 12.8412
#
#
#
# Elastic Compliance Matrix: (Units=1/GPa)
#
#
# Indices 1 2 3 4 5 6 
#
# 1 0.022081 -0.007508 0.005242 0.000000 0.000000 0.000000
# 2 -0.007508 0.019868 -0.007914 0.000000 0.000000 0.000000
# 3 0.005242 -0.007914 0.028219 0.000000 0.000000 0.000000
# 4 0.000000 0.000000 0.000000 0.048806 0.000000 0.000000
# 5 0.000000 0.000000 0.000000 0.000000 0.031452 0.000000
# 6 0.000000 0.000000 0.000000 0.000000 0.000000 0.077874
#
#
# Mechanical properties :
#
#
# Convention : Reuss Voigt Hill
#
# Bulk Modulus (GPa) = 20.07699 23.41027 21.74363
# Shear Modulus (GPa) = 18.84929 21.56610 20.20770
#
# Velocity S-wave (km/s) = 3.23221 3.45731 3.34665
# Velocity P-wave (km/s) = 5.00572 5.37703 5.19469
#
# Compressibility (1/GPa) = 0.04980827
#
# Stress axis : x y z
#
# Youngs Moduli (GPa) = 45.28852 50.33117 35.43761
#
# Poissons Ratio (x) = 0.37787 -0.18577
# Poissons Ratio (y) = 0.34001 0.28046
# Poissons Ratio (z) = -0.23741 0.39833
#
# Static dielectric constant tensor:
#      x y z
#    x 3.429300 0.000000 0.000000 
#    y 0.000000 3.590850 0.000000 
#    z 0.000000 0.000000 3.236830 
# 
# 
# High freq. dielectric constant tensor:
#      x y z
#    x 1.692070 0.000000 0.000000 
#    y 0.000000 1.681010 0.000000 
#    z 0.000000 0.000000 1.692380 
# 
# From -- ./inp_files/7782.got.cif
#   From: 2010.03.12/outbox.cif.g09.slc.cpg/sg62_4_cif.got.tgz:7782.got - 2010.04.10 19:12:36.
