data_PCOD8255109
_publ_section_title
;
Structure prediction by ZEFSAII (Michael W. Deem and Ramdas Pophale) SiO2 
 PCOD8255109
Probable space group: P N M A
;
_chemical_formula_sum "Si O2"
_cell_formula_units_Z 48
_cell_length_a 26.888468
_cell_length_b 9.999010
_cell_length_c 9.112858
_cell_angle_alpha 90.000000
_cell_angle_beta 90.000000
_cell_angle_gamma 90.000000
_cell_volume 2450.065327
_symmetry_space_group_name_H-M "P N M A"
_symmetry_group_IT_number 62
_symmetry_cell_setting 'orthorhombic'
loop_
_space_group_symop_operation_xyz
x,y,z
1/2-x,-y,1/2+z
1/2+x,1/2-y,1/2-z
-x,1/2+y,-z
-x,-y,-z
1/2+x,y,1/2-z
1/2-x,1/2+y,1/2+z
x,1/2-y,z
loop_
_atom_site_type_symbol
_atom_site_label
_atom_site_fract_x
_atom_site_fract_y
_atom_site_fract_z
Si Si1 0.193397 0.750000 0.303709
Si Si2 0.187320 0.250000 0.458685
Si Si3 0.466663 0.598041 0.406442
Si Si4 0.195878 0.250000 0.808100
Si Si5 0.865706 0.994664 0.693789
Si Si6 0.802020 0.250000 0.042403
Si Si7 0.026478 0.902889 0.386558
Si Si8 0.141384 0.013009 0.959188
O O1 0.248202 0.750000 0.366948
O O2 0.164570 0.621865 0.361812
O O3 0.197746 0.750000 0.130639
O O4 0.188053 0.250000 0.634009
O O5 0.156062 0.375021 0.401434
O O6 0.244666 0.250000 0.399278
O O7 0.500000 0.500000 0.500000
O O8 0.462653 0.750000 0.473346
O O9 0.488746 0.609704 0.246355
O O10 0.413977 0.524699 0.397843
O O11 0.173092 0.121681 0.879040
O O12 0.857849 0.966732 0.865827
O O13 0.923416 0.022953 0.663826
O O14 0.833477 0.376596 0.096473
O O15 0.036441 0.750000 0.445290
O O16 0.000000 0.000000 0.500000
#
# Coordination Sequence:
#
# PCOD8255109 Si02
#       8
#     4   4   8   4   8   4   8   8
#     4   9  20  41  67  87 123 167 214 261 312 375
#     4  11  25  39  63  95 132 165 207 259 318 377
#     4  11  24  40  65  96 125 161 212 263 308 369
#     4  11  23  41  61  93 129 163 208 267 318 363
#     4  11  22  41  68  92 123 169 213 253 315 381
#     4   9  22  41  63  95 126 165 209 265 314 369
#     4  11  26  44  65  93 130 166 208 258 318 378
#     4  11  22  41  67  93 124 165 215 260 314 371
#
# _framework density 19.591314000000001
#
# number of rings (size 3 to 8) (size 9 to 14) (size 15 to 20)
#    0.000    1.333    3.333    1.500    4.667    0.667 
#    0.000    2.500    0.000    0.000    0.000    0.000 
#    0.000    0.000    0.000    0.000    0.000    0.000 
#
# Total GULP energy -595018.962612 kJ/mol
# GULP energy per Si atom -12396.228388 kJ/mol
# Density = 1.954672 g / cm^3
# Si number density = 19.591314 Si / 1000 Ang^3
#
#
#
# Elastic Constant Matrix: (Units=GPa)
#
#
# Indices 1 2 3 4 5 6 
#
# 1 173.6127 82.7895 47.8465 0.0000 0.0000 0.0000
# 2 82.7895 176.8788 56.6803 0.0000 0.0000 0.0000
# 3 47.8465 56.6803 74.8331 0.0000 0.0000 0.0000
# 4 0.0000 0.0000 0.0000 52.5281 0.0000 0.0000
# 5 0.0000 0.0000 0.0000 0.0000 29.2526 0.0000
# 6 0.0000 0.0000 0.0000 0.0000 0.0000 32.5616
#
#
#
# Elastic Compliance Matrix: (Units=1/GPa)
#
#
# Indices 1 2 3 4 5 6 
#
# 1 0.007884 -0.002740 -0.002966 0.000000 0.000000 0.000000
# 2 -0.002740 0.008418 -0.004624 0.000000 0.000000 0.000000
# 3 -0.002966 -0.004624 0.018761 0.000000 0.000000 0.000000
# 4 0.000000 0.000000 0.000000 0.019037 0.000000 0.000000
# 5 0.000000 0.000000 0.000000 0.000000 0.034185 0.000000
# 6 0.000000 0.000000 0.000000 0.000000 0.000000 0.030711
#
#
# Mechanical properties :
#
#
# Convention : Reuss Voigt Hill
#
# Bulk Modulus (GPa) = 69.42357 88.88413 79.15385
# Shear Modulus (GPa) = 34.61252 38.73568 36.67410
#
# Velocity S-wave (km/s) = 4.20781 4.45138 4.33131
# Velocity P-wave (km/s) = 7.68897 8.47864 8.09344
#
# Compressibility (1/GPa) = 0.01440433
#
# Stress axis : x y z
#
# Youngs Moduli (GPa) = 126.84402 118.79717 53.30066
#
# Poissons Ratio (x) = 0.32547 0.15806
# Poissons Ratio (y) = 0.34752 0.24646
# Poissons Ratio (z) = 0.37616 0.54932
#
# Static dielectric constant tensor:
#      x y z
#    x 3.214040 0.000000 0.000000 
#    y 0.000000 11.419480 0.000000 
#    z 0.000000 0.000000 3.394390 
# 
# 
# High freq. dielectric constant tensor:
#      x y z
#    x 1.787690 0.000000 0.000000 
#    y 0.000000 1.784630 0.000000 
#    z 0.000000 0.000000 1.744900 
# 
# From -- ./inp_files/10336.got.cif
#   From: 2010.03.12/outbox.cif.g09.slc.cpg/sg62_6_cif.got.tgz:10336.got - 2010.04.10 19:12:36.
