data_PCOD8255806
_publ_section_title
;
Structure prediction by ZEFSAII (Michael W. Deem and Ramdas Pophale) SiO2 
 PCOD8255806
Probable space group: C M C M
;
_chemical_formula_sum "Si O2"
_cell_formula_units_Z 128
_cell_length_a 17.481078
_cell_length_b 24.740188
_cell_length_c 18.269870
_cell_angle_alpha 90.000000
_cell_angle_beta 90.000000
_cell_angle_gamma 90.000000
_cell_volume 7901.447580
_symmetry_space_group_name_H-M "C M C M"
_symmetry_group_IT_number 63
_symmetry_cell_setting 'orthorhombic'
loop_
_space_group_symop_operation_xyz
x,y,z
-x,-y,1/2+z
x,-y,-z
-x,y,1/2-z
-x,-y,-z
x,y,1/2-z
-x,y,z
x,-y,1/2+z
1/2+x,1/2+y,z
1/2-x,1/2-y,1/2+z
1/2+x,1/2-y,-z
1/2-x,1/2+y,1/2-z
1/2-x,1/2-y,-z
1/2+x,1/2+y,1/2-z
1/2-x,1/2+y,z
1/2+x,1/2-y,1/2+z
loop_
_atom_site_type_symbol
_atom_site_label
_atom_site_fract_x
_atom_site_fract_y
_atom_site_fract_z
Si Si1 0.085312 0.383670 0.667228
Si Si2 0.090502 0.792282 0.530759
Si Si3 0.586011 0.877459 0.405507
Si Si4 0.786287 0.124087 0.463964
Si Si5 0.235974 0.554091 0.164293
Si Si6 0.865511 0.314036 0.958588
Si Si7 0.210397 0.539372 0.564168
Si Si8 0.409177 0.772160 0.170139
O O1 0.091891 0.363631 0.750000
O O2 0.146343 0.431363 0.652045
O O3 0.104699 0.330196 0.621258
O O4 0.000000 0.405908 0.649848
O O5 0.131212 0.849884 0.519418
O O6 0.118497 0.749400 0.469880
O O7 0.118520 0.770865 0.610224
O O8 0.000000 0.801075 0.525447
O O9 0.500000 0.895219 0.385410
O O10 0.585479 0.850118 0.485285
O O11 0.638213 0.930064 0.401629
O O12 0.619058 0.832691 0.349017
O O13 0.786289 0.096192 0.383445
O O14 0.724045 0.172157 0.467417
O O15 0.771183 0.080693 0.528399
O O16 0.260110 0.555940 0.250000
O O17 0.248904 0.494259 0.130642
O O18 0.180425 0.500000 0.500000
O O19 0.377151 0.755518 0.250000
O O20 0.500000 0.773292 0.168948
#
# Coordination Sequence:
#
# PCOD8255806 Si02
#       8
#    16  16  16  16  16  16  16  16
#     4   9  16  26  42  65  92 119 146 177 210 245
#     4  10  18  28  47  70  87 110 143 177 214 254
#     4   9  16  25  40  62  86 116 149 174 202 245
#     4   9  18  31  46  65  89 114 141 176 216 256
#     4   9  18  31  46  63  84 114 149 182 218 258
#     4   9  16  28  44  63  91 121 144 167 203 257
#     4   9  18  30  43  59  83 115 146 182 223 254
#     4   8  15  27  40  59  89 116 135 161 203 253
#
# _framework density 16.199563999999999
#
# number of rings (size 3 to 8) (size 9 to 14) (size 15 to 20)
#    0.000    3.000    0.000    3.000    0.000    1.750 
#    0.000    0.000    0.000    4.125    0.000    0.000 
#    0.000    0.000    0.000    0.000    0.000    0.000 
#
# Total GULP energy -793287.063786 kJ/mol
# GULP energy per Si atom -12395.110372 kJ/mol
# Density = 1.616269 g / cm^3
# Si number density = 16.199564 Si / 1000 Ang^3
#
#
#
# Elastic Constant Matrix: (Units=GPa)
#
#
# Indices 1 2 3 4 5 6 
#
# 1 58.9761 46.7520 23.7671 0.0000 0.0000 0.0000
# 2 46.7520 96.6371 38.0607 0.0000 0.0000 0.0000
# 3 23.7671 38.0607 83.1725 0.0000 0.0000 0.0000
# 4 0.0000 0.0000 0.0000 16.7302 0.0000 0.0000
# 5 0.0000 0.0000 0.0000 0.0000 10.9905 0.0000
# 6 0.0000 0.0000 0.0000 0.0000 0.0000 19.7551
#
#
#
# Elastic Compliance Matrix: (Units=1/GPa)
#
#
# Indices 1 2 3 4 5 6 
#
# 1 0.027826 -0.012601 -0.002185 0.000000 0.000000 0.000000
# 2 -0.012601 0.018330 -0.004787 0.000000 0.000000 0.000000
# 3 -0.002185 -0.004787 0.014838 0.000000 0.000000 0.000000
# 4 0.000000 0.000000 0.000000 0.059772 0.000000 0.000000
# 5 0.000000 0.000000 0.000000 0.000000 0.090988 0.000000
# 6 0.000000 0.000000 0.000000 0.000000 0.000000 0.050620
#
#
# Mechanical properties :
#
#
# Convention : Reuss Voigt Hill
#
# Bulk Modulus (GPa) = 45.77220 50.66057 48.21638
# Shear Modulus (GPa) = 16.19157 18.17556 17.18356
#
# Velocity S-wave (km/s) = 3.16493 3.35323 3.26044
# Velocity P-wave (km/s) = 6.45540 6.80683 6.63344
#
# Compressibility (1/GPa) = 0.02184732
#
# Stress axis : x y z
#
# Youngs Moduli (GPa) = 35.93764 54.55614 67.39392
#
# Poissons Ratio (x) = 0.68748 0.14725
# Poissons Ratio (y) = 0.45286 0.32261
# Poissons Ratio (z) = 0.07852 0.26116
#
# Static dielectric constant tensor:
#      x y z
#    x 2.775070 0.000000 0.000000 
#    y 0.000000 2.933270 0.000000 
#    z 0.000000 0.000000 3.258860 
# 
# 
# High freq. dielectric constant tensor:
#      x y z
#    x 1.588490 0.000000 0.000000 
#    y 0.000000 1.607800 0.000000 
#    z 0.000000 0.000000 1.622500 
# 
# From -- ./inp_files/46344.got.cif
#   From: 2010.03.12/outbox.cif.g09.slc.cpg/sg63_24_cif.got.tgz:46344.got - 2010.04.10 19:34:48.
