data_PCOD8255731
_publ_section_title
;
Structure prediction by ZEFSAII (Michael W. Deem and Ramdas Pophale) SiO2 
 PCOD8255731
Probable space group: C M C M
;
_chemical_formula_sum "Si O2"
_cell_formula_units_Z 56
_cell_length_a 14.443027
_cell_length_b 24.554938
_cell_length_c 8.825133
_cell_angle_alpha 90.000000
_cell_angle_beta 90.000000
_cell_angle_gamma 90.000000
_cell_volume 3129.812525
_symmetry_space_group_name_H-M "C M C M"
_symmetry_group_IT_number 63
_symmetry_cell_setting 'orthorhombic'
loop_
_space_group_symop_operation_xyz
x,y,z
-x,-y,1/2+z
x,-y,-z
-x,y,1/2-z
-x,-y,-z
x,y,1/2-z
-x,y,z
x,-y,1/2+z
1/2+x,1/2+y,z
1/2-x,1/2-y,1/2+z
1/2+x,1/2-y,-z
1/2-x,1/2+y,1/2-z
1/2-x,1/2-y,-z
1/2+x,1/2+y,1/2-z
1/2-x,1/2+y,z
1/2+x,1/2-y,1/2+z
loop_
_atom_site_type_symbol
_atom_site_label
_atom_site_fract_x
_atom_site_fract_y
_atom_site_fract_z
Si Si1 0.815573 0.942898 0.074526
Si Si2 0.603711 0.255447 0.928953
Si Si3 0.000000 0.940470 0.569508
Si Si4 0.750853 0.829717 0.075299
O O1 0.836266 0.955143 0.250000
O O2 0.739008 0.895259 0.052817
O O3 0.905736 0.915153 0.995857
O O4 0.783297 0.000000 0.000000
O O5 0.596638 0.259465 0.750000
O O6 0.500000 0.254944 0.998894
O O7 0.656860 0.199982 0.979882
O O8 0.660270 0.307615 0.985592
O O9 0.000000 0.938455 0.750000
O O10 0.000000 0.000000 0.500000
O O11 0.769511 0.815931 0.250000
#
# Coordination Sequence:
#
# PCOD8255731 Si02
#       4
#    16  16   8  16
#     4  10  19  31  46  66  94 127 158 192 233 280
#     4   9  18  33  52  73  95 122 158 198 238 282
#     4  10  18  28  42  62  90 122 156 190 227 272
#     4   9  19  33  49  71  98 126 157 193 238 285
#
# _framework density 17.892444000000001
#
# number of rings (size 3 to 8) (size 9 to 14) (size 15 to 20)
#    0.000    2.571    0.000    3.857    2.000    2.857 
#    0.000    0.000    0.000    0.857    0.000    0.000 
#    0.000    0.000    0.000    0.000    0.000    1.143 
#
# Total GULP energy -346902.835354 kJ/mol
# GULP energy per Si atom -12389.386977 kJ/mol
# Density = 1.785172 g / cm^3
# Si number density = 17.892444 Si / 1000 Ang^3
#
#
#
# Elastic Constant Matrix: (Units=GPa)
#
#
# Indices 1 2 3 4 5 6 
#
# 1 99.5394 45.6478 21.0193 0.0000 0.0000 0.0000
# 2 45.6478 119.3405 30.5036 0.0000 0.0000 0.0000
# 3 21.0193 30.5036 73.3056 0.0000 0.0000 0.0000
# 4 0.0000 0.0000 0.0000 23.1083 0.0000 0.0000
# 5 0.0000 0.0000 0.0000 0.0000 18.5232 0.0000
# 6 0.0000 0.0000 0.0000 0.0000 0.0000 20.4658
#
#
#
# Elastic Compliance Matrix: (Units=1/GPa)
#
#
# Indices 1 2 3 4 5 6 
#
# 1 0.012385 -0.004285 -0.001768 0.000000 0.000000 0.000000
# 2 -0.004285 0.010859 -0.003290 0.000000 0.000000 0.000000
# 3 -0.001768 -0.003290 0.015518 0.000000 0.000000 0.000000
# 4 0.000000 0.000000 0.000000 0.043275 0.000000 0.000000
# 5 0.000000 0.000000 0.000000 0.000000 0.053986 0.000000
# 6 0.000000 0.000000 0.000000 0.000000 0.000000 0.048862
#
#
# Mechanical properties :
#
#
# Convention : Reuss Voigt Hill
#
# Bulk Modulus (GPa) = 49.81291 54.05856 51.93574
# Shear Modulus (GPa) = 23.77973 25.42043 24.60008
#
# Velocity S-wave (km/s) = 3.64955 3.77335 3.71197
# Velocity P-wave (km/s) = 6.75719 7.01875 6.88921
#
# Compressibility (1/GPa) = 0.02007512
#
# Stress axis : x y z
#
# Youngs Moduli (GPa) = 80.74404 92.08567 64.44335
#
# Poissons Ratio (x) = 0.39461 0.11394
# Poissons Ratio (y) = 0.34601 0.21202
# Poissons Ratio (z) = 0.14275 0.30297
#
# Static dielectric constant tensor:
#      x y z
#    x 4.651990 0.000000 0.000000 
#    y 0.000000 3.312110 0.000000 
#    z 0.000000 0.000000 3.315470 
# 
# 
# High freq. dielectric constant tensor:
#      x y z
#    x 1.660880 0.000000 0.000000 
#    y 0.000000 1.695040 0.000000 
#    z 0.000000 0.000000 1.694350 
# 
# From -- ./inp_files/4159.got.cif
#   From: 2010.03.12/outbox.cif.g09.slc.cpg/sg63_3_cif.got.tgz:4159.got - 2010.04.10 19:34:48.
