data_PCOD8255614
_publ_section_title
;
Structure prediction by ZEFSAII (Michael W. Deem and Ramdas Pophale) SiO2 
 PCOD8255614
Probable space group: C M C M
;
_chemical_formula_sum "Si O2"
_cell_formula_units_Z 56
_cell_length_a 16.722065
_cell_length_b 9.847635
_cell_length_c 17.218323
_cell_angle_alpha 90.000000
_cell_angle_beta 90.000000
_cell_angle_gamma 90.000000
_cell_volume 2835.389332
_symmetry_space_group_name_H-M "C M C M"
_symmetry_group_IT_number 63
_symmetry_cell_setting 'orthorhombic'
loop_
_space_group_symop_operation_xyz
x,y,z
-x,-y,1/2+z
x,-y,-z
-x,y,1/2-z
-x,-y,-z
x,y,1/2-z
-x,y,z
x,-y,1/2+z
1/2+x,1/2+y,z
1/2-x,1/2-y,1/2+z
1/2+x,1/2-y,-z
1/2-x,1/2+y,1/2-z
1/2-x,1/2-y,-z
1/2+x,1/2+y,1/2-z
1/2-x,1/2+y,z
1/2+x,1/2-y,1/2+z
loop_
_atom_site_type_symbol
_atom_site_label
_atom_site_fract_x
_atom_site_fract_y
_atom_site_fract_z
Si Si1 0.279917 0.104175 0.607173
Si Si2 0.411104 0.785082 0.993123
Si Si3 0.854641 0.000000 0.000000
Si Si4 0.327806 0.828902 0.664211
O O1 0.345649 0.129017 0.540114
O O2 0.200116 0.041069 0.571801
O O3 0.254864 0.245153 0.648429
O O4 0.311919 0.990932 0.666281
O O5 0.500000 0.842431 0.009470
O O6 0.409476 0.628766 0.021241
O O7 0.393255 0.795121 0.901172
O O8 0.360238 0.789554 0.750000
#
# Coordination Sequence:
#
# PCOD8255614 Si02
#       4
#    16  16   8  16
#     4  11  19  39  61  87 111 152 208 236 277 345
#     4  11  22  36  61  91 119 151 193 244 293 344
#     4  10  17  38  61  82 112 150 200 240 269 340
#     4  11  22  36  59  87 119 155 194 241 292 346
#
# _framework density 19.750374000000001
#
# number of rings (size 3 to 8) (size 9 to 14) (size 15 to 20)
#    0.000    1.143    5.714    3.000    0.000    2.857 
#    0.000    0.000    0.000    2.571    0.000    0.000 
#    0.000    0.000    0.000    0.000    0.000    0.000 
#
# Total GULP energy -347047.621303 kJ/mol
# GULP energy per Si atom -12394.557904 kJ/mol
# Density = 1.970542 g / cm^3
# Si number density = 19.750374 Si / 1000 Ang^3
#
#
#
# Elastic Constant Matrix: (Units=GPa)
#
#
# Indices 1 2 3 4 5 6 
#
# 1 96.7583 24.8645 32.6911 0.0000 0.0000 0.0000
# 2 24.8645 117.9091 28.4999 0.0000 0.0000 0.0000
# 3 32.6911 28.4999 115.4602 0.0000 0.0000 0.0000
# 4 0.0000 0.0000 0.0000 18.6380 0.0000 0.0000
# 5 0.0000 0.0000 0.0000 0.0000 12.8353 0.0000
# 6 0.0000 0.0000 0.0000 0.0000 0.0000 13.5392
#
#
#
# Elastic Compliance Matrix: (Units=1/GPa)
#
#
# Indices 1 2 3 4 5 6 
#
# 1 0.011771 -0.001783 -0.002893 0.000000 0.000000 0.000000
# 2 -0.001783 0.009289 -0.001788 0.000000 0.000000 0.000000
# 3 -0.002893 -0.001788 0.009921 0.000000 0.000000 0.000000
# 4 0.000000 0.000000 0.000000 0.053654 0.000000 0.000000
# 5 0.000000 0.000000 0.000000 0.000000 0.077910 0.000000
# 6 0.000000 0.000000 0.000000 0.000000 0.000000 0.073859
#
#
# Mechanical properties :
#
#
# Convention : Reuss Voigt Hill
#
# Bulk Modulus (GPa) = 55.38988 55.80430 55.59709
# Shear Modulus (GPa) = 19.58100 25.27398 22.42749
#
# Velocity S-wave (km/s) = 3.15210 3.58113 3.37344
# Velocity P-wave (km/s) = 6.43067 6.73910 6.58669
#
# Compressibility (1/GPa) = 0.01805384
#
# Stress axis : x y z
#
# Youngs Moduli (GPa) = 84.95815 107.65061 100.79258
#
# Poissons Ratio (x) = 0.19194 0.29155
# Poissons Ratio (y) = 0.15148 0.18023
# Poissons Ratio (z) = 0.24575 0.19249
#
# Static dielectric constant tensor:
#      x y z
#    x 3.308730 0.000000 0.000000 
#    y 0.000000 4.133310 0.000000 
#    z 0.000000 0.000000 3.374630 
# 
# 
# High freq. dielectric constant tensor:
#      x y z
#    x 1.740410 0.000000 0.000000 
#    y 0.000000 1.795700 0.000000 
#    z 0.000000 0.000000 1.744540 
# 
# From -- ./inp_files/44990.got.cif
#   From: 2010.03.12/outbox.cif.g09.slc.cpg/sg63_23_cif.got.tgz:44990.got - 2010.04.10 19:34:48.
