data_PCOD8255639
_publ_section_title
;
Structure prediction by ZEFSAII (Michael W. Deem and Ramdas Pophale) SiO2 
 PCOD8255639
Probable space group: C M C M
;
_chemical_formula_sum "Si O2"
_cell_formula_units_Z 96
_cell_length_a 9.186325
_cell_length_b 23.284898
_cell_length_c 26.613450
_cell_angle_alpha 90.000000
_cell_angle_beta 90.000000
_cell_angle_gamma 90.000000
_cell_volume 5692.687231
_symmetry_space_group_name_H-M "C M C M"
_symmetry_group_IT_number 63
_symmetry_cell_setting 'orthorhombic'
loop_
_space_group_symop_operation_xyz
x,y,z
-x,-y,1/2+z
x,-y,-z
-x,y,1/2-z
-x,-y,-z
x,y,1/2-z
-x,y,z
x,-y,1/2+z
1/2+x,1/2+y,z
1/2-x,1/2-y,1/2+z
1/2+x,1/2-y,-z
1/2-x,1/2+y,1/2-z
1/2-x,1/2-y,-z
1/2+x,1/2+y,1/2-z
1/2-x,1/2+y,z
1/2+x,1/2-y,1/2+z
loop_
_atom_site_type_symbol
_atom_site_label
_atom_site_fract_x
_atom_site_fract_y
_atom_site_fract_z
Si Si1 0.160765 0.661669 0.492518
Si Si2 0.672133 0.187099 0.750000
Si Si3 0.168325 0.930259 0.250000
Si Si4 0.328657 0.044665 0.957846
Si Si5 0.661140 0.262114 0.571112
Si Si6 0.334009 0.437393 0.140009
Si Si7 0.830151 0.803787 0.153078
O O1 0.221125 0.607813 0.524195
O O2 0.274660 0.676954 0.448375
O O3 0.144445 0.717404 0.526410
O O4 0.000000 0.646048 0.470592
O O5 0.500000 0.193511 0.750000
O O6 0.717634 0.120892 0.750000
O O7 0.740096 0.217343 0.798664
O O8 0.193589 0.963978 0.303197
O O9 0.000000 0.906658 0.250000
O O10 0.500000 0.040087 0.950419
O O11 0.260350 0.031243 0.902952
O O12 0.273199 0.000000 0.000000
O O13 0.500000 0.272761 0.594596
O O14 0.778067 0.237240 0.609194
O O15 0.500000 0.446714 0.124314
O O16 0.294041 0.369999 0.140906
O O17 0.000000 0.794717 0.162573
#
# Coordination Sequence:
#
# PCOD8255639 Si02
#       7
#    16   8   8  16  16  16  16
#     4   9  18  31  44  63  91 121 153 189 230 275
#     4  10  18  26  40  64  93 122 155 190 226 276
#     4   8  16  30  44  64  91 122 153 190 238 284
#     4  10  20  33  48  67  95 128 160 196 239 284
#     4  10  18  28  46  68  89 118 155 191 227 273
#     4   9  17  29  46  66  92 122 155 191 232 284
#     4  10  18  29  44  64  93 126 154 187 235 281
#
# _framework density 16.86374
#
# number of rings (size 3 to 8) (size 9 to 14) (size 15 to 20)
#    0.000    2.500    1.667    2.750    0.000    4.333 
#    0.000    0.000    0.000    0.000    0.000    1.167 
#    0.000    4.000    0.000    0.000    0.000    0.000 
#
# Total GULP energy -594775.706629 kJ/mol
# GULP energy per Si atom -12391.160555 kJ/mol
# Density = 1.682536 g / cm^3
# Si number density = 16.863740 Si / 1000 Ang^3
#
#
#
# Elastic Constant Matrix: (Units=GPa)
#
#
# Indices 1 2 3 4 5 6 
#
# 1 90.6396 17.5559 54.7012 0.0000 0.0000 0.0000
# 2 17.5559 30.8459 26.4820 0.0000 0.0000 0.0000
# 3 54.7012 26.4820 122.9240 0.0000 0.0000 0.0000
# 4 0.0000 0.0000 0.0000 18.5721 0.0000 0.0000
# 5 0.0000 0.0000 0.0000 0.0000 27.5699 0.0000
# 6 0.0000 0.0000 0.0000 0.0000 0.0000 15.6713
#
#
#
# Elastic Compliance Matrix: (Units=1/GPa)
#
#
# Indices 1 2 3 4 5 6 
#
# 1 0.015391 -0.003533 -0.006088 0.000000 0.000000 0.000000
# 2 -0.003533 0.040587 -0.007172 0.000000 0.000000 0.000000
# 3 -0.006088 -0.007172 0.012389 0.000000 0.000000 0.000000
# 4 0.000000 0.000000 0.000000 0.053844 0.000000 0.000000
# 5 0.000000 0.000000 0.000000 0.000000 0.036271 0.000000
# 6 0.000000 0.000000 0.000000 0.000000 0.000000 0.063811
#
#
# Mechanical properties :
#
#
# Convention : Reuss Voigt Hill
#
# Bulk Modulus (GPa) = 28.75043 49.09864 38.92453
# Shear Modulus (GPa) = 18.69345 22.07402 20.38373
#
# Velocity S-wave (km/s) = 3.33303 3.62188 3.48045
# Velocity P-wave (km/s) = 5.64781 6.83146 6.26764
#
# Compressibility (1/GPa) = 0.03478209
#
# Stress axis : x y z
#
# Youngs Moduli (GPa) = 64.97262 24.63836 80.71545
#
# Poissons Ratio (x) = 0.08705 0.49138
# Poissons Ratio (y) = 0.22957 0.57886
# Poissons Ratio (z) = 0.39554 0.17670
#
# Static dielectric constant tensor:
#      x y z
#    x 3.275280 0.000000 0.000000 
#    y 0.000000 2.731080 0.000000 
#    z 0.000000 0.000000 3.403210 
# 
# 
# High freq. dielectric constant tensor:
#      x y z
#    x 1.658930 0.000000 0.000000 
#    y 0.000000 1.586120 0.000000 
#    z 0.000000 0.000000 1.653580 
# 
# From -- ./inp_files/67310.got.cif
#   From: 2010.03.12/outbox.cif.g09.slc.cpg/sg63_34_cif.got.tgz:67310.got - 2010.04.10 19:34:48.
