data_PCOD8255717
_publ_section_title
;
Structure prediction by ZEFSAII (Michael W. Deem and Ramdas Pophale) SiO2 
 PCOD8255717
Probable space group: C M C M
;
_chemical_formula_sum "Si O2"
_cell_formula_units_Z 80
_cell_length_a 23.824848
_cell_length_b 26.365309
_cell_length_c 9.091829
_cell_angle_alpha 90.000000
_cell_angle_beta 90.000000
_cell_angle_gamma 90.000000
_cell_volume 5711.027653
_symmetry_space_group_name_H-M "C M C M"
_symmetry_group_IT_number 63
_symmetry_cell_setting 'orthorhombic'
loop_
_space_group_symop_operation_xyz
x,y,z
-x,-y,1/2+z
x,-y,-z
-x,y,1/2-z
-x,-y,-z
x,y,1/2-z
-x,y,z
x,-y,1/2+z
1/2+x,1/2+y,z
1/2-x,1/2-y,1/2+z
1/2+x,1/2-y,-z
1/2-x,1/2+y,1/2-z
1/2-x,1/2-y,-z
1/2+x,1/2+y,1/2-z
1/2-x,1/2+y,z
1/2+x,1/2-y,1/2+z
loop_
_atom_site_type_symbol
_atom_site_label
_atom_site_fract_x
_atom_site_fract_y
_atom_site_fract_z
Si Si1 0.714123 0.792994 0.422078
Si Si2 0.000000 0.899229 0.424273
Si Si3 0.500000 0.714603 0.924005
Si Si4 0.683409 0.353223 0.079259
Si Si5 0.379986 0.746392 0.923995
Si Si6 0.883932 0.052440 0.575314
O O1 0.708819 0.781245 0.250000
O O2 0.750000 0.750000 0.500000
O O3 0.749507 0.845234 0.448234
O O4 0.652226 0.793436 0.496076
O O5 0.945241 0.929385 0.478609
O O6 0.000000 0.895142 0.250000
O O7 0.000000 0.842242 0.491502
O O8 0.500000 0.708478 0.750000
O O9 0.445033 0.746048 0.973480
O O10 0.668814 0.354326 0.250000
O O11 0.647525 0.305930 0.016629
O O12 0.661667 0.406568 0.014919
O O13 0.372787 0.753216 0.750000
O O14 0.881677 0.045520 0.750000
O O15 0.867973 0.000000 0.500000
#
# Coordination Sequence:
#
# PCOD8255717 Si02
#       6
#    16   8   8  16  16  16
#     4   9  16  26  40  57  74  95 123 157 194 233
#     4   9  15  25  42  54  68 100 138 167 189 223
#     4   9  14  23  42  60  74 102 139 161 180 225
#     4   8  14  25  40  53  69  96 129 157 187 230
#     4   9  15  25  41  59  75  97 129 160 187 223
#     4  10  18  28  40  55  72  96 131 168 200 227
#
# _framework density 14.007986000000001
#
# number of rings (size 3 to 8) (size 9 to 14) (size 15 to 20)
#    0.000    3.000    2.000    2.100    0.000    0.000 
#    0.000    5.500    0.000    1.200    0.000    0.000 
#    0.000    0.000    0.000    0.900    0.000   10.800 
#
# Total GULP energy -495540.260292 kJ/mol
# GULP energy per Si atom -12388.506507 kJ/mol
# Density = 1.397610 g / cm^3
# Si number density = 14.007986 Si / 1000 Ang^3
#
#
#
# Elastic Constant Matrix: (Units=GPa)
#
#
# Indices 1 2 3 4 5 6 
#
# 1 119.1477 61.1902 31.8303 0.0000 0.0000 0.0000
# 2 61.1902 67.5266 23.2250 0.0000 0.0000 0.0000
# 3 31.8303 23.2250 34.5418 0.0000 0.0000 0.0000
# 4 0.0000 0.0000 0.0000 16.4060 0.0000 0.0000
# 5 0.0000 0.0000 0.0000 0.0000 19.3328 0.0000
# 6 0.0000 0.0000 0.0000 0.0000 0.0000 21.1482
#
#
#
# Elastic Compliance Matrix: (Units=1/GPa)
#
#
# Indices 1 2 3 4 5 6 
#
# 1 0.016858 -0.012921 -0.006847 0.000000 0.000000 0.000000
# 2 -0.012921 0.029168 -0.007705 0.000000 0.000000 0.000000
# 3 -0.006847 -0.007705 0.040440 0.000000 0.000000 0.000000
# 4 0.000000 0.000000 0.000000 0.060953 0.000000 0.000000
# 5 0.000000 0.000000 0.000000 0.000000 0.051725 0.000000
# 6 0.000000 0.000000 0.000000 0.000000 0.000000 0.047285
#
#
# Mechanical properties :
#
#
# Convention : Reuss Voigt Hill
#
# Bulk Modulus (GPa) = 31.72534 50.41188 41.06861
# Shear Modulus (GPa) = 16.03171 18.37544 17.20357
#
# Velocity S-wave (km/s) = 3.38667 3.62578 3.50826
# Velocity P-wave (km/s) = 6.16360 7.32083 6.76699
#
# Compressibility (1/GPa) = 0.03152054
#
# Stress axis : x y z
#
# Youngs Moduli (GPa) = 59.31922 34.28459 24.72790
#
# Poissons Ratio (x) = 0.44300 0.16931
# Poissons Ratio (y) = 0.76648 0.19052
# Poissons Ratio (z) = 0.40614 0.26415
#
# Static dielectric constant tensor:
#      x y z
#    x 3.184510 0.000000 0.000000 
#    y 0.000000 2.688890 0.000000 
#    z 0.000000 0.000000 2.561670 
# 
# 
# High freq. dielectric constant tensor:
#      x y z
#    x 1.533200 0.000000 0.000000 
#    y 0.000000 1.494260 0.000000 
#    z 0.000000 0.000000 1.508960 
# 
# From -- ./inp_files/10966.got.cif
#   From: 2010.03.12/outbox.cif.g09.slc.cpg/sg63_6_cif.got.tgz:10966.got - 2010.04.10 19:34:48.
