data_PCOD8255163
_publ_section_title
;
Structure prediction by ZEFSAII (Michael W. Deem and Ramdas Pophale) SiO2 
 PCOD8255163
Probable space group: P N M A
;
_chemical_formula_sum "Si O2"
_cell_formula_units_Z 48
_cell_length_a 8.871315
_cell_length_b 27.181047
_cell_length_c 9.550598
_cell_angle_alpha 90.000000
_cell_angle_beta 90.000000
_cell_angle_gamma 90.000000
_cell_volume 2302.951263
_symmetry_space_group_name_H-M "P N M A"
_symmetry_group_IT_number 62
_symmetry_cell_setting 'orthorhombic'
loop_
_space_group_symop_operation_xyz
x,y,z
1/2-x,-y,1/2+z
1/2+x,1/2-y,1/2-z
-x,1/2+y,-z
-x,-y,-z
1/2+x,y,1/2-z
1/2-x,1/2+y,1/2+z
x,1/2-y,z
loop_
_atom_site_type_symbol
_atom_site_label
_atom_site_fract_x
_atom_site_fract_y
_atom_site_fract_z
Si Si1 0.099036 0.471675 0.891069
Si Si2 0.925348 0.989952 0.645289
Si Si3 0.239919 0.805995 0.318233
Si Si4 0.341712 0.627463 0.553743
Si Si5 0.081714 0.307270 0.559714
Si Si6 0.985987 0.121515 0.318949
O O1 0.248013 0.502187 0.856898
O O2 0.000388 0.470233 0.749901
O O3 0.138963 0.419189 0.953414
O O4 0.000000 0.500000 0.000000
O O5 0.950830 0.933587 0.684225
O O6 0.000000 0.000000 0.500000
O O7 0.289594 0.750000 0.320595
O O8 0.334618 0.828066 0.446111
O O9 0.064606 0.815026 0.343269
O O10 0.282875 0.825314 0.161984
O O11 0.190657 0.622342 0.647643
O O12 0.480204 0.638850 0.659349
O O13 0.095579 0.250000 0.510488
O O14 0.076562 0.342872 0.425476
#
# Coordination Sequence:
#
# PCOD8255163 Si02
#       6
#     8   8   8   8   8   8
#     4  12  25  43  62  91 123 165 205 251 309 359
#     4  12  24  42  63  89 126 162 206 255 299 363
#     4   9  20  39  62  90 120 153 199 251 304 366
#     4  11  24  40  61  89 123 162 205 252 304 366
#     4   9  20  40  64  90 122 156 200 252 305 364
#     4  11  23  42  60  91 124 162 205 251 306 360
#
# _framework density 20.84282
#
# number of rings (size 3 to 8) (size 9 to 14) (size 15 to 20)
#    0.000    1.333    3.333    2.000    2.333    2.000 
#    0.000    0.000    0.000    0.000    0.000    0.000 
#    0.000    0.000    0.000    0.000    0.000    0.000 
#
# Total GULP energy -595079.056515 kJ/mol
# GULP energy per Si atom -12397.480344 kJ/mol
# Density = 2.079538 g / cm^3
# Si number density = 20.842820 Si / 1000 Ang^3
#
#
#
# Elastic Constant Matrix: (Units=GPa)
#
#
# Indices 1 2 3 4 5 6 
#
# 1 79.5967 15.1574 29.7160 0.0000 0.0000 0.0000
# 2 15.1574 55.1495 29.0710 0.0000 0.0000 0.0000
# 3 29.7160 29.0710 117.4229 0.0000 0.0000 0.0000
# 4 0.0000 0.0000 0.0000 32.3422 0.0000 0.0000
# 5 0.0000 0.0000 0.0000 0.0000 43.5399 0.0000
# 6 0.0000 0.0000 0.0000 0.0000 0.0000 23.7432
#
#
#
# Elastic Compliance Matrix: (Units=1/GPa)
#
#
# Indices 1 2 3 4 5 6 
#
# 1 0.014123 -0.002297 -0.003005 0.000000 0.000000 0.000000
# 2 -0.002297 0.021228 -0.004674 0.000000 0.000000 0.000000
# 3 -0.003005 -0.004674 0.010434 0.000000 0.000000 0.000000
# 4 0.000000 0.000000 0.000000 0.030919 0.000000 0.000000
# 5 0.000000 0.000000 0.000000 0.000000 0.022967 0.000000
# 6 0.000000 0.000000 0.000000 0.000000 0.000000 0.042117
#
#
# Mechanical properties :
#
#
# Convention : Reuss Voigt Hill
#
# Bulk Modulus (GPa) = 38.71301 44.45087 41.58194
# Shear Modulus (GPa) = 29.35091 31.80670 30.57881
#
# Velocity S-wave (km/s) = 3.75667 3.91068 3.83445
# Velocity P-wave (km/s) = 6.11808 6.46252 6.29266
#
# Compressibility (1/GPa) = 0.02583111
#
# Stress axis : x y z
#
# Youngs Moduli (GPa) = 70.80760 47.10801 95.84101
#
# Poissons Ratio (x) = 0.10822 0.28803
# Poissons Ratio (y) = 0.16267 0.44797
# Poissons Ratio (z) = 0.21279 0.22019
#
# Static dielectric constant tensor:
#      x y z
#    x 3.725490 0.000000 0.000000 
#    y 0.000000 0.233850 0.000000 
#    z 0.000000 0.000000 3.932440 
# 
# 
# High freq. dielectric constant tensor:
#      x y z
#    x 1.819180 0.000000 0.000000 
#    y 0.000000 1.812670 0.000000 
#    z 0.000000 0.000000 1.831010 
# 
# From -- ./inp_files/4515.got.cif
#   From: 2010.03.12/outbox.cif.g09.slc.cpg/sg62_3_cif.got.tgz:4515.got - 2010.04.10 19:12:36.
