data_PCOD8255885
_publ_section_title
;
Structure prediction by ZEFSAII (Michael W. Deem and Ramdas Pophale) SiO2 
 PCOD8255885
Probable space group: C M C M
;
_chemical_formula_sum "Si O2"
_cell_formula_units_Z 96
_cell_length_a 9.472962
_cell_length_b 27.922825
_cell_length_c 19.065404
_cell_angle_alpha 90.000000
_cell_angle_beta 90.000000
_cell_angle_gamma 90.000000
_cell_volume 5043.025477
_symmetry_space_group_name_H-M "C M C M"
_symmetry_group_IT_number 63
_symmetry_cell_setting 'orthorhombic'
loop_
_space_group_symop_operation_xyz
x,y,z
-x,-y,1/2+z
x,-y,-z
-x,y,1/2-z
-x,-y,-z
x,y,1/2-z
-x,y,z
x,-y,1/2+z
1/2+x,1/2+y,z
1/2-x,1/2-y,1/2+z
1/2+x,1/2-y,-z
1/2-x,1/2+y,1/2-z
1/2-x,1/2-y,-z
1/2+x,1/2+y,1/2-z
1/2-x,1/2+y,z
1/2+x,1/2-y,1/2+z
loop_
_atom_site_type_symbol
_atom_site_label
_atom_site_fract_x
_atom_site_fract_y
_atom_site_fract_z
Si Si1 0.331697 0.039716 0.170046
Si Si2 0.666329 0.101491 0.456474
Si Si3 0.834831 0.707794 0.463066
Si Si4 0.656885 0.360068 0.332822
Si Si5 0.166033 0.558037 0.600010
Si Si6 0.835310 0.756191 0.325547
O O1 0.272889 0.045384 0.250000
O O2 0.500000 0.039262 0.171955
O O3 0.276086 0.082407 0.118915
O O4 0.275721 0.990884 0.133981
O O5 0.500000 0.107577 0.448941
O O6 0.725394 0.154264 0.478070
O O7 0.703655 0.062832 0.517099
O O8 0.750000 0.750000 0.500000
O O9 0.806697 0.713983 0.380010
O O10 0.000000 0.713214 0.482572
O O11 0.648307 0.363635 0.250000
O O12 0.500000 0.368834 0.364985
O O13 0.766034 0.398333 0.359876
O O14 0.720225 0.307750 0.353889
O O15 0.000000 0.561554 0.611206
O O16 0.766940 0.742332 0.250000
O O17 0.000000 0.764682 0.314444
#
# Coordination Sequence:
#
# PCOD8255885 Si02
#       6
#    16  16  16  16  16  16
#     4   9  17  29  46  69  95 123 157 194 230 270
#     4   9  18  30  45  68  96 123 152 191 235 274
#     4  10  19  31  49  71  94 122 155 191 232 276
#     4   9  17  29  45  66  93 123 154 191 233 273
#     4  10  18  29  47  70  96 123 151 187 233 280
#     4   8  15  28  45  65  89 119 156 194 230 270
#
# _framework density 19.036193000000001
#
# number of rings (size 3 to 8) (size 9 to 14) (size 15 to 20)
#    0.000    2.833    0.000    3.000    0.000    3.667 
#    0.000    3.333    0.000    4.500    0.000    0.000 
#    0.000    0.000    0.000    0.000    0.000    0.000 
#
# Total GULP energy -594660.805928 kJ/mol
# GULP energy per Si atom -12388.766790 kJ/mol
# Density = 1.899287 g / cm^3
# Si number density = 19.036193 Si / 1000 Ang^3
#
#
#
# Elastic Constant Matrix: (Units=GPa)
#
#
# Indices 1 2 3 4 5 6 
#
# 1 15.9793 17.8175 15.3263 0.0000 0.0000 0.0000
# 2 17.8175 103.4923 58.8807 0.0000 0.0000 0.0000
# 3 15.3263 58.8807 89.6005 0.0000 0.0000 0.0000
# 4 0.0000 0.0000 0.0000 29.7191 0.0000 0.0000
# 5 0.0000 0.0000 0.0000 0.0000 12.6424 0.0000
# 6 0.0000 0.0000 0.0000 0.0000 0.0000 20.3536
#
#
#
# Elastic Compliance Matrix: (Units=1/GPa)
#
#
# Indices 1 2 3 4 5 6 
#
# 1 0.080439 -0.009615 -0.007440 0.000000 0.000000 0.000000
# 2 -0.009615 0.016582 -0.009252 0.000000 0.000000 0.000000
# 3 -0.007440 -0.009252 0.018513 0.000000 0.000000 0.000000
# 4 0.000000 0.000000 0.000000 0.033648 0.000000 0.000000
# 5 0.000000 0.000000 0.000000 0.000000 0.079099 0.000000
# 6 0.000000 0.000000 0.000000 0.000000 0.000000 0.049131
#
#
# Mechanical properties :
#
#
# Convention : Reuss Voigt Hill
#
# Bulk Modulus (GPa) = 15.89366 43.68012 29.78689
# Shear Modulus (GPa) = 14.24499 20.34620 17.29560
#
# Velocity S-wave (km/s) = 2.73850 3.27282 3.01751
# Velocity P-wave (km/s) = 4.28561 6.10553 5.27465
#
# Compressibility (1/GPa) = 0.06291816
#
# Stress axis : x y z
#
# Youngs Moduli (GPa) = 12.43183 60.30741 54.01551
#
# Poissons Ratio (x) = 0.57988 0.40190
# Poissons Ratio (y) = 0.11954 0.49975
# Poissons Ratio (z) = 0.09250 0.55796
#
# Static dielectric constant tensor:
#      x y z
#    x 3.076570 0.000000 0.000000 
#    y 0.000000 3.709020 0.000000 
#    z 0.000000 0.000000 3.953400 
# 
# 
# High freq. dielectric constant tensor:
#      x y z
#    x 1.670320 0.000000 0.000000 
#    y 0.000000 1.746390 0.000000 
#    z 0.000000 0.000000 1.753520 
# 
# From -- ./inp_files/42671.got.cif
#   From: 2010.03.12/outbox.cif.g09.slc.cpg/sg63_22_cif.got.tgz:42671.got - 2010.04.10 19:34:48.
