data_PCOD8255909
_publ_section_title
;
Structure prediction by ZEFSAII (Michael W. Deem and Ramdas Pophale) SiO2 
 PCOD8255909
Probable space group: C M C M
;
_chemical_formula_sum "Si O2"
_cell_formula_units_Z 96
_cell_length_a 8.680539
_cell_length_b 23.967406
_cell_length_c 26.061790
_cell_angle_alpha 90.000000
_cell_angle_beta 90.000000
_cell_angle_gamma 90.000000
_cell_volume 5422.155475
_symmetry_space_group_name_H-M "C M C M"
_symmetry_group_IT_number 63
_symmetry_cell_setting 'orthorhombic'
loop_
_space_group_symop_operation_xyz
x,y,z
-x,-y,1/2+z
x,-y,-z
-x,y,1/2-z
-x,-y,-z
x,y,1/2-z
-x,y,z
x,-y,1/2+z
1/2+x,1/2+y,z
1/2-x,1/2-y,1/2+z
1/2+x,1/2-y,-z
1/2-x,1/2+y,1/2-z
1/2-x,1/2-y,-z
1/2+x,1/2+y,1/2-z
1/2-x,1/2+y,z
1/2+x,1/2-y,1/2+z
loop_
_atom_site_type_symbol
_atom_site_label
_atom_site_fract_x
_atom_site_fract_y
_atom_site_fract_z
Si Si1 0.681127 0.006500 0.617032
Si Si2 0.174396 0.584953 0.040439
Si Si3 0.320209 0.331082 0.887972
Si Si4 0.316707 0.912884 0.807886
Si Si5 0.176271 0.616806 0.573242
Si Si6 0.680457 0.733577 0.945014
O O1 0.500000 0.012350 0.621574
O O2 0.725632 0.973962 0.564691
O O3 0.743870 0.970360 0.665313
O O4 0.741894 0.070822 0.614307
O O5 0.287447 0.632692 0.061304
O O6 0.000000 0.599435 0.058955
O O7 0.183454 0.582578 0.979719
O O8 0.500000 0.324363 0.878755
O O9 0.246454 0.358914 0.837545
O O10 0.247823 0.270527 0.898672
O O11 0.253244 0.912024 0.750000
O O12 0.500000 0.910513 0.809287
O O13 0.284413 0.670260 0.571158
O O14 0.000000 0.635359 0.584752
O O15 0.500000 0.742992 0.949349
O O16 0.750000 0.750000 0.000000
#
# Coordination Sequence:
#
# PCOD8255909 Si02
#       6
#    16  16  16  16  16  16
#     4   8  15  28  48  76 103 132 171 208 250 306
#     4   9  16  28  47  70 101 138 173 207 247 301
#     4  11  21  33  51  76 105 136 174 219 262 305
#     4   9  18  35  59  82 104 133 169 212 262 312
#     4  10  18  29  48  72 103 141 176 210 250 302
#     4  12  23  35  50  71 103 142 182 218 258 311
#
# _framework density 17.705136
#
# number of rings (size 3 to 8) (size 9 to 14) (size 15 to 20)
#    0.000    2.167    1.667    4.500    0.000    2.333 
#    0.000    3.333    0.000    6.000    0.000    2.333 
#    0.000    0.000    0.000    0.000    0.000    0.000 
#
# Total GULP energy -594869.245868 kJ/mol
# GULP energy per Si atom -12393.109289 kJ/mol
# Density = 1.766484 g / cm^3
# Si number density = 17.705136 Si / 1000 Ang^3
#
#
#
# Elastic Constant Matrix: (Units=GPa)
#
#
# Indices 1 2 3 4 5 6 
#
# 1 64.8552 28.7525 26.0058 0.0000 0.0000 0.0000
# 2 28.7525 131.6153 54.1566 0.0000 0.0000 0.0000
# 3 26.0058 54.1566 90.2482 0.0000 0.0000 0.0000
# 4 0.0000 0.0000 0.0000 16.6155 0.0000 0.0000
# 5 0.0000 0.0000 0.0000 0.0000 15.8552 0.0000
# 6 0.0000 0.0000 0.0000 0.0000 0.0000 24.6709
#
#
#
# Elastic Compliance Matrix: (Units=1/GPa)
#
#
# Indices 1 2 3 4 5 6 
#
# 1 0.017980 -0.002385 -0.003750 0.000000 0.000000 0.000000
# 2 -0.002385 0.010405 -0.005557 0.000000 0.000000 0.000000
# 3 -0.003750 -0.005557 0.015496 0.000000 0.000000 0.000000
# 4 0.000000 0.000000 0.000000 0.060185 0.000000 0.000000
# 5 0.000000 0.000000 0.000000 0.000000 0.063071 0.000000
# 6 0.000000 0.000000 0.000000 0.000000 0.000000 0.040534
#
#
# Mechanical properties :
#
#
# Convention : Reuss Voigt Hill
#
# Bulk Modulus (GPa) = 48.78607 56.06093 52.42350
# Shear Modulus (GPa) = 21.01844 23.28191 22.15018
#
# Velocity S-wave (km/s) = 3.44923 3.63020 3.54087
# Velocity P-wave (km/s) = 6.59374 7.02165 6.81106
#
# Compressibility (1/GPa) = 0.02049765
#
# Stress axis : x y z
#
# Youngs Moduli (GPa) = 55.61764 96.10359 64.53371
#
# Poissons Ratio (x) = 0.22919 0.24200
# Poissons Ratio (y) = 0.13264 0.35861
# Poissons Ratio (z) = 0.20856 0.53404
#
# Static dielectric constant tensor:
#      x y z
#    x 3.077210 0.000000 0.000000 
#    y 0.000000 3.499860 0.000000 
#    z 0.000000 0.000000 3.248860 
# 
# 
# High freq. dielectric constant tensor:
#      x y z
#    x 1.663650 0.000000 0.000000 
#    y 0.000000 1.691700 0.000000 
#    z 0.000000 0.000000 1.651540 
# 
# From -- ./inp_files/67234.got.cif
#   From: 2010.03.12/outbox.cif.g09.slc.cpg/sg63_34_cif.got.tgz:67234.got - 2010.04.10 19:34:48.
