data_PCOD8255000
_publ_section_title
;
Structure prediction by ZEFSAII (Michael W. Deem and Ramdas Pophale) SiO2 
 PCOD8255000
Probable space group: P N M A
;
_chemical_formula_sum "Si O2"
_cell_formula_units_Z 48
_cell_length_a 13.376132
_cell_length_b 9.113093
_cell_length_c 24.041155
_cell_angle_alpha 90.000000
_cell_angle_beta 90.000000
_cell_angle_gamma 90.000000
_cell_volume 2930.567147
_symmetry_space_group_name_H-M "P N M A"
_symmetry_group_IT_number 62
_symmetry_cell_setting 'orthorhombic'
loop_
_space_group_symop_operation_xyz
x,y,z
1/2-x,-y,1/2+z
1/2+x,1/2-y,1/2-z
-x,1/2+y,-z
-x,-y,-z
1/2+x,y,1/2-z
1/2-x,1/2+y,1/2+z
x,1/2-y,z
loop_
_atom_site_type_symbol
_atom_site_label
_atom_site_fract_x
_atom_site_fract_y
_atom_site_fract_z
Si Si1 0.606894 0.923685 0.272521
Si Si2 0.406062 0.417148 0.273105
Si Si3 0.297832 0.919984 0.829426
Si Si4 0.884899 0.422247 0.445101
Si Si5 0.886534 0.578384 0.554911
Si Si6 0.221652 0.578835 0.666491
O O1 0.614056 0.750000 0.271832
O O2 0.494944 0.972562 0.287561
O O3 0.635078 0.985354 0.212105
O O4 0.680051 0.985805 0.319904
O O5 0.444961 0.250000 0.276314
O O6 0.319226 0.445123 0.318325
O O7 0.364192 0.451481 0.211772
O O8 0.327381 0.750000 0.819868
O O9 0.321171 0.970110 0.892103
O O10 0.876518 0.250000 0.453236
O O11 0.842631 0.498039 0.500672
O O12 0.818959 0.474361 0.392974
O O13 0.999210 0.470097 0.434249
O O14 0.878330 0.750000 0.543945
O O15 0.250691 0.750000 0.666971
#
# Coordination Sequence:
#
# PCOD8255000 Si02
#       6
#     8   8   8   8   8   8
#     4  11  21  30  45  71  99 122 148 191 240 277
#     4   9  17  31  50  68  89 121 158 191 225 272
#     4   9  18  33  51  68  90 125 162 190 222 273
#     4   9  17  29  47  71  96 122 151 185 227 273
#     4   9  17  30  48  70  95 121 151 187 227 272
#     4   9  18  33  51  68  91 126 162 190 221 273
#
# _framework density 16.379083000000001
#
# number of rings (size 3 to 8) (size 9 to 14) (size 15 to 20)
#    0.000    2.667    0.000    3.500    0.000    6.667 
#    0.000    3.333    0.000    1.000    0.000    0.000 
#    0.000    0.000    0.000    0.000    0.000    0.000 
#
# Total GULP energy -595271.936652 kJ/mol
# GULP energy per Si atom -12401.498680 kJ/mol
# Density = 1.634180 g / cm^3
# Si number density = 16.379083 Si / 1000 Ang^3
#
#
#
# Elastic Constant Matrix: (Units=GPa)
#
#
# Indices 1 2 3 4 5 6 
#
# 1 94.8677 50.4322 66.2102 0.0000 0.0000 0.0000
# 2 50.4322 70.5446 50.1046 0.0000 0.0000 0.0000
# 3 66.2102 50.1046 154.1795 0.0000 0.0000 0.0000
# 4 0.0000 0.0000 0.0000 27.9109 0.0000 0.0000
# 5 0.0000 0.0000 0.0000 0.0000 23.6680 0.0000
# 6 0.0000 0.0000 0.0000 0.0000 0.0000 18.5593
#
#
#
# Elastic Compliance Matrix: (Units=1/GPa)
#
#
# Indices 1 2 3 4 5 6 
#
# 1 0.019598 -0.010443 -0.005022 0.000000 0.000000 0.000000
# 2 -0.010443 0.023994 -0.003313 0.000000 0.000000 0.000000
# 3 -0.005022 -0.003313 0.009719 0.000000 0.000000 0.000000
# 4 0.000000 0.000000 0.000000 0.035828 0.000000 0.000000
# 5 0.000000 0.000000 0.000000 0.000000 0.042251 0.000000
# 6 0.000000 0.000000 0.000000 0.000000 0.000000 0.053881
#
#
# Mechanical properties :
#
#
# Convention : Reuss Voigt Hill
#
# Bulk Modulus (GPa) = 63.47343 72.56508 68.01926
# Shear Modulus (GPa) = 21.92208 24.21730 23.06969
#
# Velocity S-wave (km/s) = 3.66241 3.84936 3.75705
# Velocity P-wave (km/s) = 7.53135 8.00977 7.77424
#
# Compressibility (1/GPa) = 0.01575462
#
# Stress axis : x y z
#
# Youngs Moduli (GPa) = 51.02592 41.67647 102.88903
#
# Poissons Ratio (x) = 0.43525 0.51672
# Poissons Ratio (y) = 0.53289 0.34085
# Poissons Ratio (z) = 0.25626 0.13807
#
# Static dielectric constant tensor:
#      x y z
#    x 2.995770 0.000000 0.000000 
#    y 0.000000 2.984990 0.000000 
#    z 0.000000 0.000000 3.158150 
# 
# 
# High freq. dielectric constant tensor:
#      x y z
#    x 1.617490 0.000000 0.000000 
#    y 0.000000 1.623210 0.000000 
#    z 0.000000 0.000000 1.624750 
# 
# From -- ./inp_files/29237.got.cif
#   From: 2010.03.12/outbox.cif.g09.slc.cpg/sg62_15_cif.got.tgz:29237.got - 2010.04.10 19:12:36.
