data_PCOD8255628
_publ_section_title
;
Structure prediction by ZEFSAII (Michael W. Deem and Ramdas Pophale) SiO2 
 PCOD8255628
Probable space group: C M C M
;
_chemical_formula_sum "Si O2"
_cell_formula_units_Z 80
_cell_length_a 19.385637
_cell_length_b 32.644904
_cell_length_c 9.264192
_cell_angle_alpha 90.000000
_cell_angle_beta 90.000000
_cell_angle_gamma 90.000000
_cell_volume 5862.772192
_symmetry_space_group_name_H-M "C M C M"
_symmetry_group_IT_number 63
_symmetry_cell_setting 'orthorhombic'
loop_
_space_group_symop_operation_xyz
x,y,z
-x,-y,1/2+z
x,-y,-z
-x,y,1/2-z
-x,-y,-z
x,y,1/2-z
-x,y,z
x,-y,1/2+z
1/2+x,1/2+y,z
1/2-x,1/2-y,1/2+z
1/2+x,1/2-y,-z
1/2-x,1/2+y,1/2-z
1/2-x,1/2-y,-z
1/2+x,1/2+y,1/2-z
1/2-x,1/2+y,z
1/2+x,1/2-y,1/2+z
loop_
_atom_site_type_symbol
_atom_site_label
_atom_site_fract_x
_atom_site_fract_y
_atom_site_fract_z
Si Si1 0.500000 0.247036 0.918937
Si Si2 0.367380 0.615763 0.915698
Si Si3 0.217950 0.190984 0.918221
Si Si4 0.850971 0.263776 0.081118
Si Si5 0.500000 0.329847 0.413042
Si Si6 0.920195 0.958560 0.581276
O O1 0.500000 0.253091 0.750000
O O2 0.429323 0.223345 0.964849
O O3 0.500000 0.292104 0.981292
O O4 0.364480 0.600609 0.750000
O O5 0.300721 0.643838 0.955512
O O6 0.433796 0.643039 0.944673
O O7 0.370223 0.576654 0.019799
O O8 0.204003 0.199029 0.750000
O O9 0.297922 0.199734 0.960540
O O10 0.168140 0.221817 0.001907
O O11 0.846287 0.254383 0.250000
O O12 0.500000 0.313191 0.250000
O O13 0.905922 0.964304 0.750000
O O14 0.000000 0.947184 0.550786
O O15 0.900174 0.000000 0.500000
#
# Coordination Sequence:
#
# PCOD8255628 Si02
#       6
#     8  16  16  16   8  16
#     4  10  18  26  38  55  77 102 131 169 203 232
#     4  10  18  28  41  55  74 100 130 164 196 228
#     4   9  17  28  40  54  74 101 131 163 198 233
#     4   9  17  27  38  54  76 101 130 164 200 233
#     4  10  18  26  37  55  76 100 133 165 195 232
#     4  10  20  31  43  58  77 100 126 157 192 228
#
# _framework density 13.645422
#
# number of rings (size 3 to 8) (size 9 to 14) (size 15 to 20)
#    0.000    2.400    3.000    0.600    0.000    2.400 
#    0.000    0.000    0.000    0.000    0.000    0.000 
#    0.000    0.000    0.000    0.900    0.000    6.400 
#
# Total GULP energy -495762.109899 kJ/mol
# GULP energy per Si atom -12394.052747 kJ/mol
# Density = 1.361436 g / cm^3
# Si number density = 13.645422 Si / 1000 Ang^3
#
#
#
# Elastic Constant Matrix: (Units=GPa)
#
#
# Indices 1 2 3 4 5 6 
#
# 1 99.1657 47.4667 32.5192 0.0000 0.0000 0.0000
# 2 47.4667 81.1306 36.2871 0.0000 0.0000 0.0000
# 3 32.5192 36.2871 41.8776 0.0000 0.0000 0.0000
# 4 0.0000 0.0000 0.0000 22.5406 0.0000 0.0000
# 5 0.0000 0.0000 0.0000 0.0000 11.5816 0.0000
# 6 0.0000 0.0000 0.0000 0.0000 0.0000 33.2804
#
#
#
# Elastic Compliance Matrix: (Units=1/GPa)
#
#
# Indices 1 2 3 4 5 6 
#
# 1 0.015054 -0.005844 -0.006626 0.000000 0.000000 0.000000
# 2 -0.005844 0.022394 -0.014867 0.000000 0.000000 0.000000
# 3 -0.006626 -0.014867 0.041907 0.000000 0.000000 0.000000
# 4 0.000000 0.000000 0.000000 0.044364 0.000000 0.000000
# 5 0.000000 0.000000 0.000000 0.000000 0.086344 0.000000
# 6 0.000000 0.000000 0.000000 0.000000 0.000000 0.030048
#
#
# Mechanical properties :
#
#
# Convention : Reuss Voigt Hill
#
# Bulk Modulus (GPa) = 40.51645 50.52443 45.52044
# Shear Modulus (GPa) = 16.50096 20.54058 18.52077
#
# Velocity S-wave (km/s) = 3.48122 3.88404 3.68814
# Velocity P-wave (km/s) = 6.77609 7.56448 7.18111
#
# Compressibility (1/GPa) = 0.02468133
#
# Stress axis : x y z
#
# Youngs Moduli (GPa) = 66.42571 44.65399 23.86248
#
# Poissons Ratio (x) = 0.26096 0.15812
# Poissons Ratio (y) = 0.38820 0.35476
# Poissons Ratio (z) = 0.44016 0.66386
#
# Static dielectric constant tensor:
#      x y z
#    x 3.072270 0.000000 0.000000 
#    y 0.000000 2.558520 0.000000 
#    z 0.000000 0.000000 2.796520 
# 
# 
# High freq. dielectric constant tensor:
#      x y z
#    x 1.503650 0.000000 0.000000 
#    y 0.000000 1.490360 0.000000 
#    z 0.000000 0.000000 1.526950 
# 
# From -- ./inp_files/8896.got.cif
#   From: 2010.03.12/outbox.cif.g09.slc.cpg/sg63_5_cif.got.tgz:8896.got - 2010.04.10 19:34:48.
