data_PCOD8255615
_publ_section_title
;
Structure prediction by ZEFSAII (Michael W. Deem and Ramdas Pophale) SiO2 
 PCOD8255615
Probable space group: C M C M
;
_chemical_formula_sum "Si O2"
_cell_formula_units_Z 88
_cell_length_a 14.644703
_cell_length_b 19.951318
_cell_length_c 15.248483
_cell_angle_alpha 90.000000
_cell_angle_beta 90.000000
_cell_angle_gamma 90.000000
_cell_volume 4455.318941
_symmetry_space_group_name_H-M "C M C M"
_symmetry_group_IT_number 63
_symmetry_cell_setting 'orthorhombic'
loop_
_space_group_symop_operation_xyz
x,y,z
-x,-y,1/2+z
x,-y,-z
-x,y,1/2-z
-x,-y,-z
x,y,1/2-z
-x,y,z
x,-y,1/2+z
1/2+x,1/2+y,z
1/2-x,1/2-y,1/2+z
1/2+x,1/2-y,-z
1/2-x,1/2+y,1/2-z
1/2-x,1/2-y,-z
1/2+x,1/2+y,1/2-z
1/2-x,1/2+y,z
1/2+x,1/2-y,1/2+z
loop_
_atom_site_type_symbol
_atom_site_label
_atom_site_fract_x
_atom_site_fract_y
_atom_site_fract_z
Si Si1 0.897646 0.939340 0.648407
Si Si2 0.900803 0.471920 0.750000
Si Si3 0.722258 0.981488 0.094771
Si Si4 0.297759 0.311759 0.895049
Si Si5 0.898732 0.813509 0.250000
Si Si6 0.240641 0.168829 0.598242
Si Si7 0.651426 0.831516 0.750000
O O1 0.889106 0.956415 0.750000
O O2 0.881432 0.859301 0.633710
O O3 0.000000 0.955706 0.614337
O O4 0.824708 0.987384 0.600110
O O5 0.844087 0.487408 0.664553
O O6 0.918000 0.392643 0.750000
O O7 0.000000 0.507640 0.750000
O O8 0.711948 0.902270 0.110128
O O9 0.683041 0.000000 0.000000
O O10 0.308081 0.231317 0.875497
O O11 0.211493 0.336389 0.838871
O O12 0.288073 0.322358 0.998264
O O13 0.846977 0.834811 0.161612
O O14 0.910090 0.733923 0.250000
O O15 0.000000 0.846124 0.250000
#
# Coordination Sequence:
#
# PCOD8255615 Si02
#       7
#    16   8  16  16   8  16   8
#     4  11  22  38  63  93 125 163 205 248 303 372
#     4  12  24  39  63  90 120 153 204 260 301 354
#     4  12  22  42  63  90 123 165 200 248 308 366
#     4  10  18  39  61  87 112 157 203 246 294 354
#     4  10  22  35  53  84 120 153 197 245 292 351
#     4  10  22  35  61  83 117 164 198 242 303 352
#     4  10  17  38  64  82 110 148 199 249 301 349
#
# _framework density 19.751673
#
# number of rings (size 3 to 8) (size 9 to 14) (size 15 to 20)
#    0.000    1.273    5.455    0.818    0.000    2.182 
#    0.000    0.909    0.000    1.091    0.000    0.000 
#    0.000    0.000    0.000    0.000    0.000    0.000 
#
# Total GULP energy -545196.640445 kJ/mol
# GULP energy per Si atom -12390.832737 kJ/mol
# Density = 1.970672 g / cm^3
# Si number density = 19.751673 Si / 1000 Ang^3
#
#
#
# Elastic Constant Matrix: (Units=GPa)
#
#
# Indices 1 2 3 4 5 6 
#
# 1 84.5833 23.8434 41.7111 0.0000 0.0000 0.0000
# 2 23.8434 130.9051 12.0178 0.0000 0.0000 0.0000
# 3 41.7111 12.0178 132.7984 0.0000 0.0000 0.0000
# 4 0.0000 0.0000 0.0000 33.5879 0.0000 0.0000
# 5 0.0000 0.0000 0.0000 0.0000 34.4510 0.0000
# 6 0.0000 0.0000 0.0000 0.0000 0.0000 12.1426
#
#
#
# Elastic Compliance Matrix: (Units=1/GPa)
#
#
# Indices 1 2 3 4 5 6 
#
# 1 0.014624 -0.002261 -0.004389 0.000000 0.000000 0.000000
# 2 -0.002261 0.008053 -0.000019 0.000000 0.000000 0.000000
# 3 -0.004389 -0.000019 0.008910 0.000000 0.000000 0.000000
# 4 0.000000 0.000000 0.000000 0.029773 0.000000 0.000000
# 5 0.000000 0.000000 0.000000 0.000000 0.029027 0.000000
# 6 0.000000 0.000000 0.000000 0.000000 0.000000 0.082355
#
#
# Mechanical properties :
#
#
# Convention : Reuss Voigt Hill
#
# Bulk Modulus (GPa) = 54.79203 55.93682 55.36443
# Shear Modulus (GPa) = 26.01983 34.08393 30.05188
#
# Velocity S-wave (km/s) = 3.63347 4.15857 3.90485
# Velocity P-wave (km/s) = 6.73821 7.17215 6.95856
#
# Compressibility (1/GPa) = 0.01825083
#
# Stress axis : x y z
#
# Youngs Moduli (GPa) = 68.37970 124.18315 112.22860
#
# Poissons Ratio (x) = 0.28075 0.49255
# Poissons Ratio (y) = 0.15459 0.00209
# Poissons Ratio (z) = 0.30010 0.00231
#
# Static dielectric constant tensor:
#      x y z
#    x 3.295160 0.000000 0.000000 
#    y 0.000000 4.199740 0.000000 
#    z 0.000000 0.000000 3.817970 
# 
# 
# High freq. dielectric constant tensor:
#      x y z
#    x 1.728710 0.000000 0.000000 
#    y 0.000000 1.787920 0.000000 
#    z 0.000000 0.000000 1.788470 
# 
# From -- ./inp_files/31824.got.cif
#   From: 2010.03.12/outbox.cif.g09.slc.cpg/sg63_16_cif.got.tgz:31824.got - 2010.04.10 19:34:48.
