data_PCOD8255454
_publ_section_title
;
Structure prediction by ZEFSAII (Michael W. Deem and Ramdas Pophale) SiO2 
 PCOD8255454
Probable space group: C M C M
;
_chemical_formula_sum "Si O2"
_cell_formula_units_Z 96
_cell_length_a 28.692521
_cell_length_b 26.335448
_cell_length_c 8.976564
_cell_angle_alpha 90.000000
_cell_angle_beta 90.000000
_cell_angle_gamma 90.000000
_cell_volume 6782.964599
_symmetry_space_group_name_H-M "C M C M"
_symmetry_group_IT_number 63
_symmetry_cell_setting 'orthorhombic'
loop_
_space_group_symop_operation_xyz
x,y,z
-x,-y,1/2+z
x,-y,-z
-x,y,1/2-z
-x,-y,-z
x,y,1/2-z
-x,y,z
x,-y,1/2+z
1/2+x,1/2+y,z
1/2-x,1/2-y,1/2+z
1/2+x,1/2-y,-z
1/2-x,1/2+y,1/2-z
1/2-x,1/2-y,-z
1/2+x,1/2+y,1/2-z
1/2-x,1/2+y,z
1/2+x,1/2-y,1/2+z
loop_
_atom_site_type_symbol
_atom_site_label
_atom_site_fract_x
_atom_site_fract_y
_atom_site_fract_z
Si Si1 0.859453 0.750436 0.426019
Si Si2 0.946887 0.900763 0.922060
Si Si3 0.552610 0.283566 0.576771
Si Si4 0.191748 0.148750 0.576587
Si Si5 0.861875 0.052029 0.573492
Si Si6 0.221152 0.705605 0.924560
O O1 0.857234 0.744565 0.250000
O O2 0.912713 0.748326 0.481227
O O3 0.836852 0.802998 0.487324
O O4 0.829846 0.703713 0.498564
O O5 0.933113 0.908729 0.750000
O O6 0.940562 0.842181 0.968239
O O7 0.000000 0.917748 0.949562
O O8 0.914629 0.935477 0.025402
O O9 0.563340 0.275837 0.750000
O O10 0.500000 0.266324 0.539459
O O11 0.180691 0.148038 0.750000
O O12 0.172513 0.096072 0.509494
O O13 0.247586 0.154741 0.547360
O O14 0.859612 0.046430 0.750000
O O15 0.844709 0.000000 0.500000
O O16 0.215612 0.716263 0.750000
O O17 0.250000 0.750000 0.000000
#
# Coordination Sequence:
#
# PCOD8255454 Si02
#       6
#    16  16  16  16  16  16
#     4  10  17  27  42  62  82 103 129 159 195 238
#     4   9  18  32  46  59  74  95 128 169 211 249
#     4   9  17  28  42  60  81 105 133 165 201 239
#     4   8  16  29  42  56  77  99 124 159 198 239
#     4  11  21  33  45  59  76  99 130 166 206 248
#     4   9  16  27  42  61  80 100 124 156 197 238
#
# _framework density 14.153103
#
# number of rings (size 3 to 8) (size 9 to 14) (size 15 to 20)
#    0.000    2.667    1.667    3.500    0.000    1.000 
#    0.000    4.167    0.000    0.000    0.000    0.000 
#    0.000    0.000    0.000    0.000    0.000    0.833 
#
# Total GULP energy -594885.309611 kJ/mol
# GULP energy per Si atom -12393.443950 kJ/mol
# Density = 1.412089 g / cm^3
# Si number density = 14.153103 Si / 1000 Ang^3
#
#
#
# Elastic Constant Matrix: (Units=GPa)
#
#
# Indices 1 2 3 4 5 6 
#
# 1 92.7240 43.5571 40.7442 0.0000 0.0000 0.0000
# 2 43.5571 43.7367 24.0450 0.0000 0.0000 0.0000
# 3 40.7442 24.0450 63.4386 0.0000 0.0000 0.0000
# 4 0.0000 0.0000 0.0000 13.8680 0.0000 0.0000
# 5 0.0000 0.0000 0.0000 0.0000 24.5242 0.0000
# 6 0.0000 0.0000 0.0000 0.0000 0.0000 18.9250
#
#
#
# Elastic Compliance Matrix: (Units=1/GPa)
#
#
# Indices 1 2 3 4 5 6 
#
# 1 0.022869 -0.018570 -0.007650 0.000000 0.000000 0.000000
# 2 -0.018570 0.043961 -0.004736 0.000000 0.000000 0.000000
# 3 -0.007650 -0.004736 0.022471 0.000000 0.000000 0.000000
# 4 0.000000 0.000000 0.000000 0.072108 0.000000 0.000000
# 5 0.000000 0.000000 0.000000 0.000000 0.040776 0.000000
# 6 0.000000 0.000000 0.000000 0.000000 0.000000 0.052840
#
#
# Mechanical properties :
#
#
# Convention : Reuss Voigt Hill
#
# Bulk Modulus (GPa) = 36.50786 46.28801 41.39794
# Shear Modulus (GPa) = 15.33425 17.56696 16.45061
#
# Velocity S-wave (km/s) = 3.29516 3.52690 3.41300
# Velocity P-wave (km/s) = 6.35046 7.02578 6.69664
#
# Compressibility (1/GPa) = 0.02739136
#
# Stress axis : x y z
#
# Youngs Moduli (GPa) = 43.72696 22.74725 44.50117
#
# Poissons Ratio (x) = 0.42241 0.34041
# Poissons Ratio (y) = 0.81200 0.21075
# Poissons Ratio (z) = 0.33449 0.10773
#
# Static dielectric constant tensor:
#      x y z
#    x 2.912350 0.000000 0.000000 
#    y 0.000000 2.630390 0.000000 
#    z 0.000000 0.000000 2.726450 
# 
# 
# High freq. dielectric constant tensor:
#      x y z
#    x 1.538130 0.000000 0.000000 
#    y 0.000000 1.485860 0.000000 
#    z 0.000000 0.000000 1.542880 
# 
# From -- ./inp_files/12977.got.cif
#   From: 2010.03.12/outbox.cif.g09.slc.cpg/sg63_7_cif.got.tgz:12977.got - 2010.04.10 19:34:48.
