data_PCOD8255453
_publ_section_title
;
Structure prediction by ZEFSAII (Michael W. Deem and Ramdas Pophale) SiO2 
 PCOD8255453
Probable space group: C M C M
;
_chemical_formula_sum "Si O2"
_cell_formula_units_Z 80
_cell_length_a 27.613938
_cell_length_b 14.053399
_cell_length_c 13.828936
_cell_angle_alpha 90.000000
_cell_angle_beta 90.000000
_cell_angle_gamma 90.000000
_cell_volume 5366.590888
_symmetry_space_group_name_H-M "C M C M"
_symmetry_group_IT_number 63
_symmetry_cell_setting 'orthorhombic'
loop_
_space_group_symop_operation_xyz
x,y,z
-x,-y,1/2+z
x,-y,-z
-x,y,1/2-z
-x,-y,-z
x,y,1/2-z
-x,y,z
x,-y,1/2+z
1/2+x,1/2+y,z
1/2-x,1/2-y,1/2+z
1/2+x,1/2-y,-z
1/2-x,1/2+y,1/2-z
1/2-x,1/2-y,-z
1/2+x,1/2+y,1/2-z
1/2-x,1/2+y,z
1/2+x,1/2-y,1/2+z
loop_
_atom_site_type_symbol
_atom_site_label
_atom_site_fract_x
_atom_site_fract_y
_atom_site_fract_z
Si Si1 0.711441 0.744382 0.860325
Si Si2 0.262384 0.394141 0.976805
Si Si3 0.885909 0.147589 0.857851
Si Si4 0.643283 0.565781 0.139278
Si Si5 0.946990 0.108796 0.471438
O O1 0.729536 0.734036 0.750000
O O2 0.724347 0.848470 0.901482
O O3 0.653565 0.730964 0.865886
O O4 0.738632 0.664499 0.923484
O O5 0.315713 0.390732 0.929310
O O6 0.244565 0.500000 0.000000
O O7 0.908457 0.143563 0.750000
O O8 0.859425 0.047107 0.881518
O O9 0.928619 0.166982 0.934277
O O10 0.656340 0.586976 0.250000
O O11 0.592130 0.617260 0.114793
O O12 0.000000 0.148469 0.439637
O O13 0.952568 0.000000 0.500000
#
# Coordination Sequence:
#
# PCOD8255453 Si02
#       5
#    16  16  16  16  16
#     4  10  20  30  45  66  87 116 152 186 220 266
#     4  11  19  31  46  64  90 119 152 184 222 264
#     4   9  16  28  42  59  85 115 148 183 217 258
#     4  10  17  27  42  59  84 119 152 180 218 256
#     4   9  16  26  38  57  83 114 152 185 217 256
#
# _framework density 14.907043
#
# number of rings (size 3 to 8) (size 9 to 14) (size 15 to 20)
#    0.000    2.200    4.000    1.200    0.000    1.600 
#    0.000    4.000    0.000    0.000    0.000    0.000 
#    0.000    0.800    0.000    0.000    1.600    0.000 
#
# Total GULP energy -495875.366565 kJ/mol
# GULP energy per Si atom -12396.884164 kJ/mol
# Density = 1.487311 g / cm^3
# Si number density = 14.907043 Si / 1000 Ang^3
#
#
#
# Elastic Constant Matrix: (Units=GPa)
#
#
# Indices 1 2 3 4 5 6 
#
# 1 77.3848 32.7922 37.7904 0.0000 0.0000 0.0000
# 2 32.7922 59.7424 36.0857 0.0000 0.0000 0.0000
# 3 37.7904 36.0857 99.4563 0.0000 0.0000 0.0000
# 4 0.0000 0.0000 0.0000 18.4519 0.0000 0.0000
# 5 0.0000 0.0000 0.0000 0.0000 20.3540 0.0000
# 6 0.0000 0.0000 0.0000 0.0000 0.0000 8.5069
#
#
#
# Elastic Compliance Matrix: (Units=1/GPa)
#
#
# Indices 1 2 3 4 5 6 
#
# 1 0.018109 -0.007407 -0.004193 0.000000 0.000000 0.000000
# 2 -0.007407 0.024466 -0.006063 0.000000 0.000000 0.000000
# 3 -0.004193 -0.006063 0.013848 0.000000 0.000000 0.000000
# 4 0.000000 0.000000 0.000000 0.054195 0.000000 0.000000
# 5 0.000000 0.000000 0.000000 0.000000 0.049130 0.000000
# 6 0.000000 0.000000 0.000000 0.000000 0.000000 0.117552
#
#
# Mechanical properties :
#
#
# Convention : Reuss Voigt Hill
#
# Bulk Modulus (GPa) = 47.40040 49.99109 48.69574
# Shear Modulus (GPa) = 15.64170 18.12358 16.88264
#
# Velocity S-wave (km/s) = 3.24278 3.49058 3.36896
# Velocity P-wave (km/s) = 6.77401 7.06070 6.91884
#
# Compressibility (1/GPa) = 0.02109687
#
# Stress axis : x y z
#
# Youngs Moduli (GPa) = 55.22117 40.87283 72.21404
#
# Poissons Ratio (x) = 0.30275 0.30282
# Poissons Ratio (y) = 0.40902 0.43780
# Poissons Ratio (z) = 0.23156 0.24780
#
# Static dielectric constant tensor:
#      x y z
#    x 2.953770 0.000000 0.000000 
#    y 0.000000 2.584710 0.000000 
#    z 0.000000 0.000000 3.088730 
# 
# 
# High freq. dielectric constant tensor:
#      x y z
#    x 1.554020 0.000000 0.000000 
#    y 0.000000 1.515680 0.000000 
#    z 0.000000 0.000000 1.591310 
# 
# From -- ./inp_files/25664.got.cif
#   From: 2010.03.12/outbox.cif.g09.slc.cpg/sg63_13_cif.got.tgz:25664.got - 2010.04.10 19:34:48.
