data_PCOD8255765
_publ_section_title
;
Structure prediction by ZEFSAII (Michael W. Deem and Ramdas Pophale) SiO2 
 PCOD8255765
Probable space group: C M C M
;
_chemical_formula_sum "Si O2"
_cell_formula_units_Z 128
_cell_length_a 24.730318
_cell_length_b 13.277031
_cell_length_c 23.440956
_cell_angle_alpha 90.000000
_cell_angle_beta 90.000000
_cell_angle_gamma 90.000000
_cell_volume 7696.725356
_symmetry_space_group_name_H-M "C M C M"
_symmetry_group_IT_number 63
_symmetry_cell_setting 'orthorhombic'
loop_
_space_group_symop_operation_xyz
x,y,z
-x,-y,1/2+z
x,-y,-z
-x,y,1/2-z
-x,-y,-z
x,y,1/2-z
-x,y,z
x,-y,1/2+z
1/2+x,1/2+y,z
1/2-x,1/2-y,1/2+z
1/2+x,1/2-y,-z
1/2-x,1/2+y,1/2-z
1/2-x,1/2-y,-z
1/2+x,1/2+y,1/2-z
1/2-x,1/2+y,z
1/2+x,1/2-y,1/2+z
loop_
_atom_site_type_symbol
_atom_site_label
_atom_site_fract_x
_atom_site_fract_y
_atom_site_fract_z
Si Si1 0.225020 0.210016 0.893724
Si Si2 0.678298 0.075684 0.922355
Si Si3 0.058829 0.865493 0.185110
Si Si4 0.255610 0.620586 0.185144
Si Si5 0.153199 0.358772 0.539608
Si Si6 0.641630 0.989383 0.686033
Si Si7 0.830588 0.941148 0.315588
Si Si8 0.062387 0.654361 0.126676
O O1 0.262618 0.125125 0.921408
O O2 0.262231 0.286708 0.857790
O O3 0.189969 0.263470 0.943054
O O4 0.184789 0.159108 0.849153
O O5 0.648089 0.080188 0.860422
O O6 0.684708 0.958222 0.938632
O O7 0.644828 0.135615 0.971144
O O8 0.061553 0.826394 0.250000
O O9 0.104493 0.951254 0.175250
O O10 0.068303 0.768644 0.146313
O O11 0.000000 0.913985 0.171793
O O12 0.269398 0.653107 0.250000
O O13 0.194934 0.579049 0.181478
O O14 0.298938 0.538819 0.162430
O O15 0.093454 0.354759 0.566514
O O16 0.635748 0.034392 0.750000
O O17 0.589651 0.920820 0.672423
O O18 0.814704 0.922802 0.250000
O O19 0.000000 0.622856 0.118576
#
# Coordination Sequence:
#
# PCOD8255765 Si02
#       8
#    16  16  16  16  16  16  16  16
#     4  12  17  30  48  70  94 135 162 203 240 293
#     4  10  21  33  48  67  98 130 167 198 241 293
#     4   9  16  26  43  69  98 125 156 196 242 291
#     4  10  19  29  45  71 104 133 162 198 243 296
#     4  10  20  35  46  70 100 130 163 204 244 289
#     4  10  18  32  46  65  96 128 155 196 245 292
#     4  10  18  28  44  71 102 130 160 197 243 296
#     4  10  18  30  49  72  95 125 161 197 243 298
#
# _framework density 16.630448999999999
#
# number of rings (size 3 to 8) (size 9 to 14) (size 15 to 20)
#    0.000    1.875    5.000    1.125    0.000    3.250 
#    0.000    5.000    0.000    0.000    0.000    4.375 
#    0.000    6.000    0.000    0.000    0.000    0.000 
#
# Total GULP energy -793247.990453 kJ/mol
# GULP energy per Si atom -12394.499851 kJ/mol
# Density = 1.659260 g / cm^3
# Si number density = 16.630449 Si / 1000 Ang^3
#
#
#
# Elastic Constant Matrix: (Units=GPa)
#
#
# Indices 1 2 3 4 5 6 
#
# 1 124.1551 42.2426 30.2876 0.0000 0.0000 0.0000
# 2 42.2426 44.9607 13.2503 0.0000 0.0000 0.0000
# 3 30.2876 13.2503 90.2710 0.0000 0.0000 0.0000
# 4 0.0000 0.0000 0.0000 15.6556 0.0000 0.0000
# 5 0.0000 0.0000 0.0000 0.0000 19.4341 0.0000
# 6 0.0000 0.0000 0.0000 0.0000 0.0000 22.8835
#
#
#
# Elastic Compliance Matrix: (Units=1/GPa)
#
#
# Indices 1 2 3 4 5 6 
#
# 1 0.012379 -0.010877 -0.002557 0.000000 0.000000 0.000000
# 2 -0.010877 0.032805 -0.001166 0.000000 0.000000 0.000000
# 3 -0.002557 -0.001166 0.012107 0.000000 0.000000 0.000000
# 4 0.000000 0.000000 0.000000 0.063875 0.000000 0.000000
# 5 0.000000 0.000000 0.000000 0.000000 0.051456 0.000000
# 6 0.000000 0.000000 0.000000 0.000000 0.000000 0.043700
#
#
# Mechanical properties :
#
#
# Convention : Reuss Voigt Hill
#
# Bulk Modulus (GPa) = 35.59838 47.88307 41.74072
# Shear Modulus (GPa) = 19.61679 23.16841 21.39260
#
# Velocity S-wave (km/s) = 3.43821 3.73652 3.59047
# Velocity P-wave (km/s) = 6.10031 6.88987 6.50708
#
# Compressibility (1/GPa) = 0.02809117
#
# Stress axis : x y z
#
# Youngs Moduli (GPa) = 80.78189 30.48344 82.59876
#
# Poissons Ratio (x) = 0.33157 0.21119
# Poissons Ratio (y) = 0.87867 0.09629
# Poissons Ratio (z) = 0.20654 0.03553
#
# Static dielectric constant tensor:
#      x y z
#    x 3.156680 0.000000 0.000000 
#    y 0.000000 2.895580 0.000000 
#    z 0.000000 0.000000 3.430720 
# 
# 
# High freq. dielectric constant tensor:
#      x y z
#    x 1.628420 0.000000 0.000000 
#    y 0.000000 1.610620 0.000000 
#    z 0.000000 0.000000 1.642890 
# 
# From -- ./inp_files/70800.got.cif
#   From: 2010.03.12/outbox.cif.g09.slc.cpg/sg63_36_cif.got.tgz:70800.got - 2010.04.10 19:34:48.
