data_PCOD8255457
_publ_section_title
;
Structure prediction by ZEFSAII (Michael W. Deem and Ramdas Pophale) SiO2 
 PCOD8255457
Probable space group: C M C M
;
_chemical_formula_sum "Si O2"
_cell_formula_units_Z 96
_cell_length_a 14.477465
_cell_length_b 36.142206
_cell_length_c 12.621150
_cell_angle_alpha 90.000000
_cell_angle_beta 90.000000
_cell_angle_gamma 90.000000
_cell_volume 6603.985467
_symmetry_space_group_name_H-M "C M C M"
_symmetry_group_IT_number 63
_symmetry_cell_setting 'orthorhombic'
loop_
_space_group_symop_operation_xyz
x,y,z
-x,-y,1/2+z
x,-y,-z
-x,y,1/2-z
-x,-y,-z
x,y,1/2-z
-x,y,z
x,-y,1/2+z
1/2+x,1/2+y,z
1/2-x,1/2-y,1/2+z
1/2+x,1/2-y,-z
1/2-x,1/2+y,1/2-z
1/2-x,1/2-y,-z
1/2+x,1/2+y,1/2-z
1/2-x,1/2+y,z
1/2+x,1/2-y,1/2+z
loop_
_atom_site_type_symbol
_atom_site_label
_atom_site_fract_x
_atom_site_fract_y
_atom_site_fract_z
Si Si1 0.610303 0.576729 0.250000
Si Si2 0.609952 0.338326 0.750000
Si Si3 0.891730 0.789156 0.554523
Si Si4 0.894975 0.898727 0.128765
Si Si5 0.601105 0.792010 0.373562
Si Si6 0.608829 0.460689 0.535610
Si Si7 0.711684 0.325609 0.372271
O O1 0.500000 0.577721 0.250000
O O2 0.646589 0.619259 0.250000
O O3 0.648696 0.554882 0.353162
O O4 0.500000 0.337371 0.750000
O O5 0.646898 0.316784 0.854219
O O6 0.867245 0.746884 0.578289
O O7 0.844236 0.796889 0.442740
O O8 0.000000 0.795281 0.542418
O O9 0.887627 0.911525 0.250000
O O10 0.823307 0.866547 0.101642
O O11 0.000000 0.885686 0.102390
O O12 0.864947 0.932874 0.057673
O O13 0.592467 0.785041 0.250000
O O14 0.500000 0.804658 0.417737
O O15 0.678770 0.822848 0.399023
O O16 0.652589 0.500000 0.500000
O O17 0.500000 0.465207 0.548767
O O18 0.692164 0.315435 0.250000
#
# Coordination Sequence:
#
# PCOD8255457 Si02
#       7
#     8   8  16  16  16  16  16
#     4   9  16  24  34  52  73  95 135 173 190 216
#     4   9  16  26  42  60  78 105 139 175 203 228
#     4  10  17  27  43  60  82 108 136 170 210 245
#     4   9  17  28  40  56  81 109 134 159 195 241
#     4   9  17  30  44  59  78 105 141 177 210 245
#     4   9  17  26  38  54  76 107 137 163 191 228
#     4  10  19  28  41  61  84 108 136 170 206 250
#
# _framework density 14.536676999999999
#
# number of rings (size 3 to 8) (size 9 to 14) (size 15 to 20)
#    0.000    2.667    0.833    2.000    1.167    3.667 
#    0.000    0.000    0.000    0.000    0.000    0.000 
#    0.000    0.667    0.000    0.000    0.000    0.000 
#
# Total GULP energy -594968.070440 kJ/mol
# GULP energy per Si atom -12395.168134 kJ/mol
# Density = 1.450359 g / cm^3
# Si number density = 14.536677 Si / 1000 Ang^3
#
#
#
# Elastic Constant Matrix: (Units=GPa)
#
#
# Indices 1 2 3 4 5 6 
#
# 1 47.7245 54.0340 35.0354 0.0000 0.0000 0.0000
# 2 54.0340 103.8754 50.4815 0.0000 0.0000 0.0000
# 3 35.0354 50.4815 69.2474 0.0000 0.0000 0.0000
# 4 0.0000 0.0000 0.0000 21.5568 0.0000 0.0000
# 5 0.0000 0.0000 0.0000 0.0000 11.8026 0.0000
# 6 0.0000 0.0000 0.0000 0.0000 0.0000 11.9479
#
#
#
# Elastic Compliance Matrix: (Units=1/GPa)
#
#
# Indices 1 2 3 4 5 6 
#
# 1 0.055883 -0.023739 -0.010968 0.000000 0.000000 0.000000
# 2 -0.023739 0.024993 -0.006209 0.000000 0.000000 0.000000
# 3 -0.010968 -0.006209 0.024517 0.000000 0.000000 0.000000
# 4 0.000000 0.000000 0.000000 0.046389 0.000000 0.000000
# 5 0.000000 0.000000 0.000000 0.000000 0.084727 0.000000
# 6 0.000000 0.000000 0.000000 0.000000 0.000000 0.083696
#
#
# Mechanical properties :
#
#
# Convention : Reuss Voigt Hill
#
# Bulk Modulus (GPa) = 42.44448 55.54990 48.99719
# Shear Modulus (GPa) = 12.19836 14.48123 13.33979
#
# Velocity S-wave (km/s) = 2.89994 3.15967 3.03258
# Velocity P-wave (km/s) = 6.36195 7.18386 6.78536
#
# Compressibility (1/GPa) = 0.02356019
#
# Stress axis : x y z
#
# Youngs Moduli (GPa) = 17.89458 40.01089 40.78833
#
# Poissons Ratio (x) = 0.94982 0.44736
# Poissons Ratio (y) = 0.42480 0.25327
# Poissons Ratio (z) = 0.19627 0.24845
#
# Static dielectric constant tensor:
#      x y z
#    x 2.638110 0.000000 0.000000 
#    y 0.000000 2.870090 0.000000 
#    z 0.000000 0.000000 2.957630 
# 
# 
# High freq. dielectric constant tensor:
#      x y z
#    x 1.502540 0.000000 0.000000 
#    y 0.000000 1.550300 0.000000 
#    z 0.000000 0.000000 1.565990 
# 
# From -- ./inp_files/19989.got.cif
#   From: 2010.03.12/outbox.cif.g09.slc.cpg/sg63_10_cif.got.tgz:19989.got - 2010.04.10 19:34:48.
