data_PCOD8255394
_publ_section_title
;
Structure prediction by ZEFSAII (Michael W. Deem and Ramdas Pophale) SiO2 
 PCOD8255394
Probable space group: C M C M
;
_chemical_formula_sum "Si O2"
_cell_formula_units_Z 128
_cell_length_a 19.054190
_cell_length_b 15.039636
_cell_length_c 23.176243
_cell_angle_alpha 90.000000
_cell_angle_beta 90.000000
_cell_angle_gamma 90.000000
_cell_volume 6641.571502
_symmetry_space_group_name_H-M "C M C M"
_symmetry_group_IT_number 63
_symmetry_cell_setting 'orthorhombic'
loop_
_space_group_symop_operation_xyz
x,y,z
-x,-y,1/2+z
x,-y,-z
-x,y,1/2-z
-x,-y,-z
x,y,1/2-z
-x,y,z
x,-y,1/2+z
1/2+x,1/2+y,z
1/2-x,1/2-y,1/2+z
1/2+x,1/2-y,-z
1/2-x,1/2+y,1/2-z
1/2-x,1/2-y,-z
1/2+x,1/2+y,1/2-z
1/2-x,1/2+y,z
1/2+x,1/2-y,1/2+z
loop_
_atom_site_type_symbol
_atom_site_label
_atom_site_fract_x
_atom_site_fract_y
_atom_site_fract_z
Si Si1 0.332807 0.709589 0.185649
Si Si2 0.417231 0.882899 0.317045
Si Si3 0.812620 0.438893 0.414619
Si Si4 0.577681 0.367984 0.113352
Si Si5 0.709985 0.281843 0.113740
Si Si6 0.788739 0.626026 0.466456
Si Si7 0.365518 0.398691 0.990790
Si Si8 0.577219 0.426802 0.629904
O O1 0.306064 0.712849 0.250000
O O2 0.393579 0.781447 0.173377
O O3 0.262079 0.722794 0.150510
O O4 0.364725 0.613777 0.171989
O O5 0.401419 0.911997 0.250000
O O6 0.500000 0.892661 0.330187
O O7 0.372537 0.938297 0.364596
O O8 0.745195 0.377835 0.399373
O O9 0.790341 0.541931 0.422171
O O10 0.836507 0.398217 0.477065
O O11 0.500000 0.331325 0.127203
O O12 0.636574 0.307884 0.145449
O O13 0.585517 0.468296 0.134080
O O14 0.591517 0.360612 0.044725
O O15 0.684805 0.218007 0.061201
O O16 0.708669 0.650447 0.483706
O O17 0.413453 0.388051 0.934421
O O18 0.344342 0.500000 0.000000
O O19 0.500000 0.398752 0.650982
#
# Coordination Sequence:
#
# PCOD8255394 Si02
#       8
#    16  16  16  16  16  16  16  16
#     4  10  21  36  57  84 108 140 195 251 295 344
#     4   9  19  37  58  80 112 151 189 237 295 348
#     4  10  20  34  55  85 113 147 198 241 289 348
#     4  10  21  34  52  83 119 153 187 224 279 360
#     4  11  21  35  58  77 117 154 193 235 296 348
#     4  11  19  33  55  83 114 154 192 241 292 335
#     4  10  16  30  52  79 114 149 185 226 278 340
#     4  10  19  32  53  82 117 149 181 232 296 348
#
# _framework density 19.272546999999999
#
# number of rings (size 3 to 8) (size 9 to 14) (size 15 to 20)
#    0.000    1.875    3.750    1.875    0.000    2.250 
#    0.000    5.000    0.000    1.125    0.000    0.000 
#    0.000    0.000    0.000    0.000    0.000    0.000 
#
# Total GULP energy -792929.653223 kJ/mol
# GULP energy per Si atom -12389.525832 kJ/mol
# Density = 1.922868 g / cm^3
# Si number density = 19.272547 Si / 1000 Ang^3
#
#
#
# Elastic Constant Matrix: (Units=GPa)
#
#
# Indices 1 2 3 4 5 6 
#
# 1 139.1906 50.6554 39.5794 0.0000 0.0000 0.0000
# 2 50.6554 61.5472 25.2509 0.0000 0.0000 0.0000
# 3 39.5794 25.2509 59.9931 0.0000 0.0000 0.0000
# 4 0.0000 0.0000 0.0000 18.3656 0.0000 0.0000
# 5 0.0000 0.0000 0.0000 0.0000 20.5436 0.0000
# 6 0.0000 0.0000 0.0000 0.0000 0.0000 28.1103
#
#
#
# Elastic Compliance Matrix: (Units=1/GPa)
#
#
# Indices 1 2 3 4 5 6 
#
# 1 0.011064 -0.007387 -0.004190 0.000000 0.000000 0.000000
# 2 -0.007387 0.024571 -0.005468 0.000000 0.000000 0.000000
# 3 -0.004190 -0.005468 0.021735 0.000000 0.000000 0.000000
# 4 0.000000 0.000000 0.000000 0.054450 0.000000 0.000000
# 5 0.000000 0.000000 0.000000 0.000000 0.048677 0.000000
# 6 0.000000 0.000000 0.000000 0.000000 0.000000 0.035574
#
#
# Mechanical properties :
#
#
# Convention : Reuss Voigt Hill
#
# Bulk Modulus (GPa) = 42.95805 54.63358 48.79582
# Shear Modulus (GPa) = 21.01532 23.08691 22.05111
#
# Velocity S-wave (km/s) = 3.30574 3.46485 3.38623
# Velocity P-wave (km/s) = 6.07526 6.66456 6.37672
#
# Compressibility (1/GPa) = 0.02327852
#
# Stress axis : x y z
#
# Youngs Moduli (GPa) = 90.38066 40.69832 46.00955
#
# Poissons Ratio (x) = 0.30065 0.19279
# Poissons Ratio (y) = 0.66766 0.25159
# Poissons Ratio (z) = 0.37872 0.22255
#
# Static dielectric constant tensor:
#      x y z
#    x 3.522210 0.000000 0.000000 
#    y 0.000000 3.406440 0.000000 
#    z 0.000000 0.000000 3.507740 
# 
# 
# High freq. dielectric constant tensor:
#      x y z
#    x 1.738320 0.000000 0.000000 
#    y 0.000000 1.739210 0.000000 
#    z 0.000000 0.000000 1.730800 
# 
# From -- ./inp_files/64054.got.cif
#   From: 2010.03.12/outbox.cif.g09.slc.cpg/sg63_33_cif.got.tgz:64054.got - 2010.04.10 19:34:48.
