data_PCOD8255769
_publ_section_title
;
Structure prediction by ZEFSAII (Michael W. Deem and Ramdas Pophale) SiO2 
 PCOD8255769
Probable space group: C M C M
;
_chemical_formula_sum "Si O2"
_cell_formula_units_Z 80
_cell_length_a 22.828636
_cell_length_b 12.359475
_cell_length_c 14.834931
_cell_angle_alpha 90.000000
_cell_angle_beta 90.000000
_cell_angle_gamma 90.000000
_cell_volume 4185.675128
_symmetry_space_group_name_H-M "C M C M"
_symmetry_group_IT_number 63
_symmetry_cell_setting 'orthorhombic'
loop_
_space_group_symop_operation_xyz
x,y,z
-x,-y,1/2+z
x,-y,-z
-x,y,1/2-z
-x,-y,-z
x,y,1/2-z
-x,y,z
x,-y,1/2+z
1/2+x,1/2+y,z
1/2-x,1/2-y,1/2+z
1/2+x,1/2-y,-z
1/2-x,1/2+y,1/2-z
1/2-x,1/2-y,-z
1/2+x,1/2+y,1/2-z
1/2-x,1/2+y,z
1/2+x,1/2-y,1/2+z
loop_
_atom_site_type_symbol
_atom_site_label
_atom_site_fract_x
_atom_site_fract_y
_atom_site_fract_z
Si Si1 0.750969 0.052080 0.351352
Si Si2 0.337987 0.369715 0.349566
Si Si3 0.066940 0.969598 0.603262
Si Si4 0.355238 0.277053 0.850070
Si Si5 0.689705 0.192217 0.480663
O O1 0.724954 0.040403 0.250000
O O2 0.798671 0.146791 0.351321
O O3 0.700432 0.080613 0.425022
O O4 0.781583 0.940326 0.382393
O O5 0.324603 0.323089 0.250000
O O6 0.394895 0.445356 0.340402
O O7 0.348787 0.271751 0.417429
O O8 0.088108 0.847581 0.622980
O O9 0.000000 0.979264 0.634329
O O10 0.075897 0.000000 0.500000
O O11 0.363724 0.226466 0.750000
O O12 0.345522 0.180453 0.924079
O O13 0.750000 0.250000 0.500000
#
# Coordination Sequence:
#
# PCOD8255769 Si02
#       5
#    16  16  16  16  16
#     4   8  16  28  43  63  85 112 147 187 223 265
#     4  10  19  31  47  67  91 120 157 188 224 269
#     4  10  18  29  45  63  88 121 156 186 221 267
#     4   9  17  28  40  57  82 112 149 183 215 255
#     4  10  18  28  45  60  85 118 154 186 227 263
#
# _framework density 19.112807
#
# number of rings (size 3 to 8) (size 9 to 14) (size 15 to 20)
#    0.000    2.600    2.000    2.400    0.000    2.400 
#    0.000    0.000    0.000    1.200    0.000    0.000 
#    0.000    0.000    0.000   64.800    0.000  302.800 
#
# Total GULP energy -495662.558116 kJ/mol
# GULP energy per Si atom -12391.563953 kJ/mol
# Density = 1.906931 g / cm^3
# Si number density = 19.112807 Si / 1000 Ang^3
#
#
#
# Elastic Constant Matrix: (Units=GPa)
#
#
# Indices 1 2 3 4 5 6 
#
# 1 60.9367 20.6064 36.4893 0.0000 0.0000 0.0000
# 2 20.6064 26.7973 39.0745 0.0000 0.0000 0.0000
# 3 36.4893 39.0745 151.1024 0.0000 0.0000 0.0000
# 4 0.0000 0.0000 0.0000 16.5391 0.0000 0.0000
# 5 0.0000 0.0000 0.0000 0.0000 15.1964 0.0000
# 6 0.0000 0.0000 0.0000 0.0000 0.0000 15.6650
#
#
#
# Elastic Compliance Matrix: (Units=1/GPa)
#
#
# Indices 1 2 3 4 5 6 
#
# 1 0.022396 -0.014987 -0.001533 0.000000 0.000000 0.000000
# 2 -0.014987 0.069935 -0.014466 0.000000 0.000000 0.000000
# 3 -0.001533 -0.014466 0.010729 0.000000 0.000000 0.000000
# 4 0.000000 0.000000 0.000000 0.060463 0.000000 0.000000
# 5 0.000000 0.000000 0.000000 0.000000 0.065805 0.000000
# 6 0.000000 0.000000 0.000000 0.000000 0.000000 0.063837
#
#
# Mechanical properties :
#
#
# Convention : Reuss Voigt Hill
#
# Bulk Modulus (GPa) = 24.33736 47.90851 36.12294
# Shear Modulus (GPa) = 13.55628 18.99118 16.27373
#
# Velocity S-wave (km/s) = 2.66612 3.15562 2.92114
# Velocity P-wave (km/s) = 4.71580 6.19660 5.50621
#
# Compressibility (1/GPa) = 0.04108908
#
# Stress axis : x y z
#
# Youngs Moduli (GPa) = 44.65001 14.29897 93.20563
#
# Poissons Ratio (x) = 0.21430 0.14287
# Poissons Ratio (y) = 0.66918 1.34829
# Poissons Ratio (z) = 0.06844 0.20685
#
# Static dielectric constant tensor:
#      x y z
#    x 3.207870 0.000000 0.000000 
#    y 0.000000 3.287110 0.000000 
#    z 0.000000 0.000000 4.201580 
# 
# 
# High freq. dielectric constant tensor:
#      x y z
#    x 1.683570 0.000000 0.000000 
#    y 0.000000 1.696930 0.000000 
#    z 0.000000 0.000000 1.778100 
# 
# From -- ./inp_files/35092.got.cif
#   From: 2010.03.12/outbox.cif.g09.slc.cpg/sg63_18_cif.got.tgz:35092.got - 2010.04.10 19:34:48.
