data_PCOD8255371
_publ_section_title
;
Structure prediction by ZEFSAII (Michael W. Deem and Ramdas Pophale) SiO2 
 PCOD8255371
Probable space group: C M C M
;
_chemical_formula_sum "Si O2"
_cell_formula_units_Z 88
_cell_length_a 9.725327
_cell_length_b 20.056986
_cell_length_c 24.802047
_cell_angle_alpha 90.000000
_cell_angle_beta 90.000000
_cell_angle_gamma 90.000000
_cell_volume 4837.905827
_symmetry_space_group_name_H-M "C M C M"
_symmetry_group_IT_number 63
_symmetry_cell_setting 'orthorhombic'
loop_
_space_group_symop_operation_xyz
x,y,z
-x,-y,1/2+z
x,-y,-z
-x,y,1/2-z
-x,-y,-z
x,y,1/2-z
-x,y,z
x,-y,1/2+z
1/2+x,1/2+y,z
1/2-x,1/2-y,1/2+z
1/2+x,1/2-y,-z
1/2-x,1/2+y,1/2-z
1/2-x,1/2-y,-z
1/2+x,1/2+y,1/2-z
1/2-x,1/2+y,z
1/2+x,1/2-y,1/2+z
loop_
_atom_site_type_symbol
_atom_site_label
_atom_site_fract_x
_atom_site_fract_y
_atom_site_fract_z
Si Si1 0.257343 0.000000 0.500000
Si Si2 0.841496 0.689563 0.873744
Si Si3 0.655137 0.474914 0.614235
Si Si4 0.339754 0.332238 0.589431
Si Si5 0.653649 0.145047 0.992193
Si Si6 0.339421 0.408890 0.312473
O O1 0.161712 0.000130 0.552775
O O2 0.351924 0.934707 0.499348
O O3 0.818811 0.769458 0.871282
O O4 0.796785 0.663121 0.932333
O O5 0.744334 0.657111 0.828817
O O6 0.000000 0.671382 0.861549
O O7 0.500000 0.471172 0.634061
O O8 0.717020 0.399652 0.618688
O O9 0.725745 0.528232 0.654492
O O10 0.500000 0.341215 0.573702
O O11 0.257700 0.320335 0.533894
O O12 0.500000 0.173098 0.002132
O O13 0.316230 0.423672 0.250000
O O14 0.500000 0.396986 0.326015
#
# Coordination Sequence:
#
# PCOD8255371 Si02
#       6
#     8  16  16  16  16  16
#     4  10  16  28  48  74 107 140 169 212 257 312
#     4  10  20  35  52  75 106 138 173 213 256 307
#     4   9  17  31  51  77 103 132 171 213 259 309
#     4   9  19  33  51  75 106 138 171 209 253 311
#     4  10  19  29  46  75 110 142 170 207 255 310
#     4  10  21  37  56  76  99 131 174 220 260 304
#
# _framework density 18.189689000000001
#
# number of rings (size 3 to 8) (size 9 to 14) (size 15 to 20)
#    0.000    2.364    1.818    1.091    0.000    2.545 
#    0.000    0.909    0.000    3.273    0.000    0.000 
#    0.000    0.000    0.000    0.000    0.000    0.000 
#
# Total GULP energy -545438.272630 kJ/mol
# GULP energy per Si atom -12396.324378 kJ/mol
# Density = 1.814829 g / cm^3
# Si number density = 18.189689 Si / 1000 Ang^3
#
#
#
# Elastic Constant Matrix: (Units=GPa)
#
#
# Indices 1 2 3 4 5 6 
#
# 1 52.9587 30.8357 31.2589 0.0000 0.0000 0.0000
# 2 30.8357 107.1406 56.2569 0.0000 0.0000 0.0000
# 3 31.2589 56.2569 92.8175 0.0000 0.0000 0.0000
# 4 0.0000 0.0000 0.0000 24.4978 0.0000 0.0000
# 5 0.0000 0.0000 0.0000 0.0000 25.0703 0.0000
# 6 0.0000 0.0000 0.0000 0.0000 0.0000 23.3513
#
#
#
# Elastic Compliance Matrix: (Units=1/GPa)
#
#
# Indices 1 2 3 4 5 6 
#
# 1 0.024694 -0.004020 -0.005880 0.000000 0.000000 0.000000
# 2 -0.004020 0.014345 -0.007341 0.000000 0.000000 0.000000
# 3 -0.005880 -0.007341 0.017203 0.000000 0.000000 0.000000
# 4 0.000000 0.000000 0.000000 0.040820 0.000000 0.000000
# 5 0.000000 0.000000 0.000000 0.000000 0.039888 0.000000
# 6 0.000000 0.000000 0.000000 0.000000 0.000000 0.042824
#
#
# Mechanical properties :
#
#
# Convention : Reuss Voigt Hill
#
# Bulk Modulus (GPa) = 45.95324 54.40221 50.17773
# Shear Modulus (GPa) = 22.57253 23.55492 23.06372
#
# Velocity S-wave (km/s) = 3.52654 3.60246 3.56470
# Velocity P-wave (km/s) = 6.47303 6.87581 6.67746
#
# Compressibility (1/GPa) = 0.02176125
#
# Stress axis : x y z
#
# Youngs Moduli (GPa) = 40.49604 69.71161 58.12826
#
# Poissons Ratio (x) = 0.28021 0.34180
# Poissons Ratio (y) = 0.16278 0.42670
# Poissons Ratio (z) = 0.23812 0.51173
#
# Static dielectric constant tensor:
#      x y z
#    x 3.129540 0.000000 0.000000 
#    y 0.000000 3.645200 0.000000 
#    z 0.000000 0.000000 3.094580 
# 
# 
# High freq. dielectric constant tensor:
#      x y z
#    x 1.685540 0.000000 0.000000 
#    y 0.000000 1.720440 0.000000 
#    z 0.000000 0.000000 1.674100 
# 
# From -- ./inp_files/59653.got.cif
#   From: 2010.03.12/outbox.cif.g09.slc.cpg/sg63_30_cif.got.tgz:59653.got - 2010.04.10 19:34:48.
