data_PCOD8255053
_publ_section_title
;
Structure prediction by ZEFSAII (Michael W. Deem and Ramdas Pophale) SiO2 
 PCOD8255053
Probable space group: P N M A
;
_chemical_formula_sum "Si O2"
_cell_formula_units_Z 40
_cell_length_a 9.903947
_cell_length_b 14.935610
_cell_length_c 12.835730
_cell_angle_alpha 90.000000
_cell_angle_beta 90.000000
_cell_angle_gamma 90.000000
_cell_volume 1898.680305
_symmetry_space_group_name_H-M "P N M A"
_symmetry_group_IT_number 62
_symmetry_cell_setting 'orthorhombic'
loop_
_space_group_symop_operation_xyz
x,y,z
1/2-x,-y,1/2+z
1/2+x,1/2-y,1/2-z
-x,1/2+y,-z
-x,-y,-z
1/2+x,y,1/2-z
1/2-x,1/2+y,1/2+z
x,1/2-y,z
loop_
_atom_site_type_symbol
_atom_site_label
_atom_site_fract_x
_atom_site_fract_y
_atom_site_fract_z
Si Si1 0.517858 0.849573 0.328311
Si Si2 0.716995 0.116682 0.524265
Si Si3 0.721410 0.587606 0.493439
Si Si4 0.146256 0.250000 0.152131
Si Si5 0.662526 0.750000 0.647890
Si Si6 0.988801 0.852239 0.400760
O O1 0.576750 0.750000 0.313655
O O2 0.373392 0.842125 0.384301
O O3 0.627727 0.904118 0.392509
O O4 0.502177 0.894493 0.214751
O O5 0.672694 0.159744 0.414316
O O6 0.871545 0.142853 0.538574
O O7 0.692717 0.011195 0.534549
O O8 0.685560 0.661240 0.579601
O O9 0.878400 0.591923 0.463872
O O10 0.238024 0.250000 0.254418
O O11 0.990792 0.250000 0.188880
O O12 0.937706 0.750000 0.393874
#
# Coordination Sequence:
#
# PCOD8255053 Si02
#       6
#     8   8   8   4   4   8
#     4  11  21  42  70  97 128 170 220 278 346 394
#     4  12  24  45  68  98 138 178 224 280 338 408
#     4  12  24  45  68  98 138 178 224 280 338 408
#     4  12  28  48  71  99 140 188 227 277 341 408
#     4  12  28  48  71  99 140 188 227 277 341 408
#     4  11  23  40  72  99 130 168 222 288 340 398
#
# _framework density 21.067264999999999
#
# number of rings (size 3 to 8) (size 9 to 14) (size 15 to 20)
#    0.000    0.400    6.000    2.400    2.800    6.400 
#    0.000    0.000    0.000    0.000    0.000    0.000 
#    0.000    0.000    0.000    0.000    0.000    0.000 
#
# Total GULP energy -496171.066210 kJ/mol
# GULP energy per Si atom -12404.276655 kJ/mol
# Density = 2.101932 g / cm^3
# Si number density = 21.067265 Si / 1000 Ang^3
#
#
#
# Elastic Constant Matrix: (Units=GPa)
#
#
# Indices 1 2 3 4 5 6 
#
# 1 154.5073 8.1112 42.8333 0.0000 0.0000 0.0000
# 2 8.1112 121.8966 34.0496 0.0000 0.0000 0.0000
# 3 42.8333 34.0496 105.5188 0.0000 0.0000 0.0000
# 4 0.0000 0.0000 0.0000 -0.6722 0.0000 0.0000
# 5 0.0000 0.0000 0.0000 0.0000 40.2357 0.0000
# 6 0.0000 0.0000 0.0000 0.0000 0.0000 12.4195
#
#
#
# Elastic Compliance Matrix: (Units=1/GPa)
#
#
# Indices 1 2 3 4 5 6 
#
# 1 0.007309 0.000376 -0.003088 0.000000 0.000000 0.000000
# 2 0.000376 0.009036 -0.003068 0.000000 0.000000 0.000000
# 3 -0.003088 -0.003068 0.011721 0.000000 0.000000 0.000000
# 4 0.000000 0.000000 0.000000 -1.487657 0.000000 0.000000
# 5 0.000000 0.000000 0.000000 0.000000 0.024854 0.000000
# 6 0.000000 0.000000 0.000000 0.000000 0.000000 0.080519
#
#
# Mechanical properties :
#
#
# Convention : Reuss Voigt Hill
#
# Bulk Modulus (GPa) = 60.59021 61.32343 60.95682
# Shear Modulus (GPa) = -3.73928 30.19185 13.22629
#
# Velocity S-wave (km/s) = -1.33371 3.78976 2.50834
# Velocity P-wave (km/s) = 5.14306 6.95135 6.11442
#
# Compressibility (1/GPa) = 0.01650432
#
# Stress axis : x y z
#
# Youngs Moduli (GPa) = 136.82595 110.67145 85.31892
#
# Poissons Ratio (x) = -0.04165 0.26348
# Poissons Ratio (y) = -0.05149 0.26180
# Poissons Ratio (z) = 0.42255 0.33959
#
# Static dielectric constant tensor:
#      x y z
#    x 3.928340 0.000000 0.000000 
#    y 0.000000 4.211980 0.000000 
#    z 0.000000 0.000000 3.832160 
# 
# 
# High freq. dielectric constant tensor:
#      x y z
#    x 1.845800 0.000000 0.000000 
#    y 0.000000 1.822300 0.000000 
#    z 0.000000 0.000000 1.821220 
# 
# From -- ./inp_files/11105.got.cif
#   From: 2010.03.12/outbox.cif.g09.slc.cpg/sg62_6_cif.got.tgz:11105.got - 2010.04.10 19:12:36.
