data_PCOD8255965
_publ_section_title
;
Structure prediction by ZEFSAII (Michael W. Deem and Ramdas Pophale) SiO2 
 PCOD8255965
Probable space group: C M C M
;
_chemical_formula_sum "Si O2"
_cell_formula_units_Z 96
_cell_length_a 26.042400
_cell_length_b 10.524976
_cell_length_c 21.935030
_cell_angle_alpha 90.000000
_cell_angle_beta 90.000000
_cell_angle_gamma 90.000000
_cell_volume 6012.295976
_symmetry_space_group_name_H-M "C M C M"
_symmetry_group_IT_number 63
_symmetry_cell_setting 'orthorhombic'
loop_
_space_group_symop_operation_xyz
x,y,z
-x,-y,1/2+z
x,-y,-z
-x,y,1/2-z
-x,-y,-z
x,y,1/2-z
-x,y,z
x,-y,1/2+z
1/2+x,1/2+y,z
1/2-x,1/2-y,1/2+z
1/2+x,1/2-y,-z
1/2-x,1/2+y,1/2-z
1/2-x,1/2-y,-z
1/2+x,1/2+y,1/2-z
1/2-x,1/2+y,z
1/2+x,1/2-y,1/2+z
loop_
_atom_site_type_symbol
_atom_site_label
_atom_site_fract_x
_atom_site_fract_y
_atom_site_fract_z
Si Si1 0.442397 0.776649 0.750000
Si Si2 0.941351 0.973064 0.750000
Si Si3 0.812155 0.628163 0.463644
Si Si4 0.788567 0.277842 0.750000
Si Si5 0.719006 0.512633 0.750000
Si Si6 0.630840 0.231310 0.353847
Si Si7 0.864592 0.984637 0.850717
Si Si8 0.195028 0.122029 0.041992
O O1 0.500000 0.827958 0.750000
O O2 0.438006 0.624892 0.750000
O O3 0.416026 0.825297 0.812946
O O4 0.912027 0.925349 0.811356
O O5 0.000000 0.923349 0.750000
O O6 0.824709 0.500000 0.500000
O O7 0.855258 0.641563 0.410946
O O8 0.817693 0.747791 0.508153
O O9 0.754491 0.624482 0.435223
O O10 0.762284 0.410549 0.750000
O O11 0.820699 0.265534 0.810664
O O12 0.752769 0.151201 0.750000
O O13 0.684860 0.498703 0.690801
O O14 0.619546 0.375850 0.376595
O O15 0.846874 0.889391 0.904023
O O16 0.187636 0.000000 0.000000
#
# Coordination Sequence:
#
# PCOD8255965 Si02
#       8
#     8   8  16   8   8  16  16  16
#     4   8  15  28  51  75  89 114 153 199 247 281
#     4   8  15  28  49  75  95 112 147 203 251 283
#     4  10  20  30  44  68  97 130 163 192 217 264
#     4   9  17  28  43  63  91 122 146 188 232 270
#     4   9  17  28  41  63  93 120 150 186 230 274
#     4   9  16  29  46  66  94 119 152 194 233 274
#     4   9  16  28  47  66  90 125 154 186 236 283
#     4  10  18  30  46  64  95 133 162 182 220 274
#
# _framework density 15.967278
#
# number of rings (size 3 to 8) (size 9 to 14) (size 15 to 20)
#    0.000    2.833    1.667    3.000    0.000    0.000 
#    3.000    0.000    0.000    2.000    0.000    1.167 
#    0.000    0.000    0.000    0.000    0.000    0.000 
#
# Total GULP energy -594635.657927 kJ/mol
# GULP energy per Si atom -12388.242873 kJ/mol
# Density = 1.593094 g / cm^3
# Si number density = 15.967278 Si / 1000 Ang^3
#
#
#
# Elastic Constant Matrix: (Units=GPa)
#
#
# Indices 1 2 3 4 5 6 
#
# 1 93.5563 34.1539 55.3853 0.0000 0.0000 0.0000
# 2 34.1539 87.4570 39.1507 0.0000 0.0000 0.0000
# 3 55.3853 39.1507 98.5179 0.0000 0.0000 0.0000
# 4 0.0000 0.0000 0.0000 32.4691 0.0000 0.0000
# 5 0.0000 0.0000 0.0000 0.0000 13.2768 0.0000
# 6 0.0000 0.0000 0.0000 0.0000 0.0000 13.2751
#
#
#
# Elastic Compliance Matrix: (Units=1/GPa)
#
#
# Indices 1 2 3 4 5 6 
#
# 1 0.016565 -0.002798 -0.008201 0.000000 0.000000 0.000000
# 2 -0.002798 0.014381 -0.004142 0.000000 0.000000 0.000000
# 3 -0.008201 -0.004142 0.016407 0.000000 0.000000 0.000000
# 4 0.000000 0.000000 0.000000 0.030798 0.000000 0.000000
# 5 0.000000 0.000000 0.000000 0.000000 0.075319 0.000000
# 6 0.000000 0.000000 0.000000 0.000000 0.000000 0.075329
#
#
# Mechanical properties :
#
#
# Convention : Reuss Voigt Hill
#
# Bulk Modulus (GPa) = 58.57712 59.65679 59.11695
# Shear Modulus (GPa) = 18.88422 21.86030 20.37226
#
# Velocity S-wave (km/s) = 3.44275 3.70411 3.57581
# Velocity P-wave (km/s) = 7.25043 7.46571 7.35886
#
# Compressibility (1/GPa) = 0.01707151
#
# Stress axis : x y z
#
# Youngs Moduli (GPa) = 60.36833 69.53601 60.95035
#
# Poissons Ratio (x) = 0.19455 0.49984
# Poissons Ratio (y) = 0.16890 0.25246
# Poissons Ratio (z) = 0.49506 0.28802
#
# Static dielectric constant tensor:
#      x y z
#    x 2.936450 0.000000 0.000000 
#    y 0.000000 3.117840 0.000000 
#    z 0.000000 0.000000 3.046600 
# 
# 
# High freq. dielectric constant tensor:
#      x y z
#    x 1.580810 0.000000 0.000000 
#    y 0.000000 1.592310 0.000000 
#    z 0.000000 0.000000 1.614900 
# 
# From -- ./inp_files/58296.got.cif
#   From: 2010.03.12/outbox.cif.g09.slc.cpg/sg63_30_cif.got.tgz:58296.got - 2010.04.10 19:34:48.
