data_PCOD8255964
_publ_section_title
;
Structure prediction by ZEFSAII (Michael W. Deem and Ramdas Pophale) SiO2 
 PCOD8255964
Probable space group: C M C M
;
_chemical_formula_sum "Si O2"
_cell_formula_units_Z 88
_cell_length_a 17.923188
_cell_length_b 28.674713
_cell_length_c 9.526941
_cell_angle_alpha 90.000000
_cell_angle_beta 90.000000
_cell_angle_gamma 90.000000
_cell_volume 4896.297702
_symmetry_space_group_name_H-M "C M C M"
_symmetry_group_IT_number 63
_symmetry_cell_setting 'orthorhombic'
loop_
_space_group_symop_operation_xyz
x,y,z
-x,-y,1/2+z
x,-y,-z
-x,y,1/2-z
-x,-y,-z
x,y,1/2-z
-x,y,z
x,-y,1/2+z
1/2+x,1/2+y,z
1/2-x,1/2-y,1/2+z
1/2+x,1/2-y,-z
1/2-x,1/2+y,1/2-z
1/2-x,1/2-y,-z
1/2+x,1/2+y,1/2-z
1/2-x,1/2+y,z
1/2+x,1/2-y,1/2+z
loop_
_atom_site_type_symbol
_atom_site_label
_atom_site_fract_x
_atom_site_fract_y
_atom_site_fract_z
Si Si1 0.082631 0.893433 0.083090
Si Si2 0.500000 0.952534 0.082694
Si Si3 0.411532 0.291015 0.094393
Si Si4 0.088032 0.705684 0.588015
Si Si5 0.279329 0.453002 0.416281
Si Si6 0.639126 0.107322 0.584654
O O1 0.079602 0.890958 0.250000
O O2 0.109030 0.842075 0.031150
O O3 0.140894 0.932688 0.033967
O O4 0.000000 0.906120 0.023951
O O5 0.500000 0.961204 0.250000
O O6 0.427613 0.924800 0.029174
O O7 0.500000 0.000000 0.000000
O O8 0.376856 0.284539 0.250000
O O9 0.500000 0.287650 0.103546
O O10 0.380202 0.250415 0.994795
O O11 0.106856 0.714334 0.750000
O O12 0.130428 0.660044 0.526738
O O13 0.000000 0.698196 0.565820
O O14 0.263195 0.500000 0.500000
O O15 0.276790 0.463204 0.250000
O O16 0.217678 0.414924 0.460391
O O17 0.631125 0.110670 0.750000
#
# Coordination Sequence:
#
# PCOD8255964 Si02
#       6
#    16   8  16  16  16  16
#     4   8  15  30  51  71  92 121 154 184 224 283
#     4  10  18  30  46  64  88 120 158 196 229 266
#     4   8  14  26  45  68  92 118 149 186 226 268
#     4   9  15  26  45  67  91 122 156 186 219 266
#     4  10  20  34  51  69  91 121 155 192 234 276
#     4   9  17  30  47  66  91 124 157 187 226 275
#
# _framework density 17.972764000000002
#
# number of rings (size 3 to 8) (size 9 to 14) (size 15 to 20)
#    0.000    3.091    0.909    1.636    0.000    0.364 
#    0.000    3.636    0.000    1.091    0.000    0.000 
#    0.000    0.000    0.000    0.000    0.000    0.000 
#
# Total GULP energy -545344.923591 kJ/mol
# GULP energy per Si atom -12394.202809 kJ/mol
# Density = 1.793186 g / cm^3
# Si number density = 17.972764 Si / 1000 Ang^3
#
#
#
# Elastic Constant Matrix: (Units=GPa)
#
#
# Indices 1 2 3 4 5 6 
#
# 1 75.2027 24.3512 14.8700 0.0000 0.0000 0.0000
# 2 24.3512 81.3589 28.2788 0.0000 0.0000 0.0000
# 3 14.8700 28.2788 36.9845 0.0000 0.0000 0.0000
# 4 0.0000 0.0000 0.0000 26.1108 0.0000 0.0000
# 5 0.0000 0.0000 0.0000 0.0000 9.5961 0.0000
# 6 0.0000 0.0000 0.0000 0.0000 0.0000 24.7045
#
#
#
# Elastic Compliance Matrix: (Units=1/GPa)
#
#
# Indices 1 2 3 4 5 6 
#
# 1 0.015060 -0.003273 -0.003553 0.000000 0.000000 0.000000
# 2 -0.003273 0.017451 -0.012028 0.000000 0.000000 0.000000
# 3 -0.003553 -0.012028 0.037663 0.000000 0.000000 0.000000
# 4 0.000000 0.000000 0.000000 0.038298 0.000000 0.000000
# 5 0.000000 0.000000 0.000000 0.000000 0.104209 0.000000
# 6 0.000000 0.000000 0.000000 0.000000 0.000000 0.040479
#
#
# Mechanical properties :
#
#
# Convention : Reuss Voigt Hill
#
# Bulk Modulus (GPa) = 30.79923 36.50512 33.65218
# Shear Modulus (GPa) = 16.57337 20.48534 18.52935
#
# Velocity S-wave (km/s) = 3.03997 3.37975 3.21435
# Velocity P-wave (km/s) = 5.43099 5.96538 5.70445
#
# Compressibility (1/GPa) = 0.03246835
#
# Stress axis : x y z
#
# Youngs Moduli (GPa) = 66.40305 57.30215 26.55104
#
# Poissons Ratio (x) = 0.18753 0.09432
# Poissons Ratio (y) = 0.21731 0.31935
# Poissons Ratio (z) = 0.23590 0.68922
#
# Static dielectric constant tensor:
#      x y z
#    x 3.484060 0.000000 0.000000 
#    y 0.000000 3.568990 0.000000 
#    z 0.000000 0.000000 2.795860 
# 
# 
# High freq. dielectric constant tensor:
#      x y z
#    x 1.679990 0.000000 0.000000 
#    y 0.000000 1.708600 0.000000 
#    z 0.000000 0.000000 1.648830 
# 
# From -- ./inp_files/6812.got.cif
#   From: 2010.03.12/outbox.cif.g09.slc.cpg/sg63_4_cif.got.tgz:6812.got - 2010.04.10 19:34:48.
