data_PCOD8255031
_publ_section_title
;
Structure prediction by ZEFSAII (Michael W. Deem and Ramdas Pophale) SiO2 
 PCOD8255031
Probable space group: P N M A
;
_chemical_formula_sum "Si O2"
_cell_formula_units_Z 48
_cell_length_a 15.101347
_cell_length_b 13.700390
_cell_length_c 11.448124
_cell_angle_alpha 90.000000
_cell_angle_beta 90.000000
_cell_angle_gamma 90.000000
_cell_volume 2368.552098
_symmetry_space_group_name_H-M "P N M A"
_symmetry_group_IT_number 62
_symmetry_cell_setting 'orthorhombic'
loop_
_space_group_symop_operation_xyz
x,y,z
1/2-x,-y,1/2+z
1/2+x,1/2-y,1/2-z
-x,1/2+y,-z
-x,-y,-z
1/2+x,y,1/2-z
1/2-x,1/2+y,1/2+z
x,1/2-y,z
loop_
_atom_site_type_symbol
_atom_site_label
_atom_site_fract_x
_atom_site_fract_y
_atom_site_fract_z
Si Si1 0.681442 0.449898 0.376562
Si Si2 0.361658 0.362455 0.165541
Si Si3 0.389140 0.637595 0.390445
Si Si4 0.586177 0.640498 0.096780
Si Si5 0.003373 0.500086 0.235378
Si Si6 0.738170 0.856674 0.284581
O O1 0.758574 0.388234 0.312832
O O2 0.667030 0.409086 0.505346
O O3 0.591852 0.441628 0.300674
O O4 0.714583 0.562730 0.381849
O O5 0.376731 0.250000 0.194938
O O6 0.424414 0.423073 0.251668
O O7 0.387487 0.388762 0.033445
O O8 0.411521 0.750000 0.420451
O O9 0.479232 0.576424 0.369082
O O10 0.335625 0.628283 0.268947
O O11 0.545040 0.750000 0.100355
O O12 0.516259 0.561834 0.145430
O O13 0.673372 0.635963 0.174800
O O14 0.730967 0.750000 0.344510
#
# Coordination Sequence:
#
# PCOD8255031 Si02
#       6
#     8   8   8   8   8   8
#     4  11  22  39  62  87 123 160 205 242 307 359
#     4  11  22  38  60  86 121 165 207 247 302 362
#     4  11  21  38  63  88 116 159 202 244 301 363
#     4   9  18  36  61  86 112 151 201 249 296 356
#     4  11  23  38  59  93 121 156 197 260 300 353
#     4   9  18  35  61  86 113 151 201 247 292 349
#
# _framework density 20.265544999999999
#
# number of rings (size 3 to 8) (size 9 to 14) (size 15 to 20)
#    0.000    1.667    3.333    2.000    0.000    2.000 
#    0.000    0.833    0.000    0.000    0.000    0.000 
#    0.000    0.000    0.000    0.000    0.000    0.000 
#
# Total GULP energy -595180.097284 kJ/mol
# GULP energy per Si atom -12399.585360 kJ/mol
# Density = 2.021942 g / cm^3
# Si number density = 20.265545 Si / 1000 Ang^3
#
#
#
# Elastic Constant Matrix: (Units=GPa)
#
#
# Indices 1 2 3 4 5 6 
#
# 1 114.1544 54.2996 30.1546 0.0000 0.0000 0.0000
# 2 54.2996 138.1344 50.8698 0.0000 0.0000 0.0000
# 3 30.1546 50.8698 49.5214 0.0000 0.0000 0.0000
# 4 0.0000 0.0000 0.0000 31.7647 0.0000 0.0000
# 5 0.0000 0.0000 0.0000 0.0000 25.8144 0.0000
# 6 0.0000 0.0000 0.0000 0.0000 0.0000 27.5140
#
#
#
# Elastic Compliance Matrix: (Units=1/GPa)
#
#
# Indices 1 2 3 4 5 6 
#
# 1 0.011178 -0.003036 -0.003688 0.000000 0.000000 0.000000
# 2 -0.003036 0.012469 -0.010960 0.000000 0.000000 0.000000
# 3 -0.003688 -0.010960 0.033697 0.000000 0.000000 0.000000
# 4 0.000000 0.000000 0.000000 0.031481 0.000000 0.000000
# 5 0.000000 0.000000 0.000000 0.000000 0.038738 0.000000
# 6 0.000000 0.000000 0.000000 0.000000 0.000000 0.036345
#
#
# Mechanical properties :
#
#
# Convention : Reuss Voigt Hill
#
# Bulk Modulus (GPa) = 45.50241 63.60646 54.55443
# Shear Modulus (GPa) = 24.20111 28.11770 26.15941
#
# Velocity S-wave (km/s) = 3.45947 3.72891 3.59671
# Velocity P-wave (km/s) = 6.20154 7.07067 6.65032
#
# Compressibility (1/GPa) = 0.02197686
#
# Stress axis : x y z
#
# Youngs Moduli (GPa) = 89.45819 80.20045 29.67611
#
# Poissons Ratio (x) = 0.24348 0.10945
# Poissons Ratio (y) = 0.27159 0.32524
# Poissons Ratio (z) = 0.32994 0.87897
#
# Static dielectric constant tensor:
#      x y z
#    x 3.719040 0.000000 0.000000 
#    y 0.000000 3.940800 0.000000 
#    z 0.000000 0.000000 3.302740 
# 
# 
# High freq. dielectric constant tensor:
#      x y z
#    x 1.796830 0.000000 0.000000 
#    y 0.000000 1.802240 0.000000 
#    z 0.000000 0.000000 1.756160 
# 
# From -- ./inp_files/13245.got.cif
#   From: 2010.03.12/outbox.cif.g09.slc.cpg/sg62_7_cif.got.tgz:13245.got - 2010.04.10 19:12:36.
