data_PCOD8255791
_publ_section_title
;
Structure prediction by ZEFSAII (Michael W. Deem and Ramdas Pophale) SiO2 
 PCOD8255791
Probable space group: C M C M
;
_chemical_formula_sum "Si O2"
_cell_formula_units_Z 96
_cell_length_a 17.698732
_cell_length_b 18.234219
_cell_length_c 16.818891
_cell_angle_alpha 90.000000
_cell_angle_beta 90.000000
_cell_angle_gamma 90.000000
_cell_volume 5427.835481
_symmetry_space_group_name_H-M "C M C M"
_symmetry_group_IT_number 63
_symmetry_cell_setting 'orthorhombic'
loop_
_space_group_symop_operation_xyz
x,y,z
-x,-y,1/2+z
x,-y,-z
-x,y,1/2-z
-x,-y,-z
x,y,1/2-z
-x,y,z
x,-y,1/2+z
1/2+x,1/2+y,z
1/2-x,1/2-y,1/2+z
1/2+x,1/2-y,-z
1/2-x,1/2+y,1/2-z
1/2-x,1/2-y,-z
1/2+x,1/2+y,1/2-z
1/2-x,1/2+y,z
1/2+x,1/2-y,1/2+z
loop_
_atom_site_type_symbol
_atom_site_label
_atom_site_fract_x
_atom_site_fract_y
_atom_site_fract_z
Si Si1 0.213216 0.239139 0.657279
Si Si2 0.917535 0.501594 0.406616
Si Si3 0.802819 0.389065 0.109939
Si Si4 0.182826 0.998661 0.160986
Si Si5 0.216442 0.605795 0.423350
Si Si6 0.583802 0.371507 0.155439
O O1 0.207715 0.259206 0.750000
O O2 0.291245 0.194594 0.638883
O O3 0.214401 0.311409 0.605094
O O4 0.141875 0.191220 0.625948
O O5 0.928265 0.500000 0.500000
O O6 0.887401 0.421299 0.377554
O O7 0.856510 0.564567 0.385163
O O8 0.000000 0.516867 0.366892
O O9 0.748622 0.438124 0.164175
O O10 0.781478 0.398919 0.017697
O O11 0.169217 0.028853 0.250000
O O12 0.109538 0.953714 0.128581
O O13 0.206037 0.066949 0.105682
O O14 0.583716 0.369583 0.250000
O O15 0.500000 0.355579 0.121056
#
# Coordination Sequence:
#
# PCOD8255791 Si02
#       6
#    16  16  16  16  16  16
#     4  10  19  30  46  66  90 118 148 185 224 264
#     4   8  15  28  46  68  92 118 147 181 224 270
#     4   9  17  30  47  65  89 123 154 179 212 267
#     4   9  16  28  47  67  89 116 147 183 218 259
#     4  10  18  28  46  71  94 115 145 187 227 260
#     4   8  15  28  45  64  86 115 147 177 217 266
#
# _framework density 17.686608
#
# number of rings (size 3 to 8) (size 9 to 14) (size 15 to 20)
#    0.000    3.000    0.000    4.000    0.000    0.667 
#    0.000    0.000    0.000   26.500    0.000    0.000 
#    0.000    0.000    0.000    0.000    0.000    0.000 
#
# Total GULP energy -594653.064086 kJ/mol
# GULP energy per Si atom -12388.605502 kJ/mol
# Density = 1.764635 g / cm^3
# Si number density = 17.686608 Si / 1000 Ang^3
#
#
#
# Elastic Constant Matrix: (Units=GPa)
#
#
# Indices 1 2 3 4 5 6 
#
# 1 69.3121 42.4246 -4.0756 0.0000 0.0000 0.0000
# 2 42.4246 98.5997 6.3514 0.0000 0.0000 0.0000
# 3 -4.0756 6.3514 30.5852 0.0000 0.0000 0.0000
# 4 0.0000 0.0000 0.0000 16.7419 0.0000 0.0000
# 5 0.0000 0.0000 0.0000 0.0000 11.2409 0.0000
# 6 0.0000 0.0000 0.0000 0.0000 0.0000 19.1475
#
#
#
# Elastic Compliance Matrix: (Units=1/GPa)
#
#
# Indices 1 2 3 4 5 6 
#
# 1 0.020193 -0.008982 0.004556 0.000000 0.000000 0.000000
# 2 -0.008982 0.014275 -0.004161 0.000000 0.000000 0.000000
# 3 0.004556 -0.004161 0.034167 0.000000 0.000000 0.000000
# 4 0.000000 0.000000 0.000000 0.059730 0.000000 0.000000
# 5 0.000000 0.000000 0.000000 0.000000 0.088961 0.000000
# 6 0.000000 0.000000 0.000000 0.000000 0.000000 0.052226
#
#
# Mechanical properties :
#
#
# Convention : Reuss Voigt Hill
#
# Bulk Modulus (GPa) = 19.43244 31.98865 25.71054
# Shear Modulus (GPa) = 16.45386 19.67915 18.06650
#
# Velocity S-wave (km/s) = 3.05339 3.33927 3.19953
# Velocity P-wave (km/s) = 4.84168 5.74398 5.31202
#
# Compressibility (1/GPa) = 0.05146033
#
# Stress axis : x y z
#
# Youngs Moduli (GPa) = 49.52183 70.05365 29.26814
#
# Poissons Ratio (x) = 0.62922 -0.13335
# Poissons Ratio (y) = 0.44481 0.12179
# Poissons Ratio (z) = -0.22562 0.29151
#
# Static dielectric constant tensor:
#      x y z
#    x 3.670450 0.000000 0.000000 
#    y 0.000000 3.294730 0.000000 
#    z 0.000000 0.000000 3.035530 
# 
# 
# High freq. dielectric constant tensor:
#      x y z
#    x 1.663850 0.000000 0.000000 
#    y 0.000000 1.675050 0.000000 
#    z 0.000000 0.000000 1.663810 
# 
# From -- ./inp_files/45770.got.cif
#   From: 2010.03.12/outbox.cif.g09.slc.cpg/sg63_23_cif.got.tgz:45770.got - 2010.04.10 19:34:48.
