data_PCOD8255859
_publ_section_title
;
Structure prediction by ZEFSAII (Michael W. Deem and Ramdas Pophale) SiO2 
 PCOD8255859
Probable space group: C M C M
;
_chemical_formula_sum "Si O2"
_cell_formula_units_Z 96
_cell_length_a 25.831583
_cell_length_b 28.833740
_cell_length_c 8.731823
_cell_angle_alpha 90.000000
_cell_angle_beta 90.000000
_cell_angle_gamma 90.000000
_cell_volume 6503.646431
_symmetry_space_group_name_H-M "C M C M"
_symmetry_group_IT_number 63
_symmetry_cell_setting 'orthorhombic'
loop_
_space_group_symop_operation_xyz
x,y,z
-x,-y,1/2+z
x,-y,-z
-x,y,1/2-z
-x,-y,-z
x,y,1/2-z
-x,y,z
x,-y,1/2+z
1/2+x,1/2+y,z
1/2-x,1/2-y,1/2+z
1/2+x,1/2-y,-z
1/2-x,1/2+y,1/2-z
1/2-x,1/2-y,-z
1/2+x,1/2+y,1/2-z
1/2-x,1/2+y,z
1/2+x,1/2-y,1/2+z
loop_
_atom_site_type_symbol
_atom_site_label
_atom_site_fract_x
_atom_site_fract_y
_atom_site_fract_z
Si Si1 0.058543 0.865467 0.925323
Si Si2 0.105223 0.047447 0.569402
Si Si3 0.782407 0.047992 0.431422
Si Si4 0.355796 0.691814 0.925605
Si Si5 0.295779 0.221238 0.072300
Si Si6 0.249961 0.638804 0.929040
O O1 0.068764 0.879412 0.750000
O O2 0.000000 0.848088 0.950592
O O3 0.067305 0.910501 0.030133
O O4 0.096453 0.823541 0.970066
O O5 0.111464 0.042162 0.750000
O O6 0.160812 0.058179 0.497049
O O7 0.081941 0.000000 0.500000
O O8 0.784703 0.044371 0.250000
O O9 0.745406 0.089890 0.483696
O O10 0.760341 0.000000 0.500000
O O11 0.369650 0.680939 0.750000
O O12 0.347270 0.747262 0.950281
O O13 0.304385 0.663203 0.970889
O O14 0.284287 0.213052 0.250000
O O15 0.250000 0.250000 0.000000
O O16 0.297521 0.171391 0.987667
O O17 0.243804 0.630286 0.750000
#
# Coordination Sequence:
#
# PCOD8255859 Si02
#       6
#    16  16  16  16  16  16
#     4  11  23  35  47  63  81 105 139 176 218 263
#     4  11  21  34  49  62  78 102 135 175 220 263
#     4  11  20  30  45  63  85 112 140 173 211 251
#     4   9  18  31  46  62  83 107 135 170 209 254
#     4   9  17  28  43  64  86 107 133 165 205 251
#     4  10  18  29  45  66  87 108 137 169 205 251
#
# _framework density 14.760949
#
# number of rings (size 3 to 8) (size 9 to 14) (size 15 to 20)
#    0.000    1.833    1.667    6.500    0.000    5.000 
#    0.000    0.000    0.000    0.000    0.000    0.000 
#    0.000    0.000    0.000    0.000    0.000    0.833 
#
# Total GULP energy -595114.756802 kJ/mol
# GULP energy per Si atom -12398.224100 kJ/mol
# Density = 1.472735 g / cm^3
# Si number density = 14.760949 Si / 1000 Ang^3
#
#
#
# Elastic Constant Matrix: (Units=GPa)
#
#
# Indices 1 2 3 4 5 6 
#
# 1 35.5784 38.6390 26.1869 0.0000 0.0000 0.0000
# 2 38.6390 103.7499 49.9274 0.0000 0.0000 0.0000
# 3 26.1869 49.9274 113.4896 0.0000 0.0000 0.0000
# 4 0.0000 0.0000 0.0000 29.0162 0.0000 0.0000
# 5 0.0000 0.0000 0.0000 0.0000 17.0275 0.0000
# 6 0.0000 0.0000 0.0000 0.0000 0.0000 18.2663
#
#
#
# Elastic Compliance Matrix: (Units=1/GPa)
#
#
# Indices 1 2 3 4 5 6 
#
# 1 0.048676 -0.016140 -0.004131 0.000000 0.000000 0.000000
# 2 -0.016140 0.017579 -0.004009 0.000000 0.000000 0.000000
# 3 -0.004131 -0.004009 0.011528 0.000000 0.000000 0.000000
# 4 0.000000 0.000000 0.000000 0.034463 0.000000 0.000000
# 5 0.000000 0.000000 0.000000 0.000000 0.058729 0.000000
# 6 0.000000 0.000000 0.000000 0.000000 0.000000 0.054746
#
#
# Mechanical properties :
#
#
# Convention : Reuss Voigt Hill
#
# Bulk Modulus (GPa) = 34.22032 53.59161 43.90596
# Shear Modulus (GPa) = 17.60418 22.06630 19.83524
#
# Velocity S-wave (km/s) = 3.45718 3.87060 3.66972
# Velocity P-wave (km/s) = 6.25855 7.50737 6.91122
#
# Compressibility (1/GPa) = 0.02922240
#
# Stress axis : x y z
#
# Youngs Moduli (GPa) = 20.54386 56.88629 86.74230
#
# Poissons Ratio (x) = 0.91816 0.35835
# Poissons Ratio (y) = 0.33158 0.34777
# Poissons Ratio (z) = 0.08487 0.22807
#
# Static dielectric constant tensor:
#      x y z
#    x 2.540800 0.000000 0.000000 
#    y 0.000000 3.203960 0.000000 
#    z 0.000000 0.000000 3.048160 
# 
# 
# High freq. dielectric constant tensor:
#      x y z
#    x 1.499220 0.000000 0.000000 
#    y 0.000000 1.566790 0.000000 
#    z 0.000000 0.000000 1.586660 
# 
# From -- ./inp_files/13007.got.cif
#   From: 2010.03.12/outbox.cif.g09.slc.cpg/sg63_7_cif.got.tgz:13007.got - 2010.04.10 19:34:48.
