data_PCOD8255488
_publ_section_title
;
Structure prediction by ZEFSAII (Michael W. Deem and Ramdas Pophale) SiO2 
 PCOD8255488
Probable space group: C M C M
;
_chemical_formula_sum "Si O2"
_cell_formula_units_Z 64
_cell_length_a 13.253689
_cell_length_b 12.081323
_cell_length_c 21.888398
_cell_angle_alpha 90.000000
_cell_angle_beta 90.000000
_cell_angle_gamma 90.000000
_cell_volume 3504.816204
_symmetry_space_group_name_H-M "C M C M"
_symmetry_group_IT_number 63
_symmetry_cell_setting 'orthorhombic'
loop_
_space_group_symop_operation_xyz
x,y,z
-x,-y,1/2+z
x,-y,-z
-x,y,1/2-z
-x,-y,-z
x,y,1/2-z
-x,y,z
x,-y,1/2+z
1/2+x,1/2+y,z
1/2-x,1/2-y,1/2+z
1/2+x,1/2-y,-z
1/2-x,1/2+y,1/2-z
1/2-x,1/2-y,-z
1/2+x,1/2+y,1/2-z
1/2-x,1/2+y,z
1/2+x,1/2-y,1/2+z
loop_
_atom_site_type_symbol
_atom_site_label
_atom_site_fract_x
_atom_site_fract_y
_atom_site_fract_z
Si Si1 0.246188 0.870596 0.418513
Si Si2 0.387168 0.266188 0.989222
Si Si3 0.384001 0.732733 0.820215
Si Si4 0.611350 0.076821 0.089650
O O1 0.325405 0.768552 0.428487
O O2 0.166320 0.867276 0.474887
O O3 0.188110 0.854345 0.354654
O O4 0.301973 0.986963 0.417271
O O5 0.500000 0.302205 0.971422
O O6 0.385154 0.158436 0.032324
O O7 0.351253 0.736738 0.750000
O O8 0.500000 0.693958 0.828287
O O9 0.370169 0.854924 0.848286
O O10 0.500000 0.020174 0.091738
#
# Coordination Sequence:
#
# PCOD8255488 Si02
#       4
#    16  16  16  16
#     4  10  17  27  51  76  94 122 158 192 232 276
#     4   9  18  31  47  72 103 127 152 188 231 283
#     4   9  19  35  51  68  92 122 160 202 237 276
#     4   9  17  30  50  74  96 121 156 196 236 277
#
# _framework density 18.260587999999998
#
# number of rings (size 3 to 8) (size 9 to 14) (size 15 to 20)
#    0.000    2.750    0.000    3.750    0.000    3.000 
#    0.000    0.000    0.000   68.250    0.000    0.000 
#    0.000    0.000    0.000    0.000    0.000    0.000 
#
# Total GULP energy -396642.267983 kJ/mol
# GULP energy per Si atom -12395.070874 kJ/mol
# Density = 1.821903 g / cm^3
# Si number density = 18.260588 Si / 1000 Ang^3
#
#
#
# Elastic Constant Matrix: (Units=GPa)
#
#
# Indices 1 2 3 4 5 6 
#
# 1 118.7841 32.8505 21.5671 0.0000 0.0000 0.0000
# 2 32.8505 60.9136 11.8825 0.0000 0.0000 0.0000
# 3 21.5671 11.8825 77.2663 0.0000 0.0000 0.0000
# 4 0.0000 0.0000 0.0000 11.3452 0.0000 0.0000
# 5 0.0000 0.0000 0.0000 0.0000 29.2896 0.0000
# 6 0.0000 0.0000 0.0000 0.0000 0.0000 38.8667
#
#
#
# Elastic Compliance Matrix: (Units=1/GPa)
#
#
# Indices 1 2 3 4 5 6 
#
# 1 0.010204 -0.005100 -0.002064 0.000000 0.000000 0.000000
# 2 -0.005100 0.019474 -0.001571 0.000000 0.000000 0.000000
# 3 -0.002064 -0.001571 0.013760 0.000000 0.000000 0.000000
# 4 0.000000 0.000000 0.000000 0.088143 0.000000 0.000000
# 5 0.000000 0.000000 0.000000 0.000000 0.034142 0.000000
# 6 0.000000 0.000000 0.000000 0.000000 0.000000 0.025729
#
#
# Mechanical properties :
#
#
# Convention : Reuss Voigt Hill
#
# Bulk Modulus (GPa) = 38.51045 43.28491 40.89768
# Shear Modulus (GPa) = 22.98030 28.61122 25.79576
#
# Velocity S-wave (km/s) = 3.55133 3.96261 3.76260
# Velocity P-wave (km/s) = 6.16045 6.68520 6.42818
#
# Compressibility (1/GPa) = 0.02596698
#
# Stress axis : x y z
#
# Youngs Moduli (GPa) = 98.00195 51.35109 72.67472
#
# Poissons Ratio (x) = 0.26191 0.14999
# Poissons Ratio (y) = 0.49984 0.11418
# Poissons Ratio (z) = 0.20226 0.08068
#
# Static dielectric constant tensor:
#      x y z
#    x 3.790210 0.000000 0.000000 
#    y 0.000000 3.002980 0.000000 
#    z 0.000000 0.000000 3.353260 
# 
# 
# High freq. dielectric constant tensor:
#      x y z
#    x 1.727440 0.000000 0.000000 
#    y 0.000000 1.676440 0.000000 
#    z 0.000000 0.000000 1.684420 
# 
# From -- ./inp_files/53770.got.cif
#   From: 2010.03.12/outbox.cif.g09.slc.cpg/sg63_27_cif.got.tgz:53770.got - 2010.04.10 19:34:48.
