data_PCOD8255805
_publ_section_title
;
Structure prediction by ZEFSAII (Michael W. Deem and Ramdas Pophale) SiO2 
 PCOD8255805
Probable space group: C M C M
;
_chemical_formula_sum "Si O2"
_cell_formula_units_Z 80
_cell_length_a 24.991252
_cell_length_b 20.473324
_cell_length_c 8.514403
_cell_angle_alpha 90.000000
_cell_angle_beta 90.000000
_cell_angle_gamma 90.000000
_cell_volume 4356.428347
_symmetry_space_group_name_H-M "C M C M"
_symmetry_group_IT_number 63
_symmetry_cell_setting 'orthorhombic'
loop_
_space_group_symop_operation_xyz
x,y,z
-x,-y,1/2+z
x,-y,-z
-x,y,1/2-z
-x,-y,-z
x,y,1/2-z
-x,y,z
x,-y,1/2+z
1/2+x,1/2+y,z
1/2-x,1/2-y,1/2+z
1/2+x,1/2-y,-z
1/2-x,1/2+y,1/2-z
1/2-x,1/2-y,-z
1/2+x,1/2+y,1/2-z
1/2-x,1/2+y,z
1/2+x,1/2-y,1/2+z
loop_
_atom_site_type_symbol
_atom_site_label
_atom_site_fract_x
_atom_site_fract_y
_atom_site_fract_z
Si Si1 0.783980 0.309463 0.434238
Si Si2 0.000000 0.742462 0.568207
Si Si3 0.277759 0.430724 0.933805
Si Si4 0.615269 0.384048 0.434968
Si Si5 0.500000 0.617397 0.567330
Si Si6 0.892326 0.731245 0.432497
O O1 0.789213 0.300195 0.250000
O O2 0.750000 0.250000 0.500000
O O3 0.754803 0.376692 0.472148
O O4 0.842552 0.311541 0.510126
O O5 0.054774 0.704639 0.523779
O O6 0.000000 0.761441 0.750000
O O7 0.000000 0.805617 0.458610
O O8 0.265844 0.425408 0.750000
O O9 0.258512 0.500000 0.000000
O O10 0.340979 0.422298 0.964946
O O11 0.623940 0.397341 0.250000
O O12 0.556719 0.410778 0.496394
O O13 0.619715 0.307025 0.470848
O O14 0.500000 0.605255 0.750000
O O15 0.901543 0.719540 0.250000
#
# Coordination Sequence:
#
# PCOD8255805 Si02
#       6
#    16   8  16  16   8  16
#     4  12  23  37  58  85 113 145 186 231 280 335
#     4  10  18  28  46  77 114 145 180 225 275 328
#     4  12  25  40  57  78 109 147 187 233 283 336
#     4   9  17  32  53  76 105 141 184 230 276 326
#     4   8  16  30  49  71 102 141 182 227 276 324
#     4  10  19  33  54  80 112 147 183 227 277 327
#
# _framework density 18.363667
#
# number of rings (size 3 to 8) (size 9 to 14) (size 15 to 20)
#    0.000    1.600    2.000    6.300    0.000    3.200 
#    0.000    0.500    0.000    0.000    0.000    0.700 
#    0.000    0.000    0.000    0.000    0.000    0.000 
#
# Total GULP energy -495880.624329 kJ/mol
# GULP energy per Si atom -12397.015608 kJ/mol
# Density = 1.832187 g / cm^3
# Si number density = 18.363667 Si / 1000 Ang^3
#
#
#
# Elastic Constant Matrix: (Units=GPa)
#
#
# Indices 1 2 3 4 5 6 
#
# 1 117.6272 29.6844 10.5332 0.0000 0.0000 0.0000
# 2 29.6844 66.4350 10.4345 0.0000 0.0000 0.0000
# 3 10.5332 10.4345 48.9654 0.0000 0.0000 0.0000
# 4 0.0000 0.0000 0.0000 21.8429 0.0000 0.0000
# 5 0.0000 0.0000 0.0000 0.0000 35.4240 0.0000
# 6 0.0000 0.0000 0.0000 0.0000 0.0000 11.9185
#
#
#
# Elastic Compliance Matrix: (Units=1/GPa)
#
#
# Indices 1 2 3 4 5 6 
#
# 1 0.009649 -0.004123 -0.001197 0.000000 0.000000 0.000000
# 2 -0.004123 0.017336 -0.002807 0.000000 0.000000 0.000000
# 3 -0.001197 -0.002807 0.021278 0.000000 0.000000 0.000000
# 4 0.000000 0.000000 0.000000 0.045782 0.000000 0.000000
# 5 0.000000 0.000000 0.000000 0.000000 0.028229 0.000000
# 6 0.000000 0.000000 0.000000 0.000000 0.000000 0.083903
#
#
# Mechanical properties :
#
#
# Convention : Reuss Voigt Hill
#
# Bulk Modulus (GPa) = 31.24231 37.14798 34.19515
# Shear Modulus (GPa) = 21.44988 25.99545 23.72266
#
# Velocity S-wave (km/s) = 3.42140 3.76652 3.59810
# Velocity P-wave (km/s) = 5.71472 6.26007 5.99360
#
# Compressibility (1/GPa) = 0.03200788
#
# Stress axis : x y z
#
# Youngs Moduli (GPa) = 103.63535 57.68458 46.99631
#
# Poissons Ratio (x) = 0.23786 0.05625
# Poissons Ratio (y) = 0.42734 0.13193
# Poissons Ratio (z) = 0.12405 0.16193
#
# Static dielectric constant tensor:
#      x y z
#    x 3.988270 0.000000 0.000000 
#    y 0.000000 3.011700 0.000000 
#    z 0.000000 0.000000 3.384280 
# 
# 
# High freq. dielectric constant tensor:
#      x y z
#    x 1.730900 0.000000 0.000000 
#    y 0.000000 1.657910 0.000000 
#    z 0.000000 0.000000 1.720580 
# 
# From -- ./inp_files/10079.got.cif
#   From: 2010.03.12/outbox.cif.g09.slc.cpg/sg63_6_cif.got.tgz:10079.got - 2010.04.10 19:34:48.
