data_PCOD8255251
_publ_section_title
;
Structure prediction by ZEFSAII (Michael W. Deem and Ramdas Pophale) SiO2 
 PCOD8255251
Probable space group: P N M A
;
_chemical_formula_sum "Si O2"
_cell_formula_units_Z 40
_cell_length_a 7.723414
_cell_length_b 14.387029
_cell_length_c 15.719534
_cell_angle_alpha 90.000000
_cell_angle_beta 90.000000
_cell_angle_gamma 90.000000
_cell_volume 1746.707164
_symmetry_space_group_name_H-M "P N M A"
_symmetry_group_IT_number 62
_symmetry_cell_setting 'orthorhombic'
loop_
_space_group_symop_operation_xyz
x,y,z
1/2-x,-y,1/2+z
1/2+x,1/2-y,1/2-z
-x,1/2+y,-z
-x,-y,-z
1/2+x,y,1/2-z
1/2-x,1/2+y,1/2+z
x,1/2-y,z
loop_
_atom_site_type_symbol
_atom_site_label
_atom_site_fract_x
_atom_site_fract_y
_atom_site_fract_z
Si Si1 0.255980 0.646417 0.843727
Si Si2 0.482705 0.352567 0.846733
Si Si3 0.560905 0.900666 0.969041
Si Si4 0.278417 0.029249 0.728216
Si Si5 0.442753 0.943216 0.580876
O O1 0.252534 0.750000 0.804086
O O2 0.431319 0.636603 0.897648
O O3 0.241880 0.571488 0.768718
O O4 0.088169 0.635105 0.904298
O O5 0.533674 0.250000 0.811398
O O6 0.622256 0.433568 0.829962
O O7 0.313788 0.391267 0.798030
O O8 0.443787 0.338203 0.946233
O O9 0.754034 0.897747 0.930891
O O10 0.500000 0.000000 0.000000
O O11 0.438010 0.013432 0.662427
O O12 0.500000 0.000000 0.500000
#
# Coordination Sequence:
#
# PCOD8255251 Si02
#       5
#     8   8   8   8   8
#     4  12  27  47  73 110 152 196 247 302 368 441
#     4  12  25  44  73 106 140 189 241 299 370 438
#     4  12  23  47  77 102 146 193 242 303 369 434
#     4  12  23  46  71 104 151 185 237 312 360 430
#     4  12  24  46  76 102 144 198 243 296 373 427
#
# _framework density 22.900231000000002
#
# number of rings (size 3 to 8) (size 9 to 14) (size 15 to 20)
#    0.000    0.000    8.000    1.200    0.000    2.400 
#    0.000    1.000    0.000    0.000    0.000    0.000 
#    0.000    0.000    0.000    0.000    0.000    0.000 
#
# Total GULP energy -495952.117953 kJ/mol
# GULP energy per Si atom -12398.802949 kJ/mol
# Density = 2.284811 g / cm^3
# Si number density = 22.900231 Si / 1000 Ang^3
#
#
#
# Elastic Constant Matrix: (Units=GPa)
#
#
# Indices 1 2 3 4 5 6 
#
# 1 152.2401 36.8048 37.8692 0.0000 0.0000 0.0000
# 2 36.8048 170.3584 49.1998 0.0000 0.0000 0.0000
# 3 37.8692 49.1998 113.9372 0.0000 0.0000 0.0000
# 4 0.0000 0.0000 0.0000 24.7328 0.0000 0.0000
# 5 0.0000 0.0000 0.0000 0.0000 39.7609 0.0000
# 6 0.0000 0.0000 0.0000 0.0000 0.0000 21.4502
#
#
#
# Elastic Compliance Matrix: (Units=1/GPa)
#
#
# Indices 1 2 3 4 5 6 
#
# 1 0.007307 -0.001002 -0.001996 0.000000 0.000000 0.000000
# 2 -0.001002 0.006844 -0.002622 0.000000 0.000000 0.000000
# 3 -0.001996 -0.002622 0.010572 0.000000 0.000000 0.000000
# 4 0.000000 0.000000 0.000000 0.040432 0.000000 0.000000
# 5 0.000000 0.000000 0.000000 0.000000 0.025150 0.000000
# 6 0.000000 0.000000 0.000000 0.000000 0.000000 0.046620
#
#
# Mechanical properties :
#
#
# Convention : Reuss Voigt Hill
#
# Bulk Modulus (GPa) = 74.16809 76.03148 75.09979
# Shear Modulus (GPa) = 32.75238 38.03290 35.39264
#
# Velocity S-wave (km/s) = 3.78593 4.07972 3.93557
# Velocity P-wave (km/s) = 7.18114 7.44751 7.31554
#
# Compressibility (1/GPa) = 0.01348289
#
# Stress axis : x y z
#
# Youngs Moduli (GPa) = 136.84835 146.11792 94.58562
#
# Poissons Ratio (x) = 0.14645 0.18879
# Poissons Ratio (y) = 0.13716 0.24802
# Poissons Ratio (z) = 0.27314 0.38314
#
# Static dielectric constant tensor:
#      x y z
#    x 3.728130 0.000000 0.000000 
#    y 0.000000 4.055470 0.000000 
#    z 0.000000 0.000000 4.582510 
# 
# 
# High freq. dielectric constant tensor:
#      x y z
#    x 1.912240 0.000000 0.000000 
#    y 0.000000 1.895250 0.000000 
#    z 0.000000 0.000000 1.917390 
# 
# From -- ./inp_files/16649.got.cif
#   From: 2010.03.12/outbox.cif.g09.slc.cpg/sg62_9_cif.got.tgz:16649.got - 2010.04.10 19:12:36.
