data_PCOD8255495
_publ_section_title
;
Structure prediction by ZEFSAII (Michael W. Deem and Ramdas Pophale) SiO2 
 PCOD8255495
Probable space group: C M C M
;
_chemical_formula_sum "Si O2"
_cell_formula_units_Z 128
_cell_length_a 26.163322
_cell_length_b 18.770705
_cell_length_c 16.690292
_cell_angle_alpha 90.000000
_cell_angle_beta 90.000000
_cell_angle_gamma 90.000000
_cell_volume 8196.669147
_symmetry_space_group_name_H-M "C M C M"
_symmetry_group_IT_number 63
_symmetry_cell_setting 'orthorhombic'
loop_
_space_group_symop_operation_xyz
x,y,z
-x,-y,1/2+z
x,-y,-z
-x,y,1/2-z
-x,-y,-z
x,y,1/2-z
-x,y,z
x,-y,1/2+z
1/2+x,1/2+y,z
1/2-x,1/2-y,1/2+z
1/2+x,1/2-y,-z
1/2-x,1/2+y,1/2-z
1/2-x,1/2-y,-z
1/2+x,1/2+y,1/2-z
1/2-x,1/2+y,z
1/2+x,1/2-y,1/2+z
loop_
_atom_site_type_symbol
_atom_site_label
_atom_site_fract_x
_atom_site_fract_y
_atom_site_fract_z
Si Si1 0.289178 0.850225 0.657096
Si Si2 0.306370 0.276401 0.915791
Si Si3 0.842570 0.772211 0.097026
Si Si4 0.254047 0.851399 0.157118
Si Si5 0.941439 0.842642 0.156027
Si Si6 0.254702 0.508229 0.157064
Si Si7 0.852154 0.906234 0.655336
Si Si8 0.055539 0.995566 0.845146
O O1 0.273283 0.835821 0.750000
O O2 0.247380 0.816090 0.597493
O O3 0.341011 0.808749 0.633457
O O4 0.292369 0.935814 0.643434
O O5 0.298547 0.195876 0.884209
O O6 0.348987 0.323199 0.869444
O O7 0.323369 0.273870 0.006748
O O8 0.803529 0.821721 0.147136
O O9 0.901175 0.796336 0.105320
O O10 0.267994 0.853293 0.250000
O O11 0.256550 0.931152 0.117819
O O12 0.931034 0.831556 0.250000
O O13 0.931276 0.923897 0.130141
O O14 0.000000 0.820514 0.135438
O O15 0.264642 0.493385 0.250000
O O16 0.305009 0.546792 0.121063
O O17 0.852545 0.910396 0.750000
O O18 0.903396 0.940803 0.618395
O O19 0.054592 0.991210 0.750000
O O20 0.000000 0.973936 0.879609
#
# Coordination Sequence:
#
# PCOD8255495 Si02
#       8
#    16  16  16  16  16  16  16  16
#     4   9  16  29  45  61  83 111 142 175 211 249
#     4  10  19  28  37  58  86 113 143 173 201 240
#     4  11  19  28  41  61  88 116 141 168 209 252
#     4  10  17  28  45  62  82 111 144 171 201 246
#     4   9  17  30  47  65  83 106 141 181 214 246
#     4   8  15  25  41  62  80 103 138 175 204 239
#     4   9  15  27  43  57  79 112 146 177 211 246
#     4   8  14  25  43  64  81 101 139 187 219 239
#
# _framework density 15.616099
#
# number of rings (size 3 to 8) (size 9 to 14) (size 15 to 20)
#    0.000    2.750    0.000    6.750    0.000    2.000 
#    0.000    9.375    0.000    1.500    0.000    0.000 
#    0.000    3.000    0.000   10.875    0.000    0.000 
#
# Total GULP energy -792852.919749 kJ/mol
# GULP energy per Si atom -12388.326871 kJ/mol
# Density = 1.558056 g / cm^3
# Si number density = 15.616099 Si / 1000 Ang^3
#
#
#
# Elastic Constant Matrix: (Units=GPa)
#
#
# Indices 1 2 3 4 5 6 
#
# 1 89.0244 60.3964 25.6533 0.0000 0.0000 0.0000
# 2 60.3964 131.9627 25.8415 0.0000 0.0000 0.0000
# 3 25.6533 25.8415 46.4157 0.0000 0.0000 0.0000
# 4 0.0000 0.0000 0.0000 4.0660 0.0000 0.0000
# 5 0.0000 0.0000 0.0000 0.0000 11.0429 0.0000
# 6 0.0000 0.0000 0.0000 0.0000 0.0000 27.6016
#
#
#
# Elastic Compliance Matrix: (Units=1/GPa)
#
#
# Indices 1 2 3 4 5 6 
#
# 1 0.017618 -0.006910 -0.005890 0.000000 0.000000 0.000000
# 2 -0.006910 0.011215 -0.002425 0.000000 0.000000 0.000000
# 3 -0.005890 -0.002425 0.026150 0.000000 0.000000 0.000000
# 4 0.000000 0.000000 0.000000 0.245942 0.000000 0.000000
# 5 0.000000 0.000000 0.000000 0.000000 0.090556 0.000000
# 6 0.000000 0.000000 0.000000 0.000000 0.000000 0.036230
#
#
# Mechanical properties :
#
#
# Convention : Reuss Voigt Hill
#
# Bulk Modulus (GPa) = 40.76135 54.57614 47.66875
# Shear Modulus (GPa) = 10.72180 18.90953 14.81566
#
# Velocity S-wave (km/s) = 2.62312 3.48357 3.08351
# Velocity P-wave (km/s) = 5.94417 7.15576 6.57792
#
# Compressibility (1/GPa) = 0.02453305
#
# Stress axis : x y z
#
# Youngs Moduli (GPa) = 56.75976 89.16381 38.24098
#
# Poissons Ratio (x) = 0.61612 0.22525
# Poissons Ratio (y) = 0.39221 0.09273
# Poissons Ratio (z) = 0.33433 0.21622
#
# Static dielectric constant tensor:
#      x y z
#    x 3.049880 0.000000 0.000000 
#    y 0.000000 3.339730 0.000000 
#    z 0.000000 0.000000 2.746050 
# 
# 
# High freq. dielectric constant tensor:
#      x y z
#    x 1.561020 0.000000 0.000000 
#    y 0.000000 1.597810 0.000000 
#    z 0.000000 0.000000 1.584320 
# 
# From -- ./inp_files/48486.got.cif
#   From: 2010.03.12/outbox.cif.g09.slc.cpg/sg63_25_cif.got.tgz:48486.got - 2010.04.10 19:34:48.
