data_PCOD8255227
_publ_section_title
;
Structure prediction by ZEFSAII (Michael W. Deem and Ramdas Pophale) SiO2 
 PCOD8255227
Probable space group: P N M A
;
_chemical_formula_sum "Si O2"
_cell_formula_units_Z 40
_cell_length_a 7.630250
_cell_length_b 18.826397
_cell_length_c 11.982658
_cell_angle_alpha 90.000000
_cell_angle_beta 90.000000
_cell_angle_gamma 90.000000
_cell_volume 1721.310208
_symmetry_space_group_name_H-M "P N M A"
_symmetry_group_IT_number 62
_symmetry_cell_setting 'orthorhombic'
loop_
_space_group_symop_operation_xyz
x,y,z
1/2-x,-y,1/2+z
1/2+x,1/2-y,1/2-z
-x,1/2+y,-z
-x,-y,-z
1/2+x,y,1/2-z
1/2-x,1/2+y,1/2+z
x,1/2-y,z
loop_
_atom_site_type_symbol
_atom_site_label
_atom_site_fract_x
_atom_site_fract_y
_atom_site_fract_z
Si Si1 0.737790 0.830367 0.091385
Si Si2 0.312583 0.944149 0.222218
Si Si3 0.978871 0.170560 0.091309
Si Si4 0.433916 0.946435 0.768307
Si Si5 0.378493 0.623568 0.995575
O O1 0.774771 0.750000 0.132884
O O2 0.746853 0.882743 0.195768
O O3 0.543701 0.831185 0.038403
O O4 0.885610 0.854128 0.003605
O O5 0.291948 0.921232 0.094913
O O6 0.263083 0.030651 0.234239
O O7 0.512292 0.967955 0.250661
O O8 0.027973 0.250000 0.132089
O O9 0.992781 0.117352 0.194295
O O10 0.778153 0.173073 0.049488
O O11 0.446236 0.928128 0.898582
#
# Coordination Sequence:
#
# PCOD8255227 Si02
#       5
#     8   8   8   8   8
#     4  11  27  48  73 106 146 191 245 303 363 438
#     4  12  25  45  74 105 144 190 239 300 363 432
#     4  11  27  48  73 106 145 191 244 303 367 435
#     4  12  25  45  74 107 143 189 241 302 358 437
#     4  12  26  48  75 106 148 192 244 295 374 431
#
# _framework density 23.238112000000001
#
# number of rings (size 3 to 8) (size 9 to 14) (size 15 to 20)
#    0.000    0.400    4.000    3.600    2.800    4.800 
#    0.000    0.000    0.000    0.000    0.000    0.000 
#    0.000    0.000    0.000    0.000    0.000    0.000 
#
# Total GULP energy -495573.145564 kJ/mol
# GULP energy per Si atom -12389.328639 kJ/mol
# Density = 2.318522 g / cm^3
# Si number density = 23.238112 Si / 1000 Ang^3
#
#
#
# Elastic Constant Matrix: (Units=GPa)
#
#
# Indices 1 2 3 4 5 6 
#
# 1 77.7370 40.5056 58.6717 0.0000 0.0000 0.0000
# 2 40.5056 137.1760 82.3714 0.0000 0.0000 0.0000
# 3 58.6717 82.3714 163.9628 0.0000 0.0000 0.0000
# 4 0.0000 0.0000 0.0000 17.7694 0.0000 0.0000
# 5 0.0000 0.0000 0.0000 0.0000 33.4516 0.0000
# 6 0.0000 0.0000 0.0000 0.0000 0.0000 36.3952
#
#
#
# Elastic Compliance Matrix: (Units=1/GPa)
#
#
# Indices 1 2 3 4 5 6 
#
# 1 0.018027 -0.002076 -0.005408 0.000000 0.000000 0.000000
# 2 -0.002076 0.010678 -0.004622 0.000000 0.000000 0.000000
# 3 -0.005408 -0.004622 0.010356 0.000000 0.000000 0.000000
# 4 0.000000 0.000000 0.000000 0.056277 0.000000 0.000000
# 5 0.000000 0.000000 0.000000 0.000000 0.029894 0.000000
# 6 0.000000 0.000000 0.000000 0.000000 0.000000 0.027476
#
#
# Mechanical properties :
#
#
# Convention : Reuss Voigt Hill
#
# Bulk Modulus (GPa) = 67.33816 82.44148 74.88982
# Shear Modulus (GPa) = 27.49240 30.67838 29.08539
#
# Velocity S-wave (km/s) = 3.44332 3.63736 3.54167
# Velocity P-wave (km/s) = 6.69693 7.29345 7.00155
#
# Compressibility (1/GPa) = 0.01485042
#
# Stress axis : x y z
#
# Youngs Moduli (GPa) = 55.47216 93.65016 96.56320
#
# Poissons Ratio (x) = 0.19439 0.52221
# Poissons Ratio (y) = 0.11514 0.44628
# Poissons Ratio (z) = 0.29999 0.43282
#
# Static dielectric constant tensor:
#      x y z
#    x 4.967790 0.000000 0.000000 
#    y 0.000000 3.948210 0.000000 
#    z 0.000000 0.000000 3.925500 
# 
# 
# High freq. dielectric constant tensor:
#      x y z
#    x 1.967300 0.000000 0.000000 
#    y 0.000000 1.926480 0.000000 
#    z 0.000000 0.000000 1.907860 
# 
# From -- ./inp_files/11054.got.cif
#   From: 2010.03.12/outbox.cif.g09.slc.cpg/sg62_6_cif.got.tgz:11054.got - 2010.04.10 19:12:36.
