data_PCOD8255387
_publ_section_title
;
Structure prediction by ZEFSAII (Michael W. Deem and Ramdas Pophale) SiO2 
 PCOD8255387
Probable space group: C M C M
;
_chemical_formula_sum "Si O2"
_cell_formula_units_Z 128
_cell_length_a 25.786725
_cell_length_b 18.030515
_cell_length_c 18.328858
_cell_angle_alpha 90.000000
_cell_angle_beta 90.000000
_cell_angle_gamma 90.000000
_cell_volume 8521.964621
_symmetry_space_group_name_H-M "C M C M"
_symmetry_group_IT_number 63
_symmetry_cell_setting 'orthorhombic'
loop_
_space_group_symop_operation_xyz
x,y,z
-x,-y,1/2+z
x,-y,-z
-x,y,1/2-z
-x,-y,-z
x,y,1/2-z
-x,y,z
x,-y,1/2+z
1/2+x,1/2+y,z
1/2-x,1/2-y,1/2+z
1/2+x,1/2-y,-z
1/2-x,1/2+y,1/2-z
1/2-x,1/2-y,-z
1/2+x,1/2+y,1/2-z
1/2-x,1/2+y,z
1/2+x,1/2-y,1/2+z
loop_
_atom_site_type_symbol
_atom_site_label
_atom_site_fract_x
_atom_site_fract_y
_atom_site_fract_z
Si Si1 0.790612 0.668124 0.555078
Si Si2 0.440098 0.468456 0.333465
Si Si3 0.208383 0.230876 0.667477
Si Si4 0.145527 0.877852 0.090217
Si Si5 0.754748 0.974236 0.419801
Si Si6 0.251256 0.864074 0.605473
Si Si7 0.940238 0.139847 0.166262
Si Si8 0.146195 0.806228 0.933002
O O1 0.753603 0.706829 0.613038
O O2 0.795505 0.581681 0.581375
O O3 0.762966 0.663200 0.476918
O O4 0.842481 0.718197 0.550744
O O5 0.425243 0.450654 0.250000
O O6 0.500000 0.450120 0.347823
O O7 0.407399 0.417498 0.387756
O O8 0.428500 0.554029 0.350767
O O9 0.219569 0.206175 0.750000
O O10 0.154185 0.195603 0.640152
O O11 0.209866 0.320739 0.660519
O O12 0.194095 0.931908 0.108824
O O13 0.140967 0.853879 0.006566
O O14 0.769640 0.000000 0.500000
O O15 0.740655 0.048884 0.375684
O O16 0.190804 0.843540 0.617035
O O17 0.926435 0.158134 0.250000
O O18 0.906694 0.191076 0.112656
O O19 0.000000 0.158222 0.150767
#
# Coordination Sequence:
#
# PCOD8255387 Si02
#       8
#    16  16  16  16  16  16  16  16
#     4   9  17  30  42  63  87 117 142 183 217 254
#     4   9  19  33  44  57  85 119 150 187 226 258
#     4  10  18  28  42  60  86 117 147 177 216 259
#     4  11  18  28  43  66  85 116 147 189 213 260
#     4   9  16  26  45  62  86 116 146 173 218 257
#     4  10  16  30  43  64  87 119 147 181 213 255
#     4   9  20  35  46  61  87 116 147 189 231 262
#     4  11  17  27  48  64  88 113 151 179 220 262
#
# _framework density 15.020009999999999
#
# number of rings (size 3 to 8) (size 9 to 14) (size 15 to 20)
#    0.000    2.250    5.000    2.625    0.000    2.500 
#    0.000    4.375    0.000    0.000    0.000    0.000 
#    0.000    5.500    0.000    2.875    1.000    0.000 
#
# Total GULP energy -792910.396741 kJ/mol
# GULP energy per Si atom -12389.224949 kJ/mol
# Density = 1.498582 g / cm^3
# Si number density = 15.020010 Si / 1000 Ang^3
#
#
#
# Elastic Constant Matrix: (Units=GPa)
#
#
# Indices 1 2 3 4 5 6 
#
# 1 69.0580 44.8257 31.6410 0.0000 0.0000 0.0000
# 2 44.8257 90.8571 25.5697 0.0000 0.0000 0.0000
# 3 31.6410 25.5697 56.3285 0.0000 0.0000 0.0000
# 4 0.0000 0.0000 0.0000 16.4512 0.0000 0.0000
# 5 0.0000 0.0000 0.0000 0.0000 20.9075 0.0000
# 6 0.0000 0.0000 0.0000 0.0000 0.0000 25.8166
#
#
#
# Elastic Compliance Matrix: (Units=1/GPa)
#
#
# Indices 1 2 3 4 5 6 
#
# 1 0.025268 -0.009713 -0.009785 0.000000 0.000000 0.000000
# 2 -0.009713 0.016352 -0.001967 0.000000 0.000000 0.000000
# 3 -0.009785 -0.001967 0.024142 0.000000 0.000000 0.000000
# 4 0.000000 0.000000 0.000000 0.060786 0.000000 0.000000
# 5 0.000000 0.000000 0.000000 0.000000 0.047830 0.000000
# 6 0.000000 0.000000 0.000000 0.000000 0.000000 0.038735
#
#
# Mechanical properties :
#
#
# Convention : Reuss Voigt Hill
#
# Bulk Modulus (GPa) = 43.79534 46.70183 45.24859
# Shear Modulus (GPa) = 18.96433 20.24886 19.60660
#
# Velocity S-wave (km/s) = 3.55717 3.67567 3.61690
# Velocity P-wave (km/s) = 6.78915 7.01246 6.90171
#
# Compressibility (1/GPa) = 0.02283348
#
# Stress axis : x y z
#
# Youngs Moduli (GPa) = 39.57513 61.15556 41.42129
#
# Poissons Ratio (x) = 0.59399 0.40530
# Poissons Ratio (y) = 0.38439 0.08147
# Poissons Ratio (z) = 0.38724 0.12028
#
# Static dielectric constant tensor:
#      x y z
#    x 2.653220 0.000000 0.000000 
#    y 0.000000 3.484550 0.000000 
#    z 0.000000 0.000000 2.811560 
# 
# 
# High freq. dielectric constant tensor:
#      x y z
#    x 1.532750 0.000000 0.000000 
#    y 0.000000 1.576810 0.000000 
#    z 0.000000 0.000000 1.569850 
# 
# From -- ./inp_files/48452.got.cif
#   From: 2010.03.12/outbox.cif.g09.slc.cpg/sg63_25_cif.got.tgz:48452.got - 2010.04.10 19:34:48.
