data_PCOD8255153
_publ_section_title
;
Structure prediction by ZEFSAII (Michael W. Deem and Ramdas Pophale) SiO2 
 PCOD8255153
Probable space group: P N M A
;
_chemical_formula_sum "Si O2"
_cell_formula_units_Z 56
_cell_length_a 14.736814
_cell_length_b 8.423405
_cell_length_c 21.028143
_cell_angle_alpha 90.000000
_cell_angle_beta 90.000000
_cell_angle_gamma 90.000000
_cell_volume 2610.310715
_symmetry_space_group_name_H-M "P N M A"
_symmetry_group_IT_number 62
_symmetry_cell_setting 'orthorhombic'
loop_
_space_group_symop_operation_xyz
x,y,z
1/2-x,-y,1/2+z
1/2+x,1/2-y,1/2-z
-x,1/2+y,-z
-x,-y,-z
1/2+x,y,1/2-z
1/2-x,1/2+y,1/2+z
x,1/2-y,z
loop_
_atom_site_type_symbol
_atom_site_label
_atom_site_fract_x
_atom_site_fract_y
_atom_site_fract_z
Si Si1 0.732883 0.565742 0.102268
Si Si2 0.173674 0.568055 0.162701
Si Si3 0.503487 0.934385 0.262417
Si Si4 0.948919 0.565462 0.637719
Si Si5 0.269596 0.569396 0.534036
Si Si6 0.806104 0.066715 0.231376
Si Si7 0.423274 0.934428 0.045587
O O1 0.705621 0.750000 0.099907
O O2 0.640944 0.462589 0.095431
O O3 0.783120 0.531722 0.168079
O O4 0.795339 0.525449 0.039779
O O5 0.195699 0.750000 0.176971
O O6 0.182248 0.536554 0.087370
O O7 0.246390 0.474635 0.206352
O O8 0.067432 0.531070 0.176665
O O9 0.477739 0.750000 0.256955
O O10 0.571448 0.995055 0.207145
O O11 0.412714 0.037900 0.257895
O O12 0.973372 0.750000 0.637941
O O13 0.035979 0.463289 0.615556
O O14 0.295359 0.750000 0.549254
O O15 0.162574 0.545918 0.538686
O O16 0.788768 0.250000 0.216163
O O17 0.400105 0.750000 0.033940
O O18 0.500000 0.000000 0.000000
#
# Coordination Sequence:
#
# PCOD8255153 Si02
#       7
#     8   8   8   8   8   8   8
#     4  11  23  41  64  91 127 169 212 258 319 384
#     4  11  24  43  68  95 130 171 215 267 325 388
#     4  11  24  43  67  93 127 169 216 267 322 384
#     4  12  23  37  61  91 125 164 208 260 318 382
#     4  11  24  41  63  91 129 169 212 266 323 387
#     4  12  25  42  68  98 131 168 217 273 323 384
#     4  12  23  36  56  85 124 164 207 255 313 383
#
# _framework density 21.453385000000001
#
# number of rings (size 3 to 8) (size 9 to 14) (size 15 to 20)
#    0.000    0.571    2.857    6.429    0.000    3.429 
#    0.000    0.714    0.000    0.000    0.000    0.000 
#    0.000    0.000    0.000    0.000    0.000    0.000 
#
# Total GULP energy -694247.659881 kJ/mol
# GULP energy per Si atom -12397.279641 kJ/mol
# Density = 2.140456 g / cm^3
# Si number density = 21.453385 Si / 1000 Ang^3
#
#
#
# Elastic Constant Matrix: (Units=GPa)
#
#
# Indices 1 2 3 4 5 6 
#
# 1 53.2205 11.4406 7.6587 0.0000 0.0000 0.0000
# 2 11.4406 69.8999 16.5051 0.0000 0.0000 0.0000
# 3 7.6587 16.5051 107.9364 0.0000 0.0000 0.0000
# 4 0.0000 0.0000 0.0000 35.7306 0.0000 0.0000
# 5 0.0000 0.0000 0.0000 0.0000 30.6875 0.0000
# 6 0.0000 0.0000 0.0000 0.0000 0.0000 27.9526
#
#
#
# Elastic Compliance Matrix: (Units=1/GPa)
#
#
# Indices 1 2 3 4 5 6 
#
# 1 0.019565 -0.002982 -0.000932 0.000000 0.000000 0.000000
# 2 -0.002982 0.015297 -0.002127 0.000000 0.000000 0.000000
# 3 -0.000932 -0.002127 0.009656 0.000000 0.000000 0.000000
# 4 0.000000 0.000000 0.000000 0.027987 0.000000 0.000000
# 5 0.000000 0.000000 0.000000 0.000000 0.032587 0.000000
# 6 0.000000 0.000000 0.000000 0.000000 0.000000 0.035775
#
#
# Mechanical properties :
#
#
# Convention : Reuss Voigt Hill
#
# Bulk Modulus (GPa) = 30.83174 33.58507 32.20841
# Shear Modulus (GPa) = 30.53220 31.90428 31.21824
#
# Velocity S-wave (km/s) = 3.77661 3.86053 3.81880
# Velocity P-wave (km/s) = 5.78098 5.96326 5.87283
#
# Compressibility (1/GPa) = 0.03243411
#
# Stress axis : x y z
#
# Youngs Moduli (GPa) = 51.11174 65.37398 103.56061
#
# Poissons Ratio (x) = 0.19495 0.09654
# Poissons Ratio (y) = 0.15242 0.22032
# Poissons Ratio (z) = 0.04765 0.13908
#
# Static dielectric constant tensor:
#      x y z
#    x 3.464440 0.000000 0.000000 
#    y 0.000000 3.876170 0.000000 
#    z 0.000000 0.000000 8.939490 
# 
# 
# High freq. dielectric constant tensor:
#      x y z
#    x 1.818720 0.000000 0.000000 
#    y 0.000000 1.849290 0.000000 
#    z 0.000000 0.000000 1.858150 
# 
# From -- ./inp_files/27116.got.cif
#   From: 2010.03.12/outbox.cif.g09.slc.cpg/sg62_14_cif.got.tgz:27116.got - 2010.04.10 19:12:36.
