data_PCOD8255039
_publ_section_title
;
Structure prediction by ZEFSAII (Michael W. Deem and Ramdas Pophale) SiO2 
 PCOD8255039
Probable space group: P N M A
;
_chemical_formula_sum "Si O2"
_cell_formula_units_Z 64
_cell_length_a 13.910984
_cell_length_b 17.232531
_cell_length_c 13.453260
_cell_angle_alpha 90.000000
_cell_angle_beta 90.000000
_cell_angle_gamma 90.000000
_cell_volume 3225.035170
_symmetry_space_group_name_H-M "P N M A"
_symmetry_group_IT_number 62
_symmetry_cell_setting 'orthorhombic'
loop_
_space_group_symop_operation_xyz
x,y,z
1/2-x,-y,1/2+z
1/2+x,1/2-y,1/2-z
-x,1/2+y,-z
-x,-y,-z
1/2+x,y,1/2-z
1/2-x,1/2+y,1/2+z
x,1/2-y,z
loop_
_atom_site_type_symbol
_atom_site_label
_atom_site_fract_x
_atom_site_fract_y
_atom_site_fract_z
Si Si1 0.852537 0.884424 0.217938
Si Si2 0.603070 0.534427 0.029443
Si Si3 0.324554 0.375344 0.659803
Si Si4 0.094691 0.337785 0.995881
Si Si5 0.119829 0.834631 0.956324
Si Si6 0.467561 0.158417 0.824319
Si Si7 0.729821 0.450453 0.382576
Si Si8 0.259767 0.455527 0.334292
O O1 0.756529 0.846655 0.263501
O O2 0.888125 0.837481 0.122385
O O3 0.926258 0.877397 0.310255
O O4 0.830018 0.972519 0.187352
O O5 0.586732 0.616357 0.084853
O O6 0.664880 0.478393 0.102704
O O7 0.500000 0.500000 0.000000
O O8 0.662988 0.548063 0.928716
O O9 0.325408 0.324069 0.561051
O O10 0.422826 0.362531 0.718020
O O11 0.314204 0.463819 0.622839
O O12 0.111991 0.250000 0.033632
O O13 0.166785 0.396406 0.047790
O O14 0.987554 0.365856 0.022875
O O15 0.117489 0.750000 0.904903
O O16 0.176424 0.892962 0.888235
O O17 0.468951 0.250000 0.846651
O O18 0.729481 0.417214 0.270625
#
# Coordination Sequence:
#
# PCOD8255039 Si02
#       8
#     8   8   8   8   8   8   8   8
#     4  11  22  40  64  95 126 167 212 262 328 395
#     4  12  24  44  64  93 135 178 219 266 327 401
#     4  11  21  40  63  94 128 162 208 267 326 390
#     4  11  23  39  63  95 129 165 212 271 326 378
#     4  11  24  40  62  95 131 166 213 272 323 380
#     4  12  25  40  66 104 134 164 212 279 346 389
#     4  11  23  42  66  92 121 175 220 260 318 392
#     4  11  24  43  66  93 124 177 222 263 323 391
#
# _framework density 19.844745
#
# number of rings (size 3 to 8) (size 9 to 14) (size 15 to 20)
#    0.000    0.750    6.250    2.250    1.750    6.000 
#    0.000    0.000    0.000    0.000    0.000    0.000 
#    0.000    0.000    0.000    0.000    0.000    0.000 
#
# Total GULP energy -793430.416277 kJ/mol
# GULP energy per Si atom -12397.350254 kJ/mol
# Density = 1.979958 g / cm^3
# Si number density = 19.844745 Si / 1000 Ang^3
#
#
#
# Elastic Constant Matrix: (Units=GPa)
#
#
# Indices 1 2 3 4 5 6 
#
# 1 120.7327 53.0845 46.0296 0.0000 0.0000 0.0000
# 2 53.0845 85.7561 23.9741 0.0000 0.0000 0.0000
# 3 46.0296 23.9741 94.6997 0.0000 0.0000 0.0000
# 4 0.0000 0.0000 0.0000 23.1789 0.0000 0.0000
# 5 0.0000 0.0000 0.0000 0.0000 34.2536 0.0000
# 6 0.0000 0.0000 0.0000 0.0000 0.0000 14.3398
#
#
#
# Elastic Compliance Matrix: (Units=1/GPa)
#
#
# Indices 1 2 3 4 5 6 
#
# 1 0.013018 -0.006768 -0.004614 0.000000 0.000000 0.000000
# 2 -0.006768 0.016068 -0.000778 0.000000 0.000000 0.000000
# 3 -0.004614 -0.000778 0.012999 0.000000 0.000000 0.000000
# 4 0.000000 0.000000 0.000000 0.043143 0.000000 0.000000
# 5 0.000000 0.000000 0.000000 0.000000 0.029194 0.000000
# 6 0.000000 0.000000 0.000000 0.000000 0.000000 0.069736
#
#
# Mechanical properties :
#
#
# Convention : Reuss Voigt Hill
#
# Bulk Modulus (GPa) = 56.29138 60.81831 58.55485
# Shear Modulus (GPa) = 23.32089 26.22781 24.77435
#
# Velocity S-wave (km/s) = 3.43179 3.63939 3.53712
# Velocity P-wave (km/s) = 6.64307 6.95513 6.80089
#
# Compressibility (1/GPa) = 0.01776471
#
# Stress axis : x y z
#
# Youngs Moduli (GPa) = 76.81798 62.23474 76.92722
#
# Poissons Ratio (x) = 0.42123 0.35494
# Poissons Ratio (y) = 0.51993 0.05985
# Poissons Ratio (z) = 0.35443 0.04842
#
# Static dielectric constant tensor:
#      x y z
#    x 3.804350 0.000000 0.000000 
#    y 0.000000 3.444250 0.000000 
#    z 0.000000 0.000000 3.882270 
# 
# 
# High freq. dielectric constant tensor:
#      x y z
#    x 1.786100 0.000000 0.000000 
#    y 0.000000 1.765550 0.000000 
#    z 0.000000 0.000000 1.778180 
# 
# From -- ./inp_files/18264.got.cif
#   From: 2010.03.12/outbox.cif.g09.slc.cpg/sg62_10_cif.got.tgz:18264.got - 2010.04.10 19:12:36.
