data_PCOD8255852
_publ_section_title
;
Structure prediction by ZEFSAII (Michael W. Deem and Ramdas Pophale) SiO2 
 PCOD8255852
Probable space group: C M C M
;
_chemical_formula_sum "Si O2"
_cell_formula_units_Z 112
_cell_length_a 25.717673
_cell_length_b 9.779774
_cell_length_c 27.472623
_cell_angle_alpha 90.000000
_cell_angle_beta 90.000000
_cell_angle_gamma 90.000000
_cell_volume 6909.722646
_symmetry_space_group_name_H-M "C M C M"
_symmetry_group_IT_number 63
_symmetry_cell_setting 'orthorhombic'
loop_
_space_group_symop_operation_xyz
x,y,z
-x,-y,1/2+z
x,-y,-z
-x,y,1/2-z
-x,-y,-z
x,y,1/2-z
-x,y,z
x,-y,1/2+z
1/2+x,1/2+y,z
1/2-x,1/2-y,1/2+z
1/2+x,1/2-y,-z
1/2-x,1/2+y,1/2-z
1/2-x,1/2-y,-z
1/2+x,1/2+y,1/2-z
1/2-x,1/2+y,z
1/2+x,1/2-y,1/2+z
loop_
_atom_site_type_symbol
_atom_site_label
_atom_site_fract_x
_atom_site_fract_y
_atom_site_fract_z
Si Si1 0.687986 0.190117 0.195570
Si Si2 0.942601 0.105477 0.432665
Si Si3 0.336674 0.546587 0.103692
Si Si4 0.348885 0.769270 0.905600
Si Si5 0.556777 0.292612 0.464268
Si Si6 0.254800 0.125279 0.464711
Si Si7 0.278201 0.511488 0.696179
O O1 0.662297 0.191908 0.250000
O O2 0.645122 0.195035 0.152263
O O3 0.724974 0.324172 0.189018
O O4 0.721198 0.052373 0.188724
O O5 0.893410 0.120197 0.396465
O O6 0.931749 0.207076 0.477957
O O7 0.000000 0.139691 0.409647
O O8 0.942781 0.949072 0.448451
O O9 0.336908 0.389882 0.086402
O O10 0.297842 0.620035 0.066555
O O11 0.317916 0.558732 0.159032
O O12 0.402401 0.800225 0.934258
O O13 0.302899 0.860598 0.927659
O O14 0.500000 0.228419 0.454056
O O15 0.250000 0.250000 0.500000
O O16 0.264710 0.000000 0.500000
O O17 0.299016 0.475534 0.750000
#
# Coordination Sequence:
#
# PCOD8255852 Si02
#       7
#    16  16  16  16  16  16  16
#     4   9  17  29  45  64  88 116 148 182 218 264
#     4   8  14  24  40  62  86 114 151 187 215 252
#     4  10  18  29  45  64  90 120 147 184 223 263
#     4  10  18  30  45  64  90 120 149 180 225 266
#     4   8  14  25  42  62  84 115 153 185 214 255
#     4  12  22  30  41  64  96 121 145 174 221 267
#     4   9  17  29  44  63  88 117 148 180 218 265
#
# _framework density 16.209045
#
# number of rings (size 3 to 8) (size 9 to 14) (size 15 to 20)
#    0.000    2.571    2.857    1.714    2.000    0.000 
#    0.000    0.000    0.000    1.286    0.000    6.000 
#    0.000    0.000    0.000    7.143    0.000    7.429 
#
# Total GULP energy -693796.130955 kJ/mol
# GULP energy per Si atom -12389.216624 kJ/mol
# Density = 1.617215 g / cm^3
# Si number density = 16.209045 Si / 1000 Ang^3
#
#
#
# Elastic Constant Matrix: (Units=GPa)
#
#
# Indices 1 2 3 4 5 6 
#
# 1 96.9658 10.7145 38.3773 0.0000 0.0000 0.0000
# 2 10.7145 36.0337 17.3012 0.0000 0.0000 0.0000
# 3 38.3773 17.3012 80.6319 0.0000 0.0000 0.0000
# 4 0.0000 0.0000 0.0000 18.0264 0.0000 0.0000
# 5 0.0000 0.0000 0.0000 0.0000 23.3904 0.0000
# 6 0.0000 0.0000 0.0000 0.0000 0.0000 12.8711
#
#
#
# Elastic Compliance Matrix: (Units=1/GPa)
#
#
# Indices 1 2 3 4 5 6 
#
# 1 0.012737 -0.000977 -0.005853 0.000000 0.000000 0.000000
# 2 -0.000977 0.031014 -0.006190 0.000000 0.000000 0.000000
# 3 -0.005853 -0.006190 0.016516 0.000000 0.000000 0.000000
# 4 0.000000 0.000000 0.000000 0.055474 0.000000 0.000000
# 5 0.000000 0.000000 0.000000 0.000000 0.042753 0.000000
# 6 0.000000 0.000000 0.000000 0.000000 0.000000 0.077693
#
#
# Mechanical properties :
#
#
# Convention : Reuss Voigt Hill
#
# Bulk Modulus (GPa) = 29.21572 38.49083 33.85328
# Shear Modulus (GPa) = 18.27245 20.67347 19.47296
#
# Velocity S-wave (km/s) = 3.36117 3.57519 3.46983
# Velocity P-wave (km/s) = 5.75558 6.39067 6.08142
#
# Compressibility (1/GPa) = 0.03422815
#
# Stress axis : x y z
#
# Youngs Moduli (GPa) = 78.50958 32.24326 60.54811
#
# Poissons Ratio (x) = 0.03151 0.35437
# Poissons Ratio (y) = 0.07673 0.37477
# Poissons Ratio (z) = 0.45949 0.19957
#
# Static dielectric constant tensor:
#      x y z
#    x 3.298570 0.000000 0.000000 
#    y 0.000000 2.793500 0.000000 
#    z 0.000000 0.000000 3.264250 
# 
# 
# High freq. dielectric constant tensor:
#      x y z
#    x 1.602470 0.000000 0.000000 
#    y 0.000000 1.592900 0.000000 
#    z 0.000000 0.000000 1.624200 
# 
# From -- ./inp_files/70791.got.cif
#   From: 2010.03.12/outbox.cif.g09.slc.cpg/sg63_36_cif.got.tgz:70791.got - 2010.04.10 19:34:48.
