data_PCOD8255759
_publ_section_title
;
Structure prediction by ZEFSAII (Michael W. Deem and Ramdas Pophale) SiO2 
 PCOD8255759
Probable space group: C M C M
;
_chemical_formula_sum "Si O2"
_cell_formula_units_Z 96
_cell_length_a 9.150445
_cell_length_b 30.297129
_cell_length_c 19.485602
_cell_angle_alpha 90.000000
_cell_angle_beta 90.000000
_cell_angle_gamma 90.000000
_cell_volume 5402.036556
_symmetry_space_group_name_H-M "C M C M"
_symmetry_group_IT_number 63
_symmetry_cell_setting 'orthorhombic'
loop_
_space_group_symop_operation_xyz
x,y,z
-x,-y,1/2+z
x,-y,-z
-x,y,1/2-z
-x,-y,-z
x,y,1/2-z
-x,y,z
x,-y,1/2+z
1/2+x,1/2+y,z
1/2-x,1/2-y,1/2+z
1/2+x,1/2-y,-z
1/2-x,1/2+y,1/2-z
1/2-x,1/2-y,-z
1/2+x,1/2+y,1/2-z
1/2-x,1/2+y,z
1/2+x,1/2-y,1/2+z
loop_
_atom_site_type_symbol
_atom_site_label
_atom_site_fract_x
_atom_site_fract_y
_atom_site_fract_z
Si Si1 0.325840 0.618945 0.438032
Si Si2 0.669988 0.786252 0.329051
Si Si3 0.174081 0.979787 0.570739
Si Si4 0.325915 0.553334 0.673055
Si Si5 0.826520 0.138475 0.590995
Si Si6 0.326307 0.313524 0.825973
O O1 0.500000 0.619379 0.436315
O O2 0.267159 0.569995 0.420193
O O3 0.270754 0.633264 0.513106
O O4 0.260226 0.652727 0.381827
O O5 0.702422 0.798284 0.250000
O O6 0.500000 0.792561 0.345653
O O7 0.762949 0.816838 0.378626
O O8 0.720800 0.736242 0.344562
O O9 0.000000 0.979861 0.568274
O O10 0.235358 0.000000 0.500000
O O11 0.231009 0.009765 0.633619
O O12 0.261969 0.552549 0.750000
O O13 0.500000 0.553791 0.674052
O O14 0.267903 0.596880 0.634569
O O15 0.000000 0.141032 0.594232
O O16 0.267561 0.326232 0.750000
O O17 0.500000 0.316177 0.825481
#
# Coordination Sequence:
#
# PCOD8255759 Si02
#       6
#    16  16  16  16  16  16
#     4   9  16  25  41  63  87 116 149 184 224 266
#     4   9  18  32  47  62  86 120 152 185 225 263
#     4   9  14  23  36  53  83 118 144 170 213 264
#     4   9  16  24  36  58  87 116 145 178 216 260
#     4  10  18  28  44  68  95 119 144 180 225 270
#     4   8  15  28  43  59  82 114 152 190 223 258
#
# _framework density 17.771075
#
# number of rings (size 3 to 8) (size 9 to 14) (size 15 to 20)
#    0.000    3.000    1.667    1.500    0.000    2.333 
#    0.000    3.333    0.000    0.000    0.000    2.333 
#    0.000    0.000    0.000    4.667    0.000    5.333 
#
# Total GULP energy -595016.360977 kJ/mol
# GULP energy per Si atom -12396.174187 kJ/mol
# Density = 1.773063 g / cm^3
# Si number density = 17.771075 Si / 1000 Ang^3
#
#
#
# Elastic Constant Matrix: (Units=GPa)
#
#
# Indices 1 2 3 4 5 6 
#
# 1 7.6729 15.1325 14.4309 0.0000 0.0000 0.0000
# 2 15.1325 168.2869 110.0588 0.0000 0.0000 0.0000
# 3 14.4309 110.0588 172.8995 0.0000 0.0000 0.0000
# 4 0.0000 0.0000 0.0000 42.4049 0.0000 0.0000
# 5 0.0000 0.0000 0.0000 0.0000 11.6009 0.0000
# 6 0.0000 0.0000 0.0000 0.0000 0.0000 15.4139
#
#
#
# Elastic Compliance Matrix: (Units=1/GPa)
#
#
# Indices 1 2 3 4 5 6 
#
# 1 0.163709 -0.009911 -0.007355 0.000000 0.000000 0.000000
# 2 -0.009911 0.010780 -0.006035 0.000000 0.000000 0.000000
# 3 -0.007355 -0.006035 0.010239 0.000000 0.000000 0.000000
# 4 0.000000 0.000000 0.000000 0.023582 0.000000 0.000000
# 5 0.000000 0.000000 0.000000 0.000000 0.086200 0.000000
# 6 0.000000 0.000000 0.000000 0.000000 0.000000 0.064877
#
#
# Mechanical properties :
#
#
# Convention : Reuss Voigt Hill
#
# Bulk Modulus (GPa) = 7.23973 69.78930 38.51452
# Shear Modulus (GPa) = 11.06118 27.83306 19.44712
#
# Velocity S-wave (km/s) = 2.49755 3.96182 3.31163
# Velocity P-wave (km/s) = 3.52133 7.76431 6.02845
#
# Compressibility (1/GPa) = 0.13812670
#
# Stress axis : x y z
#
# Youngs Moduli (GPa) = 6.10840 92.76237 97.66430
#
# Poissons Ratio (x) = 0.91932 0.71835
# Poissons Ratio (y) = 0.06054 0.58940
# Poissons Ratio (z) = 0.04493 0.55982
#
# Static dielectric constant tensor:
#      x y z
#    x 2.533120 0.000000 0.000000 
#    y 0.000000 3.524590 0.000000 
#    z 0.000000 0.000000 3.589150 
# 
# 
# High freq. dielectric constant tensor:
#      x y z
#    x 1.605400 0.000000 0.000000 
#    y 0.000000 1.701450 0.000000 
#    z 0.000000 0.000000 1.698060 
# 
# From -- ./inp_files/42472.got.cif
#   From: 2010.03.12/outbox.cif.g09.slc.cpg/sg63_22_cif.got.tgz:42472.got - 2010.04.10 19:34:48.
