data_PCOD8255976
_publ_section_title
;
Structure prediction by ZEFSAII (Michael W. Deem and Ramdas Pophale) SiO2 
 PCOD8255976
Probable space group: C M C M
;
_chemical_formula_sum "Si O2"
_cell_formula_units_Z 88
_cell_length_a 22.640693
_cell_length_b 24.441998
_cell_length_c 8.660986
_cell_angle_alpha 90.000000
_cell_angle_beta 90.000000
_cell_angle_gamma 90.000000
_cell_volume 4792.849111
_symmetry_space_group_name_H-M "C M C M"
_symmetry_group_IT_number 63
_symmetry_cell_setting 'orthorhombic'
loop_
_space_group_symop_operation_xyz
x,y,z
-x,-y,1/2+z
x,-y,-z
-x,y,1/2-z
-x,-y,-z
x,y,1/2-z
-x,y,z
x,-y,1/2+z
1/2+x,1/2+y,z
1/2-x,1/2-y,1/2+z
1/2+x,1/2-y,-z
1/2-x,1/2+y,1/2-z
1/2-x,1/2-y,-z
1/2+x,1/2+y,1/2-z
1/2-x,1/2+y,z
1/2+x,1/2-y,1/2+z
loop_
_atom_site_type_symbol
_atom_site_label
_atom_site_fract_x
_atom_site_fract_y
_atom_site_fract_z
Si Si1 0.653777 0.441783 0.931044
Si Si2 0.778198 0.441012 0.433240
Si Si3 0.611200 0.127621 0.933143
Si Si4 0.931119 0.144093 0.927737
Si Si5 0.500000 0.939934 0.066142
Si Si6 0.931127 0.742804 0.572345
O O1 0.662580 0.448555 0.750000
O O2 0.634548 0.500000 0.000000
O O3 0.715033 0.421089 0.004714
O O4 0.603092 0.398390 0.965741
O O5 0.795347 0.500000 0.500000
O O6 0.776094 0.445180 0.250000
O O7 0.826764 0.397279 0.490437
O O8 0.606910 0.127277 0.750000
O O9 0.557672 0.091181 0.998765
O O10 0.605282 0.190359 0.989938
O O11 0.915820 0.132944 0.750000
O O12 0.000000 0.136050 0.963083
O O13 0.911719 0.205545 0.970222
O O14 0.500000 0.942237 0.250000
O O15 0.500000 0.000000 0.000000
O O16 0.916243 0.756125 0.750000
O O17 0.000000 0.729019 0.552945
#
# Coordination Sequence:
#
# PCOD8255976 Si02
#       6
#    16  16  16  16   8  16
#     4  11  22  38  59  81 106 138 174 212 258 313
#     4  10  19  33  52  75 105 142 181 221 267 315
#     4   9  17  30  51  75 103 141 183 223 265 313
#     4  10  21  37  57  83 112 137 165 209 262 315
#     4  10  18  30  46  72 106 140 179 226 271 312
#     4   9  16  31  54  77 103 140 182 220 261 313
#
# _framework density 18.360686000000001
#
# number of rings (size 3 to 8) (size 9 to 14) (size 15 to 20)
#    0.000    2.182    0.909    4.364    0.000    1.455 
#    0.000    4.545    0.000    0.000    0.000    0.000 
#    0.000    0.000    0.000    0.000    0.000    0.000 
#
# Total GULP energy -545664.110582 kJ/mol
# GULP energy per Si atom -12401.457059 kJ/mol
# Density = 1.831890 g / cm^3
# Si number density = 18.360686 Si / 1000 Ang^3
#
#
#
# Elastic Constant Matrix: (Units=GPa)
#
#
# Indices 1 2 3 4 5 6 
#
# 1 93.1013 74.1351 32.8101 0.0000 0.0000 0.0000
# 2 74.1351 125.1384 29.9682 0.0000 0.0000 0.0000
# 3 32.8101 29.9682 68.4899 0.0000 0.0000 0.0000
# 4 0.0000 0.0000 0.0000 30.3393 0.0000 0.0000
# 5 0.0000 0.0000 0.0000 0.0000 20.5412 0.0000
# 6 0.0000 0.0000 0.0000 0.0000 0.0000 33.6342
#
#
#
# Elastic Compliance Matrix: (Units=1/GPa)
#
#
# Indices 1 2 3 4 5 6 
#
# 1 0.021985 -0.011732 -0.005399 0.000000 0.000000 0.000000
# 2 -0.011732 0.015187 -0.001025 0.000000 0.000000 0.000000
# 3 -0.005399 -0.001025 0.017635 0.000000 0.000000 0.000000
# 4 0.000000 0.000000 0.000000 0.032961 0.000000 0.000000
# 5 0.000000 0.000000 0.000000 0.000000 0.048683 0.000000
# 6 0.000000 0.000000 0.000000 0.000000 0.000000 0.029732
#
#
# Mechanical properties :
#
#
# Convention : Reuss Voigt Hill
#
# Bulk Modulus (GPa) = 54.06406 62.28405 58.17405
# Shear Modulus (GPa) = 23.96252 26.89070 25.42661
#
# Velocity S-wave (km/s) = 3.61654 3.83114 3.72538
# Velocity P-wave (km/s) = 6.85190 7.31890 7.08925
#
# Compressibility (1/GPa) = 0.01849658
#
# Stress axis : x y z
#
# Youngs Moduli (GPa) = 45.48465 65.84657 56.70396
#
# Poissons Ratio (x) = 0.77250 0.30613
# Poissons Ratio (y) = 0.53362 0.05812
# Poissons Ratio (z) = 0.24556 0.06749
#
# Static dielectric constant tensor:
#      x y z
#    x 3.409730 0.000000 0.000000 
#    y 0.000000 3.450130 0.000000 
#    z 0.000000 0.000000 3.237670 
# 
# 
# High freq. dielectric constant tensor:
#      x y z
#    x 1.704070 0.000000 0.000000 
#    y 0.000000 1.716840 0.000000 
#    z 0.000000 0.000000 1.701740 
# 
# From -- ./inp_files/8217.got.cif
#   From: 2010.03.12/outbox.cif.g09.slc.cpg/sg63_5_cif.got.tgz:8217.got - 2010.04.10 19:34:48.
