data_PCOD8255447
_publ_section_title
;
Structure prediction by ZEFSAII (Michael W. Deem and Ramdas Pophale) SiO2 
 PCOD8255447
Probable space group: C M C M
;
_chemical_formula_sum "Si O2"
_cell_formula_units_Z 112
_cell_length_a 18.365541
_cell_length_b 19.599622
_cell_length_c 18.825485
_cell_angle_alpha 90.000000
_cell_angle_beta 90.000000
_cell_angle_gamma 90.000000
_cell_volume 6776.377556
_symmetry_space_group_name_H-M "C M C M"
_symmetry_group_IT_number 63
_symmetry_cell_setting 'orthorhombic'
loop_
_space_group_symop_operation_xyz
x,y,z
-x,-y,1/2+z
x,-y,-z
-x,y,1/2-z
-x,-y,-z
x,y,1/2-z
-x,y,z
x,-y,1/2+z
1/2+x,1/2+y,z
1/2-x,1/2-y,1/2+z
1/2+x,1/2-y,-z
1/2-x,1/2+y,1/2-z
1/2-x,1/2-y,-z
1/2+x,1/2+y,1/2-z
1/2-x,1/2+y,z
1/2+x,1/2-y,1/2+z
loop_
_atom_site_type_symbol
_atom_site_label
_atom_site_fract_x
_atom_site_fract_y
_atom_site_fract_z
Si Si1 0.080165 0.629950 0.895970
Si Si2 0.703129 0.550148 0.064066
Si Si3 0.416561 0.398886 0.831259
Si Si4 0.233119 0.695831 0.439704
Si Si5 0.353428 0.992726 0.915250
Si Si6 0.655672 0.258618 0.831177
Si Si7 0.920357 0.356623 0.936943
O O1 0.115580 0.557929 0.873579
O O2 0.129446 0.691065 0.869726
O O3 0.000000 0.635859 0.861461
O O4 0.074727 0.630374 0.979906
O O5 0.634125 0.558358 0.115611
O O6 0.734219 0.622814 0.034479
O O7 0.769667 0.517824 0.109504
O O8 0.679323 0.500000 0.000000
O O9 0.399081 0.420191 0.750000
O O10 0.500000 0.414861 0.850746
O O11 0.404240 0.317884 0.840512
O O12 0.250000 0.750000 0.500000
O O13 0.268989 0.717239 0.365624
O O14 0.146329 0.695233 0.423761
O O15 0.403653 0.927645 0.896269
O O16 0.351162 0.000000 0.000000
O O17 0.671671 0.241571 0.750000
O O18 0.000000 0.328944 0.910670
#
# Coordination Sequence:
#
# PCOD8255447 Si02
#       7
#    16  16  16  16  16  16  16
#     4  10  17  26  45  72 102 130 158 193 241 296
#     4   9  18  30  49  71  97 129 162 206 245 289
#     4   9  18  33  50  68  94 128 164 204 253 303
#     4  10  18  32  51  72  99 131 165 207 242 290
#     4   8  15  27  43  66  99 131 157 189 232 289
#     4  10  20  32  48  71  99 132 164 200 249 301
#     4   9  16  27  46  73  99 126 161 200 243 286
#
# _framework density 16.528005
#
# number of rings (size 3 to 8) (size 9 to 14) (size 15 to 20)
#    0.000    2.714    1.429    1.714    0.000    2.857 
#    0.000    0.714    0.000    1.286    0.000    0.000 
#    0.000    0.000    0.000    0.000    0.000    0.000 
#
# Total GULP energy -694028.345657 kJ/mol
# GULP energy per Si atom -12393.363315 kJ/mol
# Density = 1.649039 g / cm^3
# Si number density = 16.528005 Si / 1000 Ang^3
#
#
#
# Elastic Constant Matrix: (Units=GPa)
#
#
# Indices 1 2 3 4 5 6 
#
# 1 153.5976 54.6122 36.4193 0.0000 0.0000 0.0000
# 2 54.6122 92.1030 28.2485 0.0000 0.0000 0.0000
# 3 36.4193 28.2485 40.3008 0.0000 0.0000 0.0000
# 4 0.0000 0.0000 0.0000 13.0593 0.0000 0.0000
# 5 0.0000 0.0000 0.0000 0.0000 16.6840 0.0000
# 6 0.0000 0.0000 0.0000 0.0000 0.0000 23.2463
#
#
#
# Elastic Compliance Matrix: (Units=1/GPa)
#
#
# Indices 1 2 3 4 5 6 
#
# 1 0.009175 -0.003691 -0.005705 0.000000 0.000000 0.000000
# 2 -0.003691 0.015316 -0.007400 0.000000 0.000000 0.000000
# 3 -0.005705 -0.007400 0.035155 0.000000 0.000000 0.000000
# 4 0.000000 0.000000 0.000000 0.076574 0.000000 0.000000
# 5 0.000000 0.000000 0.000000 0.000000 0.059938 0.000000
# 6 0.000000 0.000000 0.000000 0.000000 0.000000 0.043018
#
#
# Mechanical properties :
#
#
# Convention : Reuss Voigt Hill
#
# Bulk Modulus (GPa) = 38.37938 58.28458 48.33198
# Shear Modulus (GPa) = 17.76506 21.71269 19.73887
#
# Velocity S-wave (km/s) = 3.28204 3.62842 3.45957
# Velocity P-wave (km/s) = 6.13462 7.27287 6.72786
#
# Compressibility (1/GPa) = 0.02605566
#
# Stress axis : x y z
#
# Youngs Moduli (GPa) = 108.98652 65.29330 28.44508
#
# Poissons Ratio (x) = 0.24099 0.16227
# Poissons Ratio (y) = 0.40226 0.21049
# Poissons Ratio (z) = 0.62172 0.48316
#
# Static dielectric constant tensor:
#      x y z
#    x 3.086390 0.000000 0.000000 
#    y 0.000000 3.196250 0.000000 
#    z 0.000000 0.000000 2.796250 
# 
# 
# High freq. dielectric constant tensor:
#      x y z
#    x 1.647520 0.000000 0.000000 
#    y 0.000000 1.630770 0.000000 
#    z 0.000000 0.000000 1.594530 
# 
# From -- ./inp_files/46081.got.cif
#   From: 2010.03.12/outbox.cif.g09.slc.cpg/sg63_24_cif.got.tgz:46081.got - 2010.04.10 19:34:48.
