data_PCOD8255059
_publ_section_title
;
Structure prediction by ZEFSAII (Michael W. Deem and Ramdas Pophale) SiO2 
 PCOD8255059
Probable space group: P N M A
;
_chemical_formula_sum "Si O2"
_cell_formula_units_Z 56
_cell_length_a 20.556324
_cell_length_b 9.438693
_cell_length_c 18.289422
_cell_angle_alpha 90.000000
_cell_angle_beta 90.000000
_cell_angle_gamma 90.000000
_cell_volume 3548.602021
_symmetry_space_group_name_H-M "P N M A"
_symmetry_group_IT_number 62
_symmetry_cell_setting 'orthorhombic'
loop_
_space_group_symop_operation_xyz
x,y,z
1/2-x,-y,1/2+z
1/2+x,1/2-y,1/2-z
-x,1/2+y,-z
-x,-y,-z
1/2+x,y,1/2-z
1/2-x,1/2+y,1/2+z
x,1/2-y,z
loop_
_atom_site_type_symbol
_atom_site_label
_atom_site_fract_x
_atom_site_fract_y
_atom_site_fract_z
Si Si1 0.316460 0.405866 0.705497
Si Si2 0.738306 0.084102 0.414211
Si Si3 0.881869 0.082942 0.647659
Si Si4 0.627952 0.587140 0.837858
Si Si5 0.178403 0.407908 0.784152
Si Si6 0.497345 0.581880 0.924137
Si Si7 0.751995 0.581416 0.077264
O O1 0.331913 0.250000 0.674332
O O2 0.316374 0.513136 0.637208
O O3 0.369893 0.447378 0.766282
O O4 0.247167 0.405219 0.744188
O O5 0.725629 0.250000 0.411437
O O6 0.810581 0.044450 0.387574
O O7 0.730865 0.024664 0.496585
O O8 0.896488 0.250000 0.633830
O O9 0.819956 0.030745 0.600389
O O10 0.941018 0.983619 0.625181
O O11 0.630982 0.750000 0.815877
O O12 0.627792 0.503087 0.761036
O O13 0.564425 0.549671 0.883308
O O14 0.148839 0.250000 0.788806
O O15 0.192492 0.471215 0.865498
O O16 0.486917 0.750000 0.936346
O O17 0.500000 0.500000 0.000000
O O18 0.750926 0.750000 0.079859
#
# Coordination Sequence:
#
# PCOD8255059 Si02
#       7
#     8   8   8   8   8   8   8
#     4   8  15  27  42  61  85 111 139 174 214 252
#     4   9  15  25  43  63  85 113 141 169 207 256
#     4   9  17  31  47  61  85 119 148 175 211 253
#     4   9  18  30  42  59  86 117 143 171 209 248
#     4   8  14  26  44  62  81 109 144 176 207 252
#     4  11  22  33  45  63  88 117 149 180 209 246
#     4   8  14  26  44  65  88 114 141 173 217 259
#
# _framework density 15.780862000000001
#
# number of rings (size 3 to 8) (size 9 to 14) (size 15 to 20)
#    0.000    3.143    0.000    3.000    0.000    4.000 
#    0.000    6.429    0.000    0.000    0.000    1.000 
#    0.000    0.000    0.000    0.000    0.000    0.000 
#
# Total GULP energy -694046.047104 kJ/mol
# GULP energy per Si atom -12393.679413 kJ/mol
# Density = 1.574494 g / cm^3
# Si number density = 15.780862 Si / 1000 Ang^3
#
#
#
# Elastic Constant Matrix: (Units=GPa)
#
#
# Indices 1 2 3 4 5 6 
#
# 1 59.2680 42.6837 52.0512 0.0000 0.0000 0.0000
# 2 42.6837 66.9455 63.2024 0.0000 0.0000 0.0000
# 3 52.0512 63.2024 145.0950 0.0000 0.0000 0.0000
# 4 0.0000 0.0000 0.0000 27.4599 0.0000 0.0000
# 5 0.0000 0.0000 0.0000 0.0000 23.3775 0.0000
# 6 0.0000 0.0000 0.0000 0.0000 0.0000 23.0221
#
#
#
# Elastic Compliance Matrix: (Units=1/GPa)
#
#
# Indices 1 2 3 4 5 6 
#
# 1 0.032856 -0.016680 -0.004521 0.000000 0.000000 0.000000
# 2 -0.016680 0.033840 -0.008756 0.000000 0.000000 0.000000
# 3 -0.004521 -0.008756 0.012328 0.000000 0.000000 0.000000
# 4 0.000000 0.000000 0.000000 0.036417 0.000000 0.000000
# 5 0.000000 0.000000 0.000000 0.000000 0.042776 0.000000
# 6 0.000000 0.000000 0.000000 0.000000 0.000000 0.043436
#
#
# Mechanical properties :
#
#
# Convention : Reuss Voigt Hill
#
# Bulk Modulus (GPa) = 52.33356 65.24256 58.78806
# Shear Modulus (GPa) = 18.66110 22.33000 20.49555
#
# Velocity S-wave (km/s) = 3.44250 3.76574 3.60774
# Velocity P-wave (km/s) = 7.00255 7.76790 7.39513
#
# Compressibility (1/GPa) = 0.01910820
#
# Stress axis : x y z
#
# Youngs Moduli (GPa) = 30.43614 29.55120 81.11615
#
# Poissons Ratio (x) = 0.49293 0.36670
# Poissons Ratio (y) = 0.50769 0.71028
# Poissons Ratio (z) = 0.13759 0.25876
#
# Static dielectric constant tensor:
#      x y z
#    x 2.783770 0.000000 0.000000 
#    y 0.000000 2.993680 0.000000 
#    z 0.000000 0.000000 3.350010 
# 
# 
# High freq. dielectric constant tensor:
#      x y z
#    x 1.567110 0.000000 0.000000 
#    y 0.000000 1.594910 0.000000 
#    z 0.000000 0.000000 1.611650 
# 
# From -- ./inp_files/24592.got.cif
#   From: 2010.03.12/outbox.cif.g09.slc.cpg/sg62_13_cif.got.tgz:24592.got - 2010.04.10 19:12:36.
