data_PCOD8255910
_publ_section_title
;
Structure prediction by ZEFSAII (Michael W. Deem and Ramdas Pophale) SiO2 
 PCOD8255910
Probable space group: C M C M
;
_chemical_formula_sum "Si O2"
_cell_formula_units_Z 80
_cell_length_a 30.033807
_cell_length_b 16.427184
_cell_length_c 9.498360
_cell_angle_alpha 90.000000
_cell_angle_beta 90.000000
_cell_angle_gamma 90.000000
_cell_volume 4686.214173
_symmetry_space_group_name_H-M "C M C M"
_symmetry_group_IT_number 63
_symmetry_cell_setting 'orthorhombic'
loop_
_space_group_symop_operation_xyz
x,y,z
-x,-y,1/2+z
x,-y,-z
-x,y,1/2-z
-x,-y,-z
x,y,1/2-z
-x,y,z
x,-y,1/2+z
1/2+x,1/2+y,z
1/2-x,1/2-y,1/2+z
1/2+x,1/2-y,-z
1/2-x,1/2+y,1/2-z
1/2-x,1/2-y,-z
1/2+x,1/2+y,1/2-z
1/2-x,1/2+y,z
1/2+x,1/2-y,1/2+z
loop_
_atom_site_type_symbol
_atom_site_label
_atom_site_fract_x
_atom_site_fract_y
_atom_site_fract_z
Si Si1 0.919264 0.362464 0.407343
Si Si2 0.340546 0.749534 0.411836
Si Si3 0.691961 0.423847 0.913720
Si Si4 0.142748 0.500000 0.000000
Si Si5 0.500000 0.085535 0.080142
Si Si6 0.289003 0.872767 0.907418
O O1 0.940105 0.354993 0.250000
O O2 0.889854 0.283267 0.445150
O O3 0.888533 0.443072 0.404449
O O4 0.956571 0.365788 0.528500
O O5 0.328297 0.765326 0.250000
O O6 0.339094 0.653945 0.447624
O O7 0.303160 0.796658 0.498801
O O8 0.690866 0.446521 0.750000
O O9 0.742254 0.406315 0.965408
O O10 0.672528 0.500000 0.000000
O O11 0.174000 0.556249 0.096369
O O12 0.500000 0.075466 0.250000
O O13 0.500000 0.000000 0.000000
O O14 0.282338 0.839698 0.750000
#
# Coordination Sequence:
#
# PCOD8255910 Si02
#       6
#    16  16  16   8   8  16
#     4  10  20  34  52  73 103 136 168 205 251 301
#     4   9  20  35  51  72 100 133 170 213 258 305
#     4  10  20  34  50  72 100 133 174 217 260 300
#     4  10  18  29  48  72 104 138 178 207 244 288
#     4  12  24  36  54  78 105 132 165 204 247 302
#     4  10  19  30  47  71 100 135 177 217 252 293
#
# _framework density 17.071351
#
# number of rings (size 3 to 8) (size 9 to 14) (size 15 to 20)
#    0.000    2.000    2.000    2.100    0.000    5.600 
#    0.000    0.000    0.000    0.000    0.000    0.700 
#    0.000    0.000    0.000    0.000    0.000    0.000 
#
# Total GULP energy -495964.313710 kJ/mol
# GULP energy per Si atom -12399.107843 kJ/mol
# Density = 1.703250 g / cm^3
# Si number density = 17.071351 Si / 1000 Ang^3
#
#
#
# Elastic Constant Matrix: (Units=GPa)
#
#
# Indices 1 2 3 4 5 6 
#
# 1 80.9996 48.7805 38.0960 0.0000 0.0000 0.0000
# 2 48.7805 122.6303 52.0695 0.0000 0.0000 0.0000
# 3 38.0960 52.0695 89.9043 0.0000 0.0000 0.0000
# 4 0.0000 0.0000 0.0000 26.9616 0.0000 0.0000
# 5 0.0000 0.0000 0.0000 0.0000 24.0057 0.0000
# 6 0.0000 0.0000 0.0000 0.0000 0.0000 17.8399
#
#
#
# Elastic Compliance Matrix: (Units=1/GPa)
#
#
# Indices 1 2 3 4 5 6 
#
# 1 0.017501 -0.005056 -0.004488 0.000000 0.000000 0.000000
# 2 -0.005056 0.012275 -0.004967 0.000000 0.000000 0.000000
# 3 -0.004488 -0.004967 0.015901 0.000000 0.000000 0.000000
# 4 0.000000 0.000000 0.000000 0.037090 0.000000 0.000000
# 5 0.000000 0.000000 0.000000 0.000000 0.041657 0.000000
# 6 0.000000 0.000000 0.000000 0.000000 0.000000 0.056054
#
#
# Mechanical properties :
#
#
# Convention : Reuss Voigt Hill
#
# Bulk Modulus (GPa) = 60.03774 63.49180 61.76477
# Shear Modulus (GPa) = 23.25032 24.06733 23.65883
#
# Velocity S-wave (km/s) = 3.69446 3.75881 3.72678
# Velocity P-wave (km/s) = 7.31053 7.49073 7.40118
#
# Compressibility (1/GPa) = 0.01665619
#
# Stress axis : x y z
#
# Youngs Moduli (GPa) = 57.13805 81.46802 62.88932
#
# Poissons Ratio (x) = 0.41193 0.28222
# Poissons Ratio (y) = 0.28891 0.31234
# Poissons Ratio (z) = 0.25641 0.40461
#
# Static dielectric constant tensor:
#      x y z
#    x 3.187030 0.000000 0.000000 
#    y 0.000000 3.205400 0.000000 
#    z 0.000000 0.000000 3.109980 
# 
# 
# High freq. dielectric constant tensor:
#      x y z
#    x 1.639360 0.000000 0.000000 
#    y 0.000000 1.644020 0.000000 
#    z 0.000000 0.000000 1.659980 
# 
# From -- ./inp_files/14070.got.cif
#   From: 2010.03.12/outbox.cif.g09.slc.cpg/sg63_8_cif.got.tgz:14070.got - 2010.04.10 19:34:48.
