data_PCOD8255237
_publ_section_title
;
Structure prediction by ZEFSAII (Michael W. Deem and Ramdas Pophale) SiO2 
 PCOD8255237
Probable space group: P N M A
;
_chemical_formula_sum "Si O2"
_cell_formula_units_Z 40
_cell_length_a 15.584863
_cell_length_b 9.647523
_cell_length_c 11.796720
_cell_angle_alpha 90.000000
_cell_angle_beta 90.000000
_cell_angle_gamma 90.000000
_cell_volume 1773.699661
_symmetry_space_group_name_H-M "P N M A"
_symmetry_group_IT_number 62
_symmetry_cell_setting 'orthorhombic'
loop_
_space_group_symop_operation_xyz
x,y,z
1/2-x,-y,1/2+z
1/2+x,1/2-y,1/2-z
-x,1/2+y,-z
-x,-y,-z
1/2+x,y,1/2-z
1/2-x,1/2+y,1/2+z
x,1/2-y,z
loop_
_atom_site_type_symbol
_atom_site_label
_atom_site_fract_x
_atom_site_fract_y
_atom_site_fract_z
Si Si1 0.353933 0.750000 0.525635
Si Si2 0.180658 0.750000 0.628802
Si Si3 0.014671 0.250000 0.832162
Si Si4 0.828883 0.750000 0.270671
Si Si5 0.302647 0.750000 0.967573
Si Si6 0.578492 0.027229 0.306800
Si Si7 0.488144 0.750000 0.850474
Si Si8 0.746322 0.972785 0.699629
O O1 0.248811 0.750000 0.523948
O O2 0.398565 0.750000 0.405975
O O3 0.387766 0.614084 0.588357
O O4 0.080991 0.750000 0.585157
O O5 0.199135 0.615976 0.704351
O O6 0.066060 0.250000 0.711649
O O7 0.960546 0.386259 0.855418
O O8 0.789008 0.750000 0.396908
O O9 0.803262 0.617109 0.193076
O O10 0.404136 0.750000 0.932111
O O11 0.253120 0.614390 0.918169
O O12 0.511832 0.115012 0.230693
O O13 0.657064 0.986317 0.228285
#
# Coordination Sequence:
#
# PCOD8255237 Si02
#       8
#     4   4   4   4   4   8   4   8
#     4   9  20  36  57  83 118 160 201 246 311 364
#     4   9  17  36  63  90 119 161 207 251 306 370
#     4  12  22  34  53  89 123 151 200 261 301 356
#     4  12  24  38  61  97 127 157 208 257 301 368
#     4   9  22  44  65  87 124 166 199 248 315 362
#     4   9  19  37  59  81 113 158 203 247 301 361
#     4   9  17  38  65  84 111 155 201 243 300 372
#     4   9  20  40  62  86 120 161 204 254 302 361
#
# _framework density 22.551731
#
# number of rings (size 3 to 8) (size 9 to 14) (size 15 to 20)
#    0.000    2.400    0.000    4.800    0.000    3.200 
#    0.000   22.000    0.000    0.000    0.000    0.000 
#    0.000    0.000    0.000    0.000    0.000    0.000 
#
# Total GULP energy -495529.921520 kJ/mol
# GULP energy per Si atom -12388.248038 kJ/mol
# Density = 2.250040 g / cm^3
# Si number density = 22.551731 Si / 1000 Ang^3
#
#
#
# Elastic Constant Matrix: (Units=GPa)
#
#
# Indices 1 2 3 4 5 6 
#
# 1 118.0348 59.6703 16.8269 0.0000 0.0000 0.0000
# 2 59.6703 173.0276 26.0900 0.0000 0.0000 0.0000
# 3 16.8269 26.0900 59.3102 0.0000 0.0000 0.0000
# 4 0.0000 0.0000 0.0000 14.4036 0.0000 0.0000
# 5 0.0000 0.0000 0.0000 0.0000 23.5929 0.0000
# 6 0.0000 0.0000 0.0000 0.0000 0.0000 27.4690
#
#
#
# Elastic Compliance Matrix: (Units=1/GPa)
#
#
# Indices 1 2 3 4 5 6 
#
# 1 0.010379 -0.003358 -0.001467 0.000000 0.000000 0.000000
# 2 -0.003358 0.007276 -0.002248 0.000000 0.000000 0.000000
# 3 -0.001467 -0.002248 0.018266 0.000000 0.000000 0.000000
# 4 0.000000 0.000000 0.000000 0.069427 0.000000 0.000000
# 5 0.000000 0.000000 0.000000 0.000000 0.042386 0.000000
# 6 0.000000 0.000000 0.000000 0.000000 0.000000 0.036405
#
#
# Mechanical properties :
#
#
# Convention : Reuss Voigt Hill
#
# Bulk Modulus (GPa) = 45.92649 61.72745 53.82697
# Shear Modulus (GPa) = 24.32574 29.61213 26.96893
#
# Velocity S-wave (km/s) = 3.28787 3.62757 3.46189
# Velocity P-wave (km/s) = 5.90107 6.70646 6.31661
#
# Compressibility (1/GPa) = 0.02177393
#
# Stress axis : x y z
#
# Youngs Moduli (GPa) = 96.34991 137.42977 54.74723
#
# Poissons Ratio (x) = 0.46149 0.08034
# Poissons Ratio (y) = 0.32354 0.12308
# Poissons Ratio (z) = 0.14139 0.30896
#
# Static dielectric constant tensor:
#      x y z
#    x 4.072290 0.000000 0.000000 
#    y 0.000000 4.239780 0.000000 
#    z 0.000000 0.000000 3.696060 
# 
# 
# High freq. dielectric constant tensor:
#      x y z
#    x 1.896490 0.000000 0.000000 
#    y 0.000000 1.901470 0.000000 
#    z 0.000000 0.000000 1.862260 
# 
# From -- ./inp_files/13943.got.cif
#   From: 2010.03.12/outbox.cif.g09.slc.cpg/sg62_7_cif.got.tgz:13943.got - 2010.04.10 19:12:36.
