data_PCOD8255565
_publ_section_title
;
Structure prediction by ZEFSAII (Michael W. Deem and Ramdas Pophale) SiO2 
 PCOD8255565
Probable space group: C M C M
;
_chemical_formula_sum "Si O2"
_cell_formula_units_Z 128
_cell_length_a 21.589115
_cell_length_b 20.825481
_cell_length_c 18.371680
_cell_angle_alpha 90.000000
_cell_angle_beta 90.000000
_cell_angle_gamma 90.000000
_cell_volume 8259.975381
_symmetry_space_group_name_H-M "C M C M"
_symmetry_group_IT_number 63
_symmetry_cell_setting 'orthorhombic'
loop_
_space_group_symop_operation_xyz
x,y,z
-x,-y,1/2+z
x,-y,-z
-x,y,1/2-z
-x,-y,-z
x,y,1/2-z
-x,y,z
x,-y,1/2+z
1/2+x,1/2+y,z
1/2-x,1/2-y,1/2+z
1/2+x,1/2-y,-z
1/2-x,1/2+y,1/2-z
1/2-x,1/2-y,-z
1/2+x,1/2+y,1/2-z
1/2-x,1/2+y,z
1/2+x,1/2-y,1/2+z
loop_
_atom_site_type_symbol
_atom_site_label
_atom_site_fract_x
_atom_site_fract_y
_atom_site_fract_z
Si Si1 0.237964 0.780557 0.668293
Si Si2 0.832985 0.184761 0.605630
Si Si3 0.166440 0.857015 0.557096
Si Si4 0.342070 0.888600 0.830292
Si Si5 0.236761 0.469189 0.925457
Si Si6 0.834379 0.043858 0.664604
Si Si7 0.927696 0.036395 0.424460
Si Si8 0.929544 0.281117 0.664365
O O1 0.214593 0.764186 0.750000
O O2 0.269560 0.717615 0.633291
O O3 0.179626 0.804274 0.619975
O O4 0.287167 0.837244 0.671727
O O5 0.831195 0.178952 0.519220
O O6 0.843097 0.118082 0.646670
O O7 0.893194 0.226460 0.622230
O O8 0.218809 0.910784 0.555212
O O9 0.100467 0.891680 0.570925
O O10 0.351425 0.918259 0.750000
O O11 0.403985 0.851888 0.856402
O O12 0.325353 0.945918 0.884874
O O13 0.272486 0.519748 0.875052
O O14 0.213605 0.500000 0.000000
O O15 0.826633 0.032565 0.750000
O O16 0.894527 0.004188 0.638754
O O17 0.000000 0.042062 0.406015
O O18 0.915323 0.000000 0.500000
O O19 0.920375 0.269441 0.750000
O O20 0.000000 0.277334 0.639297
#
# Coordination Sequence:
#
# PCOD8255565 Si02
#       8
#    16  16  16  16  16  16  16  16
#     4   9  18  30  46  67  92 119 151 193 232 270
#     4  11  18  30  45  70  98 124 147 182 228 282
#     4  10  18  31  49  66  88 125 160 187 228 272
#     4   8  15  28  46  65  86 115 149 183 221 260
#     4  10  17  30  45  66  92 118 149 184 225 266
#     4  11  20  30  46  68  95 124 153 185 229 276
#     4  10  20  35  48  62  91 127 163 198 227 261
#     4   9  18  31  46  65  90 118 148 182 219 263
#
# _framework density 15.496414
#
# number of rings (size 3 to 8) (size 9 to 14) (size 15 to 20)
#    0.000    2.250    2.500    3.375    0.000    4.250 
#    0.000    0.000    0.000    0.375    0.000    0.000 
#    0.000    0.000    0.000    0.000    0.000    0.000 
#
# Total GULP energy -793537.772254 kJ/mol
# GULP energy per Si atom -12399.027691 kJ/mol
# Density = 1.546114 g / cm^3
# Si number density = 15.496414 Si / 1000 Ang^3
#
#
#
# Elastic Constant Matrix: (Units=GPa)
#
#
# Indices 1 2 3 4 5 6 
#
# 1 64.8082 43.1340 45.2862 0.0000 0.0000 0.0000
# 2 43.1340 70.3465 55.5700 0.0000 0.0000 0.0000
# 3 45.2862 55.5700 125.5689 0.0000 0.0000 0.0000
# 4 0.0000 0.0000 0.0000 27.6011 0.0000 0.0000
# 5 0.0000 0.0000 0.0000 0.0000 15.5700 0.0000
# 6 0.0000 0.0000 0.0000 0.0000 0.0000 13.7526
#
#
#
# Elastic Compliance Matrix: (Units=1/GPa)
#
#
# Indices 1 2 3 4 5 6 
#
# 1 0.027159 -0.013707 -0.003729 0.000000 0.000000 0.000000
# 2 -0.013707 0.028774 -0.007790 0.000000 0.000000 0.000000
# 3 -0.003729 -0.007790 0.012756 0.000000 0.000000 0.000000
# 4 0.000000 0.000000 0.000000 0.036230 0.000000 0.000000
# 5 0.000000 0.000000 0.000000 0.000000 0.064226 0.000000
# 6 0.000000 0.000000 0.000000 0.000000 0.000000 0.072714
#
#
# Mechanical properties :
#
#
# Convention : Reuss Voigt Hill
#
# Bulk Modulus (GPa) = 54.83567 60.96709 57.90138
# Shear Modulus (GPa) = 16.75658 19.16697 17.96178
#
# Velocity S-wave (km/s) = 3.29191 3.52072 3.40824
# Velocity P-wave (km/s) = 7.06483 7.48034 7.27555
#
# Compressibility (1/GPa) = 0.01823631
#
# Stress axis : x y z
#
# Youngs Moduli (GPa) = 36.82066 34.75344 78.39417
#
# Poissons Ratio (x) = 0.47638 0.29230
# Poissons Ratio (y) = 0.50471 0.61072
# Poissons Ratio (z) = 0.13729 0.27074
#
# Static dielectric constant tensor:
#      x y z
#    x 2.898400 0.000000 0.000000 
#    y 0.000000 2.994570 0.000000 
#    z 0.000000 0.000000 3.112190 
# 
# 
# High freq. dielectric constant tensor:
#      x y z
#    x 1.566250 0.000000 0.000000 
#    y 0.000000 1.585660 0.000000 
#    z 0.000000 0.000000 1.602440 
# 
# From -- ./inp_files/48456.got.cif
#   From: 2010.03.12/outbox.cif.g09.slc.cpg/sg63_25_cif.got.tgz:48456.got - 2010.04.10 19:34:48.
