data_PCOD8255887
_publ_section_title
;
Structure prediction by ZEFSAII (Michael W. Deem and Ramdas Pophale) SiO2 
 PCOD8255887
Probable space group: C M C M
;
_chemical_formula_sum "Si O2"
_cell_formula_units_Z 96
_cell_length_a 9.236385
_cell_length_b 26.797799
_cell_length_c 22.745865
_cell_angle_alpha 90.000000
_cell_angle_beta 90.000000
_cell_angle_gamma 90.000000
_cell_volume 5629.937970
_symmetry_space_group_name_H-M "C M C M"
_symmetry_group_IT_number 63
_symmetry_cell_setting 'orthorhombic'
loop_
_space_group_symop_operation_xyz
x,y,z
-x,-y,1/2+z
x,-y,-z
-x,y,1/2-z
-x,-y,-z
x,y,1/2-z
-x,y,z
x,-y,1/2+z
1/2+x,1/2+y,z
1/2-x,1/2-y,1/2+z
1/2+x,1/2-y,-z
1/2-x,1/2+y,1/2-z
1/2-x,1/2-y,-z
1/2+x,1/2+y,1/2-z
1/2-x,1/2+y,z
1/2+x,1/2-y,1/2+z
loop_
_atom_site_type_symbol
_atom_site_label
_atom_site_fract_x
_atom_site_fract_y
_atom_site_fract_z
Si Si1 0.168213 0.602034 0.545428
Si Si2 0.829933 0.701455 0.477618
Si Si3 0.664743 0.347151 0.874495
Si Si4 0.661057 0.554923 0.445106
Si Si5 0.672929 0.507756 0.250000
Si Si6 0.166720 0.041324 0.869232
Si Si7 0.328159 0.620321 0.250000
O O1 0.203868 0.658236 0.524984
O O2 0.222543 0.564124 0.495527
O O3 0.246933 0.589967 0.607378
O O4 0.000000 0.593476 0.554500
O O5 0.750000 0.750000 0.500000
O O6 0.768632 0.687336 0.413493
O O7 0.000000 0.711414 0.471442
O O8 0.500000 0.326848 0.879698
O O9 0.672827 0.404515 0.893878
O O10 0.720763 0.347845 0.807106
O O11 0.500000 0.556958 0.473463
O O12 0.690699 0.501588 0.417179
O O13 0.500000 0.510811 0.250000
O O14 0.729229 0.477480 0.193085
O O15 0.737620 0.564081 0.250000
O O16 0.000000 0.056340 0.862455
O O17 0.500000 0.614601 0.250000
#
# Coordination Sequence:
#
# PCOD8255887 Si02
#       7
#    16  16  16  16   8  16   8
#     4  10  21  33  46  68  98 127 156 198 250 297
#     4  10  21  37  55  74  96 124 162 211 264 311
#     4   9  16  28  50  77 104 133 164 200 243 292
#     4   9  16  27  45  70  98 130 167 199 229 274
#     4   9  16  28  47  72 101 136 175 210 233 264
#     4  10  18  29  47  70  98 133 171 203 231 271
#     4   9  14  26  49  76 105 136 169 200 233 282
#
# _framework density 17.051697000000001
#
# number of rings (size 3 to 8) (size 9 to 14) (size 15 to 20)
#    0.000    2.500    1.667    1.500    0.000    4.667 
#    0.000    0.833    0.000    2.000    0.000    1.167 
#    0.000    0.000    0.000    0.000    0.000    0.000 
#
# Total GULP energy -595077.671551 kJ/mol
# GULP energy per Si atom -12397.451491 kJ/mol
# Density = 1.701289 g / cm^3
# Si number density = 17.051697 Si / 1000 Ang^3
#
#
#
# Elastic Constant Matrix: (Units=GPa)
#
#
# Indices 1 2 3 4 5 6 
#
# 1 76.9976 51.9707 53.9880 0.0000 0.0000 0.0000
# 2 51.9707 81.9280 64.9048 0.0000 0.0000 0.0000
# 3 53.9880 64.9048 107.9003 0.0000 0.0000 0.0000
# 4 0.0000 0.0000 0.0000 14.3726 0.0000 0.0000
# 5 0.0000 0.0000 0.0000 0.0000 16.2196 0.0000
# 6 0.0000 0.0000 0.0000 0.0000 0.0000 23.7912
#
#
#
# Elastic Compliance Matrix: (Units=1/GPa)
#
#
# Indices 1 2 3 4 5 6 
#
# 1 0.024318 -0.011055 -0.005518 0.000000 0.000000 0.000000
# 2 -0.011055 0.028343 -0.011518 0.000000 0.000000 0.000000
# 3 -0.005518 -0.011518 0.018957 0.000000 0.000000 0.000000
# 4 0.000000 0.000000 0.000000 0.069577 0.000000 0.000000
# 5 0.000000 0.000000 0.000000 0.000000 0.061654 0.000000
# 6 0.000000 0.000000 0.000000 0.000000 0.000000 0.042032
#
#
# Mechanical properties :
#
#
# Convention : Reuss Voigt Hill
#
# Bulk Modulus (GPa) = 64.77866 67.61700 66.19783
# Shear Modulus (GPa) = 16.32885 17.27418 16.80152
#
# Velocity S-wave (km/s) = 3.09788 3.18629 3.14240
# Velocity P-wave (km/s) = 7.13217 7.29910 7.21612
#
# Compressibility (1/GPa) = 0.01543718
#
# Stress axis : x y z
#
# Youngs Moduli (GPa) = 41.12220 35.28230 52.75120
#
# Poissons Ratio (x) = 0.39003 0.29107
# Poissons Ratio (y) = 0.45459 0.60758
# Poissons Ratio (z) = 0.22691 0.40637
#
# Static dielectric constant tensor:
#      x y z
#    x 3.041140 0.000000 0.000000 
#    y 0.000000 3.010950 0.000000 
#    z 0.000000 0.000000 3.365040 
# 
# 
# High freq. dielectric constant tensor:
#      x y z
#    x 1.639220 0.000000 0.000000 
#    y 0.000000 1.633310 0.000000 
#    z 0.000000 0.000000 1.659170 
# 
# From -- ./inp_files/59977.got.cif
#   From: 2010.03.12/outbox.cif.g09.slc.cpg/sg63_30_cif.got.tgz:59977.got - 2010.04.10 19:34:48.
