data_PCOD8255088
_publ_section_title
;
Structure prediction by ZEFSAII (Michael W. Deem and Ramdas Pophale) SiO2 
 PCOD8255088
Probable space group: P N M A
;
_chemical_formula_sum "Si O2"
_cell_formula_units_Z 32
_cell_length_a 17.694258
_cell_length_b 8.260322
_cell_length_c 10.254416
_cell_angle_alpha 90.000000
_cell_angle_beta 90.000000
_cell_angle_gamma 90.000000
_cell_volume 1498.788197
_symmetry_space_group_name_H-M "P N M A"
_symmetry_group_IT_number 62
_symmetry_cell_setting 'orthorhombic'
loop_
_space_group_symop_operation_xyz
x,y,z
1/2-x,-y,1/2+z
1/2+x,1/2-y,1/2-z
-x,1/2+y,-z
-x,-y,-z
1/2+x,y,1/2-z
1/2-x,1/2+y,1/2+z
x,1/2-y,z
loop_
_atom_site_type_symbol
_atom_site_label
_atom_site_fract_x
_atom_site_fract_y
_atom_site_fract_z
Si Si1 0.912242 0.062166 0.773750
Si Si2 0.418686 0.557977 0.230607
Si Si3 0.165544 0.062206 0.475187
Si Si4 0.170801 0.437757 0.981554
O O1 0.914018 0.250000 0.813105
O O2 0.995372 0.995501 0.738004
O O3 0.857118 0.039013 0.651489
O O4 0.883462 0.958756 0.895144
O O5 0.416725 0.750000 0.231200
O O6 0.381114 0.491897 0.098083
O O7 0.371621 0.492888 0.354105
O O8 0.147226 0.250000 0.451961
O O9 0.253850 0.040714 0.503833
O O10 0.191795 0.250000 0.964979
#
# Coordination Sequence:
#
# PCOD8255088 Si02
#       4
#     8   8   8   8
#     4  11  22  39  60  86 118 155 194 241 294 350
#     4   9  21  39  60  84 116 153 196 245 294 344
#     4  11  22  39  61  88 118 154 196 243 293 348
#     4  11  22  39  61  88 118 154 196 243 293 348
#
# _framework density 21.350580999999998
#
# number of rings (size 3 to 8) (size 9 to 14) (size 15 to 20)
#    0.000    1.500    0.000    5.250    0.000    2.000 
#    0.000   11.250    0.000    0.000    0.000    0.000 
#    0.000    0.000    0.000    0.000    0.000    0.000 
#
# Total GULP energy -397037.909196 kJ/mol
# GULP energy per Si atom -12407.434662 kJ/mol
# Density = 2.130199 g / cm^3
# Si number density = 21.350581 Si / 1000 Ang^3
#
#
#
# Elastic Constant Matrix: (Units=GPa)
#
#
# Indices 1 2 3 4 5 6 
#
# 1 99.5193 18.9437 14.8989 0.0000 0.0000 0.0000
# 2 18.9437 35.7414 18.1602 0.0000 0.0000 0.0000
# 3 14.8989 18.1602 124.0767 0.0000 0.0000 0.0000
# 4 0.0000 0.0000 0.0000 16.6348 0.0000 0.0000
# 5 0.0000 0.0000 0.0000 0.0000 47.8818 0.0000
# 6 0.0000 0.0000 0.0000 0.0000 0.0000 29.5517
#
#
#
# Elastic Compliance Matrix: (Units=1/GPa)
#
#
# Indices 1 2 3 4 5 6 
#
# 1 0.011206 -0.005678 -0.000515 0.000000 0.000000 0.000000
# 2 -0.005678 0.033104 -0.004163 0.000000 0.000000 0.000000
# 3 -0.000515 -0.004163 0.008731 0.000000 0.000000 0.000000
# 4 0.000000 0.000000 0.000000 0.060115 0.000000 0.000000
# 5 0.000000 0.000000 0.000000 0.000000 0.020885 0.000000
# 6 0.000000 0.000000 0.000000 0.000000 0.000000 0.033839
#
#
# Mechanical properties :
#
#
# Convention : Reuss Voigt Hill
#
# Bulk Modulus (GPa) = 30.93235 40.37144 35.65190
# Shear Modulus (GPa) = 25.07931 32.63594 28.85763
#
# Velocity S-wave (km/s) = 3.43102 3.91394 3.68041
# Velocity P-wave (km/s) = 5.49683 6.27496 5.89874
#
# Compressibility (1/GPa) = 0.03232861
#
# Stress axis : x y z
#
# Youngs Moduli (GPa) = 89.23657 30.20813 114.53874
#
# Poissons Ratio (x) = 0.17152 0.05894
# Poissons Ratio (y) = 0.50669 0.47686
# Poissons Ratio (z) = 0.04592 0.12577
#
# Static dielectric constant tensor:
#      x y z
#    x 3.963380 0.000000 0.000000 
#    y 0.000000 3.453060 0.000000 
#    z 0.000000 0.000000 3.985130 
# 
# 
# High freq. dielectric constant tensor:
#      x y z
#    x 1.851550 0.000000 0.000000 
#    y 0.000000 1.816330 0.000000 
#    z 0.000000 0.000000 1.851510 
# 
# From -- ./inp_files/12760.got.cif
#   From: 2010.03.12/outbox.cif.g09.slc.cpg/sg62_7_cif.got.tgz:12760.got - 2010.04.10 19:12:36.
