data_PCOD8255914
_publ_section_title
;
Structure prediction by ZEFSAII (Michael W. Deem and Ramdas Pophale) SiO2 
 PCOD8255914
Probable space group: C M C M
;
_chemical_formula_sum "Si O2"
_cell_formula_units_Z 96
_cell_length_a 9.007372
_cell_length_b 26.174936
_cell_length_c 23.136082
_cell_angle_alpha 90.000000
_cell_angle_beta 90.000000
_cell_angle_gamma 90.000000
_cell_volume 5454.733567
_symmetry_space_group_name_H-M "C M C M"
_symmetry_group_IT_number 63
_symmetry_cell_setting 'orthorhombic'
loop_
_space_group_symop_operation_xyz
x,y,z
-x,-y,1/2+z
x,-y,-z
-x,y,1/2-z
-x,-y,-z
x,y,1/2-z
-x,y,z
x,-y,1/2+z
1/2+x,1/2+y,z
1/2-x,1/2-y,1/2+z
1/2+x,1/2-y,-z
1/2-x,1/2+y,1/2-z
1/2-x,1/2-y,-z
1/2+x,1/2+y,1/2-z
1/2-x,1/2+y,z
1/2+x,1/2-y,1/2+z
loop_
_atom_site_type_symbol
_atom_site_label
_atom_site_fract_x
_atom_site_fract_y
_atom_site_fract_z
Si Si1 0.330173 0.403132 0.967277
Si Si2 0.173667 0.201096 0.973285
Si Si3 0.177011 0.612894 0.750000
Si Si4 0.833633 0.347560 0.371155
Si Si5 0.830334 0.964963 0.861652
Si Si6 0.333802 0.045760 0.935516
Si Si7 0.175376 0.503767 0.250000
O O1 0.500000 0.413507 0.986475
O O2 0.311184 0.412243 0.898312
O O3 0.285381 0.345610 0.983931
O O4 0.224025 0.443808 0.999626
O O5 0.231932 0.190828 0.908186
O O6 0.000000 0.210998 0.969449
O O7 0.250000 0.250000 0.000000
O O8 0.232216 0.644011 0.806493
O O9 0.238986 0.554399 0.750000
O O10 0.000000 0.609008 0.750000
O O11 0.837611 0.402007 0.400895
O O12 0.000000 0.324504 0.368144
O O13 0.729103 0.964218 0.805180
O O14 0.000000 0.973123 0.842653
O O15 0.782799 0.010370 0.903516
O O16 0.500000 0.022102 0.937746
O O17 0.000000 0.502733 0.250000
#
# Coordination Sequence:
#
# PCOD8255914 Si02
#       7
#    16  16   8  16  16  16   8
#     4   9  20  35  50  71 102 134 167 209 257 310
#     4  10  20  36  56  78 101 129 167 218 271 319
#     4   9  16  31  51  72 105 140 171 204 245 296
#     4   9  17  31  51  75 104 139 171 206 252 306
#     4  11  21  33  48  70 102 141 177 209 249 300
#     4  10  18  29  48  74 104 137 173 210 248 294
#     4  11  21  35  51  72 103 142 181 218 251 292
#
# _framework density 17.599394
#
# number of rings (size 3 to 8) (size 9 to 14) (size 15 to 20)
#    0.000    2.167    1.667    2.250    0.000    4.667 
#    0.000    0.417    0.000    1.000    0.000    3.500 
#    0.000    0.000    0.000    0.000    0.000    0.000 
#
# Total GULP energy -595096.157979 kJ/mol
# GULP energy per Si atom -12397.836625 kJ/mol
# Density = 1.755934 g / cm^3
# Si number density = 17.599394 Si / 1000 Ang^3
#
#
#
# Elastic Constant Matrix: (Units=GPa)
#
#
# Indices 1 2 3 4 5 6 
#
# 1 79.2442 32.8058 45.8002 0.0000 0.0000 0.0000
# 2 32.8058 48.5648 48.2774 0.0000 0.0000 0.0000
# 3 45.8002 48.2774 145.5555 0.0000 0.0000 0.0000
# 4 0.0000 0.0000 0.0000 18.3274 0.0000 0.0000
# 5 0.0000 0.0000 0.0000 0.0000 30.2056 0.0000
# 6 0.0000 0.0000 0.0000 0.0000 0.0000 24.3890
#
#
#
# Elastic Compliance Matrix: (Units=1/GPa)
#
#
# Indices 1 2 3 4 5 6 
#
# 1 0.018083 -0.009785 -0.002444 0.000000 0.000000 0.000000
# 2 -0.009785 0.036015 -0.008866 0.000000 0.000000 0.000000
# 3 -0.002444 -0.008866 0.010580 0.000000 0.000000 0.000000
# 4 0.000000 0.000000 0.000000 0.054563 0.000000 0.000000
# 5 0.000000 0.000000 0.000000 0.000000 0.033106 0.000000
# 6 0.000000 0.000000 0.000000 0.000000 0.000000 0.041002
#
#
# Mechanical properties :
#
#
# Convention : Reuss Voigt Hill
#
# Bulk Modulus (GPa) = 44.47197 58.57016 51.52107
# Shear Modulus (GPa) = 20.57305 24.34982 22.46143
#
# Velocity S-wave (km/s) = 3.42272 3.72366 3.57636
# Velocity P-wave (km/s) = 6.39874 7.19996 6.81114
#
# Compressibility (1/GPa) = 0.02248607
#
# Stress axis : x y z
#
# Youngs Moduli (GPa) = 55.30090 27.76641 94.51685
#
# Poissons Ratio (x) = 0.27170 0.23104
# Poissons Ratio (y) = 0.54113 0.83801
# Poissons Ratio (z) = 0.13518 0.24618
#
# Static dielectric constant tensor:
#      x y z
#    x 3.382040 0.000000 0.000000 
#    y 0.000000 3.042110 0.000000 
#    z 0.000000 0.000000 3.534960 
# 
# 
# High freq. dielectric constant tensor:
#      x y z
#    x 1.683200 0.000000 0.000000 
#    y 0.000000 1.644090 0.000000 
#    z 0.000000 0.000000 1.684550 
# 
# From -- ./inp_files/60310.got.cif
#   From: 2010.03.12/outbox.cif.g09.slc.cpg/sg63_31_cif.got.tgz:60310.got - 2010.04.10 19:34:48.
