data_PCOD8255140
_publ_section_title
;
Structure prediction by ZEFSAII (Michael W. Deem and Ramdas Pophale) SiO2 
 PCOD8255140
Probable space group: P N M A
;
_chemical_formula_sum "Si O2"
_cell_formula_units_Z 40
_cell_length_a 9.621385
_cell_length_b 25.605394
_cell_length_c 7.614760
_cell_angle_alpha 90.000000
_cell_angle_beta 90.000000
_cell_angle_gamma 90.000000
_cell_volume 1875.967353
_symmetry_space_group_name_H-M "P N M A"
_symmetry_group_IT_number 62
_symmetry_cell_setting 'orthorhombic'
loop_
_space_group_symop_operation_xyz
x,y,z
1/2-x,-y,1/2+z
1/2+x,1/2-y,1/2-z
-x,1/2+y,-z
-x,-y,-z
1/2+x,y,1/2-z
1/2-x,1/2+y,1/2+z
x,1/2-y,z
loop_
_atom_site_type_symbol
_atom_site_label
_atom_site_fract_x
_atom_site_fract_y
_atom_site_fract_z
Si Si1 0.279350 0.435480 0.761125
Si Si2 0.409488 0.189705 0.399392
Si Si3 0.461139 0.867657 0.276142
Si Si4 0.624848 0.034382 0.072950
Si Si5 0.608162 0.146596 0.114259
O O1 0.435576 0.415369 0.768139
O O2 0.220449 0.435838 0.566270
O O3 0.273235 0.495599 0.823052
O O4 0.176398 0.395124 0.862727
O O5 0.371097 0.250000 0.418786
O O6 0.476048 0.172433 0.585309
O O7 0.517482 0.182885 0.240759
O O8 0.270560 0.157972 0.355754
O O9 0.429825 0.839785 0.089425
O O10 0.572494 0.086184 0.176001
O O11 0.500000 0.000000 0.000000
#
# Coordination Sequence:
#
# PCOD8255140 Si02
#       5
#     8   8   8   8   8
#     4  11  23  41  66 101 139 185 227 273 347 423
#     4  12  28  48  73 100 132 189 240 295 355 395
#     4  11  24  48  68 100 142 183 233 287 343 415
#     4  11  23  39  65 101 139 178 218 270 349 416
#     4  11  27  47  69 106 145 175 233 292 342 424
#
# _framework density 21.322331999999999
#
# number of rings (size 3 to 8) (size 9 to 14) (size 15 to 20)
#    0.000    0.800    8.000    0.600    8.400    2.400 
#    0.000    0.000    0.000    0.000    0.000    0.000 
#    0.000    0.000    0.000    0.000    0.000    0.000 
#
# Total GULP energy -495831.027886 kJ/mol
# GULP energy per Si atom -12395.775697 kJ/mol
# Density = 2.127380 g / cm^3
# Si number density = 21.322332 Si / 1000 Ang^3
#
#
#
# Elastic Constant Matrix: (Units=GPa)
#
#
# Indices 1 2 3 4 5 6 
#
# 1 100.3729 24.7608 38.5229 0.0000 0.0000 0.0000
# 2 24.7608 126.0814 25.8416 0.0000 0.0000 0.0000
# 3 38.5229 25.8416 80.8109 0.0000 0.0000 0.0000
# 4 0.0000 0.0000 0.0000 37.6670 0.0000 0.0000
# 5 0.0000 0.0000 0.0000 0.0000 28.8619 0.0000
# 6 0.0000 0.0000 0.0000 0.0000 0.0000 33.6035
#
#
#
# Elastic Compliance Matrix: (Units=1/GPa)
#
#
# Indices 1 2 3 4 5 6 
#
# 1 0.012392 -0.001309 -0.005489 0.000000 0.000000 0.000000
# 2 -0.001309 0.008626 -0.002135 0.000000 0.000000 0.000000
# 3 -0.005489 -0.002135 0.015674 0.000000 0.000000 0.000000
# 4 0.000000 0.000000 0.000000 0.026548 0.000000 0.000000
# 5 0.000000 0.000000 0.000000 0.000000 0.034648 0.000000
# 6 0.000000 0.000000 0.000000 0.000000 0.000000 0.029759
#
#
# Mechanical properties :
#
#
# Convention : Reuss Voigt Hill
#
# Bulk Modulus (GPa) = 53.11348 53.94618 53.52983
# Shear Modulus (GPa) = 32.94085 34.56914 33.75499
#
# Velocity S-wave (km/s) = 3.93478 4.03086 3.98311
# Velocity P-wave (km/s) = 6.75331 6.85704 6.80538
#
# Compressibility (1/GPa) = 0.01882761
#
# Stress axis : x y z
#
# Youngs Moduli (GPa) = 80.69493 115.93013 63.80089
#
# Poissons Ratio (x) = 0.15172 0.35020
# Poissons Ratio (y) = 0.10560 0.13618
# Poissons Ratio (z) = 0.44293 0.24746
#
# Static dielectric constant tensor:
#      x y z
#    x 4.285020 0.000000 0.000000 
#    y 0.000000 4.278850 0.000000 
#    z 0.000000 0.000000 3.780060 
# 
# 
# High freq. dielectric constant tensor:
#      x y z
#    x 1.849220 0.000000 0.000000 
#    y 0.000000 1.840660 0.000000 
#    z 0.000000 0.000000 1.821570 
# 
# From -- ./inp_files/4261.got.cif
#   From: 2010.03.12/outbox.cif.g09.slc.cpg/sg62_3_cif.got.tgz:4261.got - 2010.04.10 19:12:36.
