data_PCOD8255076
_publ_section_title
;
Structure prediction by ZEFSAII (Michael W. Deem and Ramdas Pophale) SiO2 
 PCOD8255076
Probable space group: P N M A
;
_chemical_formula_sum "Si O2"
_cell_formula_units_Z 56
_cell_length_a 14.724631
_cell_length_b 8.608115
_cell_length_c 20.924016
_cell_angle_alpha 90.000000
_cell_angle_beta 90.000000
_cell_angle_gamma 90.000000
_cell_volume 2652.146585
_symmetry_space_group_name_H-M "P N M A"
_symmetry_group_IT_number 62
_symmetry_cell_setting 'orthorhombic'
loop_
_space_group_symop_operation_xyz
x,y,z
1/2-x,-y,1/2+z
1/2+x,1/2-y,1/2-z
-x,1/2+y,-z
-x,-y,-z
1/2+x,y,1/2-z
1/2-x,1/2+y,1/2+z
x,1/2-y,z
loop_
_atom_site_type_symbol
_atom_site_label
_atom_site_fract_x
_atom_site_fract_y
_atom_site_fract_z
Si Si1 0.233686 0.930297 0.975989
Si Si2 0.511289 0.067165 0.737237
Si Si3 0.197635 0.567921 0.237970
Si Si4 0.661758 0.933804 0.659778
Si Si5 0.075676 0.569722 0.454887
Si Si6 0.953174 0.073852 0.363104
Si Si7 0.753251 0.426424 0.393873
O O1 0.219586 0.750000 0.989381
O O2 0.178908 0.985773 0.913530
O O3 0.337300 0.964242 0.960544
O O4 0.203260 0.018629 0.041015
O O5 0.520202 0.250000 0.744940
O O6 0.407079 0.011698 0.740202
O O7 0.564269 0.012868 0.673780
O O8 0.569732 0.978671 0.791452
O O9 0.206081 0.750000 0.250036
O O10 0.256922 0.486576 0.292982
O O11 0.229726 0.531984 0.166339
O O12 0.654378 0.750000 0.665618
O O13 0.097433 0.750000 0.468018
O O14 0.000000 0.500000 0.500000
O O15 0.032670 0.544483 0.384733
O O16 0.989409 0.250000 0.365160
O O17 0.861985 0.060922 0.406015
O O18 0.724621 0.250000 0.378748
#
# Coordination Sequence:
#
# PCOD8255076 Si02
#       7
#     8   8   8   8   8   8   8
#     4  11  24  41  62  89 126 167 208 260 317 374
#     4  11  24  41  65  95 124 163 210 261 315 372
#     4  11  24  42  66  95 127 165 212 261 313 373
#     4  11  24  42  65  95 128 166 209 259 318 375
#     4  12  23  35  55  85 121 160 202 247 305 374
#     4  11  22  37  59  89 122 160 203 253 311 371
#     4  11  23  39  63  92 123 163 208 254 310 371
#
# _framework density 21.114971000000001
#
# number of rings (size 3 to 8) (size 9 to 14) (size 15 to 20)
#    0.000    0.857    2.857    4.714    0.000    8.000 
#    0.000    0.714    0.000    0.000    0.000    0.000 
#    0.000    0.000    0.000    0.000    0.000    0.000 
#
# Total GULP energy -694367.069197 kJ/mol
# GULP energy per Si atom -12399.411950 kJ/mol
# Density = 2.106691 g / cm^3
# Si number density = 21.114971 Si / 1000 Ang^3
#
#
#
# Elastic Constant Matrix: (Units=GPa)
#
#
# Indices 1 2 3 4 5 6 
#
# 1 58.8512 18.4237 7.1784 0.0000 0.0000 0.0000
# 2 18.4237 58.2008 22.2835 0.0000 0.0000 0.0000
# 3 7.1784 22.2835 97.0297 0.0000 0.0000 0.0000
# 4 0.0000 0.0000 0.0000 35.0309 0.0000 0.0000
# 5 0.0000 0.0000 0.0000 0.0000 27.6551 0.0000
# 6 0.0000 0.0000 0.0000 0.0000 0.0000 30.5932
#
#
#
# Elastic Compliance Matrix: (Units=1/GPa)
#
#
# Indices 1 2 3 4 5 6 
#
# 1 0.018861 -0.005960 -0.000027 0.000000 0.000000 0.000000
# 2 -0.005960 0.020722 -0.004318 0.000000 0.000000 0.000000
# 3 -0.000027 -0.004318 0.011300 0.000000 0.000000 0.000000
# 4 0.000000 0.000000 0.000000 0.028546 0.000000 0.000000
# 5 0.000000 0.000000 0.000000 0.000000 0.036160 0.000000
# 6 0.000000 0.000000 0.000000 0.000000 0.000000 0.032687
#
#
# Mechanical properties :
#
#
# Convention : Reuss Voigt Hill
#
# Bulk Modulus (GPa) = 33.03273 34.42811 33.73042
# Shear Modulus (GPa) = 27.93661 29.73557 28.83609
#
# Velocity S-wave (km/s) = 3.64135 3.75676 3.69951
# Velocity P-wave (km/s) = 5.77559 5.92943 5.85302
#
# Compressibility (1/GPa) = 0.03027300
#
# Stress axis : x y z
#
# Youngs Moduli (GPa) = 53.01890 48.25811 88.49762
#
# Poissons Ratio (x) = 0.28764 0.00235
# Poissons Ratio (y) = 0.31602 0.38213
# Poissons Ratio (z) = 0.00141 0.20838
#
# Static dielectric constant tensor:
#      x y z
#    x 3.954870 0.000000 0.000000 
#    y 0.000000 3.876070 0.000000 
#    z 0.000000 0.000000 4.068620 
# 
# 
# High freq. dielectric constant tensor:
#      x y z
#    x 1.808780 0.000000 0.000000 
#    y 0.000000 1.834900 0.000000 
#    z 0.000000 0.000000 1.842590 
# 
# From -- ./inp_files/27138.got.cif
#   From: 2010.03.12/outbox.cif.g09.slc.cpg/sg62_14_cif.got.tgz:27138.got - 2010.04.10 19:12:36.
