data_PCOD8255971
_publ_section_title
;
Structure prediction by ZEFSAII (Michael W. Deem and Ramdas Pophale) SiO2 
 PCOD8255971
Probable space group: C M C M
;
_chemical_formula_sum "Si O2"
_cell_formula_units_Z 88
_cell_length_a 22.625005
_cell_length_b 17.616357
_cell_length_c 13.897494
_cell_angle_alpha 90.000000
_cell_angle_beta 90.000000
_cell_angle_gamma 90.000000
_cell_volume 5539.126480
_symmetry_space_group_name_H-M "C M C M"
_symmetry_group_IT_number 63
_symmetry_cell_setting 'orthorhombic'
loop_
_space_group_symop_operation_xyz
x,y,z
-x,-y,1/2+z
x,-y,-z
-x,y,1/2-z
-x,-y,-z
x,y,1/2-z
-x,y,z
x,-y,1/2+z
1/2+x,1/2+y,z
1/2-x,1/2-y,1/2+z
1/2+x,1/2-y,-z
1/2-x,1/2+y,1/2-z
1/2-x,1/2-y,-z
1/2+x,1/2+y,1/2-z
1/2-x,1/2+y,z
1/2+x,1/2-y,1/2+z
loop_
_atom_site_type_symbol
_atom_site_label
_atom_site_fract_x
_atom_site_fract_y
_atom_site_fract_z
Si Si1 0.678273 0.337949 0.967733
Si Si2 0.272319 0.500000 0.500000
Si Si3 0.936730 0.387063 0.364370
Si Si4 0.243034 0.224377 0.859935
Si Si5 0.066420 0.786443 0.638553
Si Si6 0.186930 0.571779 0.640808
O O1 0.687521 0.427775 0.977549
O O2 0.725743 0.302319 0.893213
O O3 0.611590 0.330982 0.929988
O O4 0.687342 0.296323 0.071401
O O5 0.229982 0.513257 0.590289
O O6 0.934916 0.389269 0.250000
O O7 0.932365 0.300067 0.396395
O O8 0.879680 0.432535 0.404133
O O9 0.000000 0.421194 0.401044
O O10 0.220539 0.232604 0.750000
O O11 0.291771 0.158464 0.869895
O O12 0.086203 0.794300 0.750000
O O13 0.000000 0.819482 0.625140
O O14 0.186232 0.545156 0.750000
#
# Coordination Sequence:
#
# PCOD8255971 Si02
#       6
#    16   8  16  16  16  16
#     4  10  18  30  46  67  96 122 150 192 232 277
#     4  10  22  30  40  66  96 126 154 174 226 288
#     4   8  13  23  43  67  86 108 142 188 232 259
#     4   9  17  29  48  68  88 118 156 193 229 267
#     4   9  16  27  48  75  94 112 149 198 238 267
#     4   9  16  29  44  63  92 119 147 188 224 267
#
# _framework density 15.886982
#
# number of rings (size 3 to 8) (size 9 to 14) (size 15 to 20)
#    0.000    2.909    1.818    1.636    0.000    1.455 
#    0.000    0.909    0.000    0.545    0.000    0.000 
#    0.000    0.000    0.000    0.000    0.000    0.000 
#
# Total GULP energy -545227.209899 kJ/mol
# GULP energy per Si atom -12391.527498 kJ/mol
# Density = 1.585082 g / cm^3
# Si number density = 15.886982 Si / 1000 Ang^3
#
#
#
# Elastic Constant Matrix: (Units=GPa)
#
#
# Indices 1 2 3 4 5 6 
#
# 1 103.1958 17.3251 42.7398 0.0000 0.0000 0.0000
# 2 17.3251 50.0577 21.0200 0.0000 0.0000 0.0000
# 3 42.7398 21.0200 83.5422 0.0000 0.0000 0.0000
# 4 0.0000 0.0000 0.0000 15.1057 0.0000 0.0000
# 5 0.0000 0.0000 0.0000 0.0000 21.4977 0.0000
# 6 0.0000 0.0000 0.0000 0.0000 0.0000 8.4282
#
#
#
# Elastic Compliance Matrix: (Units=1/GPa)
#
#
# Indices 1 2 3 4 5 6 
#
# 1 0.012443 -0.001826 -0.005906 0.000000 0.000000 0.000000
# 2 -0.001826 0.022605 -0.004753 0.000000 0.000000 0.000000
# 3 -0.005906 -0.004753 0.016188 0.000000 0.000000 0.000000
# 4 0.000000 0.000000 0.000000 0.066200 0.000000 0.000000
# 5 0.000000 0.000000 0.000000 0.000000 0.046517 0.000000
# 6 0.000000 0.000000 0.000000 0.000000 0.000000 0.118649
#
#
# Mechanical properties :
#
#
# Convention : Reuss Voigt Hill
#
# Bulk Modulus (GPa) = 38.07525 44.32951 41.20238
# Shear Modulus (GPa) = 15.80636 19.38703 17.59669
#
# Velocity S-wave (km/s) = 3.15767 3.49708 3.33170
# Velocity P-wave (km/s) = 6.10842 6.65355 6.38680
#
# Compressibility (1/GPa) = 0.02626378
#
# Stress axis : x y z
#
# Youngs Moduli (GPa) = 80.36575 44.23789 61.77577
#
# Poissons Ratio (x) = 0.08080 0.36486
# Poissons Ratio (y) = 0.14678 0.29364
# Poissons Ratio (z) = 0.47466 0.21027
#
# Static dielectric constant tensor:
#      x y z
#    x 3.193550 0.000000 0.000000 
#    y 0.000000 2.751570 0.000000 
#    z 0.000000 0.000000 2.965350 
# 
# 
# High freq. dielectric constant tensor:
#      x y z
#    x 1.607400 0.000000 0.000000 
#    y 0.000000 1.582930 0.000000 
#    z 0.000000 0.000000 1.593040 
# 
# From -- ./inp_files/37023.got.cif
#   From: 2010.03.12/outbox.cif.g09.slc.cpg/sg63_19_cif.got.tgz:37023.got - 2010.04.10 19:34:48.
