data_PCOD8255207
_publ_section_title
;
Structure prediction by ZEFSAII (Michael W. Deem and Ramdas Pophale) SiO2 
 PCOD8255207
Probable space group: P N M A
;
_chemical_formula_sum "Si O2"
_cell_formula_units_Z 40
_cell_length_a 12.185846
_cell_length_b 8.286902
_cell_length_c 18.482367
_cell_angle_alpha 90.000000
_cell_angle_beta 90.000000
_cell_angle_gamma 90.000000
_cell_volume 1866.403233
_symmetry_space_group_name_H-M "P N M A"
_symmetry_group_IT_number 62
_symmetry_cell_setting 'orthorhombic'
loop_
_space_group_symop_operation_xyz
x,y,z
1/2-x,-y,1/2+z
1/2+x,1/2-y,1/2-z
-x,1/2+y,-z
-x,-y,-z
1/2+x,y,1/2-z
1/2-x,1/2+y,1/2+z
x,1/2-y,z
loop_
_atom_site_type_symbol
_atom_site_label
_atom_site_fract_x
_atom_site_fract_y
_atom_site_fract_z
Si Si1 0.322899 0.063935 0.882755
Si Si2 0.908117 0.562132 0.181285
Si Si3 0.431051 0.936782 0.567357
Si Si4 0.453204 0.063116 0.163245
Si Si5 0.301331 0.563895 0.039304
O O1 0.345532 0.250000 0.863804
O O2 0.208563 0.003998 0.849245
O O3 0.416630 0.956353 0.846015
O O4 0.319149 0.043906 0.968735
O O5 0.926631 0.750000 0.165170
O O6 0.911436 0.527688 0.265885
O O7 0.002986 0.461904 0.141452
O O8 0.404634 0.750000 0.555726
O O9 0.500000 0.000000 0.500000
O O10 0.317354 0.032176 0.574015
O O11 0.421480 0.250000 0.168149
O O12 0.395355 0.980463 0.095497
O O13 0.312466 0.750000 0.017403
#
# Coordination Sequence:
#
# PCOD8255207 Si02
#       5
#     8   8   8   8   8
#     4  11  24  45  71  98 134 175 225 277 333 399
#     4  11  25  45  69  98 135 177 223 276 335 395
#     4  12  24  42  68 100 135 175 222 273 331 393
#     4  12  27  45  68  98 138 179 224 276 337 402
#     4  12  25  44  71 100 135 176 226 277 333 396
#
# _framework density 21.431597
#
# number of rings (size 3 to 8) (size 9 to 14) (size 15 to 20)
#    0.000    0.400    2.000    7.200    2.800    2.400 
#    0.000    0.000    0.000    0.000    0.000    0.000 
#    0.000    0.000    0.000    0.000    0.000    0.000 
#
# Total GULP energy -496438.642135 kJ/mol
# GULP energy per Si atom -12410.966053 kJ/mol
# Density = 2.138282 g / cm^3
# Si number density = 21.431597 Si / 1000 Ang^3
#
#
#
# Elastic Constant Matrix: (Units=GPa)
#
#
# Indices 1 2 3 4 5 6 
#
# 1 82.9827 21.6476 34.8919 0.0000 0.0000 0.0000
# 2 21.6476 80.1570 -0.6393 0.0000 0.0000 0.0000
# 3 34.8919 -0.6393 124.7774 0.0000 0.0000 0.0000
# 4 0.0000 0.0000 0.0000 34.7308 0.0000 0.0000
# 5 0.0000 0.0000 0.0000 0.0000 32.8245 0.0000
# 6 0.0000 0.0000 0.0000 0.0000 0.0000 34.7337
#
#
#
# Elastic Compliance Matrix: (Units=1/GPa)
#
#
# Indices 1 2 3 4 5 6 
#
# 1 0.014863 -0.004047 -0.004177 0.000000 0.000000 0.000000
# 2 -0.004047 0.013578 0.001201 0.000000 0.000000 0.000000
# 3 -0.004177 0.001201 0.009188 0.000000 0.000000 0.000000
# 4 0.000000 0.000000 0.000000 0.028793 0.000000 0.000000
# 5 0.000000 0.000000 0.000000 0.000000 0.030465 0.000000
# 6 0.000000 0.000000 0.000000 0.000000 0.000000 0.028790
#
#
# Mechanical properties :
#
#
# Convention : Reuss Voigt Hill
#
# Bulk Modulus (GPa) = 42.40210 44.41305 43.40757
# Shear Modulus (GPa) = 33.87890 35.92559 34.90225
#
# Velocity S-wave (km/s) = 3.98023 4.09870 4.03990
# Velocity P-wave (km/s) = 6.39928 6.57018 6.48529
#
# Compressibility (1/GPa) = 0.02358374
#
# Stress axis : x y z
#
# Youngs Moduli (GPa) = 67.28230 73.64792 108.83270
#
# Poissons Ratio (x) = 0.29807 0.45458
# Poissons Ratio (y) = 0.27231 -0.13074
# Poissons Ratio (z) = 0.28103 -0.08847
#
# Static dielectric constant tensor:
#      x y z
#    x 4.066840 0.000000 0.000000 
#    y 0.000000 3.929830 0.000000 
#    z 0.000000 0.000000 3.838320 
# 
# 
# High freq. dielectric constant tensor:
#      x y z
#    x 1.855380 0.000000 0.000000 
#    y 0.000000 1.852120 0.000000 
#    z 0.000000 0.000000 1.846580 
# 
# From -- ./inp_files/22796.got.cif
#   From: 2010.03.12/outbox.cif.g09.slc.cpg/sg62_12_cif.got.tgz:22796.got - 2010.04.10 19:12:36.
