data_PCOD8255838
_publ_section_title
;
Structure prediction by ZEFSAII (Michael W. Deem and Ramdas Pophale) SiO2 
 PCOD8255838
Probable space group: C M C M
;
_chemical_formula_sum "Si O2"
_cell_formula_units_Z 88
_cell_length_a 23.561724
_cell_length_b 24.065770
_cell_length_c 9.205500
_cell_angle_alpha 90.000000
_cell_angle_beta 90.000000
_cell_angle_gamma 90.000000
_cell_volume 5219.804152
_symmetry_space_group_name_H-M "C M C M"
_symmetry_group_IT_number 63
_symmetry_cell_setting 'orthorhombic'
loop_
_space_group_symop_operation_xyz
x,y,z
-x,-y,1/2+z
x,-y,-z
-x,y,1/2-z
-x,-y,-z
x,y,1/2-z
-x,y,z
x,-y,1/2+z
1/2+x,1/2+y,z
1/2-x,1/2-y,1/2+z
1/2+x,1/2-y,-z
1/2-x,1/2+y,1/2-z
1/2-x,1/2-y,-z
1/2+x,1/2+y,1/2-z
1/2-x,1/2+y,z
1/2+x,1/2-y,1/2+z
loop_
_atom_site_type_symbol
_atom_site_label
_atom_site_fract_x
_atom_site_fract_y
_atom_site_fract_z
Si Si1 0.392577 0.365351 0.421608
Si Si2 0.834696 0.223993 0.419584
Si Si3 0.167297 0.049308 0.089805
Si Si4 0.798332 0.550111 0.091918
Si Si5 0.500000 0.440366 0.420718
Si Si6 0.211515 0.325367 0.579395
O O1 0.386327 0.358707 0.250000
O O2 0.388342 0.304769 0.497238
O O3 0.338651 0.395960 0.492867
O O4 0.447129 0.401584 0.466288
O O5 0.848958 0.228267 0.250000
O O6 0.828644 0.285353 0.486050
O O7 0.777232 0.189238 0.448499
O O8 0.138777 0.055655 0.250000
O O9 0.232598 0.035342 0.111796
O O10 0.136364 0.000000 0.000000
O O11 0.827760 0.549409 0.250000
O O12 0.803120 0.612048 0.024452
O O13 0.827119 0.500000 0.000000
O O14 0.500000 0.500000 0.500000
O O15 0.500000 0.452521 0.250000
O O16 0.198160 0.318985 0.750000
#
# Coordination Sequence:
#
# PCOD8255838 Si02
#       6
#    16  16  16  16   8  16
#     4  11  21  34  49  65  85 115 152 195 244 289
#     4  10  19  31  47  67  89 115 151 193 234 282
#     4  10  18  29  42  61  84 110 146 188 229 275
#     4   9  17  28  41  60  88 117 147 182 219 263
#     4  10  24  40  52  68  90 120 161 206 253 296
#     4   9  17  31  45  64  92 120 150 187 229 277
#
# _framework density 16.858871000000001
#
# number of rings (size 3 to 8) (size 9 to 14) (size 15 to 20)
#    0.000    2.182    1.818    2.182    0.000    5.091 
#    0.000    0.000    0.000    0.000    0.000    0.000 
#    0.000    0.000    0.000    0.818    0.000    9.636 
#
# Total GULP energy -545133.923789 kJ/mol
# GULP energy per Si atom -12389.407359 kJ/mol
# Density = 1.682050 g / cm^3
# Si number density = 16.858871 Si / 1000 Ang^3
#
#
#
# Elastic Constant Matrix: (Units=GPa)
#
#
# Indices 1 2 3 4 5 6 
#
# 1 30.2271 29.9370 27.2278 0.0000 0.0000 0.0000
# 2 29.9370 157.5177 72.9260 0.0000 0.0000 0.0000
# 3 27.2278 72.9260 101.6769 0.0000 0.0000 0.0000
# 4 0.0000 0.0000 0.0000 34.9208 0.0000 0.0000
# 5 0.0000 0.0000 0.0000 0.0000 12.4390 0.0000
# 6 0.0000 0.0000 0.0000 0.0000 0.0000 22.1512
#
#
#
# Elastic Compliance Matrix: (Units=1/GPa)
#
#
# Indices 1 2 3 4 5 6 
#
# 1 0.045649 -0.004516 -0.008985 0.000000 0.000000 0.000000
# 2 -0.004516 0.009951 -0.005928 0.000000 0.000000 0.000000
# 3 -0.008985 -0.005928 0.016493 0.000000 0.000000 0.000000
# 4 0.000000 0.000000 0.000000 0.028636 0.000000 0.000000
# 5 0.000000 0.000000 0.000000 0.000000 0.080393 0.000000
# 6 0.000000 0.000000 0.000000 0.000000 0.000000 0.045144
#
#
# Mechanical properties :
#
#
# Convention : Reuss Voigt Hill
#
# Bulk Modulus (GPa) = 30.08884 61.06702 45.57793
# Shear Modulus (GPa) = 18.10259 24.52426 21.31343
#
# Velocity S-wave (km/s) = 3.28040 3.81816 3.55945
# Velocity P-wave (km/s) = 5.67752 7.46585 6.63224
#
# Compressibility (1/GPa) = 0.03323492
#
# Stress axis : x y z
#
# Youngs Moduli (GPa) = 21.90619 100.48947 60.63157
#
# Poissons Ratio (x) = 0.45380 0.54479
# Poissons Ratio (y) = 0.09893 0.35943
# Poissons Ratio (z) = 0.19683 0.59571
#
# Static dielectric constant tensor:
#      x y z
#    x 2.642560 0.000000 0.000000 
#    y 0.000000 3.425580 0.000000 
#    z 0.000000 0.000000 3.508100 
# 
# 
# High freq. dielectric constant tensor:
#      x y z
#    x 1.570600 0.000000 0.000000 
#    y 0.000000 1.659960 0.000000 
#    z 0.000000 0.000000 1.662550 
# 
# From -- ./inp_files/8199.got.cif
#   From: 2010.03.12/outbox.cif.g09.slc.cpg/sg63_5_cif.got.tgz:8199.got - 2010.04.10 19:34:48.
