data_PCOD8255919
_publ_section_title
;
Structure prediction by ZEFSAII (Michael W. Deem and Ramdas Pophale) SiO2 
 PCOD8255919
Probable space group: C M C M
;
_chemical_formula_sum "Si O2"
_cell_formula_units_Z 80
_cell_length_a 8.571933
_cell_length_b 18.582499
_cell_length_c 26.543244
_cell_angle_alpha 90.000000
_cell_angle_beta 90.000000
_cell_angle_gamma 90.000000
_cell_volume 4228.018562
_symmetry_space_group_name_H-M "C M C M"
_symmetry_group_IT_number 63
_symmetry_cell_setting 'orthorhombic'
loop_
_space_group_symop_operation_xyz
x,y,z
-x,-y,1/2+z
x,-y,-z
-x,y,1/2-z
-x,-y,-z
x,y,1/2-z
-x,y,z
x,-y,1/2+z
1/2+x,1/2+y,z
1/2-x,1/2-y,1/2+z
1/2+x,1/2-y,-z
1/2-x,1/2+y,1/2-z
1/2-x,1/2-y,-z
1/2+x,1/2+y,1/2-z
1/2-x,1/2+y,z
1/2+x,1/2-y,1/2+z
loop_
_atom_site_type_symbol
_atom_site_label
_atom_site_fract_x
_atom_site_fract_y
_atom_site_fract_z
Si Si1 0.314390 0.080756 0.000083
Si Si2 0.180053 0.177386 0.695750
Si Si3 0.182918 0.326898 0.906125
Si Si4 0.818341 0.167405 0.304775
Si Si5 0.184062 0.667954 0.904084
O O1 0.500000 0.079132 0.999796
O O2 0.253988 0.121383 0.049923
O O3 0.250948 0.122343 0.951014
O O4 0.246340 0.000000 0.000000
O O5 0.200214 0.136393 0.750000
O O6 0.285489 0.248021 0.697179
O O7 0.240143 0.133230 0.647017
O O8 0.000000 0.199305 0.687817
O O9 0.222992 0.364966 0.852235
O O10 0.268541 0.250728 0.911367
O O11 0.000000 0.313824 0.910819
O O12 0.769355 0.133719 0.250000
O O13 0.000000 0.154322 0.314475
O O14 0.000000 0.661480 0.900098
#
# Coordination Sequence:
#
# PCOD8255919 Si02
#       5
#    16  16  16  16  16
#     4   9  19  34  49  67  92 123 158 194 232 271
#     4   9  16  26  42  66  96 124 150 185 227 271
#     4  10  18  29  49  72  95 122 152 191 231 272
#     4   9  16  26  42  66  96 124 150 185 227 271
#     4  10  18  29  49  72  95 122 152 191 231 272
#
# _framework density 18.921392999999998
#
# number of rings (size 3 to 8) (size 9 to 14) (size 15 to 20)
#    0.000    2.600    0.000    5.400    0.000    2.400 
#    0.000    3.000    0.000   10.800    0.000    8.400 
#    0.000    0.000    0.000    0.000    0.000    0.000 
#
# Total GULP energy -495570.497374 kJ/mol
# GULP energy per Si atom -12389.262434 kJ/mol
# Density = 1.887833 g / cm^3
# Si number density = 18.921393 Si / 1000 Ang^3
#
#
#
# Elastic Constant Matrix: (Units=GPa)
#
#
# Indices 1 2 3 4 5 6 
#
# 1 40.7315 11.0996 34.7836 0.0000 0.0000 0.0000
# 2 11.0996 62.8316 63.6113 0.0000 0.0000 0.0000
# 3 34.7836 63.6113 230.5730 0.0000 0.0000 0.0000
# 4 0.0000 0.0000 0.0000 3.7946 0.0000 0.0000
# 5 0.0000 0.0000 0.0000 0.0000 28.4909 0.0000
# 6 0.0000 0.0000 0.0000 0.0000 0.0000 10.8741
#
#
#
# Elastic Compliance Matrix: (Units=1/GPa)
#
#
# Indices 1 2 3 4 5 6 
#
# 1 0.028221 -0.000937 -0.003999 0.000000 0.000000 0.000000
# 2 -0.000937 0.022115 -0.005960 0.000000 0.000000 0.000000
# 3 -0.003999 -0.005960 0.006584 0.000000 0.000000 0.000000
# 4 0.000000 0.000000 0.000000 0.263529 0.000000 0.000000
# 5 0.000000 0.000000 0.000000 0.000000 0.035099 0.000000
# 6 0.000000 0.000000 0.000000 0.000000 0.000000 0.091962
#
#
# Mechanical properties :
#
#
# Convention : Reuss Voigt Hill
#
# Bulk Modulus (GPa) = 28.46623 61.45836 44.96230
# Shear Modulus (GPa) = 10.39476 23.60804 17.00140
#
# Velocity S-wave (km/s) = 2.34640 3.53610 3.00080
# Velocity P-wave (km/s) = 4.73475 7.01594 5.98504
#
# Compressibility (1/GPa) = 0.03512934
#
# Stress axis : x y z
#
# Youngs Moduli (GPa) = 35.43423 45.21861 151.87221
#
# Poissons Ratio (x) = 0.04237 0.60732
# Poissons Ratio (y) = 0.03320 0.90512
# Poissons Ratio (z) = 0.14170 0.26949
#
# Static dielectric constant tensor:
#      x y z
#    x 3.291420 0.000000 0.000000 
#    y 0.000000 2.988200 0.000000 
#    z 0.000000 0.000000 4.567110 
# 
# 
# High freq. dielectric constant tensor:
#      x y z
#    x 1.726950 0.000000 0.000000 
#    y 0.000000 1.660990 0.000000 
#    z 0.000000 0.000000 1.773650 
# 
# From -- ./inp_files/71588.got.cif
#   From: 2010.03.12/outbox.cif.g09.slc.cpg/sg63_36_cif.got.tgz:71588.got - 2010.04.10 19:34:48.
