data_PCOD8255550
_publ_section_title
;
Structure prediction by ZEFSAII (Michael W. Deem and Ramdas Pophale) SiO2 
 PCOD8255550
Probable space group: C M C M
;
_chemical_formula_sum "Si O2"
_cell_formula_units_Z 104
_cell_length_a 14.896920
_cell_length_b 20.484919
_cell_length_c 19.781275
_cell_angle_alpha 90.000000
_cell_angle_beta 90.000000
_cell_angle_gamma 90.000000
_cell_volume 6036.497389
_symmetry_space_group_name_H-M "C M C M"
_symmetry_group_IT_number 63
_symmetry_cell_setting 'orthorhombic'
loop_
_space_group_symop_operation_xyz
x,y,z
-x,-y,1/2+z
x,-y,-z
-x,y,1/2-z
-x,-y,-z
x,y,1/2-z
-x,y,z
x,-y,1/2+z
1/2+x,1/2+y,z
1/2-x,1/2-y,1/2+z
1/2+x,1/2-y,-z
1/2-x,1/2+y,1/2-z
1/2-x,1/2-y,-z
1/2+x,1/2+y,1/2-z
1/2-x,1/2+y,z
1/2+x,1/2-y,1/2+z
loop_
_atom_site_type_symbol
_atom_site_label
_atom_site_fract_x
_atom_site_fract_y
_atom_site_fract_z
Si Si1 0.733876 0.893954 0.585382
Si Si2 0.659033 0.000000 0.000000
Si Si3 0.100565 0.046219 0.563518
Si Si4 0.895892 0.687268 0.495258
Si Si5 0.599343 0.913449 0.390348
Si Si6 0.101608 0.834297 0.973925
Si Si7 0.751351 0.011574 0.826983
O O1 0.657170 0.839832 0.570668
O O2 0.832064 0.860374 0.584940
O O3 0.727005 0.943100 0.521869
O O4 0.719315 0.937425 0.653232
O O5 0.594805 0.975713 0.059552
O O6 0.110595 0.121491 0.540757
O O7 0.167289 0.031007 0.624593
O O8 0.000000 0.033709 0.590994
O O9 0.119060 0.000000 0.500000
O O10 0.872753 0.650256 0.565882
O O11 0.868735 0.762100 0.504863
O O12 0.000000 0.677972 0.477993
O O13 0.500000 0.904107 0.357849
O O14 0.672723 0.933495 0.334015
O O15 0.000000 0.835673 0.944884
O O16 0.783736 0.011125 0.750000
#
# Coordination Sequence:
#
# PCOD8255550 Si02
#       7
#    16   8  16  16  16  16  16
#     4  10  17  29  47  67 102 134 159 203 254 295
#     4   8  15  26  45  72  94 120 165 208 253 296
#     4  10  19  34  56  79 102 130 166 214 264 302
#     4   9  18  30  50  80 103 126 166 214 259 300
#     4   9  17  30  48  71 102 134 166 207 253 296
#     4  10  18  29  51  81 103 123 163 212 260 308
#     4  11  23  34  49  76 107 139 174 209 250 303
#
# _framework density 17.228535000000001
#
# number of rings (size 3 to 8) (size 9 to 14) (size 15 to 20)
#    0.000    2.308    1.538    3.462    1.077    4.308 
#    0.000    0.000    0.000    3.692    0.000    4.308 
#    0.000    0.000    0.000    0.000    0.000    0.000 
#
# Total GULP energy -644232.443131 kJ/mol
# GULP energy per Si atom -12389.085445 kJ/mol
# Density = 1.718932 g / cm^3
# Si number density = 17.228535 Si / 1000 Ang^3
#
#
#
# Elastic Constant Matrix: (Units=GPa)
#
#
# Indices 1 2 3 4 5 6 
#
# 1 100.0566 38.0536 38.7948 0.0000 0.0000 0.0000
# 2 38.0536 117.1292 31.9193 0.0000 0.0000 0.0000
# 3 38.7948 31.9193 87.2539 0.0000 0.0000 0.0000
# 4 0.0000 0.0000 0.0000 13.4107 0.0000 0.0000
# 5 0.0000 0.0000 0.0000 0.0000 11.3197 0.0000
# 6 0.0000 0.0000 0.0000 0.0000 0.0000 27.4045
#
#
#
# Elastic Compliance Matrix: (Units=1/GPa)
#
#
# Indices 1 2 3 4 5 6 
#
# 1 0.012919 -0.002923 -0.004674 0.000000 0.000000 0.000000
# 2 -0.002923 0.010144 -0.002411 0.000000 0.000000 0.000000
# 3 -0.004674 -0.002411 0.014421 0.000000 0.000000 0.000000
# 4 0.000000 0.000000 0.000000 0.074567 0.000000 0.000000
# 5 0.000000 0.000000 0.000000 0.000000 0.088342 0.000000
# 6 0.000000 0.000000 0.000000 0.000000 0.000000 0.036490
#
#
# Mechanical properties :
#
#
# Convention : Reuss Voigt Hill
#
# Bulk Modulus (GPa) = 57.25330 57.99723 57.62527
# Shear Modulus (GPa) = 19.03142 23.47180 21.25161
#
# Velocity S-wave (km/s) = 3.32723 3.69505 3.51595
# Velocity P-wave (km/s) = 6.93285 7.20701 7.07126
#
# Compressibility (1/GPa) = 0.01746624
#
# Stress axis : x y z
#
# Youngs Moduli (GPa) = 77.40833 98.57659 69.34197
#
# Poissons Ratio (x) = 0.28816 0.32414
# Poissons Ratio (y) = 0.22628 0.16721
# Poissons Ratio (z) = 0.36184 0.23770
#
# Static dielectric constant tensor:
#      x y z
#    x 3.455290 0.000000 0.000000 
#    y 0.000000 3.498030 0.000000 
#    z 0.000000 0.000000 2.717780 
# 
# 
# High freq. dielectric constant tensor:
#      x y z
#    x 1.685620 0.000000 0.000000 
#    y 0.000000 1.671320 0.000000 
#    z 0.000000 0.000000 1.596760 
# 
# From -- ./inp_files/54698.got.cif
#   From: 2010.03.12/outbox.cif.g09.slc.cpg/sg63_28_cif.got.tgz:54698.got - 2010.04.10 19:34:48.
