data_PCOD8255582
_publ_section_title
;
Structure prediction by ZEFSAII (Michael W. Deem and Ramdas Pophale) SiO2 
 PCOD8255582
Probable space group: C M C M
;
_chemical_formula_sum "Si O2"
_cell_formula_units_Z 72
_cell_length_a 22.054204
_cell_length_b 10.841400
_cell_length_c 15.948934
_cell_angle_alpha 90.000000
_cell_angle_beta 90.000000
_cell_angle_gamma 90.000000
_cell_volume 3813.365355
_symmetry_space_group_name_H-M "C M C M"
_symmetry_group_IT_number 63
_symmetry_cell_setting 'orthorhombic'
loop_
_space_group_symop_operation_xyz
x,y,z
-x,-y,1/2+z
x,-y,-z
-x,y,1/2-z
-x,-y,-z
x,y,1/2-z
-x,y,z
x,-y,1/2+z
1/2+x,1/2+y,z
1/2-x,1/2-y,1/2+z
1/2+x,1/2-y,-z
1/2-x,1/2+y,1/2-z
1/2-x,1/2-y,-z
1/2+x,1/2+y,1/2-z
1/2-x,1/2+y,z
1/2+x,1/2-y,1/2+z
loop_
_atom_site_type_symbol
_atom_site_label
_atom_site_fract_x
_atom_site_fract_y
_atom_site_fract_z
Si Si1 0.645562 0.936013 0.586274
Si Si2 0.850916 0.000000 0.500000
Si Si3 0.070387 0.225637 0.510963
Si Si4 0.766134 0.179794 0.085267
Si Si5 0.626297 0.187787 0.656902
O O1 0.591142 0.841914 0.566377
O O2 0.703085 0.864455 0.626708
O O3 0.668058 0.000000 0.500000
O O4 0.621555 0.039377 0.649804
O O5 0.893330 0.104931 0.541921
O O6 0.808647 0.060557 0.429221
O O7 0.083595 0.248084 0.412217
O O8 0.000000 0.203327 0.525609
O O9 0.803207 0.272723 0.144909
O O10 0.750000 0.250000 0.000000
O O11 0.604310 0.225497 0.750000
#
# Coordination Sequence:
#
# PCOD8255582 Si02
#       5
#    16   8  16  16  16
#     4  10  18  32  55  79 105 139 181 227 265 314
#     4  10  17  30  56  82 105 130 176 234 268 308
#     4  10  21  35  55  81 107 144 191 223 261 323
#     4  11  16  32  56  82 108 138 179 223 276 323
#     4  10  22  34  51  81 112 142 178 227 284 325
#
# _framework density 18.880960000000002
#
# number of rings (size 3 to 8) (size 9 to 14) (size 15 to 20)
#    0.000    1.778    7.778    0.333    0.000    5.333 
#    0.000    0.000    0.000    1.333    0.000    0.000 
#    0.000    0.000    0.000    0.000    0.000    0.000 
#
# Total GULP energy -446278.018928 kJ/mol
# GULP energy per Si atom -12396.611637 kJ/mol
# Density = 1.883799 g / cm^3
# Si number density = 18.880960 Si / 1000 Ang^3
#
#
#
# Elastic Constant Matrix: (Units=GPa)
#
#
# Indices 1 2 3 4 5 6 
#
# 1 101.3452 25.2346 14.2958 0.0000 0.0000 0.0000
# 2 25.2346 100.6400 25.9212 0.0000 0.0000 0.0000
# 3 14.2958 25.9212 56.8033 0.0000 0.0000 0.0000
# 4 0.0000 0.0000 0.0000 13.6545 0.0000 0.0000
# 5 0.0000 0.0000 0.0000 0.0000 13.4147 0.0000
# 6 0.0000 0.0000 0.0000 0.0000 0.0000 28.4955
#
#
#
# Elastic Compliance Matrix: (Units=1/GPa)
#
#
# Indices 1 2 3 4 5 6 
#
# 1 0.010660 -0.002246 -0.001658 0.000000 0.000000 0.000000
# 2 -0.002246 0.011733 -0.004789 0.000000 0.000000 0.000000
# 3 -0.001658 -0.004789 0.020207 0.000000 0.000000 0.000000
# 4 0.000000 0.000000 0.000000 0.073236 0.000000 0.000000
# 5 0.000000 0.000000 0.000000 0.000000 0.074545 0.000000
# 6 0.000000 0.000000 0.000000 0.000000 0.000000 0.035093
#
#
# Mechanical properties :
#
#
# Convention : Reuss Voigt Hill
#
# Bulk Modulus (GPa) = 39.65916 43.29907 41.47912
# Shear Modulus (GPa) = 19.89926 24.00207 21.95067
#
# Velocity S-wave (km/s) = 3.24996 3.56930 3.41337
# Velocity P-wave (km/s) = 5.92734 6.32210 6.12790
#
# Compressibility (1/GPa) = 0.02521485
#
# Stress axis : x y z
#
# Youngs Moduli (GPa) = 93.80525 85.22965 49.48727
#
# Poissons Ratio (x) = 0.19142 0.08205
# Poissons Ratio (y) = 0.21068 0.23699
# Poissons Ratio (z) = 0.15553 0.40816
#
# Static dielectric constant tensor:
#      x y z
#    x 3.432820 0.000000 0.000000 
#    y 0.000000 3.838180 0.000000 
#    z 0.000000 0.000000 2.949710 
# 
# 
# High freq. dielectric constant tensor:
#      x y z
#    x 1.729080 0.000000 0.000000 
#    y 0.000000 1.751520 0.000000 
#    z 0.000000 0.000000 1.670770 
# 
# From -- ./inp_files/46756.got.cif
#   From: 2010.03.12/outbox.cif.g09.slc.cpg/sg63_24_cif.got.tgz:46756.got - 2010.04.10 19:34:48.
