data_PCOD8255626
_publ_section_title
;
Structure prediction by ZEFSAII (Michael W. Deem and Ramdas Pophale) SiO2 
 PCOD8255626
Probable space group: C M C M
;
_chemical_formula_sum "Si O2"
_cell_formula_units_Z 112
_cell_length_a 22.538298
_cell_length_b 17.577503
_cell_length_c 17.821398
_cell_angle_alpha 90.000000
_cell_angle_beta 90.000000
_cell_angle_gamma 90.000000
_cell_volume 7060.249794
_symmetry_space_group_name_H-M "C M C M"
_symmetry_group_IT_number 63
_symmetry_cell_setting 'orthorhombic'
loop_
_space_group_symop_operation_xyz
x,y,z
-x,-y,1/2+z
x,-y,-z
-x,y,1/2-z
-x,-y,-z
x,y,1/2-z
-x,y,z
x,-y,1/2+z
1/2+x,1/2+y,z
1/2-x,1/2-y,1/2+z
1/2+x,1/2-y,-z
1/2-x,1/2+y,1/2-z
1/2-x,1/2-y,-z
1/2+x,1/2+y,1/2-z
1/2-x,1/2+y,z
1/2+x,1/2-y,1/2+z
loop_
_atom_site_type_symbol
_atom_site_label
_atom_site_fract_x
_atom_site_fract_y
_atom_site_fract_z
Si Si1 0.717245 0.669486 0.838420
Si Si2 0.066753 0.588545 0.839037
Si Si3 0.678892 0.376283 0.667013
Si Si4 0.285341 0.516618 0.587175
Si Si5 0.153481 0.716666 0.839397
Si Si6 0.345492 0.978418 0.586534
Si Si7 0.183958 0.333884 0.833652
O O1 0.715710 0.649198 0.750000
O O2 0.691111 0.599438 0.887514
O O3 0.784351 0.682084 0.867932
O O4 0.677252 0.744441 0.855147
O O5 0.066657 0.586907 0.750000
O O6 0.099816 0.664417 0.868861
O O7 0.100869 0.514612 0.867527
O O8 0.000000 0.588735 0.871122
O O9 0.655064 0.393989 0.750000
O O10 0.670383 0.453223 0.620420
O O11 0.643809 0.303666 0.631412
O O12 0.746816 0.351037 0.669014
O O13 0.285185 0.500000 0.500000
O O14 0.217784 0.508429 0.617723
O O15 0.156440 0.720173 0.750000
O O16 0.348124 0.887379 0.604107
O O17 0.354012 0.000000 0.500000
O O18 0.157261 0.348586 0.750000
#
# Coordination Sequence:
#
# PCOD8255626 Si02
#       7
#    16  16  16  16  16  16  16
#     4   9  15  26  44  60  80 113 145 174 208 245
#     4  10  19  30  46  63  79 107 146 184 215 246
#     4   8  14  25  40  56  78 111 142 167 201 246
#     4  10  18  26  36  62  89 113 142 169 205 251
#     4   8  14  26  41  58  78 103 138 174 208 244
#     4  10  19  30  40  60  87 118 143 170 217 253
#     4   8  15  27  43  61  80 109 149 180 200 241
#
# _framework density 15.863462
#
# number of rings (size 3 to 8) (size 9 to 14) (size 15 to 20)
#    0.000    3.000    1.429    2.571    0.000    1.429 
#    2.571    2.857    0.000    0.000    0.000    0.000 
#    0.000    1.714    0.000    8.429    0.000    0.000 
#
# Total GULP energy -693849.263947 kJ/mol
# GULP energy per Si atom -12390.165428 kJ/mol
# Density = 1.582736 g / cm^3
# Si number density = 15.863462 Si / 1000 Ang^3
#
#
#
# Elastic Constant Matrix: (Units=GPa)
#
#
# Indices 1 2 3 4 5 6 
#
# 1 44.7199 37.2605 16.3867 0.0000 0.0000 0.0000
# 2 37.2605 156.4589 47.6004 0.0000 0.0000 0.0000
# 3 16.3867 47.6004 47.3339 0.0000 0.0000 0.0000
# 4 0.0000 0.0000 0.0000 19.9981 0.0000 0.0000
# 5 0.0000 0.0000 0.0000 0.0000 22.7121 0.0000
# 6 0.0000 0.0000 0.0000 0.0000 0.0000 14.8689
#
#
#
# Elastic Compliance Matrix: (Units=1/GPa)
#
#
# Indices 1 2 3 4 5 6 
#
# 1 0.028515 -0.005457 -0.004384 0.000000 0.000000 0.000000
# 2 -0.005457 0.010253 -0.008422 0.000000 0.000000 0.000000
# 3 -0.004384 -0.008422 0.031113 0.000000 0.000000 0.000000
# 4 0.000000 0.000000 0.000000 0.050005 0.000000 0.000000
# 5 0.000000 0.000000 0.000000 0.000000 0.044029 0.000000
# 6 0.000000 0.000000 0.000000 0.000000 0.000000 0.067255
#
#
# Mechanical properties :
#
#
# Convention : Reuss Voigt Hill
#
# Bulk Modulus (GPa) = 29.97970 50.11198 40.04584
# Shear Modulus (GPa) = 17.93313 21.33349 19.63331
#
# Velocity S-wave (km/s) = 3.36589 3.67116 3.52183
# Velocity P-wave (km/s) = 5.83483 7.04471 6.46812
#
# Compressibility (1/GPa) = 0.03335590
#
# Stress axis : x y z
#
# Youngs Moduli (GPa) = 35.06987 97.53018 32.14058
#
# Poissons Ratio (x) = 0.53222 0.14090
# Poissons Ratio (y) = 0.19138 0.27068
# Poissons Ratio (z) = 0.15374 0.82138
#
# Static dielectric constant tensor:
#      x y z
#    x 2.643150 0.000000 0.000000 
#    y 0.000000 3.374810 0.000000 
#    z 0.000000 0.000000 2.837760 
# 
# 
# High freq. dielectric constant tensor:
#      x y z
#    x 1.535800 0.000000 0.000000 
#    y 0.000000 1.627090 0.000000 
#    z 0.000000 0.000000 1.590830 
# 
# From -- ./inp_files/48357.got.cif
#   From: 2010.03.12/outbox.cif.g09.slc.cpg/sg63_25_cif.got.tgz:48357.got - 2010.04.10 19:34:48.
