data_PCOD8255001
_publ_section_title
;
Structure prediction by ZEFSAII (Michael W. Deem and Ramdas Pophale) SiO2 
 PCOD8255001
Probable space group: P N M A
;
_chemical_formula_sum "Si O2"
_cell_formula_units_Z 40
_cell_length_a 12.661534
_cell_length_b 8.677852
_cell_length_c 21.089723
_cell_angle_alpha 90.000000
_cell_angle_beta 90.000000
_cell_angle_gamma 90.000000
_cell_volume 2317.231588
_symmetry_space_group_name_H-M "P N M A"
_symmetry_group_IT_number 62
_symmetry_cell_setting 'orthorhombic'
loop_
_space_group_symop_operation_xyz
x,y,z
1/2-x,-y,1/2+z
1/2+x,1/2-y,1/2-z
-x,1/2+y,-z
-x,-y,-z
1/2+x,y,1/2-z
1/2-x,1/2+y,1/2+z
x,1/2-y,z
loop_
_atom_site_type_symbol
_atom_site_label
_atom_site_fract_x
_atom_site_fract_y
_atom_site_fract_z
Si Si1 0.003196 0.432561 0.569423
Si Si2 0.329398 0.430284 0.160006
Si Si3 0.878993 0.430089 0.804266
Si Si4 0.330180 0.430383 0.836380
Si Si5 0.889110 0.569843 0.207208
O O1 0.999521 0.250000 0.565231
O O2 0.901562 0.502479 0.607760
O O3 0.000000 0.500000 0.500000
O O4 0.110075 0.482871 0.604064
O O5 0.342075 0.250000 0.149701
O O6 0.205604 0.476311 0.154209
O O7 0.376834 0.476861 0.227835
O O8 0.851677 0.250000 0.810003
O O9 0.871700 0.487505 0.731659
O O10 0.998975 0.466916 0.826586
O O11 0.346752 0.250000 0.840726
O O12 0.205412 0.474206 0.841709
O O13 0.882581 0.750000 0.225844
#
# Coordination Sequence:
#
# PCOD8255001 Si02
#       5
#     8   8   8   8   8
#     4  11  21  36  53  73 101 137 176 213 251 303
#     4  11  21  31  46  74 107 135 166 206 253 302
#     4   9  16  30  52  74  99 131 164 203 252 305
#     4   8  15  28  49  74  98 126 164 205 250 300
#     4   9  16  31  53  75  99 132 167 206 254 305
#
# _framework density 17.261977999999999
#
# number of rings (size 3 to 8) (size 9 to 14) (size 15 to 20)
#    0.000    2.400    2.000    3.600    0.000    0.800 
#    0.000    1.000    0.000    1.200    0.000    0.000 
#    0.000    0.000    0.000    0.000    0.000    0.000 
#
# Total GULP energy -495751.302122 kJ/mol
# GULP energy per Si atom -12393.782553 kJ/mol
# Density = 1.722269 g / cm^3
# Si number density = 17.261978 Si / 1000 Ang^3
#
#
#
# Elastic Constant Matrix: (Units=GPa)
#
#
# Indices 1 2 3 4 5 6 
#
# 1 164.0830 30.7209 59.8298 0.0000 0.0000 0.0000
# 2 30.7209 58.9744 25.1631 0.0000 0.0000 0.0000
# 3 59.8298 25.1631 92.9864 0.0000 0.0000 0.0000
# 4 0.0000 0.0000 0.0000 22.7388 0.0000 0.0000
# 5 0.0000 0.0000 0.0000 0.0000 22.4965 0.0000
# 6 0.0000 0.0000 0.0000 0.0000 0.0000 16.9375
#
#
#
# Elastic Compliance Matrix: (Units=1/GPa)
#
#
# Indices 1 2 3 4 5 6 
#
# 1 0.008228 -0.002292 -0.004674 0.000000 0.000000 0.000000
# 2 -0.002292 0.019808 -0.003886 0.000000 0.000000 0.000000
# 3 -0.004674 -0.003886 0.014813 0.000000 0.000000 0.000000
# 4 0.000000 0.000000 0.000000 0.043978 0.000000 0.000000
# 5 0.000000 0.000000 0.000000 0.000000 0.044451 0.000000
# 6 0.000000 0.000000 0.000000 0.000000 0.000000 0.059041
#
#
# Mechanical properties :
#
#
# Convention : Reuss Voigt Hill
#
# Bulk Modulus (GPa) = 47.28922 60.83016 54.05969
# Shear Modulus (GPa) = 22.82374 25.78989 24.30682
#
# Velocity S-wave (km/s) = 3.64015 3.86946 3.75655
# Velocity P-wave (km/s) = 6.71730 7.43502 7.08525
#
# Compressibility (1/GPa) = 0.02114647
#
# Stress axis : x y z
#
# Youngs Moduli (GPa) = 121.53966 50.48389 67.50829
#
# Poissons Ratio (x) = 0.11570 0.31552
# Poissons Ratio (y) = 0.27855 0.26232
# Poissons Ratio (z) = 0.56805 0.19617
#
# Static dielectric constant tensor:
#      x y z
#    x 6.271830 0.000000 0.000000 
#    y 0.000000 3.011810 0.000000 
#    z 0.000000 0.000000 2.947010 
# 
# 
# High freq. dielectric constant tensor:
#      x y z
#    x 1.689210 0.000000 0.000000 
#    y 0.000000 1.648930 0.000000 
#    z 0.000000 0.000000 1.615950 
# 
# From -- ./inp_files/22788.got.cif
#   From: 2010.03.12/outbox.cif.g09.slc.cpg/sg62_12_cif.got.tgz:22788.got - 2010.04.10 19:12:36.
