data_PCOD8255150
_publ_section_title
;
Structure prediction by ZEFSAII (Michael W. Deem and Ramdas Pophale) SiO2 
 PCOD8255150
Probable space group: P N M A
;
_chemical_formula_sum "Si O2"
_cell_formula_units_Z 48
_cell_length_a 13.737098
_cell_length_b 17.340101
_cell_length_c 10.036996
_cell_angle_alpha 90.000000
_cell_angle_beta 90.000000
_cell_angle_gamma 90.000000
_cell_volume 2390.839214
_symmetry_space_group_name_H-M "P N M A"
_symmetry_group_IT_number 62
_symmetry_cell_setting 'orthorhombic'
loop_
_space_group_symop_operation_xyz
x,y,z
1/2-x,-y,1/2+z
1/2+x,1/2-y,1/2-z
-x,1/2+y,-z
-x,-y,-z
1/2+x,y,1/2-z
1/2-x,1/2+y,1/2+z
x,1/2-y,z
loop_
_atom_site_type_symbol
_atom_site_label
_atom_site_fract_x
_atom_site_fract_y
_atom_site_fract_z
Si Si1 0.953158 0.837749 0.233794
Si Si2 0.733667 0.094741 0.608946
Si Si3 0.480764 0.589769 0.979026
Si Si4 0.172451 0.659128 0.642944
Si Si5 0.235503 0.414963 0.402782
Si Si6 0.837857 0.337430 0.850500
O O1 0.915621 0.750000 0.246062
O O2 0.873134 0.890725 0.165401
O O3 0.978029 0.867772 0.380041
O O4 0.045861 0.842012 0.135865
O O5 0.749566 0.140005 0.471444
O O6 0.814760 0.123638 0.710277
O O7 0.747207 0.005086 0.587137
O O8 0.566368 0.625101 0.889435
O O9 0.379530 0.603233 0.900933
O O10 0.500000 0.500000 0.000000
O O11 0.163704 0.750000 0.663856
O O12 0.212152 0.621071 0.776558
O O13 0.283581 0.381110 0.533855
O O14 0.800377 0.250000 0.849961
#
# Coordination Sequence:
#
# PCOD8255150 Si02
#       6
#     8   8   8   8   8   8
#     4  11  23  40  70  99 126 173 231 282 328 395
#     4  12  23  42  69  97 132 177 229 277 333 403
#     4  12  23  44  69  97 134 183 231 274 343 413
#     4  12  26  42  66 104 143 177 224 289 347 406
#     4  12  26  43  69 100 139 180 221 281 349 409
#     4  11  23  42  67  98 130 171 230 279 324 399
#
# _framework density 20.076632
#
# number of rings (size 3 to 8) (size 9 to 14) (size 15 to 20)
#    0.000    0.333    5.000    4.500    0.000    4.000 
#    0.000    0.000    0.000    0.000    0.000    0.000 
#    0.000    0.000    0.000    0.000    0.000    0.000 
#
# Total GULP energy -595431.140190 kJ/mol
# GULP energy per Si atom -12404.815421 kJ/mol
# Density = 2.003094 g / cm^3
# Si number density = 20.076632 Si / 1000 Ang^3
#
#
#
# Elastic Constant Matrix: (Units=GPa)
#
#
# Indices 1 2 3 4 5 6 
#
# 1 136.1770 15.8570 26.1805 0.0000 0.0000 0.0000
# 2 15.8570 182.9191 -9.9564 0.0000 0.0000 0.0000
# 3 26.1805 -9.9564 58.1537 0.0000 0.0000 0.0000
# 4 0.0000 0.0000 0.0000 40.9675 0.0000 0.0000
# 5 0.0000 0.0000 0.0000 0.0000 41.4279 0.0000
# 6 0.0000 0.0000 0.0000 0.0000 0.0000 36.0322
#
#
#
# Elastic Compliance Matrix: (Units=1/GPa)
#
#
# Indices 1 2 3 4 5 6 
#
# 1 0.008189 -0.000919 -0.003844 0.000000 0.000000 0.000000
# 2 -0.000919 0.005621 0.001376 0.000000 0.000000 0.000000
# 3 -0.003844 0.001376 0.019162 0.000000 0.000000 0.000000
# 4 0.000000 0.000000 0.000000 0.024410 0.000000 0.000000
# 5 0.000000 0.000000 0.000000 0.000000 0.024138 0.000000
# 6 0.000000 0.000000 0.000000 0.000000 0.000000 0.027753
#
#
# Mechanical properties :
#
#
# Convention : Reuss Voigt Hill
#
# Bulk Modulus (GPa) = 38.16976 49.04579 43.60777
# Shear Modulus (GPa) = 40.07015 46.69677 43.38346
#
# Velocity S-wave (km/s) = 4.47235 4.82802 4.65358
# Velocity P-wave (km/s) = 6.76184 7.45399 7.11634
#
# Compressibility (1/GPa) = 0.02619875
#
# Stress axis : x y z
#
# Youngs Moduli (GPa) = 122.10783 177.88882 52.18632
#
# Poissons Ratio (x) = 0.16351 0.20062
# Poissons Ratio (y) = 0.11224 -0.07182
# Poissons Ratio (z) = 0.46941 -0.24482
#
# Static dielectric constant tensor:
#      x y z
#    x 3.765790 0.000000 0.000000 
#    y 0.000000 3.950840 0.000000 
#    z 0.000000 0.000000 3.740000 
# 
# 
# High freq. dielectric constant tensor:
#      x y z
#    x 1.803260 0.000000 0.000000 
#    y 0.000000 1.804050 0.000000 
#    z 0.000000 0.000000 1.783430 
# 
# From -- ./inp_files/6448.got.cif
#   From: 2010.03.12/outbox.cif.g09.slc.cpg/sg62_4_cif.got.tgz:6448.got - 2010.04.10 19:12:36.
