data_PCOD8255719
_publ_section_title
;
Structure prediction by ZEFSAII (Michael W. Deem and Ramdas Pophale) SiO2 
 PCOD8255719
Probable space group: C M C M
;
_chemical_formula_sum "Si O2"
_cell_formula_units_Z 88
_cell_length_a 19.132353
_cell_length_b 27.756144
_cell_length_c 8.741749
_cell_angle_alpha 90.000000
_cell_angle_beta 90.000000
_cell_angle_gamma 90.000000
_cell_volume 4642.221404
_symmetry_space_group_name_H-M "C M C M"
_symmetry_group_IT_number 63
_symmetry_cell_setting 'orthorhombic'
loop_
_space_group_symop_operation_xyz
x,y,z
-x,-y,1/2+z
x,-y,-z
-x,y,1/2-z
-x,-y,-z
x,y,1/2-z
-x,y,z
x,-y,1/2+z
1/2+x,1/2+y,z
1/2-x,1/2-y,1/2+z
1/2+x,1/2-y,-z
1/2-x,1/2+y,1/2-z
1/2-x,1/2-y,-z
1/2+x,1/2+y,1/2-z
1/2-x,1/2+y,z
1/2+x,1/2-y,1/2+z
loop_
_atom_site_type_symbol
_atom_site_label
_atom_site_fract_x
_atom_site_fract_y
_atom_site_fract_z
Si Si1 0.676847 0.148809 0.573087
Si Si2 0.309898 0.692607 0.076921
Si Si3 0.921664 0.732242 0.928659
Si Si4 0.000000 0.948418 0.566874
Si Si5 0.357732 0.586728 0.421490
Si Si6 0.712652 0.050669 0.432202
O O1 0.689658 0.137266 0.750000
O O2 0.738995 0.184737 0.518550
O O3 0.604506 0.177454 0.545174
O O4 0.669166 0.097790 0.485106
O O5 0.289001 0.707753 0.250000
O O6 0.363288 0.731362 0.000716
O O7 0.351848 0.643435 0.077002
O O8 0.926312 0.744339 0.750000
O O9 0.000000 0.738085 0.000685
O O10 0.930618 0.924333 0.495039
O O11 0.000000 0.945434 0.750000
O O12 0.000000 0.000000 0.500000
O O13 0.360839 0.566449 0.250000
O O14 0.291158 0.559968 0.497702
O O15 0.708876 0.048673 0.250000
O O16 0.684008 0.000000 0.500000
#
# Coordination Sequence:
#
# PCOD8255719 Si02
#       6
#    16  16  16   8  16  16
#     4  10  19  32  51  76 105 136 168 208 255 304
#     4   9  17  31  51  74  99 132 172 213 252 295
#     4   9  18  31  51  78 104 133 172 214 257 304
#     4  10  18  28  40  58  86 122 160 198 241 284
#     4   8  16  27  43  67  93 122 159 201 242 286
#     4  10  19  33  52  75  99 127 166 210 257 304
#
# _framework density 18.956443
#
# number of rings (size 3 to 8) (size 9 to 14) (size 15 to 20)
#    0.000    2.727    0.000    3.273    1.273    0.000 
#    0.000    4.545    0.000    5.455    0.000    0.000 
#    0.000    0.000    0.000    0.000    0.000    0.000 
#
# Total GULP energy -545104.801348 kJ/mol
# GULP energy per Si atom -12388.745485 kJ/mol
# Density = 1.891330 g / cm^3
# Si number density = 18.956443 Si / 1000 Ang^3
#
#
#
# Elastic Constant Matrix: (Units=GPa)
#
#
# Indices 1 2 3 4 5 6 
#
# 1 64.2076 39.5517 17.8467 0.0000 0.0000 0.0000
# 2 39.5517 101.2937 25.8186 0.0000 0.0000 0.0000
# 3 17.8467 25.8186 52.7539 0.0000 0.0000 0.0000
# 4 0.0000 0.0000 0.0000 26.7278 0.0000 0.0000
# 5 0.0000 0.0000 0.0000 0.0000 13.8645 0.0000
# 6 0.0000 0.0000 0.0000 0.0000 0.0000 16.2358
#
#
#
# Elastic Compliance Matrix: (Units=1/GPa)
#
#
# Indices 1 2 3 4 5 6 
#
# 1 0.021071 -0.007324 -0.003544 0.000000 0.000000 0.000000
# 2 -0.007324 0.013825 -0.004288 0.000000 0.000000 0.000000
# 3 -0.003544 -0.004288 0.022254 0.000000 0.000000 0.000000
# 4 0.000000 0.000000 0.000000 0.037414 0.000000 0.000000
# 5 0.000000 0.000000 0.000000 0.000000 0.072126 0.000000
# 6 0.000000 0.000000 0.000000 0.000000 0.000000 0.061592
#
#
# Mechanical properties :
#
#
# Convention : Reuss Voigt Hill
#
# Bulk Modulus (GPa) = 37.26198 42.74325 40.00261
# Shear Modulus (GPa) = 18.68867 20.36819 19.52843
#
# Velocity S-wave (km/s) = 3.14327 3.28147 3.21311
# Velocity P-wave (km/s) = 5.73348 6.07902 5.90878
#
# Compressibility (1/GPa) = 0.02683701
#
# Stress axis : x y z
#
# Youngs Moduli (GPa) = 47.45801 72.33132 44.93640
#
# Poissons Ratio (x) = 0.52978 0.15924
# Poissons Ratio (y) = 0.34760 0.19271
# Poissons Ratio (z) = 0.16818 0.31019
#
# Static dielectric constant tensor:
#      x y z
#    x 3.554130 0.000000 0.000000 
#    y 0.000000 3.512200 0.000000 
#    z 0.000000 0.000000 3.196680 
# 
# 
# High freq. dielectric constant tensor:
#      x y z
#    x 1.720320 0.000000 0.000000 
#    y 0.000000 1.745070 0.000000 
#    z 0.000000 0.000000 1.699500 
# 
# From -- ./inp_files/6840.got.cif
#   From: 2010.03.12/outbox.cif.g09.slc.cpg/sg63_4_cif.got.tgz:6840.got - 2010.04.10 19:34:48.
