data_PCOD8255050
_publ_section_title
;
Structure prediction by ZEFSAII (Michael W. Deem and Ramdas Pophale) SiO2 
 PCOD8255050
Probable space group: P N M A
;
_chemical_formula_sum "Si O2"
_cell_formula_units_Z 40
_cell_length_a 8.271390
_cell_length_b 10.576065
_cell_length_c 20.129837
_cell_angle_alpha 90.000000
_cell_angle_beta 90.000000
_cell_angle_gamma 90.000000
_cell_volume 1760.933145
_symmetry_space_group_name_H-M "P N M A"
_symmetry_group_IT_number 62
_symmetry_cell_setting 'orthorhombic'
loop_
_space_group_symop_operation_xyz
x,y,z
1/2-x,-y,1/2+z
1/2+x,1/2-y,1/2-z
-x,1/2+y,-z
-x,-y,-z
1/2+x,y,1/2-z
1/2-x,1/2+y,1/2+z
x,1/2-y,z
loop_
_atom_site_type_symbol
_atom_site_label
_atom_site_fract_x
_atom_site_fract_y
_atom_site_fract_z
Si Si1 0.757605 0.250000 0.731691
Si Si2 0.927510 0.035380 0.570118
Si Si3 0.141932 0.389869 0.305094
Si Si4 0.942642 0.601858 0.053975
Si Si5 0.926626 0.750000 0.351256
Si Si6 0.547550 0.015511 0.692132
O O1 0.746659 0.250000 0.812950
O O2 0.944526 0.250000 0.710206
O O3 0.672598 0.127963 0.703013
O O4 0.751332 0.097385 0.561859
O O5 0.055836 0.130623 0.601807
O O6 0.925261 0.917965 0.621076
O O7 0.000000 0.000000 0.500000
O O8 0.085025 0.250000 0.284506
O O9 0.336886 0.392200 0.308954
O O10 0.084590 0.492815 0.249432
O O11 0.991040 0.750000 0.038643
O O12 0.031262 0.548879 0.120749
O O13 0.000000 0.500000 0.000000
#
# Coordination Sequence:
#
# PCOD8255050 Si02
#       6
#     4   8   8   8   4   8
#     4  12  18  42  74  98 124 163 229 286 342 381
#     4  11  24  44  65  94 132 181 223 275 340 413
#     4  11  24  39  62  94 129 167 208 271 336 405
#     4  11  24  45  68  97 138 181 228 291 348 414
#     4  12  22  44  72 100 132 169 231 292 338 403
#     4  11  21  42  65  92 124 166 217 273 333 399
#
# _framework density 22.715230999999999
#
# number of rings (size 3 to 8) (size 9 to 14) (size 15 to 20)
#    0.000    0.800    8.000    0.600    1.400    5.600 
#    3.600    0.000    0.000    0.000    0.000    0.000 
#    0.000    0.000    0.000    0.000    0.000    0.000 
#
# Total GULP energy -495656.193524 kJ/mol
# GULP energy per Si atom -12391.404838 kJ/mol
# Density = 2.266353 g / cm^3
# Si number density = 22.715231 Si / 1000 Ang^3
#
#
#
# Elastic Constant Matrix: (Units=GPa)
#
#
# Indices 1 2 3 4 5 6 
#
# 1 25.4960 21.5044 42.4949 0.0000 0.0000 0.0000
# 2 21.5044 121.6496 56.6147 0.0000 0.0000 0.0000
# 3 42.4949 56.6147 190.5913 0.0000 0.0000 0.0000
# 4 0.0000 0.0000 0.0000 25.8786 0.0000 0.0000
# 5 0.0000 0.0000 0.0000 0.0000 42.0503 0.0000
# 6 0.0000 0.0000 0.0000 0.0000 0.0000 22.6434
#
#
#
# Elastic Compliance Matrix: (Units=1/GPa)
#
#
# Indices 1 2 3 4 5 6 
#
# 1 0.065493 -0.005549 -0.012954 0.000000 0.000000 0.000000
# 2 -0.005549 0.010009 -0.001736 0.000000 0.000000 0.000000
# 3 -0.012954 -0.001736 0.008651 0.000000 0.000000 0.000000
# 4 0.000000 0.000000 0.000000 0.038642 0.000000 0.000000
# 5 0.000000 0.000000 0.000000 0.000000 0.023781 0.000000
# 6 0.000000 0.000000 0.000000 0.000000 0.000000 0.044163
#
#
# Mechanical properties :
#
#
# Convention : Reuss Voigt Hill
#
# Bulk Modulus (GPa) = 22.89629 64.32945 43.61287
# Shear Modulus (GPa) = 20.34373 32.58932 26.46652
#
# Velocity S-wave (km/s) = 2.99590 3.79184 3.41712
# Velocity P-wave (km/s) = 4.69775 6.89581 5.90004
#
# Compressibility (1/GPa) = 0.04367519
#
# Stress axis : x y z
#
# Youngs Moduli (GPa) = 15.26871 99.90887 115.59503
#
# Poissons Ratio (x) = 0.55436 1.49747
# Poissons Ratio (y) = 0.08472 0.20068
# Poissons Ratio (z) = 0.19780 0.17345
#
# Static dielectric constant tensor:
#      x y z
#    x 3.944830 0.000000 0.000000 
#    y 0.000000 4.168080 0.000000 
#    z 0.000000 0.000000 4.701270 
# 
# 
# High freq. dielectric constant tensor:
#      x y z
#    x 1.881030 0.000000 0.000000 
#    y 0.000000 1.903770 0.000000 
#    z 0.000000 0.000000 1.905030 
# 
# From -- ./inp_files/21953.got.cif
#   From: 2010.03.12/outbox.cif.g09.slc.cpg/sg62_11_cif.got.tgz:21953.got - 2010.04.10 19:12:36.
