data_PCOD8255957
_publ_section_title
;
Structure prediction by ZEFSAII (Michael W. Deem and Ramdas Pophale) SiO2 
 PCOD8255957
Probable space group: C M C M
;
_chemical_formula_sum "Si O2"
_cell_formula_units_Z 80
_cell_length_a 13.905807
_cell_length_b 23.210308
_cell_length_c 14.796911
_cell_angle_alpha 90.000000
_cell_angle_beta 90.000000
_cell_angle_gamma 90.000000
_cell_volume 4775.822340
_symmetry_space_group_name_H-M "C M C M"
_symmetry_group_IT_number 63
_symmetry_cell_setting 'orthorhombic'
loop_
_space_group_symop_operation_xyz
x,y,z
-x,-y,1/2+z
x,-y,-z
-x,y,1/2-z
-x,-y,-z
x,y,1/2-z
-x,y,z
x,-y,1/2+z
1/2+x,1/2+y,z
1/2-x,1/2-y,1/2+z
1/2+x,1/2-y,-z
1/2-x,1/2+y,1/2-z
1/2-x,1/2-y,-z
1/2+x,1/2+y,1/2-z
1/2-x,1/2+y,z
1/2+x,1/2-y,1/2+z
loop_
_atom_site_type_symbol
_atom_site_label
_atom_site_fract_x
_atom_site_fract_y
_atom_site_fract_z
Si Si1 0.891463 0.522560 0.600884
Si Si2 0.886389 0.692265 0.480560
Si Si3 0.391114 0.296737 0.352359
Si Si4 0.886846 0.597866 0.347266
Si Si5 0.296110 0.859243 0.353115
O O1 0.892460 0.500000 0.500000
O O2 0.848871 0.467994 0.655557
O O3 0.821888 0.576468 0.615928
O O4 0.000000 0.540370 0.630881
O O5 0.857582 0.749796 0.426540
O O6 0.841816 0.637862 0.425250
O O7 0.845561 0.688831 0.582286
O O8 0.000000 0.687506 0.485707
O O9 0.385215 0.270824 0.250000
O O10 0.500000 0.317635 0.372343
O O11 0.319296 0.351035 0.360924
O O12 0.864102 0.626307 0.250000
O O13 0.000000 0.594226 0.365599
O O14 0.330754 0.848540 0.250000
#
# Coordination Sequence:
#
# PCOD8255957 Si02
#       5
#    16  16  16  16  16
#     4  10  18  30  45  67 101 131 151 181 231 291
#     4  10  18  30  48  71  99 126 153 190 236 285
#     4   9  19  35  52  69  91 123 166 208 238 267
#     4   9  16  26  43  66  92 124 156 184 223 277
#     4  11  21  31  47  71 100 130 159 192 235 283
#
# _framework density 16.751042000000002
#
# number of rings (size 3 to 8) (size 9 to 14) (size 15 to 20)
#    0.000    2.200    2.000    2.400    0.000    4.800 
#    0.000    0.000    0.000    0.600    0.000    0.000 
#    0.000    0.000    0.000    0.000    0.000    0.000 
#
# Total GULP energy -495573.840937 kJ/mol
# GULP energy per Si atom -12389.346023 kJ/mol
# Density = 1.671292 g / cm^3
# Si number density = 16.751042 Si / 1000 Ang^3
#
#
#
# Elastic Constant Matrix: (Units=GPa)
#
#
# Indices 1 2 3 4 5 6 
#
# 1 52.6615 54.9372 25.6077 0.0000 0.0000 0.0000
# 2 54.9372 84.5668 39.5744 0.0000 0.0000 0.0000
# 3 25.6077 39.5744 98.0047 0.0000 0.0000 0.0000
# 4 0.0000 0.0000 0.0000 21.1219 0.0000 0.0000
# 5 0.0000 0.0000 0.0000 0.0000 16.8816 0.0000
# 6 0.0000 0.0000 0.0000 0.0000 0.0000 23.1963
#
#
#
# Elastic Compliance Matrix: (Units=1/GPa)
#
#
# Indices 1 2 3 4 5 6 
#
# 1 0.058919 -0.038311 0.000075 0.000000 0.000000 0.000000
# 2 -0.038311 0.039491 -0.005936 0.000000 0.000000 0.000000
# 3 0.000075 -0.005936 0.012581 0.000000 0.000000 0.000000
# 4 0.000000 0.000000 0.000000 0.047344 0.000000 0.000000
# 5 0.000000 0.000000 0.000000 0.000000 0.059236 0.000000
# 6 0.000000 0.000000 0.000000 0.000000 0.000000 0.043110
#
#
# Mechanical properties :
#
#
# Convention : Reuss Voigt Hill
#
# Bulk Modulus (GPa) = 44.15612 52.83019 48.49315
# Shear Modulus (GPa) = 14.02231 19.91420 16.96825
#
# Velocity S-wave (km/s) = 2.89641 3.45169 3.18617
# Velocity P-wave (km/s) = 6.13213 6.89148 6.52286
#
# Compressibility (1/GPa) = 0.02264692
#
# Stress axis : x y z
#
# Youngs Moduli (GPa) = 16.97242 25.32236 79.48456
#
# Poissons Ratio (x) = 0.97012 -0.00596
# Poissons Ratio (y) = 0.65023 0.47184
# Poissons Ratio (z) = -0.00127 0.15032
#
# Static dielectric constant tensor:
#      x y z
#    x 2.866660 0.000000 0.000000 
#    y 0.000000 3.234530 0.000000 
#    z 0.000000 0.000000 3.547680 
# 
# 
# High freq. dielectric constant tensor:
#      x y z
#    x 1.596970 0.000000 0.000000 
#    y 0.000000 1.634200 0.000000 
#    z 0.000000 0.000000 1.667230 
# 
# From -- ./inp_files/29718.got.cif
#   From: 2010.03.12/outbox.cif.g09.slc.cpg/sg63_15_cif.got.tgz:29718.got - 2010.04.10 19:34:48.
