data_PCOD8255898
_publ_section_title
;
Structure prediction by ZEFSAII (Michael W. Deem and Ramdas Pophale) SiO2 
 PCOD8255898
Probable space group: C M C M
;
_chemical_formula_sum "Si O2"
_cell_formula_units_Z 112
_cell_length_a 22.669249
_cell_length_b 29.698645
_cell_length_c 9.518602
_cell_angle_alpha 90.000000
_cell_angle_beta 90.000000
_cell_angle_gamma 90.000000
_cell_volume 6408.360517
_symmetry_space_group_name_H-M "C M C M"
_symmetry_group_IT_number 63
_symmetry_cell_setting 'orthorhombic'
loop_
_space_group_symop_operation_xyz
x,y,z
-x,-y,1/2+z
x,-y,-z
-x,y,1/2-z
-x,-y,-z
x,y,1/2-z
-x,y,z
x,-y,1/2+z
1/2+x,1/2+y,z
1/2-x,1/2-y,1/2+z
1/2+x,1/2-y,-z
1/2-x,1/2+y,1/2-z
1/2-x,1/2-y,-z
1/2+x,1/2+y,1/2-z
1/2-x,1/2+y,z
1/2+x,1/2-y,1/2+z
loop_
_atom_site_type_symbol
_atom_site_label
_atom_site_fract_x
_atom_site_fract_y
_atom_site_fract_z
Si Si1 0.656895 0.638406 0.915140
Si Si2 0.069403 0.803976 0.914230
Si Si3 0.742469 0.793544 0.408694
Si Si4 0.292443 0.456533 0.087481
Si Si5 0.935185 0.383917 0.416455
Si Si6 0.607929 0.792168 0.089852
Si Si7 0.343195 0.043612 0.585733
O O1 0.644252 0.643406 0.750000
O O2 0.715077 0.666415 0.960092
O O3 0.667871 0.586279 0.955024
O O4 0.600678 0.655725 0.001684
O O5 0.085165 0.809156 0.750000
O O6 0.093768 0.756483 0.979037
O O7 0.000000 0.807320 0.941018
O O8 0.758238 0.780184 0.250000
O O9 0.750000 0.750000 0.500000
O O10 0.675125 0.808748 0.422274
O O11 0.300618 0.468802 0.250000
O O12 0.224596 0.443710 0.055782
O O13 0.313197 0.500000 0.000000
O O14 0.927105 0.380205 0.250000
O O15 0.928362 0.333323 0.479944
O O16 0.884785 0.416854 0.474712
O O17 0.000000 0.402373 0.457343
O O18 0.587684 0.785847 0.250000
O O19 0.354425 0.034672 0.750000
O O20 0.362098 0.000000 0.500000
#
# Coordination Sequence:
#
# PCOD8255898 Si02
#       7
#    16  16  16  16  16  16  16
#     4  10  20  33  51  75 103 132 163 200 246 296
#     4  10  20  33  50  73 100 131 167 203 238 284
#     4  10  18  29  47  72 100 130 162 199 244 290
#     4   9  18  33  52  75 100 126 158 198 246 297
#     4   9  16  26  43  67  92 124 167 206 238 275
#     4   9  16  28  46  68  97 128 162 204 240 274
#     4   9  17  30  48  69  94 123 157 199 245 290
#
# _framework density 17.477169
#
# number of rings (size 3 to 8) (size 9 to 14) (size 15 to 20)
#    0.000    2.571    1.429    1.286    0.000    6.286 
#    0.000    0.000    0.000    3.857    0.000    0.000 
#    0.000    0.000    0.000    0.000    0.000    0.000 
#
# Total GULP energy -694189.234401 kJ/mol
# GULP energy per Si atom -12396.236329 kJ/mol
# Density = 1.743739 g / cm^3
# Si number density = 17.477169 Si / 1000 Ang^3
#
#
#
# Elastic Constant Matrix: (Units=GPa)
#
#
# Indices 1 2 3 4 5 6 
#
# 1 86.0527 58.8932 30.7778 0.0000 0.0000 0.0000
# 2 58.8932 141.7844 45.2326 0.0000 0.0000 0.0000
# 3 30.7778 45.2326 37.8032 0.0000 0.0000 0.0000
# 4 0.0000 0.0000 0.0000 26.1829 0.0000 0.0000
# 5 0.0000 0.0000 0.0000 0.0000 20.5162 0.0000
# 6 0.0000 0.0000 0.0000 0.0000 0.0000 27.1950
#
#
#
# Elastic Compliance Matrix: (Units=1/GPa)
#
#
# Indices 1 2 3 4 5 6 
#
# 1 0.018038 -0.004540 -0.009253 0.000000 0.000000 0.000000
# 2 -0.004540 0.012550 -0.011320 0.000000 0.000000 0.000000
# 3 -0.009253 -0.011320 0.047531 0.000000 0.000000 0.000000
# 4 0.000000 0.000000 0.000000 0.038193 0.000000 0.000000
# 5 0.000000 0.000000 0.000000 0.000000 0.048742 0.000000
# 6 0.000000 0.000000 0.000000 0.000000 0.000000 0.036771
#
#
# Mechanical properties :
#
#
# Convention : Reuss Voigt Hill
#
# Bulk Modulus (GPa) = 35.85240 59.49416 47.67328
# Shear Modulus (GPa) = 19.13153 23.49462 21.31308
#
# Velocity S-wave (km/s) = 3.31215 3.67045 3.49590
# Velocity P-wave (km/s) = 5.93174 7.21650 6.60543
#
# Compressibility (1/GPa) = 0.02789213
#
# Stress axis : x y z
#
# Youngs Moduli (GPa) = 55.44000 79.67903 21.03901
#
# Poissons Ratio (x) = 0.36178 0.19467
# Poissons Ratio (y) = 0.25172 0.23817
# Poissons Ratio (z) = 0.51296 0.90198
#
# Static dielectric constant tensor:
#      x y z
#    x 3.419190 0.000000 0.000000 
#    y 0.000000 3.403470 0.000000 
#    z 0.000000 0.000000 2.933530 
# 
# 
# High freq. dielectric constant tensor:
#      x y z
#    x 1.670660 0.000000 0.000000 
#    y 0.000000 1.678610 0.000000 
#    z 0.000000 0.000000 1.636380 
# 
# From -- ./inp_files/23136.got.cif
#   From: 2010.03.12/outbox.cif.g09.slc.cpg/sg63_12_cif.got.tgz:23136.got - 2010.04.10 19:34:48.
