data_PCOD8255746
_publ_section_title
;
Structure prediction by ZEFSAII (Michael W. Deem and Ramdas Pophale) SiO2 
 PCOD8255746
Probable space group: C M C M
;
_chemical_formula_sum "Si O2"
_cell_formula_units_Z 96
_cell_length_a 28.656646
_cell_length_b 26.240728
_cell_length_c 8.658745
_cell_angle_alpha 90.000000
_cell_angle_beta 90.000000
_cell_angle_gamma 90.000000
_cell_volume 6511.127328
_symmetry_space_group_name_H-M "C M C M"
_symmetry_group_IT_number 63
_symmetry_cell_setting 'orthorhombic'
loop_
_space_group_symop_operation_xyz
x,y,z
-x,-y,1/2+z
x,-y,-z
-x,y,1/2-z
-x,-y,-z
x,y,1/2-z
-x,y,z
x,-y,1/2+z
1/2+x,1/2+y,z
1/2-x,1/2-y,1/2+z
1/2+x,1/2-y,-z
1/2-x,1/2+y,1/2-z
1/2-x,1/2-y,-z
1/2+x,1/2+y,1/2-z
1/2-x,1/2+y,z
1/2+x,1/2-y,1/2+z
loop_
_atom_site_type_symbol
_atom_site_label
_atom_site_fract_x
_atom_site_fract_y
_atom_site_fract_z
Si Si1 0.143001 0.748032 0.068872
Si Si2 0.693825 0.848664 0.069271
Si Si3 0.364154 0.052447 0.930691
Si Si4 0.447448 0.216596 0.930438
Si Si5 0.052878 0.391882 0.572399
Si Si6 0.275468 0.700722 0.432932
O O1 0.149119 0.752887 0.250000
O O2 0.161892 0.693324 0.013719
O O3 0.088685 0.752652 0.021610
O O4 0.170953 0.795221 0.989771
O O5 0.693754 0.836246 0.250000
O O6 0.673704 0.904171 0.031974
O O7 0.747004 0.847269 0.003234
O O8 0.373165 0.047024 0.750000
O O9 0.413251 0.063914 0.013479
O O10 0.344179 0.000000 0.000000
O O11 0.439115 0.223938 0.750000
O O12 0.500000 0.232208 0.979185
O O13 0.437914 0.157919 0.970319
O O14 0.063465 0.378076 0.750000
O O15 0.000000 0.411499 0.551820
O O16 0.273203 0.698971 0.250000
O O17 0.250000 0.750000 0.500000
#
# Coordination Sequence:
#
# PCOD8255746 Si02
#       6
#    16  16  16  16  16  16
#     4  11  19  28  45  65  86 110 136 170 206 249
#     4  10  19  32  46  62  83 106 134 171 213 255
#     4  11  23  35  49  63  81 107 138 177 219 263
#     4  10  19  30  44  62  85 112 141 173 211 253
#     4  10  20  33  48  63  79 102 136 177 220 264
#     4  10  18  28  44  64  85 107 132 165 205 250
#
# _framework density 14.743990999999999
#
# number of rings (size 3 to 8) (size 9 to 14) (size 15 to 20)
#    0.000    1.667    1.667    7.000    0.000    4.333 
#    0.000    0.000    0.000    0.000    0.000    0.000 
#    0.000    0.000    0.000    0.000    0.000    0.833 
#
# Total GULP energy -595178.250641 kJ/mol
# GULP energy per Si atom -12399.546888 kJ/mol
# Density = 1.471043 g / cm^3
# Si number density = 14.743991 Si / 1000 Ang^3
#
#
#
# Elastic Constant Matrix: (Units=GPa)
#
#
# Indices 1 2 3 4 5 6 
#
# 1 99.6534 45.9352 41.8485 0.0000 0.0000 0.0000
# 2 45.9352 43.9995 27.3085 0.0000 0.0000 0.0000
# 3 41.8485 27.3085 92.4722 0.0000 0.0000 0.0000
# 4 0.0000 0.0000 0.0000 18.9277 0.0000 0.0000
# 5 0.0000 0.0000 0.0000 0.0000 26.7918 0.0000
# 6 0.0000 0.0000 0.0000 0.0000 0.0000 17.2377
#
#
#
# Elastic Compliance Matrix: (Units=1/GPa)
#
#
# Indices 1 2 3 4 5 6 
#
# 1 0.020267 -0.018937 -0.003579 0.000000 0.000000 0.000000
# 2 -0.018937 0.045522 -0.004874 0.000000 0.000000 0.000000
# 3 -0.003579 -0.004874 0.013873 0.000000 0.000000 0.000000
# 4 0.000000 0.000000 0.000000 0.052833 0.000000 0.000000
# 5 0.000000 0.000000 0.000000 0.000000 0.037325 0.000000
# 6 0.000000 0.000000 0.000000 0.000000 0.000000 0.058013
#
#
# Mechanical properties :
#
#
# Convention : Reuss Voigt Hill
#
# Bulk Modulus (GPa) = 40.18872 51.81218 46.00045
# Shear Modulus (GPa) = 17.18765 20.66029 18.92397
#
# Velocity S-wave (km/s) = 3.41800 3.74741 3.58649
# Velocity P-wave (km/s) = 6.54934 7.34450 6.95828
#
# Compressibility (1/GPa) = 0.02488260
#
# Stress axis : x y z
#
# Youngs Moduli (GPa) = 49.34147 21.96726 72.08151
#
# Poissons Ratio (x) = 0.41599 0.25801
# Poissons Ratio (y) = 0.93438 0.35129
# Poissons Ratio (z) = 0.17662 0.10706
#
# Static dielectric constant tensor:
#      x y z
#    x 3.347690 0.000000 0.000000 
#    y 0.000000 2.638270 0.000000 
#    z 0.000000 0.000000 3.002460 
# 
# 
# High freq. dielectric constant tensor:
#      x y z
#    x 1.565300 0.000000 0.000000 
#    y 0.000000 1.503240 0.000000 
#    z 0.000000 0.000000 1.588540 
# 
# From -- ./inp_files/12994.got.cif
#   From: 2010.03.12/outbox.cif.g09.slc.cpg/sg63_7_cif.got.tgz:12994.got - 2010.04.10 19:34:48.
