data_PCOD8255314
_publ_section_title
;
Structure prediction by ZEFSAII (Michael W. Deem and Ramdas Pophale) SiO2 
 PCOD8255314
Probable space group: P N M A
;
_chemical_formula_sum "Si O2"
_cell_formula_units_Z 64
_cell_length_a 15.000000
_cell_length_b 9.000000
_cell_length_c 24.000000
_cell_angle_alpha 90.000000
_cell_angle_beta 90.000000
_cell_angle_gamma 90.000000
_cell_volume 3240.000000
_symmetry_space_group_name_H-M "P N M A"
_symmetry_group_IT_number 62
_symmetry_cell_setting 'orthorhombic'
loop_
_space_group_symop_operation_xyz
x,y,z
1/2-x,-y,1/2+z
1/2+x,1/2-y,1/2-z
-x,1/2+y,-z
-x,-y,-z
1/2+x,y,1/2-z
1/2-x,1/2+y,1/2+z
x,1/2-y,z
loop_
_atom_site_type_symbol
_atom_site_label
_atom_site_fract_x
_atom_site_fract_y
_atom_site_fract_z
Si Si1 0.554408 0.574085 0.049704
Si Si2 0.025048 0.585592 0.254521
Si Si3 0.249983 0.076585 0.175935
Si Si4 0.946164 0.573929 0.050303
Si Si5 0.949150 0.922267 0.852714
Si Si6 0.779056 0.419969 0.710204
Si Si7 0.749688 0.926406 0.086300
Si Si8 0.085465 0.082490 0.640632
O O1 0.555594 0.750000 0.040686
O O2 0.657843 0.516121 0.056082
O O3 0.497654 0.526952 0.103935
O O4 0.500000 0.500000 0.000000
O O5 0.026270 0.750000 0.226437
O O6 0.013694 0.458238 0.208544
O O7 0.114350 0.564755 0.290558
O O8 0.941641 0.570920 0.295025
O O9 0.260801 0.250000 0.183013
O O10 0.155761 0.036526 0.147027
O O11 0.260837 0.008315 0.237512
O O12 0.325983 0.017017 0.133814
O O13 0.950772 0.750000 0.042986
O O14 0.840932 0.523953 0.054007
O O15 0.997602 0.526207 0.105489
O O16 0.000000 0.500000 0.000000
O O17 0.965230 0.750000 0.867168
O O18 0.748141 0.250000 0.717270
O O19 0.745318 0.484534 0.650513
O O20 0.743642 0.750000 0.088900
O O21 0.110845 0.250000 0.623691
#
# Coordination Sequence:
#
# PCOD8255314 Si02
#       8
#     8   8   8   8   8   8   8   8
#     4  10  21  40  62  88 119 153 195 241 292 348
#     4   9  17  32  57  85 114 149 190 238 289 349
#     4  10  22  36  53  84 125 163 194 236 297 351
#     4  11  24  42  64  88 115 154 204 251 299 349
#     4  10  22  40  58  82 119 158 195 242 297 350
#     4   9  16  33  59  84 111 149 196 240 286 346
#     4   9  19  38  63  86 111 149 194 241 291 351
#     4  10  20  35  57  85 118 155 196 238 285 350
#
# _framework density 19.753086
#
# number of rings (size 3 to 8) (size 9 to 14) (size 15 to 20)
#    0.000    2.250    1.250    1.125    1.750    3.500 
#    0.000    6.250    0.000    0.000    0.000    0.000 
#    0.000    0.000    0.000    0.000    0.000    0.000 
#
# Total GULP energy -793274.945459 kJ/mol
# GULP energy per Si atom -12394.921023 kJ/mol
# Density = 1.970813 g / cm^3
# Si number density = 19.753086 Si / 1000 Ang^3
#
#
#
# Elastic Constant Matrix: (Units=GPa)
#
#
# Indices 1 2 3 4 5 6 
#
# 1 159.0982 51.0643 65.8289 0.0000 0.0000 0.0000
# 2 51.0643 58.9148 33.8464 0.0000 0.0000 0.0000
# 3 65.8289 33.8464 85.9834 0.0000 0.0000 0.0000
# 4 0.0000 0.0000 0.0000 30.6177 0.0000 0.0000
# 5 0.0000 0.0000 0.0000 0.0000 31.9722 0.0000
# 6 0.0000 0.0000 0.0000 0.0000 0.0000 30.1223
#
#
#
# Elastic Compliance Matrix: (Units=1/GPa)
#
#
# Indices 1 2 3 4 5 6 
#
# 1 0.010546 -0.005818 -0.005784 0.000000 0.000000 0.000000
# 2 -0.005818 0.025143 -0.005443 0.000000 0.000000 0.000000
# 3 -0.005784 -0.005443 0.018201 0.000000 0.000000 0.000000
# 4 0.000000 0.000000 0.000000 0.032661 0.000000 0.000000
# 5 0.000000 0.000000 0.000000 0.000000 0.031277 0.000000
# 6 0.000000 0.000000 0.000000 0.000000 0.000000 0.033198
#
#
# Mechanical properties :
#
#
# Convention : Reuss Voigt Hill
#
# Bulk Modulus (GPa) = 50.50408 67.27505 58.88957
# Shear Modulus (GPa) = 26.08024 28.75956 27.41990
#
# Velocity S-wave (km/s) = 3.63755 3.81983 3.72981
# Velocity P-wave (km/s) = 6.57766 7.32030 6.95889
#
# Compressibility (1/GPa) = 0.01980038
#
# Stress axis : x y z
#
# Youngs Moduli (GPa) = 94.82421 39.77185 54.94234
#
# Poissons Ratio (x) = 0.23139 0.31777
# Poissons Ratio (y) = 0.55167 0.29907
# Poissons Ratio (z) = 0.54844 0.21649
#
# Static dielectric constant tensor:
#      x y z
#    x 3.978070 0.000000 0.000000 
#    y 0.000000 3.409490 0.000000 
#    z 0.000000 0.000000 3.650270 
# 
# 
# High freq. dielectric constant tensor:
#      x y z
#    x 1.791650 0.000000 0.000000 
#    y 0.000000 1.748450 0.000000 
#    z 0.000000 0.000000 1.761150 
# 
# From -- ./inp_files/29803.got.cif
#   From: 2010.03.12/outbox.ucp.g09.slc.cvg/sg62_15_cif.got.tgz:29803.got - 2010.05.04 19:35:18.
