data_PCOD8255878
_publ_section_title
;
Structure prediction by ZEFSAII (Michael W. Deem and Ramdas Pophale) SiO2 
 PCOD8255878
Probable space group: C M C M
;
_chemical_formula_sum "Si O2"
_cell_formula_units_Z 128
_cell_length_a 22.785711
_cell_length_b 18.422400
_cell_length_c 19.210794
_cell_angle_alpha 90.000000
_cell_angle_beta 90.000000
_cell_angle_gamma 90.000000
_cell_volume 8064.066631
_symmetry_space_group_name_H-M "C M C M"
_symmetry_group_IT_number 63
_symmetry_cell_setting 'orthorhombic'
loop_
_space_group_symop_operation_xyz
x,y,z
-x,-y,1/2+z
x,-y,-z
-x,y,1/2-z
-x,-y,-z
x,y,1/2-z
-x,y,z
x,-y,1/2+z
1/2+x,1/2+y,z
1/2-x,1/2-y,1/2+z
1/2+x,1/2-y,-z
1/2-x,1/2+y,1/2-z
1/2-x,1/2-y,-z
1/2+x,1/2+y,1/2-z
1/2-x,1/2+y,z
1/2+x,1/2-y,1/2+z
loop_
_atom_site_type_symbol
_atom_site_label
_atom_site_fract_x
_atom_site_fract_y
_atom_site_fract_z
Si Si1 0.671837 0.231073 0.929020
Si Si2 0.432228 0.333250 0.952677
Si Si3 0.279846 0.880937 0.168406
Si Si4 0.933225 0.124202 0.611908
Si Si5 0.379181 0.479374 0.919806
Si Si6 0.285230 0.824545 0.928571
Si Si7 0.254386 0.983191 0.918515
Si Si8 0.667294 0.290108 0.328281
O O1 0.606411 0.263291 0.932516
O O2 0.675219 0.179806 0.860892
O O3 0.717882 0.297534 0.926949
O O4 0.687423 0.180940 0.994780
O O5 0.500000 0.315839 0.936144
O O6 0.411472 0.402572 0.907481
O O7 0.422002 0.350361 0.033349
O O8 0.292029 0.892671 0.250000
O O9 0.214481 0.851923 0.152120
O O10 0.287523 0.956317 0.127291
O O11 0.896650 0.175880 0.662609
O O12 0.000000 0.132658 0.634546
O O13 0.914201 0.040738 0.622769
O O14 0.312632 0.476226 0.892769
O O15 0.381001 0.500000 0.000000
O O16 0.287193 0.907628 0.904270
O O17 0.325981 0.779413 0.876836
O O18 0.257146 0.000000 0.000000
O O19 0.676483 0.263109 0.250000
#
# Coordination Sequence:
#
# PCOD8255878 Si02
#       8
#    16  16  16  16  16  16  16  16
#     4  10  18  31  50  73  99 132 167 210 253 294
#     4  10  18  29  48  76 102 130 172 215 249 286
#     4  10  21  34  50  73 102 130 165 209 254 303
#     4  10  18  29  46  69 102 140 174 206 242 290
#     4   9  17  26  43  71 104 134 171 204 240 287
#     4  10  19  29  50  73  97 131 172 208 251 300
#     4  11  18  29  51  78  99 134 167 198 247 308
#     4  10  20  33  46  68 101 136 172 212 250 295
#
# _framework density 15.872885
#
# number of rings (size 3 to 8) (size 9 to 14) (size 15 to 20)
#    0.000    2.000    5.000    0.375    0.000    2.250 
#    0.000    0.000    0.000    1.125    0.000    2.625 
#    0.000    0.000    0.000    0.000    0.000    0.000 
#
# Total GULP energy -793674.198875 kJ/mol
# GULP energy per Si atom -12401.159357 kJ/mol
# Density = 1.583676 g / cm^3
# Si number density = 15.872885 Si / 1000 Ang^3
#
#
#
# Elastic Constant Matrix: (Units=GPa)
#
#
# Indices 1 2 3 4 5 6 
#
# 1 75.2322 46.5566 17.2200 0.0000 0.0000 0.0000
# 2 46.5566 109.9189 38.8470 0.0000 0.0000 0.0000
# 3 17.2200 38.8470 64.3919 0.0000 0.0000 0.0000
# 4 0.0000 0.0000 0.0000 18.9626 0.0000 0.0000
# 5 0.0000 0.0000 0.0000 0.0000 15.1208 0.0000
# 6 0.0000 0.0000 0.0000 0.0000 0.0000 24.1344
#
#
#
# Elastic Compliance Matrix: (Units=1/GPa)
#
#
# Indices 1 2 3 4 5 6 
#
# 1 0.018018 -0.007535 -0.000272 0.000000 0.000000 0.000000
# 2 -0.007535 0.014714 -0.006862 0.000000 0.000000 0.000000
# 3 -0.000272 -0.006862 0.019742 0.000000 0.000000 0.000000
# 4 0.000000 0.000000 0.000000 0.052735 0.000000 0.000000
# 5 0.000000 0.000000 0.000000 0.000000 0.066134 0.000000
# 6 0.000000 0.000000 0.000000 0.000000 0.000000 0.041435
#
#
# Mechanical properties :
#
#
# Convention : Reuss Voigt Hill
#
# Bulk Modulus (GPa) = 43.22391 50.53224 46.87807
# Shear Modulus (GPa) = 20.01367 21.43818 20.72592
#
# Velocity S-wave (km/s) = 3.55473 3.67906 3.61743
# Velocity P-wave (km/s) = 6.64368 7.06767 6.85895
#
# Compressibility (1/GPa) = 0.02313534
#
# Stress axis : x y z
#
# Youngs Moduli (GPa) = 55.50132 67.96128 50.65219
#
# Poissons Ratio (x) = 0.51210 0.01380
# Poissons Ratio (y) = 0.41821 0.34757
# Poissons Ratio (z) = 0.01512 0.46634
#
# Static dielectric constant tensor:
#      x y z
#    x 2.817890 0.000000 0.000000 
#    y 0.000000 2.976230 0.000000 
#    z 0.000000 0.000000 2.793160 
# 
# 
# High freq. dielectric constant tensor:
#      x y z
#    x 1.584140 0.000000 0.000000 
#    y 0.000000 1.607790 0.000000 
#    z 0.000000 0.000000 1.589230 
# 
# From -- ./inp_files/48441.got.cif
#   From: 2010.03.12/outbox.cif.g09.slc.cpg/sg63_25_cif.got.tgz:48441.got - 2010.04.10 19:34:48.
