data_PCOD8255370
_publ_section_title
;
Structure prediction by ZEFSAII (Michael W. Deem and Ramdas Pophale) SiO2 
 PCOD8255370
Probable space group: C M C M
;
_chemical_formula_sum "Si O2"
_cell_formula_units_Z 72
_cell_length_a 10.360595
_cell_length_b 18.550523
_cell_length_c 22.524191
_cell_angle_alpha 90.000000
_cell_angle_beta 90.000000
_cell_angle_gamma 90.000000
_cell_volume 4329.024633
_symmetry_space_group_name_H-M "C M C M"
_symmetry_group_IT_number 63
_symmetry_cell_setting 'orthorhombic'
loop_
_space_group_symop_operation_xyz
x,y,z
-x,-y,1/2+z
x,-y,-z
-x,y,1/2-z
-x,-y,-z
x,y,1/2-z
-x,y,z
x,-y,1/2+z
1/2+x,1/2+y,z
1/2-x,1/2-y,1/2+z
1/2+x,1/2-y,-z
1/2-x,1/2+y,1/2-z
1/2-x,1/2-y,-z
1/2+x,1/2+y,1/2-z
1/2-x,1/2+y,z
1/2+x,1/2-y,1/2+z
loop_
_atom_site_type_symbol
_atom_site_label
_atom_site_fract_x
_atom_site_fract_y
_atom_site_fract_z
Si Si1 0.206061 0.000000 0.000000
Si Si2 0.146280 0.599154 0.086843
Si Si3 0.141416 0.906372 0.391869
Si Si4 0.351937 0.745540 0.947909
Si Si5 0.850094 0.486343 0.181293
O O1 0.284977 0.936030 0.969486
O O2 0.126753 0.040913 0.948855
O O3 0.174000 0.684219 0.092997
O O4 0.182736 0.562157 0.149466
O O5 0.000000 0.583606 0.071746
O O6 0.175155 0.825021 0.409677
O O7 0.255733 0.926948 0.346968
O O8 0.000000 0.908939 0.360627
O O9 0.500000 0.745304 0.972245
O O10 0.250000 0.750000 0.000000
O O11 0.817254 0.495747 0.250000
O O12 0.000000 0.463459 0.171728
#
# Coordination Sequence:
#
# PCOD8255370 Si02
#       5
#     8  16  16  16  16
#     4  10  16  28  48  70 103 130 165 196 239 292
#     4   9  17  29  49  74  99 126 164 206 245 284
#     4  10  20  31  48  74 104 133 162 198 246 296
#     4  10  19  32  47  72 106 135 162 195 240 298
#     4   9  19  36  55  72  92 125 170 213 248 286
#
# _framework density 16.631920999999998
#
# number of rings (size 3 to 8) (size 9 to 14) (size 15 to 20)
#    0.000    2.444    2.222    0.667    0.000    2.222 
#    0.000    1.111    0.000    4.000    0.000    0.000 
#    0.000    0.000    0.000    0.000    0.000    0.000 
#
# Total GULP energy -446069.148192 kJ/mol
# GULP energy per Si atom -12390.809672 kJ/mol
# Density = 1.659407 g / cm^3
# Si number density = 16.631921 Si / 1000 Ang^3
#
#
#
# Elastic Constant Matrix: (Units=GPa)
#
#
# Indices 1 2 3 4 5 6 
#
# 1 94.7447 52.2233 57.7153 0.0000 0.0000 0.0000
# 2 52.2233 125.4908 43.4775 0.0000 0.0000 0.0000
# 3 57.7153 43.4775 95.2907 0.0000 0.0000 0.0000
# 4 0.0000 0.0000 0.0000 15.3447 0.0000 0.0000
# 5 0.0000 0.0000 0.0000 0.0000 37.5042 0.0000
# 6 0.0000 0.0000 0.0000 0.0000 0.0000 25.4065
#
#
#
# Elastic Compliance Matrix: (Units=1/GPa)
#
#
# Indices 1 2 3 4 5 6 
#
# 1 0.018711 -0.004585 -0.009241 0.000000 0.000000 0.000000
# 2 -0.004585 0.010588 -0.002054 0.000000 0.000000 0.000000
# 3 -0.009241 -0.002054 0.017028 0.000000 0.000000 0.000000
# 4 0.000000 0.000000 0.000000 0.065169 0.000000 0.000000
# 5 0.000000 0.000000 0.000000 0.000000 0.026664 0.000000
# 6 0.000000 0.000000 0.000000 0.000000 0.000000 0.039360
#
#
# Mechanical properties :
#
#
# Convention : Reuss Voigt Hill
#
# Bulk Modulus (GPa) = 68.64383 69.15094 68.89738
# Shear Modulus (GPa) = 23.34950 26.45840 24.90395
#
# Velocity S-wave (km/s) = 3.75093 3.99284 3.87377
# Velocity P-wave (km/s) = 7.75379 7.93250 7.84365
#
# Compressibility (1/GPa) = 0.01456795
#
# Stress axis : x y z
#
# Youngs Moduli (GPa) = 53.44374 94.44254 58.72543
#
# Poissons Ratio (x) = 0.43303 0.54268
# Poissons Ratio (y) = 0.24505 0.12062
# Poissons Ratio (z) = 0.49387 0.19399
#
# Static dielectric constant tensor:
#      x y z
#    x 3.195880 0.000000 0.000000 
#    y 0.000000 3.714400 0.000000 
#    z 0.000000 0.000000 2.954190 
# 
# 
# High freq. dielectric constant tensor:
#      x y z
#    x 1.646820 0.000000 0.000000 
#    y 0.000000 1.649480 0.000000 
#    z 0.000000 0.000000 1.613310 
# 
# From -- ./inp_files/52350.got.cif
#   From: 2010.03.12/outbox.cif.g09.slc.cpg/sg63_27_cif.got.tgz:52350.got - 2010.04.10 19:34:48.
