data_PCOD8255317
_publ_section_title
;
Structure prediction by ZEFSAII (Michael W. Deem and Ramdas Pophale) SiO2 
 PCOD8255317
Probable space group: P N M A
;
_chemical_formula_sum "Si O2"
_cell_formula_units_Z 64
_cell_length_a 9.000000
_cell_length_b 30.000000
_cell_length_c 12.000000
_cell_angle_alpha 90.000000
_cell_angle_beta 90.000000
_cell_angle_gamma 90.000000
_cell_volume 3240.000000
_symmetry_space_group_name_H-M "P N M A"
_symmetry_group_IT_number 62
_symmetry_cell_setting 'orthorhombic'
loop_
_space_group_symop_operation_xyz
x,y,z
1/2-x,-y,1/2+z
1/2+x,1/2-y,1/2-z
-x,1/2+y,-z
-x,-y,-z
1/2+x,y,1/2-z
1/2-x,1/2+y,1/2+z
x,1/2-y,z
loop_
_atom_site_type_symbol
_atom_site_label
_atom_site_fract_x
_atom_site_fract_y
_atom_site_fract_z
Si Si1 0.026162 0.383684 0.948990
Si Si2 0.319400 0.339791 0.867163
Si Si3 0.952584 0.429569 0.625139
Si Si4 0.628105 0.465912 0.681440
Si Si5 0.958771 0.800341 0.525777
Si Si6 0.550549 0.101790 0.117570
Si Si7 0.821778 0.198620 0.867444
Si Si8 0.886835 0.071850 0.162433
O O1 0.192660 0.364747 0.939007
O O2 0.017494 0.430350 0.879741
O O3 0.928613 0.341335 0.908455
O O4 0.983731 0.399692 0.073487
O O5 0.433897 0.378957 0.828374
O O6 0.395351 0.304418 0.949387
O O7 0.265842 0.313167 0.757688
O O8 0.799954 0.457206 0.648212
O O9 0.089129 0.455134 0.687912
O O10 0.994665 0.423821 0.494250
O O11 0.591017 0.517772 0.652177
O O12 0.963933 0.750000 0.582860
O O13 0.951689 0.843508 0.608173
O O14 0.817863 0.802582 0.446723
O O15 0.715007 0.084649 0.146457
O O16 0.438858 0.087639 0.215670
O O17 0.889253 0.250000 0.869401
#
# Coordination Sequence:
#
# PCOD8255317 Si02
#       8
#     8   8   8   8   8   8   8   8
#     4  11  24  42  64  97 139 176 220 278 338 402
#     4  10  21  36  65  99 137 168 210 274 340 411
#     4  10  24  43  68 101 140 173 221 281 345 399
#     4  11  24  42  70 102 135 179 227 279 347 410
#     4  10  22  42  66  93 131 176 219 275 343 401
#     4  11  27  48  69  97 138 181 229 294 333 400
#     4  11  21  38  66  99 133 173 214 273 353 415
#     4  12  27  45  69  94 134 186 238 280 331 403
#
# _framework density 19.753086
#
# number of rings (size 3 to 8) (size 9 to 14) (size 15 to 20)
#    0.000    1.250    2.500    2.250   12.250    4.000 
#    0.000    1.250    0.000    0.000    0.000    0.000 
#    0.000    0.000    0.000    0.000    0.000    0.000 
#
# Total GULP energy -792880.475435 kJ/mol
# GULP energy per Si atom -12388.757429 kJ/mol
# Density = 1.970813 g / cm^3
# Si number density = 19.753086 Si / 1000 Ang^3
#
#
#
# Elastic Constant Matrix: (Units=GPa)
#
#
# Indices 1 2 3 4 5 6 
#
# 1 104.6332 55.3537 48.7346 0.0000 0.0000 0.0000
# 2 55.3537 200.8973 63.9271 0.0000 0.0000 0.0000
# 3 48.7346 63.9271 127.5923 0.0000 0.0000 0.0000
# 4 0.0000 0.0000 0.0000 40.7502 0.0000 0.0000
# 5 0.0000 0.0000 0.0000 0.0000 40.6293 0.0000
# 6 0.0000 0.0000 0.0000 0.0000 0.0000 39.9839
#
#
#
# Elastic Compliance Matrix: (Units=1/GPa)
#
#
# Indices 1 2 3 4 5 6 
#
# 1 0.012445 -0.002280 -0.003611 0.000000 0.000000 0.000000
# 2 -0.002280 0.006339 -0.002305 0.000000 0.000000 0.000000
# 3 -0.003611 -0.002305 0.010372 0.000000 0.000000 0.000000
# 4 0.000000 0.000000 0.000000 0.024540 0.000000 0.000000
# 5 0.000000 0.000000 0.000000 0.000000 0.024613 0.000000
# 6 0.000000 0.000000 0.000000 0.000000 0.000000 0.025010
#
#
# Mechanical properties :
#
#
# Convention : Reuss Voigt Hill
#
# Bulk Modulus (GPa) = 78.34864 85.46150 81.90507
# Shear Modulus (GPa) = 40.33332 41.94651 41.13991
#
# Velocity S-wave (km/s) = 4.52361 4.61319 4.56862
# Velocity P-wave (km/s) = 8.18744 8.46960 8.32972
#
# Compressibility (1/GPa) = 0.01276346
#
# Stress axis : x y z
#
# Youngs Moduli (GPa) = 80.35121 157.74197 96.41465
#
# Poissons Ratio (x) = 0.35965 0.34818
# Poissons Ratio (y) = 0.18320 0.22227
# Poissons Ratio (z) = 0.29017 0.36366
#
# Static dielectric constant tensor:
#      x y z
#    x 3.757590 0.000000 0.000000 
#    y 0.000000 4.422660 0.000000 
#    z 0.000000 0.000000 3.679350 
# 
# 
# High freq. dielectric constant tensor:
#      x y z
#    x 1.783790 0.000000 0.000000 
#    y 0.000000 1.814870 0.000000 
#    z 0.000000 0.000000 1.768600 
# 
# From -- ./inp_files/11542.got.cif
#   From: 2010.03.12/outbox.ucp.g09.slc.cvg/sg62_6_cif.got.tgz:11542.got - 2010.05.04 19:35:18.
