data_PCOD8255107
_publ_section_title
;
Structure prediction by ZEFSAII (Michael W. Deem and Ramdas Pophale) SiO2 
 PCOD8255107
Probable space group: P N M A
;
_chemical_formula_sum "Si O2"
_cell_formula_units_Z 48
_cell_length_a 8.671588
_cell_length_b 15.400492
_cell_length_c 18.162076
_cell_angle_alpha 90.000000
_cell_angle_beta 90.000000
_cell_angle_gamma 90.000000
_cell_volume 2425.485708
_symmetry_space_group_name_H-M "P N M A"
_symmetry_group_IT_number 62
_symmetry_cell_setting 'orthorhombic'
loop_
_space_group_symop_operation_xyz
x,y,z
1/2-x,-y,1/2+z
1/2+x,1/2-y,1/2-z
-x,1/2+y,-z
-x,-y,-z
1/2+x,y,1/2-z
1/2-x,1/2+y,1/2+z
x,1/2-y,z
loop_
_atom_site_type_symbol
_atom_site_label
_atom_site_fract_x
_atom_site_fract_y
_atom_site_fract_z
Si Si1 0.154448 0.466048 0.962262
Si Si2 0.292967 0.044899 0.725152
Si Si3 0.330128 0.078594 0.101306
Si Si4 0.661147 0.750000 0.698578
Si Si5 0.922949 0.852912 0.166883
Si Si6 0.692323 0.250000 0.348211
Si Si7 0.333123 0.918492 0.853020
O O1 0.129589 0.376673 0.916446
O O2 0.207357 0.535851 0.903222
O O3 0.291302 0.458773 0.021240
O O4 0.000000 0.500000 0.000000
O O5 0.415651 0.100257 0.680266
O O6 0.192468 0.113751 0.770344
O O7 0.196180 0.991875 0.665034
O O8 0.371250 0.975615 0.780508
O O9 0.219555 0.162633 0.105932
O O10 0.510017 0.103271 0.103705
O O11 0.675840 0.750000 0.786131
O O12 0.480561 0.750000 0.682084
O O13 0.748302 0.668390 0.667442
O O14 0.938864 0.750000 0.173333
#
# Coordination Sequence:
#
# PCOD8255107 Si02
#       7
#     8   8   8   4   8   4   8
#     4  11  24  42  66  94 132 176 214 262 334 397
#     4  11  22  40  69  92 124 167 219 267 324 380
#     4  12  23  42  64  96 132 173 212 268 331 391
#     4  12  24  40  62 104 126 167 214 273 322 392
#     4  11  24  43  66  95 124 169 219 275 317 386
#     4  12  26  36  68  96 136 163 218 267 328 396
#     4  11  24  42  66  94 131 171 220 267 323 392
#
# _framework density 19.789850000000001
#
# number of rings (size 3 to 8) (size 9 to 14) (size 15 to 20)
#    0.000    0.667    5.000    3.500    3.500    0.000 
#    1.500    0.000    0.000    0.000    0.000    0.000 
#    0.000    0.000    0.000    0.000    0.000    0.000 
#
# Total GULP energy -595277.402782 kJ/mol
# GULP energy per Si atom -12401.612558 kJ/mol
# Density = 1.974481 g / cm^3
# Si number density = 19.789850 Si / 1000 Ang^3
#
#
#
# Elastic Constant Matrix: (Units=GPa)
#
#
# Indices 1 2 3 4 5 6 
#
# 1 85.7855 22.9066 10.7546 0.0000 0.0000 0.0000
# 2 22.9066 125.3101 31.8029 0.0000 0.0000 0.0000
# 3 10.7546 31.8029 97.7484 0.0000 0.0000 0.0000
# 4 0.0000 0.0000 0.0000 13.6537 0.0000 0.0000
# 5 0.0000 0.0000 0.0000 0.0000 32.9502 0.0000
# 6 0.0000 0.0000 0.0000 0.0000 0.0000 31.6150
#
#
#
# Elastic Compliance Matrix: (Units=1/GPa)
#
#
# Indices 1 2 3 4 5 6 
#
# 1 0.012296 -0.002076 -0.000677 0.000000 0.000000 0.000000
# 2 -0.002076 0.009049 -0.002716 0.000000 0.000000 0.000000
# 3 -0.000677 -0.002716 0.011188 0.000000 0.000000 0.000000
# 4 0.000000 0.000000 0.000000 0.073240 0.000000 0.000000
# 5 0.000000 0.000000 0.000000 0.000000 0.030349 0.000000
# 6 0.000000 0.000000 0.000000 0.000000 0.000000 0.031631
#
#
# Mechanical properties :
#
#
# Convention : Reuss Voigt Hill
#
# Bulk Modulus (GPa) = 46.30587 48.86358 47.58473
# Shear Modulus (GPa) = 26.89769 31.86910 29.38339
#
# Velocity S-wave (km/s) = 3.69069 4.01730 3.85745
# Velocity P-wave (km/s) = 6.45067 6.80170 6.62851
#
# Compressibility (1/GPa) = 0.02159553
#
# Stress axis : x y z
#
# Youngs Moduli (GPa) = 81.32597 110.51079 89.37779
#
# Poissons Ratio (x) = 0.22940 0.06055
# Poissons Ratio (y) = 0.16882 0.24272
# Poissons Ratio (z) = 0.05510 0.30012
#
# Static dielectric constant tensor:
#      x y z
#    x 3.654830 0.000000 0.000000 
#    y 0.000000 3.671380 0.000000 
#    z 0.000000 0.000000 3.743480 
# 
# 
# High freq. dielectric constant tensor:
#      x y z
#    x 1.782660 0.000000 0.000000 
#    y 0.000000 1.775800 0.000000 
#    z 0.000000 0.000000 1.776920 
# 
# From -- ./inp_files/22233.got.cif
#   From: 2010.03.12/outbox.cif.g09.slc.cpg/sg62_12_cif.got.tgz:22233.got - 2010.04.10 19:12:36.
