data_PCOD8255040
_publ_section_title
;
Structure prediction by ZEFSAII (Michael W. Deem and Ramdas Pophale) SiO2 
 PCOD8255040
Probable space group: P N M A
;
_chemical_formula_sum "Si O2"
_cell_formula_units_Z 40
_cell_length_a 23.177908
_cell_length_b 10.015902
_cell_length_c 8.594536
_cell_angle_alpha 90.000000
_cell_angle_beta 90.000000
_cell_angle_gamma 90.000000
_cell_volume 1995.201379
_symmetry_space_group_name_H-M "P N M A"
_symmetry_group_IT_number 62
_symmetry_cell_setting 'orthorhombic'
loop_
_space_group_symop_operation_xyz
x,y,z
1/2-x,-y,1/2+z
1/2+x,1/2-y,1/2-z
-x,1/2+y,-z
-x,-y,-z
1/2+x,y,1/2-z
1/2-x,1/2+y,1/2+z
x,1/2-y,z
loop_
_atom_site_type_symbol
_atom_site_label
_atom_site_fract_x
_atom_site_fract_y
_atom_site_fract_z
Si Si1 0.814241 0.250000 0.810778
Si Si2 0.817375 0.250000 0.178991
Si Si3 0.179857 0.250000 0.678995
Si Si4 0.879968 0.511469 0.816694
Si Si5 0.498231 0.912315 0.845747
Si Si6 0.112990 0.999882 0.815197
Si Si7 0.310914 0.750000 0.809127
O O1 0.746412 0.250000 0.756876
O O2 0.850929 0.376277 0.750207
O O3 0.815138 0.250000 0.994649
O O4 0.849075 0.378188 0.245680
O O5 0.754250 0.250000 0.246315
O O6 0.142847 0.126517 0.738766
O O7 0.178766 0.250000 0.493130
O O8 0.939620 0.547831 0.737509
O O9 0.834649 0.621433 0.772996
O O10 0.889043 0.510426 0.000204
O O11 0.501770 0.750000 0.872209
O O12 0.548366 0.970242 0.738079
O O13 0.500000 0.000000 0.000000
#
# Coordination Sequence:
#
# PCOD8255040 Si02
#       7
#     4   4   4   8   8   8   4
#     4   9  22  40  65  98 129 168 214 265 320 389
#     4   9  20  40  65  92 131 168 216 265 320 385
#     4  11  23  40  65  98 135 168 214 263 324 387
#     4  11  23  43  67  94 130 170 219 267 321 385
#     4  12  27  46  67  97 132 170 217 272 332 393
#     4  11  23  43  67  95 128 173 218 267 321 386
#     4  11  21  40  63  96 133 172 210 269 322 383
#
# _framework density 20.048102
#
# number of rings (size 3 to 8) (size 9 to 14) (size 15 to 20)
#    0.000    1.200    2.000    3.600    2.800    0.000 
#    0.000    6.000    0.000    0.000    0.000    0.000 
#    0.000    0.000    0.000    0.000    0.000    0.000 
#
# Total GULP energy -495790.508615 kJ/mol
# GULP energy per Si atom -12394.762715 kJ/mol
# Density = 2.000247 g / cm^3
# Si number density = 20.048102 Si / 1000 Ang^3
#
#
#
# Elastic Constant Matrix: (Units=GPa)
#
#
# Indices 1 2 3 4 5 6 
#
# 1 120.9456 50.8947 15.6078 0.0000 0.0000 0.0000
# 2 50.8947 175.0613 33.6657 0.0000 0.0000 0.0000
# 3 15.6078 33.6657 75.3213 0.0000 0.0000 0.0000
# 4 0.0000 0.0000 0.0000 38.4797 0.0000 0.0000
# 5 0.0000 0.0000 0.0000 0.0000 29.3034 0.0000
# 6 0.0000 0.0000 0.0000 0.0000 0.0000 50.3728
#
#
#
# Elastic Compliance Matrix: (Units=1/GPa)
#
#
# Indices 1 2 3 4 5 6 
#
# 1 0.009465 -0.002598 -0.000800 0.000000 0.000000 0.000000
# 2 -0.002598 0.006962 -0.002574 0.000000 0.000000 0.000000
# 3 -0.000800 -0.002574 0.014593 0.000000 0.000000 0.000000
# 4 0.000000 0.000000 0.000000 0.025988 0.000000 0.000000
# 5 0.000000 0.000000 0.000000 0.000000 0.034126 0.000000
# 6 0.000000 0.000000 0.000000 0.000000 0.000000 0.019852
#
#
# Mechanical properties :
#
#
# Convention : Reuss Voigt Hill
#
# Bulk Modulus (GPa) = 52.42027 63.51828 57.96928
# Shear Modulus (GPa) = 38.67369 41.70853 40.19111
#
# Velocity S-wave (km/s) = 4.39685 4.56611 4.48228
# Velocity P-wave (km/s) = 7.20975 7.71692 7.46764
#
# Compressibility (1/GPa) = 0.01907659
#
# Stress axis : x y z
#
# Youngs Moduli (GPa) = 105.65721 143.62791 68.52794
#
# Poissons Ratio (x) = 0.37310 0.05483
# Poissons Ratio (y) = 0.27447 0.17637
# Poissons Ratio (z) = 0.08454 0.36965
#
# Static dielectric constant tensor:
#      x y z
#    x 3.910200 0.000000 0.000000 
#    y 0.000000 4.037810 0.000000 
#    z 0.000000 0.000000 3.780600 
# 
# 
# High freq. dielectric constant tensor:
#      x y z
#    x 1.808700 0.000000 0.000000 
#    y 0.000000 1.804960 0.000000 
#    z 0.000000 0.000000 1.777190 
# 
# From -- ./inp_files/9149.got.cif
#   From: 2010.03.12/outbox.cif.g09.slc.cpg/sg62_5_cif.got.tgz:9149.got - 2010.04.10 19:12:36.
