data_PCOD8255265
_publ_section_title
;
Structure prediction by ZEFSAII (Michael W. Deem and Ramdas Pophale) SiO2 
 PCOD8255265
Probable space group: P N M A
;
_chemical_formula_sum "Si O2"
_cell_formula_units_Z 32
_cell_length_a 20.386154
_cell_length_b 14.091802
_cell_length_c 4.911644
_cell_angle_alpha 90.000000
_cell_angle_beta 90.000000
_cell_angle_gamma 90.000000
_cell_volume 1411.005525
_symmetry_space_group_name_H-M "P N M A"
_symmetry_group_IT_number 62
_symmetry_cell_setting 'orthorhombic'
loop_
_space_group_symop_operation_xyz
x,y,z
1/2-x,-y,1/2+z
1/2+x,1/2-y,1/2-z
-x,1/2+y,-z
-x,-y,-z
1/2+x,y,1/2-z
1/2-x,1/2+y,1/2+z
x,1/2-y,z
loop_
_atom_site_type_symbol
_atom_site_label
_atom_site_fract_x
_atom_site_fract_y
_atom_site_fract_z
Si Si1 0.764105 0.439095 0.770805
Si Si2 0.593537 0.250000 0.285932
Si Si3 0.983473 0.101095 0.118850
Si Si4 0.099672 0.856032 0.378713
Si Si5 0.817290 0.750000 0.284633
O O1 0.725958 0.501803 0.547925
O O2 0.835290 0.417483 0.650780
O O3 0.725967 0.342794 0.840523
O O4 0.551010 0.343539 0.335175
O O5 0.657480 0.250000 0.475951
O O6 0.619069 0.250000 0.977152
O O7 0.937194 0.155452 0.907505
O O8 0.946205 0.090481 0.405048
O O9 0.000000 0.000000 0.000000
O O10 0.116498 0.750000 0.483856
#
# Coordination Sequence:
#
# PCOD8255265 Si02
#       5
#     8   4   8   8   4
#     4  12  28  48  75 107 143 192 244 298 362 426
#     4  12  26  46  72 104 152 184 230 295 361 428
#     4  12  27  45  74 106 141 188 236 292 358 424
#     4  12  24  50  73 100 143 188 242 296 347 426
#     4  12  28  48  72 106 150 188 236 297 365 428
#
# _framework density 22.678864000000001
#
# number of rings (size 3 to 8) (size 9 to 14) (size 15 to 20)
#    0.000    0.000    3.750    5.250   10.500    0.000 
#    0.000    0.000    0.000    0.000    0.000    0.000 
#    0.000    0.000    0.000    0.000    0.000    0.000 
#
# Total GULP energy -397114.721457 kJ/mol
# GULP energy per Si atom -12409.835046 kJ/mol
# Density = 2.262725 g / cm^3
# Si number density = 22.678864 Si / 1000 Ang^3
#
#
#
# Elastic Constant Matrix: (Units=GPa)
#
#
# Indices 1 2 3 4 5 6 
#
# 1 97.6172 45.7632 27.1014 0.0000 0.0000 0.0000
# 2 45.7632 160.6156 22.5854 0.0000 0.0000 0.0000
# 3 27.1014 22.5854 98.4871 0.0000 0.0000 0.0000
# 4 0.0000 0.0000 0.0000 32.0379 0.0000 0.0000
# 5 0.0000 0.0000 0.0000 0.0000 49.2292 0.0000
# 6 0.0000 0.0000 0.0000 0.0000 0.0000 25.6314
#
#
#
# Elastic Compliance Matrix: (Units=1/GPa)
#
#
# Indices 1 2 3 4 5 6 
#
# 1 0.012485 -0.003177 -0.002707 0.000000 0.000000 0.000000
# 2 -0.003177 0.007242 -0.000787 0.000000 0.000000 0.000000
# 3 -0.002707 -0.000787 0.011079 0.000000 0.000000 0.000000
# 4 0.000000 0.000000 0.000000 0.031213 0.000000 0.000000
# 5 0.000000 0.000000 0.000000 0.000000 0.020313 0.000000
# 6 0.000000 0.000000 0.000000 0.000000 0.000000 0.039015
#
#
# Mechanical properties :
#
#
# Convention : Reuss Voigt Hill
#
# Bulk Modulus (GPa) = 57.25724 60.84666 59.05195
# Shear Modulus (GPa) = 35.58506 38.79770 37.19138
#
# Velocity S-wave (km/s) = 3.96546 4.14060 4.05398
# Velocity P-wave (km/s) = 6.80208 7.05318 6.92877
#
# Compressibility (1/GPa) = 0.01746504
#
# Stress axis : x y z
#
# Youngs Moduli (GPa) = 80.09716 138.08860 90.26149
#
# Poissons Ratio (x) = 0.43865 0.24435
# Poissons Ratio (y) = 0.25443 0.07100
# Poissons Ratio (z) = 0.21683 0.10862
#
# Static dielectric constant tensor:
#      x y z
#    x 4.027670 0.000000 0.000000 
#    y 0.000000 4.094330 0.000000 
#    z 0.000000 0.000000 4.250270 
# 
# 
# High freq. dielectric constant tensor:
#      x y z
#    x 1.899000 0.000000 0.000000 
#    y 0.000000 1.910320 0.000000 
#    z 0.000000 0.000000 1.909830 
# 
# From -- ./inp_files/1512.got.cif
#   From: 2010.03.12/outbox.cif.g09.slc.cpg/sg62_1_cif.got.tgz:1512.got - 2010.04.10 19:12:36.
