data_PCOD8255899
_publ_section_title
;
Structure prediction by ZEFSAII (Michael W. Deem and Ramdas Pophale) SiO2 
 PCOD8255899
Probable space group: C M C M
;
_chemical_formula_sum "Si O2"
_cell_formula_units_Z 80
_cell_length_a 14.983136
_cell_length_b 20.883560
_cell_length_c 14.815850
_cell_angle_alpha 90.000000
_cell_angle_beta 90.000000
_cell_angle_gamma 90.000000
_cell_volume 4635.897535
_symmetry_space_group_name_H-M "C M C M"
_symmetry_group_IT_number 63
_symmetry_cell_setting 'orthorhombic'
loop_
_space_group_symop_operation_xyz
x,y,z
-x,-y,1/2+z
x,-y,-z
-x,y,1/2-z
-x,-y,-z
x,y,1/2-z
-x,y,z
x,-y,1/2+z
1/2+x,1/2+y,z
1/2-x,1/2-y,1/2+z
1/2+x,1/2-y,-z
1/2-x,1/2+y,1/2-z
1/2-x,1/2-y,-z
1/2+x,1/2+y,1/2-z
1/2-x,1/2+y,z
1/2+x,1/2-y,1/2+z
loop_
_atom_site_type_symbol
_atom_site_label
_atom_site_fract_x
_atom_site_fract_y
_atom_site_fract_z
Si Si1 0.740339 0.177950 0.972260
Si Si2 0.295568 0.363516 0.650311
Si Si3 0.601462 0.627468 0.649650
Si Si4 0.602133 0.486757 0.599503
Si Si5 0.899415 0.732469 0.853695
O O1 0.830213 0.156880 0.921360
O O2 0.654392 0.176399 0.907051
O O3 0.750000 0.250000 0.000000
O O4 0.726333 0.137147 0.065365
O O5 0.249798 0.356489 0.750000
O O6 0.347092 0.430310 0.650356
O O7 0.362264 0.304247 0.633146
O O8 0.619465 0.655514 0.750000
O O9 0.500000 0.643924 0.618453
O O10 0.613172 0.551111 0.656900
O O11 0.642050 0.500000 0.500000
O O12 0.500000 0.464658 0.591081
O O13 0.894897 0.712021 0.750000
O O14 0.000000 0.732094 0.890458
#
# Coordination Sequence:
#
# PCOD8255899 Si02
#       5
#    16  16  16  16  16
#     4  10  20  32  48  68  97 132 168 207 240 281
#     4  10  19  31  48  71 100 133 165 197 238 290
#     4  10  20  33  50  74 104 134 159 190 239 297
#     4  10  18  29  47  72 103 133 162 192 234 295
#     4   9  18  32  51  73  96 127 169 212 248 281
#
# _framework density 17.256637000000001
#
# number of rings (size 3 to 8) (size 9 to 14) (size 15 to 20)
#    0.000    2.200    2.000    1.800    0.000    6.000 
#    0.000    0.000    0.000    0.600    0.000    2.800 
#    0.000    3.200    0.000    0.600    0.000    0.000 
#
# Total GULP energy -495622.754249 kJ/mol
# GULP energy per Si atom -12390.568856 kJ/mol
# Density = 1.721736 g / cm^3
# Si number density = 17.256637 Si / 1000 Ang^3
#
#
#
# Elastic Constant Matrix: (Units=GPa)
#
#
# Indices 1 2 3 4 5 6 
#
# 1 69.0240 31.3938 41.4886 0.0000 0.0000 0.0000
# 2 31.3938 59.9037 32.1671 0.0000 0.0000 0.0000
# 3 41.4886 32.1671 119.3093 0.0000 0.0000 0.0000
# 4 0.0000 0.0000 0.0000 24.5239 0.0000 0.0000
# 5 0.0000 0.0000 0.0000 0.0000 18.2149 0.0000
# 6 0.0000 0.0000 0.0000 0.0000 0.0000 25.8654
#
#
#
# Elastic Compliance Matrix: (Units=1/GPa)
#
#
# Indices 1 2 3 4 5 6 
#
# 1 0.021447 -0.008460 -0.005177 0.000000 0.000000 0.000000
# 2 -0.008460 0.022856 -0.003220 0.000000 0.000000 0.000000
# 3 -0.005177 -0.003220 0.011050 0.000000 0.000000 0.000000
# 4 0.000000 0.000000 0.000000 0.040777 0.000000 0.000000
# 5 0.000000 0.000000 0.000000 0.000000 0.054900 0.000000
# 6 0.000000 0.000000 0.000000 0.000000 0.000000 0.038662
#
#
# Mechanical properties :
#
#
# Convention : Reuss Voigt Hill
#
# Bulk Modulus (GPa) = 46.21343 50.92622 48.56982
# Shear Modulus (GPa) = 21.68065 23.26667 22.47366
#
# Velocity S-wave (km/s) = 3.54837 3.67587 3.61268
# Velocity P-wave (km/s) = 6.60501 6.89864 6.75342
#
# Compressibility (1/GPa) = 0.02163873
#
# Stress axis : x y z
#
# Youngs Moduli (GPa) = 46.62578 43.75151 90.49622
#
# Poissons Ratio (x) = 0.37013 0.46852
# Poissons Ratio (y) = 0.39445 0.29144
# Poissons Ratio (z) = 0.24139 0.14090
#
# Static dielectric constant tensor:
#      x y z
#    x 5.529470 0.000000 0.000000 
#    y 0.000000 3.184300 0.000000 
#    z 0.000000 0.000000 3.934270 
# 
# 
# High freq. dielectric constant tensor:
#      x y z
#    x 1.619450 0.000000 0.000000 
#    y 0.000000 1.645700 0.000000 
#    z 0.000000 0.000000 1.696160 
# 
# From -- ./inp_files/31627.got.cif
#   From: 2010.03.12/outbox.cif.g09.slc.cpg/sg63_16_cif.got.tgz:31627.got - 2010.04.10 19:34:48.
