data_PCOD8255372
_publ_section_title
;
Structure prediction by ZEFSAII (Michael W. Deem and Ramdas Pophale) SiO2 
 PCOD8255372
Probable space group: C M C M
;
_chemical_formula_sum "Si O2"
_cell_formula_units_Z 80
_cell_length_a 18.809248
_cell_length_b 13.694353
_cell_length_c 18.262126
_cell_angle_alpha 90.000000
_cell_angle_beta 90.000000
_cell_angle_gamma 90.000000
_cell_volume 4703.967213
_symmetry_space_group_name_H-M "C M C M"
_symmetry_group_IT_number 63
_symmetry_cell_setting 'orthorhombic'
loop_
_space_group_symop_operation_xyz
x,y,z
-x,-y,1/2+z
x,-y,-z
-x,y,1/2-z
-x,-y,-z
x,y,1/2-z
-x,y,z
x,-y,1/2+z
1/2+x,1/2+y,z
1/2-x,1/2-y,1/2+z
1/2+x,1/2-y,-z
1/2-x,1/2+y,1/2-z
1/2-x,1/2-y,-z
1/2+x,1/2+y,1/2-z
1/2-x,1/2+y,z
1/2+x,1/2-y,1/2+z
loop_
_atom_site_type_symbol
_atom_site_label
_atom_site_fract_x
_atom_site_fract_y
_atom_site_fract_z
Si Si1 0.579791 0.781587 0.333257
Si Si2 0.704139 0.634258 0.335134
Si Si3 0.871170 0.594308 0.961206
Si Si4 0.191608 0.261341 0.938211
Si Si5 0.708652 0.450659 0.426357
O O1 0.595781 0.817576 0.250000
O O2 0.500000 0.738706 0.337972
O O3 0.635056 0.697671 0.356829
O O4 0.585739 0.872251 0.389384
O O5 0.718417 0.635445 0.250000
O O6 0.775039 0.677433 0.371782
O O7 0.691649 0.522749 0.359515
O O8 0.792490 0.567459 0.933760
O O9 0.906885 0.500000 0.000000
O O10 0.872428 0.678892 0.023956
O O11 0.168469 0.152739 0.911965
O O12 0.250000 0.250000 0.000000
O O13 0.678572 0.500000 0.500000
#
# Coordination Sequence:
#
# PCOD8255372 Si02
#       5
#    16  16  16  16  16
#     4  10  21  35  49  69 102 137 167 201 238 290
#     4  11  20  30  48  75 100 128 165 202 247 298
#     4  10  17  31  53  75  94 129 163 201 253 291
#     4  10  16  30  49  73  99 129 154 203 255 294
#     4  10  16  28  49  72  98 127 157 201 253 295
#
# _framework density 17.006921999999999
#
# number of rings (size 3 to 8) (size 9 to 14) (size 15 to 20)
#    0.000    1.800   10.000    0.000    0.000    2.000 
#    0.000    0.000    0.000    5.400    0.000    0.000 
#    0.000    3.200    0.000    0.000    0.000    0.000 
#
# Total GULP energy -495754.248020 kJ/mol
# GULP energy per Si atom -12393.856201 kJ/mol
# Density = 1.696821 g / cm^3
# Si number density = 17.006922 Si / 1000 Ang^3
#
#
#
# Elastic Constant Matrix: (Units=GPa)
#
#
# Indices 1 2 3 4 5 6 
#
# 1 33.1690 15.2187 22.6840 0.0000 0.0000 0.0000
# 2 15.2187 137.6951 51.2873 0.0000 0.0000 0.0000
# 3 22.6840 51.2873 96.7142 0.0000 0.0000 0.0000
# 4 0.0000 0.0000 0.0000 35.3587 0.0000 0.0000
# 5 0.0000 0.0000 0.0000 0.0000 14.7795 0.0000
# 6 0.0000 0.0000 0.0000 0.0000 0.0000 9.9591
#
#
#
# Elastic Compliance Matrix: (Units=1/GPa)
#
#
# Indices 1 2 3 4 5 6 
#
# 1 0.036028 -0.001040 -0.007899 0.000000 0.000000 0.000000
# 2 -0.001040 0.009080 -0.004571 0.000000 0.000000 0.000000
# 3 -0.007899 -0.004571 0.014616 0.000000 0.000000 0.000000
# 4 0.000000 0.000000 0.000000 0.028282 0.000000 0.000000
# 5 0.000000 0.000000 0.000000 0.000000 0.067661 0.000000
# 6 0.000000 0.000000 0.000000 0.000000 0.000000 0.100411
#
#
# Mechanical properties :
#
#
# Convention : Reuss Voigt Hill
#
# Bulk Modulus (GPa) = 30.57689 49.55095 40.06392
# Shear Modulus (GPa) = 17.00688 23.91202 20.45945
#
# Velocity S-wave (km/s) = 3.16570 3.75376 3.47220
# Velocity P-wave (km/s) = 5.60182 6.92724 6.29948
#
# Compressibility (1/GPa) = 0.03270443
#
# Stress axis : x y z
#
# Youngs Moduli (GPa) = 27.75649 110.13231 68.41608
#
# Poissons Ratio (x) = 0.11453 0.54040
# Poissons Ratio (y) = 0.02886 0.31274
# Poissons Ratio (z) = 0.21924 0.50344
#
# Static dielectric constant tensor:
#      x y z
#    x 2.759560 0.000000 0.000000 
#    y 0.000000 -4.533350 0.000000 
#    z 0.000000 0.000000 3.300600 
# 
# 
# High freq. dielectric constant tensor:
#      x y z
#    x 1.595960 0.000000 0.000000 
#    y 0.000000 1.667400 0.000000 
#    z 0.000000 0.000000 1.658180 
# 
# From -- ./inp_files/45415.got.cif
#   From: 2010.03.12/outbox.cif.g09.slc.cpg/sg63_23_cif.got.tgz:45415.got - 2010.04.10 19:34:48.
