data_PCOD8255427
_publ_section_title
;
Structure prediction by ZEFSAII (Michael W. Deem and Ramdas Pophale) SiO2 
 PCOD8255427
Probable space group: C M C M
;
_chemical_formula_sum "Si O2"
_cell_formula_units_Z 104
_cell_length_a 9.889800
_cell_length_b 31.288679
_cell_length_c 18.911991
_cell_angle_alpha 90.000000
_cell_angle_beta 90.000000
_cell_angle_gamma 90.000000
_cell_volume 5852.103377
_symmetry_space_group_name_H-M "C M C M"
_symmetry_group_IT_number 63
_symmetry_cell_setting 'orthorhombic'
loop_
_space_group_symop_operation_xyz
x,y,z
-x,-y,1/2+z
x,-y,-z
-x,y,1/2-z
-x,-y,-z
x,y,1/2-z
-x,y,z
x,-y,1/2+z
1/2+x,1/2+y,z
1/2-x,1/2-y,1/2+z
1/2+x,1/2-y,-z
1/2-x,1/2+y,1/2-z
1/2-x,1/2-y,-z
1/2+x,1/2+y,1/2-z
1/2-x,1/2+y,z
1/2+x,1/2-y,1/2+z
loop_
_atom_site_type_symbol
_atom_site_label
_atom_site_fract_x
_atom_site_fract_y
_atom_site_fract_z
Si Si1 0.839179 0.475619 0.891521
Si Si2 0.345395 0.254500 0.250000
Si Si3 0.658274 0.059055 0.538863
Si Si4 0.343213 0.847827 0.019604
Si Si5 0.156557 0.433691 0.750000
Si Si6 0.249979 0.661872 0.250000
Si Si7 0.154354 0.727806 0.623210
Si Si8 0.852022 0.823734 0.597975
O O1 0.789756 0.525207 0.901950
O O2 0.775613 0.455069 0.820058
O O3 0.000000 0.472016 0.885968
O O4 0.783379 0.450197 0.960191
O O5 0.500000 0.270952 0.250000
O O6 0.350107 0.202768 0.250000
O O7 0.265215 0.273882 0.315875
O O8 0.500000 0.051325 0.532972
O O9 0.692020 0.107860 0.560368
O O10 0.500000 0.845887 0.998347
O O11 0.301241 0.808742 0.068769
O O12 0.262597 0.847545 0.946172
O O13 0.170640 0.382587 0.750000
O O14 0.000000 0.445066 0.750000
O O15 0.342681 0.665133 0.319242
O O16 0.162853 0.773156 0.584353
O O17 0.000000 0.720053 0.651186
O O18 0.000000 0.838711 0.571951
#
# Coordination Sequence:
#
# PCOD8255427 Si02
#       8
#    16   8  16  16   8   8  16  16
#     4   8  14  24  39  62  95 124 142 177 238 290
#     4  10  20  33  51  72  95 127 166 203 236 278
#     4   8  14  26  42  62  91 124 151 180 229 286
#     4  10  19  31  50  74  97 125 164 205 238 276
#     4  10  17  25  42  71  98 116 145 194 241 279
#     4  10  20  32  47  69  95 127 161 195 237 291
#     4   9  19  34  49  68  99 133 160 194 244 289
#     4  10  20  33  48  68  98 133 162 193 238 289
#
# _framework density 17.771388000000002
#
# number of rings (size 3 to 8) (size 9 to 14) (size 15 to 20)
#    0.000    2.769    0.000    3.000    0.000    6.769 
#    0.000    0.769    0.000    3.692    0.000    9.692 
#    0.000    0.000    0.000    0.000    0.000    0.000 
#
# Total GULP energy -644365.034551 kJ/mol
# GULP energy per Si atom -12391.635280 kJ/mol
# Density = 1.773094 g / cm^3
# Si number density = 17.771388 Si / 1000 Ang^3
#
#
#
# Elastic Constant Matrix: (Units=GPa)
#
#
# Indices 1 2 3 4 5 6 
#
# 1 65.3607 16.9109 28.3256 0.0000 0.0000 0.0000
# 2 16.9109 108.0373 56.2690 0.0000 0.0000 0.0000
# 3 28.3256 56.2690 94.6253 0.0000 0.0000 0.0000
# 4 0.0000 0.0000 0.0000 19.3198 0.0000 0.0000
# 5 0.0000 0.0000 0.0000 0.0000 16.4919 0.0000
# 6 0.0000 0.0000 0.0000 0.0000 0.0000 14.4682
#
#
#
# Elastic Compliance Matrix: (Units=1/GPa)
#
#
# Indices 1 2 3 4 5 6 
#
# 1 0.017580 -0.000016 -0.005253 0.000000 0.000000 0.000000
# 2 -0.000016 0.013409 -0.007969 0.000000 0.000000 0.000000
# 3 -0.005253 -0.007969 0.016879 0.000000 0.000000 0.000000
# 4 0.000000 0.000000 0.000000 0.051760 0.000000 0.000000
# 5 0.000000 0.000000 0.000000 0.000000 0.060636 0.000000
# 6 0.000000 0.000000 0.000000 0.000000 0.000000 0.069117
#
#
# Mechanical properties :
#
#
# Convention : Reuss Voigt Hill
#
# Bulk Modulus (GPa) = 46.74480 52.33716 49.54098
# Shear Modulus (GPa) = 19.01221 21.15715 20.08468
#
# Velocity S-wave (km/s) = 3.27436 3.45413 3.36545
# Velocity P-wave (km/s) = 6.37619 6.73960 6.56041
#
# Compressibility (1/GPa) = 0.02139275
#
# Stress axis : x y z
#
# Youngs Moduli (GPa) = 56.88147 74.57674 59.24432
#
# Poissons Ratio (x) = 0.00118 0.31122
# Poissons Ratio (y) = 0.00090 0.47211
# Poissons Ratio (z) = 0.29881 0.59430
#
# Static dielectric constant tensor:
#      x y z
#    x 2.895760 0.000000 0.000000 
#    y 0.000000 3.474170 0.000000 
#    z 0.000000 0.000000 3.289730 
# 
# 
# High freq. dielectric constant tensor:
#      x y z
#    x 1.642840 0.000000 0.000000 
#    y 0.000000 1.691990 0.000000 
#    z 0.000000 0.000000 1.677210 
# 
# From -- ./inp_files/51727.got.cif
#   From: 2010.03.12/outbox.cif.g09.slc.cpg/sg63_26_cif.got.tgz:51727.got - 2010.04.10 19:34:48.
