data_PCOD8255399
_publ_section_title
;
Structure prediction by ZEFSAII (Michael W. Deem and Ramdas Pophale) SiO2 
 PCOD8255399
Probable space group: C M C M
;
_chemical_formula_sum "Si O2"
_cell_formula_units_Z 80
_cell_length_a 11.839790
_cell_length_b 20.406923
_cell_length_c 16.290550
_cell_angle_alpha 90.000000
_cell_angle_beta 90.000000
_cell_angle_gamma 90.000000
_cell_volume 3936.019781
_symmetry_space_group_name_H-M "C M C M"
_symmetry_group_IT_number 63
_symmetry_cell_setting 'orthorhombic'
loop_
_space_group_symop_operation_xyz
x,y,z
-x,-y,1/2+z
x,-y,-z
-x,y,1/2-z
-x,-y,-z
x,y,1/2-z
-x,y,z
x,-y,1/2+z
1/2+x,1/2+y,z
1/2-x,1/2-y,1/2+z
1/2+x,1/2-y,-z
1/2-x,1/2+y,1/2-z
1/2-x,1/2-y,-z
1/2+x,1/2+y,1/2-z
1/2-x,1/2+y,z
1/2+x,1/2-y,1/2+z
loop_
_atom_site_type_symbol
_atom_site_label
_atom_site_fract_x
_atom_site_fract_y
_atom_site_fract_z
Si Si1 0.500000 0.622078 0.156082
Si Si2 0.000000 0.018868 0.906098
Si Si3 0.717023 0.308509 0.652206
Si Si4 0.737601 0.453099 0.152410
Si Si5 0.125997 0.420114 0.652184
Si Si6 0.128207 0.327401 0.152321
O O1 0.500000 0.644163 0.250000
O O2 0.500000 0.544417 0.151487
O O3 0.389291 0.652348 0.114278
O O4 0.113421 0.058980 0.885350
O O5 0.000000 0.000000 0.000000
O O6 0.715398 0.310538 0.750000
O O7 0.827317 0.348924 0.621883
O O8 0.707009 0.233345 0.621476
O O9 0.728007 0.452046 0.250000
O O10 0.792883 0.521196 0.120833
O O11 0.816434 0.394255 0.119603
O O12 0.122360 0.423229 0.750000
O O13 0.000000 0.428982 0.616145
O O14 0.123953 0.327875 0.250000
O O15 0.000000 0.320864 0.118331
#
# Coordination Sequence:
#
# PCOD8255399 Si02
#       6
#     8   8  16  16  16  16
#     4  10  16  30  56  80  98 125 173 218 254 301
#     4  12  24  36  52  74 102 135 176 222 263 306
#     4   9  15  25  46  77 107 131 165 211 253 299
#     4  10  19  33  53  76 103 135 169 210 260 308
#     4   9  16  26  44  73 105 133 163 203 251 298
#     4   9  16  27  47  79 111 134 164 208 255 304
#
# _framework density 20.325099999999999
#
# number of rings (size 3 to 8) (size 9 to 14) (size 15 to 20)
#    0.000    2.400    3.000    1.500    0.000    2.400 
#    1.800    0.000    0.000    3.600    0.000    0.000 
#    0.000    0.000    0.000    0.000    0.000    0.000 
#
# Total GULP energy -495701.093175 kJ/mol
# GULP energy per Si atom -12392.527329 kJ/mol
# Density = 2.027884 g / cm^3
# Si number density = 20.325100 Si / 1000 Ang^3
#
#
#
# Elastic Constant Matrix: (Units=GPa)
#
#
# Indices 1 2 3 4 5 6 
#
# 1 162.0791 71.6366 11.1095 0.0000 0.0000 0.0000
# 2 71.6366 150.5097 3.7515 0.0000 0.0000 0.0000
# 3 11.1095 3.7515 7.4568 0.0000 0.0000 0.0000
# 4 0.0000 0.0000 0.0000 2.0032 0.0000 0.0000
# 5 0.0000 0.0000 0.0000 0.0000 5.0563 0.0000
# 6 0.0000 0.0000 0.0000 0.0000 0.0000 40.7424
#
#
#
# Elastic Compliance Matrix: (Units=1/GPa)
#
#
# Indices 1 2 3 4 5 6 
#
# 1 0.008608 -0.003825 -0.010900 0.000000 0.000000 0.000000
# 2 -0.003825 0.008428 0.001459 0.000000 0.000000 0.000000
# 3 -0.010900 0.001459 0.149611 0.000000 0.000000 0.000000
# 4 0.000000 0.000000 0.000000 0.499201 0.000000 0.000000
# 5 0.000000 0.000000 0.000000 0.000000 0.197774 0.000000
# 6 0.000000 0.000000 0.000000 0.000000 0.000000 0.024544
#
#
# Mechanical properties :
#
#
# Convention : Reuss Voigt Hill
#
# Bulk Modulus (GPa) = 7.13701 54.78231 30.95966
# Shear Modulus (GPa) = 5.20073 25.13023 15.16548
#
# Velocity S-wave (km/s) = 1.60135 3.52008 2.73453
# Velocity P-wave (km/s) = 2.63404 6.59794 5.02349
#
# Compressibility (1/GPa) = 0.14011470
#
# Stress axis : x y z
#
# Youngs Moduli (GPa) = 116.17615 118.64681 6.68400
#
# Poissons Ratio (x) = 0.45385 0.07285
# Poissons Ratio (y) = 0.44440 -0.00975
# Poissons Ratio (z) = 1.26628 -0.17307
#
# Static dielectric constant tensor:
#      x y z
#    x 3.989160 0.000000 0.000000 
#    y 0.000000 3.938280 0.000000 
#    z 0.000000 0.000000 2.922340 
# 
# 
# High freq. dielectric constant tensor:
#      x y z
#    x 1.803630 0.000000 0.000000 
#    y 0.000000 1.798150 0.000000 
#    z 0.000000 0.000000 1.716290 
# 
# From -- ./inp_files/42193.got.cif
#   From: 2010.03.12/outbox.cif.g09.slc.cpg/sg63_22_cif.got.tgz:42193.got - 2010.04.10 19:34:48.
