data_PCOD8255043
_publ_section_title
;
Structure prediction by ZEFSAII (Michael W. Deem and Ramdas Pophale) SiO2 
 PCOD8255043
Probable space group: P N M A
;
_chemical_formula_sum "Si O2"
_cell_formula_units_Z 48
_cell_length_a 9.967100
_cell_length_b 8.369051
_cell_length_c 27.219114
_cell_angle_alpha 90.000000
_cell_angle_beta 90.000000
_cell_angle_gamma 90.000000
_cell_volume 2270.486973
_symmetry_space_group_name_H-M "P N M A"
_symmetry_group_IT_number 62
_symmetry_cell_setting 'orthorhombic'
loop_
_space_group_symop_operation_xyz
x,y,z
1/2-x,-y,1/2+z
1/2+x,1/2-y,1/2-z
-x,1/2+y,-z
-x,-y,-z
1/2+x,y,1/2-z
1/2-x,1/2+y,1/2+z
x,1/2-y,z
loop_
_atom_site_type_symbol
_atom_site_label
_atom_site_fract_x
_atom_site_fract_y
_atom_site_fract_z
Si Si1 0.738805 0.936153 0.571562
Si Si2 0.731717 0.435539 0.465171
Si Si3 0.473733 0.064960 0.608818
Si Si4 0.392196 0.435327 0.717683
Si Si5 0.392923 0.063884 0.209932
Si Si6 0.471035 0.439730 0.102800
O O1 0.726578 0.750000 0.583980
O O2 0.883957 0.005333 0.586818
O O3 0.714068 0.962226 0.514061
O O4 0.631751 0.031938 0.604153
O O5 0.745474 0.250000 0.479038
O O6 0.601451 0.458605 0.431513
O O7 0.862068 0.501415 0.436432
O O8 0.442091 0.250000 0.599373
O O9 0.424113 0.010812 0.662263
O O10 0.423999 0.250000 0.726118
O O11 0.483812 0.538567 0.753606
O O12 0.237187 0.470758 0.729696
O O13 0.357660 0.250000 0.206678
O O14 0.433222 0.994312 0.156555
O O15 0.471435 0.250000 0.103575
#
# Coordination Sequence:
#
# PCOD8255043 Si02
#       6
#     8   8   8   8   8   8
#     4  11  23  39  61  92 127 163 207 256 307 368
#     4  11  21  40  65  90 123 162 208 258 309 367
#     4  11  24  42  62  89 125 166 208 252 309 370
#     4  11  25  44  65  95 130 164 205 261 321 374
#     4  11  23  43  69  96 124 165 213 256 310 377
#     4   9  21  40  63  92 124 159 204 254 305 365
#
# _framework density 21.140840000000001
#
# number of rings (size 3 to 8) (size 9 to 14) (size 15 to 20)
#    0.000    1.333    1.667    3.500    2.333    2.000 
#    0.000    5.000    0.000    0.000    0.000    0.000 
#    0.000    0.000    0.000    0.000    0.000    0.000 
#
# Total GULP energy -595585.948079 kJ/mol
# GULP energy per Si atom -12408.040585 kJ/mol
# Density = 2.109272 g / cm^3
# Si number density = 21.140840 Si / 1000 Ang^3
#
#
#
# Elastic Constant Matrix: (Units=GPa)
#
#
# Indices 1 2 3 4 5 6 
#
# 1 113.7437 7.4595 19.8455 0.0000 0.0000 0.0000
# 2 7.4595 41.5994 15.4953 0.0000 0.0000 0.0000
# 3 19.8455 15.4953 78.1333 0.0000 0.0000 0.0000
# 4 0.0000 0.0000 0.0000 25.8122 0.0000 0.0000
# 5 0.0000 0.0000 0.0000 0.0000 42.9612 0.0000
# 6 0.0000 0.0000 0.0000 0.0000 0.0000 30.9867
#
#
#
# Elastic Compliance Matrix: (Units=1/GPa)
#
#
# Indices 1 2 3 4 5 6 
#
# 1 0.009227 -0.000844 -0.002176 0.000000 0.000000 0.000000
# 2 -0.000844 0.026033 -0.004949 0.000000 0.000000 0.000000
# 3 -0.002176 -0.004949 0.014333 0.000000 0.000000 0.000000
# 4 0.000000 0.000000 0.000000 0.038741 0.000000 0.000000
# 5 0.000000 0.000000 0.000000 0.000000 0.023277 0.000000
# 6 0.000000 0.000000 0.000000 0.000000 0.000000 0.032272
#
#
# Mechanical properties :
#
#
# Convention : Reuss Voigt Hill
#
# Bulk Modulus (GPa) = 29.71271 35.45298 32.58284
# Shear Modulus (GPa) = 29.23310 32.66375 30.94842
#
# Velocity S-wave (km/s) = 3.72261 3.93498 3.83027
# Velocity P-wave (km/s) = 5.70633 6.11978 5.91667
#
# Compressibility (1/GPa) = 0.03365563
#
# Stress axis : x y z
#
# Youngs Moduli (GPa) = 108.38074 38.41211 69.77012
#
# Poissons Ratio (x) = 0.03242 0.15183
# Poissons Ratio (y) = 0.09146 0.34526
# Poissons Ratio (z) = 0.23586 0.19009
#
# Static dielectric constant tensor:
#      x y z
#    x 3.970760 0.000000 0.000000 
#    y 0.000000 3.532220 0.000000 
#    z 0.000000 0.000000 3.818270 
# 
# 
# High freq. dielectric constant tensor:
#      x y z
#    x 1.844180 0.000000 0.000000 
#    y 0.000000 1.816030 0.000000 
#    z 0.000000 0.000000 1.832580 
# 
# From -- ./inp_files/32019.got.cif
#   From: 2010.03.12/outbox.cif.g09.slc.cpg/sg62_17_cif.got.tgz:32019.got - 2010.04.10 19:12:36.
