data_PCOD8255575
_publ_section_title
;
Structure prediction by ZEFSAII (Michael W. Deem and Ramdas Pophale) SiO2 
 PCOD8255575
Probable space group: C M C M
;
_chemical_formula_sum "Si O2"
_cell_formula_units_Z 64
_cell_length_a 20.354384
_cell_length_b 8.704890
_cell_length_c 17.724237
_cell_angle_alpha 90.000000
_cell_angle_beta 90.000000
_cell_angle_gamma 90.000000
_cell_volume 3140.427702
_symmetry_space_group_name_H-M "C M C M"
_symmetry_group_IT_number 63
_symmetry_cell_setting 'orthorhombic'
loop_
_space_group_symop_operation_xyz
x,y,z
-x,-y,1/2+z
x,-y,-z
-x,y,1/2-z
-x,-y,-z
x,y,1/2-z
-x,y,z
x,-y,1/2+z
1/2+x,1/2+y,z
1/2-x,1/2-y,1/2+z
1/2+x,1/2-y,-z
1/2-x,1/2+y,1/2-z
1/2-x,1/2-y,-z
1/2+x,1/2+y,1/2-z
1/2-x,1/2+y,z
1/2+x,1/2-y,1/2+z
loop_
_atom_site_type_symbol
_atom_site_label
_atom_site_fract_x
_atom_site_fract_y
_atom_site_fract_z
Si Si1 0.221605 0.989577 0.896728
Si Si2 0.337688 0.194802 0.871047
Si Si3 0.332150 0.215226 0.456393
Si Si4 0.924904 0.558306 0.165946
O O1 0.273313 0.091096 0.849202
O O2 0.174005 0.102047 0.943377
O O3 0.176260 0.872314 0.846521
O O4 0.260801 0.868567 0.950826
O O5 0.399452 0.119110 0.828908
O O6 0.356949 0.181783 0.959756
O O7 0.382116 0.152106 0.393849
O O8 0.918239 0.630489 0.250000
O O9 0.000000 0.559609 0.139128
#
# Coordination Sequence:
#
# PCOD8255575 Si02
#       4
#    16  16  16  16
#     4   9  16  29  52  83 107 124 150 193 247 293
#     4  10  17  30  54  78 102 128 157 194 239 293
#     4  10  17  30  54  78 102 128 157 194 239 293
#     4  10  22  38  50  64  93 133 173 208 242 280
#
# _framework density 20.379389
#
# number of rings (size 3 to 8) (size 9 to 14) (size 15 to 20)
#    0.000    2.250    0.000    8.250    0.000    2.000 
#    0.000   22.500    0.000    6.000    0.000    0.000 
#    0.000    0.000    0.000    0.000    0.000    0.000 
#
# Total GULP energy -396459.473466 kJ/mol
# GULP energy per Si atom -12389.358546 kJ/mol
# Density = 2.033301 g / cm^3
# Si number density = 20.379389 Si / 1000 Ang^3
#
#
#
# Elastic Constant Matrix: (Units=GPa)
#
#
# Indices 1 2 3 4 5 6 
#
# 1 96.9675 45.3114 42.5879 0.0000 0.0000 0.0000
# 2 45.3114 149.3049 20.4452 0.0000 0.0000 0.0000
# 3 42.5879 20.4452 67.3947 0.0000 0.0000 0.0000
# 4 0.0000 0.0000 0.0000 12.9578 0.0000 0.0000
# 5 0.0000 0.0000 0.0000 0.0000 -8.8744 0.0000
# 6 0.0000 0.0000 0.0000 0.0000 0.0000 14.2817
#
#
#
# Elastic Compliance Matrix: (Units=1/GPa)
#
#
# Indices 1 2 3 4 5 6 
#
# 1 0.015943 -0.003609 -0.008980 0.000000 0.000000 0.000000
# 2 -0.003609 0.007805 -0.000087 0.000000 0.000000 0.000000
# 3 -0.008980 -0.000087 0.020539 0.000000 0.000000 0.000000
# 4 0.000000 0.000000 0.000000 0.077174 0.000000 0.000000
# 5 0.000000 0.000000 0.000000 0.000000 -0.112683 0.000000
# 6 0.000000 0.000000 0.000000 0.000000 0.000000 0.070020
#
#
# Mechanical properties :
#
#
# Convention : Reuss Voigt Hill
#
# Bulk Modulus (GPa) = 52.81230 58.92846 55.87038
# Shear Modulus (GPa) = 45.26509 17.36118 31.31314
#
# Velocity S-wave (km/s) = 4.71799 2.92190 3.92409
# Velocity P-wave (km/s) = 7.45990 6.35309 6.92863
#
# Compressibility (1/GPa) = 0.01893498
#
# Stress axis : x y z
#
# Youngs Moduli (GPa) = 62.72353 128.12544 48.68792
#
# Poissons Ratio (x) = 0.46237 0.43721
# Poissons Ratio (y) = 0.22635 0.00425
# Poissons Ratio (z) = 0.56325 0.01118
#
# Static dielectric constant tensor:
#      x y z
#    x 3.473780 0.000000 0.000000 
#    y 0.000000 4.175920 0.000000 
#    z 0.000000 0.000000 3.363500 
# 
# 
# High freq. dielectric constant tensor:
#      x y z
#    x 1.755570 0.000000 0.000000 
#    y 0.000000 1.810580 0.000000 
#    z 0.000000 0.000000 1.774160 
# 
# From -- ./inp_files/46523.got.cif
#   From: 2010.03.12/outbox.cif.g09.slc.cpg/sg63_24_cif.got.tgz:46523.got - 2010.04.10 19:34:48.
