data_PCOD8255605
_publ_section_title
;
Structure prediction by ZEFSAII (Michael W. Deem and Ramdas Pophale) SiO2 
 PCOD8255605
Probable space group: C M C M
;
_chemical_formula_sum "Si O2"
_cell_formula_units_Z 36
_cell_length_a 7.571612
_cell_length_b 16.476513
_cell_length_c 15.578325
_cell_angle_alpha 90.000000
_cell_angle_beta 90.000000
_cell_angle_gamma 90.000000
_cell_volume 1943.454674
_symmetry_space_group_name_H-M "C M C M"
_symmetry_group_IT_number 63
_symmetry_cell_setting 'orthorhombic'
loop_
_space_group_symop_operation_xyz
x,y,z
-x,-y,1/2+z
x,-y,-z
-x,y,1/2-z
-x,-y,-z
x,y,1/2-z
-x,y,z
x,-y,1/2+z
1/2+x,1/2+y,z
1/2-x,1/2-y,1/2+z
1/2+x,1/2-y,-z
1/2-x,1/2+y,1/2-z
1/2-x,1/2-y,-z
1/2+x,1/2+y,1/2-z
1/2-x,1/2+y,z
1/2+x,1/2-y,1/2+z
loop_
_atom_site_type_symbol
_atom_site_label
_atom_site_fract_x
_atom_site_fract_y
_atom_site_fract_z
Si Si1 0.500000 0.047484 0.587882
Si Si2 0.702101 0.300763 0.750000
Si Si3 0.000000 0.567787 0.250000
Si Si4 0.801768 0.848682 0.345455
O O1 0.500000 0.985494 0.665438
O O2 0.500000 0.000000 0.500000
O O3 0.672925 0.104298 0.590538
O O4 0.500000 0.329830 0.750000
O O5 0.823582 0.379070 0.750000
O O6 0.743158 0.245790 0.665267
O O7 0.792207 0.889295 0.250000
O O8 0.000000 0.853330 0.382840
#
# Coordination Sequence:
#
# PCOD8255605 Si02
#       4
#     8   8   4  16
#     4  12  24  38  60  90 125 158 192 242 297 356
#     4  10  17  33  67  87 108 157 196 242 299 342
#     4  12  22  38  58  98 112 140 212 252 270 356
#     4   9  16  36  65  81 109 164 195 227 305 352
#
# _framework density 18.523714999999999
#
# number of rings (size 3 to 8) (size 9 to 14) (size 15 to 20)
#    1.333    0.444    6.667    0.000    0.000    2.667 
#    0.000    2.222    0.000    0.000    0.000    0.000 
#    0.000    0.000    0.000    0.000    0.000    0.000 
#
# Total GULP energy -223065.825841 kJ/mol
# GULP energy per Si atom -12392.545880 kJ/mol
# Density = 1.848155 g / cm^3
# Si number density = 18.523715 Si / 1000 Ang^3
#
#
#
# Elastic Constant Matrix: (Units=GPa)
#
#
# Indices 1 2 3 4 5 6 
#
# 1 181.2571 41.0778 15.4646 0.0000 0.0000 0.0000
# 2 41.0778 79.8755 21.0849 0.0000 0.0000 0.0000
# 3 15.4646 21.0849 58.4578 0.0000 0.0000 0.0000
# 4 0.0000 0.0000 0.0000 -4.3163 0.0000 0.0000
# 5 0.0000 0.0000 0.0000 0.0000 14.3235 0.0000
# 6 0.0000 0.0000 0.0000 0.0000 0.0000 30.1668
#
#
#
# Elastic Compliance Matrix: (Units=1/GPa)
#
#
# Indices 1 2 3 4 5 6 
#
# 1 0.006261 -0.003075 -0.000547 0.000000 0.000000 0.000000
# 2 -0.003075 0.015348 -0.004722 0.000000 0.000000 0.000000
# 3 -0.000547 -0.004722 0.018954 0.000000 0.000000 0.000000
# 4 0.000000 0.000000 0.000000 -0.231679 0.000000 0.000000
# 5 0.000000 0.000000 0.000000 0.000000 0.069815 0.000000
# 6 0.000000 0.000000 0.000000 0.000000 0.000000 0.033149
#
#
# Mechanical properties :
#
#
# Convention : Reuss Voigt Hill
#
# Bulk Modulus (GPa) = 41.88715 52.76055 47.32385
# Shear Modulus (GPa) = -78.73341 24.16569 -27.28386
#
# Velocity S-wave (km/s) = -6.52659 3.61582 -3.84202
# Velocity P-wave (km/s) = 5.84238 6.78061 2.43345
#
# Compressibility (1/GPa) = 0.02387367
#
# Stress axis : x y z
#
# Youngs Moduli (GPa) = 159.72821 65.15713 52.75863
#
# Poissons Ratio (x) = 0.20038 0.02886
# Poissons Ratio (y) = 0.49121 0.24913
# Poissons Ratio (z) = 0.08737 0.30768
#
# Static dielectric constant tensor:
#      x y z
#    x 3.517940 0.000000 0.000000 
#    y 0.000000 3.280910 0.000000 
#    z 0.000000 0.000000 2.750230 
# 
# 
# High freq. dielectric constant tensor:
#      x y z
#    x 1.740750 0.000000 0.000000 
#    y 0.000000 1.711450 0.000000 
#    z 0.000000 0.000000 1.662510 
# 
# From -- ./inp_files/26635.got.cif
#   From: 2010.03.12/outbox.cif.g09.slc.cpg/sg63_14_cif.got.tgz:26635.got - 2010.04.10 19:34:48.
