data_PCOD8255593
_publ_section_title
;
Structure prediction by ZEFSAII (Michael W. Deem and Ramdas Pophale) SiO2 
 PCOD8255593
Probable space group: C M C M
;
_chemical_formula_sum "Si O2"
_cell_formula_units_Z 88
_cell_length_a 20.172179
_cell_length_b 9.361162
_cell_length_c 23.792622
_cell_angle_alpha 90.000000
_cell_angle_beta 90.000000
_cell_angle_gamma 90.000000
_cell_volume 4492.880620
_symmetry_space_group_name_H-M "C M C M"
_symmetry_group_IT_number 63
_symmetry_cell_setting 'orthorhombic'
loop_
_space_group_symop_operation_xyz
x,y,z
-x,-y,1/2+z
x,-y,-z
-x,y,1/2-z
-x,-y,-z
x,y,1/2-z
-x,y,z
x,-y,1/2+z
1/2+x,1/2+y,z
1/2-x,1/2-y,1/2+z
1/2+x,1/2-y,-z
1/2-x,1/2+y,1/2-z
1/2-x,1/2-y,-z
1/2+x,1/2+y,1/2-z
1/2-x,1/2+y,z
1/2+x,1/2-y,1/2+z
loop_
_atom_site_type_symbol
_atom_site_label
_atom_site_fract_x
_atom_site_fract_y
_atom_site_fract_z
Si Si1 0.423298 0.523639 0.064619
Si Si2 0.892937 0.817955 0.250000
Si Si3 0.677742 0.290492 0.871745
Si Si4 0.154544 0.122895 0.250000
Si Si5 0.198117 0.578513 0.250000
Si Si6 0.426292 0.235371 0.372654
Si Si7 0.187345 0.528669 0.129769
O O1 0.500000 0.565807 0.072583
O O2 0.378815 0.652002 0.087429
O O3 0.404399 0.383147 0.099244
O O4 0.405555 0.500000 0.000000
O O5 0.818166 0.750439 0.250000
O O6 0.928466 0.757695 0.305495
O O7 0.896418 0.989920 0.250000
O O8 0.648871 0.286619 0.807675
O O9 0.744182 0.384893 0.877120
O O10 0.693702 0.130938 0.894666
O O11 0.224896 0.047086 0.250000
O O12 0.167763 0.506476 0.194995
O O13 0.500000 0.189720 0.392493
O O14 0.374313 0.117420 0.395811
#
# Coordination Sequence:
#
# PCOD8255593 Si02
#       7
#    16   8  16   8   8  16  16
#     4  10  22  41  62  82 109 148 191 236 286 341
#     4  10  17  32  51  84 112 145 191 225 278 334
#     4  11  21  36  57  86 119 148 189 234 277 336
#     4  10  19  27  54  81 117 147 183 225 273 330
#     4   8  19  27  49  79 119 154 181 220 266 338
#     4  10  20  37  58  82 114 151 189 230 282 339
#     4  10  21  34  57  86 119 154 188 231 282 334
#
# _framework density 19.586542999999999
#
# number of rings (size 3 to 8) (size 9 to 14) (size 15 to 20)
#    0.000    2.000    1.818    1.909   12.727    0.727 
#    0.000    5.000    0.000    5.455    0.000    0.000 
#    0.000    0.000    0.000    0.000    0.000    0.000 
#
# Total GULP energy -545250.920472 kJ/mol
# GULP energy per Si atom -12392.066374 kJ/mol
# Density = 1.954196 g / cm^3
# Si number density = 19.586543 Si / 1000 Ang^3
#
#
#
# Elastic Constant Matrix: (Units=GPa)
#
#
# Indices 1 2 3 4 5 6 
#
# 1 85.5897 52.8832 26.2018 0.0000 0.0000 0.0000
# 2 52.8832 142.0546 29.0596 0.0000 0.0000 0.0000
# 3 26.2018 29.0596 73.8421 0.0000 0.0000 0.0000
# 4 0.0000 0.0000 0.0000 7.4519 0.0000 0.0000
# 5 0.0000 0.0000 0.0000 0.0000 17.7215 0.0000
# 6 0.0000 0.0000 0.0000 0.0000 0.0000 33.5864
#
#
#
# Elastic Compliance Matrix: (Units=1/GPa)
#
#
# Indices 1 2 3 4 5 6 
#
# 1 0.016021 -0.005222 -0.003630 0.000000 0.000000 0.000000
# 2 -0.005222 0.009358 -0.001830 0.000000 0.000000 0.000000
# 3 -0.003630 -0.001830 0.015551 0.000000 0.000000 0.000000
# 4 0.000000 0.000000 0.000000 0.134193 0.000000 0.000000
# 5 0.000000 0.000000 0.000000 0.000000 0.056429 0.000000
# 6 0.000000 0.000000 0.000000 0.000000 0.000000 0.029774
#
#
# Mechanical properties :
#
#
# Convention : Reuss Voigt Hill
#
# Bulk Modulus (GPa) = 51.10746 57.53064 54.31905
# Shear Modulus (GPa) = 17.28844 24.64142 20.96493
#
# Velocity S-wave (km/s) = 2.97420 3.55079 3.27521
# Velocity P-wave (km/s) = 6.15989 6.80052 6.48812
#
# Compressibility (1/GPa) = 0.01956662
#
# Stress axis : x y z
#
# Youngs Moduli (GPa) = 62.41712 106.86309 64.30647
#
# Poissons Ratio (x) = 0.55801 0.23343
# Poissons Ratio (y) = 0.32593 0.11767
# Poissons Ratio (z) = 0.22657 0.19553
#
# Static dielectric constant tensor:
#      x y z
#    x 3.452550 0.000000 0.000000 
#    y 0.000000 3.504990 0.000000 
#    z 0.000000 0.000000 3.470030 
# 
# 
# High freq. dielectric constant tensor:
#      x y z
#    x 1.755370 0.000000 0.000000 
#    y 0.000000 1.757750 0.000000 
#    z 0.000000 0.000000 1.739560 
# 
# From -- ./inp_files/64443.got.cif
#   From: 2010.03.12/outbox.cif.g09.slc.cpg/sg63_33_cif.got.tgz:64443.got - 2010.04.10 19:34:48.
