data_PCOD8255763
_publ_section_title
;
Structure prediction by ZEFSAII (Michael W. Deem and Ramdas Pophale) SiO2 
 PCOD8255763
Probable space group: C M C M
;
_chemical_formula_sum "Si O2"
_cell_formula_units_Z 96
_cell_length_a 8.983269
_cell_length_b 27.647790
_cell_length_c 22.128242
_cell_angle_alpha 90.000000
_cell_angle_beta 90.000000
_cell_angle_gamma 90.000000
_cell_volume 5495.936916
_symmetry_space_group_name_H-M "C M C M"
_symmetry_group_IT_number 63
_symmetry_cell_setting 'orthorhombic'
loop_
_space_group_symop_operation_xyz
x,y,z
-x,-y,1/2+z
x,-y,-z
-x,y,1/2-z
-x,-y,-z
x,y,1/2-z
-x,y,z
x,-y,1/2+z
1/2+x,1/2+y,z
1/2-x,1/2-y,1/2+z
1/2+x,1/2-y,-z
1/2-x,1/2+y,1/2-z
1/2-x,1/2-y,-z
1/2+x,1/2+y,1/2-z
1/2-x,1/2+y,z
1/2+x,1/2-y,1/2+z
loop_
_atom_site_type_symbol
_atom_site_label
_atom_site_fract_x
_atom_site_fract_y
_atom_site_fract_z
Si Si1 0.829873 0.691940 0.070312
Si Si2 0.332575 0.136236 0.551332
Si Si3 0.672995 0.776375 0.375554
Si Si4 0.326908 0.271203 0.750000
Si Si5 0.175544 0.892884 0.869077
Si Si6 0.323348 0.875606 0.750000
Si Si7 0.675699 0.553438 0.011326
O O1 0.775187 0.746738 0.077523
O O2 0.721288 0.661448 0.113763
O O3 0.000000 0.686207 0.092491
O O4 0.811969 0.675240 0.001832
O O5 0.500000 0.116172 0.553312
O O6 0.292975 0.166371 0.612319
O O7 0.229470 0.089573 0.541479
O O8 0.500000 0.766195 0.390193
O O9 0.713952 0.762281 0.307184
O O10 0.500000 0.286205 0.750000
O O11 0.232593 0.320255 0.750000
O O12 0.261428 0.905568 0.807475
O O13 0.229359 0.928811 0.922555
O O14 0.000000 0.895735 0.858288
O O15 0.500000 0.876244 0.750000
O O16 0.500000 0.552941 0.008155
O O17 0.741500 0.500000 0.000000
#
# Coordination Sequence:
#
# PCOD8255763 Si02
#       7
#    16  16  16   8  16   8  16
#     4  10  18  28  44  69 100 130 164 206 246 289
#     4   9  19  32  47  71  99 129 164 204 253 302
#     4  10  19  31  46  66  97 136 174 204 238 294
#     4  10  20  32  48  67  96 141 179 204 239 289
#     4  10  19  32  51  73 101 135 167 201 251 307
#     4  12  22  32  48  73 106 135 169 210 241 287
#     4   9  19  36  57  79  99 124 164 213 263 312
#
# _framework density 17.467449999999999
#
# number of rings (size 3 to 8) (size 9 to 14) (size 15 to 20)
#    0.000    2.167    1.667    2.250    0.000    2.333 
#    0.000    0.000    0.000    1.000    0.000    2.333 
#    0.000    0.000    0.000    0.000    0.000    0.000 
#
# Total GULP energy -595080.208479 kJ/mol
# GULP energy per Si atom -12397.504343 kJ/mol
# Density = 1.742769 g / cm^3
# Si number density = 17.467450 Si / 1000 Ang^3
#
#
#
# Elastic Constant Matrix: (Units=GPa)
#
#
# Indices 1 2 3 4 5 6 
#
# 1 60.3819 32.9460 31.3555 0.0000 0.0000 0.0000
# 2 32.9460 109.1017 47.1378 0.0000 0.0000 0.0000
# 3 31.3555 47.1378 72.3434 0.0000 0.0000 0.0000
# 4 0.0000 0.0000 0.0000 18.9090 0.0000 0.0000
# 5 0.0000 0.0000 0.0000 0.0000 20.7575 0.0000
# 6 0.0000 0.0000 0.0000 0.0000 0.0000 21.4929
#
#
#
# Elastic Compliance Matrix: (Units=1/GPa)
#
#
# Indices 1 2 3 4 5 6 
#
# 1 0.022325 -0.003564 -0.007354 0.000000 0.000000 0.000000
# 2 -0.003564 0.013326 -0.007138 0.000000 0.000000 0.000000
# 3 -0.007354 -0.007138 0.021661 0.000000 0.000000 0.000000
# 4 0.000000 0.000000 0.000000 0.052885 0.000000 0.000000
# 5 0.000000 0.000000 0.000000 0.000000 0.048175 0.000000
# 6 0.000000 0.000000 0.000000 0.000000 0.000000 0.046527
#
#
# Mechanical properties :
#
#
# Convention : Reuss Voigt Hill
#
# Bulk Modulus (GPa) = 47.17021 51.63396 49.40208
# Shear Modulus (GPa) = 20.15489 20.92438 20.53963
#
# Velocity S-wave (km/s) = 3.40053 3.46483 3.43283
# Velocity P-wave (km/s) = 6.51777 6.75507 6.63748
#
# Compressibility (1/GPa) = 0.02119982
#
# Stress axis : x y z
#
# Youngs Moduli (GPa) = 44.79345 75.04002 46.16504
#
# Poissons Ratio (x) = 0.26747 0.33948
# Poissons Ratio (y) = 0.15966 0.32954
# Poissons Ratio (z) = 0.32939 0.53566
#
# Static dielectric constant tensor:
#      x y z
#    x 3.209410 0.000000 0.000000 
#    y 0.000000 3.152090 0.000000 
#    z 0.000000 0.000000 3.443970 
# 
# 
# High freq. dielectric constant tensor:
#      x y z
#    x 1.675630 0.000000 0.000000 
#    y 0.000000 1.645280 0.000000 
#    z 0.000000 0.000000 1.669630 
# 
# From -- ./inp_files/60275.got.cif
#   From: 2010.03.12/outbox.cif.g09.slc.cpg/sg63_31_cif.got.tgz:60275.got - 2010.04.10 19:34:48.
