data_PCOD8255975
_publ_section_title
;
Structure prediction by ZEFSAII (Michael W. Deem and Ramdas Pophale) SiO2 
 PCOD8255975
Probable space group: C M C M
;
_chemical_formula_sum "Si O2"
_cell_formula_units_Z 128
_cell_length_a 25.431462
_cell_length_b 17.861980
_cell_length_c 17.194878
_cell_angle_alpha 90.000000
_cell_angle_beta 90.000000
_cell_angle_gamma 90.000000
_cell_volume 7810.881068
_symmetry_space_group_name_H-M "C M C M"
_symmetry_group_IT_number 63
_symmetry_cell_setting 'orthorhombic'
loop_
_space_group_symop_operation_xyz
x,y,z
-x,-y,1/2+z
x,-y,-z
-x,y,1/2-z
-x,-y,-z
x,y,1/2-z
-x,y,z
x,-y,1/2+z
1/2+x,1/2+y,z
1/2-x,1/2-y,1/2+z
1/2+x,1/2-y,-z
1/2-x,1/2+y,1/2-z
1/2-x,1/2-y,-z
1/2+x,1/2+y,1/2-z
1/2-x,1/2+y,z
1/2+x,1/2-y,1/2+z
loop_
_atom_site_type_symbol
_atom_site_label
_atom_site_fract_x
_atom_site_fract_y
_atom_site_fract_z
Si Si1 0.747360 0.466069 0.605939
Si Si2 0.059756 0.521366 0.412678
Si Si3 0.285514 0.389618 0.054645
Si Si4 0.182277 0.302216 0.412791
Si Si5 0.847433 0.249865 0.926498
Si Si6 0.748177 0.311656 0.835898
Si Si7 0.845622 0.548863 0.661020
Si Si8 0.059736 0.681549 0.159371
O O1 0.711856 0.541636 0.617403
O O2 0.729559 0.426379 0.526815
O O3 0.740509 0.401991 0.670314
O O4 0.807297 0.498556 0.606301
O O5 0.077658 0.500000 0.500000
O O6 0.094890 0.476669 0.351474
O O7 0.066953 0.608683 0.394199
O O8 0.000000 0.495887 0.398763
O O9 0.240668 0.329589 0.069288
O O10 0.338186 0.339750 0.060962
O O11 0.146826 0.288023 0.488799
O O12 0.194076 0.223404 0.369879
O O13 0.154318 0.363064 0.358790
O O14 0.800452 0.293434 0.883976
O O15 0.900690 0.257062 0.876349
O O16 0.756773 0.279450 0.750000
O O17 0.828320 0.537462 0.750000
O O18 0.073409 0.664866 0.250000
O O19 0.000000 0.711715 0.152730
#
# Coordination Sequence:
#
# PCOD8255975 Si02
#       8
#    16  16  16  16  16  16  16  16
#     4  10  18  30  46  70  97 126 159 200 237 290
#     4  10  21  35  51  71  93 127 172 214 246 283
#     4   9  18  30  48  69  94 125 163 199 235 276
#     4  10  19  32  45  66  97 129 169 202 233 281
#     4  11  18  33  51  72  92 135 168 196 244 294
#     4  11  19  29  46  69  99 130 162 197 239 294
#     4  11  22  31  45  68  97 134 164 201 252 291
#     4  10  21  35  51  74 102 127 161 211 256 295
#
# _framework density 16.387395999999999
#
# number of rings (size 3 to 8) (size 9 to 14) (size 15 to 20)
#    0.000    1.750    2.500    3.750    3.500    0.750 
#    0.000    1.875    0.000    0.000    0.000    1.750 
#    0.000    0.000    0.000    0.125    0.000    0.000 
#
# Total GULP energy -792977.849117 kJ/mol
# GULP energy per Si atom -12390.278892 kJ/mol
# Density = 1.635010 g / cm^3
# Si number density = 16.387396 Si / 1000 Ang^3
#
#
#
# Elastic Constant Matrix: (Units=GPa)
#
#
# Indices 1 2 3 4 5 6 
#
# 1 67.9442 39.9164 35.4150 0.0000 0.0000 0.0000
# 2 39.9164 99.8016 34.9939 0.0000 0.0000 0.0000
# 3 35.4150 34.9939 86.5427 0.0000 0.0000 0.0000
# 4 0.0000 0.0000 0.0000 20.6619 0.0000 0.0000
# 5 0.0000 0.0000 0.0000 0.0000 22.2297 0.0000
# 6 0.0000 0.0000 0.0000 0.0000 0.0000 20.9427
#
#
#
# Elastic Compliance Matrix: (Units=1/GPa)
#
#
# Indices 1 2 3 4 5 6 
#
# 1 0.021833 -0.006525 -0.006296 0.000000 0.000000 0.000000
# 2 -0.006525 0.013625 -0.002839 0.000000 0.000000 0.000000
# 3 -0.006296 -0.002839 0.015280 0.000000 0.000000 0.000000
# 4 0.000000 0.000000 0.000000 0.048398 0.000000 0.000000
# 5 0.000000 0.000000 0.000000 0.000000 0.044985 0.000000
# 6 0.000000 0.000000 0.000000 0.000000 0.000000 0.047749
#
#
# Mechanical properties :
#
#
# Convention : Reuss Voigt Hill
#
# Bulk Modulus (GPa) = 51.50056 52.77103 52.13579
# Shear Modulus (GPa) = 21.77108 22.36442 22.06775
#
# Velocity S-wave (km/s) = 3.64885 3.69824 3.67363
# Velocity P-wave (km/s) = 7.01764 7.10690 7.06241
#
# Compressibility (1/GPa) = 0.01941726
#
# Stress axis : x y z
#
# Youngs Moduli (GPa) = 45.80245 73.39448 65.44662
#
# Poissons Ratio (x) = 0.47887 0.41207
# Poissons Ratio (y) = 0.29884 0.18583
# Poissons Ratio (z) = 0.28838 0.20839
#
# Static dielectric constant tensor:
#      x y z
#    x 2.871900 0.000000 0.000000 
#    y 0.000000 3.467130 0.000000 
#    z 0.000000 0.000000 3.222250 
# 
# 
# High freq. dielectric constant tensor:
#      x y z
#    x 1.587120 0.000000 0.000000 
#    y 0.000000 1.633300 0.000000 
#    z 0.000000 0.000000 1.636200 
# 
# From -- ./inp_files/48411.got.cif
#   From: 2010.03.12/outbox.cif.g09.slc.cpg/sg63_25_cif.got.tgz:48411.got - 2010.04.10 19:34:48.
