data_PCOD8255301
_publ_section_title
;
Structure prediction by ZEFSAII (Michael W. Deem and Ramdas Pophale) SiO2 
 PCOD8255301
Probable space group: P N M A
;
_chemical_formula_sum "Si O2"
_cell_formula_units_Z 64
_cell_length_a 15.000000
_cell_length_b 9.000000
_cell_length_c 24.000000
_cell_angle_alpha 90.000000
_cell_angle_beta 90.000000
_cell_angle_gamma 90.000000
_cell_volume 3240.000000
_symmetry_space_group_name_H-M "P N M A"
_symmetry_group_IT_number 62
_symmetry_cell_setting 'orthorhombic'
loop_
_space_group_symop_operation_xyz
x,y,z
1/2-x,-y,1/2+z
1/2+x,1/2-y,1/2-z
-x,1/2+y,-z
-x,-y,-z
1/2+x,y,1/2-z
1/2-x,1/2+y,1/2+z
x,1/2-y,z
loop_
_atom_site_type_symbol
_atom_site_label
_atom_site_fract_x
_atom_site_fract_y
_atom_site_fract_z
Si Si1 0.609060 0.426852 0.255899
Si Si2 0.594139 0.572082 0.508302
Si Si3 0.632793 0.084215 0.132330
Si Si4 0.582940 0.576143 0.027217
Si Si5 0.746727 0.574686 0.950487
Si Si6 0.274467 0.426216 0.174805
Si Si7 0.089702 0.572359 0.765143
Si Si8 0.163524 0.585002 0.877653
O O1 0.611648 0.250000 0.257129
O O2 0.631507 0.483191 0.194007
O O3 0.682008 0.490582 0.299156
O O4 0.510831 0.487805 0.269397
O O5 0.500000 0.500000 0.500000
O O6 0.591411 0.750000 0.505636
O O7 0.662363 0.512529 0.462172
O O8 0.622234 0.506526 0.568534
O O9 0.589359 0.250000 0.130444
O O10 0.732700 0.092411 0.111467
O O11 0.581645 0.974396 0.091261
O O12 0.570350 0.750000 0.023614
O O13 0.500000 0.500000 0.000000
O O14 0.672032 0.526048 0.994787
O O15 0.765788 0.750000 0.952731
O O16 0.714688 0.524153 0.889012
O O17 0.271352 0.250000 0.179503
O O18 0.358841 0.487819 0.210242
O O19 0.093124 0.750000 0.763522
O O20 0.139084 0.505157 0.819577
O O21 0.122462 0.750000 0.874021
#
# Coordination Sequence:
#
# PCOD8255301 Si02
#       8
#     8   8   8   8   8   8   8   8
#     4   9  17  27  49  80 109 139 175 225 281 328
#     4  11  23  38  58  84 115 152 189 232 282 338
#     4  10  18  34  57  82 109 141 185 233 278 333
#     4  11  24  39  57  83 114 152 192 236 284 337
#     4  10  22  38  57  83 115 148 188 234 281 335
#     4   9  17  30  47  76 112 139 173 227 280 327
#     4   9  16  27  46  77 109 137 173 224 282 326
#     4   9  17  31  52  79 110 141 181 231 281 328
#
# _framework density 19.753086
#
# number of rings (size 3 to 8) (size 9 to 14) (size 15 to 20)
#    0.000    2.250    2.500    0.750    3.500    0.500 
#    0.000    0.000    0.000    0.750    0.000    0.000 
#    0.000    0.000    0.000    0.000    0.000    0.000 
#
# Total GULP energy -793231.854333 kJ/mol
# GULP energy per Si atom -12394.247724 kJ/mol
# Density = 1.970813 g / cm^3
# Si number density = 19.753086 Si / 1000 Ang^3
#
#
#
# Elastic Constant Matrix: (Units=GPa)
#
#
# Indices 1 2 3 4 5 6 
#
# 1 64.8466 19.1224 1.1114 0.0000 0.0000 0.0000
# 2 19.1224 29.4043 19.9520 0.0000 0.0000 0.0000
# 3 1.1114 19.9520 90.5580 0.0000 0.0000 0.0000
# 4 0.0000 0.0000 0.0000 20.4671 0.0000 0.0000
# 5 0.0000 0.0000 0.0000 0.0000 33.4828 0.0000
# 6 0.0000 0.0000 0.0000 0.0000 0.0000 20.6793
#
#
#
# Elastic Compliance Matrix: (Units=1/GPa)
#
#
# Indices 1 2 3 4 5 6 
#
# 1 0.019769 -0.014923 0.003045 0.000000 0.000000 0.000000
# 2 -0.014923 0.051251 -0.011109 0.000000 0.000000 0.000000
# 3 0.003045 -0.011109 0.013453 0.000000 0.000000 0.000000
# 4 0.000000 0.000000 0.000000 0.048859 0.000000 0.000000
# 5 0.000000 0.000000 0.000000 0.000000 0.029866 0.000000
# 6 0.000000 0.000000 0.000000 0.000000 0.000000 0.048358
#
#
# Mechanical properties :
#
#
# Convention : Reuss Voigt Hill
#
# Bulk Modulus (GPa) = 25.97359 29.46449 27.71904
# Shear Modulus (GPa) = 18.49373 24.56737 21.53055
#
# Velocity S-wave (km/s) = 3.06313 3.53047 3.30507
# Velocity P-wave (km/s) = 5.06834 5.61852 5.35050
#
# Compressibility (1/GPa) = 0.03850065
#
# Stress axis : x y z
#
# Youngs Moduli (GPa) = 50.58329 19.51178 74.33421
#
# Poissons Ratio (x) = 0.29117 -0.22636
# Poissons Ratio (y) = 0.75485 0.82575
# Poissons Ratio (z) = -0.15404 0.21675
#
# Static dielectric constant tensor:
#      x y z
#    x 3.634510 0.000000 0.000000 
#    y 0.000000 3.061050 0.000000 
#    z 0.000000 0.000000 3.908270 
# 
# 
# High freq. dielectric constant tensor:
#      x y z
#    x 1.772280 0.000000 0.000000 
#    y 0.000000 1.700780 0.000000 
#    z 0.000000 0.000000 1.783140 
# 
# From -- ./inp_files/29779.got.cif
#   From: 2010.03.12/outbox.ucp.g09.slc.cvg/sg62_15_cif.got.tgz:29779.got - 2010.05.04 19:35:18.
