data_PCOD8255214
_publ_section_title
;
Structure prediction by ZEFSAII (Michael W. Deem and Ramdas Pophale) SiO2 
 PCOD8255214
Probable space group: P N M A
;
_chemical_formula_sum "Si O2"
_cell_formula_units_Z 48
_cell_length_a 11.600268
_cell_length_b 9.270295
_cell_length_c 22.440035
_cell_angle_alpha 90.000000
_cell_angle_beta 90.000000
_cell_angle_gamma 90.000000
_cell_volume 2413.154384
_symmetry_space_group_name_H-M "P N M A"
_symmetry_group_IT_number 62
_symmetry_cell_setting 'orthorhombic'
loop_
_space_group_symop_operation_xyz
x,y,z
1/2-x,-y,1/2+z
1/2+x,1/2-y,1/2-z
-x,1/2+y,-z
-x,-y,-z
1/2+x,y,1/2-z
1/2-x,1/2+y,1/2+z
x,1/2-y,z
loop_
_atom_site_type_symbol
_atom_site_label
_atom_site_fract_x
_atom_site_fract_y
_atom_site_fract_z
Si Si1 0.716522 0.921501 0.616311
Si Si2 0.073501 0.094895 0.456920
Si Si3 0.370086 0.580437 0.771614
Si Si4 0.995113 0.580573 0.063052
Si Si5 0.303802 0.083153 0.653587
Si Si6 0.582381 0.592797 0.843793
O O1 0.691874 0.750000 0.614336
O O2 0.801332 0.966910 0.561467
O O3 0.774205 0.965910 0.679322
O O4 0.600725 0.011688 0.606392
O O5 0.090651 0.250000 0.488368
O O6 0.004746 0.117056 0.396904
O O7 0.000000 0.000000 0.500000
O O8 0.361135 0.750000 0.760628
O O9 0.350072 0.497977 0.710928
O O10 0.501222 0.538629 0.789764
O O11 0.969631 0.750000 0.052999
O O12 0.116597 0.557159 0.096106
O O13 0.000000 0.500000 0.000000
O O14 0.294290 0.250000 0.669491
O O15 0.177565 0.023202 0.638266
O O16 0.638712 0.750000 0.828355
#
# Coordination Sequence:
#
# PCOD8255214 Si02
#       6
#     8   8   8   8   8   8
#     4   9  20  40  63  88 120 155 197 248 296 354
#     4   9  19  35  58  87 117 148 189 240 291 346
#     4   9  20  40  65  91 118 155 199 243 297 362
#     4  11  26  44  61  87 123 165 210 252 303 363
#     4  11  25  40  59  89 124 156 194 251 306 354
#     4   9  20  39  60  86 117 152 198 240 287 357
#
# _framework density 19.890976999999999
#
# number of rings (size 3 to 8) (size 9 to 14) (size 15 to 20)
#    0.000    2.333    0.000    3.000    4.667    5.333 
#    0.000    3.333    0.000    0.000    0.000    0.000 
#    0.000    0.000    0.000    0.000    0.000    0.000 
#
# Total GULP energy -594962.624073 kJ/mol
# GULP energy per Si atom -12395.054668 kJ/mol
# Density = 1.984570 g / cm^3
# Si number density = 19.890977 Si / 1000 Ang^3
#
#
#
# Elastic Constant Matrix: (Units=GPa)
#
#
# Indices 1 2 3 4 5 6 
#
# 1 101.5625 46.8614 17.9107 0.0000 0.0000 0.0000
# 2 46.8614 87.7326 38.7400 0.0000 0.0000 0.0000
# 3 17.9107 38.7400 67.2580 0.0000 0.0000 0.0000
# 4 0.0000 0.0000 0.0000 30.3709 0.0000 0.0000
# 5 0.0000 0.0000 0.0000 0.0000 16.4257 0.0000
# 6 0.0000 0.0000 0.0000 0.0000 0.0000 34.6107
#
#
#
# Elastic Compliance Matrix: (Units=1/GPa)
#
#
# Indices 1 2 3 4 5 6 
#
# 1 0.013093 -0.007314 0.000726 0.000000 0.000000 0.000000
# 2 -0.007314 0.019372 -0.009210 0.000000 0.000000 0.000000
# 3 0.000726 -0.009210 0.019980 0.000000 0.000000 0.000000
# 4 0.000000 0.000000 0.000000 0.032926 0.000000 0.000000
# 5 0.000000 0.000000 0.000000 0.000000 0.060880 0.000000
# 6 0.000000 0.000000 0.000000 0.000000 0.000000 0.028893
#
#
# Mechanical properties :
#
#
# Convention : Reuss Voigt Hill
#
# Bulk Modulus (GPa) = 47.96569 51.50860 49.73715
# Shear Modulus (GPa) = 23.39841 26.48419 24.94130
#
# Velocity S-wave (km/s) = 3.43349 3.65289 3.54489
# Velocity P-wave (km/s) = 6.31547 6.61386 6.46638
#
# Compressibility (1/GPa) = 0.02084823
#
# Stress axis : x y z
#
# Youngs Moduli (GPa) = 76.37768 51.62081 50.05049
#
# Poissons Ratio (x) = 0.37756 -0.03635
# Poissons Ratio (y) = 0.55863 0.46098
# Poissons Ratio (z) = -0.05547 0.47545
#
# Static dielectric constant tensor:
#      x y z
#    x 3.324680 0.000000 0.000000 
#    y 0.000000 3.562030 0.000000 
#    z 0.000000 0.000000 2.839000 
# 
# 
# High freq. dielectric constant tensor:
#      x y z
#    x 1.785310 0.000000 0.000000 
#    y 0.000000 1.769640 0.000000 
#    z 0.000000 0.000000 1.776760 
# 
# From -- ./inp_files/29224.got.cif
#   From: 2010.03.12/outbox.cif.g09.slc.cpg/sg62_15_cif.got.tgz:29224.got - 2010.04.10 19:12:36.
