data_PCOD8255426
_publ_section_title
;
Structure prediction by ZEFSAII (Michael W. Deem and Ramdas Pophale) SiO2 
 PCOD8255426
Probable space group: C M C M
;
_chemical_formula_sum "Si O2"
_cell_formula_units_Z 96
_cell_length_a 28.944238
_cell_length_b 26.353090
_cell_length_c 8.943493
_cell_angle_alpha 90.000000
_cell_angle_beta 90.000000
_cell_angle_gamma 90.000000
_cell_volume 6821.829130
_symmetry_space_group_name_H-M "C M C M"
_symmetry_group_IT_number 63
_symmetry_cell_setting 'orthorhombic'
loop_
_space_group_symop_operation_xyz
x,y,z
-x,-y,1/2+z
x,-y,-z
-x,y,1/2-z
-x,-y,-z
x,y,1/2-z
-x,y,z
x,-y,1/2+z
1/2+x,1/2+y,z
1/2-x,1/2-y,1/2+z
1/2+x,1/2-y,-z
1/2-x,1/2+y,1/2-z
1/2-x,1/2-y,-z
1/2+x,1/2+y,1/2-z
1/2-x,1/2+y,z
1/2+x,1/2-y,1/2+z
loop_
_atom_site_type_symbol
_atom_site_label
_atom_site_fract_x
_atom_site_fract_y
_atom_site_fract_z
Si Si1 0.865072 0.948676 0.426043
Si Si2 0.137030 0.244709 0.425585
Si Si3 0.812129 0.151309 0.924095
Si Si4 0.448035 0.711420 0.575774
Si Si5 0.224916 0.704665 0.922112
Si Si6 0.052806 0.896019 0.923835
O O1 0.869942 0.956030 0.250000
O O2 0.828674 0.904679 0.468646
O O3 0.915415 0.936792 0.493289
O O4 0.845890 0.000000 0.500000
O O5 0.126982 0.241991 0.250000
O O6 0.160660 0.192204 0.477374
O O7 0.088313 0.252426 0.511192
O O8 0.170454 0.293156 0.468715
O O9 0.822998 0.162538 0.750000
O O10 0.755993 0.154379 0.954608
O O11 0.439572 0.702588 0.750000
O O12 0.500000 0.730968 0.543916
O O13 0.438057 0.658826 0.493593
O O14 0.226198 0.718451 0.750000
O O15 0.250000 0.750000 0.000000
O O16 0.065714 0.893680 0.750000
O O17 0.000000 0.912904 0.948804
#
# Coordination Sequence:
#
# PCOD8255426 Si02
#       6
#    16  16  16  16  16  16
#     4  11  22  33  46  60  76 101 130 164 203 242
#     4  10  17  25  42  63  81 100 124 159 195 228
#     4   9  17  30  44  57  77 102 127 157 194 237
#     4  10  19  29  41  57  79 107 134 159 192 235
#     4   8  15  26  40  60  80  98 122 152 190 231
#     4  10  20  33  47  60  74  94 125 168 211 246
#
# _framework density 14.072471999999999
#
# number of rings (size 3 to 8) (size 9 to 14) (size 15 to 20)
#    0.000    2.333    1.667    2.000    0.000    3.667 
#    0.000    0.000    0.000    0.000    0.000    0.000 
#    0.000    0.000    0.000    0.000    0.000    0.833 
#
# Total GULP energy -594706.507490 kJ/mol
# GULP energy per Si atom -12389.718906 kJ/mol
# Density = 1.404044 g / cm^3
# Si number density = 14.072472 Si / 1000 Ang^3
#
#
#
# Elastic Constant Matrix: (Units=GPa)
#
#
# Indices 1 2 3 4 5 6 
#
# 1 106.5517 49.5724 38.9046 0.0000 0.0000 0.0000
# 2 49.5724 44.5454 24.7116 0.0000 0.0000 0.0000
# 3 38.9046 24.7116 60.9248 0.0000 0.0000 0.0000
# 4 0.0000 0.0000 0.0000 13.9164 0.0000 0.0000
# 5 0.0000 0.0000 0.0000 0.0000 20.9069 0.0000
# 6 0.0000 0.0000 0.0000 0.0000 0.0000 20.4500
#
#
#
# Elastic Compliance Matrix: (Units=1/GPa)
#
#
# Indices 1 2 3 4 5 6 
#
# 1 0.020563 -0.020129 -0.004967 0.000000 0.000000 0.000000
# 2 -0.020129 0.048670 -0.006888 0.000000 0.000000 0.000000
# 3 -0.004967 -0.006888 0.022379 0.000000 0.000000 0.000000
# 4 0.000000 0.000000 0.000000 0.071858 0.000000 0.000000
# 5 0.000000 0.000000 0.000000 0.000000 0.047831 0.000000
# 6 0.000000 0.000000 0.000000 0.000000 0.000000 0.048900
#
#
# Mechanical properties :
#
#
# Convention : Reuss Voigt Hill
#
# Bulk Modulus (GPa) = 36.17085 48.71102 42.44094
# Shear Modulus (GPa) = 14.99780 17.64353 16.32066
#
# Velocity S-wave (km/s) = 3.26813 3.54469 3.40922
# Velocity P-wave (km/s) = 6.32455 7.17235 6.76175
#
# Compressibility (1/GPa) = 0.02764657
#
# Stress axis : x y z
#
# Youngs Moduli (GPa) = 48.63034 20.54649 44.68499
#
# Poissons Ratio (x) = 0.41357 0.22194
# Poissons Ratio (y) = 0.97886 0.30777
# Poissons Ratio (z) = 0.24153 0.14151
#
# Static dielectric constant tensor:
#      x y z
#    x 3.283030 0.000000 0.000000 
#    y 0.000000 2.566490 0.000000 
#    z 0.000000 0.000000 2.846880 
# 
# 
# High freq. dielectric constant tensor:
#      x y z
#    x 1.541830 0.000000 0.000000 
#    y 0.000000 1.477590 0.000000 
#    z 0.000000 0.000000 1.554730 
# 
# From -- ./inp_files/13004.got.cif
#   From: 2010.03.12/outbox.cif.g09.slc.cpg/sg63_7_cif.got.tgz:13004.got - 2010.04.10 19:34:48.
