data_PCOD8255890
_publ_section_title
;
Structure prediction by ZEFSAII (Michael W. Deem and Ramdas Pophale) SiO2 
 PCOD8255890
Probable space group: C M C M
;
_chemical_formula_sum "Si O2"
_cell_formula_units_Z 96
_cell_length_a 8.719419
_cell_length_b 30.362637
_cell_length_c 20.742737
_cell_angle_alpha 90.000000
_cell_angle_beta 90.000000
_cell_angle_gamma 90.000000
_cell_volume 5491.526655
_symmetry_space_group_name_H-M "C M C M"
_symmetry_group_IT_number 63
_symmetry_cell_setting 'orthorhombic'
loop_
_space_group_symop_operation_xyz
x,y,z
-x,-y,1/2+z
x,-y,-z
-x,y,1/2-z
-x,-y,-z
x,y,1/2-z
-x,y,z
x,-y,1/2+z
1/2+x,1/2+y,z
1/2-x,1/2-y,1/2+z
1/2+x,1/2-y,-z
1/2-x,1/2+y,1/2-z
1/2-x,1/2-y,-z
1/2+x,1/2+y,1/2-z
1/2-x,1/2+y,z
1/2+x,1/2-y,1/2+z
loop_
_atom_site_type_symbol
_atom_site_label
_atom_site_fract_x
_atom_site_fract_y
_atom_site_fract_z
Si Si1 0.323090 0.441506 0.680992
Si Si2 0.179164 0.633268 0.489869
Si Si3 0.819341 0.214935 0.950216
Si Si4 0.174992 0.260334 0.820142
Si Si5 0.325047 0.345076 0.639885
Si Si6 0.182788 0.041889 0.459677
O O1 0.249824 0.458262 0.750000
O O2 0.500000 0.454783 0.681815
O O3 0.302162 0.388972 0.681309
O O4 0.251923 0.461401 0.614455
O O5 0.249484 0.666209 0.542601
O O6 0.212193 0.655016 0.420976
O O7 0.255577 0.585203 0.495267
O O8 0.000000 0.628284 0.501677
O O9 0.774345 0.227926 0.877249
O O10 0.000000 0.213386 0.961686
O O11 0.750000 0.250000 0.000000
O O12 0.193620 0.236913 0.750000
O O13 0.282020 0.303311 0.817448
O O14 0.000000 0.275441 0.831155
O O15 0.500000 0.341828 0.615028
O O16 0.000000 0.045164 0.457887
O O17 0.240772 0.000000 0.500000
#
# Coordination Sequence:
#
# PCOD8255890 Si02
#       6
#    16  16  16  16  16  16
#     4   8  14  25  43  69  98 125 155 194 243 302
#     4  11  21  33  51  75 102 134 173 215 257 305
#     4  11  21  34  53  75 103 137 175 214 253 304
#     4  10  21  34  48  70 102 137 172 215 264 308
#     4  10  18  29  47  71 100 133 168 206 253 310
#     4   9  18  33  53  76 101 129 164 209 260 312
#
# _framework density 17.481477000000002
#
# number of rings (size 3 to 8) (size 9 to 14) (size 15 to 20)
#    0.000    2.167    1.667    4.000    0.000    2.000 
#    0.000    0.000    0.000    5.500    0.000    4.667 
#    0.000    0.000    0.000    0.000    0.000    0.000 
#
# Total GULP energy -594847.478677 kJ/mol
# GULP energy per Si atom -12392.655806 kJ/mol
# Density = 1.744169 g / cm^3
# Si number density = 17.481477 Si / 1000 Ang^3
#
#
#
# Elastic Constant Matrix: (Units=GPa)
#
#
# Indices 1 2 3 4 5 6 
#
# 1 48.2010 26.8492 29.7002 0.0000 0.0000 0.0000
# 2 26.8492 104.4337 74.6060 0.0000 0.0000 0.0000
# 3 29.7002 74.6060 142.6254 0.0000 0.0000 0.0000
# 4 0.0000 0.0000 0.0000 16.8998 0.0000 0.0000
# 5 0.0000 0.0000 0.0000 0.0000 13.8620 0.0000
# 6 0.0000 0.0000 0.0000 0.0000 0.0000 22.4293
#
#
#
# Elastic Compliance Matrix: (Units=1/GPa)
#
#
# Indices 1 2 3 4 5 6 
#
# 1 0.024963 -0.004318 -0.002940 0.000000 0.000000 0.000000
# 2 -0.004318 0.016035 -0.007489 0.000000 0.000000 0.000000
# 3 -0.002940 -0.007489 0.011541 0.000000 0.000000 0.000000
# 4 0.000000 0.000000 0.000000 0.059172 0.000000 0.000000
# 5 0.000000 0.000000 0.000000 0.000000 0.072140 0.000000
# 6 0.000000 0.000000 0.000000 0.000000 0.000000 0.044585
#
#
# Mechanical properties :
#
#
# Convention : Reuss Voigt Hill
#
# Bulk Modulus (GPa) = 43.39019 61.95233 52.67126
# Shear Modulus (GPa) = 18.82457 21.57855 20.20156
#
# Velocity S-wave (km/s) = 3.28507 3.51717 3.40310
# Velocity P-wave (km/s) = 6.26606 7.21178 6.75549
#
# Compressibility (1/GPa) = 0.02304668
#
# Stress axis : x y z
#
# Youngs Moduli (GPa) = 40.05939 62.36178 86.64838
#
# Poissons Ratio (x) = 0.26926 0.25472
# Poissons Ratio (y) = 0.17297 0.64890
# Poissons Ratio (z) = 0.11776 0.46702
#
# Static dielectric constant tensor:
#      x y z
#    x 3.114650 0.000000 0.000000 
#    y 0.000000 3.126670 0.000000 
#    z 0.000000 0.000000 3.504540 
# 
# 
# High freq. dielectric constant tensor:
#      x y z
#    x 1.663110 0.000000 0.000000 
#    y 0.000000 1.645050 0.000000 
#    z 0.000000 0.000000 1.678310 
# 
# From -- ./inp_files/51401.got.cif
#   From: 2010.03.12/outbox.cif.g09.slc.cpg/sg63_26_cif.got.tgz:51401.got - 2010.04.10 19:34:48.
