data_PCOD8255224
_publ_section_title
;
Structure prediction by ZEFSAII (Michael W. Deem and Ramdas Pophale) SiO2 
 PCOD8255224
Probable space group: P N M A
;
_chemical_formula_sum "Si O2"
_cell_formula_units_Z 56
_cell_length_a 8.858281
_cell_length_b 17.979772
_cell_length_c 14.986294
_cell_angle_alpha 90.000000
_cell_angle_beta 90.000000
_cell_angle_gamma 90.000000
_cell_volume 2386.865138
_symmetry_space_group_name_H-M "P N M A"
_symmetry_group_IT_number 62
_symmetry_cell_setting 'orthorhombic'
loop_
_space_group_symop_operation_xyz
x,y,z
1/2-x,-y,1/2+z
1/2+x,1/2-y,1/2-z
-x,1/2+y,-z
-x,-y,-z
1/2+x,y,1/2-z
1/2-x,1/2+y,1/2+z
x,1/2-y,z
loop_
_atom_site_type_symbol
_atom_site_label
_atom_site_fract_x
_atom_site_fract_y
_atom_site_fract_z
Si Si1 0.974221 0.750000 0.309411
Si Si2 0.314602 0.890587 0.110582
Si Si3 0.024296 0.164265 0.446147
Si Si4 0.536863 0.105358 0.578985
Si Si5 0.907577 0.002161 0.238996
Si Si6 0.324995 0.663555 0.576850
Si Si7 0.343914 0.607999 0.768211
Si Si8 0.680344 0.250000 0.634792
O O1 0.150164 0.750000 0.329365
O O2 0.888108 0.677632 0.339685
O O3 0.957624 0.750000 0.204028
O O4 0.340710 0.961745 0.173149
O O5 0.136826 0.877383 0.097195
O O6 0.396229 0.893905 0.014243
O O7 0.042035 0.250000 0.480940
O O8 0.105306 0.157762 0.351122
O O9 0.850240 0.142846 0.437580
O O10 0.600281 0.045118 0.647650
O O11 0.571561 0.097311 0.472518
O O12 0.654494 0.174769 0.581591
O O13 0.828671 0.081783 0.221632
O O14 0.076605 0.026523 0.262848
O O15 0.358035 0.750000 0.549266
O O16 0.365957 0.657482 0.680652
#
# Coordination Sequence:
#
# PCOD8255224 Si02
#       8
#     4   8   8   8   8   8   8   4
#     4  12  24  40  68 103 142 185 236 292 356 416
#     4  12  26  44  72 108 142 185 238 292 358 425
#     4  11  26  48  76 105 139 186 241 299 355 417
#     4  12  26  44  72 107 144 183 237 294 357 422
#     4  12  28  47  71 103 147 190 233 288 355 439
#     4  11  26  48  76 106 139 185 242 302 354 412
#     4  12  27  52  70 100 143 193 241 286 359 424
#     4  12  24  40  68 103 142 187 232 298 350 418
#
# _framework density 23.461734
#
# number of rings (size 3 to 8) (size 9 to 14) (size 15 to 20)
#    0.000    0.286    5.714    2.571    6.000    2.286 
#    0.000    0.000    0.000    0.000    0.000    0.000 
#    0.000    0.000    0.000    0.000    0.000    0.000 
#
# Total GULP energy -694025.446640 kJ/mol
# GULP energy per Si atom -12393.311547 kJ/mol
# Density = 2.340833 g / cm^3
# Si number density = 23.461734 Si / 1000 Ang^3
#
#
#
# Elastic Constant Matrix: (Units=GPa)
#
#
# Indices 1 2 3 4 5 6 
#
# 1 107.1973 20.2628 29.1667 0.0000 0.0000 0.0000
# 2 20.2628 53.1999 13.3146 0.0000 0.0000 0.0000
# 3 29.1667 13.3146 117.6413 0.0000 0.0000 0.0000
# 4 0.0000 0.0000 0.0000 45.6917 0.0000 0.0000
# 5 0.0000 0.0000 0.0000 0.0000 40.8894 0.0000
# 6 0.0000 0.0000 0.0000 0.0000 0.0000 34.6163
#
#
#
# Elastic Compliance Matrix: (Units=1/GPa)
#
#
# Indices 1 2 3 4 5 6 
#
# 1 0.010593 -0.003476 -0.002233 0.000000 0.000000 0.000000
# 2 -0.003476 0.020486 -0.001457 0.000000 0.000000 0.000000
# 3 -0.002233 -0.001457 0.009219 0.000000 0.000000 0.000000
# 4 0.000000 0.000000 0.000000 0.021886 0.000000 0.000000
# 5 0.000000 0.000000 0.000000 0.000000 0.024456 0.000000
# 6 0.000000 0.000000 0.000000 0.000000 0.000000 0.028888
#
#
# Mechanical properties :
#
#
# Convention : Reuss Voigt Hill
#
# Bulk Modulus (GPa) = 38.51136 44.83631 41.67384
# Shear Modulus (GPa) = 36.09734 38.59246 37.34490
#
# Velocity S-wave (km/s) = 3.92671 4.06015 3.99399
# Velocity P-wave (km/s) = 6.08349 6.41340 6.25062
#
# Compressibility (1/GPa) = 0.02596636
#
# Stress axis : x y z
#
# Youngs Moduli (GPa) = 94.40049 48.81501 108.47268
#
# Poissons Ratio (x) = 0.16968 0.24221
# Poissons Ratio (y) = 0.32812 0.15802
# Poissons Ratio (z) = 0.21079 0.07111
#
# Static dielectric constant tensor:
#      x y z
#    x 4.270020 0.000000 0.000000 
#    y 0.000000 3.193950 0.000000 
#    z 0.000000 0.000000 4.622900 
# 
# 
# High freq. dielectric constant tensor:
#      x y z
#    x 1.939350 0.000000 0.000000 
#    y 0.000000 1.914950 0.000000 
#    z 0.000000 0.000000 1.957930 
# 
# From -- ./inp_files/17248.got.cif
#   From: 2010.03.12/outbox.cif.g09.slc.cpg/sg62_9_cif.got.tgz:17248.got - 2010.04.10 19:12:36.
