data_PCOD8255578
_publ_section_title
;
Structure prediction by ZEFSAII (Michael W. Deem and Ramdas Pophale) SiO2 
 PCOD8255578
Probable space group: C M C M
;
_chemical_formula_sum "Si O2"
_cell_formula_units_Z 96
_cell_length_a 9.022481
_cell_length_b 28.981284
_cell_length_c 20.695668
_cell_angle_alpha 90.000000
_cell_angle_beta 90.000000
_cell_angle_gamma 90.000000
_cell_volume 5411.567099
_symmetry_space_group_name_H-M "C M C M"
_symmetry_group_IT_number 63
_symmetry_cell_setting 'orthorhombic'
loop_
_space_group_symop_operation_xyz
x,y,z
-x,-y,1/2+z
x,-y,-z
-x,y,1/2-z
-x,-y,-z
x,y,1/2-z
-x,y,z
x,-y,1/2+z
1/2+x,1/2+y,z
1/2-x,1/2-y,1/2+z
1/2+x,1/2-y,-z
1/2-x,1/2+y,1/2-z
1/2-x,1/2-y,-z
1/2+x,1/2+y,1/2-z
1/2-x,1/2+y,z
1/2+x,1/2-y,1/2+z
loop_
_atom_site_type_symbol
_atom_site_label
_atom_site_fract_x
_atom_site_fract_y
_atom_site_fract_z
Si Si1 0.824627 0.125009 0.379743
Si Si2 0.826574 0.621671 0.982580
Si Si3 0.324901 0.531648 0.560793
Si Si4 0.175757 0.221172 0.178870
Si Si5 0.173172 0.276941 0.442317
Si Si6 0.824134 0.029510 0.321331
O O1 0.747037 0.124629 0.448201
O O2 0.772762 0.169933 0.340769
O O3 0.770408 0.080778 0.339501
O O4 0.000000 0.124102 0.391898
O O5 0.000000 0.613126 0.991025
O O6 0.756801 0.580386 0.941479
O O7 0.792681 0.668819 0.944274
O O8 0.280189 0.500000 0.500000
O O9 0.500000 0.540207 0.561506
O O10 0.266500 0.506973 0.625902
O O11 0.241384 0.232912 0.250000
O O12 0.234752 0.257891 0.126217
O O13 0.000000 0.222864 0.181861
O O14 0.250000 0.250000 0.500000
O O15 0.000000 0.266434 0.449099
O O16 0.762297 0.016766 0.250000
O O17 0.000000 0.028818 0.321157
#
# Coordination Sequence:
#
# PCOD8255578 Si02
#       6
#    16  16  16  16  16  16
#     4  10  17  30  54  80 104 131 167 213 262 310
#     4  11  22  33  49  78 110 138 170 210 259 305
#     4  10  19  34  55  77  99 132 176 215 253 300
#     4   9  17  30  52  80 104 131 173 219 259 302
#     4  10  20  34  53  76 104 137 174 213 255 303
#     4   9  17  30  51  79 105 127 164 217 262 301
#
# _framework density 17.739778000000001
#
# number of rings (size 3 to 8) (size 9 to 14) (size 15 to 20)
#    0.000    2.167    3.333    1.000    0.000    3.000 
#    0.000    0.833    0.000    6.000    0.000    0.000 
#    0.000    0.000    0.000    0.000    0.000    0.000 
#
# Total GULP energy -595137.892900 kJ/mol
# GULP energy per Si atom -12398.706102 kJ/mol
# Density = 1.769940 g / cm^3
# Si number density = 17.739778 Si / 1000 Ang^3
#
#
#
# Elastic Constant Matrix: (Units=GPa)
#
#
# Indices 1 2 3 4 5 6 
#
# 1 30.1568 37.3442 26.9177 0.0000 0.0000 0.0000
# 2 37.3442 138.8961 90.9095 0.0000 0.0000 0.0000
# 3 26.9177 90.9095 183.6486 0.0000 0.0000 0.0000
# 4 0.0000 0.0000 0.0000 35.1127 0.0000 0.0000
# 5 0.0000 0.0000 0.0000 0.0000 15.0337 0.0000
# 6 0.0000 0.0000 0.0000 0.0000 0.0000 21.8905
#
#
#
# Elastic Compliance Matrix: (Units=1/GPa)
#
#
# Indices 1 2 3 4 5 6 
#
# 1 0.049833 -0.012748 -0.000994 0.000000 0.000000 0.000000
# 2 -0.012748 0.013911 -0.005018 0.000000 0.000000 0.000000
# 3 -0.000994 -0.005018 0.008075 0.000000 0.000000 0.000000
# 4 0.000000 0.000000 0.000000 0.028480 0.000000 0.000000
# 5 0.000000 0.000000 0.000000 0.000000 0.066517 0.000000
# 6 0.000000 0.000000 0.000000 0.000000 0.000000 0.045682
#
#
# Mechanical properties :
#
#
# Convention : Reuss Voigt Hill
#
# Bulk Modulus (GPa) = 29.15431 73.67160 51.41296
# Shear Modulus (GPa) = 19.12405 27.57604 23.35004
#
# Velocity S-wave (km/s) = 3.28690 3.94696 3.63196
# Velocity P-wave (km/s) = 5.55653 7.89877 6.82882
#
# Compressibility (1/GPa) = 0.03430024
#
# Stress axis : x y z
#
# Youngs Moduli (GPa) = 20.06696 71.88353 123.84238
#
# Poissons Ratio (x) = 0.91637 0.12306
# Poissons Ratio (y) = 0.25581 0.62143
# Poissons Ratio (z) = 0.01994 0.36070
#
# Static dielectric constant tensor:
#      x y z
#    x 2.964090 0.000000 0.000000 
#    y 0.000000 1.650600 0.000000 
#    z 0.000000 0.000000 3.888050 
# 
# 
# High freq. dielectric constant tensor:
#      x y z
#    x 1.648030 0.000000 0.000000 
#    y 0.000000 1.692570 0.000000 
#    z 0.000000 0.000000 1.691650 
# 
# From -- ./inp_files/51379.got.cif
#   From: 2010.03.12/outbox.cif.g09.slc.cpg/sg63_26_cif.got.tgz:51379.got - 2010.04.10 19:34:48.
