data_PCOD8255692
_publ_section_title
;
Structure prediction by ZEFSAII (Michael W. Deem and Ramdas Pophale) SiO2 
 PCOD8255692
Probable space group: C M C M
;
_chemical_formula_sum "Si O2"
_cell_formula_units_Z 96
_cell_length_a 9.155920
_cell_length_b 19.462646
_cell_length_c 31.233252
_cell_angle_alpha 90.000000
_cell_angle_beta 90.000000
_cell_angle_gamma 90.000000
_cell_volume 5565.716463
_symmetry_space_group_name_H-M "C M C M"
_symmetry_group_IT_number 63
_symmetry_cell_setting 'orthorhombic'
loop_
_space_group_symop_operation_xyz
x,y,z
-x,-y,1/2+z
x,-y,-z
-x,y,1/2-z
-x,-y,-z
x,y,1/2-z
-x,y,z
x,-y,1/2+z
1/2+x,1/2+y,z
1/2-x,1/2-y,1/2+z
1/2+x,1/2-y,-z
1/2-x,1/2+y,1/2-z
1/2-x,1/2-y,-z
1/2+x,1/2+y,1/2-z
1/2-x,1/2+y,z
1/2+x,1/2-y,1/2+z
loop_
_atom_site_type_symbol
_atom_site_label
_atom_site_fract_x
_atom_site_fract_y
_atom_site_fract_z
Si Si1 0.673345 0.346631 0.702537
Si Si2 0.827518 0.740646 0.630640
Si Si3 0.326619 0.541551 0.139083
Si Si4 0.326382 0.574106 0.985209
Si Si5 0.173435 0.896235 0.390167
Si Si6 0.673133 0.644094 0.068460
O O1 0.742110 0.338769 0.750000
O O2 0.500000 0.347456 0.705310
O O3 0.721862 0.283221 0.672626
O O4 0.727682 0.419074 0.681942
O O5 0.745561 0.668762 0.632259
O O6 0.776876 0.782610 0.587963
O O7 0.000000 0.727842 0.630520
O O8 0.500000 0.543506 0.136955
O O9 0.274451 0.462619 0.137244
O O10 0.264823 0.582242 0.097787
O O11 0.500000 0.569764 0.983163
O O12 0.266690 0.595387 0.938688
O O13 0.264763 0.500000 0.000000
O O14 0.273319 0.631750 0.019693
O O15 0.000000 0.887382 0.389548
O O16 0.500000 0.640901 0.070513
#
# Coordination Sequence:
#
# PCOD8255692 Si02
#       6
#    16  16  16  16  16  16
#     4   8  14  27  48  68  82 105 146 185 212 251
#     4   9  18  30  44  63  90 119 143 174 219 264
#     4   8  13  23  41  64  85 104 137 185 221 243
#     4   9  14  22  40  65  87 111 150 191 216 242
#     4  10  18  27  43  68  93 115 143 180 221 260
#     4   8  13  24  41  61  83 112 150 184 209 239
#
# _framework density 17.248453999999999
#
# number of rings (size 3 to 8) (size 9 to 14) (size 15 to 20)
#    0.000    3.333    1.667    2.000    0.000    0.667 
#    0.000    0.833    0.000    6.000    0.000    0.000 
#    0.000    0.000    0.000    0.000    0.000    0.000 
#
# Total GULP energy -594685.132478 kJ/mol
# GULP energy per Si atom -12389.273593 kJ/mol
# Density = 1.720920 g / cm^3
# Si number density = 17.248454 Si / 1000 Ang^3
#
#
#
# Elastic Constant Matrix: (Units=GPa)
#
#
# Indices 1 2 3 4 5 6 
#
# 1 12.3545 23.6224 13.5907 0.0000 0.0000 0.0000
# 2 23.6224 152.5384 71.0770 0.0000 0.0000 0.0000
# 3 13.5907 71.0770 129.3357 0.0000 0.0000 0.0000
# 4 0.0000 0.0000 0.0000 21.8301 0.0000 0.0000
# 5 0.0000 0.0000 0.0000 0.0000 7.1669 0.0000
# 6 0.0000 0.0000 0.0000 0.0000 0.0000 23.5134
#
#
#
# Elastic Compliance Matrix: (Units=1/GPa)
#
#
# Indices 1 2 3 4 5 6 
#
# 1 0.115916 -0.016501 -0.003113 0.000000 0.000000 0.000000
# 2 -0.016501 0.011161 -0.004400 0.000000 0.000000 0.000000
# 3 -0.003113 -0.004400 0.010477 0.000000 0.000000 0.000000
# 4 0.000000 0.000000 0.000000 0.045808 0.000000 0.000000
# 5 0.000000 0.000000 0.000000 0.000000 0.139531 0.000000
# 6 0.000000 0.000000 0.000000 0.000000 0.000000 0.042529
#
#
# Mechanical properties :
#
#
# Convention : Reuss Voigt Hill
#
# Bulk Modulus (GPa) = 11.16970 56.75653 33.96311
# Shear Modulus (GPa) = 11.27929 22.89798 17.08864
#
# Velocity S-wave (km/s) = 2.55998 3.64749 3.15101
# Velocity P-wave (km/s) = 3.90229 7.12149 5.74210
#
# Compressibility (1/GPa) = 0.08952794
#
# Stress axis : x y z
#
# Youngs Moduli (GPa) = 8.62695 89.59643 95.44902
#
# Poissons Ratio (x) = 1.47840 0.29709
# Poissons Ratio (y) = 0.14235 0.41995
# Poissons Ratio (z) = 0.02685 0.39420
#
# Static dielectric constant tensor:
#      x y z
#    x 2.497820 0.000000 0.000000 
#    y 0.000000 3.318400 0.000000 
#    z 0.000000 0.000000 3.617070 
# 
# 
# High freq. dielectric constant tensor:
#      x y z
#    x 1.589760 0.000000 0.000000 
#    y 0.000000 1.669630 0.000000 
#    z 0.000000 0.000000 1.663700 
# 
# From -- ./inp_files/68319.got.cif
#   From: 2010.03.12/outbox.cif.g09.slc.cpg/sg63_35_cif.got.tgz:68319.got - 2010.04.10 19:34:48.
