data_PCOD8255258
_publ_section_title
;
Structure prediction by ZEFSAII (Michael W. Deem and Ramdas Pophale) SiO2 
 PCOD8255258
Probable space group: P N M A
;
_chemical_formula_sum "Si O2"
_cell_formula_units_Z 40
_cell_length_a 8.974664
_cell_length_b 18.321631
_cell_length_c 13.395735
_cell_angle_alpha 90.000000
_cell_angle_beta 90.000000
_cell_angle_gamma 90.000000
_cell_volume 2202.667165
_symmetry_space_group_name_H-M "P N M A"
_symmetry_group_IT_number 62
_symmetry_cell_setting 'orthorhombic'
loop_
_space_group_symop_operation_xyz
x,y,z
1/2-x,-y,1/2+z
1/2+x,1/2-y,1/2-z
-x,1/2+y,-z
-x,-y,-z
1/2+x,y,1/2-z
1/2-x,1/2+y,1/2+z
x,1/2-y,z
loop_
_atom_site_type_symbol
_atom_site_label
_atom_site_fract_x
_atom_site_fract_y
_atom_site_fract_z
Si Si1 0.852492 0.037906 0.162380
Si Si2 0.181097 0.612518 0.039271
Si Si3 0.666158 0.387708 0.564335
Si Si4 0.303782 0.537627 0.637177
Si Si5 0.173344 0.250000 0.629335
Si Si6 0.177484 0.750000 0.342069
O O1 0.792917 0.063139 0.269228
O O2 0.027832 0.036740 0.171921
O O3 0.796305 0.956904 0.134118
O O4 0.802384 0.095533 0.078236
O O5 0.240587 0.543344 0.101525
O O6 0.287644 0.679563 0.063864
O O7 0.009682 0.630199 0.066613
O O8 0.719298 0.404857 0.451935
O O9 0.761235 0.320584 0.602424
O O10 0.272115 0.250000 0.728244
O O11 0.000413 0.250000 0.656703
#
# Coordination Sequence:
#
# PCOD8255258 Si02
#       6
#     8   8   8   8   4   4
#     4   9  18  33  55  79 104 135 172 212 257 304
#     4   9  19  36  54  76 106 138 171 211 256 304
#     4   9  19  36  54  76 106 138 171 211 256 304
#     4   9  18  33  55  79 104 135 172 212 257 304
#     4  12  24  36  53  78 105 136 171 210 256 306
#     4  12  24  36  53  78 105 136 171 210 256 306
#
# _framework density 18.159803
#
# number of rings (size 3 to 8) (size 9 to 14) (size 15 to 20)
#    0.000    2.400    0.000    5.400    0.000    6.400 
#    0.000    5.000    0.000    0.000    0.000    0.000 
#    0.000    0.000    0.000    0.000    0.000    0.000 
#
# Total GULP energy -496016.813653 kJ/mol
# GULP energy per Si atom -12400.420341 kJ/mol
# Density = 1.811847 g / cm^3
# Si number density = 18.159803 Si / 1000 Ang^3
#
#
#
# Elastic Constant Matrix: (Units=GPa)
#
#
# Indices 1 2 3 4 5 6 
#
# 1 24.2072 17.4444 -10.7002 0.0000 0.0000 0.0000
# 2 17.4444 80.8903 5.4601 0.0000 0.0000 0.0000
# 3 -10.7002 5.4601 60.5781 0.0000 0.0000 0.0000
# 4 0.0000 0.0000 0.0000 20.3790 0.0000 0.0000
# 5 0.0000 0.0000 0.0000 0.0000 37.7324 0.0000
# 6 0.0000 0.0000 0.0000 0.0000 0.0000 -6.5498
#
#
#
# Elastic Compliance Matrix: (Units=1/GPa)
#
#
# Indices 1 2 3 4 5 6 
#
# 1 0.055242 -0.012649 0.010898 0.000000 0.000000 0.000000
# 2 -0.012649 0.015334 -0.003616 0.000000 0.000000 0.000000
# 3 0.010898 -0.003616 0.018759 0.000000 0.000000 0.000000
# 4 0.000000 0.000000 0.000000 0.049070 0.000000 0.000000
# 5 0.000000 0.000000 0.000000 0.000000 0.026502 0.000000
# 6 0.000000 0.000000 0.000000 0.000000 0.000000 -0.152677
#
#
# Mechanical properties :
#
#
# Convention : Reuss Voigt Hill
#
# Bulk Modulus (GPa) = 12.72260 21.12046 16.92153
# Shear Modulus (GPa) = 101.69666 20.54374 61.12020
#
# Velocity S-wave (km/s) = 7.49150 3.36709 5.80775
# Velocity P-wave (km/s) = 9.04716 5.17417 7.36964
#
# Compressibility (1/GPa) = 0.07860026
#
# Stress axis : x y z
#
# Youngs Moduli (GPa) = 18.10208 65.21315 53.30909
#
# Poissons Ratio (x) = 0.82487 -0.58095
# Poissons Ratio (y) = 0.22897 0.19279
# Poissons Ratio (z) = -0.19727 0.23583
#
# Static dielectric constant tensor:
#      x y z
#    x 3.194710 0.000000 0.000000 
#    y 0.000000 3.265990 0.000000 
#    z 0.000000 0.000000 3.701640 
# 
# 
# High freq. dielectric constant tensor:
#      x y z
#    x 1.696500 0.000000 0.000000 
#    y 0.000000 1.693780 0.000000 
#    z 0.000000 0.000000 1.712770 
# 
# From -- ./inp_files/11093.got.cif
#   From: 2010.03.12/outbox.cif.g09.slc.cpg/sg62_6_cif.got.tgz:11093.got - 2010.04.10 19:12:36.
