data_PCOD8255026
_publ_section_title
;
Structure prediction by ZEFSAII (Michael W. Deem and Ramdas Pophale) SiO2 
 PCOD8255026
Probable space group: P N M A
;
_chemical_formula_sum "Si O2"
_cell_formula_units_Z 56
_cell_length_a 19.950960
_cell_length_b 8.740888
_cell_length_c 16.174456
_cell_angle_alpha 90.000000
_cell_angle_beta 90.000000
_cell_angle_gamma 90.000000
_cell_volume 2820.648936
_symmetry_space_group_name_H-M "P N M A"
_symmetry_group_IT_number 62
_symmetry_cell_setting 'orthorhombic'
loop_
_space_group_symop_operation_xyz
x,y,z
1/2-x,-y,1/2+z
1/2+x,1/2-y,1/2-z
-x,1/2+y,-z
-x,-y,-z
1/2+x,y,1/2-z
1/2-x,1/2+y,1/2+z
x,1/2-y,z
loop_
_atom_site_type_symbol
_atom_site_label
_atom_site_fract_x
_atom_site_fract_y
_atom_site_fract_z
Si Si1 0.379603 0.427352 0.711945
Si Si2 0.840286 0.072925 0.976190
Si Si3 0.234474 0.069152 0.750853
Si Si4 0.301335 0.568890 0.073992
Si Si5 0.051351 0.430314 0.564089
Si Si6 0.985115 0.070838 0.261803
Si Si7 0.883680 0.929934 0.136587
O O1 0.396877 0.250000 0.729261
O O2 0.370172 0.454620 0.614420
O O3 0.312158 0.479560 0.760768
O O4 0.437270 0.534683 0.746823
O O5 0.845058 0.250000 0.001220
O O6 0.762600 0.013645 0.979756
O O7 0.884170 0.975331 0.040423
O O8 0.232151 0.250000 0.743706
O O9 0.204179 0.998615 0.666331
O O10 0.187893 0.013801 0.826244
O O11 0.295845 0.750000 0.081803
O O12 0.373164 0.520899 0.035778
O O13 0.042678 0.250000 0.563012
O O14 0.039501 0.486492 0.656430
O O15 0.000000 0.500000 0.500000
O O16 0.975453 0.250000 0.274097
O O17 0.943953 0.013772 0.182732
O O18 0.894904 0.750000 0.146636
#
# Coordination Sequence:
#
# PCOD8255026 Si02
#       7
#     8   8   8   8   8   8   8
#     4   9  19  38  62  84 114 155 197 244 299 354
#     4   9  19  36  59  87 115 148 193 243 297 350
#     4   8  15  32  59  84 104 143 196 241 292 351
#     4   8  15  33  59  81 109 146 185 233 288 344
#     4  11  22  39  62  88 121 157 196 240 295 353
#     4  12  25  40  58  85 120 158 201 245 294 352
#     4  11  21  36  60  87 117 154 198 243 296 355
#
# _framework density 19.853587999999998
#
# number of rings (size 3 to 8) (size 9 to 14) (size 15 to 20)
#    0.000    2.286    1.429    3.857    0.000    2.286 
#    0.000    5.714    0.000    0.000    0.000    0.000 
#    0.000    0.000    0.000    0.000    0.000    0.000 
#
# Total GULP energy -694191.595917 kJ/mol
# GULP energy per Si atom -12396.278499 kJ/mol
# Density = 1.980840 g / cm^3
# Si number density = 19.853588 Si / 1000 Ang^3
#
#
#
# Elastic Constant Matrix: (Units=GPa)
#
#
# Indices 1 2 3 4 5 6 
#
# 1 91.8422 31.6141 0.6015 0.0000 0.0000 0.0000
# 2 31.6141 60.5680 13.1552 0.0000 0.0000 0.0000
# 3 0.6015 13.1552 25.6275 0.0000 0.0000 0.0000
# 4 0.0000 0.0000 0.0000 30.2188 0.0000 0.0000
# 5 0.0000 0.0000 0.0000 0.0000 30.5540 0.0000
# 6 0.0000 0.0000 0.0000 0.0000 0.0000 23.9208
#
#
#
# Elastic Compliance Matrix: (Units=1/GPa)
#
#
# Indices 1 2 3 4 5 6 
#
# 1 0.013584 -0.007902 0.003737 0.000000 0.000000 0.000000
# 2 -0.007902 0.023179 -0.011713 0.000000 0.000000 0.000000
# 3 0.003737 -0.011713 0.044945 0.000000 0.000000 0.000000
# 4 0.000000 0.000000 0.000000 0.033092 0.000000 0.000000
# 5 0.000000 0.000000 0.000000 0.000000 0.032729 0.000000
# 6 0.000000 0.000000 0.000000 0.000000 0.000000 0.041805
#
#
# Mechanical properties :
#
#
# Convention : Reuss Voigt Hill
#
# Bulk Modulus (GPa) = 20.01867 29.86437 24.94152
# Shear Modulus (GPa) = 21.03142 25.78316 23.40729
#
# Velocity S-wave (km/s) = 3.25826 3.60761 3.43738
# Velocity P-wave (km/s) = 4.92545 5.69457 5.32391
#
# Compressibility (1/GPa) = 0.04995336
#
# Stress axis : x y z
#
# Youngs Moduli (GPa) = 73.61715 43.14270 22.24921
#
# Poissons Ratio (x) = 0.34091 -0.08315
# Poissons Ratio (y) = 0.58172 0.26060
# Poissons Ratio (z) = -0.27514 0.50532
#
# Static dielectric constant tensor:
#      x y z
#    x 3.959510 0.000000 0.000000 
#    y 0.000000 3.283930 0.000000 
#    z 0.000000 0.000000 3.464730 
# 
# 
# High freq. dielectric constant tensor:
#      x y z
#    x 1.789480 0.000000 0.000000 
#    y 0.000000 1.745610 0.000000 
#    z 0.000000 0.000000 1.765130 
# 
# From -- ./inp_files/20416.got.cif
#   From: 2010.03.12/outbox.cif.g09.slc.cpg/sg62_11_cif.got.tgz:20416.got - 2010.04.10 19:12:36.
