data_PCOD8255382
_publ_section_title
;
Structure prediction by ZEFSAII (Michael W. Deem and Ramdas Pophale) SiO2 
 PCOD8255382
Probable space group: C M C M
;
_chemical_formula_sum "Si O2"
_cell_formula_units_Z 112
_cell_length_a 29.906988
_cell_length_b 15.945091
_cell_length_c 15.368418
_cell_angle_alpha 90.000000
_cell_angle_beta 90.000000
_cell_angle_gamma 90.000000
_cell_volume 7328.732039
_symmetry_space_group_name_H-M "C M C M"
_symmetry_group_IT_number 63
_symmetry_cell_setting 'orthorhombic'
loop_
_space_group_symop_operation_xyz
x,y,z
-x,-y,1/2+z
x,-y,-z
-x,y,1/2-z
-x,-y,-z
x,y,1/2-z
-x,y,z
x,-y,1/2+z
1/2+x,1/2+y,z
1/2-x,1/2-y,1/2+z
1/2+x,1/2-y,-z
1/2-x,1/2+y,1/2-z
1/2-x,1/2-y,-z
1/2+x,1/2+y,1/2-z
1/2-x,1/2+y,z
1/2+x,1/2-y,1/2+z
loop_
_atom_site_type_symbol
_atom_site_label
_atom_site_fract_x
_atom_site_fract_y
_atom_site_fract_z
Si Si1 0.450805 0.412824 0.048545
Si Si2 0.824378 0.717184 0.649722
Si Si3 0.377280 0.658979 0.446537
Si Si4 0.692695 0.364282 0.091072
Si Si5 0.123988 0.988864 0.153643
Si Si6 0.714268 0.094233 0.986699
Si Si7 0.767994 0.699309 0.153748
O O1 0.500000 0.379661 0.077336
O O2 0.418538 0.430292 0.130382
O O3 0.457109 0.500000 0.000000
O O4 0.427519 0.341931 0.986732
O O5 0.827523 0.686281 0.750000
O O6 0.870189 0.767034 0.624151
O O7 0.817289 0.638430 0.585483
O O8 0.784583 0.784693 0.636820
O O9 0.340708 0.674648 0.520557
O O10 0.369409 0.566030 0.410354
O O11 0.668874 0.434103 0.149645
O O12 0.734951 0.407268 0.045352
O O13 0.708002 0.289225 0.153101
O O14 0.116959 0.024173 0.250000
O O15 0.711396 0.140222 0.079930
O O16 0.696584 0.000000 0.000000
O O17 0.775171 0.659404 0.250000
#
# Coordination Sequence:
#
# PCOD8255382 Si02
#       7
#    16  16  16  16  16  16  16
#     4   8  16  29  44  61  86 121 152 179 222 269
#     4  10  19  31  46  65  88 118 152 191 233 271
#     4  10  16  29  46  62  89 119 152 188 223 270
#     4  10  17  31  44  61  86 120 154 193 225 263
#     4  10  19  26  41  68  90 117 156 189 223 264
#     4  11  20  32  45  61  90 121 157 195 232 272
#     4  10  19  31  46  62  86 118 153 192 236 271
#
# _framework density 15.282316
#
# number of rings (size 3 to 8) (size 9 to 14) (size 15 to 20)
#    0.000    2.143    2.857    3.857    0.000    1.429 
#    0.000    0.000    0.000    1.286    0.000    0.000 
#    0.000    0.571    0.000    0.000    0.000    0.000 
#
# Total GULP energy -694109.170760 kJ/mol
# GULP energy per Si atom -12394.806621 kJ/mol
# Density = 1.524753 g / cm^3
# Si number density = 15.282316 Si / 1000 Ang^3
#
#
#
# Elastic Constant Matrix: (Units=GPa)
#
#
# Indices 1 2 3 4 5 6 
#
# 1 73.8146 22.9307 16.1298 0.0000 0.0000 0.0000
# 2 22.9307 68.5169 29.2644 0.0000 0.0000 0.0000
# 3 16.1298 29.2644 86.3084 0.0000 0.0000 0.0000
# 4 0.0000 0.0000 0.0000 12.5800 0.0000 0.0000
# 5 0.0000 0.0000 0.0000 0.0000 11.0716 0.0000
# 6 0.0000 0.0000 0.0000 0.0000 0.0000 12.6141
#
#
#
# Elastic Compliance Matrix: (Units=1/GPa)
#
#
# Indices 1 2 3 4 5 6 
#
# 1 0.015245 -0.004543 -0.001309 0.000000 0.000000 0.000000
# 2 -0.004543 0.018420 -0.005397 0.000000 0.000000 0.000000
# 3 -0.001309 -0.005397 0.013661 0.000000 0.000000 0.000000
# 4 0.000000 0.000000 0.000000 0.079491 0.000000 0.000000
# 5 0.000000 0.000000 0.000000 0.000000 0.090321 0.000000
# 6 0.000000 0.000000 0.000000 0.000000 0.000000 0.079276
#
#
# Mechanical properties :
#
#
# Convention : Reuss Voigt Hill
#
# Bulk Modulus (GPa) = 40.27535 40.58774 40.43154
# Shear Modulus (GPa) = 15.28174 17.94081 16.61128
#
# Velocity S-wave (km/s) = 3.16565 3.43003 3.30049
# Velocity P-wave (km/s) = 6.30660 6.50408 6.40610
#
# Compressibility (1/GPa) = 0.02482908
#
# Stress axis : x y z
#
# Youngs Moduli (GPa) = 65.59649 54.28772 73.20228
#
# Poissons Ratio (x) = 0.24663 0.09579
# Poissons Ratio (y) = 0.29801 0.39505
# Poissons Ratio (z) = 0.08584 0.29298
#
# Static dielectric constant tensor:
#      x y z
#    x 2.935520 0.000000 0.000000 
#    y 0.000000 2.690540 0.000000 
#    z 0.000000 0.000000 2.987640 
# 
# 
# High freq. dielectric constant tensor:
#      x y z
#    x 1.552930 0.000000 0.000000 
#    y 0.000000 1.555400 0.000000 
#    z 0.000000 0.000000 1.596140 
# 
# From -- ./inp_files/38689.got.cif
#   From: 2010.03.12/outbox.cif.g09.slc.cpg/sg63_20_cif.got.tgz:38689.got - 2010.04.10 19:34:48.
