data_PCOD8255574
_publ_section_title
;
Structure prediction by ZEFSAII (Michael W. Deem and Ramdas Pophale) SiO2 
 PCOD8255574
Probable space group: C M C M
;
_chemical_formula_sum "Si O2"
_cell_formula_units_Z 88
_cell_length_a 12.973494
_cell_length_b 19.226328
_cell_length_c 19.537878
_cell_angle_alpha 90.000000
_cell_angle_beta 90.000000
_cell_angle_gamma 90.000000
_cell_volume 4873.384703
_symmetry_space_group_name_H-M "C M C M"
_symmetry_group_IT_number 63
_symmetry_cell_setting 'orthorhombic'
loop_
_space_group_symop_operation_xyz
x,y,z
-x,-y,1/2+z
x,-y,-z
-x,y,1/2-z
-x,-y,-z
x,y,1/2-z
-x,y,z
x,-y,1/2+z
1/2+x,1/2+y,z
1/2-x,1/2-y,1/2+z
1/2+x,1/2-y,-z
1/2-x,1/2+y,1/2-z
1/2-x,1/2-y,-z
1/2+x,1/2+y,1/2-z
1/2-x,1/2+y,z
1/2+x,1/2-y,1/2+z
loop_
_atom_site_type_symbol
_atom_site_label
_atom_site_fract_x
_atom_site_fract_y
_atom_site_fract_z
Si Si1 0.692972 0.111396 0.108060
Si Si2 0.880825 0.329483 0.474468
Si Si3 0.882378 0.200597 0.110394
Si Si4 0.118919 0.665081 0.250000
Si Si5 0.119792 0.462989 0.104111
Si Si6 0.189638 0.740774 0.750000
Si Si7 0.383026 0.906702 0.250000
O O1 0.813877 0.130764 0.107724
O O2 0.641607 0.119397 0.182586
O O3 0.680160 0.032549 0.081787
O O4 0.636819 0.164246 0.055513
O O5 0.837572 0.256539 0.444801
O O6 0.832195 0.396641 0.435681
O O7 0.000000 0.328946 0.454981
O O8 0.874235 0.234032 0.184885
O O9 0.000000 0.179111 0.094899
O O10 0.192405 0.732554 0.250000
O O11 0.000000 0.689018 0.250000
O O12 0.137056 0.454396 0.184712
O O13 0.000000 0.473845 0.085256
O O14 0.195516 0.657604 0.750000
O O15 0.500000 0.877347 0.250000
#
# Coordination Sequence:
#
# PCOD8255574 Si02
#       7
#    16  16  16   8  16   8   8
#     4  11  21  33  50  76 106 134 161 203 255 304
#     4  10  19  32  52  76 102 131 165 207 252 297
#     4  10  20  34  53  76  99 131 172 209 245 288
#     4  10  21  34  49  72 105 136 163 197 247 304
#     4  10  19  30  51  78 103 130 161 208 258 299
#     4  10  18  32  55  75  97 128 167 210 248 289
#     4  10  17  30  52  77 102 126 162 209 251 295
#
# _framework density 18.057265000000001
#
# number of rings (size 3 to 8) (size 9 to 14) (size 15 to 20)
#    0.000    1.818    1.818    4.091    0.000    2.182 
#    0.000    0.000    0.000    3.273    0.000    0.000 
#    0.000    0.000    0.000    0.000    0.000    0.000 
#
# Total GULP energy -545594.430834 kJ/mol
# GULP energy per Si atom -12399.873428 kJ/mol
# Density = 1.801617 g / cm^3
# Si number density = 18.057265 Si / 1000 Ang^3
#
#
#
# Elastic Constant Matrix: (Units=GPa)
#
#
# Indices 1 2 3 4 5 6 
#
# 1 76.0365 40.3379 7.0942 0.0000 0.0000 0.0000
# 2 40.3379 73.0251 -4.2218 0.0000 0.0000 0.0000
# 3 7.0942 -4.2218 78.6667 0.0000 0.0000 0.0000
# 4 0.0000 0.0000 0.0000 18.2918 0.0000 0.0000
# 5 0.0000 0.0000 0.0000 0.0000 18.9581 0.0000
# 6 0.0000 0.0000 0.0000 0.0000 0.0000 25.0127
#
#
#
# Elastic Compliance Matrix: (Units=1/GPa)
#
#
# Indices 1 2 3 4 5 6 
#
# 1 0.019004 -0.010629 -0.002284 0.000000 0.000000 0.000000
# 2 -0.010629 0.019682 0.002015 0.000000 0.000000 0.000000
# 3 -0.002284 0.002015 0.013026 0.000000 0.000000 0.000000
# 4 0.000000 0.000000 0.000000 0.054669 0.000000 0.000000
# 5 0.000000 0.000000 0.000000 0.000000 0.052748 0.000000
# 6 0.000000 0.000000 0.000000 0.000000 0.000000 0.039980
#
#
# Mechanical properties :
#
#
# Convention : Reuss Voigt Hill
#
# Bulk Modulus (GPa) = 33.42912 34.90543 34.16727
# Shear Modulus (GPa) = 21.65655 24.75374 23.20514
#
# Velocity S-wave (km/s) = 3.46689 3.70651 3.58870
# Velocity P-wave (km/s) = 5.88037 6.13922 6.01119
#
# Compressibility (1/GPa) = 0.02991404
#
# Stress axis : x y z
#
# Youngs Moduli (GPa) = 52.62150 50.80811 76.76972
#
# Poissons Ratio (x) = 0.54006 0.17536
# Poissons Ratio (y) = 0.55933 -0.15468
# Poissons Ratio (z) = 0.12020 -0.10237
#
# Static dielectric constant tensor:
#      x y z
#    x 3.065100 0.000000 0.000000 
#    y 0.000000 3.276800 0.000000 
#    z 0.000000 0.000000 3.495900 
# 
# 
# High freq. dielectric constant tensor:
#      x y z
#    x 1.663680 0.000000 0.000000 
#    y 0.000000 1.690750 0.000000 
#    z 0.000000 0.000000 1.719490 
# 
# From -- ./inp_files/52601.got.cif
#   From: 2010.03.12/outbox.cif.g09.slc.cpg/sg63_27_cif.got.tgz:52601.got - 2010.04.10 19:34:48.
