data_PCOD8255638
_publ_section_title
;
Structure prediction by ZEFSAII (Michael W. Deem and Ramdas Pophale) SiO2 
 PCOD8255638
Probable space group: C M C M
;
_chemical_formula_sum "Si O2"
_cell_formula_units_Z 80
_cell_length_a 18.344543
_cell_length_b 25.055773
_cell_length_c 9.546602
_cell_angle_alpha 90.000000
_cell_angle_beta 90.000000
_cell_angle_gamma 90.000000
_cell_volume 4387.968689
_symmetry_space_group_name_H-M "C M C M"
_symmetry_group_IT_number 63
_symmetry_cell_setting 'orthorhombic'
loop_
_space_group_symop_operation_xyz
x,y,z
-x,-y,1/2+z
x,-y,-z
-x,y,1/2-z
-x,-y,-z
x,y,1/2-z
-x,y,z
x,-y,1/2+z
1/2+x,1/2+y,z
1/2-x,1/2-y,1/2+z
1/2+x,1/2-y,-z
1/2-x,1/2+y,1/2-z
1/2-x,1/2-y,-z
1/2+x,1/2+y,1/2-z
1/2-x,1/2+y,z
1/2+x,1/2-y,1/2+z
loop_
_atom_site_type_symbol
_atom_site_label
_atom_site_fract_x
_atom_site_fract_y
_atom_site_fract_z
Si Si1 0.866707 0.765760 0.409189
Si Si2 0.917419 0.052312 0.913290
Si Si3 0.000000 0.650110 0.088965
Si Si4 0.788528 0.870583 0.090937
Si Si5 0.158257 0.642427 0.092352
Si Si6 0.000000 0.756196 0.917464
O O1 0.897022 0.770229 0.250000
O O2 0.800595 0.807145 0.429257
O O3 0.841231 0.705671 0.440295
O O4 0.928406 0.784343 0.519488
O O5 0.909819 0.038528 0.750000
O O6 0.860803 0.098211 0.959282
O O7 0.000000 0.071545 0.947767
O O8 0.897156 0.000000 0.000000
O O9 0.076168 0.618093 0.066958
O O10 0.000000 0.673035 0.250000
O O11 0.000000 0.696136 0.974388
O O12 0.770776 0.885291 0.250000
O O13 0.716815 0.887471 0.004401
O O14 0.183413 0.631628 0.250000
O O15 0.000000 0.758185 0.750000
#
# Coordination Sequence:
#
# PCOD8255638 Si02
#       6
#    16  16   8  16  16   8
#     4   9  18  31  45  62  94 137 166 193 238 295
#     4   9  19  36  55  74  96 126 164 205 250 298
#     4   8  16  32  48  62  89 132 167 188 229 288
#     4  10  20  31  49  73  95 125 164 201 244 297
#     4   9  17  30  47  69  98 131 165 198 234 282
#     4  10  18  26  40  64  89 120 165 210 237 266
#
# _framework density 18.231670000000001
#
# number of rings (size 3 to 8) (size 9 to 14) (size 15 to 20)
#    0.000    2.800    0.000    2.700    1.400    4.800 
#    0.000    0.000    0.000    0.000    0.000    0.700 
#    0.000    0.000    0.000    0.000    0.000    0.000 
#
# Total GULP energy -495627.712188 kJ/mol
# GULP energy per Si atom -12390.692805 kJ/mol
# Density = 1.819017 g / cm^3
# Si number density = 18.231670 Si / 1000 Ang^3
#
#
#
# Elastic Constant Matrix: (Units=GPa)
#
#
# Indices 1 2 3 4 5 6 
#
# 1 149.8897 31.1020 69.1779 0.0000 0.0000 0.0000
# 2 31.1020 32.4131 18.3118 0.0000 0.0000 0.0000
# 3 69.1779 18.3118 89.3302 0.0000 0.0000 0.0000
# 4 0.0000 0.0000 0.0000 19.1628 0.0000 0.0000
# 5 0.0000 0.0000 0.0000 0.0000 36.1542 0.0000
# 6 0.0000 0.0000 0.0000 0.0000 0.0000 18.7605
#
#
#
# Elastic Compliance Matrix: (Units=1/GPa)
#
#
# Indices 1 2 3 4 5 6 
#
# 1 0.011584 -0.006839 -0.007569 0.000000 0.000000 0.000000
# 2 -0.006839 0.038931 -0.002684 0.000000 0.000000 0.000000
# 3 -0.007569 -0.002684 0.017606 0.000000 0.000000 0.000000
# 4 0.000000 0.000000 0.000000 0.052184 0.000000 0.000000
# 5 0.000000 0.000000 0.000000 0.000000 0.027659 0.000000
# 6 0.000000 0.000000 0.000000 0.000000 0.000000 0.053304
#
#
# Mechanical properties :
#
#
# Convention : Reuss Voigt Hill
#
# Bulk Modulus (GPa) = 29.46680 56.53515 43.00098
# Shear Modulus (GPa) = 20.26231 25.01826 22.64028
#
# Velocity S-wave (km/s) = 3.33735 3.70840 3.52776
# Velocity P-wave (km/s) = 5.57208 7.02943 6.34275
#
# Compressibility (1/GPa) = 0.03393650
#
# Stress axis : x y z
#
# Youngs Moduli (GPa) = 86.32719 25.68666 56.79958
#
# Poissons Ratio (x) = 0.17568 0.42989
# Poissons Ratio (y) = 0.59043 0.15245
# Poissons Ratio (z) = 0.65338 0.06894
#
# Static dielectric constant tensor:
#      x y z
#    x 3.582910 0.000000 0.000000 
#    y 0.000000 2.836860 0.000000 
#    z 0.000000 0.000000 3.285360 
# 
# 
# High freq. dielectric constant tensor:
#      x y z
#    x 1.718460 0.000000 0.000000 
#    y 0.000000 1.643490 0.000000 
#    z 0.000000 0.000000 1.702230 
# 
# From -- ./inp_files/6703.got.cif
#   From: 2010.03.12/outbox.cif.g09.slc.cpg/sg63_4_cif.got.tgz:6703.got - 2010.04.10 19:34:48.
