data_PCOD8255566
_publ_section_title
;
Structure prediction by ZEFSAII (Michael W. Deem and Ramdas Pophale) SiO2 
 PCOD8255566
Probable space group: C M C M
;
_chemical_formula_sum "Si O2"
_cell_formula_units_Z 128
_cell_length_a 17.512752
_cell_length_b 26.133280
_cell_length_c 18.689951
_cell_angle_alpha 90.000000
_cell_angle_beta 90.000000
_cell_angle_gamma 90.000000
_cell_volume 8553.748603
_symmetry_space_group_name_H-M "C M C M"
_symmetry_group_IT_number 63
_symmetry_cell_setting 'orthorhombic'
loop_
_space_group_symop_operation_xyz
x,y,z
-x,-y,1/2+z
x,-y,-z
-x,y,1/2-z
-x,-y,-z
x,y,1/2-z
-x,y,z
x,-y,1/2+z
1/2+x,1/2+y,z
1/2-x,1/2-y,1/2+z
1/2+x,1/2-y,-z
1/2-x,1/2+y,1/2-z
1/2-x,1/2-y,-z
1/2+x,1/2+y,1/2-z
1/2-x,1/2+y,z
1/2+x,1/2-y,1/2+z
loop_
_atom_site_type_symbol
_atom_site_label
_atom_site_fract_x
_atom_site_fract_y
_atom_site_fract_z
Si Si1 0.296772 0.177600 0.054944
Si Si2 0.409743 0.600218 0.912015
Si Si3 0.667489 0.687424 0.667986
Si Si4 0.307163 0.226156 0.912066
Si Si5 0.590007 0.298285 0.667493
Si Si6 0.911522 0.707908 0.167247
Si Si7 0.084469 0.011010 0.083022
Si Si8 0.343042 0.385683 0.567013
O O1 0.235010 0.221845 0.066471
O O2 0.360336 0.171635 0.116799
O O3 0.247666 0.124983 0.056042
O O4 0.337094 0.192279 0.979467
O O5 0.500000 0.603416 0.912922
O O6 0.376235 0.636209 0.851445
O O7 0.383860 0.543076 0.887077
O O8 0.382222 0.618811 0.989765
O O9 0.688094 0.687578 0.750000
O O10 0.748192 0.689756 0.628575
O O11 0.611440 0.734200 0.648295
O O12 0.377558 0.244228 0.862751
O O13 0.616046 0.304759 0.750000
O O14 0.500000 0.295306 0.660450
O O15 0.620008 0.346469 0.622825
O O16 0.893982 0.694813 0.250000
O O17 0.000000 0.699487 0.149264
O O18 0.143536 0.057116 0.098597
O O19 0.000000 0.025107 0.114136
O O20 0.074717 0.000000 0.000000
#
# Coordination Sequence:
#
# PCOD8255566 Si02
#       8
#    16  16  16  16  16  16  16  16
#     4   9  17  27  44  64  84 109 150 176 210 258
#     4  10  18  28  44  65  87 114 150 185 215 255
#     4  10  18  29  44  61  85 119 149 179 220 259
#     4   9  17  30  41  60  85 113 143 185 216 250
#     4  10  20  30  42  61  84 115 151 180 213 256
#     4   9  18  30  43  63  92 120 144 176 219 262
#     4   8  15  27  43  63  86 114 146 178 217 253
#     4  10  17  30  46  62  85 113 148 183 214 253
#
# _framework density 14.9642
#
# number of rings (size 3 to 8) (size 9 to 14) (size 15 to 20)
#    0.000    2.625    1.250    2.625    1.750    4.250 
#    0.000    0.625    0.000    0.750    0.000    0.000 
#    0.000    5.500    0.000    2.875    1.000    0.000 
#
# Total GULP energy -793137.408011 kJ/mol
# GULP energy per Si atom -12392.772000 kJ/mol
# Density = 1.493014 g / cm^3
# Si number density = 14.964200 Si / 1000 Ang^3
#
#
#
# Elastic Constant Matrix: (Units=GPa)
#
#
# Indices 1 2 3 4 5 6 
#
# 1 69.2662 46.8429 38.4196 0.0000 0.0000 0.0000
# 2 46.8429 75.3492 27.0287 0.0000 0.0000 0.0000
# 3 38.4196 27.0287 59.2008 0.0000 0.0000 0.0000
# 4 0.0000 0.0000 0.0000 14.7522 0.0000 0.0000
# 5 0.0000 0.0000 0.0000 0.0000 24.9195 0.0000
# 6 0.0000 0.0000 0.0000 0.0000 0.0000 20.8121
#
#
#
# Elastic Compliance Matrix: (Units=1/GPa)
#
#
# Indices 1 2 3 4 5 6 
#
# 1 0.032567 -0.015145 -0.014220 0.000000 0.000000 0.000000
# 2 -0.015145 0.022914 -0.000633 0.000000 0.000000 0.000000
# 3 -0.014220 -0.000633 0.026409 0.000000 0.000000 0.000000
# 4 0.000000 0.000000 0.000000 0.067786 0.000000 0.000000
# 5 0.000000 0.000000 0.000000 0.000000 0.040129 0.000000
# 6 0.000000 0.000000 0.000000 0.000000 0.000000 0.048049
#
#
# Mechanical properties :
#
#
# Convention : Reuss Voigt Hill
#
# Bulk Modulus (GPa) = 45.67579 47.59986 46.63782
# Shear Modulus (GPa) = 16.38548 18.19843 17.29195
#
# Velocity S-wave (km/s) = 3.31264 3.49109 3.40303
# Velocity P-wave (km/s) = 6.72466 6.93747 6.83189
#
# Compressibility (1/GPa) = 0.02189344
#
# Stress axis : x y z
#
# Youngs Moduli (GPa) = 30.70621 43.64160 37.86574
#
# Poissons Ratio (x) = 0.66095 0.53846
# Poissons Ratio (y) = 0.46505 0.02397
# Poissons Ratio (z) = 0.43665 0.02762
#
# Static dielectric constant tensor:
#      x y z
#    x 2.865800 0.000000 0.000000 
#    y 0.000000 3.154750 0.000000 
#    z 0.000000 0.000000 2.967030 
# 
# 
# High freq. dielectric constant tensor:
#      x y z
#    x 1.556350 0.000000 0.000000 
#    y 0.000000 1.546480 0.000000 
#    z 0.000000 0.000000 1.573760 
# 
# From -- ./inp_files/56099.got.cif
#   From: 2010.03.12/outbox.cif.g09.slc.cpg/sg63_29_cif.got.tgz:56099.got - 2010.04.10 19:34:48.
