data_PCOD8255329
_publ_section_title
;
Structure prediction by ZEFSAII (Michael W. Deem and Ramdas Pophale) SiO2 
 PCOD8255329
Probable space group: C M C M
;
_chemical_formula_sum "Si O2"
_cell_formula_units_Z 76
_cell_length_a 15.001043
_cell_length_b 12.877412
_cell_length_c 21.974792
_cell_angle_alpha 90.000000
_cell_angle_beta 90.000000
_cell_angle_gamma 90.000000
_cell_volume 4244.971899
_symmetry_space_group_name_H-M "C M C M"
_symmetry_group_IT_number 63
_symmetry_cell_setting 'orthorhombic'
loop_
_space_group_symop_operation_xyz
x,y,z
-x,-y,1/2+z
x,-y,-z
-x,y,1/2-z
-x,-y,-z
x,y,1/2-z
-x,y,z
x,-y,1/2+z
1/2+x,1/2+y,z
1/2-x,1/2-y,1/2+z
1/2+x,1/2-y,-z
1/2-x,1/2+y,1/2-z
1/2-x,1/2-y,-z
1/2+x,1/2+y,1/2-z
1/2-x,1/2+y,z
1/2+x,1/2-y,1/2+z
loop_
_atom_site_type_symbol
_atom_site_label
_atom_site_fract_x
_atom_site_fract_y
_atom_site_fract_z
Si Si1 0.651766 0.251367 0.439277
Si Si2 0.000000 0.378538 0.998524
Si Si3 0.597877 0.482230 0.750000
Si Si4 0.171076 0.856507 0.565601
Si Si5 0.500000 0.753935 0.383939
Si Si6 0.103798 0.048857 0.877641
Si Si7 0.500000 0.281457 0.750000
O O1 0.585208 0.163076 0.462439
O O2 0.736828 0.193477 0.409997
O O3 0.670931 0.329827 0.494591
O O4 0.611963 0.327663 0.388186
O O5 0.000000 0.500000 0.000000
O O6 0.000000 0.350246 0.070026
O O7 0.500000 0.535299 0.750000
O O8 0.645684 0.522084 0.811271
O O9 0.587619 0.356379 0.750000
O O10 0.088294 0.812094 0.603472
O O11 0.163336 0.981027 0.574770
O O12 0.500000 0.787409 0.312208
O O13 0.000000 0.015550 0.882954
#
# Coordination Sequence:
#
# PCOD8255329 Si02
#       7
#    16   8   8  16   8  16   4
#     4  10  22  32  54  82 110 146 187 224 284 335
#     4  10  22  38  54  75 117 162 186 226 292 347
#     4   8  16  28  53  83 109 137 175 232 288 313
#     4  10  19  33  51  84 110 140 183 237 274 328
#     4  10  18  33  58  82 110 143 190 235 288 332
#     4  11  18  34  57  80 109 144 185 232 277 330
#     4  10  14  32  56  88 106 140 182 248 282 324
#
# _framework density 17.903532999999999
#
# number of rings (size 3 to 8) (size 9 to 14) (size 15 to 20)
#    0.316    1.684    4.211    0.632    0.000    5.895 
#    0.000    2.105    0.000    1.263    0.000    0.000 
#    0.000    0.000    0.000    0.000    0.000    0.000 
#
# Total GULP energy -470810.052000 kJ/mol
# GULP energy per Si atom -12389.738211 kJ/mol
# Density = 1.786278 g / cm^3
# Si number density = 17.903533 Si / 1000 Ang^3
#
#
#
# Elastic Constant Matrix: (Units=GPa)
#
#
# Indices 1 2 3 4 5 6 
#
# 1 97.4108 45.2129 38.3055 0.0000 0.0000 0.0000
# 2 45.2129 124.7717 45.4272 0.0000 0.0000 0.0000
# 3 38.3055 45.4272 81.0646 0.0000 0.0000 0.0000
# 4 0.0000 0.0000 0.0000 19.1216 0.0000 0.0000
# 5 0.0000 0.0000 0.0000 0.0000 11.1883 0.0000
# 6 0.0000 0.0000 0.0000 0.0000 0.0000 23.6045
#
#
#
# Elastic Compliance Matrix: (Units=1/GPa)
#
#
# Indices 1 2 3 4 5 6 
#
# 1 0.013581 -0.003247 -0.004598 0.000000 0.000000 0.000000
# 2 -0.003247 0.010845 -0.004543 0.000000 0.000000 0.000000
# 3 -0.004598 -0.004543 0.017054 0.000000 0.000000 0.000000
# 4 0.000000 0.000000 0.000000 0.052297 0.000000 0.000000
# 5 0.000000 0.000000 0.000000 0.000000 0.089379 0.000000
# 6 0.000000 0.000000 0.000000 0.000000 0.000000 0.042365
#
#
# Mechanical properties :
#
#
# Convention : Reuss Voigt Hill
#
# Bulk Modulus (GPa) = 59.86441 62.34869 61.10655
# Shear Modulus (GPa) = 19.54151 22.40299 20.97225
#
# Velocity S-wave (km/s) = 3.30735 3.54123 3.42629
# Velocity P-wave (km/s) = 6.93503 7.18476 7.06100
#
# Compressibility (1/GPa) = 0.01670442
#
# Stress axis : x y z
#
# Youngs Moduli (GPa) = 73.63217 92.20463 58.63630
#
# Poissons Ratio (x) = 0.29942 0.26959
# Poissons Ratio (y) = 0.23911 0.26639
# Poissons Ratio (z) = 0.33854 0.41890
#
# Static dielectric constant tensor:
#      x y z
#    x 3.386970 0.000000 0.000000 
#    y 0.000000 3.136430 0.000000 
#    z 0.000000 0.000000 3.301800 
# 
# 
# High freq. dielectric constant tensor:
#      x y z
#    x 1.670440 0.000000 0.000000 
#    y 0.000000 1.675870 0.000000 
#    z 0.000000 0.000000 1.683470 
# 
# From -- ./inp_files/62624.got.cif
#   From: 2010.03.12/outbox.cif.g09.slc.cpg/sg63_32_cif.got.tgz:62624.got - 2010.04.10 19:34:48.
