data_PCOD8255286
_publ_section_title
;
Structure prediction by ZEFSAII (Michael W. Deem and Ramdas Pophale) SiO2 
 PCOD8255286
Probable space group: P N M A
;
_chemical_formula_sum "Si O2"
_cell_formula_units_Z 56
_cell_length_a 28.975552
_cell_length_b 9.433424
_cell_length_c 13.570090
_cell_angle_alpha 90.000000
_cell_angle_beta 90.000000
_cell_angle_gamma 90.000000
_cell_volume 3709.230320
_symmetry_space_group_name_H-M "P N M A"
_symmetry_group_IT_number 62
_symmetry_cell_setting 'orthorhombic'
loop_
_space_group_symop_operation_xyz
x,y,z
1/2-x,-y,1/2+z
1/2+x,1/2-y,1/2-z
-x,1/2+y,-z
-x,-y,-z
1/2+x,y,1/2-z
1/2-x,1/2+y,1/2+z
x,1/2-y,z
loop_
_atom_site_type_symbol
_atom_site_label
_atom_site_fract_x
_atom_site_fract_y
_atom_site_fract_z
Si Si1 0.912534 0.583048 0.374082
Si Si2 0.679711 0.913096 0.187263
Si Si3 0.769333 0.085074 0.885997
Si Si4 0.003127 0.914482 0.600294
Si Si5 0.772217 0.582855 0.079372
Si Si6 0.901057 0.589664 0.601540
Si Si7 0.180705 0.082333 0.725444
O O1 0.923021 0.750000 0.362484
O O2 0.956832 0.492251 0.336200
O O3 0.901288 0.543701 0.487017
O O4 0.869805 0.531612 0.307279
O O5 0.668777 0.750000 0.169265
O O6 0.693422 0.940719 0.300260
O O7 0.721036 0.961004 0.115049
O O8 0.633289 0.996198 0.164708
O O9 0.766312 0.250000 0.914171
O O10 0.719666 0.024961 0.849849
O O11 0.785699 0.998157 0.980538
O O12 0.016038 0.750000 0.581317
O O13 0.952352 0.925111 0.649414
O O14 0.000000 0.000000 0.500000
O O15 0.775481 0.750000 0.060828
O O16 0.808712 0.533008 0.163085
O O17 0.883400 0.750000 0.608718
O O18 0.185101 0.250000 0.721246
#
# Coordination Sequence:
#
# PCOD8255286 Si02
#       7
#     8   8   8   8   8   8   8
#     4   9  16  27  43  62  83 111 141 167 200 245
#     4   9  18  29  42  61  84 110 140 169 202 241
#     4   9  17  30  44  59  83 113 139 168 204 241
#     4   9  17  28  40  58  84 111 137 168 205 245
#     4   9  17  29  43  61  84 110 139 171 202 238
#     4   9  17  27  41  61  84 110 139 167 201 243
#     4   8  15  28  44  60  83 113 140 164 201 249
#
# _framework density 15.097472
#
# number of rings (size 3 to 8) (size 9 to 14) (size 15 to 20)
#    0.000    3.143    0.000    3.857    0.000    5.143 
#    0.000    3.571    0.000    0.000    0.000    1.000 
#    0.000    0.000    0.000    0.000    0.000    0.000 
#
# Total GULP energy -694058.009819 kJ/mol
# GULP energy per Si atom -12393.893032 kJ/mol
# Density = 1.506311 g / cm^3
# Si number density = 15.097472 Si / 1000 Ang^3
#
#
#
# Elastic Constant Matrix: (Units=GPa)
#
#
# Indices 1 2 3 4 5 6 
#
# 1 108.5491 51.2420 39.9884 0.0000 0.0000 0.0000
# 2 51.2420 59.4126 35.3942 0.0000 0.0000 0.0000
# 3 39.9884 35.3942 75.0387 0.0000 0.0000 0.0000
# 4 0.0000 0.0000 0.0000 24.3043 0.0000 0.0000
# 5 0.0000 0.0000 0.0000 0.0000 20.4600 0.0000
# 6 0.0000 0.0000 0.0000 0.0000 0.0000 27.8333
#
#
#
# Elastic Compliance Matrix: (Units=1/GPa)
#
#
# Indices 1 2 3 4 5 6 
#
# 1 0.015950 -0.012090 -0.002797 0.000000 0.000000 0.000000
# 2 -0.012090 0.032574 -0.008921 0.000000 0.000000 0.000000
# 3 -0.002797 -0.008921 0.019025 0.000000 0.000000 0.000000
# 4 0.000000 0.000000 0.000000 0.041145 0.000000 0.000000
# 5 0.000000 0.000000 0.000000 0.000000 0.048876 0.000000
# 6 0.000000 0.000000 0.000000 0.000000 0.000000 0.035928
#
#
# Mechanical properties :
#
#
# Convention : Reuss Voigt Hill
#
# Bulk Modulus (GPa) = 50.17220 55.13886 52.65553
# Shear Modulus (GPa) = 20.18079 22.27791 21.22935
#
# Velocity S-wave (km/s) = 3.66006 3.84553 3.75394
# Velocity P-wave (km/s) = 7.15302 7.50458 7.33090
#
# Compressibility (1/GPa) = 0.01993136
#
# Stress axis : x y z
#
# Youngs Moduli (GPa) = 62.69468 30.69932 52.56193
#
# Poissons Ratio (x) = 0.37117 0.14703
# Poissons Ratio (y) = 0.75800 0.46893
# Poissons Ratio (z) = 0.17537 0.27388
#
# Static dielectric constant tensor:
#      x y z
#    x 3.289900 0.000000 0.000000 
#    y 0.000000 2.832480 0.000000 
#    z 0.000000 0.000000 2.700020 
# 
# 
# High freq. dielectric constant tensor:
#      x y z
#    x 1.577790 0.000000 0.000000 
#    y 0.000000 1.570970 0.000000 
#    z 0.000000 0.000000 1.546140 
# 
# From -- ./inp_files/21185.got.cif
#   From: 2010.03.12/outbox.cif.g09.slc.cpg/sg62_11_cif.got.tgz:21185.got - 2010.04.10 19:12:36.
