data_PCOD8255400
_publ_section_title
;
Structure prediction by ZEFSAII (Michael W. Deem and Ramdas Pophale) SiO2 
 PCOD8255400
Probable space group: C M C M
;
_chemical_formula_sum "Si O2"
_cell_formula_units_Z 88
_cell_length_a 14.171960
_cell_length_b 13.767678
_cell_length_c 23.490399
_cell_angle_alpha 90.000000
_cell_angle_beta 90.000000
_cell_angle_gamma 90.000000
_cell_volume 4583.328776
_symmetry_space_group_name_H-M "C M C M"
_symmetry_group_IT_number 63
_symmetry_cell_setting 'orthorhombic'
loop_
_space_group_symop_operation_xyz
x,y,z
-x,-y,1/2+z
x,-y,-z
-x,y,1/2-z
-x,-y,-z
x,y,1/2-z
-x,y,z
x,-y,1/2+z
1/2+x,1/2+y,z
1/2-x,1/2-y,1/2+z
1/2+x,1/2-y,-z
1/2-x,1/2+y,1/2-z
1/2-x,1/2-y,-z
1/2+x,1/2+y,1/2-z
1/2-x,1/2+y,z
1/2+x,1/2-y,1/2+z
loop_
_atom_site_type_symbol
_atom_site_label
_atom_site_fract_x
_atom_site_fract_y
_atom_site_fract_z
Si Si1 0.389001 0.890472 0.126792
Si Si2 0.892733 0.411112 0.250000
Si Si3 0.767740 0.045501 0.127724
Si Si4 0.771037 0.402168 0.750000
Si Si5 0.241088 0.756008 0.933107
Si Si6 0.108223 0.866482 0.371949
Si Si7 0.605924 0.713288 0.750000
O O1 0.500000 0.906593 0.114491
O O2 0.368405 0.852640 0.191946
O O3 0.348727 0.808610 0.085281
O O4 0.334291 0.993102 0.119871
O O5 0.848548 0.515985 0.250000
O O6 0.000000 0.439069 0.250000
O O7 0.788044 0.085736 0.191632
O O8 0.775150 0.132688 0.083358
O O9 0.849848 0.970456 0.110889
O O10 0.818656 0.297750 0.750000
O O11 0.337184 0.719390 0.904011
O O12 0.250000 0.750000 0.000000
O O13 0.122298 0.854831 0.304365
O O14 0.000000 0.860937 0.390858
O O15 0.500000 0.756952 0.750000
#
# Coordination Sequence:
#
# PCOD8255400 Si02
#       7
#    16   8  16   8  16  16   8
#     4   9  20  37  59  85 115 144 184 238 295 349
#     4   8  15  30  53  85 114 138 174 226 288 355
#     4  10  21  37  59  86 113 150 188 236 293 351
#     4  10  16  30  58  87 113 147 178 225 296 348
#     4  11  24  40  57  82 115 156 206 246 282 335
#     4  10  22  39  59  87 119 153 192 242 294 354
#     4  10  18  32  58  90 119 145 184 233 292 359
#
# _framework density 19.200019000000001
#
# number of rings (size 3 to 8) (size 9 to 14) (size 15 to 20)
#    0.000    2.182    1.818    0.818    0.000    8.727 
#    0.000    1.818    0.000    3.273    0.000    0.000 
#    0.000    0.000    0.000    0.000    0.000    0.000 
#
# Total GULP energy -545463.486428 kJ/mol
# GULP energy per Si atom -12396.897419 kJ/mol
# Density = 1.915632 g / cm^3
# Si number density = 19.200019 Si / 1000 Ang^3
#
#
#
# Elastic Constant Matrix: (Units=GPa)
#
#
# Indices 1 2 3 4 5 6 
#
# 1 98.5425 30.5631 21.2621 0.0000 0.0000 0.0000
# 2 30.5631 89.3192 34.7358 0.0000 0.0000 0.0000
# 3 21.2621 34.7358 119.5502 0.0000 0.0000 0.0000
# 4 0.0000 0.0000 0.0000 21.4701 0.0000 0.0000
# 5 0.0000 0.0000 0.0000 0.0000 19.4737 0.0000
# 6 0.0000 0.0000 0.0000 0.0000 0.0000 5.0645
#
#
#
# Elastic Compliance Matrix: (Units=1/GPa)
#
#
# Indices 1 2 3 4 5 6 
#
# 1 0.011461 -0.003527 -0.001013 0.000000 0.000000 0.000000
# 2 -0.003527 0.013708 -0.003355 0.000000 0.000000 0.000000
# 3 -0.001013 -0.003355 0.009520 0.000000 0.000000 0.000000
# 4 0.000000 0.000000 0.000000 0.046576 0.000000 0.000000
# 5 0.000000 0.000000 0.000000 0.000000 0.051351 0.000000
# 6 0.000000 0.000000 0.000000 0.000000 0.000000 0.197454
#
#
# Mechanical properties :
#
#
# Convention : Reuss Voigt Hill
#
# Bulk Modulus (GPa) = 52.92240 53.39266 53.15753
# Shear Modulus (GPa) = 14.19806 23.92505 19.06156
#
# Velocity S-wave (km/s) = 2.72229 3.53384 3.15427
# Velocity P-wave (km/s) = 6.12411 6.67231 6.40408
#
# Compressibility (1/GPa) = 0.01889559
#
# Stress axis : x y z
#
# Youngs Moduli (GPa) = 87.25541 72.95138 105.04360
#
# Poissons Ratio (x) = 0.25734 0.10645
# Poissons Ratio (y) = 0.30779 0.35247
# Poissons Ratio (z) = 0.08842 0.24479
#
# Static dielectric constant tensor:
#      x y z
#    x 3.909600 0.000000 0.000000 
#    y 0.000000 3.337880 0.000000 
#    z 0.000000 0.000000 3.531440 
# 
# 
# High freq. dielectric constant tensor:
#      x y z
#    x 1.741930 0.000000 0.000000 
#    y 0.000000 1.741360 0.000000 
#    z 0.000000 0.000000 1.742270 
# 
# From -- ./inp_files/62720.got.cif
#   From: 2010.03.12/outbox.cif.g09.slc.cpg/sg63_32_cif.got.tgz:62720.got - 2010.04.10 19:34:48.
