data_PCOD8255752
_publ_section_title
;
Structure prediction by ZEFSAII (Michael W. Deem and Ramdas Pophale) SiO2 
 PCOD8255752
Probable space group: C M C M
;
_chemical_formula_sum "Si O2"
_cell_formula_units_Z 96
_cell_length_a 13.686520
_cell_length_b 27.000277
_cell_length_c 16.470988
_cell_angle_alpha 90.000000
_cell_angle_beta 90.000000
_cell_angle_gamma 90.000000
_cell_volume 6086.686125
_symmetry_space_group_name_H-M "C M C M"
_symmetry_group_IT_number 63
_symmetry_cell_setting 'orthorhombic'
loop_
_space_group_symop_operation_xyz
x,y,z
-x,-y,1/2+z
x,-y,-z
-x,y,1/2-z
-x,-y,-z
x,y,1/2-z
-x,y,z
x,-y,1/2+z
1/2+x,1/2+y,z
1/2-x,1/2-y,1/2+z
1/2+x,1/2-y,-z
1/2-x,1/2+y,1/2-z
1/2-x,1/2-y,-z
1/2+x,1/2+y,1/2-z
1/2-x,1/2+y,z
1/2+x,1/2-y,1/2+z
loop_
_atom_site_type_symbol
_atom_site_label
_atom_site_fract_x
_atom_site_fract_y
_atom_site_fract_z
Si Si1 0.697371 0.570706 0.840472
Si Si2 0.889070 0.838926 0.420677
Si Si3 0.616166 0.485982 0.750000
Si Si4 0.710185 0.211148 0.655076
Si Si5 0.384365 0.625161 0.250000
Si Si6 0.886464 0.808663 0.898346
Si Si7 0.606002 0.110840 0.845240
O O1 0.697833 0.596140 0.750000
O O2 0.628461 0.603515 0.897807
O O3 0.656336 0.514642 0.830974
O O4 0.809732 0.571904 0.873644
O O5 0.820867 0.802021 0.369629
O O6 0.867801 0.834510 0.515973
O O7 0.000000 0.824257 0.400133
O O8 0.500000 0.487944 0.750000
O O9 0.658681 0.430621 0.750000
O O10 0.704243 0.223425 0.750000
O O11 0.675277 0.258505 0.604842
O O12 0.640113 0.165862 0.630167
O O13 0.500000 0.620755 0.250000
O O14 0.347508 0.653541 0.170102
O O15 0.000000 0.795926 0.883365
O O16 0.591752 0.107149 0.750000
O O17 0.500000 0.099504 0.886554
#
# Coordination Sequence:
#
# PCOD8255752 Si02
#       7
#    16  16   8  16   8  16  16
#     4   8  16  27  43  65  88 118 144 179 231 271
#     4  10  19  29  43  67  95 121 149 183 221 270
#     4   9  16  28  46  63  85 117 150 182 222 275
#     4  10  18  28  44  66  91 122 149 177 216 268
#     4   9  18  32  47  63  83 117 155 184 223 273
#     4  10  19  31  46  64  91 121 151 187 226 265
#     4   8  13  22  38  63  90 108 133 173 215 261
#
# _framework density 15.772129
#
# number of rings (size 3 to 8) (size 9 to 14) (size 15 to 20)
#    0.500    2.333    0.833    3.000    0.000    1.667 
#    0.000    0.833    0.000    4.000    0.000    2.333 
#    0.000    5.333    0.000    0.000    0.000    0.000 
#
# Total GULP energy -594814.260311 kJ/mol
# GULP energy per Si atom -12391.963756 kJ/mol
# Density = 1.573623 g / cm^3
# Si number density = 15.772129 Si / 1000 Ang^3
#
#
#
# Elastic Constant Matrix: (Units=GPa)
#
#
# Indices 1 2 3 4 5 6 
#
# 1 88.8810 26.5529 12.6374 0.0000 0.0000 0.0000
# 2 26.5529 75.9852 3.0127 0.0000 0.0000 0.0000
# 3 12.6374 3.0127 33.2337 0.0000 0.0000 0.0000
# 4 0.0000 0.0000 0.0000 12.1581 0.0000 0.0000
# 5 0.0000 0.0000 0.0000 0.0000 16.0310 0.0000
# 6 0.0000 0.0000 0.0000 0.0000 0.0000 17.0603
#
#
#
# Elastic Compliance Matrix: (Units=1/GPa)
#
#
# Indices 1 2 3 4 5 6 
#
# 1 0.013236 -0.004442 -0.004631 0.000000 0.000000 0.000000
# 2 -0.004442 0.014699 0.000357 0.000000 0.000000 0.000000
# 3 -0.004631 0.000357 0.031818 0.000000 0.000000 0.000000
# 4 0.000000 0.000000 0.000000 0.082250 0.000000 0.000000
# 5 0.000000 0.000000 0.000000 0.000000 0.062379 0.000000
# 6 0.000000 0.000000 0.000000 0.000000 0.000000 0.058616
#
#
# Mechanical properties :
#
#
# Convention : Reuss Voigt Hill
#
# Bulk Modulus (GPa) = 23.62854 31.38955 27.50905
# Shear Modulus (GPa) = 16.97583 19.44301 18.20942
#
# Velocity S-wave (km/s) = 3.28429 3.51486 3.40153
# Velocity P-wave (km/s) = 5.42179 6.03468 5.73643
#
# Compressibility (1/GPa) = 0.04232169
#
# Stress axis : x y z
#
# Youngs Moduli (GPa) = 75.54937 68.03413 31.42826
#
# Poissons Ratio (x) = 0.30220 0.14553
# Poissons Ratio (y) = 0.33558 -0.01121
# Poissons Ratio (z) = 0.34984 -0.02426
#
# Static dielectric constant tensor:
#      x y z
#    x 3.153350 0.000000 0.000000 
#    y 0.000000 2.884990 0.000000 
#    z 0.000000 0.000000 2.800480 
# 
# 
# High freq. dielectric constant tensor:
#      x y z
#    x 1.603820 0.000000 0.000000 
#    y 0.000000 1.587440 0.000000 
#    z 0.000000 0.000000 1.579440 
# 
# From -- ./inp_files/32710.got.cif
#   From: 2010.03.12/outbox.cif.g09.slc.cpg/sg63_17_cif.got.tgz:32710.got - 2010.04.10 19:34:48.
