data_PCOD8255860
_publ_section_title
;
Structure prediction by ZEFSAII (Michael W. Deem and Ramdas Pophale) SiO2 
 PCOD8255860
Probable space group: C M C M
;
_chemical_formula_sum "Si O2"
_cell_formula_units_Z 128
_cell_length_a 20.455116
_cell_length_b 21.753102
_cell_length_c 18.226014
_cell_angle_alpha 90.000000
_cell_angle_beta 90.000000
_cell_angle_gamma 90.000000
_cell_volume 8109.887738
_symmetry_space_group_name_H-M "C M C M"
_symmetry_group_IT_number 63
_symmetry_cell_setting 'orthorhombic'
loop_
_space_group_symop_operation_xyz
x,y,z
-x,-y,1/2+z
x,-y,-z
-x,y,1/2-z
-x,-y,-z
x,y,1/2-z
-x,y,z
x,-y,1/2+z
1/2+x,1/2+y,z
1/2-x,1/2-y,1/2+z
1/2+x,1/2-y,-z
1/2-x,1/2+y,1/2-z
1/2-x,1/2-y,-z
1/2+x,1/2+y,1/2-z
1/2-x,1/2+y,z
1/2+x,1/2-y,1/2+z
loop_
_atom_site_type_symbol
_atom_site_label
_atom_site_fract_x
_atom_site_fract_y
_atom_site_fract_z
Si Si1 0.367154 0.710905 0.669380
Si Si2 0.843537 0.870968 0.929081
Si Si3 0.173639 0.928205 0.166602
Si Si4 0.424867 0.535303 0.165041
Si Si5 0.671714 0.816179 0.471865
Si Si6 0.741189 0.936665 0.031223
Si Si7 0.749219 0.272790 0.611153
Si Si8 0.074458 0.771528 0.017932
O O1 0.400343 0.715590 0.750000
O O2 0.346456 0.641479 0.652086
O O3 0.302929 0.755302 0.672227
O O4 0.417923 0.730437 0.606375
O O5 0.894050 0.909728 0.881708
O O6 0.795988 0.832769 0.873159
O O7 0.801280 0.915190 0.980685
O O8 0.881257 0.824616 0.982746
O O9 0.197444 0.938537 0.250000
O O10 0.233566 0.946355 0.114019
O O11 0.111434 0.971250 0.148842
O O12 0.419329 0.553811 0.250000
O O13 0.500000 0.526588 0.141148
O O14 0.680158 0.889508 0.469978
O O15 0.702448 0.786917 0.398050
O O16 0.711020 0.785297 0.537654
O O17 0.596613 0.794489 0.483386
O O18 0.712699 0.000000 0.000000
O O19 0.000000 0.783162 0.996754
#
# Coordination Sequence:
#
# PCOD8255860 Si02
#       8
#    16  16  16  16  16  16  16  16
#     4  10  18  29  45  66  92 122 153 186 228 278
#     4  10  18  30  48  70  86 114 159 191 222 266
#     4  10  19  31  44  63  93 125 153 185 227 269
#     4  10  21  34  43  57  91 131 156 182 220 261
#     4   8  15  28  44  64  87 110 142 186 233 271
#     4  11  17  29  50  71  88 115 151 192 234 266
#     4   8  14  27  45  62  87 110 139 187 235 265
#     4  10  19  31  47  66  92 125 155 188 228 269
#
# _framework density 15.783203
#
# number of rings (size 3 to 8) (size 9 to 14) (size 15 to 20)
#    0.000    2.375    3.750    1.875    0.000    1.250 
#    0.000    1.875    0.000    0.375    0.000    0.000 
#    0.000    0.000    0.000    0.000    0.000    0.000 
#
# Total GULP energy -793117.807169 kJ/mol
# GULP energy per Si atom -12392.465737 kJ/mol
# Density = 1.574728 g / cm^3
# Si number density = 15.783203 Si / 1000 Ang^3
#
#
#
# Elastic Constant Matrix: (Units=GPa)
#
#
# Indices 1 2 3 4 5 6 
#
# 1 41.8962 29.6175 13.6193 0.0000 0.0000 0.0000
# 2 29.6175 87.1547 24.2736 0.0000 0.0000 0.0000
# 3 13.6193 24.2736 47.1558 0.0000 0.0000 0.0000
# 4 0.0000 0.0000 0.0000 18.8579 0.0000 0.0000
# 5 0.0000 0.0000 0.0000 0.0000 14.7864 0.0000
# 6 0.0000 0.0000 0.0000 0.0000 0.0000 20.4546
#
#
#
# Elastic Compliance Matrix: (Units=1/GPa)
#
#
# Indices 1 2 3 4 5 6 
#
# 1 0.032136 -0.009731 -0.004272 0.000000 0.000000 0.000000
# 2 -0.009731 0.016341 -0.005601 0.000000 0.000000 0.000000
# 3 -0.004272 -0.005601 0.025323 0.000000 0.000000 0.000000
# 4 0.000000 0.000000 0.000000 0.053028 0.000000 0.000000
# 5 0.000000 0.000000 0.000000 0.000000 0.067630 0.000000
# 6 0.000000 0.000000 0.000000 0.000000 0.000000 0.048889
#
#
# Mechanical properties :
#
#
# Convention : Reuss Voigt Hill
#
# Bulk Modulus (GPa) = 28.90861 34.58082 31.74472
# Shear Modulus (GPa) = 17.00182 18.06619 17.53401
#
# Velocity S-wave (km/s) = 3.28565 3.38693 3.33667
# Velocity P-wave (km/s) = 5.72274 6.10349 5.91618
#
# Compressibility (1/GPa) = 0.03459177
#
# Stress axis : x y z
#
# Youngs Moduli (GPa) = 31.11738 61.19733 39.48919
#
# Poissons Ratio (x) = 0.59550 0.16872
# Poissons Ratio (y) = 0.30280 0.22118
# Poissons Ratio (z) = 0.13295 0.34276
#
# Static dielectric constant tensor:
#      x y z
#    x 2.919910 0.000000 0.000000 
#    y 0.000000 3.101270 0.000000 
#    z 0.000000 0.000000 2.958380 
# 
# 
# High freq. dielectric constant tensor:
#      x y z
#    x 1.574910 0.000000 0.000000 
#    y 0.000000 1.602610 0.000000 
#    z 0.000000 0.000000 1.597190 
# 
# From -- ./inp_files/47536.got.cif
#   From: 2010.03.12/outbox.cif.g09.slc.cpg/sg63_24_cif.got.tgz:47536.got - 2010.04.10 19:34:48.
