data_PCOD8255116
_publ_section_title
;
Structure prediction by ZEFSAII (Michael W. Deem and Ramdas Pophale) SiO2 
 PCOD8255116
Probable space group: P N M A
;
_chemical_formula_sum "Si O2"
_cell_formula_units_Z 48
_cell_length_a 16.092531
_cell_length_b 10.828218
_cell_length_c 12.826535
_cell_angle_alpha 90.000000
_cell_angle_beta 90.000000
_cell_angle_gamma 90.000000
_cell_volume 2235.067768
_symmetry_space_group_name_H-M "P N M A"
_symmetry_group_IT_number 62
_symmetry_cell_setting 'orthorhombic'
loop_
_space_group_symop_operation_xyz
x,y,z
1/2-x,-y,1/2+z
1/2+x,1/2-y,1/2-z
-x,1/2+y,-z
-x,-y,-z
1/2+x,y,1/2-z
1/2-x,1/2+y,1/2+z
x,1/2-y,z
loop_
_atom_site_type_symbol
_atom_site_label
_atom_site_fract_x
_atom_site_fract_y
_atom_site_fract_z
Si Si1 0.384810 0.750000 0.159637
Si Si2 0.541864 0.250000 0.623433
Si Si3 0.298843 0.250000 0.698410
Si Si4 0.254025 0.110991 0.109532
Si Si5 0.597843 0.477688 0.989997
Si Si6 0.381285 0.250000 0.498136
Si Si7 0.701015 0.990450 0.189841
Si Si8 0.143944 0.018012 0.943145
O O1 0.453779 0.750000 0.251204
O O2 0.299116 0.750000 0.222614
O O3 0.392979 0.863721 0.084489
O O4 0.446523 0.250000 0.592609
O O5 0.574280 0.378313 0.572860
O O6 0.299323 0.250000 0.570941
O O7 0.338886 0.372549 0.750839
O O8 0.235826 0.250000 0.076647
O O9 0.236561 0.095064 0.232335
O O10 0.183847 0.024009 0.058154
O O11 0.348311 0.082812 0.070012
O O12 0.634914 0.454934 0.106484
O O13 0.500000 0.500000 0.000000
O O14 0.387624 0.375056 0.427542
O O15 0.783226 0.942755 0.133659
#
# Coordination Sequence:
#
# PCOD8255116 Si02
#       8
#     4   4   4   8   8   4   8   8
#     4  12  24  48  69  93 135 180 230 276 347 430
#     4  12  24  44  72  95 140 181 222 284 351 412
#     4  12  20  44  68  95 121 190 232 259 329 426
#     4  11  23  41  68  97 132 182 229 271 338 421
#     4  11  27  42  68 105 138 170 228 297 347 401
#     4  12  26  38  67 103 138 167 228 289 339 392
#     4  11  23  41  70  93 133 183 226 277 340 407
#     4  11  22  44  66 100 133 179 230 276 329 415
#
# _framework density 21.475857999999999
#
# number of rings (size 3 to 8) (size 9 to 14) (size 15 to 20)
#    0.000    0.667    5.833    1.500    9.333    0.000 
#    0.000    0.000    0.000    0.000    0.000    0.000 
#    0.000    0.000    0.000    0.000    0.000    0.000 
#
# Total GULP energy -594755.105754 kJ/mol
# GULP energy per Si atom -12390.731370 kJ/mol
# Density = 2.142698 g / cm^3
# Si number density = 21.475858 Si / 1000 Ang^3
#
#
#
# Elastic Constant Matrix: (Units=GPa)
#
#
# Indices 1 2 3 4 5 6 
#
# 1 78.6502 22.3618 30.1244 0.0000 0.0000 0.0000
# 2 22.3618 154.5515 33.4885 0.0000 0.0000 0.0000
# 3 30.1244 33.4885 109.2232 0.0000 0.0000 0.0000
# 4 0.0000 0.0000 0.0000 40.6676 0.0000 0.0000
# 5 0.0000 0.0000 0.0000 0.0000 30.0918 0.0000
# 6 0.0000 0.0000 0.0000 0.0000 0.0000 9.0741
#
#
#
# Elastic Compliance Matrix: (Units=1/GPa)
#
#
# Indices 1 2 3 4 5 6 
#
# 1 0.014462 -0.001316 -0.003585 0.000000 0.000000 0.000000
# 2 -0.001316 0.007050 -0.001799 0.000000 0.000000 0.000000
# 3 -0.003585 -0.001799 0.010696 0.000000 0.000000 0.000000
# 4 0.000000 0.000000 0.000000 0.024590 0.000000 0.000000
# 5 0.000000 0.000000 0.000000 0.000000 0.033232 0.000000
# 6 0.000000 0.000000 0.000000 0.000000 0.000000 0.110204
#
#
# Mechanical properties :
#
#
# Convention : Reuss Voigt Hill
#
# Bulk Modulus (GPa) = 53.16677 57.15270 55.15974
# Shear Modulus (GPa) = 22.73736 33.06339 27.90038
#
# Velocity S-wave (km/s) = 3.25736 3.92798 3.60828
# Velocity P-wave (km/s) = 6.24159 6.87331 6.56505
#
# Compressibility (1/GPa) = 0.01880874
#
# Stress axis : x y z
#
# Youngs Moduli (GPa) = 69.14767 141.83458 93.49336
#
# Poissons Ratio (x) = 0.18660 0.33520
# Poissons Ratio (y) = 0.09097 0.16818
# Poissons Ratio (z) = 0.24791 0.25514
#
# Static dielectric constant tensor:
#      x y z
#    x 5.232670 0.000000 0.000000 
#    y 0.000000 3.579150 0.000000 
#    z 0.000000 0.000000 4.411440 
# 
# 
# High freq. dielectric constant tensor:
#      x y z
#    x 1.828190 0.000000 0.000000 
#    y 0.000000 1.849150 0.000000 
#    z 0.000000 0.000000 1.851620 
# 
# From -- ./inp_files/14166.got.cif
#   From: 2010.03.12/outbox.cif.g09.slc.cpg/sg62_8_cif.got.tgz:14166.got - 2010.04.10 19:12:36.
