data_PCOD8255960
_publ_section_title
;
Structure prediction by ZEFSAII (Michael W. Deem and Ramdas Pophale) SiO2 
 PCOD8255960
Probable space group: C M C M
;
_chemical_formula_sum "Si O2"
_cell_formula_units_Z 80
_cell_length_a 19.201875
_cell_length_b 33.094711
_cell_length_c 8.944534
_cell_angle_alpha 90.000000
_cell_angle_beta 90.000000
_cell_angle_gamma 90.000000
_cell_volume 5684.076972
_symmetry_space_group_name_H-M "C M C M"
_symmetry_group_IT_number 63
_symmetry_cell_setting 'orthorhombic'
loop_
_space_group_symop_operation_xyz
x,y,z
-x,-y,1/2+z
x,-y,-z
-x,y,1/2-z
-x,-y,-z
x,y,1/2-z
-x,y,z
x,-y,1/2+z
1/2+x,1/2+y,z
1/2-x,1/2-y,1/2+z
1/2+x,1/2-y,-z
1/2-x,1/2+y,1/2-z
1/2-x,1/2-y,-z
1/2+x,1/2+y,1/2-z
1/2-x,1/2+y,z
1/2+x,1/2-y,1/2+z
loop_
_atom_site_type_symbol
_atom_site_label
_atom_site_fract_x
_atom_site_fract_y
_atom_site_fract_z
Si Si1 0.219365 0.187745 0.424748
Si Si2 0.000000 0.833536 0.925595
Si Si3 0.368365 0.625573 0.573804
Si Si4 0.000000 0.248919 0.919727
Si Si5 0.079123 0.040310 0.924685
Si Si6 0.848506 0.262132 0.578688
O O1 0.207672 0.180594 0.250000
O O2 0.202238 0.145949 0.510725
O O3 0.167788 0.223399 0.476945
O O4 0.299006 0.200113 0.463900
O O5 0.000000 0.841122 0.750000
O O6 0.067639 0.852724 0.996942
O O7 0.000000 0.786323 0.959860
O O8 0.373564 0.632192 0.750000
O O9 0.371385 0.578034 0.532789
O O10 0.070586 0.275199 0.944205
O O11 0.000000 0.231329 0.750000
O O12 0.079008 0.032763 0.750000
O O13 0.000000 0.048967 0.980730
O O14 0.109806 0.000000 0.000000
O O15 0.833502 0.249475 0.750000
#
# Coordination Sequence:
#
# PCOD8255960 Si02
#       6
#    16   8  16   8  16  16
#     4  10  19  29  41  61  83 105 138 176 208 241
#     4  12  22  28  39  63  82 102 141 183 209 238
#     4  11  20  32  45  58  81 112 139 169 210 253
#     4  10  18  30  46  59  77 110 141 171 215 254
#     4   9  18  31  44  59  79 104 135 169 205 243
#     4   9  18  30  43  58  81 109 137 172 213 250
#
# _framework density 14.074403999999999
#
# number of rings (size 3 to 8) (size 9 to 14) (size 15 to 20)
#    0.000    2.000    3.000    2.100    0.000    2.400 
#    0.000    0.000    0.000    0.000    0.000    0.000 
#    0.000    0.000    0.000    0.900    0.000    9.400 
#
# Total GULP energy -495837.287653 kJ/mol
# GULP energy per Si atom -12395.932191 kJ/mol
# Density = 1.404237 g / cm^3
# Si number density = 14.074404 Si / 1000 Ang^3
#
#
#
# Elastic Constant Matrix: (Units=GPa)
#
#
# Indices 1 2 3 4 5 6 
#
# 1 96.7677 50.7218 30.8507 0.0000 0.0000 0.0000
# 2 50.7218 99.9803 43.2482 0.0000 0.0000 0.0000
# 3 30.8507 43.2482 64.0251 0.0000 0.0000 0.0000
# 4 0.0000 0.0000 0.0000 22.6028 0.0000 0.0000
# 5 0.0000 0.0000 0.0000 0.0000 14.4523 0.0000
# 6 0.0000 0.0000 0.0000 0.0000 0.0000 27.8006
#
#
#
# Elastic Compliance Matrix: (Units=1/GPa)
#
#
# Indices 1 2 3 4 5 6 
#
# 1 0.014433 -0.006095 -0.002838 0.000000 0.000000 0.000000
# 2 -0.006095 0.016705 -0.008347 0.000000 0.000000 0.000000
# 3 -0.002838 -0.008347 0.022625 0.000000 0.000000 0.000000
# 4 0.000000 0.000000 0.000000 0.044242 0.000000 0.000000
# 5 0.000000 0.000000 0.000000 0.000000 0.069193 0.000000
# 6 0.000000 0.000000 0.000000 0.000000 0.000000 0.035970
#
#
# Mechanical properties :
#
#
# Convention : Reuss Voigt Hill
#
# Bulk Modulus (GPa) = 52.07405 56.71271 54.39338
# Shear Modulus (GPa) = 20.48101 22.03464 21.25783
#
# Velocity S-wave (km/s) = 3.81884 3.96104 3.89059
# Velocity P-wave (km/s) = 7.51826 7.82957 7.67549
#
# Compressibility (1/GPa) = 0.01920342
#
# Stress axis : x y z
#
# Youngs Moduli (GPa) = 69.28378 59.86387 44.19975
#
# Poissons Ratio (x) = 0.36486 0.12543
# Poissons Ratio (y) = 0.42227 0.36893
# Poissons Ratio (z) = 0.19662 0.49968
#
# Static dielectric constant tensor:
#      x y z
#    x 10.156440 0.000000 0.000000 
#    y 0.000000 2.721930 0.000000 
#    z 0.000000 0.000000 2.856930 
# 
# 
# High freq. dielectric constant tensor:
#      x y z
#    x 1.515200 0.000000 0.000000 
#    y 0.000000 1.506820 0.000000 
#    z 0.000000 0.000000 1.549590 
# 
# From -- ./inp_files/8939.got.cif
#   From: 2010.03.12/outbox.cif.g09.slc.cpg/sg63_5_cif.got.tgz:8939.got - 2010.04.10 19:34:48.
