data_PCOD8255620
_publ_section_title
;
Structure prediction by ZEFSAII (Michael W. Deem and Ramdas Pophale) SiO2 
 PCOD8255620
Probable space group: C M C M
;
_chemical_formula_sum "Si O2"
_cell_formula_units_Z 72
_cell_length_a 22.270478
_cell_length_b 24.515280
_cell_length_c 9.294217
_cell_angle_alpha 90.000000
_cell_angle_beta 90.000000
_cell_angle_gamma 90.000000
_cell_volume 5074.335809
_symmetry_space_group_name_H-M "C M C M"
_symmetry_group_IT_number 63
_symmetry_cell_setting 'orthorhombic'
loop_
_space_group_symop_operation_xyz
x,y,z
-x,-y,1/2+z
x,-y,-z
-x,y,1/2-z
-x,-y,-z
x,y,1/2-z
-x,y,z
x,-y,1/2+z
1/2+x,1/2+y,z
1/2-x,1/2-y,1/2+z
1/2+x,1/2-y,-z
1/2-x,1/2+y,1/2-z
1/2-x,1/2-y,-z
1/2+x,1/2+y,1/2-z
1/2-x,1/2+y,z
1/2+x,1/2-y,1/2+z
loop_
_atom_site_type_symbol
_atom_site_label
_atom_site_fract_x
_atom_site_fract_y
_atom_site_fract_z
Si Si1 0.567708 0.747617 0.915301
Si Si2 0.172209 0.205555 0.088517
Si Si3 0.776853 0.672748 0.909445
Si Si4 0.000000 0.444162 0.416454
Si Si5 0.404465 0.144377 0.918069
O O1 0.588875 0.752892 0.750000
O O2 0.500000 0.724856 0.925204
O O3 0.610954 0.704685 0.996445
O O4 0.569575 0.806908 0.987018
O O5 0.158738 0.185412 0.250000
O O6 0.198177 0.266079 0.086894
O O7 0.221704 0.164929 0.019171
O O8 0.753085 0.658684 0.750000
O O9 0.833568 0.634353 0.951170
O O10 0.000000 0.500000 0.500000
O O11 0.059505 0.410132 0.457962
O O12 0.000000 0.458836 0.250000
O O13 0.413469 0.160125 0.750000
#
# Coordination Sequence:
#
# PCOD8255620 Si02
#       5
#    16  16  16   8  16
#     4  10  18  25  36  54  74  96 124 156 186 218
#     4   9  16  24  35  51  71  95 118 146 182 218
#     4   8  14  24  37  52  68  88 116 150 185 218
#     4  10  20  32  44  58  76  96 124 160 200 240
#     4   9  17  29  43  54  68  93 122 154 192 232
#
# _framework density 14.189049000000001
#
# number of rings (size 3 to 8) (size 9 to 14) (size 15 to 20)
#    0.000    2.889    1.111    2.667    0.000    7.556 
#    0.000    0.000    0.000    0.000    0.000    0.000 
#    0.000    0.000    0.000    0.000    0.000    1.111 
#
# Total GULP energy -446206.934822 kJ/mol
# GULP energy per Si atom -12394.637078 kJ/mol
# Density = 1.415675 g / cm^3
# Si number density = 14.189049 Si / 1000 Ang^3
#
#
#
# Elastic Constant Matrix: (Units=GPa)
#
#
# Indices 1 2 3 4 5 6 
#
# 1 115.5008 39.8797 66.3066 0.0000 0.0000 0.0000
# 2 39.8797 34.0226 23.8786 0.0000 0.0000 0.0000
# 3 66.3066 23.8786 100.5714 0.0000 0.0000 0.0000
# 4 0.0000 0.0000 0.0000 14.1148 0.0000 0.0000
# 5 0.0000 0.0000 0.0000 0.0000 25.7015 0.0000
# 6 0.0000 0.0000 0.0000 0.0000 0.0000 11.8621
#
#
#
# Elastic Compliance Matrix: (Units=1/GPa)
#
#
# Indices 1 2 3 4 5 6 
#
# 1 0.019517 -0.016614 -0.008923 0.000000 0.000000 0.000000
# 2 -0.016614 0.049413 -0.000778 0.000000 0.000000 0.000000
# 3 -0.008923 -0.000778 0.016011 0.000000 0.000000 0.000000
# 4 0.000000 0.000000 0.000000 0.070847 0.000000 0.000000
# 5 0.000000 0.000000 0.000000 0.000000 0.038908 0.000000
# 6 0.000000 0.000000 0.000000 0.000000 0.000000 0.084302
#
#
# Mechanical properties :
#
#
# Convention : Reuss Voigt Hill
#
# Bulk Modulus (GPa) = 30.95023 56.69161 43.82092
# Shear Modulus (GPa) = 14.60283 18.33767 16.47025
#
# Velocity S-wave (km/s) = 3.21154 3.59887 3.41071
# Velocity P-wave (km/s) = 5.96758 7.57036 6.81625
#
# Compressibility (1/GPa) = 0.03230994
#
# Stress axis : x y z
#
# Youngs Moduli (GPa) = 51.23779 20.23751 62.45828
#
# Poissons Ratio (x) = 0.33623 0.55729
# Poissons Ratio (y) = 0.85129 0.04861
# Poissons Ratio (z) = 0.45718 0.01575
#
# Static dielectric constant tensor:
#      x y z
#    x 3.115770 0.000000 0.000000 
#    y 0.000000 2.209160 0.000000 
#    z 0.000000 0.000000 2.960560 
# 
# 
# High freq. dielectric constant tensor:
#      x y z
#    x 1.554130 0.000000 0.000000 
#    y 0.000000 1.455130 0.000000 
#    z 0.000000 0.000000 1.556000 
# 
# From -- ./inp_files/8391.got.cif
#   From: 2010.03.12/outbox.cif.g09.slc.cpg/sg63_5_cif.got.tgz:8391.got - 2010.04.10 19:34:48.
