data_PCOD8255985
_publ_section_title
;
Structure prediction by ZEFSAII (Michael W. Deem and Ramdas Pophale) SiO2 
 PCOD8255985
Probable space group: C M C M
;
_chemical_formula_sum "Si O2"
_cell_formula_units_Z 112
_cell_length_a 13.793337
_cell_length_b 22.537145
_cell_length_c 22.330115
_cell_angle_alpha 90.000000
_cell_angle_beta 90.000000
_cell_angle_gamma 90.000000
_cell_volume 6941.593945
_symmetry_space_group_name_H-M "C M C M"
_symmetry_group_IT_number 63
_symmetry_cell_setting 'orthorhombic'
loop_
_space_group_symop_operation_xyz
x,y,z
-x,-y,1/2+z
x,-y,-z
-x,y,1/2-z
-x,-y,-z
x,y,1/2-z
-x,y,z
x,-y,1/2+z
1/2+x,1/2+y,z
1/2-x,1/2-y,1/2+z
1/2+x,1/2-y,-z
1/2-x,1/2+y,1/2-z
1/2-x,1/2-y,-z
1/2+x,1/2+y,1/2-z
1/2-x,1/2+y,z
1/2+x,1/2-y,1/2+z
loop_
_atom_site_type_symbol
_atom_site_label
_atom_site_fract_x
_atom_site_fract_y
_atom_site_fract_z
Si Si1 0.385919 0.549604 0.319330
Si Si2 0.258416 0.036943 0.876866
Si Si3 0.264477 0.127152 0.514744
Si Si4 0.106905 0.624359 0.683205
Si Si5 0.893813 0.544731 0.054347
Si Si6 0.887808 0.852382 0.584345
Si Si7 0.611065 0.216619 0.917197
O O1 0.353040 0.559469 0.250000
O O2 0.500000 0.538804 0.322334
O O3 0.338406 0.490269 0.347701
O O4 0.355558 0.606994 0.359195
O O5 0.237841 0.080041 0.933162
O O6 0.314378 0.073578 0.826502
O O7 0.325597 0.981741 0.894637
O O8 0.348415 0.104799 0.470712
O O9 0.166428 0.133146 0.477386
O O10 0.308210 0.189674 0.537807
O O11 0.114925 0.647964 0.750000
O O12 0.125263 0.681894 0.644049
O O13 0.000000 0.597550 0.669109
O O14 0.000000 0.558546 0.081458
O O15 0.904342 0.500000 0.000000
O O16 0.865052 0.784166 0.599347
O O17 0.000000 0.863316 0.570388
O O18 0.500000 0.209836 0.941797
#
# Coordination Sequence:
#
# PCOD8255985 Si02
#       7
#    16  16  16  16  16  16  16
#     4  10  21  35  49  66  92 127 164 199 233 272
#     4  10  18  30  47  69  97 124 153 189 235 279
#     4  10  18  30  48  71  96 124 151 189 238 282
#     4   9  17  29  47  71  96 121 151 192 238 279
#     4   9  16  26  43  68  96 123 149 176 221 284
#     4  10  20  33  48  68  93 124 161 197 233 274
#     4   9  18  31  48  70  96 123 154 194 236 283
#
# _framework density 16.134623000000001
#
# number of rings (size 3 to 8) (size 9 to 14) (size 15 to 20)
#    0.000    2.429    1.429    1.714    0.000    4.571 
#    0.000    4.286    0.000    0.000    0.000    0.000 
#    0.000    0.000    0.000    0.000    0.000    0.000 
#
# Total GULP energy -694062.006732 kJ/mol
# GULP energy per Si atom -12393.964406 kJ/mol
# Density = 1.609790 g / cm^3
# Si number density = 16.134623 Si / 1000 Ang^3
#
#
#
# Elastic Constant Matrix: (Units=GPa)
#
#
# Indices 1 2 3 4 5 6 
#
# 1 70.5519 44.5904 44.6536 0.0000 0.0000 0.0000
# 2 44.5904 97.3455 40.8903 0.0000 0.0000 0.0000
# 3 44.6536 40.8903 88.3707 0.0000 0.0000 0.0000
# 4 0.0000 0.0000 0.0000 15.1338 0.0000 0.0000
# 5 0.0000 0.0000 0.0000 0.0000 26.4897 0.0000
# 6 0.0000 0.0000 0.0000 0.0000 0.0000 31.2533
#
#
#
# Elastic Compliance Matrix: (Units=1/GPa)
#
#
# Indices 1 2 3 4 5 6 
#
# 1 0.024578 -0.007499 -0.008949 0.000000 0.000000 0.000000
# 2 -0.007499 0.015039 -0.003170 0.000000 0.000000 0.000000
# 3 -0.008949 -0.003170 0.017305 0.000000 0.000000 0.000000
# 4 0.000000 0.000000 0.000000 0.066077 0.000000 0.000000
# 5 0.000000 0.000000 0.000000 0.000000 0.037751 0.000000
# 6 0.000000 0.000000 0.000000 0.000000 0.000000 0.031997
#
#
# Mechanical properties :
#
#
# Convention : Reuss Voigt Hill
#
# Bulk Modulus (GPa) = 56.54236 57.39297 56.96766
# Shear Modulus (GPa) = 21.01931 22.98426 22.00178
#
# Velocity S-wave (km/s) = 3.61327 3.77839 3.69675
# Velocity P-wave (km/s) = 7.24761 7.39483 7.32159
#
# Compressibility (1/GPa) = 0.01768586
#
# Stress axis : x y z
#
# Youngs Moduli (GPa) = 40.68748 66.49348 57.78818
#
# Poissons Ratio (x) = 0.49863 0.51716
# Poissons Ratio (y) = 0.30511 0.18316
# Poissons Ratio (z) = 0.36412 0.21075
#
# Static dielectric constant tensor:
#      x y z
#    x 3.134640 0.000000 0.000000 
#    y 0.000000 3.050800 0.000000 
#    z 0.000000 0.000000 3.037810 
# 
# 
# High freq. dielectric constant tensor:
#      x y z
#    x 1.617270 0.000000 0.000000 
#    y 0.000000 1.615630 0.000000 
#    z 0.000000 0.000000 1.612400 
# 
# From -- ./inp_files/53164.got.cif
#   From: 2010.03.12/outbox.cif.g09.slc.cpg/sg63_27_cif.got.tgz:53164.got - 2010.04.10 19:34:48.
