data_PCOD8255611
_publ_section_title
;
Structure prediction by ZEFSAII (Michael W. Deem and Ramdas Pophale) SiO2 
 PCOD8255611
Probable space group: C M C M
;
_chemical_formula_sum "Si O2"
_cell_formula_units_Z 80
_cell_length_a 17.291097
_cell_length_b 8.647755
_cell_length_c 28.759995
_cell_angle_alpha 90.000000
_cell_angle_beta 90.000000
_cell_angle_gamma 90.000000
_cell_volume 4300.458197
_symmetry_space_group_name_H-M "C M C M"
_symmetry_group_IT_number 63
_symmetry_cell_setting 'orthorhombic'
loop_
_space_group_symop_operation_xyz
x,y,z
-x,-y,1/2+z
x,-y,-z
-x,y,1/2-z
-x,-y,-z
x,y,1/2-z
-x,y,z
x,-y,1/2+z
1/2+x,1/2+y,z
1/2-x,1/2-y,1/2+z
1/2+x,1/2-y,-z
1/2-x,1/2+y,1/2-z
1/2-x,1/2-y,-z
1/2+x,1/2+y,1/2-z
1/2-x,1/2+y,z
1/2+x,1/2-y,1/2+z
loop_
_atom_site_type_symbol
_atom_site_label
_atom_site_fract_x
_atom_site_fract_y
_atom_site_fract_z
Si Si1 0.413641 0.259821 0.105666
Si Si2 0.647614 0.608014 0.699404
Si Si3 0.714155 0.304131 0.668172
Si Si4 0.284699 0.374764 0.033763
Si Si5 0.823763 0.476236 0.110641
O O1 0.500000 0.295525 0.087664
O O2 0.405170 0.337068 0.156635
O O3 0.349725 0.323420 0.070301
O O4 0.403476 0.073382 0.108500
O O5 0.608331 0.639610 0.750000
O O6 0.661355 0.422022 0.697418
O O7 0.728076 0.703304 0.699764
O O8 0.760560 0.409054 0.632242
O O9 0.661757 0.180610 0.639802
O O10 0.209111 0.438945 0.059973
O O11 0.324071 0.500000 0.000000
O O12 0.250000 0.250000 0.000000
#
# Coordination Sequence:
#
# PCOD8255611 Si02
#       5
#    16  16  16  16  16
#     4  11  24  40  58  87 125 154 193 250 301 348
#     4  10  19  33  58  88 120 154 195 240 293 349
#     4   9  16  31  58  85 116 147 196 245 277 332
#     4  12  21  36  65  87 110 156 199 239 290 355
#     4  10  17  36  58  84 116 153 194 235 289 344
#
# _framework density 18.602668000000001
#
# number of rings (size 3 to 8) (size 9 to 14) (size 15 to 20)
#    0.000    1.600    8.000    0.600    0.000    0.800 
#    0.000    4.000    0.000    0.000    0.000    0.000 
#    0.000    0.000    0.000    0.000    0.000    0.000 
#
# Total GULP energy -495578.713188 kJ/mol
# GULP energy per Si atom -12389.467830 kJ/mol
# Density = 1.856033 g / cm^3
# Si number density = 18.602668 Si / 1000 Ang^3
#
#
#
# Elastic Constant Matrix: (Units=GPa)
#
#
# Indices 1 2 3 4 5 6 
#
# 1 72.7113 26.6289 35.1152 0.0000 0.0000 0.0000
# 2 26.6289 125.6494 48.7585 0.0000 0.0000 0.0000
# 3 35.1152 48.7585 135.1341 0.0000 0.0000 0.0000
# 4 0.0000 0.0000 0.0000 21.1117 0.0000 0.0000
# 5 0.0000 0.0000 0.0000 0.0000 9.7621 0.0000
# 6 0.0000 0.0000 0.0000 0.0000 0.0000 11.8556
#
#
#
# Elastic Compliance Matrix: (Units=1/GPa)
#
#
# Indices 1 2 3 4 5 6 
#
# 1 0.016186 -0.002091 -0.003451 0.000000 0.000000 0.000000
# 2 -0.002091 0.009525 -0.002893 0.000000 0.000000 0.000000
# 3 -0.003451 -0.002893 0.009341 0.000000 0.000000 0.000000
# 4 0.000000 0.000000 0.000000 0.047367 0.000000 0.000000
# 5 0.000000 0.000000 0.000000 0.000000 0.102437 0.000000
# 6 0.000000 0.000000 0.000000 0.000000 0.000000 0.084349
#
#
# Mechanical properties :
#
#
# Convention : Reuss Voigt Hill
#
# Bulk Modulus (GPa) = 55.00625 61.61111 58.30868
# Shear Modulus (GPa) = 17.11536 23.41201 20.26369
#
# Velocity S-wave (km/s) = 3.03652 3.55142 3.30402
# Velocity P-wave (km/s) = 6.47512 7.07165 6.77995
#
# Compressibility (1/GPa) = 0.01817975
#
# Stress axis : x y z
#
# Youngs Moduli (GPa) = 61.78328 104.99229 107.05626
#
# Poissons Ratio (x) = 0.21952 0.36950
# Poissons Ratio (y) = 0.12918 0.30974
# Poissons Ratio (z) = 0.21324 0.30377
#
# Static dielectric constant tensor:
#      x y z
#    x 3.088760 0.000000 0.000000 
#    y 0.000000 4.148240 0.000000 
#    z 0.000000 0.000000 3.502430 
# 
# 
# High freq. dielectric constant tensor:
#      x y z
#    x 1.660660 0.000000 0.000000 
#    y 0.000000 1.742810 0.000000 
#    z 0.000000 0.000000 1.732930 
# 
# From -- ./inp_files/73718.got.cif
#   From: 2010.03.12/outbox.cif.g09.slc.cpg/sg63_37_cif.got.tgz:73718.got - 2010.04.10 19:34:48.
