data_PCOD8255471
_publ_section_title
;
Structure prediction by ZEFSAII (Michael W. Deem and Ramdas Pophale) SiO2 
 PCOD8255471
Probable space group: C M C M
;
_chemical_formula_sum "Si O2"
_cell_formula_units_Z 96
_cell_length_a 23.163605
_cell_length_b 27.254469
_cell_length_c 8.974453
_cell_angle_alpha 90.000000
_cell_angle_beta 90.000000
_cell_angle_gamma 90.000000
_cell_volume 5665.677668
_symmetry_space_group_name_H-M "C M C M"
_symmetry_group_IT_number 63
_symmetry_cell_setting 'orthorhombic'
loop_
_space_group_symop_operation_xyz
x,y,z
-x,-y,1/2+z
x,-y,-z
-x,y,1/2-z
-x,-y,-z
x,y,1/2-z
-x,y,z
x,-y,1/2+z
1/2+x,1/2+y,z
1/2-x,1/2-y,1/2+z
1/2+x,1/2-y,-z
1/2-x,1/2+y,1/2-z
1/2-x,1/2-y,-z
1/2+x,1/2+y,1/2-z
1/2-x,1/2+y,z
1/2+x,1/2-y,1/2+z
loop_
_atom_site_type_symbol
_atom_site_label
_atom_site_fract_x
_atom_site_fract_y
_atom_site_fract_z
Si Si1 0.317123 0.810168 0.420160
Si Si2 0.500000 0.125288 0.573123
Si Si3 0.789345 0.147647 0.073159
Si Si4 0.772201 0.449582 0.576429
Si Si5 0.500000 0.238677 0.929194
Si Si6 0.384822 0.108022 0.426004
Si Si7 0.885466 0.214062 0.418134
O O1 0.319131 0.829321 0.250000
O O2 0.253845 0.816286 0.487371
O O3 0.363698 0.839332 0.517570
O O4 0.334540 0.753657 0.428883
O O5 0.500000 0.121357 0.750000
O O6 0.500000 0.182032 0.517413
O O7 0.444780 0.096276 0.508258
O O8 0.780373 0.155413 0.250000
O O9 0.775186 0.091465 0.029224
O O10 0.854824 0.163539 0.023618
O O11 0.754921 0.500000 0.500000
O O12 0.769772 0.458909 0.750000
O O13 0.836444 0.432237 0.529215
O O14 0.500000 0.237268 0.750000
O O15 0.555797 0.267419 0.998183
O O16 0.394389 0.109740 0.250000
O O17 0.904998 0.205049 0.250000
#
# Coordination Sequence:
#
# PCOD8255471 Si02
#       7
#    16   8  16  16   8  16  16
#     4  10  17  27  45  69  95 127 160 193 228 274
#     4  11  19  31  50  72  97 128 171 201 224 270
#     4   9  18  31  46  68  95 123 152 192 242 288
#     4   9  19  34  51  69  90 116 153 200 248 295
#     4   9  16  27  45  70  97 128 162 193 218 257
#     4  10  20  33  48  69  97 128 160 198 241 282
#     4   9  16  27  44  67  98 128 157 191 228 271
#
# _framework density 16.944133999999998
#
# number of rings (size 3 to 8) (size 9 to 14) (size 15 to 20)
#    0.000    2.500    1.667    2.750    0.000    3.333 
#    0.000    1.250    0.000    0.000    0.000    0.583 
#    0.000    0.000    0.000    0.000    0.000    0.000 
#
# Total GULP energy -594768.861932 kJ/mol
# GULP energy per Si atom -12391.017957 kJ/mol
# Density = 1.690557 g / cm^3
# Si number density = 16.944134 Si / 1000 Ang^3
#
#
#
# Elastic Constant Matrix: (Units=GPa)
#
#
# Indices 1 2 3 4 5 6 
#
# 1 74.9356 45.7197 18.5094 0.0000 0.0000 0.0000
# 2 45.7197 80.4770 22.4207 0.0000 0.0000 0.0000
# 3 18.5094 22.4207 41.5806 0.0000 0.0000 0.0000
# 4 0.0000 0.0000 0.0000 19.6905 0.0000 0.0000
# 5 0.0000 0.0000 0.0000 0.0000 15.4485 0.0000
# 6 0.0000 0.0000 0.0000 0.0000 0.0000 16.6088
#
#
#
# Elastic Compliance Matrix: (Units=1/GPa)
#
#
# Indices 1 2 3 4 5 6 
#
# 1 0.020825 -0.010883 -0.003402 0.000000 0.000000 0.000000
# 2 -0.010883 0.020310 -0.006107 0.000000 0.000000 0.000000
# 3 -0.003402 -0.006107 0.028857 0.000000 0.000000 0.000000
# 4 0.000000 0.000000 0.000000 0.050786 0.000000 0.000000
# 5 0.000000 0.000000 0.000000 0.000000 0.064731 0.000000
# 6 0.000000 0.000000 0.000000 0.000000 0.000000 0.060209
#
#
# Mechanical properties :
#
#
# Convention : Reuss Voigt Hill
#
# Bulk Modulus (GPa) = 34.23683 41.14365 37.69024
# Shear Modulus (GPa) = 16.87833 17.70580 17.29206
#
# Velocity S-wave (km/s) = 3.15956 3.23608 3.19805
# Velocity P-wave (km/s) = 5.79310 6.18850 5.99406
#
# Compressibility (1/GPa) = 0.02920831
#
# Stress axis : x y z
#
# Youngs Moduli (GPa) = 48.01893 49.23664 34.65384
#
# Poissons Ratio (x) = 0.53585 0.11789
# Poissons Ratio (y) = 0.52260 0.21162
# Poissons Ratio (z) = 0.16336 0.30068
#
# Static dielectric constant tensor:
#      x y z
#    x 3.376370 0.000000 0.000000 
#    y 0.000000 3.052770 0.000000 
#    z 0.000000 0.000000 3.035100 
# 
# 
# High freq. dielectric constant tensor:
#      x y z
#    x 1.647100 0.000000 0.000000 
#    y 0.000000 1.626870 0.000000 
#    z 0.000000 0.000000 1.635970 
# 
# From -- ./inp_files/10754.got.cif
#   From: 2010.03.12/outbox.cif.g09.slc.cpg/sg63_6_cif.got.tgz:10754.got - 2010.04.10 19:34:48.
