data_PCOD8255683
_publ_section_title
;
Structure prediction by ZEFSAII (Michael W. Deem and Ramdas Pophale) SiO2 
 PCOD8255683
Probable space group: C M C M
;
_chemical_formula_sum "Si O2"
_cell_formula_units_Z 96
_cell_length_a 8.851079
_cell_length_b 33.030122
_cell_length_c 18.800842
_cell_angle_alpha 90.000000
_cell_angle_beta 90.000000
_cell_angle_gamma 90.000000
_cell_volume 5496.467882
_symmetry_space_group_name_H-M "C M C M"
_symmetry_group_IT_number 63
_symmetry_cell_setting 'orthorhombic'
loop_
_space_group_symop_operation_xyz
x,y,z
-x,-y,1/2+z
x,-y,-z
-x,y,1/2-z
-x,-y,-z
x,y,1/2-z
-x,y,z
x,-y,1/2+z
1/2+x,1/2+y,z
1/2-x,1/2-y,1/2+z
1/2+x,1/2-y,-z
1/2-x,1/2+y,1/2-z
1/2-x,1/2-y,-z
1/2+x,1/2+y,1/2-z
1/2-x,1/2+y,z
1/2+x,1/2-y,1/2+z
loop_
_atom_site_type_symbol
_atom_site_label
_atom_site_fract_x
_atom_site_fract_y
_atom_site_fract_z
Si Si1 0.177710 0.914836 0.830271
Si Si2 0.320484 0.670545 0.671206
Si Si3 0.179295 0.660035 0.097845
Si Si4 0.821819 0.041228 0.030774
Si Si5 0.320774 0.239973 0.170795
Si Si6 0.821421 0.123781 0.963344
O O1 0.217040 0.929512 0.750000
O O2 0.259762 0.872632 0.845720
O O3 0.232128 0.948512 0.888313
O O4 0.000000 0.907291 0.839529
O O5 0.256479 0.660021 0.750000
O O6 0.500000 0.670378 0.674528
O O7 0.264734 0.715315 0.646537
O O8 0.264070 0.636964 0.614891
O O9 0.239903 0.704555 0.119674
O O10 0.000000 0.657362 0.097946
O O11 0.241822 0.652877 0.019482
O O12 0.000000 0.035854 0.031326
O O13 0.773425 0.077443 0.977775
O O14 0.746449 0.000000 0.000000
O O15 0.259673 0.231420 0.250000
O O16 0.500000 0.239083 0.171151
O O17 0.000000 0.129276 0.972060
#
# Coordination Sequence:
#
# PCOD8255683 Si02
#       6
#    16  16  16  16  16  16
#     4   9  17  29  45  65  89 116 144 176 216 256
#     4   8  14  26  43  61  82 109 142 179 215 252
#     4  10  18  27  42  64  88 115 145 174 208 254
#     4   8  14  26  43  62  86 113 137 166 208 256
#     4   8  14  24  38  58  84 112 141 174 212 250
#     4   9  17  29  45  64  85 111 143 178 217 256
#
# _framework density 17.465761000000001
#
# number of rings (size 3 to 8) (size 9 to 14) (size 15 to 20)
#    0.000    3.333    0.000    3.000    0.000    1.667 
#    0.000    0.833    0.000   14.500    0.000    4.667 
#    0.000    0.000    0.000    0.000    0.000    0.000 
#
# Total GULP energy -594738.531315 kJ/mol
# GULP energy per Si atom -12390.386069 kJ/mol
# Density = 1.742601 g / cm^3
# Si number density = 17.465761 Si / 1000 Ang^3
#
#
#
# Elastic Constant Matrix: (Units=GPa)
#
#
# Indices 1 2 3 4 5 6 
#
# 1 19.6459 14.9900 18.3326 0.0000 0.0000 0.0000
# 2 14.9900 137.7685 101.1090 0.0000 0.0000 0.0000
# 3 18.3326 101.1090 152.8709 0.0000 0.0000 0.0000
# 4 0.0000 0.0000 0.0000 28.5568 0.0000 0.0000
# 5 0.0000 0.0000 0.0000 0.0000 16.1791 0.0000
# 6 0.0000 0.0000 0.0000 0.0000 0.0000 14.6270
#
#
#
# Elastic Compliance Matrix: (Units=1/GPa)
#
#
# Indices 1 2 3 4 5 6 
#
# 1 0.057698 -0.002331 -0.005377 0.000000 0.000000 0.000000
# 2 -0.002331 0.014200 -0.009112 0.000000 0.000000 0.000000
# 3 -0.005377 -0.009112 0.013213 0.000000 0.000000 0.000000
# 4 0.000000 0.000000 0.000000 0.035018 0.000000 0.000000
# 5 0.000000 0.000000 0.000000 0.000000 0.061808 0.000000
# 6 0.000000 0.000000 0.000000 0.000000 0.000000 0.068367
#
#
# Mechanical properties :
#
#
# Convention : Reuss Voigt Hill
#
# Bulk Modulus (GPa) = 19.42913 64.34982 41.88947
# Shear Modulus (GPa) = 16.60569 23.59614 20.10091
#
# Velocity S-wave (km/s) = 3.08678 3.67957 3.39614
# Velocity P-wave (km/s) = 4.88391 7.41456 6.27807
#
# Compressibility (1/GPa) = 0.05146911
#
# Stress axis : x y z
#
# Youngs Moduli (GPa) = 17.33164 70.42442 75.68281
#
# Poissons Ratio (x) = 0.16419 0.40696
# Poissons Ratio (y) = 0.04041 0.68963
# Poissons Ratio (z) = 0.09320 0.64171
#
# Static dielectric constant tensor:
#      x y z
#    x 2.775580 0.000000 0.000000 
#    y 0.000000 3.506480 0.000000 
#    z 0.000000 0.000000 3.561860 
# 
# 
# High freq. dielectric constant tensor:
#      x y z
#    x 1.624650 0.000000 0.000000 
#    y 0.000000 1.667920 0.000000 
#    z 0.000000 0.000000 1.678620 
# 
# From -- ./inp_files/51386.got.cif
#   From: 2010.03.12/outbox.cif.g09.slc.cpg/sg63_26_cif.got.tgz:51386.got - 2010.04.10 19:34:48.
