data_PCOD8255373
_publ_section_title
;
Structure prediction by ZEFSAII (Michael W. Deem and Ramdas Pophale) SiO2 
 PCOD8255373
Probable space group: C M C M
;
_chemical_formula_sum "Si O2"
_cell_formula_units_Z 72
_cell_length_a 10.069204
_cell_length_b 29.420876
_cell_length_c 14.517821
_cell_angle_alpha 90.000000
_cell_angle_beta 90.000000
_cell_angle_gamma 90.000000
_cell_volume 4300.829012
_symmetry_space_group_name_H-M "C M C M"
_symmetry_group_IT_number 63
_symmetry_cell_setting 'orthorhombic'
loop_
_space_group_symop_operation_xyz
x,y,z
-x,-y,1/2+z
x,-y,-z
-x,y,1/2-z
-x,-y,-z
x,y,1/2-z
-x,y,z
x,-y,1/2+z
1/2+x,1/2+y,z
1/2-x,1/2-y,1/2+z
1/2+x,1/2-y,-z
1/2-x,1/2+y,1/2-z
1/2-x,1/2-y,-z
1/2+x,1/2+y,1/2-z
1/2-x,1/2+y,z
1/2+x,1/2-y,1/2+z
loop_
_atom_site_type_symbol
_atom_site_label
_atom_site_fract_x
_atom_site_fract_y
_atom_site_fract_z
Si Si1 0.151791 0.751037 0.750000
Si Si2 0.352042 0.875324 0.951454
Si Si3 0.852573 0.058848 0.250000
Si Si4 0.152300 0.282878 0.447371
Si Si5 0.342200 0.545653 0.052755
Si Si6 0.270942 0.149950 0.250000
O O1 0.185302 0.720424 0.661230
O O2 0.233249 0.797611 0.750000
O O3 0.000000 0.766512 0.750000
O O4 0.500000 0.894238 0.971091
O O5 0.242826 0.912062 0.984559
O O6 0.350701 0.860424 0.843992
O O7 0.320309 0.833375 0.017966
O O8 0.788304 0.038565 0.157387
O O9 0.851207 0.114143 0.250000
O O10 0.000000 0.040802 0.250000
O O11 0.250000 0.250000 0.500000
O O12 0.000000 0.268320 0.467069
O O13 0.500000 0.557114 0.047661
O O14 0.306262 0.500000 0.000000
#
# Coordination Sequence:
#
# PCOD8255373 Si02
#       6
#     8  16   8  16  16   8
#     4  10  19  31  50  73 102 137 176 210 250 302
#     4  10  20  32  49  74 104 132 162 207 258 301
#     4   8  15  27  46  73  96 116 152 203 249 291
#     4  10  20  34  50  73 101 136 172 208 250 301
#     4   9  18  33  53  74  96 126 165 206 248 299
#     4  10  16  28  50  72  99 125 167 205 256 289
#
# _framework density 16.740957000000002
#
# number of rings (size 3 to 8) (size 9 to 14) (size 15 to 20)
#    0.000    2.444    2.222    0.667    0.000    2.222 
#    0.000    1.667    0.000    0.000    0.000    0.000 
#    0.000    0.000    0.000    0.000    0.000    0.000 
#
# Total GULP energy -446032.675366 kJ/mol
# GULP energy per Si atom -12389.796538 kJ/mol
# Density = 1.670285 g / cm^3
# Si number density = 16.740957 Si / 1000 Ang^3
#
#
#
# Elastic Constant Matrix: (Units=GPa)
#
#
# Indices 1 2 3 4 5 6 
#
# 1 85.3083 64.3862 44.0710 0.0000 0.0000 0.0000
# 2 64.3862 123.3784 74.9679 0.0000 0.0000 0.0000
# 3 44.0710 74.9679 113.0455 0.0000 0.0000 0.0000
# 4 0.0000 0.0000 0.0000 32.7383 0.0000 0.0000
# 5 0.0000 0.0000 0.0000 0.0000 18.8572 0.0000
# 6 0.0000 0.0000 0.0000 0.0000 0.0000 30.1814
#
#
#
# Elastic Compliance Matrix: (Units=1/GPa)
#
#
# Indices 1 2 3 4 5 6 
#
# 1 0.019476 -0.009296 -0.001428 0.000000 0.000000 0.000000
# 2 -0.009296 0.018013 -0.008321 0.000000 0.000000 0.000000
# 3 -0.001428 -0.008321 0.014921 0.000000 0.000000 0.000000
# 4 0.000000 0.000000 0.000000 0.030545 0.000000 0.000000
# 5 0.000000 0.000000 0.000000 0.000000 0.053030 0.000000
# 6 0.000000 0.000000 0.000000 0.000000 0.000000 0.033133
#
#
# Mechanical properties :
#
#
# Convention : Reuss Voigt Hill
#
# Bulk Modulus (GPa) = 69.83643 76.50914 73.17279
# Shear Modulus (GPa) = 23.58693 25.57584 24.58139
#
# Velocity S-wave (km/s) = 3.75765 3.91287 3.83605
# Velocity P-wave (km/s) = 7.78672 8.13727 7.96392
#
# Compressibility (1/GPa) = 0.01431917
#
# Stress axis : x y z
#
# Youngs Moduli (GPa) = 51.34499 55.51661 67.01948
#
# Poissons Ratio (x) = 0.51609 0.09570
# Poissons Ratio (y) = 0.47731 0.55769
# Poissons Ratio (z) = 0.07332 0.46197
#
# Static dielectric constant tensor:
#      x y z
#    x 3.110380 0.000000 0.000000 
#    y 0.000000 3.003140 0.000000 
#    z 0.000000 0.000000 3.391830 
# 
# 
# High freq. dielectric constant tensor:
#      x y z
#    x 1.639050 0.000000 0.000000 
#    y 0.000000 1.629050 0.000000 
#    z 0.000000 0.000000 1.650770 
# 
# From -- ./inp_files/28155.got.cif
#   From: 2010.03.12/outbox.cif.g09.slc.cpg/sg63_15_cif.got.tgz:28155.got - 2010.04.10 19:34:48.
