data_PCOD8255411
_publ_section_title
;
Structure prediction by ZEFSAII (Michael W. Deem and Ramdas Pophale) SiO2 
 PCOD8255411
Probable space group: C M C M
;
_chemical_formula_sum "Si O2"
_cell_formula_units_Z 92
_cell_length_a 25.364827
_cell_length_b 9.033978
_cell_length_c 20.476272
_cell_angle_alpha 90.000000
_cell_angle_beta 90.000000
_cell_angle_gamma 90.000000
_cell_volume 4692.041267
_symmetry_space_group_name_H-M "C M C M"
_symmetry_group_IT_number 63
_symmetry_cell_setting 'orthorhombic'
loop_
_space_group_symop_operation_xyz
x,y,z
-x,-y,1/2+z
x,-y,-z
-x,y,1/2-z
-x,-y,-z
x,y,1/2-z
-x,y,z
x,-y,1/2+z
1/2+x,1/2+y,z
1/2-x,1/2-y,1/2+z
1/2+x,1/2-y,-z
1/2-x,1/2+y,1/2-z
1/2-x,1/2-y,-z
1/2+x,1/2+y,1/2-z
1/2-x,1/2+y,z
1/2+x,1/2-y,1/2+z
loop_
_atom_site_type_symbol
_atom_site_label
_atom_site_fract_x
_atom_site_fract_y
_atom_site_fract_z
Si Si1 0.942151 0.762459 0.750000
Si Si2 0.597439 0.865801 0.118950
Si Si3 0.895096 0.054754 0.070099
Si Si4 0.701596 0.895726 0.175969
Si Si5 0.000000 0.883410 0.392570
Si Si6 0.192488 0.050018 0.324439
Si Si7 0.000000 0.046927 0.750000
Si Si8 0.500000 0.048480 0.426513
O O1 0.909129 0.719283 0.687391
O O2 0.000000 0.684735 0.750000
O O3 0.948437 0.940399 0.750000
O O4 0.597231 0.734167 0.065417
O O5 0.654000 0.947310 0.127068
O O6 0.552407 0.986121 0.107697
O O7 0.854195 0.007578 0.126155
O O8 0.950494 0.978713 0.085188
O O9 0.873987 0.000000 0.000000
O O10 0.690288 0.950434 0.250000
O O11 0.707151 0.720655 0.171874
O O12 0.756029 0.963286 0.150656
O O13 0.000000 0.853090 0.314632
O O14 0.000000 0.724519 0.426117
O O15 0.177009 0.004506 0.250000
O O16 0.500000 0.000000 0.500000
#
# Coordination Sequence:
#
# PCOD8255411 Si02
#       8
#     8  16  16  16   8  16   4   8
#     4  10  16  33  64  84 108 145 195 246 279 340
#     4  11  20  37  63  81 111 158 199 233 283 360
#     4  11  22  39  61  85 111 158 204 235 281 355
#     4   9  18  34  58  83 108 142 189 239 293 339
#     4  12  24  36  59  86 123 147 185 251 303 334
#     4   9  20  36  59  84 114 147 188 242 292 340
#     4  10  20  34  56  94 116 138 184 260 296 328
#     4  12  26  41  52  82 127 165 191 235 298 355
#
# _framework density 19.607669999999999
#
# number of rings (size 3 to 8) (size 9 to 14) (size 15 to 20)
#    0.261    1.391    3.478    1.826    2.435    2.087 
#    0.000    4.348    0.000    0.000    0.000    0.000 
#    0.000    0.000    0.000    0.000    0.000    0.000 
#
# Total GULP energy -570315.952330 kJ/mol
# GULP energy per Si atom -12398.172877 kJ/mol
# Density = 1.956304 g / cm^3
# Si number density = 19.607670 Si / 1000 Ang^3
#
#
#
# Elastic Constant Matrix: (Units=GPa)
#
#
# Indices 1 2 3 4 5 6 
#
# 1 167.6819 52.3841 46.6010 0.0000 0.0000 0.0000
# 2 52.3841 47.9090 9.7596 0.0000 0.0000 0.0000
# 3 46.6010 9.7596 86.3761 0.0000 0.0000 0.0000
# 4 0.0000 0.0000 0.0000 20.6734 0.0000 0.0000
# 5 0.0000 0.0000 0.0000 0.0000 12.9147 0.0000
# 6 0.0000 0.0000 0.0000 0.0000 0.0000 26.2022
#
#
#
# Elastic Compliance Matrix: (Units=1/GPa)
#
#
# Indices 1 2 3 4 5 6 
#
# 1 0.010514 -0.010585 -0.004477 0.000000 0.000000 0.000000
# 2 -0.010585 0.032020 0.002093 0.000000 0.000000 0.000000
# 3 -0.004477 0.002093 0.013756 0.000000 0.000000 0.000000
# 4 0.000000 0.000000 0.000000 0.048371 0.000000 0.000000
# 5 0.000000 0.000000 0.000000 0.000000 0.077431 0.000000
# 6 0.000000 0.000000 0.000000 0.000000 0.000000 0.038165
#
#
# Mechanical properties :
#
#
# Convention : Reuss Voigt Hill
#
# Bulk Modulus (GPa) = 32.94567 57.71736 45.33152
# Shear Modulus (GPa) = 19.50739 24.83954 22.17346
#
# Velocity S-wave (km/s) = 3.15760 3.56311 3.36647
# Velocity P-wave (km/s) = 5.48934 6.81379 6.18711
#
# Compressibility (1/GPa) = 0.03035300
#
# Stress axis : x y z
#
# Youngs Moduli (GPa) = 95.10700 31.23055 72.69506
#
# Poissons Ratio (x) = 0.33056 0.32544
# Poissons Ratio (y) = 1.00667 -0.15212
# Poissons Ratio (z) = 0.42577 -0.06535
#
# Static dielectric constant tensor:
#      x y z
#    x 3.591560 0.000000 0.000000 
#    y 0.000000 3.449150 0.000000 
#    z 0.000000 0.000000 3.663470 
# 
# 
# High freq. dielectric constant tensor:
#      x y z
#    x 1.777870 0.000000 0.000000 
#    y 0.000000 1.742410 0.000000 
#    z 0.000000 0.000000 1.755520 
# 
# From -- ./inp_files/58154.got.cif
#   From: 2010.03.12/outbox.cif.g09.slc.cpg/sg63_30_cif.got.tgz:58154.got - 2010.04.10 19:34:48.
