data_PCOD8255531
_publ_section_title
;
Structure prediction by ZEFSAII (Michael W. Deem and Ramdas Pophale) SiO2 
 PCOD8255531
Probable space group: C M C M
;
_chemical_formula_sum "Si O2"
_cell_formula_units_Z 56
_cell_length_a 18.002662
_cell_length_b 17.303966
_cell_length_c 10.499134
_cell_angle_alpha 90.000000
_cell_angle_beta 90.000000
_cell_angle_gamma 90.000000
_cell_volume 3270.663463
_symmetry_space_group_name_H-M "C M C M"
_symmetry_group_IT_number 63
_symmetry_cell_setting 'orthorhombic'
loop_
_space_group_symop_operation_xyz
x,y,z
-x,-y,1/2+z
x,-y,-z
-x,y,1/2-z
-x,-y,-z
x,y,1/2-z
-x,y,z
x,-y,1/2+z
1/2+x,1/2+y,z
1/2-x,1/2-y,1/2+z
1/2+x,1/2-y,-z
1/2-x,1/2+y,1/2-z
1/2-x,1/2-y,-z
1/2+x,1/2+y,1/2-z
1/2-x,1/2+y,z
1/2+x,1/2-y,1/2+z
loop_
_atom_site_type_symbol
_atom_site_label
_atom_site_fract_x
_atom_site_fract_y
_atom_site_fract_z
Si Si1 0.825857 0.050364 0.389419
Si Si2 0.583220 0.865082 0.396697
Si Si3 0.310494 0.272885 0.604097
Si Si4 0.182882 0.500000 0.500000
O O1 0.859379 0.031263 0.250000
O O2 0.836646 0.140099 0.421933
O O3 0.866993 0.000000 0.500000
O O4 0.737879 0.027759 0.386193
O O5 0.581133 0.888656 0.250000
O O6 0.500000 0.864097 0.453895
O O7 0.617811 0.780522 0.416092
O O8 0.631923 0.927923 0.467928
O O9 0.279784 0.264024 0.750000
O O10 0.250000 0.250000 0.500000
#
# Coordination Sequence:
#
# PCOD8255531 Si02
#       4
#    16  16  16   8
#     4   9  18  29  49  75  98 122 162 204 248 284
#     4  10  20  32  47  70 101 135 165 196 240 295
#     4  10  18  32  51  72  96 129 167 206 242 287
#     4  10  17  28  50  66 103 122 160 192 247 280
#
# _framework density 17.121908999999999
#
# number of rings (size 3 to 8) (size 9 to 14) (size 15 to 20)
#    0.857    1.429    2.857    1.286    0.000    1.143 
#    0.000    0.000    0.000    3.429    0.000    0.000 
#    0.000    0.000    0.000    0.000    0.000    0.000 
#
# Total GULP energy -346918.031513 kJ/mol
# GULP energy per Si atom -12389.929697 kJ/mol
# Density = 1.708294 g / cm^3
# Si number density = 17.121909 Si / 1000 Ang^3
#
#
#
# Elastic Constant Matrix: (Units=GPa)
#
#
# Indices 1 2 3 4 5 6 
#
# 1 23.9935 6.0784 -6.3059 0.0000 0.0000 0.0000
# 2 6.0784 121.4161 43.3868 0.0000 0.0000 0.0000
# 3 -6.3059 43.3868 77.9986 0.0000 0.0000 0.0000
# 4 0.0000 0.0000 0.0000 26.1149 0.0000 0.0000
# 5 0.0000 0.0000 0.0000 0.0000 1.6870 0.0000
# 6 0.0000 0.0000 0.0000 0.0000 0.0000 17.8185
#
#
#
# Elastic Compliance Matrix: (Units=1/GPa)
#
#
# Indices 1 2 3 4 5 6 
#
# 1 0.044367 -0.004372 0.006019 0.000000 0.000000 0.000000
# 2 -0.004372 0.010710 -0.006311 0.000000 0.000000 0.000000
# 3 0.006019 -0.006311 0.016818 0.000000 0.000000 0.000000
# 4 0.000000 0.000000 0.000000 0.038292 0.000000 0.000000
# 5 0.000000 0.000000 0.000000 0.000000 0.592772 0.000000
# 6 0.000000 0.000000 0.000000 0.000000 0.000000 0.056121
#
#
# Mechanical properties :
#
#
# Convention : Reuss Voigt Hill
#
# Bulk Modulus (GPa) = 15.98285 34.41409 25.19847
# Shear Modulus (GPa) = 6.33501 21.14067 13.73784
#
# Velocity S-wave (km/s) = 1.92561 3.51766 2.83566
# Velocity P-wave (km/s) = 3.78140 6.05324 5.04681
#
# Compressibility (1/GPa) = 0.06256706
#
# Stress axis : x y z
#
# Youngs Moduli (GPa) = 22.53915 93.36907 59.46065
#
# Poissons Ratio (x) = 0.40820 -0.35788
# Poissons Ratio (y) = 0.09854 0.37526
# Poissons Ratio (z) = -0.13566 0.58925
#
# Static dielectric constant tensor:
#      x y z
#    x 2.967890 0.000000 0.000000 
#    y 0.000000 3.409420 0.000000 
#    z 0.000000 0.000000 2.663180 
# 
# 
# High freq. dielectric constant tensor:
#      x y z
#    x 1.622120 0.000000 0.000000 
#    y 0.000000 1.677640 0.000000 
#    z 0.000000 0.000000 1.655870 
# 
# From -- ./inp_files/7431.got.cif
#   From: 2010.03.12/outbox.cif.g09.slc.cpg/sg63_4_cif.got.tgz:7431.got - 2010.04.10 19:34:48.
