data_PCOD8255928
_publ_section_title
;
Structure prediction by ZEFSAII (Michael W. Deem and Ramdas Pophale) SiO2 
 PCOD8255928
Probable space group: C M C M
;
_chemical_formula_sum "Si O2"
_cell_formula_units_Z 80
_cell_length_a 8.878457
_cell_length_b 20.708543
_cell_length_c 24.670852
_cell_angle_alpha 90.000000
_cell_angle_beta 90.000000
_cell_angle_gamma 90.000000
_cell_volume 4535.980593
_symmetry_space_group_name_H-M "C M C M"
_symmetry_group_IT_number 63
_symmetry_cell_setting 'orthorhombic'
loop_
_space_group_symop_operation_xyz
x,y,z
-x,-y,1/2+z
x,-y,-z
-x,y,1/2-z
-x,-y,-z
x,y,1/2-z
-x,y,z
x,-y,1/2+z
1/2+x,1/2+y,z
1/2-x,1/2-y,1/2+z
1/2+x,1/2-y,-z
1/2-x,1/2+y,1/2-z
1/2-x,1/2-y,-z
1/2+x,1/2+y,1/2-z
1/2-x,1/2+y,z
1/2+x,1/2-y,1/2+z
loop_
_atom_site_type_symbol
_atom_site_label
_atom_site_fract_x
_atom_site_fract_y
_atom_site_fract_z
Si Si1 0.664790 0.989224 0.750000
Si Si2 0.677435 0.634083 0.640044
Si Si3 0.332565 0.857444 0.250000
Si Si4 0.176521 0.938254 0.964603
Si Si5 0.324134 0.688371 0.973451
Si Si6 0.819737 0.503840 0.365353
O O1 0.500000 0.957623 0.750000
O O2 0.654282 0.066307 0.750000
O O3 0.743255 0.969781 0.806765
O O4 0.500000 0.623903 0.647617
O O5 0.745401 0.664271 0.695319
O O6 0.713386 0.683111 0.590611
O O7 0.747967 0.565714 0.622737
O O8 0.500000 0.826405 0.250000
O O9 0.000000 0.935726 0.951855
O O10 0.267864 0.943437 0.908656
O O11 0.235255 0.875176 0.995620
O O12 0.218779 0.000000 0.000000
O O13 0.500000 0.694431 0.982515
O O14 0.250000 0.750000 0.000000
O O15 0.000000 0.496249 0.363965
#
# Coordination Sequence:
#
# PCOD8255928 Si02
#       6
#     8  16   8  16  16  16
#     4   7  14  27  41  66 105 132 155 203 261 299
#     4  10  18  32  51  74 104 141 175 211 263 319
#     4   9  17  29  47  76 105 132 169 221 265 301
#     4  10  19  35  53  73 105 138 170 212 262 315
#     4  10  22  37  54  75 105 142 177 219 265 315
#     4  10  18  29  49  77 105 135 173 219 262 307
#
# _framework density 17.636759999999999
#
# number of rings (size 3 to 8) (size 9 to 14) (size 15 to 20)
#    0.000    2.400    2.000    2.700    0.000    2.800 
#    0.000    1.500    0.000    1.200    0.000    4.200 
#    0.000    0.000    0.000    0.000    0.000    0.000 
#
# Total GULP energy -495731.900755 kJ/mol
# GULP energy per Si atom -12393.297519 kJ/mol
# Density = 1.759662 g / cm^3
# Si number density = 17.636760 Si / 1000 Ang^3
#
#
#
# Elastic Constant Matrix: (Units=GPa)
#
#
# Indices 1 2 3 4 5 6 
#
# 1 71.0875 31.9378 61.2115 0.0000 0.0000 0.0000
# 2 31.9378 84.8195 61.8314 0.0000 0.0000 0.0000
# 3 61.2115 61.8314 178.8752 0.0000 0.0000 0.0000
# 4 0.0000 0.0000 0.0000 20.6287 0.0000 0.0000
# 5 0.0000 0.0000 0.0000 0.0000 32.7158 0.0000
# 6 0.0000 0.0000 0.0000 0.0000 0.0000 23.5516
#
#
#
# Elastic Compliance Matrix: (Units=1/GPa)
#
#
# Indices 1 2 3 4 5 6 
#
# 1 0.020700 -0.003517 -0.005868 0.000000 0.000000 0.000000
# 2 -0.003517 0.016359 -0.004451 0.000000 0.000000 0.000000
# 3 -0.005868 -0.004451 0.009137 0.000000 0.000000 0.000000
# 4 0.000000 0.000000 0.000000 0.048476 0.000000 0.000000
# 5 0.000000 0.000000 0.000000 0.000000 0.030566 0.000000
# 6 0.000000 0.000000 0.000000 0.000000 0.000000 0.042460
#
#
# Mechanical properties :
#
#
# Convention : Reuss Voigt Hill
#
# Bulk Modulus (GPa) = 53.98406 71.63816 62.81111
# Shear Modulus (GPa) = 24.80841 27.36600 26.08720
#
# Velocity S-wave (km/s) = 3.75458 3.94337 3.85013
# Velocity P-wave (km/s) = 7.03357 7.83839 7.44686
#
# Compressibility (1/GPa) = 0.01852399
#
# Stress axis : x y z
#
# Youngs Moduli (GPa) = 48.30952 61.12915 109.44306
#
# Poissons Ratio (x) = 0.21497 0.64220
# Poissons Ratio (y) = 0.16989 0.48716
# Poissons Ratio (z) = 0.28348 0.27210
#
# Static dielectric constant tensor:
#      x y z
#    x 3.223160 0.000000 0.000000 
#    y 0.000000 3.013250 0.000000 
#    z 0.000000 0.000000 4.089600 
# 
# 
# High freq. dielectric constant tensor:
#      x y z
#    x 1.678240 0.000000 0.000000 
#    y 0.000000 1.626260 0.000000 
#    z 0.000000 0.000000 1.708190 
# 
# From -- ./inp_files/59778.got.cif
#   From: 2010.03.12/outbox.cif.g09.slc.cpg/sg63_30_cif.got.tgz:59778.got - 2010.04.10 19:34:48.
