data_PCOD8255519
_publ_section_title
;
Structure prediction by ZEFSAII (Michael W. Deem and Ramdas Pophale) SiO2 
 PCOD8255519
Probable space group: C M C M
;
_chemical_formula_sum "Si O2"
_cell_formula_units_Z 96
_cell_length_a 13.367024
_cell_length_b 18.232011
_cell_length_c 23.430971
_cell_angle_alpha 90.000000
_cell_angle_beta 90.000000
_cell_angle_gamma 90.000000
_cell_volume 5710.308721
_symmetry_space_group_name_H-M "C M C M"
_symmetry_group_IT_number 63
_symmetry_cell_setting 'orthorhombic'
loop_
_space_group_symop_operation_xyz
x,y,z
-x,-y,1/2+z
x,-y,-z
-x,y,1/2-z
-x,-y,-z
x,y,1/2-z
-x,y,z
x,-y,1/2+z
1/2+x,1/2+y,z
1/2-x,1/2-y,1/2+z
1/2+x,1/2-y,-z
1/2-x,1/2+y,1/2-z
1/2-x,1/2-y,-z
1/2+x,1/2+y,1/2-z
1/2-x,1/2+y,z
1/2+x,1/2-y,1/2+z
loop_
_atom_site_type_symbol
_atom_site_label
_atom_site_fract_x
_atom_site_fract_y
_atom_site_fract_z
Si Si1 0.610072 0.084345 0.013458
Si Si2 0.384542 0.485346 0.183990
Si Si3 0.116277 0.399536 0.111909
Si Si4 0.794066 0.556716 0.126002
Si Si5 0.610450 0.189639 0.183256
Si Si6 0.282014 0.333352 0.316260
O O1 0.500000 0.115153 0.032114
O O2 0.692633 0.094962 0.063466
O O3 0.646014 0.120145 0.953756
O O4 0.595867 0.000000 0.000000
O O5 0.362142 0.505685 0.250000
O O6 0.500000 0.498003 0.168743
O O7 0.320548 0.537205 0.141534
O O8 0.357619 0.400635 0.172811
O O9 0.139378 0.483564 0.128831
O O10 0.177509 0.344740 0.151665
O O11 0.000000 0.385311 0.122632
O O12 0.831921 0.614171 0.172488
O O13 0.600737 0.201774 0.250000
O O14 0.500000 0.186117 0.155503
O O15 0.668610 0.259922 0.157872
O O16 0.256088 0.324918 0.250000
#
# Coordination Sequence:
#
# PCOD8255519 Si02
#       6
#    16  16  16  16  16  16
#     4   8  14  26  45  68  93 120 147 180 229 279
#     4   9  17  30  47  65  87 119 156 188 221 269
#     4   9  17  30  49  71  93 119 153 191 228 268
#     4  10  17  28  48  71  92 115 150 191 229 268
#     4  10  19  30  45  67  94 119 145 184 232 274
#     4   9  18  31  46  64  89 122 155 185 223 273
#
# _framework density 16.811699999999998
#
# number of rings (size 3 to 8) (size 9 to 14) (size 15 to 20)
#    0.000    2.833    0.000    3.500    0.000    3.000 
#    0.000    1.667    0.000   14.500    0.000    0.000 
#    0.000    0.000    0.000    0.000    0.000    0.000 
#
# Total GULP energy -594912.844920 kJ/mol
# GULP energy per Si atom -12394.017603 kJ/mol
# Density = 1.677344 g / cm^3
# Si number density = 16.811700 Si / 1000 Ang^3
#
#
#
# Elastic Constant Matrix: (Units=GPa)
#
#
# Indices 1 2 3 4 5 6 
#
# 1 124.8012 44.8465 50.0022 0.0000 0.0000 0.0000
# 2 44.8465 69.3696 25.3912 0.0000 0.0000 0.0000
# 3 50.0022 25.3912 63.1304 0.0000 0.0000 0.0000
# 4 0.0000 0.0000 0.0000 14.9327 0.0000 0.0000
# 5 0.0000 0.0000 0.0000 0.0000 23.0265 0.0000
# 6 0.0000 0.0000 0.0000 0.0000 0.0000 16.7307
#
#
#
# Elastic Compliance Matrix: (Units=1/GPa)
#
#
# Indices 1 2 3 4 5 6 
#
# 1 0.013359 -0.005586 -0.008334 0.000000 0.000000 0.000000
# 2 -0.005586 0.019240 -0.003314 0.000000 0.000000 0.000000
# 3 -0.008334 -0.003314 0.023774 0.000000 0.000000 0.000000
# 4 0.000000 0.000000 0.000000 0.066967 0.000000 0.000000
# 5 0.000000 0.000000 0.000000 0.000000 0.043428 0.000000
# 6 0.000000 0.000000 0.000000 0.000000 0.000000 0.059770
#
#
# Mechanical properties :
#
#
# Convention : Reuss Voigt Hill
#
# Bulk Modulus (GPa) = 45.65231 55.30901 50.48066
# Shear Modulus (GPa) = 18.63518 20.07539 19.35528
#
# Velocity S-wave (km/s) = 3.33297 3.45937 3.39676
# Velocity P-wave (km/s) = 6.48272 6.99477 6.74361
#
# Compressibility (1/GPa) = 0.02190470
#
# Stress axis : x y z
#
# Youngs Moduli (GPa) = 74.85439 51.97564 42.06200
#
# Poissons Ratio (x) = 0.29033 0.35057
# Poissons Ratio (y) = 0.41813 0.13939
# Poissons Ratio (z) = 0.62387 0.17225
#
# Static dielectric constant tensor:
#      x y z
#    x 3.130560 0.000000 0.000000 
#    y 0.000000 2.923090 0.000000 
#    z 0.000000 0.000000 3.383580 
# 
# 
# High freq. dielectric constant tensor:
#      x y z
#    x 1.640250 0.000000 0.000000 
#    y 0.000000 1.622020 0.000000 
#    z 0.000000 0.000000 1.641550 
# 
# From -- ./inp_files/68301.got.cif
#   From: 2010.03.12/outbox.cif.g09.slc.cpg/sg63_35_cif.got.tgz:68301.got - 2010.04.10 19:34:48.
