data_PCOD8255242
_publ_section_title
;
Structure prediction by ZEFSAII (Michael W. Deem and Ramdas Pophale) SiO2 
 PCOD8255242
Probable space group: P N M A
;
_chemical_formula_sum "Si O2"
_cell_formula_units_Z 32
_cell_length_a 10.042453
_cell_length_b 21.588704
_cell_length_c 6.569892
_cell_angle_alpha 90.000000
_cell_angle_beta 90.000000
_cell_angle_gamma 90.000000
_cell_volume 1424.375878
_symmetry_space_group_name_H-M "P N M A"
_symmetry_group_IT_number 62
_symmetry_cell_setting 'orthorhombic'
loop_
_space_group_symop_operation_xyz
x,y,z
1/2-x,-y,1/2+z
1/2+x,1/2-y,1/2-z
-x,1/2+y,-z
-x,-y,-z
1/2+x,y,1/2-z
1/2-x,1/2+y,1/2+z
x,1/2-y,z
loop_
_atom_site_type_symbol
_atom_site_label
_atom_site_fract_x
_atom_site_fract_y
_atom_site_fract_z
Si Si1 0.253203 0.680462 0.544623
Si Si2 0.394910 0.968951 0.859626
Si Si3 0.786170 0.091259 0.824857
Si Si4 0.027198 0.864196 0.858041
O O1 0.219454 0.750000 0.472029
O O2 0.267939 0.634033 0.355091
O O3 0.400226 0.681687 0.646616
O O4 0.138206 0.658575 0.698243
O O5 0.476376 0.933152 0.688309
O O6 0.305798 0.021626 0.756752
O O7 0.313914 0.917043 0.985789
O O8 0.500000 0.000000 0.000000
O O9 0.913552 0.127945 0.914408
#
# Coordination Sequence:
#
# PCOD8255242 Si02
#       4
#     8   8   8   8
#     4  12  28  48  73 104 144 198 248 294 352 426
#     4  12  22  43  73 107 144 182 233 294 369 432
#     4  12  25  46  73 108 146 187 236 300 366 429
#     4  12  25  50  71 108 146 187 243 299 364 428
#
# _framework density 22.465979999999998
#
# number of rings (size 3 to 8) (size 9 to 14) (size 15 to 20)
#    0.000    0.000    5.000    6.000    0.000    2.000 
#    0.000    0.000    0.000    0.000    0.000    0.000 
#    0.000    0.000    0.000    0.000    0.000    0.000 
#
# Total GULP energy -396748.365914 kJ/mol
# GULP energy per Si atom -12398.386435 kJ/mol
# Density = 2.241485 g / cm^3
# Si number density = 22.465980 Si / 1000 Ang^3
#
#
#
# Elastic Constant Matrix: (Units=GPa)
#
#
# Indices 1 2 3 4 5 6 
#
# 1 129.9580 35.4002 41.8396 0.0000 0.0000 0.0000
# 2 35.4002 129.6724 31.2172 0.0000 0.0000 0.0000
# 3 41.8396 31.2172 85.8808 0.0000 0.0000 0.0000
# 4 0.0000 0.0000 0.0000 17.7466 0.0000 0.0000
# 5 0.0000 0.0000 0.0000 0.0000 36.0769 0.0000
# 6 0.0000 0.0000 0.0000 0.0000 0.0000 24.9783
#
#
#
# Elastic Compliance Matrix: (Units=1/GPa)
#
#
# Indices 1 2 3 4 5 6 
#
# 1 0.009423 -0.001608 -0.004006 0.000000 0.000000 0.000000
# 2 -0.001608 0.008726 -0.002388 0.000000 0.000000 0.000000
# 3 -0.004006 -0.002388 0.014464 0.000000 0.000000 0.000000
# 4 0.000000 0.000000 0.000000 0.056349 0.000000 0.000000
# 5 0.000000 0.000000 0.000000 0.000000 0.027719 0.000000
# 6 0.000000 0.000000 0.000000 0.000000 0.000000 0.040035
#
#
# Mechanical properties :
#
#
# Convention : Reuss Voigt Hill
#
# Bulk Modulus (GPa) = 60.21404 62.49170 61.35287
# Shear Modulus (GPa) = 28.04975 31.56397 29.80686
#
# Velocity S-wave (km/s) = 3.53731 3.75236 3.64642
# Velocity P-wave (km/s) = 6.59878 6.83009 6.71543
#
# Compressibility (1/GPa) = 0.01660742
#
# Stress axis : x y z
#
# Youngs Moduli (GPa) = 106.12890 114.60430 69.13786
#
# Poissons Ratio (x) = 0.18427 0.27697
# Poissons Ratio (y) = 0.17065 0.16513
# Poissons Ratio (z) = 0.42515 0.27372
#
# Static dielectric constant tensor:
#      x y z
#    x 4.129590 0.000000 0.000000 
#    y 0.000000 3.757560 0.000000 
#    z 0.000000 0.000000 3.990440 
# 
# 
# High freq. dielectric constant tensor:
#      x y z
#    x 1.902720 0.000000 0.000000 
#    y 0.000000 1.881760 0.000000 
#    z 0.000000 0.000000 1.890280 
# 
# From -- ./inp_files/430.got.cif
#   From: 2010.03.12/outbox.cif.g09.slc.cpg/sg62_1_cif.got.tgz:430.got - 2010.04.10 19:12:36.
