data_PCOD8255871
_publ_section_title
;
Structure prediction by ZEFSAII (Michael W. Deem and Ramdas Pophale) SiO2 
 PCOD8255871
Probable space group: C M C M
;
_chemical_formula_sum "Si O2"
_cell_formula_units_Z 96
_cell_length_a 25.633056
_cell_length_b 25.362883
_cell_length_c 8.678332
_cell_angle_alpha 90.000000
_cell_angle_beta 90.000000
_cell_angle_gamma 90.000000
_cell_volume 5642.028364
_symmetry_space_group_name_H-M "C M C M"
_symmetry_group_IT_number 63
_symmetry_cell_setting 'orthorhombic'
loop_
_space_group_symop_operation_xyz
x,y,z
-x,-y,1/2+z
x,-y,-z
-x,y,1/2-z
-x,-y,-z
x,y,1/2-z
-x,y,z
x,-y,1/2+z
1/2+x,1/2+y,z
1/2-x,1/2-y,1/2+z
1/2+x,1/2-y,-z
1/2-x,1/2+y,1/2-z
1/2-x,1/2-y,-z
1/2+x,1/2+y,1/2-z
1/2-x,1/2+y,z
1/2+x,1/2-y,1/2+z
loop_
_atom_site_type_symbol
_atom_site_label
_atom_site_fract_x
_atom_site_fract_y
_atom_site_fract_z
Si Si1 0.354846 0.941973 0.933433
Si Si2 0.749103 0.441560 0.433505
Si Si3 0.856767 0.941993 0.933482
Si Si4 0.441708 0.359523 0.931223
Si Si5 0.558181 0.861195 0.566335
Si Si6 0.438063 0.253554 0.079648
O O1 0.351149 0.944839 0.750000
O O2 0.402572 0.906050 0.992249
O O3 0.301950 0.915108 0.000930
O O4 0.364226 0.000000 0.000000
O O5 0.749205 0.500000 0.500000
O O6 0.749179 0.441150 0.250000
O O7 0.696187 0.415280 0.498792
O O8 0.852766 0.944880 0.750000
O O9 0.904270 0.905712 0.992392
O O10 0.866466 0.000000 0.000000
O O11 0.444291 0.361783 0.750000
O O12 0.500000 0.368045 0.000764
O O13 0.418335 0.302446 0.977266
O O14 0.556519 0.859305 0.750000
O O15 0.500000 0.873862 0.502505
O O16 0.578266 0.803449 0.508530
O O17 0.414032 0.260854 0.250000
O O18 0.500000 0.253595 0.088657
#
# Coordination Sequence:
#
# PCOD8255871 Si02
#       6
#    16  16  16  16  16  16
#     4  10  18  29  46  67  93 122 151 184 223 267
#     4  10  18  30  47  65  87 115 152 191 223 261
#     4  10  19  31  47  67  92 120 150 182 219 265
#     4   9  18  31  46  67  95 122 145 177 224 269
#     4   8  15  28  46  68  93 121 151 184 223 265
#     4   8  14  27  47  67  86 114 154 189 215 255
#
# _framework density 17.015156999999999
#
# number of rings (size 3 to 8) (size 9 to 14) (size 15 to 20)
#    0.000    2.833    0.000    5.500    0.000    2.000 
#    0.000    1.667    0.000    4.500    0.000    0.000 
#    0.000    0.000    0.000    0.000    0.000    0.000 
#
# Total GULP energy -594786.439464 kJ/mol
# GULP energy per Si atom -12391.384155 kJ/mol
# Density = 1.697643 g / cm^3
# Si number density = 17.015157 Si / 1000 Ang^3
#
#
#
# Elastic Constant Matrix: (Units=GPa)
#
#
# Indices 1 2 3 4 5 6 
#
# 1 127.6222 76.0393 35.5230 0.0000 0.0000 0.0000
# 2 76.0393 109.0428 27.2291 0.0000 0.0000 0.0000
# 3 35.5230 27.2291 61.3768 0.0000 0.0000 0.0000
# 4 0.0000 0.0000 0.0000 22.2988 0.0000 0.0000
# 5 0.0000 0.0000 0.0000 0.0000 20.0617 0.0000
# 6 0.0000 0.0000 0.0000 0.0000 0.0000 5.3538
#
#
#
# Elastic Compliance Matrix: (Units=1/GPa)
#
#
# Indices 1 2 3 4 5 6 
#
# 1 0.014370 -0.008934 -0.004354 0.000000 0.000000 0.000000
# 2 -0.008934 0.015867 -0.001869 0.000000 0.000000 0.000000
# 3 -0.004354 -0.001869 0.019642 0.000000 0.000000 0.000000
# 4 0.000000 0.000000 0.000000 0.044845 0.000000 0.000000
# 5 0.000000 0.000000 0.000000 0.000000 0.049846 0.000000
# 6 0.000000 0.000000 0.000000 0.000000 0.000000 0.186783
#
#
# Mechanical properties :
#
#
# Convention : Reuss Voigt Hill
#
# Bulk Modulus (GPa) = 51.10714 63.95829 57.53272
# Shear Modulus (GPa) = 13.58002 20.15957 16.86979
#
# Velocity S-wave (km/s) = 2.82815 3.44583 3.15216
# Velocity P-wave (km/s) = 6.38483 7.31452 6.86543
#
# Compressibility (1/GPa) = 0.01956674
#
# Stress axis : x y z
#
# Youngs Moduli (GPa) = 69.58771 63.02323 50.91224
#
# Poissons Ratio (x) = 0.56303 0.22166
# Poissons Ratio (y) = 0.62168 0.09514
# Poissons Ratio (z) = 0.30297 0.11777
#
# Static dielectric constant tensor:
#      x y z
#    x 3.862360 0.000000 0.000000 
#    y 0.000000 3.285360 0.000000 
#    z 0.000000 0.000000 3.364440 
# 
# 
# High freq. dielectric constant tensor:
#      x y z
#    x 1.648450 0.000000 0.000000 
#    y 0.000000 1.637640 0.000000 
#    z 0.000000 0.000000 1.647980 
# 
# From -- ./inp_files/10677.got.cif
#   From: 2010.03.12/outbox.cif.g09.slc.cpg/sg63_6_cif.got.tgz:10677.got - 2010.04.10 19:34:48.
