data_PCOD8255539
_publ_section_title
;
Structure prediction by ZEFSAII (Michael W. Deem and Ramdas Pophale) SiO2 
 PCOD8255539
Probable space group: C M C M
;
_chemical_formula_sum "Si O2"
_cell_formula_units_Z 96
_cell_length_a 18.336163
_cell_length_b 17.179126
_cell_length_c 15.443237
_cell_angle_alpha 90.000000
_cell_angle_beta 90.000000
_cell_angle_gamma 90.000000
_cell_volume 4864.608143
_symmetry_space_group_name_H-M "C M C M"
_symmetry_group_IT_number 63
_symmetry_cell_setting 'orthorhombic'
loop_
_space_group_symop_operation_xyz
x,y,z
-x,-y,1/2+z
x,-y,-z
-x,y,1/2-z
-x,-y,-z
x,y,1/2-z
-x,y,z
x,-y,1/2+z
1/2+x,1/2+y,z
1/2-x,1/2-y,1/2+z
1/2+x,1/2-y,-z
1/2-x,1/2+y,1/2-z
1/2-x,1/2-y,-z
1/2+x,1/2+y,1/2-z
1/2-x,1/2+y,z
1/2+x,1/2-y,1/2+z
loop_
_atom_site_type_symbol
_atom_site_label
_atom_site_fract_x
_atom_site_fract_y
_atom_site_fract_z
Si Si1 0.175422 0.142925 0.845823
Si Si2 0.918129 0.005043 0.853205
Si Si3 0.086476 0.257570 0.750000
Si Si4 0.581659 0.667801 0.147285
Si Si5 0.086483 0.534117 0.909283
Si Si6 0.913341 0.566623 0.250000
Si Si7 0.332200 0.184388 0.646251
O O1 0.198615 0.113459 0.750000
O O2 0.136275 0.070130 0.894435
O O3 0.118185 0.214866 0.836060
O O4 0.250134 0.171727 0.890798
O O5 0.919037 0.014314 0.750000
O O6 0.000000 0.019957 0.888229
O O7 0.892116 0.081377 0.118451
O O8 0.116064 0.345465 0.750000
O O9 0.000000 0.251679 0.750000
O O10 0.578862 0.670811 0.250000
O O11 0.500000 0.684530 0.111516
O O12 0.638224 0.732202 0.111768
O O13 0.116735 0.477194 0.834578
O O14 0.116510 0.619921 0.895503
O O15 0.000000 0.539723 0.906111
O O16 0.114293 0.500000 0.000000
O O17 0.000000 0.567459 0.250000
O O18 0.336592 0.181547 0.750000
#
# Coordination Sequence:
#
# PCOD8255539 Si02
#       7
#    16  16   8  16  16   8  16
#     4   8  16  25  39  70  96 135 169 205 262 311
#     4   8  12  22  38  60  92 124 167 214 250 299
#     4   9  16  29  48  71 104 139 178 225 262 309
#     4   8  14  22  37  59  86 126 161 200 255 306
#     4  10  20  34  54  77 104 144 187 224 267 322
#     4   9  18  33  52  77 103 133 182 225 263 311
#     4  10  17  29  43  71 105 135 163 210 265 325
#
# _framework density 19.734375
#
# number of rings (size 3 to 8) (size 9 to 14) (size 15 to 20)
#    0.500    2.667    0.833    2.000    0.000    0.667 
#    3.000    0.000    0.000    1.000    0.000    0.000 
#    0.000    1.333    0.000    0.000    0.000    0.000 
#
# Total GULP energy -594715.226060 kJ/mol
# GULP energy per Si atom -12389.900543 kJ/mol
# Density = 1.968946 g / cm^3
# Si number density = 19.734375 Si / 1000 Ang^3
#
#
#
# Elastic Constant Matrix: (Units=GPa)
#
#
# Indices 1 2 3 4 5 6 
#
# 1 96.9901 73.8211 13.7317 0.0000 0.0000 0.0000
# 2 73.8211 162.8042 22.8260 0.0000 0.0000 0.0000
# 3 13.7317 22.8260 45.5487 0.0000 0.0000 0.0000
# 4 0.0000 0.0000 0.0000 -1.4284 0.0000 0.0000
# 5 0.0000 0.0000 0.0000 0.0000 5.4906 0.0000
# 6 0.0000 0.0000 0.0000 0.0000 0.0000 25.1773
#
#
#
# Elastic Compliance Matrix: (Units=1/GPa)
#
#
# Indices 1 2 3 4 5 6 
#
# 1 0.015811 -0.006992 -0.001263 0.000000 0.000000 0.000000
# 2 -0.006992 0.009699 -0.002752 0.000000 0.000000 0.000000
# 3 -0.001263 -0.002752 0.023714 0.000000 0.000000 0.000000
# 4 0.000000 0.000000 0.000000 -0.700082 0.000000 0.000000
# 5 0.000000 0.000000 0.000000 0.000000 0.182128 0.000000
# 6 0.000000 0.000000 0.000000 0.000000 0.000000 0.039718
#
#
# Mechanical properties :
#
#
# Convention : Reuss Voigt Hill
#
# Bulk Modulus (GPa) = 36.75136 58.45562 47.60349
# Shear Modulus (GPa) = -12.56512 18.84551 3.14020
#
# Velocity S-wave (km/s) = -2.52605 3.09359 1.26281
# Velocity P-wave (km/s) = 3.18677 6.51506 5.12842
#
# Compressibility (1/GPa) = 0.02720987
#
# Stress axis : x y z
#
# Youngs Moduli (GPa) = 63.24700 103.10562 42.16833
#
# Poissons Ratio (x) = 0.72094 0.05324
# Poissons Ratio (y) = 0.44224 0.11607
# Poissons Ratio (z) = 0.07985 0.28379
#
# Static dielectric constant tensor:
#      x y z
#    x 3.595110 0.000000 0.000000 
#    y 0.000000 3.890000 0.000000 
#    z 0.000000 0.000000 3.009960 
# 
# 
# High freq. dielectric constant tensor:
#      x y z
#    x 1.757750 0.000000 0.000000 
#    y 0.000000 1.782240 0.000000 
#    z 0.000000 0.000000 1.704620 
# 
# From -- ./inp_files/22808.got.cif
#   From: 2010.03.12/outbox.cif.g09.slc.cpg/sg63_12_cif.got.tgz:22808.got - 2010.04.10 19:34:48.
