data_PCOD8255297
_publ_section_title
;
Structure prediction by ZEFSAII (Michael W. Deem and Ramdas Pophale) SiO2 
 PCOD8255297
Probable space group: P N M A
;
_chemical_formula_sum "Si O2"
_cell_formula_units_Z 64
_cell_length_a 29.325150
_cell_length_b 13.877373
_cell_length_c 7.919279
_cell_angle_alpha 90.000000
_cell_angle_beta 90.000000
_cell_angle_gamma 90.000000
_cell_volume 3222.798460
_symmetry_space_group_name_H-M "P N M A"
_symmetry_group_IT_number 62
_symmetry_cell_setting 'orthorhombic'
loop_
_space_group_symop_operation_xyz
x,y,z
1/2-x,-y,1/2+z
1/2+x,1/2-y,1/2-z
-x,1/2+y,-z
-x,-y,-z
1/2+x,y,1/2-z
1/2-x,1/2+y,1/2+z
x,1/2-y,z
loop_
_atom_site_type_symbol
_atom_site_label
_atom_site_fract_x
_atom_site_fract_y
_atom_site_fract_z
Si Si1 0.751016 0.640882 0.698226
Si Si2 0.004336 0.639842 0.432504
Si Si3 0.426750 0.056059 0.508631
Si Si4 0.812414 0.471183 0.692751
Si Si5 0.103787 0.856861 0.343130
Si Si6 0.993707 0.544869 0.771743
Si Si7 0.830508 0.022567 0.078397
Si Si8 0.768626 0.643064 0.093443
O O1 0.761097 0.750000 0.638214
O O2 0.788260 0.567306 0.613348
O O3 0.699445 0.612612 0.645013
O O4 0.755110 0.630251 0.898338
O O5 0.990946 0.750000 0.381714
O O6 0.058986 0.629009 0.456858
O O7 0.982102 0.612896 0.612785
O O8 0.989175 0.562335 0.290168
O O9 0.410262 0.135331 0.644517
O O10 0.467048 0.093664 0.386355
O O11 0.384372 0.030855 0.383576
O O12 0.447471 0.965809 0.616977
O O13 0.858033 0.434692 0.595319
O O14 0.776034 0.384724 0.699108
O O15 0.828435 0.491128 0.879353
O O16 0.124202 0.750000 0.368546
O O17 0.810027 0.924415 0.155566
O O18 0.783924 0.750000 0.138555
#
# Coordination Sequence:
#
# PCOD8255297 Si02
#       8
#     8   8   8   8   8   8   8   8
#     4   9  18  31  47  69  98 130 163 201 240 283
#     4   9  18  33  53  75  98 129 167 204 247 299
#     4   9  18  32  49  72 100 130 162 200 255 301
#     4   9  17  30  48  68  96 131 162 195 242 291
#     4   9  17  29  48  75 103 129 163 207 249 291
#     4   9  18  34  53  71 100 131 158 205 255 301
#     4   9  18  31  47  69  95 124 161 202 240 285
#     4   9  17  30  46  65  92 127 163 196 237 285
#
# _framework density 19.858516000000002
#
# number of rings (size 3 to 8) (size 9 to 14) (size 15 to 20)
#    0.000    3.000    0.000    0.375    0.000    4.000 
#    0.000    4.375    0.000   12.000    0.000    0.000 
#    0.000    0.000    0.000    0.000    0.000    0.000 
#
# Total GULP energy -792882.263909 kJ/mol
# GULP energy per Si atom -12388.785374 kJ/mol
# Density = 1.981332 g / cm^3
# Si number density = 19.858516 Si / 1000 Ang^3
#
#
#
# Elastic Constant Matrix: (Units=GPa)
#
#
# Indices 1 2 3 4 5 6 
#
# 1 89.6622 28.5642 7.1044 0.0000 0.0000 0.0000
# 2 28.5642 108.2035 3.5066 0.0000 0.0000 0.0000
# 3 7.1044 3.5066 19.6443 0.0000 0.0000 0.0000
# 4 0.0000 0.0000 0.0000 20.1938 0.0000 0.0000
# 5 0.0000 0.0000 0.0000 0.0000 22.8725 0.0000
# 6 0.0000 0.0000 0.0000 0.0000 0.0000 19.3236
#
#
#
# Elastic Compliance Matrix: (Units=1/GPa)
#
#
# Indices 1 2 3 4 5 6 
#
# 1 0.012474 -0.003165 -0.003946 0.000000 0.000000 0.000000
# 2 -0.003165 0.010099 -0.000658 0.000000 0.000000 0.000000
# 3 -0.003946 -0.000658 0.052450 0.000000 0.000000 0.000000
# 4 0.000000 0.000000 0.000000 0.049520 0.000000 0.000000
# 5 0.000000 0.000000 0.000000 0.000000 0.043721 0.000000
# 6 0.000000 0.000000 0.000000 0.000000 0.000000 0.051750
#
#
# Mechanical properties :
#
#
# Convention : Reuss Voigt Hill
#
# Bulk Modulus (GPa) = 16.81123 32.87339 24.84231
# Shear Modulus (GPa) = 19.57862 24.36695 21.97279
#
# Velocity S-wave (km/s) = 3.14332 3.50670 3.32997
# Velocity P-wave (km/s) = 4.65380 5.74331 5.22702
#
# Compressibility (1/GPa) = 0.05948404
#
# Stress axis : x y z
#
# Youngs Moduli (GPa) = 80.16691 99.02264 19.06575
#
# Poissons Ratio (x) = 0.31341 0.07524
# Poissons Ratio (y) = 0.25373 0.01255
# Poissons Ratio (z) = 0.31636 0.06516
#
# Static dielectric constant tensor:
#      x y z
#    x 3.832070 0.000000 0.000000 
#    y 0.000000 3.648830 0.000000 
#    z 0.000000 0.000000 3.384590 
# 
# 
# High freq. dielectric constant tensor:
#      x y z
#    x 1.763420 0.000000 0.000000 
#    y 0.000000 1.758040 0.000000 
#    z 0.000000 0.000000 1.755800 
# 
# From -- ./inp_files/10538.got.cif
#   From: 2010.03.12/outbox.cif.g09.slc.cpg/sg62_6_cif.got.tgz:10538.got - 2010.04.10 19:12:36.
