data_PCOD8255682
_publ_section_title
;
Structure prediction by ZEFSAII (Michael W. Deem and Ramdas Pophale) SiO2 
 PCOD8255682
Probable space group: C M C M
;
_chemical_formula_sum "Si O2"
_cell_formula_units_Z 80
_cell_length_a 14.480694
_cell_length_b 23.432212
_cell_length_c 14.171793
_cell_angle_alpha 90.000000
_cell_angle_beta 90.000000
_cell_angle_gamma 90.000000
_cell_volume 4808.697573
_symmetry_space_group_name_H-M "C M C M"
_symmetry_group_IT_number 63
_symmetry_cell_setting 'orthorhombic'
loop_
_space_group_symop_operation_xyz
x,y,z
-x,-y,1/2+z
x,-y,-z
-x,y,1/2-z
-x,-y,-z
x,y,1/2-z
-x,y,z
x,-y,1/2+z
1/2+x,1/2+y,z
1/2-x,1/2-y,1/2+z
1/2+x,1/2-y,-z
1/2-x,1/2+y,1/2-z
1/2-x,1/2-y,-z
1/2+x,1/2+y,1/2-z
1/2-x,1/2+y,z
1/2+x,1/2-y,1/2+z
loop_
_atom_site_type_symbol
_atom_site_label
_atom_site_fract_x
_atom_site_fract_y
_atom_site_fract_z
Si Si1 0.290006 0.083999 0.139659
Si Si2 0.105449 0.470255 0.358798
Si Si3 0.608527 0.241641 0.645045
Si Si4 0.891589 0.639376 0.519616
Si Si5 0.899410 0.868089 0.861258
O O1 0.306351 0.096664 0.250000
O O2 0.180972 0.086982 0.112452
O O3 0.328180 0.022043 0.111287
O O4 0.343530 0.133029 0.082083
O O5 0.118289 0.453869 0.250000
O O6 0.134253 0.415634 0.418327
O O7 0.000000 0.489165 0.379614
O O8 0.652569 0.234082 0.750000
O O9 0.500000 0.230930 0.653824
O O10 0.649653 0.194734 0.572992
O O11 0.628089 0.304669 0.602575
O O12 0.000000 0.645047 0.502841
O O13 0.909806 0.862658 0.750000
O O14 0.000000 0.887282 0.903043
#
# Coordination Sequence:
#
# PCOD8255682 Si02
#       5
#    16  16  16  16  16
#     4  10  19  28  40  60  86 114 140 165 199 246
#     4   9  17  29  44  62  85 111 138 168 200 238
#     4   8  14  26  44  64  83 104 136 176 209 236
#     4  10  18  27  42  63  87 114 138 162 199 245
#     4   8  15  29  46  61  79 104 137 179 216 238
#
# _framework density 16.636521999999999
#
# number of rings (size 3 to 8) (size 9 to 14) (size 15 to 20)
#    0.000    3.000    0.000    3.000    0.000    6.000 
#    0.000    0.000    0.000    2.400    0.000    0.000 
#    0.000    2.400    0.000    2.000    0.000    0.000 
#
# Total GULP energy -495743.297571 kJ/mol
# GULP energy per Si atom -12393.582439 kJ/mol
# Density = 1.659866 g / cm^3
# Si number density = 16.636522 Si / 1000 Ang^3
#
#
#
# Elastic Constant Matrix: (Units=GPa)
#
#
# Indices 1 2 3 4 5 6 
#
# 1 79.3335 50.2641 19.4845 0.0000 0.0000 0.0000
# 2 50.2641 72.8225 13.2697 0.0000 0.0000 0.0000
# 3 19.4845 13.2697 33.4565 0.0000 0.0000 0.0000
# 4 0.0000 0.0000 0.0000 13.8490 0.0000 0.0000
# 5 0.0000 0.0000 0.0000 0.0000 14.5353 0.0000
# 6 0.0000 0.0000 0.0000 0.0000 0.0000 11.5845
#
#
#
# Elastic Compliance Matrix: (Units=1/GPa)
#
#
# Indices 1 2 3 4 5 6 
#
# 1 0.024269 -0.015280 -0.008073 0.000000 0.000000 0.000000
# 2 -0.015280 0.024422 -0.000788 0.000000 0.000000 0.000000
# 3 -0.008073 -0.000788 0.034904 0.000000 0.000000 0.000000
# 4 0.000000 0.000000 0.000000 0.072207 0.000000 0.000000
# 5 0.000000 0.000000 0.000000 0.000000 0.068798 0.000000
# 6 0.000000 0.000000 0.000000 0.000000 0.000000 0.086322
#
#
# Mechanical properties :
#
#
# Convention : Reuss Voigt Hill
#
# Bulk Modulus (GPa) = 28.31830 39.07211 33.69521
# Shear Modulus (GPa) = 13.47798 14.83338 14.15568
#
# Velocity S-wave (km/s) = 2.84939 2.98923 2.92015
# Velocity P-wave (km/s) = 5.28054 5.95405 5.62738
#
# Compressibility (1/GPa) = 0.03531285
#
# Stress axis : x y z
#
# Youngs Moduli (GPa) = 41.20490 40.94628 28.65023
#
# Poissons Ratio (x) = 0.62566 0.23130
# Poissons Ratio (y) = 0.62961 0.02257
# Poissons Ratio (z) = 0.33266 0.03225
#
# Static dielectric constant tensor:
#      x y z
#    x 3.120100 0.000000 0.000000 
#    y 0.000000 3.149140 0.000000 
#    z 0.000000 0.000000 3.106370 
# 
# 
# High freq. dielectric constant tensor:
#      x y z
#    x 1.614700 0.000000 0.000000 
#    y 0.000000 1.632060 0.000000 
#    z 0.000000 0.000000 1.626920 
# 
# From -- ./inp_files/29731.got.cif
#   From: 2010.03.12/outbox.cif.g09.slc.cpg/sg63_15_cif.got.tgz:29731.got - 2010.04.10 19:34:48.
