data_PCOD8255599
_publ_section_title
;
Structure prediction by ZEFSAII (Michael W. Deem and Ramdas Pophale) SiO2 
 PCOD8255599
Probable space group: C M C M
;
_chemical_formula_sum "Si O2"
_cell_formula_units_Z 80
_cell_length_a 18.054696
_cell_length_b 14.520989
_cell_length_c 15.507189
_cell_angle_alpha 90.000000
_cell_angle_beta 90.000000
_cell_angle_gamma 90.000000
_cell_volume 4065.551406
_symmetry_space_group_name_H-M "C M C M"
_symmetry_group_IT_number 63
_symmetry_cell_setting 'orthorhombic'
loop_
_space_group_symop_operation_xyz
x,y,z
-x,-y,1/2+z
x,-y,-z
-x,y,1/2-z
-x,-y,-z
x,y,1/2-z
-x,y,z
x,-y,1/2+z
1/2+x,1/2+y,z
1/2-x,1/2-y,1/2+z
1/2+x,1/2-y,-z
1/2-x,1/2+y,1/2-z
1/2-x,1/2-y,-z
1/2+x,1/2+y,1/2-z
1/2-x,1/2+y,z
1/2+x,1/2-y,1/2+z
loop_
_atom_site_type_symbol
_atom_site_label
_atom_site_fract_x
_atom_site_fract_y
_atom_site_fract_z
Si Si1 0.338152 0.094668 0.079700
Si Si2 0.329095 0.601174 0.010884
Si Si3 0.142720 0.235408 0.154672
Si Si4 0.810760 0.218483 0.846387
Si Si5 0.416253 0.082681 0.595101
O O1 0.346440 0.179879 0.144670
O O2 0.360101 0.998681 0.127661
O O3 0.255885 0.091296 0.040384
O O4 0.396851 0.108106 0.003174
O O5 0.341119 0.650180 0.918919
O O6 0.364128 0.500000 0.000000
O O7 0.375101 0.657420 0.083512
O O8 0.135838 0.190867 0.250000
O O9 0.223842 0.274902 0.137144
O O10 0.089594 0.323919 0.150183
O O11 0.828917 0.181635 0.750000
O O12 0.500000 0.046319 0.602220
#
# Coordination Sequence:
#
# PCOD8255599 Si02
#       5
#    16  16  16  16  16
#     4  10  17  33  51  81 111 144 179 219 270 326
#     4  11  18  33  57  76 110 143 176 237 282 312
#     4  10  20  34  51  79 111 143 182 221 274 333
#     4  10  19  32  54  78 108 143 180 229 280 325
#     4  11  20  33  56  82 115 153 183 212 263 336
#
# _framework density 19.677527000000001
#
# number of rings (size 3 to 8) (size 9 to 14) (size 15 to 20)
#    0.000    1.600    6.000    2.400    0.000    2.000 
#    0.000    4.000    0.000    2.400    0.000    0.000 
#    0.000    0.000    0.000    0.000    0.000    0.000 
#
# Total GULP energy -495776.591177 kJ/mol
# GULP energy per Si atom -12394.414779 kJ/mol
# Density = 1.963274 g / cm^3
# Si number density = 19.677527 Si / 1000 Ang^3
#
#
#
# Elastic Constant Matrix: (Units=GPa)
#
#
# Indices 1 2 3 4 5 6 
#
# 1 44.3161 20.5816 -4.7190 0.0000 0.0000 0.0000
# 2 20.5816 150.1145 60.3369 0.0000 0.0000 0.0000
# 3 -4.7190 60.3369 104.7225 0.0000 0.0000 0.0000
# 4 0.0000 0.0000 0.0000 15.0102 0.0000 0.0000
# 5 0.0000 0.0000 0.0000 0.0000 7.6743 0.0000
# 6 0.0000 0.0000 0.0000 0.0000 0.0000 18.2047
#
#
#
# Elastic Compliance Matrix: (Units=1/GPa)
#
#
# Indices 1 2 3 4 5 6 
#
# 1 0.025383 -0.005127 0.004098 0.000000 0.000000 0.000000
# 2 -0.005127 0.009705 -0.005823 0.000000 0.000000 0.000000
# 3 0.004098 -0.005823 0.013088 0.000000 0.000000 0.000000
# 4 0.000000 0.000000 0.000000 0.066621 0.000000 0.000000
# 5 0.000000 0.000000 0.000000 0.000000 0.130306 0.000000
# 6 0.000000 0.000000 0.000000 0.000000 0.000000 0.054931
#
#
# Mechanical properties :
#
#
# Convention : Reuss Voigt Hill
#
# Bulk Modulus (GPa) = 29.00889 50.17247 39.59068
# Shear Modulus (GPa) = 15.37382 23.04142 19.20762
#
# Velocity S-wave (km/s) = 2.79819 3.42563 3.12768
# Velocity P-wave (km/s) = 5.02135 6.41867 5.76252
#
# Compressibility (1/GPa) = 0.03447219
#
# Stress axis : x y z
#
# Youngs Moduli (GPa) = 39.39687 103.04078 76.40315
#
# Poissons Ratio (x) = 0.52831 -0.31309
# Poissons Ratio (y) = 0.20200 0.44487
# Poissons Ratio (z) = -0.16144 0.59997
#
# Static dielectric constant tensor:
#      x y z
#    x 3.161610 0.000000 0.000000 
#    y 0.000000 3.891150 0.000000 
#    z 0.000000 0.000000 3.550550 
# 
# 
# High freq. dielectric constant tensor:
#      x y z
#    x 1.711820 0.000000 0.000000 
#    y 0.000000 1.771880 0.000000 
#    z 0.000000 0.000000 1.761910 
# 
# From -- ./inp_files/45409.got.cif
#   From: 2010.03.12/outbox.cif.g09.slc.cpg/sg63_23_cif.got.tgz:45409.got - 2010.04.10 19:34:48.
