data_PCOD8255322
_publ_section_title
;
Structure prediction by ZEFSAII (Michael W. Deem and Ramdas Pophale) SiO2 
 PCOD8255322
Probable space group: P N M A
;
_chemical_formula_sum "Si O2"
_cell_formula_units_Z 64
_cell_length_a 15.000000
_cell_length_b 9.000000
_cell_length_c 24.000000
_cell_angle_alpha 90.000000
_cell_angle_beta 90.000000
_cell_angle_gamma 90.000000
_cell_volume 3240.000000
_symmetry_space_group_name_H-M "P N M A"
_symmetry_group_IT_number 62
_symmetry_cell_setting 'orthorhombic'
loop_
_space_group_symop_operation_xyz
x,y,z
1/2-x,-y,1/2+z
1/2+x,1/2-y,1/2-z
-x,1/2+y,-z
-x,-y,-z
1/2+x,y,1/2-z
1/2-x,1/2+y,1/2+z
x,1/2-y,z
loop_
_atom_site_type_symbol
_atom_site_label
_atom_site_fract_x
_atom_site_fract_y
_atom_site_fract_z
Si Si1 0.318748 0.078896 0.703253
Si Si2 0.047661 0.571506 0.947295
Si Si3 0.837506 0.920209 0.596092
Si Si4 0.528008 0.924215 0.941692
Si Si5 0.221109 0.425638 0.983961
Si Si6 0.479969 0.927567 0.332451
Si Si7 0.712111 0.424198 0.911016
Si Si8 0.289886 0.073777 0.300604
O O1 0.311071 0.250000 0.721903
O O2 0.425681 0.038390 0.699743
O O3 0.263974 0.053491 0.646535
O O4 0.265510 0.977266 0.746799
O O5 0.040853 0.750000 0.948161
O O6 0.149092 0.516532 0.947907
O O7 0.003845 0.505976 0.891716
O O8 0.000000 0.500000 0.000000
O O9 0.815800 0.750000 0.579321
O O10 0.778584 0.966578 0.649489
O O11 0.944953 0.938242 0.602315
O O12 0.813942 0.033201 0.545759
O O13 0.551051 0.750000 0.952031
O O14 0.612925 0.004080 0.912675
O O15 0.500000 0.000000 0.000000
O O16 0.201457 0.250000 0.984064
O O17 0.223922 0.488714 0.046200
O O18 0.467568 0.750000 0.338926
O O19 0.388215 0.994204 0.304821
O O20 0.704136 0.250000 0.926354
O O21 0.308082 0.250000 0.297911
#
# Coordination Sequence:
#
# PCOD8255322 Si02
#       8
#     8   8   8   8   8   8   8   8
#     4  10  25  46  67  93 128 172 217 267 324 381
#     4  12  24  39  61  93 132 171 214 263 323 388
#     4  10  22  40  61  88 126 167 209 265 321 380
#     4  11  22  37  60  91 129 171 216 265 325 391
#     4  12  23  36  61  93 125 166 212 262 320 386
#     4  11  23  43  69  97 130 171 218 267 323 385
#     4  11  23  41  63  90 130 173 215 271 330 389
#     4  11  24  43  69  97 128 170 217 270 326 381
#
# _framework density 19.753086
#
# number of rings (size 3 to 8) (size 9 to 14) (size 15 to 20)
#    0.000    1.000    2.500    4.500    0.000    5.000 
#    0.000    2.500    0.000    0.000    0.000    0.000 
#    0.000    0.000    0.000    0.000    0.000    0.000 
#
# Total GULP energy -793249.042300 kJ/mol
# GULP energy per Si atom -12394.516286 kJ/mol
# Density = 1.970813 g / cm^3
# Si number density = 19.753086 Si / 1000 Ang^3
#
#
#
# Elastic Constant Matrix: (Units=GPa)
#
#
# Indices 1 2 3 4 5 6 
#
# 1 150.9813 50.4919 42.5197 0.0000 0.0000 0.0000
# 2 50.4919 159.7729 46.4428 0.0000 0.0000 0.0000
# 3 42.5197 46.4428 94.2094 0.0000 0.0000 0.0000
# 4 0.0000 0.0000 0.0000 36.7343 0.0000 0.0000
# 5 0.0000 0.0000 0.0000 0.0000 42.9185 0.0000
# 6 0.0000 0.0000 0.0000 0.0000 0.0000 43.2037
#
#
#
# Elastic Compliance Matrix: (Units=1/GPa)
#
#
# Indices 1 2 3 4 5 6 
#
# 1 0.007973 -0.001720 -0.002751 0.000000 0.000000 0.000000
# 2 -0.001720 0.007677 -0.003008 0.000000 0.000000 0.000000
# 3 -0.002751 -0.003008 0.013339 0.000000 0.000000 0.000000
# 4 0.000000 0.000000 0.000000 0.027223 0.000000 0.000000
# 5 0.000000 0.000000 0.000000 0.000000 0.023300 0.000000
# 6 0.000000 0.000000 0.000000 0.000000 0.000000 0.023146
#
#
# Mechanical properties :
#
#
# Convention : Reuss Voigt Hill
#
# Bulk Modulus (GPa) = 71.26896 75.98583 73.62740
# Shear Modulus (GPa) = 40.88551 42.27191 41.57871
#
# Velocity S-wave (km/s) = 4.55447 4.63105 4.59292
# Velocity P-wave (km/s) = 7.98848 8.19432 8.09205
#
# Compressibility (1/GPa) = 0.01403135
#
# Stress axis : x y z
#
# Youngs Moduli (GPa) = 125.41969 130.26079 74.96816
#
# Poissons Ratio (x) = 0.22407 0.20620
# Poissons Ratio (y) = 0.21575 0.22551
# Poissons Ratio (z) = 0.34497 0.39184
#
# Static dielectric constant tensor:
#      x y z
#    x 4.206840 0.000000 0.000000 
#    y 0.000000 3.881780 0.000000 
#    z 0.000000 0.000000 3.569190 
# 
# 
# High freq. dielectric constant tensor:
#      x y z
#    x 1.811040 0.000000 0.000000 
#    y 0.000000 1.795990 0.000000 
#    z 0.000000 0.000000 1.765440 
# 
# From -- ./inp_files/29767.got.cif
#   From: 2010.03.12/outbox.ucp.g09.slc.cvg/sg62_15_cif.got.tgz:29767.got - 2010.05.04 19:35:18.
