data_PCOD8255825
_publ_section_title
;
Structure prediction by ZEFSAII (Michael W. Deem and Ramdas Pophale) SiO2 
 PCOD8255825
Probable space group: C M C M
;
_chemical_formula_sum "Si O2"
_cell_formula_units_Z 96
_cell_length_a 12.133380
_cell_length_b 25.263472
_cell_length_c 16.327994
_cell_angle_alpha 90.000000
_cell_angle_beta 90.000000
_cell_angle_gamma 90.000000
_cell_volume 5005.041323
_symmetry_space_group_name_H-M "C M C M"
_symmetry_group_IT_number 63
_symmetry_cell_setting 'orthorhombic'
loop_
_space_group_symop_operation_xyz
x,y,z
-x,-y,1/2+z
x,-y,-z
-x,y,1/2-z
-x,-y,-z
x,y,1/2-z
-x,y,z
x,-y,1/2+z
1/2+x,1/2+y,z
1/2-x,1/2-y,1/2+z
1/2+x,1/2-y,-z
1/2-x,1/2+y,1/2-z
1/2-x,1/2-y,-z
1/2+x,1/2+y,1/2-z
1/2-x,1/2+y,z
1/2+x,1/2-y,1/2+z
loop_
_atom_site_type_symbol
_atom_site_label
_atom_site_fract_x
_atom_site_fract_y
_atom_site_fract_z
Si Si1 0.377042 0.265888 0.347422
Si Si2 0.372929 0.615976 0.653381
Si Si3 0.775910 0.014981 0.594348
Si Si4 0.622455 0.929587 0.845662
Si Si5 0.000000 0.025312 0.409906
Si Si6 0.500000 0.362820 0.654195
Si Si7 0.239203 0.830966 0.846385
O O1 0.373627 0.266452 0.250000
O O2 0.500000 0.250970 0.377031
O O3 0.345529 0.324743 0.378224
O O4 0.293487 0.222152 0.384134
O O5 0.355493 0.611207 0.750000
O O6 0.500000 0.601423 0.630426
O O7 0.283723 0.578186 0.608005
O O8 0.769164 0.000000 0.500000
O O9 0.672013 0.987952 0.637999
O O10 0.888760 0.992915 0.636014
O O11 0.611852 0.921146 0.750000
O O12 0.500000 0.926091 0.885219
O O13 0.701437 0.883625 0.883227
O O14 0.000000 0.088598 0.408787
O O15 0.000000 0.000000 0.500000
O O16 0.500000 0.381204 0.750000
O O17 0.390870 0.329092 0.633632
O O18 0.259022 0.831299 0.750000
#
# Coordination Sequence:
#
# PCOD8255825 Si02
#       7
#    16  16  16  16   8   8  16
#     4   8  14  26  45  70  98 128 163 203 246 291
#     4   9  17  29  49  75 101 132 170 209 246 291
#     4  11  21  33  50  73 102 135 167 208 255 301
#     4  10  20  33  51  75  99 127 165 208 253 300
#     4  10  20  32  46  72 102 136 168 198 250 300
#     4  10  18  28  48  78 104 130 163 204 258 307
#     4   9  16  27  46  73 101 125 155 202 254 301
#
# _framework density 19.18066
#
# number of rings (size 3 to 8) (size 9 to 14) (size 15 to 20)
#    0.000    2.500    2.500    2.000    0.000    3.000 
#    0.000    0.000    1.833    1.000    0.000    0.000 
#    0.000    0.000    0.000    0.000    0.000    0.000 
#
# Total GULP energy -594821.792131 kJ/mol
# GULP energy per Si atom -12392.120669 kJ/mol
# Density = 1.913700 g / cm^3
# Si number density = 19.180660 Si / 1000 Ang^3
#
#
#
# Elastic Constant Matrix: (Units=GPa)
#
#
# Indices 1 2 3 4 5 6 
#
# 1 151.7208 83.2692 15.3065 0.0000 0.0000 0.0000
# 2 83.2692 160.2631 20.1775 0.0000 0.0000 0.0000
# 3 15.3065 20.1775 22.6112 0.0000 0.0000 0.0000
# 4 0.0000 0.0000 0.0000 13.7703 0.0000 0.0000
# 5 0.0000 0.0000 0.0000 0.0000 11.1215 0.0000
# 6 0.0000 0.0000 0.0000 0.0000 0.0000 34.3703
#
#
#
# Elastic Compliance Matrix: (Units=1/GPa)
#
#
# Indices 1 2 3 4 5 6 
#
# 1 0.009320 -0.004560 -0.002239 0.000000 0.000000 0.000000
# 2 -0.004560 0.009261 -0.005177 0.000000 0.000000 0.000000
# 3 -0.002239 -0.005177 0.050362 0.000000 0.000000 0.000000
# 4 0.000000 0.000000 0.000000 0.072620 0.000000 0.000000
# 5 0.000000 0.000000 0.000000 0.000000 0.089916 0.000000
# 6 0.000000 0.000000 0.000000 0.000000 0.000000 0.029095
#
#
# Mechanical properties :
#
#
# Convention : Reuss Voigt Hill
#
# Bulk Modulus (GPa) = 22.22778 63.56683 42.89731
# Shear Modulus (GPa) = 16.69317 26.24188 21.46753
#
# Velocity S-wave (km/s) = 2.95331 3.70285 3.34912
# Velocity P-wave (km/s) = 4.82112 7.17597 6.11301
#
# Compressibility (1/GPa) = 0.04498874
#
# Stress axis : x y z
#
# Youngs Moduli (GPa) = 107.29716 107.97893 19.85632
#
# Poissons Ratio (x) = 0.49243 0.04447
# Poissons Ratio (y) = 0.48933 0.10280
# Poissons Ratio (z) = 0.24029 0.55902
#
# Static dielectric constant tensor:
#      x y z
#    x 3.769820 0.000000 0.000000 
#    y 0.000000 3.792770 0.000000 
#    z 0.000000 0.000000 2.929950 
# 
# 
# High freq. dielectric constant tensor:
#      x y z
#    x 1.737700 0.000000 0.000000 
#    y 0.000000 1.749460 0.000000 
#    z 0.000000 0.000000 1.693620 
# 
# From -- ./inp_files/42731.got.cif
#   From: 2010.03.12/outbox.cif.g09.slc.cpg/sg63_22_cif.got.tgz:42731.got - 2010.04.10 19:34:48.
