data_PCOD8255841
_publ_section_title
;
Structure prediction by ZEFSAII (Michael W. Deem and Ramdas Pophale) SiO2 
 PCOD8255841
Probable space group: C M C M
;
_chemical_formula_sum "Si O2"
_cell_formula_units_Z 96
_cell_length_a 14.092832
_cell_length_b 16.807116
_cell_length_c 27.018487
_cell_angle_alpha 90.000000
_cell_angle_beta 90.000000
_cell_angle_gamma 90.000000
_cell_volume 6399.595107
_symmetry_space_group_name_H-M "C M C M"
_symmetry_group_IT_number 63
_symmetry_cell_setting 'orthorhombic'
loop_
_space_group_symop_operation_xyz
x,y,z
-x,-y,1/2+z
x,-y,-z
-x,y,1/2-z
-x,-y,-z
x,y,1/2-z
-x,y,z
x,-y,1/2+z
1/2+x,1/2+y,z
1/2-x,1/2-y,1/2+z
1/2+x,1/2-y,-z
1/2-x,1/2+y,1/2-z
1/2-x,1/2-y,-z
1/2+x,1/2+y,1/2-z
1/2-x,1/2+y,z
1/2+x,1/2-y,1/2+z
loop_
_atom_site_type_symbol
_atom_site_label
_atom_site_fract_x
_atom_site_fract_y
_atom_site_fract_z
Si Si1 0.887245 0.719886 0.195691
Si Si2 0.889151 0.671545 0.089675
Si Si3 0.894667 0.834012 0.035182
Si Si4 0.763308 0.923768 0.965451
Si Si5 0.111688 0.897686 0.195630
Si Si6 0.394310 0.486477 0.396097
O O1 0.854803 0.684833 0.250000
O O2 0.854725 0.669020 0.147600
O O3 0.845228 0.809125 0.190166
O O4 0.000000 0.725722 0.195111
O O5 0.865382 0.758075 0.067544
O O6 0.835486 0.605595 0.057375
O O7 0.000000 0.651561 0.085813
O O8 0.000000 0.821208 0.011470
O O9 0.899462 0.909826 0.069782
O O10 0.815207 0.851148 0.993755
O O11 0.830728 0.945617 0.919853
O O12 0.742792 0.000000 0.000000
O O13 0.134180 0.931889 0.250000
O O14 0.000000 0.892082 0.185311
O O15 0.154052 0.959324 0.155727
O O16 0.500000 0.521915 0.388827
#
# Coordination Sequence:
#
# PCOD8255841 Si02
#       6
#    16  16  16  16  16  16
#     4   8  13  23  41  63  81  98 126 166 208 241
#     4  10  18  29  44  60  81 109 139 171 200 231
#     4   9  16  28  45  62  78 102 138 173 204 235
#     4  10  20  29  39  58  85 114 138 163 197 239
#     4   8  12  20  38  62  83 101 124 159 205 251
#     4   9  15  26  42  61  84 106 129 162 205 247
#
# _framework density 15.000949
#
# number of rings (size 3 to 8) (size 9 to 14) (size 15 to 20)
#    0.000    3.000    1.667    2.000    0.000    2.333 
#    0.000    0.833    0.000    0.000    0.000    0.000 
#    0.000    0.000    0.000    4.000    0.000    0.667 
#
# Total GULP energy -594665.272612 kJ/mol
# GULP energy per Si atom -12388.859846 kJ/mol
# Density = 1.496681 g / cm^3
# Si number density = 15.000949 Si / 1000 Ang^3
#
#
#
# Elastic Constant Matrix: (Units=GPa)
#
#
# Indices 1 2 3 4 5 6 
#
# 1 49.0352 23.9190 39.3549 0.0000 0.0000 0.0000
# 2 23.9190 33.2429 23.9918 0.0000 0.0000 0.0000
# 3 39.3549 23.9918 108.2812 0.0000 0.0000 0.0000
# 4 0.0000 0.0000 0.0000 20.1569 0.0000 0.0000
# 5 0.0000 0.0000 0.0000 0.0000 6.3714 0.0000
# 6 0.0000 0.0000 0.0000 0.0000 0.0000 8.1297
#
#
#
# Elastic Compliance Matrix: (Units=1/GPa)
#
#
# Indices 1 2 3 4 5 6 
#
# 1 0.037794 -0.020569 -0.009179 0.000000 0.000000 0.000000
# 2 -0.020569 0.047002 -0.002938 0.000000 0.000000 0.000000
# 3 -0.009179 -0.002938 0.013222 0.000000 0.000000 0.000000
# 4 0.000000 0.000000 0.000000 0.049611 0.000000 0.000000
# 5 0.000000 0.000000 0.000000 0.000000 0.156951 0.000000
# 6 0.000000 0.000000 0.000000 0.000000 0.000000 0.123006
#
#
# Mechanical properties :
#
#
# Convention : Reuss Voigt Hill
#
# Bulk Modulus (GPa) = 30.63177 40.56566 35.59871
# Shear Modulus (GPa) = 9.92379 13.81784 11.87082
#
# Velocity S-wave (km/s) = 2.57484 3.03831 2.81612
# Velocity P-wave (km/s) = 5.41331 6.27767 5.86145
#
# Compressibility (1/GPa) = 0.03264585
#
# Stress axis : x y z
#
# Youngs Moduli (GPa) = 26.45952 21.27563 75.62996
#
# Poissons Ratio (x) = 0.43762 0.69418
# Poissons Ratio (y) = 0.54425 0.22223
# Poissons Ratio (z) = 0.24286 0.06252
#
# Static dielectric constant tensor:
#      x y z
#    x 2.604140 0.000000 0.000000 
#    y 0.000000 2.680960 0.000000 
#    z 0.000000 0.000000 3.307330 
# 
# 
# High freq. dielectric constant tensor:
#      x y z
#    x 1.529510 0.000000 0.000000 
#    y 0.000000 1.545960 0.000000 
#    z 0.000000 0.000000 1.588830 
# 
# From -- ./inp_files/68292.got.cif
#   From: 2010.03.12/outbox.cif.g09.slc.cpg/sg63_35_cif.got.tgz:68292.got - 2010.04.10 19:34:48.
