data_PCOD8255319
_publ_section_title
;
Structure prediction by ZEFSAII (Michael W. Deem and Ramdas Pophale) SiO2 
 PCOD8255319
Probable space group: P N M A
;
_chemical_formula_sum "Si O2"
_cell_formula_units_Z 40
_cell_length_a 15.000000
_cell_length_b 9.000000
_cell_length_c 15.000000
_cell_angle_alpha 90.000000
_cell_angle_beta 90.000000
_cell_angle_gamma 90.000000
_cell_volume 2025.000000
_symmetry_space_group_name_H-M "P N M A"
_symmetry_group_IT_number 62
_symmetry_cell_setting 'orthorhombic'
loop_
_space_group_symop_operation_xyz
x,y,z
1/2-x,-y,1/2+z
1/2+x,1/2-y,1/2-z
-x,1/2+y,-z
-x,-y,-z
1/2+x,y,1/2-z
1/2-x,1/2+y,1/2+z
x,1/2-y,z
loop_
_atom_site_type_symbol
_atom_site_label
_atom_site_fract_x
_atom_site_fract_y
_atom_site_fract_z
Si Si1 0.525539 0.924422 0.728067
Si Si2 0.152195 0.928074 0.169733
Si Si3 0.727034 0.926114 0.676425
Si Si4 0.444742 0.081203 0.073664
Si Si5 0.252738 0.923275 0.511374
O O1 0.502248 0.750000 0.719683
O O2 0.622008 0.957799 0.685993
O O3 0.527939 0.979198 0.829933
O O4 0.450400 0.023374 0.681361
O O5 0.160493 0.750000 0.173525
O O6 0.215999 0.000797 0.244148
O O7 0.176643 0.988015 0.071524
O O8 0.746979 0.750000 0.676580
O O9 0.757482 0.000206 0.584462
O O10 0.473077 0.250000 0.065495
O O11 0.340068 0.060317 0.062258
O O12 0.500000 0.000000 0.000000
O O13 0.280079 0.750000 0.501119
#
# Coordination Sequence:
#
# PCOD8255319 Si02
#       5
#     8   8   8   8   8
#     4  10  22  42  65  88 124 171 214 262 320 382
#     4  12  25  41  64  96 130 170 216 265 323 385
#     4  11  23  43  67  94 128 170 216 267 325 384
#     4  10  21  38  61  91 123 161 208 259 317 375
#     4  11  23  42  65  93 128 170 215 265 321 383
#
# _framework density 19.753086
#
# number of rings (size 3 to 8) (size 9 to 14) (size 15 to 20)
#    0.000    1.200    2.000    4.200    0.000    8.000 
#    0.000    0.000    0.000    0.000    0.000    0.000 
#    0.000    0.000    0.000    0.000    0.000    0.000 
#
# Total GULP energy -496104.300985 kJ/mol
# GULP energy per Si atom -12402.607525 kJ/mol
# Density = 1.970813 g / cm^3
# Si number density = 19.753086 Si / 1000 Ang^3
#
#
#
# Elastic Constant Matrix: (Units=GPa)
#
#
# Indices 1 2 3 4 5 6 
#
# 1 67.1783 31.8508 -9.5939 0.0000 0.0000 0.0000
# 2 31.8508 128.2864 23.7640 0.0000 0.0000 0.0000
# 3 -9.5939 23.7640 64.9198 0.0000 0.0000 0.0000
# 4 0.0000 0.0000 0.0000 39.9078 0.0000 0.0000
# 5 0.0000 0.0000 0.0000 0.0000 42.5828 0.0000
# 6 0.0000 0.0000 0.0000 0.0000 0.0000 37.3482
#
#
#
# Elastic Compliance Matrix: (Units=1/GPa)
#
#
# Indices 1 2 3 4 5 6 
#
# 1 0.018082 -0.005347 0.004629 0.000000 0.000000 0.000000
# 2 -0.005347 0.009943 -0.004430 0.000000 0.000000 0.000000
# 3 0.004629 -0.004430 0.017709 0.000000 0.000000 0.000000
# 4 0.000000 0.000000 0.000000 0.025058 0.000000 0.000000
# 5 0.000000 0.000000 0.000000 0.000000 0.023484 0.000000
# 6 0.000000 0.000000 0.000000 0.000000 0.000000 0.026775
#
#
# Mechanical properties :
#
#
# Convention : Reuss Voigt Hill
#
# Bulk Modulus (GPa) = 28.21695 39.15848 33.68771
# Shear Modulus (GPa) = 34.92617 38.25864 36.59241
#
# Velocity S-wave (km/s) = 4.20948 4.40573 4.30873
# Velocity P-wave (km/s) = 6.15972 6.76370 6.46877
#
# Compressibility (1/GPa) = 0.03543969
#
# Stress axis : x y z
#
# Youngs Moduli (GPa) = 55.30362 100.57129 56.46741
#
# Poissons Ratio (x) = 0.53775 -0.26141
# Poissons Ratio (y) = 0.29571 0.25014
# Poissons Ratio (z) = -0.25602 0.44552
#
# Static dielectric constant tensor:
#      x y z
#    x 3.744850 0.000000 0.000000 
#    y 0.000000 3.929050 0.000000 
#    z 0.000000 0.000000 3.804220 
# 
# 
# High freq. dielectric constant tensor:
#      x y z
#    x 1.785510 0.000000 0.000000 
#    y 0.000000 1.781780 0.000000 
#    z 0.000000 0.000000 1.785880 
# 
# From -- ./inp_files/18589.got.cif
#   From: 2010.03.12/outbox.ucp.g09.slc.cvg/sg62_10_cif.got.tgz:18589.got - 2010.05.04 19:35:18.
