data_PCOD8255397
_publ_section_title
;
Structure prediction by ZEFSAII (Michael W. Deem and Ramdas Pophale) SiO2 
 PCOD8255397
Probable space group: C M C M
;
_chemical_formula_sum "Si O2"
_cell_formula_units_Z 72
_cell_length_a 13.694128
_cell_length_b 12.910137
_cell_length_c 22.536989
_cell_angle_alpha 90.000000
_cell_angle_beta 90.000000
_cell_angle_gamma 90.000000
_cell_volume 3984.383442
_symmetry_space_group_name_H-M "C M C M"
_symmetry_group_IT_number 63
_symmetry_cell_setting 'orthorhombic'
loop_
_space_group_symop_operation_xyz
x,y,z
-x,-y,1/2+z
x,-y,-z
-x,y,1/2-z
-x,-y,-z
x,y,1/2-z
-x,y,z
x,-y,1/2+z
1/2+x,1/2+y,z
1/2-x,1/2-y,1/2+z
1/2+x,1/2-y,-z
1/2-x,1/2+y,1/2-z
1/2-x,1/2-y,-z
1/2+x,1/2+y,1/2-z
1/2-x,1/2+y,z
1/2+x,1/2-y,1/2+z
loop_
_atom_site_type_symbol
_atom_site_label
_atom_site_fract_x
_atom_site_fract_y
_atom_site_fract_z
Si Si1 0.295096 0.527218 0.750000
Si Si2 0.106559 0.354786 0.250000
Si Si3 0.609445 0.237129 0.877265
Si Si4 0.735025 0.882603 0.846260
Si Si5 0.617224 0.245601 0.250000
Si Si6 0.386691 0.980202 0.065718
O O1 0.179538 0.550238 0.750000
O O2 0.308208 0.456414 0.808258
O O3 0.361301 0.630134 0.750000
O O4 0.121439 0.284052 0.192766
O O5 0.000000 0.407268 0.250000
O O6 0.500000 0.278018 0.890889
O O7 0.692443 0.321316 0.890822
O O8 0.632331 0.138289 0.917350
O O9 0.667177 0.805399 0.807588
O O10 0.664524 0.948289 0.886812
O O11 0.500000 0.229588 0.250000
O O12 0.500000 0.008767 0.068458
O O13 0.344608 0.000000 0.000000
#
# Coordination Sequence:
#
# PCOD8255397 Si02
#       6
#     8   8  16  16   8  16
#     4  11  20  33  50  79 110 132 164 206 255 304
#     4  10  16  30  53  74 101 132 163 204 247 300
#     4  10  20  35  54  78 103 133 175 212 250 310
#     4  11  20  34  56  76 103 140 172 206 259 309
#     4  11  22  33  49  79 111 134 163 208 256 308
#     4  10  21  36  54  76 102 134 176 222 260 300
#
# _framework density 18.070550000000001
#
# number of rings (size 3 to 8) (size 9 to 14) (size 15 to 20)
#    0.000    1.556    4.444    1.333    0.000    3.556 
#    0.000    0.000    0.000    0.667    0.000    0.000 
#    0.000    0.000    0.000    0.000    0.000    0.000 
#
# Total GULP energy -446272.811960 kJ/mol
# GULP energy per Si atom -12396.466999 kJ/mol
# Density = 1.802942 g / cm^3
# Si number density = 18.070550 Si / 1000 Ang^3
#
#
#
# Elastic Constant Matrix: (Units=GPa)
#
#
# Indices 1 2 3 4 5 6 
#
# 1 91.8472 43.6270 10.4734 0.0000 0.0000 0.0000
# 2 43.6270 75.9932 22.7381 0.0000 0.0000 0.0000
# 3 10.4734 22.7381 73.7474 0.0000 0.0000 0.0000
# 4 0.0000 0.0000 0.0000 -9.8686 0.0000 0.0000
# 5 0.0000 0.0000 0.0000 0.0000 6.4127 0.0000
# 6 0.0000 0.0000 0.0000 0.0000 0.0000 32.1744
#
#
#
# Elastic Compliance Matrix: (Units=1/GPa)
#
#
# Indices 1 2 3 4 5 6 
#
# 1 0.014992 -0.008780 0.000578 0.000000 0.000000 0.000000
# 2 -0.008780 0.019638 -0.004808 0.000000 0.000000 0.000000
# 3 0.000578 -0.004808 0.014960 0.000000 0.000000 0.000000
# 4 0.000000 0.000000 0.000000 -0.101331 0.000000 0.000000
# 5 0.000000 0.000000 0.000000 0.000000 0.155941 0.000000
# 6 0.000000 0.000000 0.000000 0.000000 0.000000 0.031081
#
#
# Mechanical properties :
#
#
# Convention : Reuss Voigt Hill
#
# Bulk Modulus (GPa) = 42.42582 43.91832 43.17207
# Shear Modulus (GPa) = 29.55835 16.72698 23.14267
#
# Velocity S-wave (km/s) = 4.04879 3.04575 3.58255
# Velocity P-wave (km/s) = 6.73690 6.06014 6.40746
#
# Compressibility (1/GPa) = 0.02357055
#
# Stress axis : x y z
#
# Youngs Moduli (GPa) = 66.70193 50.92159 66.84419
#
# Poissons Ratio (x) = 0.44708 -0.03863
# Poissons Ratio (y) = 0.58562 0.32139
# Poissons Ratio (z) = -0.03854 0.24483
#
# Static dielectric constant tensor:
#      x y z
#    x 3.419770 0.000000 0.000000 
#    y 0.000000 3.343610 0.000000 
#    z 0.000000 0.000000 3.919330 
# 
# 
# High freq. dielectric constant tensor:
#      x y z
#    x 1.698500 0.000000 0.000000 
#    y 0.000000 1.700660 0.000000 
#    z 0.000000 0.000000 1.682860 
# 
# From -- ./inp_files/62500.got.cif
#   From: 2010.03.12/outbox.cif.g09.slc.cpg/sg63_32_cif.got.tgz:62500.got - 2010.04.10 19:34:48.
