data_PCOD8255013
_publ_section_title
;
Structure prediction by ZEFSAII (Michael W. Deem and Ramdas Pophale) SiO2 
 PCOD8255013
Probable space group: P N M A
;
_chemical_formula_sum "Si O2"
_cell_formula_units_Z 48
_cell_length_a 14.785578
_cell_length_b 8.854674
_cell_length_c 20.081245
_cell_angle_alpha 90.000000
_cell_angle_beta 90.000000
_cell_angle_gamma 90.000000
_cell_volume 2629.066177
_symmetry_space_group_name_H-M "P N M A"
_symmetry_group_IT_number 62
_symmetry_cell_setting 'orthorhombic'
loop_
_space_group_symop_operation_xyz
x,y,z
1/2-x,-y,1/2+z
1/2+x,1/2-y,1/2-z
-x,1/2+y,-z
-x,-y,-z
1/2+x,y,1/2-z
1/2-x,1/2+y,1/2+z
x,1/2-y,z
loop_
_atom_site_type_symbol
_atom_site_label
_atom_site_fract_x
_atom_site_fract_y
_atom_site_fract_z
Si Si1 0.621083 0.427933 0.811432
Si Si2 0.307415 0.571792 0.664493
Si Si3 0.508341 0.928606 0.308389
Si Si4 0.077456 0.424575 0.541953
Si Si5 0.556759 0.924867 0.558137
Si Si6 0.277735 0.422433 0.527599
O O1 0.639364 0.250000 0.811694
O O2 0.717220 0.508823 0.800707
O O3 0.552952 0.477536 0.753837
O O4 0.578021 0.481221 0.881586
O O5 0.309204 0.750000 0.671581
O O6 0.393981 0.503354 0.702236
O O7 0.314630 0.527445 0.586781
O O8 0.519772 0.750000 0.313621
O O9 0.458334 0.987833 0.373834
O O10 0.056039 0.250000 0.539616
O O11 0.174656 0.464155 0.509137
O O12 0.000000 0.500000 0.500000
O O13 0.528721 0.750000 0.566256
O O14 0.662303 0.942080 0.538460
O O15 0.500000 0.000000 0.500000
O O16 0.282232 0.250000 0.554435
#
# Coordination Sequence:
#
# PCOD8255013 Si02
#       6
#     8   8   8   8   8   8
#     4   9  21  41  60  78 110 153 192 227 278 344
#     4  11  21  34  58  85 110 143 186 235 281 334
#     4  11  22  38  59  81 113 153 190 234 282 341
#     4   9  18  36  59  82 106 142 186 228 276 331
#     4  11  21  34  56  85 116 148 186 233 281 334
#     4   9  19  36  56  77 111 150 183 222 277 341
#
# _framework density 18.257434
#
# number of rings (size 3 to 8) (size 9 to 14) (size 15 to 20)
#    0.000    2.000    1.667    3.500    0.000    4.667 
#    3.000    0.000    0.000    0.000    0.000    0.000 
#    0.000    0.000    0.000    0.000    0.000    0.000 
#
# Total GULP energy -595243.336967 kJ/mol
# GULP energy per Si atom -12400.902853 kJ/mol
# Density = 1.821588 g / cm^3
# Si number density = 18.257434 Si / 1000 Ang^3
#
#
#
# Elastic Constant Matrix: (Units=GPa)
#
#
# Indices 1 2 3 4 5 6 
#
# 1 164.9882 64.0614 90.0389 0.0000 0.0000 0.0000
# 2 64.0614 88.3893 46.5068 0.0000 0.0000 0.0000
# 3 90.0389 46.5068 111.4443 0.0000 0.0000 0.0000
# 4 0.0000 0.0000 0.0000 28.6561 0.0000 0.0000
# 5 0.0000 0.0000 0.0000 0.0000 35.1594 0.0000
# 6 0.0000 0.0000 0.0000 0.0000 0.0000 32.8950
#
#
#
# Elastic Compliance Matrix: (Units=1/GPa)
#
#
# Indices 1 2 3 4 5 6 
#
# 1 0.012184 -0.004678 -0.007892 0.000000 0.000000 0.000000
# 2 -0.004678 0.016293 -0.003019 0.000000 0.000000 0.000000
# 3 -0.007892 -0.003019 0.016609 0.000000 0.000000 0.000000
# 4 0.000000 0.000000 0.000000 0.034897 0.000000 0.000000
# 5 0.000000 0.000000 0.000000 0.000000 0.028442 0.000000
# 6 0.000000 0.000000 0.000000 0.000000 0.000000 0.030400
#
#
# Mechanical properties :
#
#
# Convention : Reuss Voigt Hill
#
# Bulk Modulus (GPa) = 71.90457 85.11511 78.50984
# Shear Modulus (GPa) = 28.63042 30.28974 29.46008
#
# Velocity S-wave (km/s) = 3.96428 4.07755 4.02131
# Velocity P-wave (km/s) = 7.77324 8.29995 8.04091
#
# Compressibility (1/GPa) = 0.01390732
#
# Stress axis : x y z
#
# Youngs Moduli (GPa) = 82.07278 61.37589 60.20833
#
# Poissons Ratio (x) = 0.28715 0.47514
# Poissons Ratio (y) = 0.38398 0.18179
# Poissons Ratio (z) = 0.64769 0.18532
#
# Static dielectric constant tensor:
#      x y z
#    x 3.654690 0.000000 0.000000 
#    y 0.000000 3.482120 0.000000 
#    z 0.000000 0.000000 3.287950 
# 
# 
# High freq. dielectric constant tensor:
#      x y z
#    x 1.721140 0.000000 0.000000 
#    y 0.000000 1.711390 0.000000 
#    z 0.000000 0.000000 1.689130 
# 
# From -- ./inp_files/26860.got.cif
#   From: 2010.03.12/outbox.cif.g09.slc.cpg/sg62_14_cif.got.tgz:26860.got - 2010.04.10 19:12:36.
