data_PCOD8255876
_publ_section_title
;
Structure prediction by ZEFSAII (Michael W. Deem and Ramdas Pophale) SiO2 
 PCOD8255876
Probable space group: C M C M
;
_chemical_formula_sum "Si O2"
_cell_formula_units_Z 80
_cell_length_a 23.295006
_cell_length_b 24.346031
_cell_length_c 8.769211
_cell_angle_alpha 90.000000
_cell_angle_beta 90.000000
_cell_angle_gamma 90.000000
_cell_volume 4973.378554
_symmetry_space_group_name_H-M "C M C M"
_symmetry_group_IT_number 63
_symmetry_cell_setting 'orthorhombic'
loop_
_space_group_symop_operation_xyz
x,y,z
-x,-y,1/2+z
x,-y,-z
-x,y,1/2-z
-x,-y,-z
x,y,1/2-z
-x,y,z
x,-y,1/2+z
1/2+x,1/2+y,z
1/2-x,1/2-y,1/2+z
1/2+x,1/2-y,-z
1/2-x,1/2+y,1/2-z
1/2-x,1/2-y,-z
1/2+x,1/2+y,1/2-z
1/2-x,1/2+y,z
1/2+x,1/2-y,1/2+z
loop_
_atom_site_type_symbol
_atom_site_label
_atom_site_fract_x
_atom_site_fract_y
_atom_site_fract_z
Si Si1 0.934500 0.661088 0.424847
Si Si2 0.339728 0.228100 0.926150
Si Si3 0.740344 0.946094 0.573418
Si Si4 0.233977 0.827585 0.575046
Si Si5 0.616259 0.944080 0.069796
O O1 0.920659 0.647025 0.250000
O O2 0.895415 0.712240 0.476828
O O3 0.923007 0.607088 0.524225
O O4 0.000000 0.679520 0.447785
O O5 0.354635 0.219060 0.750000
O O6 0.322568 0.291481 0.962132
O O7 0.286206 0.189317 0.966836
O O8 0.729032 0.957902 0.750000
O O9 0.780010 0.892132 0.548963
O O10 0.679856 0.934690 0.493716
O O11 0.770446 0.000000 0.500000
O O12 0.253119 0.817047 0.750000
O O13 0.618208 0.949295 0.250000
O O14 0.589656 0.000000 0.000000
#
# Coordination Sequence:
#
# PCOD8255876 Si02
#       5
#    16  16  16  16  16
#     4  11  23  37  50  65  90 123 158 199 242 280
#     4  10  19  31  49  71  91 118 157 194 233 278
#     4  10  18  29  46  68  97 126 154 187 228 273
#     4   9  18  31  48  69  96 124 150 188 233 280
#     4  11  21  33  49  67  89 120 159 199 238 275
#
# _framework density 16.085645
#
# number of rings (size 3 to 8) (size 9 to 14) (size 15 to 20)
#    0.000    1.800    2.000    4.800    0.000    3.600 
#    0.000    0.000    0.000    0.000    0.000    0.000 
#    0.000    0.800    0.000    1.800    0.000    3.200 
#
# Total GULP energy -495947.432497 kJ/mol
# GULP energy per Si atom -12398.685812 kJ/mol
# Density = 1.604903 g / cm^3
# Si number density = 16.085645 Si / 1000 Ang^3
#
#
#
# Elastic Constant Matrix: (Units=GPa)
#
#
# Indices 1 2 3 4 5 6 
#
# 1 60.0840 50.8657 32.8468 0.0000 0.0000 0.0000
# 2 50.8657 128.5648 49.4548 0.0000 0.0000 0.0000
# 3 32.8468 49.4548 106.0342 0.0000 0.0000 0.0000
# 4 0.0000 0.0000 0.0000 25.9864 0.0000 0.0000
# 5 0.0000 0.0000 0.0000 0.0000 19.5313 0.0000
# 6 0.0000 0.0000 0.0000 0.0000 0.0000 23.8238
#
#
#
# Elastic Compliance Matrix: (Units=1/GPa)
#
#
# Indices 1 2 3 4 5 6 
#
# 1 0.026363 -0.008882 -0.004024 0.000000 0.000000 0.000000
# 2 -0.008882 0.012472 -0.003065 0.000000 0.000000 0.000000
# 3 -0.004024 -0.003065 0.012107 0.000000 0.000000 0.000000
# 4 0.000000 0.000000 0.000000 0.038482 0.000000 0.000000
# 5 0.000000 0.000000 0.000000 0.000000 0.051200 0.000000
# 6 0.000000 0.000000 0.000000 0.000000 0.000000 0.041975
#
#
# Mechanical properties :
#
#
# Convention : Reuss Voigt Hill
#
# Bulk Modulus (GPa) = 52.63566 62.33527 57.48546
# Shear Modulus (GPa) = 22.63743 24.63602 23.63672
#
# Velocity S-wave (km/s) = 3.75548 3.91775 3.83747
# Velocity P-wave (km/s) = 7.18317 7.70073 7.44645
#
# Compressibility (1/GPa) = 0.01899853
#
# Stress axis : x y z
#
# Youngs Moduli (GPa) = 37.93240 80.18264 82.59682
#
# Poissons Ratio (x) = 0.71221 0.33235
# Poissons Ratio (y) = 0.33693 0.25318
# Poissons Ratio (z) = 0.15263 0.24578
#
# Static dielectric constant tensor:
#      x y z
#    x 2.719540 0.000000 0.000000 
#    y 0.000000 3.376210 0.000000 
#    z 0.000000 0.000000 3.229550 
# 
# 
# High freq. dielectric constant tensor:
#      x y z
#    x 1.563120 0.000000 0.000000 
#    y 0.000000 1.623580 0.000000 
#    z 0.000000 0.000000 1.638810 
# 
# From -- ./inp_files/6370.got.cif
#   From: 2010.03.12/outbox.cif.g09.slc.cpg/sg63_4_cif.got.tgz:6370.got - 2010.04.10 19:34:48.
