data_PCOD8255961
_publ_section_title
;
Structure prediction by ZEFSAII (Michael W. Deem and Ramdas Pophale) SiO2 
 PCOD8255961
Probable space group: C M C M
;
_chemical_formula_sum "Si O2"
_cell_formula_units_Z 80
_cell_length_a 19.000238
_cell_length_b 32.772754
_cell_length_c 8.889097
_cell_angle_alpha 90.000000
_cell_angle_beta 90.000000
_cell_angle_gamma 90.000000
_cell_volume 5535.152930
_symmetry_space_group_name_H-M "C M C M"
_symmetry_group_IT_number 63
_symmetry_cell_setting 'orthorhombic'
loop_
_space_group_symop_operation_xyz
x,y,z
-x,-y,1/2+z
x,-y,-z
-x,y,1/2-z
-x,-y,-z
x,y,1/2-z
-x,y,z
x,-y,1/2+z
1/2+x,1/2+y,z
1/2-x,1/2-y,1/2+z
1/2+x,1/2-y,-z
1/2-x,1/2+y,1/2-z
1/2-x,1/2-y,-z
1/2+x,1/2+y,1/2-z
1/2-x,1/2+y,z
1/2+x,1/2-y,1/2+z
loop_
_atom_site_type_symbol
_atom_site_label
_atom_site_fract_x
_atom_site_fract_y
_atom_site_fract_z
Si Si1 0.774086 0.186199 0.074939
Si Si2 0.653522 0.229954 0.577474
Si Si3 0.000000 0.166405 0.926470
Si Si4 0.636665 0.379421 0.428752
Si Si5 0.000000 0.749369 0.578980
Si Si6 0.418993 0.542770 0.072778
O O1 0.775503 0.175915 0.250000
O O2 0.826564 0.223480 0.033492
O O3 0.694986 0.198241 0.026849
O O4 0.795429 0.145581 0.984550
O O5 0.675110 0.221972 0.750000
O O6 0.570213 0.222697 0.550642
O O7 0.931012 0.144789 0.992335
O O8 0.000000 0.161390 0.750000
O O9 0.000000 0.213491 0.965658
O O10 0.638548 0.383530 0.250000
O O11 0.633780 0.424091 0.501937
O O12 0.000000 0.766311 0.750000
O O13 0.407431 0.540330 0.250000
O O14 0.500000 0.553578 0.032072
O O15 0.397627 0.500000 0.000000
#
# Coordination Sequence:
#
# PCOD8255961 Si02
#       6
#    16  16   8  16   8  16
#     4  10  19  30  44  61  83 111 143 178 218 260
#     4   9  18  30  43  60  83 110 141 179 220 259
#     4  10  20  28  39  61  84 108 143 183 219 254
#     4  11  20  31  45  62  85 112 145 183 220 258
#     4  10  18  30  46  61  81 110 145 183 221 260
#     4  10  20  32  46  63  85 112 143 179 218 258
#
# _framework density 14.453079000000001
#
# number of rings (size 3 to 8) (size 9 to 14) (size 15 to 20)
#    0.000    2.000    3.000    1.800    0.000    3.200 
#    0.000    0.000    0.000    0.000    0.000    0.000 
#    0.000    0.000    0.000    0.900    0.000   11.400 
#
# Total GULP energy -496057.789508 kJ/mol
# GULP energy per Si atom -12401.444738 kJ/mol
# Density = 1.442018 g / cm^3
# Si number density = 14.453079 Si / 1000 Ang^3
#
#
#
# Elastic Constant Matrix: (Units=GPa)
#
#
# Indices 1 2 3 4 5 6 
#
# 1 79.0397 37.1534 27.2705 0.0000 0.0000 0.0000
# 2 37.1534 89.5029 41.4480 0.0000 0.0000 0.0000
# 3 27.2705 41.4480 64.6783 0.0000 0.0000 0.0000
# 4 0.0000 0.0000 0.0000 26.3099 0.0000 0.0000
# 5 0.0000 0.0000 0.0000 0.0000 19.1641 0.0000
# 6 0.0000 0.0000 0.0000 0.0000 0.0000 21.5921
#
#
#
# Elastic Compliance Matrix: (Units=1/GPa)
#
#
# Indices 1 2 3 4 5 6 
#
# 1 0.016289 -0.005093 -0.003605 0.000000 0.000000 0.000000
# 2 -0.005093 0.017480 -0.009054 0.000000 0.000000 0.000000
# 3 -0.003605 -0.009054 0.022783 0.000000 0.000000 0.000000
# 4 0.000000 0.000000 0.000000 0.038009 0.000000 0.000000
# 5 0.000000 0.000000 0.000000 0.000000 0.052181 0.000000
# 6 0.000000 0.000000 0.000000 0.000000 0.000000 0.046313
#
#
# Mechanical properties :
#
#
# Convention : Reuss Voigt Hill
#
# Bulk Modulus (GPa) = 47.50771 49.44052 48.47411
# Shear Modulus (GPa) = 21.22466 21.90314 21.56390
#
# Velocity S-wave (km/s) = 3.83629 3.89712 3.86682
# Velocity P-wave (km/s) = 7.25014 7.38457 7.31766
#
# Compressibility (1/GPa) = 0.02104921
#
# Stress axis : x y z
#
# Youngs Moduli (GPa) = 61.38967 57.20884 43.89171
#
# Poissons Ratio (x) = 0.29134 0.15821
# Poissons Ratio (y) = 0.31263 0.39741
# Poissons Ratio (z) = 0.22129 0.51799
#
# Static dielectric constant tensor:
#      x y z
#    x 2.733730 0.000000 0.000000 
#    y 0.000000 2.605680 0.000000 
#    z 0.000000 0.000000 2.819310 
# 
# 
# High freq. dielectric constant tensor:
#      x y z
#    x 1.526010 0.000000 0.000000 
#    y 0.000000 1.523630 0.000000 
#    z 0.000000 0.000000 1.565000 
# 
# From -- ./inp_files/6724.got.cif
#   From: 2010.03.12/outbox.cif.g09.slc.cpg/sg63_4_cif.got.tgz:6724.got - 2010.04.10 19:34:48.
