data_PCOD8255568
_publ_section_title
;
Structure prediction by ZEFSAII (Michael W. Deem and Ramdas Pophale) SiO2 
 PCOD8255568
Probable space group: C M C M
;
_chemical_formula_sum "Si O2"
_cell_formula_units_Z 104
_cell_length_a 28.527642
_cell_length_b 20.846086
_cell_length_c 9.716611
_cell_angle_alpha 90.000000
_cell_angle_beta 90.000000
_cell_angle_gamma 90.000000
_cell_volume 5778.368272
_symmetry_space_group_name_H-M "C M C M"
_symmetry_group_IT_number 63
_symmetry_cell_setting 'orthorhombic'
loop_
_space_group_symop_operation_xyz
x,y,z
-x,-y,1/2+z
x,-y,-z
-x,y,1/2-z
-x,-y,-z
x,y,1/2-z
-x,y,z
x,-y,1/2+z
1/2+x,1/2+y,z
1/2-x,1/2-y,1/2+z
1/2+x,1/2-y,-z
1/2-x,1/2+y,1/2-z
1/2-x,1/2-y,-z
1/2+x,1/2+y,1/2-z
1/2-x,1/2+y,z
1/2+x,1/2-y,1/2+z
loop_
_atom_site_type_symbol
_atom_site_label
_atom_site_fract_x
_atom_site_fract_y
_atom_site_fract_z
Si Si1 0.368244 0.199256 0.585148
Si Si2 0.212486 0.939903 0.589451
Si Si3 0.053444 0.061867 0.409639
Si Si4 0.051076 0.610447 0.905941
Si Si5 0.886323 0.500000 0.500000
Si Si6 0.683916 0.897164 0.904801
Si Si7 0.132683 0.156781 0.411490
O O1 0.361611 0.193563 0.750000
O O2 0.417507 0.168448 0.533629
O O3 0.327016 0.159220 0.512403
O O4 0.366356 0.271531 0.526994
O O5 0.206211 0.956905 0.750000
O O6 0.265638 0.923730 0.551629
O O7 0.180068 0.879885 0.546869
O O8 0.195456 0.000000 0.500000
O O9 0.063738 0.045127 0.250000
O O10 0.086901 0.118636 0.464180
O O11 0.000000 0.084636 0.430198
O O12 0.064821 0.000000 0.500000
O O13 0.041003 0.627315 0.750000
O O14 0.000000 0.606307 0.982043
O O15 0.079547 0.543950 0.909228
O O16 0.853541 0.544898 0.406291
O O17 0.685251 0.869189 0.750000
O O18 0.128591 0.164719 0.250000
#
# Coordination Sequence:
#
# PCOD8255568 Si02
#       7
#    16  16  16  16   8  16  16
#     4   9  19  34  51  70  96 132 167 201 242 293
#     4  10  20  34  52  75 100 128 163 204 247 292
#     4   9  17  30  50  75 100 128 163 204 250 298
#     4   9  17  28  45  70  95 121 160 204 241 282
#     4  10  17  30  48  68  96 130 161 198 244 298
#     4  10  20  33  50  72  98 128 163 204 245 293
#     4   9  18  33  51  72 100 131 164 203 246 290
#
# _framework density 17.998159999999999
#
# number of rings (size 3 to 8) (size 9 to 14) (size 15 to 20)
#    0.000    2.615    0.769    1.154    0.000    2.462 
#    0.000    4.615    0.000    4.154    0.000    0.000 
#    0.000    0.000    0.000    0.000    0.000    0.000 
#
# Total GULP energy -644562.342565 kJ/mol
# GULP energy per Si atom -12395.429665 kJ/mol
# Density = 1.795720 g / cm^3
# Si number density = 17.998160 Si / 1000 Ang^3
#
#
#
# Elastic Constant Matrix: (Units=GPa)
#
#
# Indices 1 2 3 4 5 6 
#
# 1 113.1514 66.6698 21.7644 0.0000 0.0000 0.0000
# 2 66.6698 150.9530 35.6174 0.0000 0.0000 0.0000
# 3 21.7644 35.6174 42.6893 0.0000 0.0000 0.0000
# 4 0.0000 0.0000 0.0000 24.6586 0.0000 0.0000
# 5 0.0000 0.0000 0.0000 0.0000 16.9299 0.0000
# 6 0.0000 0.0000 0.0000 0.0000 0.0000 19.1562
#
#
#
# Elastic Compliance Matrix: (Units=1/GPa)
#
#
# Indices 1 2 3 4 5 6 
#
# 1 0.012100 -0.004842 -0.002129 0.000000 0.000000 0.000000
# 2 -0.004842 0.010186 -0.006030 0.000000 0.000000 0.000000
# 3 -0.002129 -0.006030 0.029542 0.000000 0.000000 0.000000
# 4 0.000000 0.000000 0.000000 0.040554 0.000000 0.000000
# 5 0.000000 0.000000 0.000000 0.000000 0.059067 0.000000
# 6 0.000000 0.000000 0.000000 0.000000 0.000000 0.052202
#
#
# Mechanical properties :
#
#
# Convention : Reuss Voigt Hill
#
# Bulk Modulus (GPa) = 38.72139 61.65522 50.18831
# Shear Modulus (GPa) = 20.98537 24.33174 22.65856
#
# Velocity S-wave (km/s) = 3.41834 3.68081 3.55200
# Velocity P-wave (km/s) = 6.09433 7.23846 6.69089
#
# Compressibility (1/GPa) = 0.02582552
#
# Stress axis : x y z
#
# Youngs Moduli (GPa) = 82.64420 98.17684 33.85044
#
# Poissons Ratio (x) = 0.47534 0.07208
# Poissons Ratio (y) = 0.40014 0.20411
# Poissons Ratio (z) = 0.17598 0.59200
#
# Static dielectric constant tensor:
#      x y z
#    x 3.634280 0.000000 0.000000 
#    y 0.000000 3.427690 0.000000 
#    z 0.000000 0.000000 3.019330 
# 
# 
# High freq. dielectric constant tensor:
#      x y z
#    x 1.711700 0.000000 0.000000 
#    y 0.000000 1.693550 0.000000 
#    z 0.000000 0.000000 1.663540 
# 
# From -- ./inp_files/25065.got.cif
#   From: 2010.03.12/outbox.cif.g09.slc.cpg/sg63_13_cif.got.tgz:25065.got - 2010.04.10 19:34:48.
