data_PCOD8255736
_publ_section_title
;
Structure prediction by ZEFSAII (Michael W. Deem and Ramdas Pophale) SiO2 
 PCOD8255736
Probable space group: C M C M
;
_chemical_formula_sum "Si O2"
_cell_formula_units_Z 104
_cell_length_a 28.241109
_cell_length_b 24.228437
_cell_length_c 8.814056
_cell_angle_alpha 90.000000
_cell_angle_beta 90.000000
_cell_angle_gamma 90.000000
_cell_volume 6030.911434
_symmetry_space_group_name_H-M "C M C M"
_symmetry_group_IT_number 63
_symmetry_cell_setting 'orthorhombic'
loop_
_space_group_symop_operation_xyz
x,y,z
-x,-y,1/2+z
x,-y,-z
-x,y,1/2-z
-x,-y,-z
x,y,1/2-z
-x,y,z
x,-y,1/2+z
1/2+x,1/2+y,z
1/2-x,1/2-y,1/2+z
1/2+x,1/2-y,-z
1/2-x,1/2+y,1/2-z
1/2-x,1/2-y,-z
1/2+x,1/2+y,1/2-z
1/2-x,1/2+y,z
1/2+x,1/2-y,1/2+z
loop_
_atom_site_type_symbol
_atom_site_label
_atom_site_fract_x
_atom_site_fract_y
_atom_site_fract_z
Si Si1 0.589409 0.628408 0.430311
Si Si2 0.374112 0.939611 0.428915
Si Si3 0.000000 0.059918 0.430500
Si Si4 0.944711 0.755372 0.575405
Si Si5 0.322690 0.559717 0.427622
Si Si6 0.781324 0.559721 0.072284
Si Si7 0.944588 0.357594 0.924782
O O1 0.587702 0.628713 0.250000
O O2 0.546161 0.591758 0.492146
O O3 0.584266 0.691591 0.486156
O O4 0.638582 0.602671 0.492055
O O5 0.371348 0.945242 0.250000
O O6 0.325729 0.909960 0.491407
O O7 0.418576 0.902734 0.473979
O O8 0.380553 0.000000 0.500000
O O9 0.000000 0.055922 0.250000
O O10 0.000000 0.000000 0.500000
O O11 0.932629 0.741996 0.750000
O O12 0.928909 0.703514 0.474858
O O13 0.000000 0.769008 0.556948
O O14 0.330011 0.500000 0.500000
O O15 0.329902 0.550727 0.250000
O O16 0.270486 0.586116 0.460389
O O17 0.791888 0.556049 0.250000
O O18 0.779285 0.500000 0.000000
O O19 0.931035 0.366038 0.750000
O O20 0.000000 0.365867 0.954391
#
# Coordination Sequence:
#
# PCOD8255736 Si02
#       7
#    16  16   8  16  16  16  16
#     4   9  16  28  46  67  93 128 168 207 248 293
#     4  11  21  34  54  78 103 130 158 190 231 283
#     4  10  18  28  42  64  96 132 165 204 251 298
#     4   9  16  30  51  70  90 125 171 209 241 286
#     4   9  17  28  44  67  96 129 165 205 249 294
#     4   9  16  28  46  68  95 127 162 200 240 286
#     4  10  21  36  53  75 103 130 156 193 236 281
#
# _framework density 17.244492000000001
#
# number of rings (size 3 to 8) (size 9 to 14) (size 15 to 20)
#    0.000    2.462    0.769    3.692    0.000    1.846 
#    0.000    1.538    0.000    0.923    0.000    0.000 
#    0.000    0.000    0.000    0.000    0.000    0.000 
#
# Total GULP energy -644543.915531 kJ/mol
# GULP energy per Si atom -12395.075299 kJ/mol
# Density = 1.720524 g / cm^3
# Si number density = 17.244492 Si / 1000 Ang^3
#
#
#
# Elastic Constant Matrix: (Units=GPa)
#
#
# Indices 1 2 3 4 5 6 
#
# 1 109.7515 64.3893 45.3580 0.0000 0.0000 0.0000
# 2 64.3893 95.9734 36.5060 0.0000 0.0000 0.0000
# 3 45.3580 36.5060 77.8800 0.0000 0.0000 0.0000
# 4 0.0000 0.0000 0.0000 24.5533 0.0000 0.0000
# 5 0.0000 0.0000 0.0000 0.0000 19.9741 0.0000
# 6 0.0000 0.0000 0.0000 0.0000 0.0000 15.4084
#
#
#
# Elastic Compliance Matrix: (Units=1/GPa)
#
#
# Indices 1 2 3 4 5 6 
#
# 1 0.016737 -0.009153 -0.005457 0.000000 0.000000 0.000000
# 2 -0.009153 0.017686 -0.002960 0.000000 0.000000 0.000000
# 3 -0.005457 -0.002960 0.017406 0.000000 0.000000 0.000000
# 4 0.000000 0.000000 0.000000 0.040728 0.000000 0.000000
# 5 0.000000 0.000000 0.000000 0.000000 0.050065 0.000000
# 6 0.000000 0.000000 0.000000 0.000000 0.000000 0.064899
#
#
# Mechanical properties :
#
#
# Convention : Reuss Voigt Hill
#
# Bulk Modulus (GPa) = 59.91872 64.01238 61.96555
# Shear Modulus (GPa) = 20.14315 21.14393 20.64354
#
# Velocity S-wave (km/s) = 3.42144 3.50541 3.46368
# Velocity P-wave (km/s) = 7.10144 7.32017 7.21163
#
# Compressibility (1/GPa) = 0.01668927
#
# Stress axis : x y z
#
# Youngs Moduli (GPa) = 59.74877 56.54149 57.45202
#
# Poissons Ratio (x) = 0.51753 0.31353
# Poissons Ratio (y) = 0.54688 0.17003
# Poissons Ratio (z) = 0.32606 0.16734
#
# Static dielectric constant tensor:
#      x y z
#    x 3.857950 0.000000 0.000000 
#    y 0.000000 3.078280 0.000000 
#    z 0.000000 0.000000 2.953630 
# 
# 
# High freq. dielectric constant tensor:
#      x y z
#    x 1.671050 0.000000 0.000000 
#    y 0.000000 1.641410 0.000000 
#    z 0.000000 0.000000 1.658200 
# 
# From -- ./inp_files/12842.got.cif
#   From: 2010.03.12/outbox.cif.g09.slc.cpg/sg63_7_cif.got.tgz:12842.got - 2010.04.10 19:34:48.
