data_PCOD8255117
_publ_section_title
;
Structure prediction by ZEFSAII (Michael W. Deem and Ramdas Pophale) SiO2 
 PCOD8255117
Probable space group: P N M A
;
_chemical_formula_sum "Si O2"
_cell_formula_units_Z 48
_cell_length_a 8.541708
_cell_length_b 16.113563
_cell_length_c 16.075331
_cell_angle_alpha 90.000000
_cell_angle_beta 90.000000
_cell_angle_gamma 90.000000
_cell_volume 2212.565959
_symmetry_space_group_name_H-M "P N M A"
_symmetry_group_IT_number 62
_symmetry_cell_setting 'orthorhombic'
loop_
_space_group_symop_operation_xyz
x,y,z
1/2-x,-y,1/2+z
1/2+x,1/2-y,1/2-z
-x,1/2+y,-z
-x,-y,-z
1/2+x,y,1/2-z
1/2-x,1/2+y,1/2+z
x,1/2-y,z
loop_
_atom_site_type_symbol
_atom_site_label
_atom_site_fract_x
_atom_site_fract_y
_atom_site_fract_z
Si Si1 0.423142 0.159317 0.662835
Si Si2 0.397971 0.509632 0.580480
Si Si3 0.541782 0.343782 0.157074
Si Si4 0.403022 0.082453 0.005574
Si Si5 0.771356 0.109754 0.673178
Si Si6 0.149072 0.569594 0.795320
O O1 0.370643 0.250000 0.627261
O O2 0.347582 0.082559 0.612230
O O3 0.609871 0.156193 0.657108
O O4 0.375876 0.156328 0.759472
O O5 0.500000 0.500000 0.500000
O O6 0.251733 0.565343 0.558483
O O7 0.497740 0.562060 0.646314
O O8 0.515045 0.250000 0.186897
O O9 0.503365 0.351262 0.058601
O O10 0.420897 0.403298 0.206574
O O11 0.724423 0.365030 0.170891
O O12 0.367116 0.112984 0.912800
O O13 0.500000 0.000000 0.000000
O O14 0.738928 0.017873 0.709181
#
# Coordination Sequence:
#
# PCOD8255117 Si02
#       6
#     8   8   8   8   8   8
#     4  11  24  41  66  99 132 167 218 278 333 384
#     4  11  22  44  70  95 126 176 230 272 323 402
#     4  12  25  42  66 101 138 173 220 283 344 393
#     4  12  24  44  70  97 133 176 228 274 327 405
#     4  11  23  43  71  92 131 178 221 266 324 403
#     4  11  22  44  70  95 132 179 229 268 328 414
#
# _framework density 21.694267
#
# number of rings (size 3 to 8) (size 9 to 14) (size 15 to 20)
#    0.000    0.667    5.000    5.000    2.333    1.333 
#    0.000    5.000    0.000    0.000    0.000    0.000 
#    0.000    0.000    0.000    0.000    0.000    0.000 
#
# Total GULP energy -595162.255172 kJ/mol
# GULP energy per Si atom -12399.213649 kJ/mol
# Density = 2.164489 g / cm^3
# Si number density = 21.694267 Si / 1000 Ang^3
#
#
#
# Elastic Constant Matrix: (Units=GPa)
#
#
# Indices 1 2 3 4 5 6 
#
# 1 47.1515 -0.7071 -9.8273 0.0000 0.0000 0.0000
# 2 -0.7071 95.0435 28.5454 0.0000 0.0000 0.0000
# 3 -9.8273 28.5454 69.2050 0.0000 0.0000 0.0000
# 4 0.0000 0.0000 0.0000 21.4274 0.0000 0.0000
# 5 0.0000 0.0000 0.0000 0.0000 43.8482 0.0000
# 6 0.0000 0.0000 0.0000 0.0000 0.0000 18.0604
#
#
#
# Elastic Compliance Matrix: (Units=1/GPa)
#
#
# Indices 1 2 3 4 5 6 
#
# 1 0.021919 -0.000881 0.003476 0.000000 0.000000 0.000000
# 2 -0.000881 0.012045 -0.005093 0.000000 0.000000 0.000000
# 3 0.003476 -0.005093 0.017044 0.000000 0.000000 0.000000
# 4 0.000000 0.000000 0.000000 0.046669 0.000000 0.000000
# 5 0.000000 0.000000 0.000000 0.000000 0.022806 0.000000
# 6 0.000000 0.000000 0.000000 0.000000 0.000000 0.055370
#
#
# Mechanical properties :
#
#
# Convention : Reuss Voigt Hill
#
# Bulk Modulus (GPa) = 21.73343 27.49135 24.61239
# Shear Modulus (GPa) = 25.48591 29.55981 27.52286
#
# Velocity S-wave (km/s) = 3.43122 3.69530 3.56570
# Velocity P-wave (km/s) = 5.07321 5.55937 5.32185
#
# Compressibility (1/GPa) = 0.04601206
#
# Stress axis : x y z
#
# Youngs Moduli (GPa) = 45.62153 83.02452 58.67087
#
# Poissons Ratio (x) = 0.07314 -0.20394
# Poissons Ratio (y) = 0.04019 0.29882
# Poissons Ratio (z) = -0.15858 0.42286
#
# Static dielectric constant tensor:
#      x y z
#    x 1.664480 0.000000 0.000000 
#    y 0.000000 3.896350 0.000000 
#    z 0.000000 0.000000 4.008340 
# 
# 
# High freq. dielectric constant tensor:
#      x y z
#    x 1.862660 0.000000 0.000000 
#    y 0.000000 1.840050 0.000000 
#    z 0.000000 0.000000 1.860070 
# 
# From -- ./inp_files/16978.got.cif
#   From: 2010.03.12/outbox.cif.g09.slc.cpg/sg62_9_cif.got.tgz:16978.got - 2010.04.10 19:12:36.
