data_PCOD8255125
_publ_section_title
;
Structure prediction by ZEFSAII (Michael W. Deem and Ramdas Pophale) SiO2 
 PCOD8255125
Probable space group: P N M A
;
_chemical_formula_sum "Si O2"
_cell_formula_units_Z 48
_cell_length_a 16.752801
_cell_length_b 8.898529
_cell_length_c 16.747973
_cell_angle_alpha 90.000000
_cell_angle_beta 90.000000
_cell_angle_gamma 90.000000
_cell_volume 2496.708857
_symmetry_space_group_name_H-M "P N M A"
_symmetry_group_IT_number 62
_symmetry_cell_setting 'orthorhombic'
loop_
_space_group_symop_operation_xyz
x,y,z
1/2-x,-y,1/2+z
1/2+x,1/2-y,1/2-z
-x,1/2+y,-z
-x,-y,-z
1/2+x,y,1/2-z
1/2-x,1/2+y,1/2+z
x,1/2-y,z
loop_
_atom_site_type_symbol
_atom_site_label
_atom_site_fract_x
_atom_site_fract_y
_atom_site_fract_z
Si Si1 0.494956 0.073322 0.585905
Si Si2 0.813729 0.571539 0.648384
Si Si3 0.362388 0.424017 0.323517
Si Si4 0.827965 0.080790 0.358609
Si Si5 0.645936 0.076194 0.322417
Si Si6 0.414170 0.573284 0.001014
O O1 0.495983 0.250000 0.574976
O O2 0.500000 0.000000 0.500000
O O3 0.569124 0.024897 0.639553
O O4 0.413103 0.026143 0.627585
O O5 0.810436 0.750000 0.650689
O O6 0.722219 0.515577 0.642426
O O7 0.854673 0.517860 0.730810
O O8 0.863724 0.508710 0.573850
O O9 0.376404 0.250000 0.346329
O O10 0.364594 0.445426 0.228521
O O11 0.847506 0.250000 0.387118
O O12 0.733487 0.054718 0.359059
O O13 0.868360 0.963416 0.417819
O O14 0.618911 0.250000 0.327298
O O15 0.424327 0.750000 0.992876
O O16 0.500000 0.500000 0.000000
#
# Coordination Sequence:
#
# PCOD8255125 Si02
#       6
#     8   8   8   8   8   8
#     4  12  26  40  58  89 122 155 196 242 293 347
#     4   8  18  38  63  86 112 154 198 237 291 350
#     4   9  19  40  65  86 113 153 197 242 295 351
#     4   9  20  39  63  88 117 154 194 241 298 354
#     4   9  19  40  65  87 114 153 198 241 293 354
#     4  11  23  37  57  88 122 156 199 243 290 347
#
# _framework density 19.225308999999999
#
# number of rings (size 3 to 8) (size 9 to 14) (size 15 to 20)
#    0.000    2.333    0.000    4.000    4.667    1.333 
#    0.000    4.167    0.000    0.000    0.000    0.000 
#    0.000    0.000    0.000    0.000    0.000    0.000 
#
# Total GULP energy -595272.624057 kJ/mol
# GULP energy per Si atom -12401.513001 kJ/mol
# Density = 1.918155 g / cm^3
# Si number density = 19.225309 Si / 1000 Ang^3
#
#
#
# Elastic Constant Matrix: (Units=GPa)
#
#
# Indices 1 2 3 4 5 6 
#
# 1 118.6713 53.6472 76.3266 0.0000 0.0000 0.0000
# 2 53.6472 93.8595 51.0952 0.0000 0.0000 0.0000
# 3 76.3266 51.0952 116.7363 0.0000 0.0000 0.0000
# 4 0.0000 0.0000 0.0000 32.9965 0.0000 0.0000
# 5 0.0000 0.0000 0.0000 0.0000 32.3169 0.0000
# 6 0.0000 0.0000 0.0000 0.0000 0.0000 32.8161
#
#
#
# Elastic Compliance Matrix: (Units=1/GPa)
#
#
# Indices 1 2 3 4 5 6 
#
# 1 0.015864 -0.004491 -0.008407 0.000000 0.000000 0.000000
# 2 -0.004491 0.015258 -0.003742 0.000000 0.000000 0.000000
# 3 -0.008407 -0.003742 0.015701 0.000000 0.000000 0.000000
# 4 0.000000 0.000000 0.000000 0.030306 0.000000 0.000000
# 5 0.000000 0.000000 0.000000 0.000000 0.030944 0.000000
# 6 0.000000 0.000000 0.000000 0.000000 0.000000 0.030473
#
#
# Mechanical properties :
#
#
# Convention : Reuss Voigt Hill
#
# Bulk Modulus (GPa) = 73.83668 76.82278 75.32973
# Shear Modulus (GPa) = 28.35437 29.50575 28.93006
#
# Velocity S-wave (km/s) = 3.84454 3.92182 3.88337
# Velocity P-wave (km/s) = 7.62867 7.78161 7.70552
#
# Compressibility (1/GPa) = 0.01354340
#
# Stress axis : x y z
#
# Youngs Moduli (GPa) = 63.03671 65.53839 63.69050
#
# Poissons Ratio (x) = 0.29432 0.53543
# Poissons Ratio (y) = 0.28308 0.23835
# Poissons Ratio (z) = 0.52993 0.24526
#
# Static dielectric constant tensor:
#      x y z
#    x 3.634580 0.000000 0.000000 
#    y 0.000000 3.301360 0.000000 
#    z 0.000000 0.000000 3.714660 
# 
# 
# High freq. dielectric constant tensor:
#      x y z
#    x 1.760180 0.000000 0.000000 
#    y 0.000000 1.726320 0.000000 
#    z 0.000000 0.000000 1.757700 
# 
# From -- ./inp_files/23638.got.cif
#   From: 2010.03.12/outbox.cif.g09.slc.cpg/sg62_12_cif.got.tgz:23638.got - 2010.04.10 19:12:36.
