data_PCOD8255149
_publ_section_title
;
Structure prediction by ZEFSAII (Michael W. Deem and Ramdas Pophale) SiO2 
 PCOD8255149
Probable space group: P N M A
;
_chemical_formula_sum "Si O2"
_cell_formula_units_Z 32
_cell_length_a 9.941123
_cell_length_b 17.567784
_cell_length_c 8.519840
_cell_angle_alpha 90.000000
_cell_angle_beta 90.000000
_cell_angle_gamma 90.000000
_cell_volume 1487.934691
_symmetry_space_group_name_H-M "P N M A"
_symmetry_group_IT_number 62
_symmetry_cell_setting 'orthorhombic'
loop_
_space_group_symop_operation_xyz
x,y,z
1/2-x,-y,1/2+z
1/2+x,1/2-y,1/2-z
-x,1/2+y,-z
-x,-y,-z
1/2+x,y,1/2-z
1/2-x,1/2+y,1/2+z
x,1/2-y,z
loop_
_atom_site_type_symbol
_atom_site_label
_atom_site_fract_x
_atom_site_fract_y
_atom_site_fract_z
Si Si1 0.324812 0.575256 0.912611
Si Si2 0.089294 0.904747 0.411378
Si Si3 0.047031 0.916291 0.056858
Si Si4 0.814596 0.836047 0.900212
O O1 0.335439 0.484931 0.919275
O O2 0.203894 0.598252 0.026568
O O3 0.285660 0.604975 0.740268
O O4 0.466816 0.609120 0.968152
O O5 0.203022 0.844526 0.462128
O O6 0.025043 0.898567 0.239655
O O7 0.962125 0.852891 0.966597
O O8 0.000000 0.000000 0.000000
O O9 0.811806 0.750000 0.836521
#
# Coordination Sequence:
#
# PCOD8255149 Si02
#       4
#     8   8   8   8
#     4  11  23  40  70 101 134 177 230 278 336 417
#     4  11  23  42  69 100 134 179 231 279 337 414
#     4  12  23  41  71 103 133 176 232 285 334 407
#     4  12  27  45  67 101 144 181 225 291 353 400
#
# _framework density 21.506321
#
# number of rings (size 3 to 8) (size 9 to 14) (size 15 to 20)
#    0.000    0.500    5.000    3.000    3.500    5.000 
#    0.000    2.500    0.000    0.000    0.000    0.000 
#    0.000    0.000    0.000    0.000    0.000    0.000 
#
# Total GULP energy -396842.477188 kJ/mol
# GULP energy per Si atom -12401.327412 kJ/mol
# Density = 2.145737 g / cm^3
# Si number density = 21.506321 Si / 1000 Ang^3
#
#
#
# Elastic Constant Matrix: (Units=GPa)
#
#
# Indices 1 2 3 4 5 6 
#
# 1 99.4276 52.3219 14.0634 0.0000 0.0000 0.0000
# 2 52.3219 68.2195 22.3602 0.0000 0.0000 0.0000
# 3 14.0634 22.3602 106.9855 0.0000 0.0000 0.0000
# 4 0.0000 0.0000 0.0000 4.1514 0.0000 0.0000
# 5 0.0000 0.0000 0.0000 0.0000 45.2192 0.0000
# 6 0.0000 0.0000 0.0000 0.0000 0.0000 23.8996
#
#
#
# Elastic Compliance Matrix: (Units=1/GPa)
#
#
# Indices 1 2 3 4 5 6 
#
# 1 0.016891 -0.013126 0.000523 0.000000 0.000000 0.000000
# 2 -0.013126 0.025937 -0.003695 0.000000 0.000000 0.000000
# 3 0.000523 -0.003695 0.010051 0.000000 0.000000 0.000000
# 4 0.000000 0.000000 0.000000 0.240885 0.000000 0.000000
# 5 0.000000 0.000000 0.000000 0.000000 0.022115 0.000000
# 6 0.000000 0.000000 0.000000 0.000000 0.000000 0.041842
#
#
# Mechanical properties :
#
#
# Convention : Reuss Voigt Hill
#
# Bulk Modulus (GPa) = 49.30588 50.23599 49.77093
# Shear Modulus (GPa) = 12.59197 27.04648 19.81923
#
# Velocity S-wave (km/s) = 2.42234 3.55012 3.03900
# Velocity P-wave (km/s) = 5.54974 6.34144 5.95876
#
# Compressibility (1/GPa) = 0.02028156
#
# Stress axis : x y z
#
# Youngs Moduli (GPa) = 59.20296 38.55467 99.49594
#
# Poissons Ratio (x) = 0.50608 -0.05204
# Poissons Ratio (y) = 0.77711 0.36768
# Poissons Ratio (z) = -0.03097 0.14248
#
# Static dielectric constant tensor:
#      x y z
#    x 3.989680 0.000000 0.000000 
#    y 0.000000 3.563070 0.000000 
#    z 0.000000 0.000000 3.977240 
# 
# 
# High freq. dielectric constant tensor:
#      x y z
#    x 1.866270 0.000000 0.000000 
#    y 0.000000 1.812330 0.000000 
#    z 0.000000 0.000000 1.851520 
# 
# From -- ./inp_files/4133.got.cif
#   From: 2010.03.12/outbox.cif.g09.slc.cpg/sg62_3_cif.got.tgz:4133.got - 2010.04.10 19:12:36.
