data_PCOD8255617
_publ_section_title
;
Structure prediction by ZEFSAII (Michael W. Deem and Ramdas Pophale) SiO2 
 PCOD8255617
Probable space group: C M C M
;
_chemical_formula_sum "Si O2"
_cell_formula_units_Z 88
_cell_length_a 27.378465
_cell_length_b 26.204306
_cell_length_c 9.404398
_cell_angle_alpha 90.000000
_cell_angle_beta 90.000000
_cell_angle_gamma 90.000000
_cell_volume 6747.031815
_symmetry_space_group_name_H-M "C M C M"
_symmetry_group_IT_number 63
_symmetry_cell_setting 'orthorhombic'
loop_
_space_group_symop_operation_xyz
x,y,z
-x,-y,1/2+z
x,-y,-z
-x,y,1/2-z
-x,-y,-z
x,y,1/2-z
-x,y,z
x,-y,1/2+z
1/2+x,1/2+y,z
1/2-x,1/2-y,1/2+z
1/2+x,1/2-y,-z
1/2-x,1/2+y,1/2-z
1/2-x,1/2-y,-z
1/2+x,1/2+y,1/2-z
1/2-x,1/2+y,z
1/2+x,1/2-y,1/2+z
loop_
_atom_site_type_symbol
_atom_site_label
_atom_site_fract_x
_atom_site_fract_y
_atom_site_fract_z
Si Si1 0.261897 0.801137 0.416418
Si Si2 0.578238 0.365905 0.584069
Si Si3 0.945032 0.234267 0.912684
Si Si4 0.818491 0.839147 0.592260
Si Si5 0.635744 0.226791 0.592958
Si Si6 0.500000 0.551778 0.085032
O O1 0.250069 0.794193 0.250000
O O2 0.250000 0.750000 0.500000
O O3 0.226801 0.845245 0.482145
O O4 0.319805 0.813085 0.439687
O O5 0.570743 0.351725 0.750000
O O6 0.557574 0.319316 0.493092
O O7 0.635915 0.376091 0.551846
O O8 0.548335 0.416380 0.543383
O O9 0.929418 0.225547 0.750000
O O10 0.000000 0.255852 0.923669
O O11 0.908475 0.276465 0.980679
O O12 0.798627 0.851668 0.750000
O O13 0.840727 0.782668 0.587463
O O14 0.614395 0.215929 0.750000
O O15 0.500000 0.537954 0.250000
O O16 0.500000 0.500000 0.000000
#
# Coordination Sequence:
#
# PCOD8255617 Si02
#       6
#    16  16  16  16  16   8
#     4   9  15  22  31  45  63  81 100 121 149 183
#     4   9  17  29  41  50  62  82 103 123 157 204
#     4  10  18  24  33  50  66  80 104 138 166 187
#     4   8  14  23  35  49  61  76  99 122 148 187
#     4   8  15  24  32  43  61  85 107 123 148 190
#     4  10  20  32  44  54  66  84 104 132 168 206
#
# _framework density 13.042771999999999
#
# number of rings (size 3 to 8) (size 9 to 14) (size 15 to 20)
#    0.000    3.091    0.909    3.273    0.000    9.091 
#    0.000    0.000    0.000    0.000    0.000    0.000 
#    0.000    0.000    0.000    0.000    0.000    0.000 
#
# Total GULP energy -545082.937910 kJ/mol
# GULP energy per Si atom -12388.248589 kJ/mol
# Density = 1.301309 g / cm^3
# Si number density = 13.042772 Si / 1000 Ang^3
#
#
#
# Elastic Constant Matrix: (Units=GPa)
#
#
# Indices 1 2 3 4 5 6 
#
# 1 109.4686 34.2022 63.8133 0.0000 0.0000 0.0000
# 2 34.2022 22.3973 18.9737 0.0000 0.0000 0.0000
# 3 63.8133 18.9737 88.3455 0.0000 0.0000 0.0000
# 4 0.0000 0.0000 0.0000 11.3803 0.0000 0.0000
# 5 0.0000 0.0000 0.0000 0.0000 25.6867 0.0000
# 6 0.0000 0.0000 0.0000 0.0000 0.0000 10.1257
#
#
#
# Elastic Compliance Matrix: (Units=1/GPa)
#
#
# Indices 1 2 3 4 5 6 
#
# 1 0.024725 -0.027659 -0.011919 0.000000 0.000000 0.000000
# 2 -0.027659 0.085520 0.001612 0.000000 0.000000 0.000000
# 3 -0.011919 0.001612 0.019582 0.000000 0.000000 0.000000
# 4 0.000000 0.000000 0.000000 0.087871 0.000000 0.000000
# 5 0.000000 0.000000 0.000000 0.000000 0.038931 0.000000
# 6 0.000000 0.000000 0.000000 0.000000 0.000000 0.098759
#
#
# Mechanical properties :
#
#
# Convention : Reuss Voigt Hill
#
# Bulk Modulus (GPa) = 18.55474 50.46554 34.51014
# Shear Modulus (GPa) = 11.12878 16.32001 13.72440
#
# Velocity S-wave (km/s) = 2.92422 3.54116 3.24738
# Velocity P-wave (km/s) = 5.06541 7.44957 6.37003
#
# Compressibility (1/GPa) = 0.05389459
#
# Stress axis : x y z
#
# Youngs Moduli (GPa) = 40.44530 11.69313 51.06701
#
# Poissons Ratio (x) = 0.32342 0.60865
# Poissons Ratio (y) = 1.11869 -0.08231
# Poissons Ratio (z) = 0.48206 -0.01885
#
# Static dielectric constant tensor:
#      x y z
#    x 3.385320 0.000000 0.000000 
#    y 0.000000 2.119280 0.000000 
#    z 0.000000 0.000000 2.810510 
# 
# 
# High freq. dielectric constant tensor:
#      x y z
#    x 1.510340 0.000000 0.000000 
#    y 0.000000 1.403880 0.000000 
#    z 0.000000 0.000000 1.508950 
# 
# From -- ./inp_files/11014.got.cif
#   From: 2010.03.12/outbox.cif.g09.slc.cpg/sg63_6_cif.got.tgz:11014.got - 2010.04.10 19:34:48.
