data_PCOD8255665
_publ_section_title
;
Structure prediction by ZEFSAII (Michael W. Deem and Ramdas Pophale) SiO2 
 PCOD8255665
Probable space group: C M C M
;
_chemical_formula_sum "Si O2"
_cell_formula_units_Z 96
_cell_length_a 9.669974
_cell_length_b 23.812602
_cell_length_c 26.213210
_cell_angle_alpha 90.000000
_cell_angle_beta 90.000000
_cell_angle_gamma 90.000000
_cell_volume 6036.043576
_symmetry_space_group_name_H-M "C M C M"
_symmetry_group_IT_number 63
_symmetry_cell_setting 'orthorhombic'
loop_
_space_group_symop_operation_xyz
x,y,z
-x,-y,1/2+z
x,-y,-z
-x,y,1/2-z
-x,-y,-z
x,y,1/2-z
-x,y,z
x,-y,1/2+z
1/2+x,1/2+y,z
1/2-x,1/2-y,1/2+z
1/2+x,1/2-y,-z
1/2-x,1/2+y,1/2-z
1/2-x,1/2-y,-z
1/2+x,1/2+y,1/2-z
1/2-x,1/2+y,z
1/2+x,1/2-y,1/2+z
loop_
_atom_site_type_symbol
_atom_site_label
_atom_site_fract_x
_atom_site_fract_y
_atom_site_fract_z
Si Si1 0.660258 0.640791 0.563071
Si Si2 0.662023 0.513221 0.558144
Si Si3 0.338517 0.747755 0.883548
Si Si4 0.344062 0.827218 0.529861
Si Si5 0.164609 0.336432 0.693334
Si Si6 0.344158 0.075823 0.390172
O O1 0.500000 0.643613 0.547381
O O2 0.702665 0.576813 0.573393
O O3 0.689641 0.680507 0.613014
O O4 0.745003 0.667713 0.517729
O O5 0.707885 0.500000 0.500000
O O6 0.500000 0.501242 0.564690
O O7 0.743087 0.476026 0.599162
O O8 0.500000 0.761762 0.883142
O O9 0.278113 0.778394 0.832929
O O10 0.281833 0.777647 0.934796
O O11 0.500000 0.814255 0.511088
O O12 0.341802 0.885041 0.560647
O O13 0.229434 0.341051 0.750000
O O14 0.209855 0.390125 0.659537
O O15 0.000000 0.334842 0.696660
O O16 0.500000 0.053375 0.380808
#
# Coordination Sequence:
#
# PCOD8255665 Si02
#       6
#    16  16  16  16  16  16
#     4  10  18  27  40  58  86 120 148 170 201 250
#     4  10  19  29  40  58  88 126 157 175 202 250
#     4   8  15  26  40  61  85 108 136 175 219 255
#     4   9  16  26  40  60  86 111 139 175 212 249
#     4   8  14  27  48  70  87 103 133 182 232 268
#     4   9  17  28  44  66  87 110 143 183 219 251
#
# _framework density 15.904458
#
# number of rings (size 3 to 8) (size 9 to 14) (size 15 to 20)
#    0.000    3.000    1.667    2.500    0.000    1.000 
#    0.000    0.000    0.000    1.500    0.000    2.333 
#    0.000    0.000    0.000    0.000    0.000    0.000 
#
# Total GULP energy -594740.674408 kJ/mol
# GULP energy per Si atom -12390.430717 kJ/mol
# Density = 1.586826 g / cm^3
# Si number density = 15.904458 Si / 1000 Ang^3
#
#
#
# Elastic Constant Matrix: (Units=GPa)
#
#
# Indices 1 2 3 4 5 6 
#
# 1 27.6927 31.4639 25.3765 0.0000 0.0000 0.0000
# 2 31.4639 126.8116 59.0859 0.0000 0.0000 0.0000
# 3 25.3765 59.0859 100.3908 0.0000 0.0000 0.0000
# 4 0.0000 0.0000 0.0000 13.2048 0.0000 0.0000
# 5 0.0000 0.0000 0.0000 0.0000 10.2216 0.0000
# 6 0.0000 0.0000 0.0000 0.0000 0.0000 13.0084
#
#
#
# Elastic Compliance Matrix: (Units=1/GPa)
#
#
# Indices 1 2 3 4 5 6 
#
# 1 0.054615 -0.009808 -0.008033 0.000000 0.000000 0.000000
# 2 -0.009808 0.012627 -0.004952 0.000000 0.000000 0.000000
# 3 -0.008033 -0.004952 0.014906 0.000000 0.000000 0.000000
# 4 0.000000 0.000000 0.000000 0.075730 0.000000 0.000000
# 5 0.000000 0.000000 0.000000 0.000000 0.097832 0.000000
# 6 0.000000 0.000000 0.000000 0.000000 0.000000 0.076873
#
#
# Mechanical properties :
#
#
# Convention : Reuss Voigt Hill
#
# Bulk Modulus (GPa) = 27.35093 54.08307 40.71700
# Shear Modulus (GPa) = 12.80879 16.55157 14.68018
#
# Velocity S-wave (km/s) = 2.84096 3.22947 3.04142
# Velocity P-wave (km/s) = 5.29110 6.92710 6.16362
#
# Compressibility (1/GPa) = 0.03656183
#
# Stress axis : x y z
#
# Youngs Moduli (GPa) = 18.30989 79.19718 67.08575
#
# Poissons Ratio (x) = 0.77678 0.53889
# Poissons Ratio (y) = 0.17959 0.33223
# Poissons Ratio (z) = 0.14708 0.39221
#
# Static dielectric constant tensor:
#      x y z
#    x 2.759420 0.000000 0.000000 
#    y 0.000000 3.163150 0.000000 
#    z 0.000000 0.000000 3.039200 
# 
# 
# High freq. dielectric constant tensor:
#      x y z
#    x 1.578950 0.000000 0.000000 
#    y 0.000000 1.617070 0.000000 
#    z 0.000000 0.000000 1.580670 
# 
# From -- ./inp_files/61865.got.cif
#   From: 2010.03.12/outbox.cif.g09.slc.cpg/sg63_31_cif.got.tgz:61865.got - 2010.04.10 19:34:48.
