data_PCOD8255323
_publ_section_title
;
Structure prediction by ZEFSAII (Michael W. Deem and Ramdas Pophale) SiO2 
 PCOD8255323
Probable space group: P N M A
;
_chemical_formula_sum "Si O2"
_cell_formula_units_Z 40
_cell_length_a 9.000000
_cell_length_b 24.000000
_cell_length_c 9.000000
_cell_angle_alpha 90.000000
_cell_angle_beta 90.000000
_cell_angle_gamma 90.000000
_cell_volume 1944.000000
_symmetry_space_group_name_H-M "P N M A"
_symmetry_group_IT_number 62
_symmetry_cell_setting 'orthorhombic'
loop_
_space_group_symop_operation_xyz
x,y,z
1/2-x,-y,1/2+z
1/2+x,1/2-y,1/2-z
-x,1/2+y,-z
-x,-y,-z
1/2+x,y,1/2-z
1/2-x,1/2+y,1/2+z
x,1/2-y,z
loop_
_atom_site_type_symbol
_atom_site_label
_atom_site_fract_x
_atom_site_fract_y
_atom_site_fract_z
Si Si1 0.638432 0.973448 0.424826
Si Si2 0.958132 0.145439 0.405049
Si Si3 0.306106 0.250000 0.589900
Si Si4 0.301903 0.358711 0.409195
Si Si5 0.046623 0.750000 0.412568
Si Si6 0.617587 0.960844 0.070944
O O1 0.676283 0.912931 0.489219
O O2 0.632812 0.969461 0.247102
O O3 0.500000 0.000000 0.500000
O O4 0.742572 0.023180 0.474782
O O5 0.882985 0.133574 0.247460
O O6 0.896860 0.199990 0.484817
O O7 0.925211 0.101712 0.534866
O O8 0.131111 0.149368 0.370265
O O9 0.360534 0.304627 0.499139
O O10 0.378301 0.250000 0.751959
O O11 0.129725 0.250000 0.612164
O O12 0.500000 0.000000 0.000000
#
# Coordination Sequence:
#
# PCOD8255323 Si02
#       6
#     8   8   4   8   4   8
#     4  12  26  42  68  95 132 175 218 270 331 383
#     4  11  24  42  67  94 133 168 218 271 325 388
#     4  10  23  44  68  94 132 168 219 268 326 386
#     4  11  24  43  66  97 129 171 217 269 327 389
#     4  10  23  44  66  96 130 170 215 274 322 388
#     4  12  24  44  64  95 133 169 219 270 321 392
#
# _framework density 20.576132000000001
#
# number of rings (size 3 to 8) (size 9 to 14) (size 15 to 20)
#    0.000    0.800    2.000    5.400    2.800    1.600 
#    0.000    0.000    0.000    0.000    0.000    0.000 
#    0.000    0.000    0.000    0.000    0.000    0.000 
#
# Total GULP energy -495643.077036 kJ/mol
# GULP energy per Si atom -12391.076926 kJ/mol
# Density = 2.052930 g / cm^3
# Si number density = 20.576132 Si / 1000 Ang^3
#
#
#
# Elastic Constant Matrix: (Units=GPa)
#
#
# Indices 1 2 3 4 5 6 
#
# 1 64.8359 8.0152 30.5979 0.0000 0.0000 0.0000
# 2 8.0152 114.9487 36.0201 0.0000 0.0000 0.0000
# 3 30.5979 36.0201 201.7193 0.0000 0.0000 0.0000
# 4 0.0000 0.0000 0.0000 41.0621 0.0000 0.0000
# 5 0.0000 0.0000 0.0000 0.0000 38.4222 0.0000
# 6 0.0000 0.0000 0.0000 0.0000 0.0000 27.3584
#
#
#
# Elastic Compliance Matrix: (Units=1/GPa)
#
#
# Indices 1 2 3 4 5 6 
#
# 1 0.016629 -0.000391 -0.002453 0.000000 0.000000 0.000000
# 2 -0.000391 0.009224 -0.001588 0.000000 0.000000 0.000000
# 3 -0.002453 -0.001588 0.005613 0.000000 0.000000 0.000000
# 4 0.000000 0.000000 0.000000 0.024353 0.000000 0.000000
# 5 0.000000 0.000000 0.000000 0.000000 0.026027 0.000000
# 6 0.000000 0.000000 0.000000 0.000000 0.000000 0.036552
#
#
# Mechanical properties :
#
#
# Convention : Reuss Voigt Hill
#
# Bulk Modulus (GPa) = 44.24042 58.97448 51.60745
# Shear Modulus (GPa) = 37.09312 41.82660 39.45986
#
# Velocity S-wave (km/s) = 4.25046 4.51352 4.38396
# Velocity P-wave (km/s) = 6.75545 7.47571 7.12469
#
# Compressibility (1/GPa) = 0.02260376
#
# Stress axis : x y z
#
# Youngs Moduli (GPa) = 60.13460 108.40862 178.15960
#
# Poissons Ratio (x) = 0.04239 0.43696
# Poissons Ratio (y) = 0.02351 0.28289
# Poissons Ratio (z) = 0.14749 0.17214
#
# Static dielectric constant tensor:
#      x y z
#    x 3.708510 0.000000 0.000000 
#    y 0.000000 3.974130 0.000000 
#    z 0.000000 0.000000 4.060150 
# 
# 
# High freq. dielectric constant tensor:
#      x y z
#    x 1.801930 0.000000 0.000000 
#    y 0.000000 1.823480 0.000000 
#    z 0.000000 0.000000 1.831130 
# 
# From -- ./inp_files/4340.got.cif
#   From: 2010.03.12/outbox.ucp.g09.slc.cvg/sg62_3_cif.got.tgz:4340.got - 2010.05.04 19:35:18.
