data_PCOD8255405
_publ_section_title
;
Structure prediction by ZEFSAII (Michael W. Deem and Ramdas Pophale) SiO2 
 PCOD8255405
Probable space group: C M C M
;
_chemical_formula_sum "Si O2"
_cell_formula_units_Z 128
_cell_length_a 16.903554
_cell_length_b 20.772339
_cell_length_c 20.481395
_cell_angle_alpha 90.000000
_cell_angle_beta 90.000000
_cell_angle_gamma 90.000000
_cell_volume 7191.557551
_symmetry_space_group_name_H-M "C M C M"
_symmetry_group_IT_number 63
_symmetry_cell_setting 'orthorhombic'
loop_
_space_group_symop_operation_xyz
x,y,z
-x,-y,1/2+z
x,-y,-z
-x,y,1/2-z
-x,-y,-z
x,y,1/2-z
-x,y,z
x,-y,1/2+z
1/2+x,1/2+y,z
1/2-x,1/2-y,1/2+z
1/2+x,1/2-y,-z
1/2-x,1/2+y,1/2-z
1/2-x,1/2-y,-z
1/2+x,1/2+y,1/2-z
1/2-x,1/2+y,z
1/2+x,1/2-y,1/2+z
loop_
_atom_site_type_symbol
_atom_site_label
_atom_site_fract_x
_atom_site_fract_y
_atom_site_fract_z
Si Si1 0.351004 0.248517 0.823713
Si Si2 0.717524 0.545461 0.062754
Si Si3 0.649354 0.287897 0.453790
Si Si4 0.273547 0.955094 0.323166
Si Si5 0.812660 0.821692 0.321584
Si Si6 0.811422 0.345250 0.999932
Si Si7 0.409856 0.119850 0.620836
Si Si8 0.090321 0.146216 0.422113
O O1 0.374308 0.268004 0.750000
O O2 0.259951 0.227990 0.827599
O O3 0.406836 0.190061 0.846266
O O4 0.363813 0.308878 0.870975
O O5 0.745399 0.508653 0.126652
O O6 0.780972 0.601787 0.050725
O O7 0.631767 0.576578 0.076491
O O8 0.711093 0.500000 0.000000
O O9 0.624514 0.305583 0.379182
O O10 0.739221 0.313639 0.460240
O O11 0.643314 0.211142 0.461507
O O12 0.592710 0.322113 0.505896
O O13 0.268909 0.983562 0.250000
O O14 0.216683 0.894185 0.330950
O O15 0.363580 0.932958 0.336288
O O16 0.852561 0.813995 0.250000
O O17 0.871654 0.379044 0.049131
O O18 0.500000 0.097112 0.615232
O O19 0.000000 0.136883 0.400525
#
# Coordination Sequence:
#
# PCOD8255405 Si02
#       8
#    16  16  16  16  16  16  16  16
#     4  10  19  32  51  80 116 139 161 206 269 335
#     4  11  21  37  56  70 102 143 184 227 257 297
#     4  10  16  32  54  74 107 138 170 223 262 318
#     4  10  20  35  52  75 104 142 185 217 255 311
#     4   9  16  30  54  80 100 134 182 221 260 305
#     4  10  18  30  52  78 102 140 178 209 265 314
#     4  11  19  32  54  82 111 136 168 215 269 318
#     4  11  23  34  52  80 106 139 177 218 279 330
#
# _framework density 17.798648
#
# number of rings (size 3 to 8) (size 9 to 14) (size 15 to 20)
#    0.000    1.750    5.000    3.750    0.000    2.500 
#    0.000    1.875    0.000    0.375    0.000    1.750 
#    0.000    1.000    0.000    0.000    0.000    0.000 
#
# Total GULP energy -793559.267726 kJ/mol
# GULP energy per Si atom -12399.363558 kJ/mol
# Density = 1.775814 g / cm^3
# Si number density = 17.798648 Si / 1000 Ang^3
#
#
#
# Elastic Constant Matrix: (Units=GPa)
#
#
# Indices 1 2 3 4 5 6 
#
# 1 35.9583 25.6018 22.5029 0.0000 0.0000 0.0000
# 2 25.6018 91.2583 46.4909 0.0000 0.0000 0.0000
# 3 22.5029 46.4909 142.8386 0.0000 0.0000 0.0000
# 4 0.0000 0.0000 0.0000 27.9932 0.0000 0.0000
# 5 0.0000 0.0000 0.0000 0.0000 14.2241 0.0000
# 6 0.0000 0.0000 0.0000 0.0000 0.0000 11.9067
#
#
#
# Elastic Compliance Matrix: (Units=1/GPa)
#
#
# Indices 1 2 3 4 5 6 
#
# 1 0.035683 -0.008567 -0.002833 0.000000 0.000000 0.000000
# 2 -0.008567 0.015193 -0.003595 0.000000 0.000000 0.000000
# 3 -0.002833 -0.003595 0.008617 0.000000 0.000000 0.000000
# 4 0.000000 0.000000 0.000000 0.035723 0.000000 0.000000
# 5 0.000000 0.000000 0.000000 0.000000 0.070303 0.000000
# 6 0.000000 0.000000 0.000000 0.000000 0.000000 0.083986
#
#
# Mechanical properties :
#
#
# Convention : Reuss Voigt Hill
#
# Bulk Modulus (GPa) = 33.89605 51.02738 42.46172
# Shear Modulus (GPa) = 17.28125 22.52209 19.90167
#
# Velocity S-wave (km/s) = 3.11936 3.56108 3.34751
# Velocity P-wave (km/s) = 5.66210 6.75573 6.23295
#
# Compressibility (1/GPa) = 0.02950196
#
# Stress axis : x y z
#
# Youngs Moduli (GPa) = 28.02481 65.81993 116.04398
#
# Poissons Ratio (x) = 0.56389 0.32876
# Poissons Ratio (y) = 0.24009 0.41721
# Poissons Ratio (z) = 0.07940 0.23664
#
# Static dielectric constant tensor:
#      x y z
#    x 2.919170 0.000000 0.000000 
#    y 0.000000 3.256650 0.000000 
#    z 0.000000 0.000000 3.545810 
# 
# 
# High freq. dielectric constant tensor:
#      x y z
#    x 1.646600 0.000000 0.000000 
#    y 0.000000 1.676330 0.000000 
#    z 0.000000 0.000000 1.702170 
# 
# From -- ./inp_files/56059.got.cif
#   From: 2010.03.12/outbox.cif.g09.slc.cpg/sg63_29_cif.got.tgz:56059.got - 2010.04.10 19:34:48.
