data_PCOD8255296
_publ_section_title
;
Structure prediction by ZEFSAII (Michael W. Deem and Ramdas Pophale) SiO2 
 PCOD8255296
Probable space group: P N M A
;
_chemical_formula_sum "Si O2"
_cell_formula_units_Z 48
_cell_length_a 12.528059
_cell_length_b 13.693260
_cell_length_c 16.077064
_cell_angle_alpha 90.000000
_cell_angle_beta 90.000000
_cell_angle_gamma 90.000000
_cell_volume 2758.019834
_symmetry_space_group_name_H-M "P N M A"
_symmetry_group_IT_number 62
_symmetry_cell_setting 'orthorhombic'
loop_
_space_group_symop_operation_xyz
x,y,z
1/2-x,-y,1/2+z
1/2+x,1/2-y,1/2-z
-x,1/2+y,-z
-x,-y,-z
1/2+x,y,1/2-z
1/2-x,1/2+y,1/2+z
x,1/2-y,z
loop_
_atom_site_type_symbol
_atom_site_label
_atom_site_fract_x
_atom_site_fract_y
_atom_site_fract_z
Si Si1 0.945308 0.859133 0.013318
Si Si2 0.173857 0.361557 0.644311
Si Si3 0.987597 0.636933 0.503590
Si Si4 0.201579 0.138999 0.829077
Si Si5 0.657273 0.512227 0.070549
Si Si6 0.841894 0.040618 0.955435
O O1 0.926928 0.750000 0.979769
O O2 0.070424 0.877479 0.024850
O O3 0.896942 0.934115 0.945246
O O4 0.888637 0.876390 0.101780
O O5 0.209264 0.250000 0.630946
O O6 0.074274 0.383728 0.583750
O O7 0.145196 0.382880 0.740500
O O8 0.276282 0.429671 0.626247
O O9 0.990536 0.750000 0.529121
O O10 0.930928 0.574877 0.578437
O O11 0.107330 0.596501 0.489884
O O12 0.245831 0.250000 0.831264
O O13 0.302782 0.066053 0.845103
O O14 0.760201 0.460958 0.031723
#
# Coordination Sequence:
#
# PCOD8255296 Si02
#       6
#     8   8   8   8   8   8
#     4   9  17  29  45  66  92 121 153 187 224 266
#     4   9  17  28  44  69  97 120 143 177 225 275
#     4   9  17  29  45  66  92 121 153 187 224 266
#     4   9  17  28  44  69  97 120 143 177 225 275
#     4   9  17  29  45  66  91 119 151 185 221 263
#     4   9  17  29  45  66  91 119 151 185 221 263
#
# _framework density 17.403790999999998
#
# number of rings (size 3 to 8) (size 9 to 14) (size 15 to 20)
#    0.000    3.000    0.000    1.000    0.000    2.667 
#    0.000    3.333    0.000    1.000    0.000    0.000 
#    0.000    0.000    0.000    0.000    0.000    0.000 
#
# Total GULP energy -594681.352270 kJ/mol
# GULP energy per Si atom -12389.194839 kJ/mol
# Density = 1.736418 g / cm^3
# Si number density = 17.403791 Si / 1000 Ang^3
#
#
#
# Elastic Constant Matrix: (Units=GPa)
#
#
# Indices 1 2 3 4 5 6 
#
# 1 54.1006 14.9009 11.2039 0.0000 0.0000 0.0000
# 2 14.9009 93.2852 21.7651 0.0000 0.0000 0.0000
# 3 11.2039 21.7651 50.9382 0.0000 0.0000 0.0000
# 4 0.0000 0.0000 0.0000 22.2274 0.0000 0.0000
# 5 0.0000 0.0000 0.0000 0.0000 18.2689 0.0000
# 6 0.0000 0.0000 0.0000 0.0000 0.0000 29.9765
#
#
#
# Elastic Compliance Matrix: (Units=1/GPa)
#
#
# Indices 1 2 3 4 5 6 
#
# 1 0.019834 -0.002388 -0.003342 0.000000 0.000000 0.000000
# 2 -0.002388 0.012194 -0.004685 0.000000 0.000000 0.000000
# 3 -0.003342 -0.004685 0.022369 0.000000 0.000000 0.000000
# 4 0.000000 0.000000 0.000000 0.044989 0.000000 0.000000
# 5 0.000000 0.000000 0.000000 0.000000 0.054738 0.000000
# 6 0.000000 0.000000 0.000000 0.000000 0.000000 0.033360
#
#
# Mechanical properties :
#
#
# Convention : Reuss Voigt Hill
#
# Bulk Modulus (GPa) = 29.79209 32.67374 31.23292
# Shear Modulus (GPa) = 22.77865 24.12482 23.45174
#
# Velocity S-wave (km/s) = 3.62170 3.72719 3.67482
# Velocity P-wave (km/s) = 5.88594 6.11042 5.99923
#
# Compressibility (1/GPa) = 0.03356595
#
# Stress axis : x y z
#
# Youngs Moduli (GPa) = 50.41840 82.00440 44.70554
#
# Poissons Ratio (x) = 0.19586 0.14940
# Poissons Ratio (y) = 0.12042 0.20945
# Poissons Ratio (z) = 0.16850 0.38420
#
# Static dielectric constant tensor:
#      x y z
#    x 3.352600 0.000000 0.000000 
#    y 0.000000 3.493360 0.000000 
#    z 0.000000 0.000000 2.978220 
# 
# 
# High freq. dielectric constant tensor:
#      x y z
#    x 1.680300 0.000000 0.000000 
#    y 0.000000 1.680290 0.000000 
#    z 0.000000 0.000000 1.619590 
# 
# From -- ./inp_files/12245.got.cif
#   From: 2010.03.12/outbox.cif.g09.slc.cpg/sg62_7_cif.got.tgz:12245.got - 2010.04.10 19:12:36.
