data_PCOD8255308
_publ_section_title
;
Structure prediction by ZEFSAII (Michael W. Deem and Ramdas Pophale) SiO2 
 PCOD8255308
Probable space group: P N M A
;
_chemical_formula_sum "Si O2"
_cell_formula_units_Z 64
_cell_length_a 21.000000
_cell_length_b 9.000000
_cell_length_c 21.000000
_cell_angle_alpha 90.000000
_cell_angle_beta 90.000000
_cell_angle_gamma 90.000000
_cell_volume 3969.000000
_symmetry_space_group_name_H-M "P N M A"
_symmetry_group_IT_number 62
_symmetry_cell_setting 'orthorhombic'
loop_
_space_group_symop_operation_xyz
x,y,z
1/2-x,-y,1/2+z
1/2+x,1/2-y,1/2-z
-x,1/2+y,-z
-x,-y,-z
1/2+x,y,1/2-z
1/2-x,1/2+y,1/2+z
x,1/2-y,z
loop_
_atom_site_type_symbol
_atom_site_label
_atom_site_fract_x
_atom_site_fract_y
_atom_site_fract_z
Si Si1 0.850572 0.416876 0.257498
Si Si2 0.937499 0.926269 0.162710
Si Si3 0.849800 0.425915 0.060256
Si Si4 0.737692 0.417565 0.844486
Si Si5 0.843571 0.415622 0.735751
Si Si6 0.328968 0.918585 0.568867
Si Si7 0.066792 0.417984 0.178152
Si Si8 0.242674 0.086074 0.348718
O O1 0.872785 0.250000 0.275240
O O2 0.909172 0.508215 0.228135
O O3 0.826282 0.500772 0.320706
O O4 0.794255 0.409494 0.206970
O O5 0.930075 0.750000 0.162646
O O6 0.903382 0.992543 0.101044
O O7 0.010668 0.972407 0.158313
O O8 0.862621 0.250000 0.063380
O O9 0.779285 0.464918 0.087318
O O10 0.855047 0.484712 0.989155
O O11 0.720909 0.250000 0.865685
O O12 0.789291 0.415106 0.788773
O O13 0.764405 0.507640 0.904816
O O14 0.869997 0.250000 0.724488
O O15 0.901009 0.522121 0.757061
O O16 0.814205 0.474283 0.669125
O O17 0.314212 0.750000 0.547562
O O18 0.382754 0.921777 0.621889
O O19 0.042327 0.250000 0.189839
O O20 0.213075 0.250000 0.357480
#
# Coordination Sequence:
#
# PCOD8255308 Si02
#       8
#     8   8   8   8   8   8   8   8
#     4   9  16  28  45  64  86 111 141 178 222 267
#     4  11  21  32  46  64  87 116 152 189 223 262
#     4  10  20  33  47  63  87 119 153 187 223 263
#     4   9  16  27  44  65  87 111 141 179 223 266
#     4   9  16  26  43  65  85 107 138 178 221 262
#     4  10  20  32  46  64  87 118 154 189 224 262
#     4  10  20  33  46  61  86 119 152 185 221 262
#     4   8  15  27  43  62  83 109 139 174 219 266
#
# _framework density 16.124969
#
# number of rings (size 3 to 8) (size 9 to 14) (size 15 to 20)
#    0.000    2.500    0.000    4.125    0.000    8.500 
#    0.000    0.000    0.000    0.000    0.000    0.000 
#    0.000    1.000    0.000    3.750    0.000    6.000 
#
# Total GULP energy -793483.674226 kJ/mol
# GULP energy per Si atom -12398.182410 kJ/mol
# Density = 1.608827 g / cm^3
# Si number density = 16.124969 Si / 1000 Ang^3
#
#
#
# Elastic Constant Matrix: (Units=GPa)
#
#
# Indices 1 2 3 4 5 6 
#
# 1 30.2218 34.7875 29.8034 0.0000 0.0000 0.0000
# 2 34.7875 132.5501 30.8275 0.0000 0.0000 0.0000
# 3 29.8034 30.8275 23.6605 0.0000 0.0000 0.0000
# 4 0.0000 0.0000 0.0000 23.6848 0.0000 0.0000
# 5 0.0000 0.0000 0.0000 0.0000 9.0336 0.0000
# 6 0.0000 0.0000 0.0000 0.0000 0.0000 24.6172
#
#
#
# Elastic Compliance Matrix: (Units=1/GPa)
#
#
# Indices 1 2 3 4 5 6 
#
# 1 -0.133401 -0.005839 0.175642 0.000000 0.000000 0.000000
# 2 -0.005839 0.010569 -0.006416 0.000000 0.000000 0.000000
# 3 0.175642 -0.006416 -0.170619 0.000000 0.000000 0.000000
# 4 0.000000 0.000000 0.000000 0.042221 0.000000 0.000000
# 5 0.000000 0.000000 0.000000 0.000000 0.110698 0.000000
# 6 0.000000 0.000000 0.000000 0.000000 0.000000 0.040622
#
#
# Mechanical properties :
#
#
# Convention : Reuss Voigt Hill
#
# Bulk Modulus (GPa) = 30.00832 41.91879 35.96355
# Shear Modulus (GPa) = -12.03146 17.53471 2.75162
#
# Velocity S-wave (km/s) = -2.73452 3.30119 1.30772
# Velocity P-wave (km/s) = 2.94621 6.37049 4.96303
#
# Compressibility (1/GPa) = 0.03332410
#
# Stress axis : x y z
#
# Youngs Moduli (GPa) = -7.49621 94.61856 -5.86100
#
# Poissons Ratio (x) = 0.55245 1.02944
# Poissons Ratio (y) = -0.04377 -0.03760
# Poissons Ratio (z) = 1.31665 0.60703
#
# Static dielectric constant tensor:
#      x y z
#    x 2.852790 0.000000 0.000000 
#    y 0.000000 3.341270 0.000000 
#    z 0.000000 0.000000 2.882680 
# 
# 
# High freq. dielectric constant tensor:
#      x y z
#    x 1.586670 0.000000 0.000000 
#    y 0.000000 1.643050 0.000000 
#    z 0.000000 0.000000 1.584740 
# 
# From -- ./inp_files/27718.got.cif
#   From: 2010.03.12/outbox.ucp.g09.slc.cvg/sg62_14_cif.got.tgz:27718.got - 2010.05.04 19:35:18.
