data_PCOD8255432
_publ_section_title
;
Structure prediction by ZEFSAII (Michael W. Deem and Ramdas Pophale) SiO2 
 PCOD8255432
Probable space group: C M C M
;
_chemical_formula_sum "Si O2"
_cell_formula_units_Z 128
_cell_length_a 18.031717
_cell_length_b 22.462348
_cell_length_c 19.967452
_cell_angle_alpha 90.000000
_cell_angle_beta 90.000000
_cell_angle_gamma 90.000000
_cell_volume 8087.510976
_symmetry_space_group_name_H-M "C M C M"
_symmetry_group_IT_number 63
_symmetry_cell_setting 'orthorhombic'
loop_
_space_group_symop_operation_xyz
x,y,z
-x,-y,1/2+z
x,-y,-z
-x,y,1/2-z
-x,-y,-z
x,y,1/2-z
-x,y,z
x,-y,1/2+z
1/2+x,1/2+y,z
1/2-x,1/2-y,1/2+z
1/2+x,1/2-y,-z
1/2-x,1/2+y,1/2-z
1/2-x,1/2-y,-z
1/2+x,1/2+y,1/2-z
1/2-x,1/2+y,z
1/2+x,1/2-y,1/2+z
loop_
_atom_site_type_symbol
_atom_site_label
_atom_site_fract_x
_atom_site_fract_y
_atom_site_fract_z
Si Si1 0.301871 0.721920 0.095657
Si Si2 0.765113 0.534098 0.570677
Si Si3 0.283401 0.841398 0.476918
Si Si4 0.686238 0.836728 0.825359
Si Si5 0.417334 0.132603 0.431416
Si Si6 0.793281 0.945809 0.673897
Si Si7 0.921750 0.499458 0.420814
Si Si8 0.585822 0.650024 0.327315
O O1 0.304298 0.790763 0.076204
O O2 0.245534 0.714635 0.157749
O O3 0.382296 0.699893 0.121489
O O4 0.272886 0.682042 0.033394
O O5 0.763306 0.500000 0.500000
O O6 0.742787 0.603065 0.559789
O O7 0.710581 0.501690 0.623127
O O8 0.848084 0.534247 0.603548
O O9 0.361873 0.864718 0.505672
O O10 0.659401 0.830177 0.750000
O O11 0.614878 0.826014 0.872275
O O12 0.725492 0.900414 0.839941
O O13 0.500000 0.153805 0.452675
O O14 0.418577 0.067782 0.398062
O O15 0.789646 0.969712 0.750000
O O16 0.870793 0.911927 0.661055
O O17 0.925520 0.500000 0.500000
O O18 0.000000 0.470999 0.393422
O O19 0.596550 0.670649 0.250000
O O20 0.500000 0.639678 0.344693
#
# Coordination Sequence:
#
# PCOD8255432 Si02
#       8
#    16  16  16  16  16  16  16  16
#     4   9  18  32  45  65  92 115 151 192 233 271
#     4  11  16  27  47  67  89 122 158 186 226 270
#     4  10  19  29  45  67  91 124 154 186 226 271
#     4   9  16  29  46  62  84 117 149 185 226 263
#     4  10  17  26  40  65  93 116 145 183 217 257
#     4   9  17  29  45  67  92 114 145 191 236 277
#     4   9  15  23  37  60  91 119 146 175 208 253
#     4   9  17  31  52  72  89 115 150 192 242 288
#
# _framework density 15.826872
#
# number of rings (size 3 to 8) (size 9 to 14) (size 15 to 20)
#    0.000    2.500    3.750    2.625    0.000    0.750 
#    0.000    1.250    0.000    3.750    0.000    0.000 
#    0.000    6.000    0.000    0.000    0.000    0.000 
#
# Total GULP energy -793011.268387 kJ/mol
# GULP energy per Si atom -12390.801069 kJ/mol
# Density = 1.579085 g / cm^3
# Si number density = 15.826872 Si / 1000 Ang^3
#
#
#
# Elastic Constant Matrix: (Units=GPa)
#
#
# Indices 1 2 3 4 5 6 
#
# 1 80.6178 28.7470 28.4138 0.0000 0.0000 0.0000
# 2 28.7470 89.2659 39.5838 0.0000 0.0000 0.0000
# 3 28.4138 39.5838 66.9162 0.0000 0.0000 0.0000
# 4 0.0000 0.0000 0.0000 22.3069 0.0000 0.0000
# 5 0.0000 0.0000 0.0000 0.0000 18.6836 0.0000
# 6 0.0000 0.0000 0.0000 0.0000 0.0000 14.1373
#
#
#
# Elastic Compliance Matrix: (Units=1/GPa)
#
#
# Indices 1 2 3 4 5 6 
#
# 1 0.015063 -0.002731 -0.004780 0.000000 0.000000 0.000000
# 2 -0.002731 0.015681 -0.008116 0.000000 0.000000 0.000000
# 3 -0.004780 -0.008116 0.021775 0.000000 0.000000 0.000000
# 4 0.000000 0.000000 0.000000 0.044829 0.000000 0.000000
# 5 0.000000 0.000000 0.000000 0.000000 0.053523 0.000000
# 6 0.000000 0.000000 0.000000 0.000000 0.000000 0.070735
#
#
# Mechanical properties :
#
#
# Convention : Reuss Voigt Hill
#
# Bulk Modulus (GPa) = 47.02919 47.80990 47.41955
# Shear Modulus (GPa) = 19.23452 20.36260 19.79856
#
# Velocity S-wave (km/s) = 3.48991 3.59079 3.54071
# Velocity P-wave (km/s) = 6.78370 6.88951 6.83681
#
# Compressibility (1/GPa) = 0.02126339
#
# Stress axis : x y z
#
# Youngs Moduli (GPa) = 66.38818 63.77110 45.92391
#
# Poissons Ratio (x) = 0.17416 0.21954
# Poissons Ratio (y) = 0.18131 0.37274
# Poissons Ratio (z) = 0.31737 0.51759
#
# Static dielectric constant tensor:
#      x y z
#    x 3.117840 0.000000 0.000000 
#    y 0.000000 2.940540 0.000000 
#    z 0.000000 0.000000 2.905720 
# 
# 
# High freq. dielectric constant tensor:
#      x y z
#    x 1.600660 0.000000 0.000000 
#    y 0.000000 1.577930 0.000000 
#    z 0.000000 0.000000 1.591740 
# 
# From -- ./inp_files/56026.got.cif
#   From: 2010.03.12/outbox.cif.g09.slc.cpg/sg63_29_cif.got.tgz:56026.got - 2010.04.10 19:34:48.
