data_PCOD8255393
_publ_section_title
;
Structure prediction by ZEFSAII (Michael W. Deem and Ramdas Pophale) SiO2 
 PCOD8255393
Probable space group: C M C M
;
_chemical_formula_sum "Si O2"
_cell_formula_units_Z 72
_cell_length_a 14.515595
_cell_length_b 15.201707
_cell_length_c 18.925862
_cell_angle_alpha 90.000000
_cell_angle_beta 90.000000
_cell_angle_gamma 90.000000
_cell_volume 4176.215194
_symmetry_space_group_name_H-M "C M C M"
_symmetry_group_IT_number 63
_symmetry_cell_setting 'orthorhombic'
loop_
_space_group_symop_operation_xyz
x,y,z
-x,-y,1/2+z
x,-y,-z
-x,y,1/2-z
-x,-y,-z
x,y,1/2-z
-x,y,z
x,-y,1/2+z
1/2+x,1/2+y,z
1/2-x,1/2-y,1/2+z
1/2+x,1/2-y,-z
1/2-x,1/2+y,1/2-z
1/2-x,1/2-y,-z
1/2+x,1/2+y,1/2-z
1/2-x,1/2+y,z
1/2+x,1/2-y,1/2+z
loop_
_atom_site_type_symbol
_atom_site_label
_atom_site_fract_x
_atom_site_fract_y
_atom_site_fract_z
Si Si1 0.200848 0.117440 0.830401
Si Si2 0.000000 0.941951 0.878165
Si Si3 0.000000 0.785003 0.528692
Si Si4 0.300140 0.253779 0.574219
Si Si5 0.806148 0.082586 0.170742
Si Si6 0.000000 0.861182 0.118474
O O1 0.230110 0.132633 0.750000
O O2 0.268159 0.172918 0.878980
O O3 0.094240 0.149006 0.836981
O O4 0.221970 0.016266 0.852311
O O5 0.000000 0.886495 0.949608
O O6 0.916161 0.918247 0.827006
O O7 0.000000 0.039569 0.909819
O O8 0.091008 0.739559 0.560649
O O9 0.000000 0.787876 0.443440
O O10 0.250000 0.250000 0.500000
O O11 0.272619 0.345061 0.613825
O O12 0.770055 0.105550 0.250000
#
# Coordination Sequence:
#
# PCOD8255393 Si02
#       6
#    16   8   8  16  16   8
#     4  10  20  34  54  79 105 137 174 216 262 310
#     4   8  16  26  49  77 104 131 156 206 269 323
#     4  10  19  32  48  76 107 137 170 208 260 312
#     4  11  21  34  53  77 107 139 174 214 261 317
#     4   9  18  32  51  76 105 134 171 214 263 313
#     4  10  16  30  51  78 108 131 165 208 265 317
#
# _framework density 17.240490999999999
#
# number of rings (size 3 to 8) (size 9 to 14) (size 15 to 20)
#    0.000    2.222    2.222    1.667    0.000    3.556 
#    0.000    1.667    0.000    4.000    0.000    3.111 
#    0.000    0.000    0.000    0.000    0.000    0.000 
#
# Total GULP energy -446083.120338 kJ/mol
# GULP energy per Si atom -12391.197787 kJ/mol
# Density = 1.720125 g / cm^3
# Si number density = 17.240491 Si / 1000 Ang^3
#
#
#
# Elastic Constant Matrix: (Units=GPa)
#
#
# Indices 1 2 3 4 5 6 
#
# 1 88.3061 47.0647 43.9037 0.0000 0.0000 0.0000
# 2 47.0647 103.8632 69.8549 0.0000 0.0000 0.0000
# 3 43.9037 69.8549 122.4094 0.0000 0.0000 0.0000
# 4 0.0000 0.0000 0.0000 30.9955 0.0000 0.0000
# 5 0.0000 0.0000 0.0000 0.0000 25.0480 0.0000
# 6 0.0000 0.0000 0.0000 0.0000 0.0000 28.7710
#
#
#
# Elastic Compliance Matrix: (Units=1/GPa)
#
#
# Indices 1 2 3 4 5 6 
#
# 1 0.015387 -0.005292 -0.002499 0.000000 0.000000 0.000000
# 2 -0.005292 0.017445 -0.008057 0.000000 0.000000 0.000000
# 3 -0.002499 -0.008057 0.013664 0.000000 0.000000 0.000000
# 4 0.000000 0.000000 0.000000 0.032263 0.000000 0.000000
# 5 0.000000 0.000000 0.000000 0.000000 0.039923 0.000000
# 6 0.000000 0.000000 0.000000 0.000000 0.000000 0.034757
#
#
# Mechanical properties :
#
#
# Convention : Reuss Voigt Hill
#
# Bulk Modulus (GPa) = 67.56928 70.69170 69.13049
# Shear Modulus (GPa) = 26.30633 27.21327 26.75980
#
# Velocity S-wave (km/s) = 3.91045 3.97728 3.94401
# Velocity P-wave (km/s) = 7.72438 7.88568 7.80545
#
# Compressibility (1/GPa) = 0.01479963
#
# Stress axis : x y z
#
# Youngs Moduli (GPa) = 64.98975 57.32278 73.18711
#
# Poissons Ratio (x) = 0.30334 0.18289
# Poissons Ratio (y) = 0.34391 0.58969
# Poissons Ratio (z) = 0.16240 0.46187
#
# Static dielectric constant tensor:
#      x y z
#    x 3.158680 0.000000 0.000000 
#    y 0.000000 3.194940 0.000000 
#    z 0.000000 0.000000 3.362260 
# 
# 
# High freq. dielectric constant tensor:
#      x y z
#    x 1.645330 0.000000 0.000000 
#    y 0.000000 1.651350 0.000000 
#    z 0.000000 0.000000 1.675690 
# 
# From -- ./inp_files/41922.got.cif
#   From: 2010.03.12/outbox.cif.g09.slc.cpg/sg63_21_cif.got.tgz:41922.got - 2010.04.10 19:34:48.
