data_PCOD8255356
_publ_section_title
;
Structure prediction by ZEFSAII (Michael W. Deem and Ramdas Pophale) SiO2 
 PCOD8255356
Probable space group: C M C M
;
_chemical_formula_sum "Si O2"
_cell_formula_units_Z 128
_cell_length_a 18.076300
_cell_length_b 18.520390
_cell_length_c 25.508974
_cell_angle_alpha 90.000000
_cell_angle_beta 90.000000
_cell_angle_gamma 90.000000
_cell_volume 8539.897524
_symmetry_space_group_name_H-M "C M C M"
_symmetry_group_IT_number 63
_symmetry_cell_setting 'orthorhombic'
loop_
_space_group_symop_operation_xyz
x,y,z
-x,-y,1/2+z
x,-y,-z
-x,y,1/2-z
-x,-y,-z
x,y,1/2-z
-x,y,z
x,-y,1/2+z
1/2+x,1/2+y,z
1/2-x,1/2-y,1/2+z
1/2+x,1/2-y,-z
1/2-x,1/2+y,1/2-z
1/2-x,1/2-y,-z
1/2+x,1/2+y,1/2-z
1/2-x,1/2+y,z
1/2+x,1/2-y,1/2+z
loop_
_atom_site_type_symbol
_atom_site_label
_atom_site_fract_x
_atom_site_fract_y
_atom_site_fract_z
Si Si1 0.684477 0.537202 0.554971
Si Si2 0.658393 0.671116 0.495952
Si Si3 0.082433 0.544222 0.446665
Si Si4 0.168964 0.666995 0.006316
Si Si5 0.336038 0.080505 0.901254
Si Si6 0.587606 0.325714 0.806912
Si Si7 0.085916 0.661598 0.689083
Si Si8 0.912890 0.088901 0.094638
O O1 0.712505 0.500000 0.500000
O O2 0.644254 0.613511 0.542578
O O3 0.751930 0.552124 0.594452
O O4 0.625496 0.487113 0.583492
O O5 0.744534 0.666071 0.480318
O O6 0.637156 0.752073 0.512852
O O7 0.607229 0.649982 0.447361
O O8 0.086032 0.500000 0.500000
O O9 0.130286 0.617070 0.450332
O O10 0.113084 0.490586 0.402749
O O11 0.000000 0.567733 0.431740
O O12 0.150162 0.638050 0.948017
O O13 0.356484 0.116113 0.845846
O O14 0.620160 0.347891 0.750000
O O15 0.500000 0.328749 0.805053
O O16 0.610250 0.244052 0.820522
O O17 0.617349 0.381831 0.849832
O O18 0.096008 0.640300 0.750000
O O19 0.000000 0.649041 0.672188
O O20 0.000000 0.075738 0.094361
#
# Coordination Sequence:
#
# PCOD8255356 Si02
#       8
#    16  16  16  16  16  16  16  16
#     4   9  18  30  42  59  84 112 141 174 209 243
#     4   9  17  28  41  58  81 110 140 169 208 249
#     4   9  16  24  36  56  79 102 130 163 194 229
#     4   9  17  28  41  58  81 109 140 171 202 246
#     4  10  16  27  43  57  80 112 139 162 199 248
#     4   8  15  28  44  63  86 107 130 166 209 249
#     4   9  17  28  43  65  89 109 132 166 207 248
#     4  10  18  28  44  63  83 112 146 175 211 256
#
# _framework density 14.98847
#
# number of rings (size 3 to 8) (size 9 to 14) (size 15 to 20)
#    0.000    2.875    0.000    4.500    0.000    3.250 
#    0.000    0.625    0.000    0.000    0.000    0.000 
#    0.000    1.000    0.000    4.000    0.000    0.500 
#
# Total GULP energy -793224.561003 kJ/mol
# GULP energy per Si atom -12394.133766 kJ/mol
# Density = 1.495436 g / cm^3
# Si number density = 14.988470 Si / 1000 Ang^3
#
#
#
# Elastic Constant Matrix: (Units=GPa)
#
#
# Indices 1 2 3 4 5 6 
#
# 1 61.7848 41.6859 39.3749 0.0000 0.0000 0.0000
# 2 41.6859 122.1429 46.0489 0.0000 0.0000 0.0000
# 3 39.3749 46.0489 76.2384 0.0000 0.0000 0.0000
# 4 0.0000 0.0000 0.0000 19.3061 0.0000 0.0000
# 5 0.0000 0.0000 0.0000 0.0000 18.3977 0.0000
# 6 0.0000 0.0000 0.0000 0.0000 0.0000 20.9853
#
#
#
# Elastic Compliance Matrix: (Units=1/GPa)
#
#
# Indices 1 2 3 4 5 6 
#
# 1 0.026281 -0.004988 -0.010560 0.000000 0.000000 0.000000
# 2 -0.004988 0.011548 -0.004399 0.000000 0.000000 0.000000
# 3 -0.010560 -0.004399 0.021228 0.000000 0.000000 0.000000
# 4 0.000000 0.000000 0.000000 0.051797 0.000000 0.000000
# 5 0.000000 0.000000 0.000000 0.000000 0.054355 0.000000
# 6 0.000000 0.000000 0.000000 0.000000 0.000000 0.047652
#
#
# Mechanical properties :
#
#
# Convention : Reuss Voigt Hill
#
# Bulk Modulus (GPa) = 52.18699 57.15396 54.67047
# Shear Modulus (GPa) = 19.29444 20.60826 19.95135
#
# Velocity S-wave (km/s) = 3.59177 3.71204 3.65240
# Velocity P-wave (km/s) = 7.21767 7.52244 7.37163
#
# Compressibility (1/GPa) = 0.01916186
#
# Stress axis : x y z
#
# Youngs Moduli (GPa) = 38.05093 86.59591 47.10779
#
# Poissons Ratio (x) = 0.43193 0.49748
# Poissons Ratio (y) = 0.18979 0.20723
# Poissons Ratio (z) = 0.40183 0.38093
#
# Static dielectric constant tensor:
#      x y z
#    x 2.737270 0.000000 0.000000 
#    y 0.000000 3.090750 0.000000 
#    z 0.000000 0.000000 2.896800 
# 
# 
# High freq. dielectric constant tensor:
#      x y z
#    x 1.559220 0.000000 0.000000 
#    y 0.000000 1.581750 0.000000 
#    z 0.000000 0.000000 1.539810 
# 
# From -- ./inp_files/64093.got.cif
#   From: 2010.03.12/outbox.cif.g09.slc.cpg/sg63_33_cif.got.tgz:64093.got - 2010.04.10 19:34:48.
