data_PCOD8255304
_publ_section_title
;
Structure prediction by ZEFSAII (Michael W. Deem and Ramdas Pophale) SiO2 
 PCOD8255304
Probable space group: P N M A
;
_chemical_formula_sum "Si O2"
_cell_formula_units_Z 48
_cell_length_a 30.000000
_cell_length_b 9.000000
_cell_length_c 9.000000
_cell_angle_alpha 90.000000
_cell_angle_beta 90.000000
_cell_angle_gamma 90.000000
_cell_volume 2430.000000
_symmetry_space_group_name_H-M "P N M A"
_symmetry_group_IT_number 62
_symmetry_cell_setting 'orthorhombic'
loop_
_space_group_symop_operation_xyz
x,y,z
1/2-x,-y,1/2+z
1/2+x,1/2-y,1/2-z
-x,1/2+y,-z
-x,-y,-z
1/2+x,y,1/2-z
1/2-x,1/2+y,1/2+z
x,1/2-y,z
loop_
_atom_site_type_symbol
_atom_site_label
_atom_site_fract_x
_atom_site_fract_y
_atom_site_fract_z
Si Si1 0.644177 0.926037 0.428425
Si Si2 0.704786 0.080496 0.904664
Si Si3 0.279780 0.575453 0.758007
Si Si4 0.549406 0.585265 0.350549
Si Si5 0.119658 0.080449 0.772281
Si Si6 0.966565 0.414847 0.201058
O O1 0.647417 0.750000 0.449084
O O2 0.600370 0.969207 0.331218
O O3 0.686827 0.986558 0.345824
O O4 0.642138 0.995843 0.591034
O O5 0.721468 0.250000 0.883230
O O6 0.652386 0.067810 0.868636
O O7 0.730570 0.972858 0.791406
O O8 0.712771 0.027143 0.072432
O O9 0.286821 0.750000 0.735908
O O10 0.543003 0.750000 0.285820
O O11 0.539811 0.584735 0.525327
O O12 0.515381 0.480343 0.261354
O O13 0.111565 0.250000 0.820366
O O14 0.072412 0.010986 0.723371
O O15 0.964168 0.250000 0.267558
#
# Coordination Sequence:
#
# PCOD8255304 Si02
#       6
#     8   8   8   8   8   8
#     4  10  20  34  53  79 109 138 174 218 260 308
#     4  10  23  40  56  78 106 136 173 214 257 310
#     4  11  23  38  57  79 104 135 171 213 260 310
#     4   8  15  27  44  69 102 138 172 210 257 304
#     4  10  19  33  54  78 107 142 177 215 261 309
#     4   9  16  26  44  73 106 137 173 217 259 302
#
# _framework density 19.753086
#
# number of rings (size 3 to 8) (size 9 to 14) (size 15 to 20)
#    0.000    2.333    0.000    4.000    0.000   10.000 
#    0.000    0.000    0.000    1.000    0.000    0.000 
#    0.000    0.000    0.000    0.000    0.000    0.000 
#
# Total GULP energy -595170.389707 kJ/mol
# GULP energy per Si atom -12399.383119 kJ/mol
# Density = 1.970813 g / cm^3
# Si number density = 19.753086 Si / 1000 Ang^3
#
#
#
# Elastic Constant Matrix: (Units=GPa)
#
#
# Indices 1 2 3 4 5 6 
#
# 1 46.8060 11.4078 -25.6329 0.0000 0.0000 0.0000
# 2 11.4078 79.6777 3.1727 0.0000 0.0000 0.0000
# 3 -25.6329 3.1727 21.5416 0.0000 0.0000 0.0000
# 4 0.0000 0.0000 0.0000 16.4246 0.0000 0.0000
# 5 0.0000 0.0000 0.0000 0.0000 16.0027 0.0000
# 6 0.0000 0.0000 0.0000 0.0000 0.0000 36.5777
#
#
#
# Elastic Compliance Matrix: (Units=1/GPa)
#
#
# Indices 1 2 3 4 5 6 
#
# 1 0.074657 -0.014310 0.090944 0.000000 0.000000 0.000000
# 2 -0.014310 0.015368 -0.019292 0.000000 0.000000 0.000000
# 3 0.090944 -0.019292 0.157480 0.000000 0.000000 0.000000
# 4 0.000000 0.000000 0.000000 0.060884 0.000000 0.000000
# 5 0.000000 0.000000 0.000000 0.000000 0.062489 0.000000
# 6 0.000000 0.000000 0.000000 0.000000 0.000000 0.027339
#
#
# Mechanical properties :
#
#
# Convention : Reuss Voigt Hill
#
# Bulk Modulus (GPa) = 2.76098 13.99116 8.37607
# Shear Modulus (GPa) = 12.36819 24.40618 18.38719
#
# Velocity S-wave (km/s) = 2.50499 3.51887 3.05430
# Velocity P-wave (km/s) = 3.12529 4.85884 4.08508
#
# Compressibility (1/GPa) = 0.36219005
#
# Stress axis : x y z
#
# Youngs Moduli (GPa) = 13.39452 65.07193 6.35001
#
# Poissons Ratio (x) = 0.93120 -0.57750
# Poissons Ratio (y) = 0.19168 0.12250
# Poissons Ratio (z) = -1.21816 1.25534
#
# Static dielectric constant tensor:
#      x y z
#    x 3.843830 0.000000 0.000000 
#    y 0.000000 3.704970 0.000000 
#    z 0.000000 0.000000 3.121450 
# 
# 
# High freq. dielectric constant tensor:
#      x y z
#    x 1.782920 0.000000 0.000000 
#    y 0.000000 1.776430 0.000000 
#    z 0.000000 0.000000 1.719760 
# 
# From -- ./inp_files/10267.got.cif
#   From: 2010.03.12/outbox.ucp.g09.slc.cvg/sg62_6_cif.got.tgz:10267.got - 2010.05.04 19:35:18.
