data_PCOD8255921
_publ_section_title
;
Structure prediction by ZEFSAII (Michael W. Deem and Ramdas Pophale) SiO2 
 PCOD8255921
Probable space group: C M C M
;
_chemical_formula_sum "Si O2"
_cell_formula_units_Z 96
_cell_length_a 9.043294
_cell_length_b 30.777438
_cell_length_c 19.595067
_cell_angle_alpha 90.000000
_cell_angle_beta 90.000000
_cell_angle_gamma 90.000000
_cell_volume 5453.883641
_symmetry_space_group_name_H-M "C M C M"
_symmetry_group_IT_number 63
_symmetry_cell_setting 'orthorhombic'
loop_
_space_group_symop_operation_xyz
x,y,z
-x,-y,1/2+z
x,-y,-z
-x,y,1/2-z
-x,-y,-z
x,y,1/2-z
-x,y,z
x,-y,1/2+z
1/2+x,1/2+y,z
1/2-x,1/2-y,1/2+z
1/2+x,1/2-y,-z
1/2-x,1/2+y,1/2-z
1/2-x,1/2-y,-z
1/2+x,1/2+y,1/2-z
1/2-x,1/2+y,z
1/2+x,1/2-y,1/2+z
loop_
_atom_site_type_symbol
_atom_site_label
_atom_site_fract_x
_atom_site_fract_y
_atom_site_fract_z
Si Si1 0.331098 0.049157 0.330049
Si Si2 0.175185 0.548451 0.674674
Si Si3 0.835875 0.793556 0.078087
Si Si4 0.823879 0.619327 0.567622
Si Si5 0.825078 0.116237 0.424025
Si Si6 0.163236 0.211807 0.416288
O O1 0.316434 0.057974 0.250000
O O2 0.500000 0.057046 0.353963
O O3 0.221047 0.081021 0.368809
O O4 0.279414 0.000207 0.347720
O O5 0.240539 0.559082 0.750000
O O6 0.234924 0.582855 0.619993
O O7 0.000000 0.550729 0.678891
O O8 0.733189 0.834529 0.095822
O O9 0.769757 0.749662 0.112049
O O10 0.000000 0.801099 0.107955
O O11 0.843259 0.787080 0.997672
O O12 0.757724 0.606848 0.494616
O O13 0.000000 0.620846 0.562308
O O14 0.779766 0.163882 0.394763
O O15 0.000000 0.114704 0.437904
O O16 0.000000 0.220468 0.386248
#
# Coordination Sequence:
#
# PCOD8255921 Si02
#       6
#    16  16  16  16  16  16
#     4   9  18  34  54  72  92 122 161 200 237 282
#     4   8  16  32  52  72  93 122 162 201 234 277
#     4   9  16  26  42  66  96 124 152 192 238 281
#     4  10  18  29  49  73  97 126 160 197 237 282
#     4  10  20  32  47  71 102 128 155 196 240 282
#     4   8  15  27  42  62  90 125 159 188 225 277
#
# _framework density 17.602136000000002
#
# number of rings (size 3 to 8) (size 9 to 14) (size 15 to 20)
#    0.000    3.000    0.000    3.500    0.000    5.667 
#    0.000    5.000    0.000    5.000    0.000    2.333 
#    0.000    0.000    0.000    0.000    0.000    0.000 
#
# Total GULP energy -594977.298545 kJ/mol
# GULP energy per Si atom -12395.360386 kJ/mol
# Density = 1.756207 g / cm^3
# Si number density = 17.602136 Si / 1000 Ang^3
#
#
#
# Elastic Constant Matrix: (Units=GPa)
#
#
# Indices 1 2 3 4 5 6 
#
# 1 80.7840 55.5019 32.3867 0.0000 0.0000 0.0000
# 2 55.5019 150.9896 59.7079 0.0000 0.0000 0.0000
# 3 32.3867 59.7079 49.1328 0.0000 0.0000 0.0000
# 4 0.0000 0.0000 0.0000 1.9133 0.0000 0.0000
# 5 0.0000 0.0000 0.0000 0.0000 10.1812 0.0000
# 6 0.0000 0.0000 0.0000 0.0000 0.0000 28.6365
#
#
#
# Elastic Compliance Matrix: (Units=1/GPa)
#
#
# Indices 1 2 3 4 5 6 
#
# 1 0.017821 -0.003668 -0.007289 0.000000 0.000000 0.000000
# 2 -0.003668 0.013505 -0.013994 0.000000 0.000000 0.000000
# 3 -0.007289 -0.013994 0.042164 0.000000 0.000000 0.000000
# 4 0.000000 0.000000 0.000000 0.522667 0.000000 0.000000
# 5 0.000000 0.000000 0.000000 0.000000 0.098220 0.000000
# 6 0.000000 0.000000 0.000000 0.000000 0.000000 0.034920
#
#
# Mechanical properties :
#
#
# Convention : Reuss Voigt Hill
#
# Bulk Modulus (GPa) = 42.39601 64.01106 53.20353
# Shear Modulus (GPa) = 6.35273 17.03354 11.69313
#
# Velocity S-wave (km/s) = 1.90182 3.11416 2.58020
# Velocity P-wave (km/s) = 5.38150 7.02674 6.25842
#
# Compressibility (1/GPa) = 0.02358712
#
# Stress axis : x y z
#
# Youngs Moduli (GPa) = 56.11260 74.04524 23.71710
#
# Poissons Ratio (x) = 0.27163 0.17288
# Poissons Ratio (y) = 0.20585 0.33190
# Poissons Ratio (z) = 0.40902 1.03618
#
# Static dielectric constant tensor:
#      x y z
#    x 3.245650 0.000000 0.000000 
#    y 0.000000 3.599600 0.000000 
#    z 0.000000 0.000000 3.000300 
# 
# 
# High freq. dielectric constant tensor:
#      x y z
#    x 1.672870 0.000000 0.000000 
#    y 0.000000 1.695580 0.000000 
#    z 0.000000 0.000000 1.635330 
# 
# From -- ./inp_files/60241.got.cif
#   From: 2010.03.12/outbox.cif.g09.slc.cpg/sg63_31_cif.got.tgz:60241.got - 2010.04.10 19:34:48.
