data_PCOD8255295
_publ_section_title
;
Structure prediction by ZEFSAII (Michael W. Deem and Ramdas Pophale) SiO2 
 PCOD8255295
Probable space group: P N M A
;
_chemical_formula_sum "Si O2"
_cell_formula_units_Z 64
_cell_length_a 21.434122
_cell_length_b 20.946156
_cell_length_c 8.586309
_cell_angle_alpha 90.000000
_cell_angle_beta 90.000000
_cell_angle_gamma 90.000000
_cell_volume 3854.930438
_symmetry_space_group_name_H-M "P N M A"
_symmetry_group_IT_number 62
_symmetry_cell_setting 'orthorhombic'
loop_
_space_group_symop_operation_xyz
x,y,z
1/2-x,-y,1/2+z
1/2+x,1/2-y,1/2-z
-x,1/2+y,-z
-x,-y,-z
1/2+x,y,1/2-z
1/2-x,1/2+y,1/2+z
x,1/2-y,z
loop_
_atom_site_type_symbol
_atom_site_label
_atom_site_fract_x
_atom_site_fract_y
_atom_site_fract_z
Si Si1 0.329737 0.883467 0.899804
Si Si2 0.819770 0.325313 0.552488
Si Si3 0.135971 0.421258 0.895390
Si Si4 0.249004 0.602841 0.189831
Si Si5 0.921898 0.434288 0.555108
Si Si6 0.693769 0.320670 0.400734
Si Si7 0.650003 0.500415 0.314831
Si Si8 0.563986 0.066660 0.902227
O O1 0.325093 0.824538 0.780773
O O2 0.318556 0.946053 0.793066
O O3 0.278264 0.870250 0.031410
O O4 0.396893 0.888159 0.981921
O O5 0.840081 0.250000 0.548833
O O6 0.789123 0.341442 0.720780
O O7 0.878138 0.372953 0.514911
O O8 0.766291 0.341808 0.425046
O O9 0.199072 0.431280 0.796965
O O10 0.077842 0.417360 0.777939
O O11 0.143591 0.356793 0.993302
O O12 0.122525 0.476161 0.021678
O O13 0.204104 0.547386 0.135681
O O14 0.904322 0.463020 0.722966
O O15 0.917703 0.491844 0.428795
O O16 0.993432 0.413234 0.563041
O O17 0.687461 0.250000 0.462987
#
# Coordination Sequence:
#
# PCOD8255295 Si02
#       8
#     8   8   8   8   8   8   8   8
#     4   9  17  28  45  68  93 119 150 191 233 276
#     4   9  18  32  48  66  90 122 155 186 229 284
#     4   9  17  28  45  68  93 119 151 192 233 278
#     4   9  16  26  43  67  92 116 146 191 237 275
#     4   9  18  32  48  67  95 126 156 194 231 270
#     4   9  18  32  48  67  93 122 152 190 238 286
#     4   9  16  26  43  67  93 120 150 188 236 277
#     4   9  18  32  48  70  95 121 158 196 233 274
#
# _framework density 16.602115000000001
#
# number of rings (size 3 to 8) (size 9 to 14) (size 15 to 20)
#    0.000    3.000    0.000    0.750    0.000    8.000 
#    0.000    3.125    0.000    0.000    0.000    0.000 
#    0.000    0.000    0.000    0.000    0.000    0.000 
#
# Total GULP energy -793004.411508 kJ/mol
# GULP energy per Si atom -12390.693930 kJ/mol
# Density = 1.656433 g / cm^3
# Si number density = 16.602115 Si / 1000 Ang^3
#
#
#
# Elastic Constant Matrix: (Units=GPa)
#
#
# Indices 1 2 3 4 5 6 
#
# 1 79.9110 31.6311 36.5151 0.0000 0.0000 0.0000
# 2 31.6311 59.4247 25.1026 0.0000 0.0000 0.0000
# 3 36.5151 25.1026 105.7645 0.0000 0.0000 0.0000
# 4 0.0000 0.0000 0.0000 13.3909 0.0000 0.0000
# 5 0.0000 0.0000 0.0000 0.0000 14.5668 0.0000
# 6 0.0000 0.0000 0.0000 0.0000 0.0000 19.1591
#
#
#
# Elastic Compliance Matrix: (Units=1/GPa)
#
#
# Indices 1 2 3 4 5 6 
#
# 1 0.017409 -0.007477 -0.004236 0.000000 0.000000 0.000000
# 2 -0.007477 0.021915 -0.002620 0.000000 0.000000 0.000000
# 3 -0.004236 -0.002620 0.011539 0.000000 0.000000 0.000000
# 4 0.000000 0.000000 0.000000 0.074677 0.000000 0.000000
# 5 0.000000 0.000000 0.000000 0.000000 0.068649 0.000000
# 6 0.000000 0.000000 0.000000 0.000000 0.000000 0.052194
#
#
# Mechanical properties :
#
#
# Convention : Reuss Voigt Hill
#
# Bulk Modulus (GPa) = 45.05071 47.95532 46.50302
# Shear Modulus (GPa) = 17.70228 19.54680 18.62454
#
# Velocity S-wave (km/s) = 3.26892 3.43500 3.35299
# Velocity P-wave (km/s) = 6.43756 6.68432 6.56210
#
# Compressibility (1/GPa) = 0.02219721
#
# Stress axis : x y z
#
# Youngs Moduli (GPa) = 57.44068 45.63118 86.66142
#
# Poissons Ratio (x) = 0.34120 0.36708
# Poissons Ratio (y) = 0.42951 0.22703
# Poissons Ratio (z) = 0.24331 0.11954
#
# Static dielectric constant tensor:
#      x y z
#    x 3.005850 0.000000 0.000000 
#    y 0.000000 3.030780 0.000000 
#    z 0.000000 0.000000 3.227790 
# 
# 
# High freq. dielectric constant tensor:
#      x y z
#    x 1.622850 0.000000 0.000000 
#    y 0.000000 1.621890 0.000000 
#    z 0.000000 0.000000 1.643040 
# 
# From -- ./inp_files/8961.got.cif
#   From: 2010.03.12/outbox.cif.g09.slc.cpg/sg62_5_cif.got.tgz:8961.got - 2010.04.10 19:12:36.
