data_PCOD8255011
_publ_section_title
;
Structure prediction by ZEFSAII (Michael W. Deem and Ramdas Pophale) SiO2 
 PCOD8255011
Probable space group: P N M A
;
_chemical_formula_sum "Si O2"
_cell_formula_units_Z 32
_cell_length_a 13.829435
_cell_length_b 13.750893
_cell_length_c 9.537267
_cell_angle_alpha 90.000000
_cell_angle_beta 90.000000
_cell_angle_gamma 90.000000
_cell_volume 1813.674225
_symmetry_space_group_name_H-M "P N M A"
_symmetry_group_IT_number 62
_symmetry_cell_setting 'orthorhombic'
loop_
_space_group_symop_operation_xyz
x,y,z
1/2-x,-y,1/2+z
1/2+x,1/2-y,1/2-z
-x,1/2+y,-z
-x,-y,-z
1/2+x,y,1/2-z
1/2-x,1/2+y,1/2+z
x,1/2-y,z
loop_
_atom_site_type_symbol
_atom_site_label
_atom_site_fract_x
_atom_site_fract_y
_atom_site_fract_z
Si Si1 0.668505 0.138608 0.420346
Si Si2 0.357412 0.483297 0.071986
Si Si3 0.412003 0.638512 0.271041
Si Si4 0.949449 0.519105 0.706827
O O1 0.679632 0.250000 0.375234
O O2 0.769307 0.086054 0.390864
O O3 0.640529 0.128124 0.581340
O O4 0.584609 0.091182 0.327486
O O5 0.344315 0.586637 0.153317
O O6 0.457745 0.433257 0.126141
O O7 0.363574 0.501251 0.904978
O O8 0.428910 0.750000 0.228968
O O9 0.516390 0.583899 0.275260
#
# Coordination Sequence:
#
# PCOD8255011 Si02
#       4
#     8   8   8   8
#     4  11  21  34  56  83 110 144 182 224 270 324
#     4   9  20  37  57  79 110 145 178 226 270 319
#     4   9  19  36  57  78 107 145 183 222 270 322
#     4   9  20  38  56  79 111 144 178 227 272 322
#
# _framework density 17.643740999999999
#
# number of rings (size 3 to 8) (size 9 to 14) (size 15 to 20)
#    1.500    1.000    0.000    2.250    0.000    3.000 
#    0.000    1.250    0.000    0.000    0.000    0.000 
#    0.000    0.000    0.000    0.000    0.000    0.000 
#
# Total GULP energy -396575.453191 kJ/mol
# GULP energy per Si atom -12392.982912 kJ/mol
# Density = 1.760358 g / cm^3
# Si number density = 17.643741 Si / 1000 Ang^3
#
#
#
# Elastic Constant Matrix: (Units=GPa)
#
#
# Indices 1 2 3 4 5 6 
#
# 1 65.7089 58.6573 38.0422 0.0000 0.0000 0.0000
# 2 58.6573 159.6726 59.9307 0.0000 0.0000 0.0000
# 3 38.0422 59.9307 55.0496 0.0000 0.0000 0.0000
# 4 0.0000 0.0000 0.0000 27.3628 0.0000 0.0000
# 5 0.0000 0.0000 0.0000 0.0000 23.8449 0.0000
# 6 0.0000 0.0000 0.0000 0.0000 0.0000 33.1316
#
#
#
# Elastic Compliance Matrix: (Units=1/GPa)
#
#
# Indices 1 2 3 4 5 6 
#
# 1 0.027570 -0.005034 -0.013572 0.000000 0.000000 0.000000
# 2 -0.005034 0.011509 -0.009051 0.000000 0.000000 0.000000
# 3 -0.013572 -0.009051 0.037398 0.000000 0.000000 0.000000
# 4 0.000000 0.000000 0.000000 0.036546 0.000000 0.000000
# 5 0.000000 0.000000 0.000000 0.000000 0.041938 0.000000
# 6 0.000000 0.000000 0.000000 0.000000 0.000000 0.030183
#
#
# Mechanical properties :
#
#
# Convention : Reuss Voigt Hill
#
# Bulk Modulus (GPa) = 47.25178 65.96572 56.60875
# Shear Modulus (GPa) = 20.20106 25.12123 22.66115
#
# Velocity S-wave (km/s) = 3.38737 3.77743 3.58770
# Velocity P-wave (km/s) = 6.49140 7.51625 7.02254
#
# Compressibility (1/GPa) = 0.02116322
#
# Stress axis : x y z
#
# Youngs Moduli (GPa) = 36.27133 86.88642 26.73952
#
# Poissons Ratio (x) = 0.43740 0.36291
# Poissons Ratio (y) = 0.18259 0.24202
# Poissons Ratio (z) = 0.49227 0.78640
#
# Static dielectric constant tensor:
#      x y z
#    x 3.043280 0.000000 0.000000 
#    y 0.000000 3.144880 0.000000 
#    z 0.000000 0.000000 3.281740 
# 
# 
# High freq. dielectric constant tensor:
#      x y z
#    x 1.669410 0.000000 0.000000 
#    y 0.000000 1.667420 0.000000 
#    z 0.000000 0.000000 1.691930 
# 
# From -- ./inp_files/4892.got.cif
#   From: 2010.03.12/outbox.cif.g09.slc.cpg/sg62_3_cif.got.tgz:4892.got - 2010.04.10 19:12:36.
