data_PCOD8255102
_publ_section_title
;
Structure prediction by ZEFSAII (Michael W. Deem and Ramdas Pophale) SiO2 
 PCOD8255102
Probable space group: P N M A
;
_chemical_formula_sum "Si O2"
_cell_formula_units_Z 48
_cell_length_a 17.851992
_cell_length_b 8.370002
_cell_length_c 15.330433
_cell_angle_alpha 90.000000
_cell_angle_beta 90.000000
_cell_angle_gamma 90.000000
_cell_volume 2290.691829
_symmetry_space_group_name_H-M "P N M A"
_symmetry_group_IT_number 62
_symmetry_cell_setting 'orthorhombic'
loop_
_space_group_symop_operation_xyz
x,y,z
1/2-x,-y,1/2+z
1/2+x,1/2-y,1/2-z
-x,1/2+y,-z
-x,-y,-z
1/2+x,y,1/2-z
1/2-x,1/2+y,1/2+z
x,1/2-y,z
loop_
_atom_site_type_symbol
_atom_site_label
_atom_site_fract_x
_atom_site_fract_y
_atom_site_fract_z
Si Si1 0.286726 0.564695 0.090524
Si Si2 0.452867 0.060076 0.080667
Si Si3 0.211056 0.436419 0.258867
Si Si4 0.542771 0.061203 0.247369
Si Si5 0.454848 0.060793 0.418105
Si Si6 0.789628 0.565746 0.076010
O O1 0.275639 0.750000 0.071651
O O2 0.372189 0.518845 0.076342
O O3 0.262843 0.525479 0.189017
O O4 0.235054 0.469619 0.022675
O O5 0.444272 0.250000 0.080290
O O6 0.495258 0.995497 0.166260
O O7 0.500000 0.000000 0.000000
O O8 0.212701 0.250000 0.236419
O O9 0.127064 0.507749 0.253996
O O10 0.241893 0.462097 0.356018
O O11 0.547529 0.250000 0.240676
O O12 0.502064 0.005357 0.334721
O O13 0.442663 0.250000 0.421230
O O14 0.500000 0.000000 0.500000
O O15 0.376235 0.973420 0.413727
O O16 0.775850 0.750000 0.097301
#
# Coordination Sequence:
#
# PCOD8255102 Si02
#       6
#     8   8   8   8   8   8
#     4  12  25  42  63  92 126 166 213 263 314 372
#     4  11  22  40  64  92 124 163 207 257 311 371
#     4  11  22  41  66  94 126 163 206 259 316 376
#     4   9  21  39  62  88 120 159 200 245 306 372
#     4  11  22  40  64  92 124 163 207 257 311 371
#     4  12  25  42  63  92 126 166 213 263 314 372
#
# _framework density 20.954367000000001
#
# number of rings (size 3 to 8) (size 9 to 14) (size 15 to 20)
#    0.000    1.000    0.000    7.500    0.000    4.000 
#    0.000    7.500    0.000    0.000    0.000    0.000 
#    0.000    0.000    0.000    0.000    0.000    0.000 
#
# Total GULP energy -595543.700558 kJ/mol
# GULP energy per Si atom -12407.160428 kJ/mol
# Density = 2.090667 g / cm^3
# Si number density = 20.954367 Si / 1000 Ang^3
#
#
#
# Elastic Constant Matrix: (Units=GPa)
#
#
# Indices 1 2 3 4 5 6 
#
# 1 127.0132 36.6870 32.9773 0.0000 0.0000 0.0000
# 2 36.6870 67.7533 24.3571 0.0000 0.0000 0.0000
# 3 32.9773 24.3571 129.2786 0.0000 0.0000 0.0000
# 4 0.0000 0.0000 0.0000 36.1502 0.0000 0.0000
# 5 0.0000 0.0000 0.0000 0.0000 49.9419 0.0000
# 6 0.0000 0.0000 0.0000 0.0000 0.0000 33.6524
#
#
#
# Elastic Compliance Matrix: (Units=1/GPa)
#
#
# Indices 1 2 3 4 5 6 
#
# 1 0.009625 -0.004643 -0.001580 0.000000 0.000000 0.000000
# 2 -0.004643 0.018072 -0.002220 0.000000 0.000000 0.000000
# 3 -0.001580 -0.002220 0.008557 0.000000 0.000000 0.000000
# 4 0.000000 0.000000 0.000000 0.027662 0.000000 0.000000
# 5 0.000000 0.000000 0.000000 0.000000 0.020023 0.000000
# 6 0.000000 0.000000 0.000000 0.000000 0.000000 0.029716
#
#
# Mechanical properties :
#
#
# Convention : Reuss Voigt Hill
#
# Bulk Modulus (GPa) = 51.63936 56.89866 54.26901
# Shear Modulus (GPa) = 36.49689 39.28382 37.89035
#
# Velocity S-wave (km/s) = 4.17793 4.33451 4.25694
# Velocity P-wave (km/s) = 6.92609 7.22933 7.07933
#
# Compressibility (1/GPa) = 0.01936507
#
# Stress axis : x y z
#
# Youngs Moduli (GPa) = 103.89897 55.33423 116.86775
#
# Poissons Ratio (x) = 0.25694 0.18468
# Poissons Ratio (y) = 0.48245 0.25949
# Poissons Ratio (z) = 0.16419 0.12286
#
# Static dielectric constant tensor:
#      x y z
#    x 4.024310 0.000000 0.000000 
#    y 0.000000 3.726120 0.000000 
#    z 0.000000 0.000000 3.973120 
# 
# 
# High freq. dielectric constant tensor:
#      x y z
#    x 1.841180 0.000000 0.000000 
#    y 0.000000 1.816470 0.000000 
#    z 0.000000 0.000000 1.838500 
# 
# From -- ./inp_files/19550.got.cif
#   From: 2010.03.12/outbox.cif.g09.slc.cpg/sg62_10_cif.got.tgz:19550.got - 2010.04.10 19:12:36.
