data_PCOD8255515
_publ_section_title
;
Structure prediction by ZEFSAII (Michael W. Deem and Ramdas Pophale) SiO2 
 PCOD8255515
Probable space group: C M C M
;
_chemical_formula_sum "Si O2"
_cell_formula_units_Z 96
_cell_length_a 18.535861
_cell_length_b 10.025875
_cell_length_c 28.191145
_cell_angle_alpha 90.000000
_cell_angle_beta 90.000000
_cell_angle_gamma 90.000000
_cell_volume 5238.992359
_symmetry_space_group_name_H-M "C M C M"
_symmetry_group_IT_number 63
_symmetry_cell_setting 'orthorhombic'
loop_
_space_group_symop_operation_xyz
x,y,z
-x,-y,1/2+z
x,-y,-z
-x,y,1/2-z
-x,-y,-z
x,y,1/2-z
-x,y,z
x,-y,1/2+z
1/2+x,1/2+y,z
1/2-x,1/2-y,1/2+z
1/2+x,1/2-y,-z
1/2-x,1/2+y,1/2-z
1/2-x,1/2-y,-z
1/2+x,1/2+y,1/2-z
1/2-x,1/2+y,z
1/2+x,1/2-y,1/2+z
loop_
_atom_site_type_symbol
_atom_site_label
_atom_site_fract_x
_atom_site_fract_y
_atom_site_fract_z
Si Si1 0.921495 0.585473 0.351841
Si Si2 0.710115 0.562599 0.859055
Si Si3 0.170767 0.293441 0.985620
Si Si4 0.216590 0.331984 0.804320
Si Si5 0.919336 0.849384 0.086625
Si Si6 0.662503 0.947154 0.074644
O O1 0.864121 0.608917 0.309980
O O2 0.926011 0.711483 0.385959
O O3 0.897625 0.459699 0.384235
O O4 0.000000 0.555478 0.329308
O O5 0.728661 0.420058 0.835908
O O6 0.717571 0.678357 0.819899
O O7 0.629405 0.552195 0.880990
O O8 0.762927 0.603313 0.902132
O O9 0.120316 0.176395 0.964120
O O10 0.179592 0.408285 0.946869
O O11 0.250000 0.250000 0.000000
O O12 0.133671 0.347158 0.034140
O O13 0.240646 0.340918 0.750000
O O14 0.000000 0.909356 0.078552
#
# Coordination Sequence:
#
# PCOD8255515 Si02
#       6
#    16  16  16  16  16  16
#     4   8  16  30  47  71 102 129 159 204 256 303
#     4  10  19  34  53  75 102 133 166 211 259 306
#     4  10  17  28  47  73 102 136 179 217 244 289
#     4  10  20  33  54  80  99 125 166 210 258 310
#     4   9  17  30  48  72 101 133 168 208 250 292
#     4   9  18  28  47  74  97 138 175 206 253 295
#
# _framework density 18.324134000000001
#
# number of rings (size 3 to 8) (size 9 to 14) (size 15 to 20)
#    0.000    2.667    1.667    1.500    0.000    1.000 
#    0.000    3.333    0.000    7.500    0.000    0.000 
#    0.000    0.000    0.000    0.000    0.000    0.000 
#
# Total GULP energy -594870.068439 kJ/mol
# GULP energy per Si atom -12393.126426 kJ/mol
# Density = 1.828243 g / cm^3
# Si number density = 18.324134 Si / 1000 Ang^3
#
#
#
# Elastic Constant Matrix: (Units=GPa)
#
#
# Indices 1 2 3 4 5 6 
#
# 1 115.1602 7.3219 15.2896 0.0000 0.0000 0.0000
# 2 7.3219 23.4414 0.3444 0.0000 0.0000 0.0000
# 3 15.2896 0.3444 67.5921 0.0000 0.0000 0.0000
# 4 0.0000 0.0000 0.0000 18.4833 0.0000 0.0000
# 5 0.0000 0.0000 0.0000 0.0000 17.3820 0.0000
# 6 0.0000 0.0000 0.0000 0.0000 0.0000 17.3839
#
#
#
# Elastic Compliance Matrix: (Units=1/GPa)
#
#
# Indices 1 2 3 4 5 6 
#
# 1 0.009136 -0.002823 -0.002052 0.000000 0.000000 0.000000
# 2 -0.002823 0.043535 0.000417 0.000000 0.000000 0.000000
# 3 -0.002052 0.000417 0.015257 0.000000 0.000000 0.000000
# 4 0.000000 0.000000 0.000000 0.054103 0.000000 0.000000
# 5 0.000000 0.000000 0.000000 0.000000 0.057531 0.000000
# 6 0.000000 0.000000 0.000000 0.000000 0.000000 0.057524
#
#
# Mechanical properties :
#
#
# Convention : Reuss Voigt Hill
#
# Bulk Modulus (GPa) = 16.94618 28.01173 22.47896
# Shear Modulus (GPa) = 18.82014 22.86571 20.84293
#
# Velocity S-wave (km/s) = 3.20827 3.53632 3.37628
# Velocity P-wave (km/s) = 4.79500 5.65633 5.24338
#
# Compressibility (1/GPa) = 0.05901034
#
# Stress axis : x y z
#
# Youngs Moduli (GPa) = 109.46292 22.96984 65.54503
#
# Poissons Ratio (x) = 0.06485 0.13451
# Poissons Ratio (y) = 0.30905 -0.02732
# Poissons Ratio (z) = 0.22463 -0.00957
#
# Static dielectric constant tensor:
#      x y z
#    x 3.702410 0.000000 0.000000 
#    y 0.000000 3.117830 0.000000 
#    z 0.000000 0.000000 3.375800 
# 
# 
# High freq. dielectric constant tensor:
#      x y z
#    x 1.700920 0.000000 0.000000 
#    y 0.000000 1.679460 0.000000 
#    z 0.000000 0.000000 1.706290 
# 
# From -- ./inp_files/69879.got.cif
#   From: 2010.03.12/outbox.cif.g09.slc.cpg/sg63_35_cif.got.tgz:69879.got - 2010.04.10 19:34:48.
