data_PCOD8255456
_publ_section_title
;
Structure prediction by ZEFSAII (Michael W. Deem and Ramdas Pophale) SiO2 
 PCOD8255456
Probable space group: C M C M
;
_chemical_formula_sum "Si O2"
_cell_formula_units_Z 96
_cell_length_a 26.500935
_cell_length_b 28.923730
_cell_length_c 8.827638
_cell_angle_alpha 90.000000
_cell_angle_beta 90.000000
_cell_angle_gamma 90.000000
_cell_volume 6766.436510
_symmetry_space_group_name_H-M "C M C M"
_symmetry_group_IT_number 63
_symmetry_cell_setting 'orthorhombic'
loop_
_space_group_symop_operation_xyz
x,y,z
-x,-y,1/2+z
x,-y,-z
-x,y,1/2-z
-x,-y,-z
x,y,1/2-z
-x,y,z
x,-y,1/2+z
1/2+x,1/2+y,z
1/2-x,1/2-y,1/2+z
1/2+x,1/2-y,-z
1/2-x,1/2+y,1/2-z
1/2-x,1/2-y,-z
1/2+x,1/2+y,1/2-z
1/2-x,1/2+y,z
1/2+x,1/2-y,1/2+z
loop_
_atom_site_type_symbol
_atom_site_label
_atom_site_fract_x
_atom_site_fract_y
_atom_site_fract_z
Si Si1 0.294200 0.720240 0.571344
Si Si2 0.443419 0.136395 0.427762
Si Si3 0.148676 0.694254 0.427642
Si Si4 0.716763 0.047913 0.571383
Si Si5 0.746535 0.860469 0.929750
Si Si6 0.600605 0.952461 0.427826
O O1 0.286031 0.714297 0.750000
O O2 0.250000 0.750000 0.500000
O O3 0.344682 0.750811 0.535712
O O4 0.294110 0.669957 0.491411
O O5 0.435641 0.128229 0.250000
O O6 0.500000 0.153576 0.464184
O O7 0.404540 0.175248 0.491767
O O8 0.434052 0.088247 0.510405
O O9 0.149924 0.686821 0.250000
O O10 0.195179 0.663688 0.491832
O O11 0.724649 0.046263 0.750000
O O12 0.750382 0.088603 0.500009
O O13 0.658605 0.056624 0.525654
O O14 0.735961 0.000000 0.500000
O O15 0.749392 0.863427 0.750000
O O16 0.594101 0.956198 0.250000
O O17 0.581056 0.000000 0.500000
#
# Coordination Sequence:
#
# PCOD8255456 Si02
#       6
#    16  16  16  16  16  16
#     4   9  16  26  40  59  80 100 125 156 194 237
#     4  10  19  31  46  60  75  99 130 164 205 247
#     4   8  15  27  41  57  77  99 123 159 198 234
#     4  10  19  29  42  60  79 104 132 162 199 240
#     4  10  17  27  43  60  80 102 126 160 196 236
#     4  10  20  32  45  58  73  96 128 167 208 247
#
# _framework density 14.187673999999999
#
# number of rings (size 3 to 8) (size 9 to 14) (size 15 to 20)
#    0.000    2.500    1.667    3.000    0.000    2.000 
#    0.000    0.833    0.000    0.000    0.000    0.000 
#    0.000    0.000    0.000    0.000    0.000    0.833 
#
# Total GULP energy -594915.488262 kJ/mol
# GULP energy per Si atom -12394.072672 kJ/mol
# Density = 1.415538 g / cm^3
# Si number density = 14.187674 Si / 1000 Ang^3
#
#
#
# Elastic Constant Matrix: (Units=GPa)
#
#
# Indices 1 2 3 4 5 6 
#
# 1 49.2674 51.2876 20.4668 0.0000 0.0000 0.0000
# 2 51.2876 117.2754 40.0870 0.0000 0.0000 0.0000
# 3 20.4668 40.0870 58.6344 0.0000 0.0000 0.0000
# 4 0.0000 0.0000 0.0000 25.3254 0.0000 0.0000
# 5 0.0000 0.0000 0.0000 0.0000 11.6640 0.0000
# 6 0.0000 0.0000 0.0000 0.0000 0.0000 19.3634
#
#
#
# Elastic Compliance Matrix: (Units=1/GPa)
#
#
# Indices 1 2 3 4 5 6 
#
# 1 0.037529 -0.015574 -0.002452 0.000000 0.000000 0.000000
# 2 -0.015574 0.017590 -0.006590 0.000000 0.000000 0.000000
# 3 -0.002452 -0.006590 0.022416 0.000000 0.000000 0.000000
# 4 0.000000 0.000000 0.000000 0.039486 0.000000 0.000000
# 5 0.000000 0.000000 0.000000 0.000000 0.085734 0.000000
# 6 0.000000 0.000000 0.000000 0.000000 0.000000 0.051644
#
#
# Mechanical properties :
#
#
# Convention : Reuss Voigt Hill
#
# Bulk Modulus (GPa) = 35.33170 49.87332 42.60251
# Shear Modulus (GPa) = 15.97108 18.82627 17.39867
#
# Velocity S-wave (km/s) = 3.35879 3.64668 3.50569
# Velocity P-wave (km/s) = 6.32448 7.27736 6.81759
#
# Compressibility (1/GPa) = 0.02830319
#
# Stress axis : x y z
#
# Youngs Moduli (GPa) = 26.64621 56.84890 44.61071
#
# Poissons Ratio (x) = 0.88537 0.10939
# Poissons Ratio (y) = 0.41499 0.29398
# Poissons Ratio (z) = 0.06534 0.37463
#
# Static dielectric constant tensor:
#      x y z
#    x 2.695600 0.000000 0.000000 
#    y 0.000000 3.085750 0.000000 
#    z 0.000000 0.000000 2.782780 
# 
# 
# High freq. dielectric constant tensor:
#      x y z
#    x 1.486060 0.000000 0.000000 
#    y 0.000000 1.541060 0.000000 
#    z 0.000000 0.000000 1.546660 
# 
# From -- ./inp_files/10675.got.cif
#   From: 2010.03.12/outbox.cif.g09.slc.cpg/sg63_6_cif.got.tgz:10675.got - 2010.04.10 19:34:48.
