data_PCOD8255537
_publ_section_title
;
Structure prediction by ZEFSAII (Michael W. Deem and Ramdas Pophale) SiO2 
 PCOD8255537
Probable space group: C M C M
;
_chemical_formula_sum "Si O2"
_cell_formula_units_Z 92
_cell_length_a 7.634337
_cell_length_b 27.037024
_cell_length_c 24.861747
_cell_angle_alpha 90.000000
_cell_angle_beta 90.000000
_cell_angle_gamma 90.000000
_cell_volume 5131.707050
_symmetry_space_group_name_H-M "C M C M"
_symmetry_group_IT_number 63
_symmetry_cell_setting 'orthorhombic'
loop_
_space_group_symop_operation_xyz
x,y,z
-x,-y,1/2+z
x,-y,-z
-x,y,1/2-z
-x,-y,-z
x,y,1/2-z
-x,y,z
x,-y,1/2+z
1/2+x,1/2+y,z
1/2-x,1/2-y,1/2+z
1/2+x,1/2-y,-z
1/2-x,1/2+y,1/2-z
1/2-x,1/2-y,-z
1/2+x,1/2+y,1/2-z
1/2-x,1/2+y,z
1/2+x,1/2-y,1/2+z
loop_
_atom_site_type_symbol
_atom_site_label
_atom_site_fract_x
_atom_site_fract_y
_atom_site_fract_z
Si Si1 0.306295 0.432655 0.750000
Si Si2 0.800951 0.225108 0.187750
Si Si3 0.000000 0.799474 0.186992
Si Si4 0.704300 0.381021 0.853639
Si Si5 0.500000 0.471809 0.250000
Si Si6 0.500000 0.592565 0.643430
Si Si7 0.791829 0.551375 0.569306
Si Si8 0.198023 0.556736 0.049256
O O1 0.500000 0.407065 0.750000
O O2 0.211394 0.413007 0.695722
O O3 0.326659 0.492484 0.750000
O O4 0.774115 0.210938 0.250000
O O5 0.672862 0.268949 0.170288
O O6 0.752949 0.176584 0.153491
O O7 0.000000 0.242261 0.176631
O O8 0.000000 0.811315 0.250000
O O9 0.000000 0.849369 0.153984
O O10 0.500000 0.392189 0.857146
O O11 0.785023 0.397668 0.910164
O O12 0.500000 0.437869 0.198253
O O13 0.679442 0.581676 0.612174
O O14 0.726203 0.494130 0.574211
O O15 0.729423 0.570285 0.509964
O O16 0.000000 0.559217 0.581057
O O17 0.000000 0.542960 0.037404
#
# Coordination Sequence:
#
# PCOD8255537 Si02
#       8
#     8  16   8  16   4   8  16  16
#     4   8  16  28  44  75 121 141 160 213 267 325
#     4   9  18  34  54  77 109 138 175 226 278 325
#     4  10  22  38  55  81 106 137 194 238 264 318
#     4  10  17  28  52  83 108 147 177 210 280 341
#     4  10  20  32  50  86 116 140 176 228 258 334
#     4  12  22  37  62  77 106 153 191 222 281 318
#     4   9  21  38  54  80 114 148 187 230 266 319
#     4   9  19  34  52  81 115 143 185 231 265 322
#
# _framework density 17.927758999999998
#
# number of rings (size 3 to 8) (size 9 to 14) (size 15 to 20)
#    0.261    2.261    1.304    2.087    3.652    1.391 
#    0.000    0.870    0.000    4.174    0.000    0.000 
#    0.000    0.000    0.000    0.000    0.000    0.000 
#
# Total GULP energy -570089.298120 kJ/mol
# GULP energy per Si atom -12393.245611 kJ/mol
# Density = 1.788695 g / cm^3
# Si number density = 17.927759 Si / 1000 Ang^3
#
#
#
# Elastic Constant Matrix: (Units=GPa)
#
#
# Indices 1 2 3 4 5 6 
#
# 1 78.4926 53.0445 43.4643 0.0000 0.0000 0.0000
# 2 53.0445 129.4382 69.5041 0.0000 0.0000 0.0000
# 3 43.4643 69.5041 115.3056 0.0000 0.0000 0.0000
# 4 0.0000 0.0000 0.0000 17.4496 0.0000 0.0000
# 5 0.0000 0.0000 0.0000 0.0000 21.0687 0.0000
# 6 0.0000 0.0000 0.0000 0.0000 0.0000 22.9017
#
#
#
# Elastic Compliance Matrix: (Units=1/GPa)
#
#
# Indices 1 2 3 4 5 6 
#
# 1 0.018561 -0.005692 -0.003566 0.000000 0.000000 0.000000
# 2 -0.005692 0.013168 -0.005792 0.000000 0.000000 0.000000
# 3 -0.003566 -0.005792 0.013508 0.000000 0.000000 0.000000
# 4 0.000000 0.000000 0.000000 0.057308 0.000000 0.000000
# 5 0.000000 0.000000 0.000000 0.000000 0.047464 0.000000
# 6 0.000000 0.000000 0.000000 0.000000 0.000000 0.043665
#
#
# Mechanical properties :
#
#
# Convention : Reuss Voigt Hill
#
# Bulk Modulus (GPa) = 66.05765 72.80691 69.43228
# Shear Modulus (GPa) = 21.85130 22.76554 22.30842
#
# Velocity S-wave (km/s) = 3.49499 3.56736 3.53136
# Velocity P-wave (km/s) = 7.29474 7.59391 7.44583
#
# Compressibility (1/GPa) = 0.01513829
#
# Stress axis : x y z
#
# Youngs Moduli (GPa) = 53.87670 75.93926 74.02963
#
# Poissons Ratio (x) = 0.43223 0.26396
# Poissons Ratio (y) = 0.30665 0.42879
# Poissons Ratio (z) = 0.19211 0.43985
#
# Static dielectric constant tensor:
#      x y z
#    x 3.216270 0.000000 0.000000 
#    y 0.000000 3.078200 0.000000 
#    z 0.000000 0.000000 3.281160 
# 
# 
# High freq. dielectric constant tensor:
#      x y z
#    x 1.686010 0.000000 0.000000 
#    y 0.000000 1.673430 0.000000 
#    z 0.000000 0.000000 1.686890 
# 
# From -- ./inp_files/60106.got.cif
#   From: 2010.03.12/outbox.cif.g09.slc.cpg/sg63_31_cif.got.tgz:60106.got - 2010.04.10 19:34:48.
