data_PCOD8255527
_publ_section_title
;
Structure prediction by ZEFSAII (Michael W. Deem and Ramdas Pophale) SiO2 
 PCOD8255527
Probable space group: C M C M
;
_chemical_formula_sum "Si O2"
_cell_formula_units_Z 80
_cell_length_a 8.363301
_cell_length_b 14.493475
_cell_length_c 30.068101
_cell_angle_alpha 90.000000
_cell_angle_beta 90.000000
_cell_angle_gamma 90.000000
_cell_volume 3644.653565
_symmetry_space_group_name_H-M "C M C M"
_symmetry_group_IT_number 63
_symmetry_cell_setting 'orthorhombic'
loop_
_space_group_symop_operation_xyz
x,y,z
-x,-y,1/2+z
x,-y,-z
-x,y,1/2-z
-x,-y,-z
x,y,1/2-z
-x,y,z
x,-y,1/2+z
1/2+x,1/2+y,z
1/2-x,1/2-y,1/2+z
1/2+x,1/2-y,-z
1/2-x,1/2+y,1/2-z
1/2-x,1/2-y,-z
1/2+x,1/2+y,1/2-z
1/2-x,1/2+y,z
1/2+x,1/2-y,1/2+z
loop_
_atom_site_type_symbol
_atom_site_label
_atom_site_fract_x
_atom_site_fract_y
_atom_site_fract_z
Si Si1 0.186102 0.107175 0.962217
Si Si2 0.686140 0.854349 0.372717
Si Si3 0.815269 0.947254 0.640757
Si Si4 0.811670 0.783422 0.799128
Si Si5 0.685180 0.906333 0.551810
O O1 0.226062 0.171455 0.919613
O O2 0.000000 0.082302 0.963011
O O3 0.290661 0.015357 0.955658
O O4 0.238634 0.150163 0.009955
O O5 0.500000 0.833890 0.379128
O O6 0.760695 0.791156 0.333559
O O7 0.710567 0.960509 0.358507
O O8 0.775111 0.887237 0.684293
O O9 0.773156 0.882307 0.598144
O O10 0.000000 0.976107 0.638400
O O11 0.735100 0.770794 0.750000
O O12 0.000000 0.767543 0.796495
O O13 0.500000 0.880512 0.555282
#
# Coordination Sequence:
#
# PCOD8255527 Si02
#       5
#    16  16  16  16  16
#     4  10  17  28  48  76 109 143 179 216 260 312
#     4  10  19  34  56  81 109 142 180 220 266 318
#     4  10  19  34  56  81 109 142 180 220 266 318
#     4   9  20  38  58  79 106 141 180 223 272 325
#     4  10  17  28  48  76 109 143 179 216 260 312
#
# _framework density 21.949960999999998
#
# number of rings (size 3 to 8) (size 9 to 14) (size 15 to 20)
#    0.000    2.200    0.000    8.400    0.000    0.800 
#    0.000    5.000    0.000    8.400    0.000    0.000 
#    0.000    0.000    0.000    0.000    0.000    0.000 
#
# Total GULP energy -495809.260484 kJ/mol
# GULP energy per Si atom -12395.231512 kJ/mol
# Density = 2.190000 g / cm^3
# Si number density = 21.949961 Si / 1000 Ang^3
#
#
#
# Elastic Constant Matrix: (Units=GPa)
#
#
# Indices 1 2 3 4 5 6 
#
# 1 67.0406 1.5847 21.0296 0.0000 0.0000 0.0000
# 2 1.5847 9.2955 5.0974 0.0000 0.0000 0.0000
# 3 21.0296 5.0974 148.1132 0.0000 0.0000 0.0000
# 4 0.0000 0.0000 0.0000 31.4466 0.0000 0.0000
# 5 0.0000 0.0000 0.0000 0.0000 23.4358 0.0000
# 6 0.0000 0.0000 0.0000 0.0000 0.0000 12.5986
#
#
#
# Elastic Compliance Matrix: (Units=1/GPa)
#
#
# Indices 1 2 3 4 5 6 
#
# 1 0.015631 -0.001476 -0.002169 0.000000 0.000000 0.000000
# 2 -0.001476 0.109787 -0.003569 0.000000 0.000000 0.000000
# 3 -0.002169 -0.003569 0.007182 0.000000 0.000000 0.000000
# 4 0.000000 0.000000 0.000000 0.031800 0.000000 0.000000
# 5 0.000000 0.000000 0.000000 0.000000 0.042670 0.000000
# 6 0.000000 0.000000 0.000000 0.000000 0.000000 0.079374
#
#
# Mechanical properties :
#
#
# Convention : Reuss Voigt Hill
#
# Bulk Modulus (GPa) = 8.46206 31.09696 19.77951
# Shear Modulus (GPa) = 14.69454 26.61203 20.65328
#
# Velocity S-wave (km/s) = 2.59019 3.48572 3.07078
# Velocity P-wave (km/s) = 3.57897 5.51347 4.64797
#
# Compressibility (1/GPa) = 0.11817450
#
# Stress axis : x y z
#
# Youngs Moduli (GPa) = 63.97344 9.10854 139.23069
#
# Poissons Ratio (x) = 0.01344 0.30194
# Poissons Ratio (y) = 0.09441 0.49689
# Poissons Ratio (z) = 0.13873 0.03251
#
# Static dielectric constant tensor:
#      x y z
#    x 3.595870 0.000000 0.000000 
#    y 0.000000 3.508590 0.000000 
#    z 0.000000 0.000000 4.886400 
# 
# 
# High freq. dielectric constant tensor:
#      x y z
#    x 1.844080 0.000000 0.000000 
#    y 0.000000 1.834070 0.000000 
#    z 0.000000 0.000000 1.878190 
# 
# From -- ./inp_files/71570.got.cif
#   From: 2010.03.12/outbox.cif.g09.slc.cpg/sg63_36_cif.got.tgz:71570.got - 2010.04.10 19:34:48.
