data_PCOD8255946
_publ_section_title
;
Structure prediction by ZEFSAII (Michael W. Deem and Ramdas Pophale) SiO2 
 PCOD8255946
Probable space group: C M C M
;
_chemical_formula_sum "Si O2"
_cell_formula_units_Z 88
_cell_length_a 20.832582
_cell_length_b 32.064953
_cell_length_c 8.791786
_cell_angle_alpha 90.000000
_cell_angle_beta 90.000000
_cell_angle_gamma 90.000000
_cell_volume 5872.875795
_symmetry_space_group_name_H-M "C M C M"
_symmetry_group_IT_number 63
_symmetry_cell_setting 'orthorhombic'
loop_
_space_group_symop_operation_xyz
x,y,z
-x,-y,1/2+z
x,-y,-z
-x,y,1/2-z
-x,-y,-z
x,y,1/2-z
-x,y,z
x,-y,1/2+z
1/2+x,1/2+y,z
1/2-x,1/2-y,1/2+z
1/2+x,1/2-y,-z
1/2-x,1/2+y,1/2-z
1/2-x,1/2-y,-z
1/2+x,1/2+y,1/2-z
1/2-x,1/2+y,z
1/2+x,1/2-y,1/2+z
loop_
_atom_site_type_symbol
_atom_site_label
_atom_site_fract_x
_atom_site_fract_y
_atom_site_fract_z
Si Si1 0.315945 0.878481 0.071181
Si Si2 0.349145 0.749483 0.579402
Si Si3 0.129617 0.545359 0.069465
Si Si4 0.500000 0.045885 0.567809
Si Si5 0.732558 0.313646 0.921086
Si Si6 0.427253 0.816332 0.072503
O O1 0.314862 0.887216 0.250000
O O2 0.379182 0.852737 0.019355
O O3 0.315011 0.922406 0.980412
O O4 0.252205 0.853338 0.023304
O O5 0.366366 0.736282 0.750000
O O6 0.331879 0.707429 0.487473
O O7 0.289186 0.780323 0.574499
O O8 0.410543 0.772579 0.507844
O O9 0.123694 0.541251 0.250000
O O10 0.144409 0.500000 0.000000
O O11 0.064924 0.566173 0.997247
O O12 0.500000 0.047236 0.750000
O O13 0.500000 0.000000 0.500000
O O14 0.718893 0.328762 0.750000
O O15 0.418545 0.808510 0.250000
O O16 0.500000 0.829604 0.031182
#
# Coordination Sequence:
#
# PCOD8255946 Si02
#       6
#    16  16  16   8  16  16
#     4  10  19  30  44  61  80 103 132 170 208 245
#     4   9  16  26  41  59  78 101 128 161 197 236
#     4  11  21  33  45  59  76 100 131 166 206 249
#     4  10  18  30  44  56  70  92 124 160 198 240
#     4   9  16  27  42  59  78 100 128 162 198 239
#     4   9  18  30  42  58  80 107 134 163 202 245
#
# _framework density 14.984140999999999
#
# number of rings (size 3 to 8) (size 9 to 14) (size 15 to 20)
#    0.000    2.364    0.000    5.182    1.273    5.455 
#    0.000    0.000    0.000    0.000    0.000    0.000 
#    0.000    0.000    0.000    0.000    0.000    0.909 
#
# Total GULP energy -545452.885352 kJ/mol
# GULP energy per Si atom -12396.656485 kJ/mol
# Density = 1.495004 g / cm^3
# Si number density = 14.984141 Si / 1000 Ang^3
#
#
#
# Elastic Constant Matrix: (Units=GPa)
#
#
# Indices 1 2 3 4 5 6 
#
# 1 18.1215 23.2327 15.7994 0.0000 0.0000 0.0000
# 2 23.2327 77.1810 38.6454 0.0000 0.0000 0.0000
# 3 15.7994 38.6454 101.8713 0.0000 0.0000 0.0000
# 4 0.0000 0.0000 0.0000 25.2678 0.0000 0.0000
# 5 0.0000 0.0000 0.0000 0.0000 19.3117 0.0000
# 6 0.0000 0.0000 0.0000 0.0000 0.0000 20.6972
#
#
#
# Elastic Compliance Matrix: (Units=1/GPa)
#
#
# Indices 1 2 3 4 5 6 
#
# 1 0.091594 -0.025256 -0.004625 0.000000 0.000000 0.000000
# 2 -0.025256 0.022959 -0.004793 0.000000 0.000000 0.000000
# 3 -0.004625 -0.004793 0.012352 0.000000 0.000000 0.000000
# 4 0.000000 0.000000 0.000000 0.039576 0.000000 0.000000
# 5 0.000000 0.000000 0.000000 0.000000 0.051782 0.000000
# 6 0.000000 0.000000 0.000000 0.000000 0.000000 0.048316
#
#
# Mechanical properties :
#
#
# Convention : Reuss Voigt Hill
#
# Bulk Modulus (GPa) = 17.37358 39.16986 28.27172
# Shear Modulus (GPa) = 14.08017 21.02178 17.55097
#
# Velocity S-wave (km/s) = 3.06873 3.74964 3.42614
# Velocity P-wave (km/s) = 4.91691 6.70403 5.87878
#
# Compressibility (1/GPa) = 0.05755867
#
# Stress axis : x y z
#
# Youngs Moduli (GPa) = 10.91775 43.55680 80.96106
#
# Poissons Ratio (x) = 1.10005 0.37441
# Poissons Ratio (y) = 0.27573 0.38801
# Poissons Ratio (z) = 0.05049 0.20875
#
# Static dielectric constant tensor:
#      x y z
#    x 2.728290 0.000000 0.000000 
#    y 0.000000 2.815970 0.000000 
#    z 0.000000 0.000000 2.998650 
# 
# 
# High freq. dielectric constant tensor:
#      x y z
#    x 1.518300 0.000000 0.000000 
#    y 0.000000 1.555290 0.000000 
#    z 0.000000 0.000000 1.592230 
# 
# From -- ./inp_files/8966.got.cif
#   From: 2010.03.12/outbox.cif.g09.slc.cpg/sg63_5_cif.got.tgz:8966.got - 2010.04.10 19:34:48.
