data_PCOD8255835
_publ_section_title
;
Structure prediction by ZEFSAII (Michael W. Deem and Ramdas Pophale) SiO2 
 PCOD8255835
Probable space group: C M C M
;
_chemical_formula_sum "Si O2"
_cell_formula_units_Z 88
_cell_length_a 33.936269
_cell_length_b 23.095993
_cell_length_c 8.867715
_cell_angle_alpha 90.000000
_cell_angle_beta 90.000000
_cell_angle_gamma 90.000000
_cell_volume 6950.442579
_symmetry_space_group_name_H-M "C M C M"
_symmetry_group_IT_number 63
_symmetry_cell_setting 'orthorhombic'
loop_
_space_group_symop_operation_xyz
x,y,z
-x,-y,1/2+z
x,-y,-z
-x,y,1/2-z
-x,-y,-z
x,y,1/2-z
-x,y,z
x,-y,1/2+z
1/2+x,1/2+y,z
1/2-x,1/2-y,1/2+z
1/2+x,1/2-y,-z
1/2-x,1/2+y,1/2-z
1/2-x,1/2-y,-z
1/2+x,1/2+y,1/2-z
1/2-x,1/2+y,z
1/2+x,1/2-y,1/2+z
loop_
_atom_site_type_symbol
_atom_site_label
_atom_site_fract_x
_atom_site_fract_y
_atom_site_fract_z
Si Si1 0.342332 0.123472 0.571472
Si Si2 0.724478 0.670391 0.416232
Si Si3 0.085515 0.436431 0.928369
Si Si4 0.230737 0.439275 0.570207
Si Si5 0.191384 0.730007 0.083310
Si Si6 0.000000 0.560339 0.077583
O O1 0.340033 0.116960 0.750000
O O2 0.385081 0.107037 0.510465
O O3 0.310984 0.080109 0.497110
O O4 0.334651 0.190105 0.526203
O O5 0.705613 0.666614 0.250000
O O6 0.734846 0.606082 0.476716
O O7 0.764935 0.705376 0.407650
O O8 0.693400 0.703917 0.522168
O O9 0.094643 0.440107 0.750000
O O10 0.041718 0.408571 0.960834
O O11 0.089735 0.500000 0.000000
O O12 0.243564 0.500000 0.500000
O O13 0.226287 0.442735 0.750000
O O14 0.172308 0.730908 0.250000
O O15 0.000000 0.543984 0.250000
O O16 0.000000 0.500000 0.000000
#
# Coordination Sequence:
#
# PCOD8255835 Si02
#       6
#    16  16  16  16  16   8
#     4  11  20  28  38  52  70  91 113 141 177 211
#     4   8  15  26  38  51  67  87 110 137 169 205
#     4  10  18  29  41  54  70  88 112 140 174 212
#     4  10  19  29  39  52  70  91 115 143 175 209
#     4   9  16  26  39  53  67  85 110 139 170 204
#     4   8  16  28  42  54  66  86 110 138 169 206
#
# _framework density 12.661064
#
# number of rings (size 3 to 8) (size 9 to 14) (size 15 to 20)
#    0.000    2.545    0.000    4.909    0.000    5.818 
#    0.000    0.000    0.000    0.000    0.000    0.000 
#    0.000    0.000    0.000    0.000    0.000    0.000 
#
# Total GULP energy -545211.406376 kJ/mol
# GULP energy per Si atom -12391.168327 kJ/mol
# Density = 1.263225 g / cm^3
# Si number density = 12.661064 Si / 1000 Ang^3
#
#
#
# Elastic Constant Matrix: (Units=GPa)
#
#
# Indices 1 2 3 4 5 6 
#
# 1 45.9302 37.9660 28.1405 0.0000 0.0000 0.0000
# 2 37.9660 86.2999 39.9635 0.0000 0.0000 0.0000
# 3 28.1405 39.9635 82.4113 0.0000 0.0000 0.0000
# 4 0.0000 0.0000 0.0000 20.5788 0.0000 0.0000
# 5 0.0000 0.0000 0.0000 0.0000 14.3155 0.0000
# 6 0.0000 0.0000 0.0000 0.0000 0.0000 12.1936
#
#
#
# Elastic Compliance Matrix: (Units=1/GPa)
#
#
# Indices 1 2 3 4 5 6 
#
# 1 0.036386 -0.013223 -0.006012 0.000000 0.000000 0.000000
# 2 -0.013223 0.019749 -0.005061 0.000000 0.000000 0.000000
# 3 -0.006012 -0.005061 0.016642 0.000000 0.000000 0.000000
# 4 0.000000 0.000000 0.000000 0.048594 0.000000 0.000000
# 5 0.000000 0.000000 0.000000 0.000000 0.069854 0.000000
# 6 0.000000 0.000000 0.000000 0.000000 0.000000 0.082011
#
#
# Mechanical properties :
#
#
# Convention : Reuss Voigt Hill
#
# Bulk Modulus (GPa) = 41.35200 47.42015 44.38608
# Shear Modulus (GPa) = 15.15658 16.65566 15.90612
#
# Velocity S-wave (km/s) = 3.46367 3.63092 3.54828
# Velocity P-wave (km/s) = 6.98052 7.42381 7.20558
#
# Compressibility (1/GPa) = 0.02418263
#
# Stress axis : x y z
#
# Youngs Moduli (GPa) = 27.48298 50.63639 60.09027
#
# Poissons Ratio (x) = 0.66958 0.36128
# Poissons Ratio (y) = 0.36341 0.30414
# Poissons Ratio (z) = 0.16523 0.25629
#
# Static dielectric constant tensor:
#      x y z
#    x 2.281320 0.000000 0.000000 
#    y 0.000000 2.591380 0.000000 
#    z 0.000000 0.000000 2.798130 
# 
# 
# High freq. dielectric constant tensor:
#      x y z
#    x 1.439210 0.000000 0.000000 
#    y 0.000000 1.458730 0.000000 
#    z 0.000000 0.000000 1.500870 
# 
# From -- ./inp_files/14626.got.cif
#   From: 2010.03.12/outbox.cif.g09.slc.cpg/sg63_8_cif.got.tgz:14626.got - 2010.04.10 19:34:48.
