data_PCOD8255798
_publ_section_title
;
Structure prediction by ZEFSAII (Michael W. Deem and Ramdas Pophale) SiO2 
 PCOD8255798
Probable space group: C M C M
;
_chemical_formula_sum "Si O2"
_cell_formula_units_Z 96
_cell_length_a 9.105908
_cell_length_b 22.969147
_cell_length_c 26.450619
_cell_angle_alpha 90.000000
_cell_angle_beta 90.000000
_cell_angle_gamma 90.000000
_cell_volume 5532.277615
_symmetry_space_group_name_H-M "C M C M"
_symmetry_group_IT_number 63
_symmetry_cell_setting 'orthorhombic'
loop_
_space_group_symop_operation_xyz
x,y,z
-x,-y,1/2+z
x,-y,-z
-x,y,1/2-z
-x,-y,-z
x,y,1/2-z
-x,y,z
x,-y,1/2+z
1/2+x,1/2+y,z
1/2-x,1/2-y,1/2+z
1/2+x,1/2-y,-z
1/2-x,1/2+y,1/2-z
1/2-x,1/2-y,-z
1/2+x,1/2+y,1/2-z
1/2-x,1/2+y,z
1/2+x,1/2-y,1/2+z
loop_
_atom_site_type_symbol
_atom_site_label
_atom_site_fract_x
_atom_site_fract_y
_atom_site_fract_z
Si Si1 0.326950 0.140683 0.250000
Si Si2 0.326157 0.039660 0.954239
Si Si3 0.335015 0.171335 0.538180
Si Si4 0.166047 0.011607 0.139907
Si Si5 0.664805 0.223945 0.072595
Si Si6 0.168395 0.021806 0.250000
Si Si7 0.170374 0.852146 0.651172
O O1 0.500000 0.149567 0.250000
O O2 0.286280 0.072936 0.250000
O O3 0.257766 0.170282 0.299632
O O4 0.500000 0.035028 0.954416
O O5 0.272880 0.105679 0.962930
O O6 0.272715 0.018945 0.899477
O O7 0.261775 0.000000 0.000000
O O8 0.500000 0.172359 0.560865
O O9 0.337028 0.196862 0.482529
O O10 0.228627 0.210486 0.572765
O O11 0.190714 0.986016 0.197423
O O12 0.200412 0.080054 0.141027
O O13 0.000000 0.999801 0.122170
O O14 0.500000 0.225568 0.095083
O O15 0.771513 0.183370 0.104032
O O16 0.000000 0.047581 0.250000
O O17 0.000000 0.839175 0.659164
#
# Coordination Sequence:
#
# PCOD8255798 Si02
#       7
#     8  16  16  16  16   8  16
#     4  10  18  28  46  73 100 125 160 202 238 282
#     4  10  20  33  49  71 102 134 161 197 245 295
#     4   9  19  34  49  69  99 131 160 196 247 296
#     4   9  18  31  49  72  98 129 163 200 242 291
#     4  10  19  32  52  73  93 123 165 206 240 286
#     4   8  16  32  48  67  98 131 162 200 250 292
#     4  10  19  32  49  71 101 132 159 195 248 294
#
# _framework density 17.352708
#
# number of rings (size 3 to 8) (size 9 to 14) (size 15 to 20)
#    0.000    2.500    0.000    3.750    0.000    6.333 
#    0.000    0.000    0.000    1.000    0.000    2.333 
#    0.000    0.000    0.000    0.000    0.000    0.000 
#
# Total GULP energy -595009.160657 kJ/mol
# GULP energy per Si atom -12396.024180 kJ/mol
# Density = 1.731321 g / cm^3
# Si number density = 17.352708 Si / 1000 Ang^3
#
#
#
# Elastic Constant Matrix: (Units=GPa)
#
#
# Indices 1 2 3 4 5 6 
#
# 1 80.9092 35.3667 25.5609 0.0000 0.0000 0.0000
# 2 35.3667 80.9288 25.3542 0.0000 0.0000 0.0000
# 3 25.5609 25.3542 61.9910 0.0000 0.0000 0.0000
# 4 0.0000 0.0000 0.0000 15.8328 0.0000 0.0000
# 5 0.0000 0.0000 0.0000 0.0000 33.8772 0.0000
# 6 0.0000 0.0000 0.0000 0.0000 0.0000 22.1867
#
#
#
# Elastic Compliance Matrix: (Units=1/GPa)
#
#
# Indices 1 2 3 4 5 6 
#
# 1 0.016241 -0.005734 -0.004351 0.000000 0.000000 0.000000
# 2 -0.005734 0.016197 -0.004260 0.000000 0.000000 0.000000
# 3 -0.004351 -0.004260 0.019668 0.000000 0.000000 0.000000
# 4 0.000000 0.000000 0.000000 0.063160 0.000000 0.000000
# 5 0.000000 0.000000 0.000000 0.000000 0.029518 0.000000
# 6 0.000000 0.000000 0.000000 0.000000 0.000000 0.045072
#
#
# Mechanical properties :
#
#
# Convention : Reuss Voigt Hill
#
# Bulk Modulus (GPa) = 42.70867 44.04363 43.37615
# Shear Modulus (GPa) = 22.08945 23.54915 22.81930
#
# Velocity S-wave (km/s) = 3.57174 3.68786 3.63027
# Velocity P-wave (km/s) = 6.45564 6.60078 6.52861
#
# Compressibility (1/GPa) = 0.02341445
#
# Stress axis : x y z
#
# Youngs Moduli (GPa) = 61.57381 61.73948 50.84409
#
# Poissons Ratio (x) = 0.35402 0.22124
# Poissons Ratio (y) = 0.35307 0.21661
# Poissons Ratio (z) = 0.26793 0.26302
#
# Static dielectric constant tensor:
#      x y z
#    x 3.299730 0.000000 0.000000 
#    y 0.000000 3.078450 0.000000 
#    z 0.000000 0.000000 3.388620 
# 
# 
# High freq. dielectric constant tensor:
#      x y z
#    x 1.675340 0.000000 0.000000 
#    y 0.000000 1.638700 0.000000 
#    z 0.000000 0.000000 1.671740 
# 
# From -- ./inp_files/60042.got.cif
#   From: 2010.03.12/outbox.cif.g09.slc.cpg/sg63_31_cif.got.tgz:60042.got - 2010.04.10 19:34:48.
