data_PCOD8255929
_publ_section_title
;
Structure prediction by ZEFSAII (Michael W. Deem and Ramdas Pophale) SiO2 
 PCOD8255929
Probable space group: C M C M
;
_chemical_formula_sum "Si O2"
_cell_formula_units_Z 80
_cell_length_a 14.259808
_cell_length_b 20.530869
_cell_length_c 15.343081
_cell_angle_alpha 90.000000
_cell_angle_beta 90.000000
_cell_angle_gamma 90.000000
_cell_volume 4491.936288
_symmetry_space_group_name_H-M "C M C M"
_symmetry_group_IT_number 63
_symmetry_cell_setting 'orthorhombic'
loop_
_space_group_symop_operation_xyz
x,y,z
-x,-y,1/2+z
x,-y,-z
-x,y,1/2-z
-x,-y,-z
x,y,1/2-z
-x,y,z
x,-y,1/2+z
1/2+x,1/2+y,z
1/2-x,1/2-y,1/2+z
1/2+x,1/2-y,-z
1/2-x,1/2+y,1/2-z
1/2-x,1/2-y,-z
1/2+x,1/2+y,1/2-z
1/2-x,1/2+y,z
1/2+x,1/2-y,1/2+z
loop_
_atom_site_type_symbol
_atom_site_label
_atom_site_fract_x
_atom_site_fract_y
_atom_site_fract_z
Si Si1 0.897693 0.816295 0.407564
Si Si2 0.755192 0.143760 0.149756
Si Si3 0.892919 0.067849 0.040345
Si Si4 0.203836 0.290871 0.155300
Si Si5 0.394621 0.177234 0.485883
O O1 0.881626 0.879329 0.465341
O O2 0.813809 0.810731 0.338738
O O3 0.893934 0.754152 0.470443
O O4 0.000000 0.819306 0.360465
O O5 0.724704 0.132740 0.250000
O O6 0.828473 0.087667 0.122349
O O7 0.804643 0.213745 0.137139
O O8 0.663329 0.139092 0.088331
O O9 0.000000 0.062186 0.073512
O O10 0.857714 0.000000 0.000000
O O11 0.159720 0.307276 0.250000
O O12 0.151422 0.332602 0.081313
O O13 0.500000 0.148874 0.486072
#
# Coordination Sequence:
#
# PCOD8255929 Si02
#       5
#    16  16  16  16  16
#     4   9  16  30  49  71 104 136 165 207 259 310
#     4  10  19  33  53  76 103 135 175 217 258 305
#     4  10  19  32  52  75 103 140 174 206 249 302
#     4  10  18  29  49  77 106 137 173 211 261 316
#     4  10  18  31  51  75 105 134 167 214 267 311
#
# _framework density 17.809691000000001
#
# number of rings (size 3 to 8) (size 9 to 14) (size 15 to 20)
#    0.000    2.200    4.000    1.200    0.000    1.600 
#    0.000    7.000    0.000    4.200    0.000    0.000 
#    0.000    0.000    0.000    0.000    0.000    0.000 
#
# Total GULP energy -495816.932640 kJ/mol
# GULP energy per Si atom -12395.423316 kJ/mol
# Density = 1.776915 g / cm^3
# Si number density = 17.809691 Si / 1000 Ang^3
#
#
#
# Elastic Constant Matrix: (Units=GPa)
#
#
# Indices 1 2 3 4 5 6 
#
# 1 112.4093 31.2617 70.2407 0.0000 0.0000 0.0000
# 2 31.2617 53.9612 20.6053 0.0000 0.0000 0.0000
# 3 70.2407 20.6053 130.3574 0.0000 0.0000 0.0000
# 4 0.0000 0.0000 0.0000 16.5770 0.0000 0.0000
# 5 0.0000 0.0000 0.0000 0.0000 13.0183 0.0000
# 6 0.0000 0.0000 0.0000 0.0000 0.0000 20.8368
#
#
#
# Elastic Compliance Matrix: (Units=1/GPa)
#
#
# Indices 1 2 3 4 5 6 
#
# 1 0.015027 -0.005974 -0.007153 0.000000 0.000000 0.000000
# 2 -0.005974 0.022098 -0.000274 0.000000 0.000000 0.000000
# 3 -0.007153 -0.000274 0.011569 0.000000 0.000000 0.000000
# 4 0.000000 0.000000 0.000000 0.060325 0.000000 0.000000
# 5 0.000000 0.000000 0.000000 0.000000 0.076815 0.000000
# 6 0.000000 0.000000 0.000000 0.000000 0.000000 0.047992
#
#
# Mechanical properties :
#
#
# Convention : Reuss Voigt Hill
#
# Bulk Modulus (GPa) = 45.67975 60.10481 52.89228
# Shear Modulus (GPa) = 18.66205 21.72777 20.19491
#
# Velocity S-wave (km/s) = 3.24058 3.49663 3.37104
# Velocity P-wave (km/s) = 6.30129 7.07980 6.70186
#
# Compressibility (1/GPa) = 0.02189154
#
# Stress axis : x y z
#
# Youngs Moduli (GPa) = 66.54661 45.25386 86.44105
#
# Poissons Ratio (x) = 0.27037 0.61829
# Poissons Ratio (y) = 0.39758 0.02366
# Poissons Ratio (z) = 0.47599 0.01239
#
# Static dielectric constant tensor:
#      x y z
#    x 3.539120 0.000000 0.000000 
#    y 0.000000 2.994090 0.000000 
#    z 0.000000 0.000000 3.185700 
# 
# 
# High freq. dielectric constant tensor:
#      x y z
#    x 1.690250 0.000000 0.000000 
#    y 0.000000 1.642860 0.000000 
#    z 0.000000 0.000000 1.681690 
# 
# From -- ./inp_files/31620.got.cif
#   From: 2010.03.12/outbox.cif.g09.slc.cpg/sg63_16_cif.got.tgz:31620.got - 2010.04.10 19:34:48.
