data_PCOD8255956
_publ_section_title
;
Structure prediction by ZEFSAII (Michael W. Deem and Ramdas Pophale) SiO2 
 PCOD8255956
Probable space group: C M C M
;
_chemical_formula_sum "Si O2"
_cell_formula_units_Z 80
_cell_length_a 23.767188
_cell_length_b 26.283398
_cell_length_c 8.689612
_cell_angle_alpha 90.000000
_cell_angle_beta 90.000000
_cell_angle_gamma 90.000000
_cell_volume 5428.248214
_symmetry_space_group_name_H-M "C M C M"
_symmetry_group_IT_number 63
_symmetry_cell_setting 'orthorhombic'
loop_
_space_group_symop_operation_xyz
x,y,z
-x,-y,1/2+z
x,-y,-z
-x,y,1/2-z
-x,-y,-z
x,y,1/2-z
-x,y,z
x,-y,1/2+z
1/2+x,1/2+y,z
1/2-x,1/2-y,1/2+z
1/2+x,1/2-y,-z
1/2-x,1/2+y,1/2-z
1/2-x,1/2-y,-z
1/2+x,1/2+y,1/2-z
1/2-x,1/2+y,z
1/2+x,1/2-y,1/2+z
loop_
_atom_site_type_symbol
_atom_site_label
_atom_site_fract_x
_atom_site_fract_y
_atom_site_fract_z
Si Si1 0.000000 0.399663 0.067117
Si Si2 0.500000 0.782689 0.068321
Si Si3 0.683523 0.147173 0.069558
Si Si4 0.112477 0.445876 0.933041
Si Si5 0.115111 0.744113 0.067970
Si Si6 0.212965 0.794616 0.931098
O O1 0.000000 0.341187 0.010456
O O2 0.000000 0.403837 0.250000
O O3 0.946628 0.428451 0.000265
O O4 0.500000 0.780271 0.250000
O O5 0.553597 0.752670 0.004235
O O6 0.674066 0.149916 0.250000
O O7 0.660716 0.093307 0.008230
O O8 0.645585 0.193266 0.001960
O O9 0.750289 0.154286 0.031329
O O10 0.108214 0.448567 0.750000
O O11 0.130177 0.500000 0.000000
O O12 0.110183 0.745109 0.250000
O O13 0.151765 0.793254 0.012075
O O14 0.205227 0.787292 0.750000
O O15 0.250000 0.750000 0.000000
#
# Coordination Sequence:
#
# PCOD8255956 Si02
#       6
#     8   8  16  16  16  16
#     4  11  22  34  45  61  80 108 148 189 227 257
#     4  11  21  30  44  65  87 112 145 185 216 253
#     4   8  16  29  45  60  80 108 138 172 218 260
#     4  11  21  34  47  61  81 111 146 185 224 261
#     4  10  18  30  45  63  84 112 141 172 215 261
#     4   9  16  28  44  64  83 106 137 173 213 258
#
# _framework density 14.737719999999999
#
# number of rings (size 3 to 8) (size 9 to 14) (size 15 to 20)
#    0.000    2.200    2.000    3.900    0.000    0.800 
#    0.000    3.000    0.000    0.000    0.000    0.000 
#    0.000    0.000    0.000    0.900    0.000   10.800 
#
# Total GULP energy -495729.820626 kJ/mol
# GULP energy per Si atom -12393.245516 kJ/mol
# Density = 1.470418 g / cm^3
# Si number density = 14.737720 Si / 1000 Ang^3
#
#
#
# Elastic Constant Matrix: (Units=GPa)
#
#
# Indices 1 2 3 4 5 6 
#
# 1 123.3752 61.8208 34.5356 0.0000 0.0000 0.0000
# 2 61.8208 68.2398 24.6365 0.0000 0.0000 0.0000
# 3 34.5356 24.6365 59.8071 0.0000 0.0000 0.0000
# 4 0.0000 0.0000 0.0000 15.6586 0.0000 0.0000
# 5 0.0000 0.0000 0.0000 0.0000 22.6819 0.0000
# 6 0.0000 0.0000 0.0000 0.0000 0.0000 17.0331
#
#
#
# Elastic Compliance Matrix: (Units=1/GPa)
#
#
# Indices 1 2 3 4 5 6 
#
# 1 0.015519 -0.012715 -0.003724 0.000000 0.000000 0.000000
# 2 -0.012715 0.027631 -0.004040 0.000000 0.000000 0.000000
# 3 -0.003724 -0.004040 0.020535 0.000000 0.000000 0.000000
# 4 0.000000 0.000000 0.000000 0.063863 0.000000 0.000000
# 5 0.000000 0.000000 0.000000 0.000000 0.044088 0.000000
# 6 0.000000 0.000000 0.000000 0.000000 0.000000 0.058709
#
#
# Mechanical properties :
#
#
# Convention : Reuss Voigt Hill
#
# Bulk Modulus (GPa) = 43.99857 54.82311 49.41084
# Shear Modulus (GPa) = 17.92895 19.76999 18.84947
#
# Velocity S-wave (km/s) = 3.49167 3.66656 3.58018
# Velocity P-wave (km/s) = 6.79521 7.43000 7.11968
#
# Compressibility (1/GPa) = 0.02272801
#
# Stress axis : x y z
#
# Youngs Moduli (GPa) = 64.43814 36.19062 48.69737
#
# Poissons Ratio (x) = 0.46015 0.18134
# Poissons Ratio (y) = 0.81931 0.19675
# Poissons Ratio (z) = 0.23995 0.14622
#
# Static dielectric constant tensor:
#      x y z
#    x 3.155100 0.000000 0.000000 
#    y 0.000000 2.912600 0.000000 
#    z 0.000000 0.000000 2.893050 
# 
# 
# High freq. dielectric constant tensor:
#      x y z
#    x 1.560620 0.000000 0.000000 
#    y 0.000000 1.520390 0.000000 
#    z 0.000000 0.000000 1.570860 
# 
# From -- ./inp_files/8456.got.cif
#   From: 2010.03.12/outbox.cif.g09.slc.cpg/sg63_5_cif.got.tgz:8456.got - 2010.04.10 19:34:48.
