data_PCOD8255182
_publ_section_title
;
Structure prediction by ZEFSAII (Michael W. Deem and Ramdas Pophale) SiO2 
 PCOD8255182
Probable space group: P N M A
;
_chemical_formula_sum "Si O2"
_cell_formula_units_Z 32
_cell_length_a 15.436892
_cell_length_b 10.087629
_cell_length_c 9.907024
_cell_angle_alpha 90.000000
_cell_angle_beta 90.000000
_cell_angle_gamma 90.000000
_cell_volume 1542.738019
_symmetry_space_group_name_H-M "P N M A"
_symmetry_group_IT_number 62
_symmetry_cell_setting 'orthorhombic'
loop_
_space_group_symop_operation_xyz
x,y,z
1/2-x,-y,1/2+z
1/2+x,1/2-y,1/2-z
-x,1/2+y,-z
-x,-y,-z
1/2+x,y,1/2-z
1/2-x,1/2+y,1/2+z
x,1/2-y,z
loop_
_atom_site_type_symbol
_atom_site_label
_atom_site_fract_x
_atom_site_fract_y
_atom_site_fract_z
Si Si1 0.360738 0.499444 0.063364
Si Si2 0.068842 0.750000 0.148773
Si Si3 0.740140 0.250000 0.828228
Si Si4 0.746703 0.750000 0.014886
Si Si5 0.461408 0.979212 0.796896
Si Si6 0.435823 0.750000 0.589157
O O1 0.314316 0.620623 0.136865
O O2 0.294009 0.379052 0.054186
O O3 0.441772 0.450923 0.151925
O O4 0.392920 0.545769 0.916501
O O5 0.167849 0.750000 0.094822
O O6 0.045871 0.872891 0.243234
O O7 0.014943 0.750000 0.012726
O O8 0.770041 0.250000 0.673425
O O9 0.848823 0.750000 0.996202
O O10 0.438515 0.880789 0.677871
#
# Coordination Sequence:
#
# PCOD8255182 Si02
#       6
#     8   4   4   4   8   4
#     4  11  24  44  72  95 133 182 222 284 330 402
#     4  12  24  46  65  97 143 174 215 282 335 401
#     4  12  25  44  67 102 133 178 229 276 335 397
#     4  12  25  44  67 102 138 173 232 281 332 394
#     4  11  23  46  68  98 133 175 230 266 344 407
#     4  12  26  42  67 103 136 175 220 281 340 398
#
# _framework density 20.742342000000001
#
# number of rings (size 3 to 8) (size 9 to 14) (size 15 to 20)
#    0.000    0.500    2.500    6.000    0.000    6.000 
#    4.500    0.000    0.000    0.000    0.000    0.000 
#    0.000    0.000    0.000    0.000    0.000    0.000 
#
# Total GULP energy -397053.753980 kJ/mol
# GULP energy per Si atom -12407.929812 kJ/mol
# Density = 2.069513 g / cm^3
# Si number density = 20.742342 Si / 1000 Ang^3
#
#
#
# Elastic Constant Matrix: (Units=GPa)
#
#
# Indices 1 2 3 4 5 6 
#
# 1 100.9340 15.9976 14.5215 0.0000 0.0000 0.0000
# 2 15.9976 126.9110 24.9444 0.0000 0.0000 0.0000
# 3 14.5215 24.9444 60.5584 0.0000 0.0000 0.0000
# 4 0.0000 0.0000 0.0000 27.0952 0.0000 0.0000
# 5 0.0000 0.0000 0.0000 0.0000 35.9132 0.0000
# 6 0.0000 0.0000 0.0000 0.0000 0.0000 33.0249
#
#
#
# Elastic Compliance Matrix: (Units=1/GPa)
#
#
# Indices 1 2 3 4 5 6 
#
# 1 0.010353 -0.000889 -0.002116 0.000000 0.000000 0.000000
# 2 -0.000889 0.008650 -0.003350 0.000000 0.000000 0.000000
# 3 -0.002116 -0.003350 0.018400 0.000000 0.000000 0.000000
# 4 0.000000 0.000000 0.000000 0.036907 0.000000 0.000000
# 5 0.000000 0.000000 0.000000 0.000000 0.027845 0.000000
# 6 0.000000 0.000000 0.000000 0.000000 0.000000 0.030280
#
#
# Mechanical properties :
#
#
# Convention : Reuss Voigt Hill
#
# Bulk Modulus (GPa) = 40.49773 44.37005 42.43389
# Shear Modulus (GPa) = 32.59951 34.73598 33.66775
#
# Velocity S-wave (km/s) = 3.96869 4.09668 4.03319
# Velocity P-wave (km/s) = 6.36924 6.61925 6.49545
#
# Compressibility (1/GPa) = 0.02469274
#
# Stress axis : x y z
#
# Youngs Moduli (GPa) = 96.59175 115.60680 54.34699
#
# Poissons Ratio (x) = 0.10278 0.11502
# Poissons Ratio (y) = 0.08587 0.18205
# Poissons Ratio (z) = 0.20442 0.38726
#
# Static dielectric constant tensor:
#      x y z
#    x 3.995070 0.000000 0.000000 
#    y 0.000000 3.889990 0.000000 
#    z 0.000000 0.000000 3.835760 
# 
# 
# High freq. dielectric constant tensor:
#      x y z
#    x 1.833030 0.000000 0.000000 
#    y 0.000000 1.825590 0.000000 
#    z 0.000000 0.000000 1.818600 
# 
# From -- ./inp_files/5811.got.cif
#   From: 2010.03.12/outbox.cif.g09.slc.cpg/sg62_3_cif.got.tgz:5811.got - 2010.04.10 19:12:36.
