data_PCOD8255185
_publ_section_title
;
Structure prediction by ZEFSAII (Michael W. Deem and Ramdas Pophale) SiO2 
 PCOD8255185
Probable space group: P N M A
;
_chemical_formula_sum "Si O2"
_cell_formula_units_Z 48
_cell_length_a 9.860522
_cell_length_b 28.749156
_cell_length_c 8.692972
_cell_angle_alpha 90.000000
_cell_angle_beta 90.000000
_cell_angle_gamma 90.000000
_cell_volume 2464.298352
_symmetry_space_group_name_H-M "P N M A"
_symmetry_group_IT_number 62
_symmetry_cell_setting 'orthorhombic'
loop_
_space_group_symop_operation_xyz
x,y,z
1/2-x,-y,1/2+z
1/2+x,1/2-y,1/2-z
-x,1/2+y,-z
-x,-y,-z
1/2+x,y,1/2-z
1/2-x,1/2+y,1/2+z
x,1/2-y,z
loop_
_atom_site_type_symbol
_atom_site_label
_atom_site_fract_x
_atom_site_fract_y
_atom_site_fract_z
Si Si1 0.137680 0.519201 0.432185
Si Si2 0.710525 0.696700 0.108639
Si Si3 0.979941 0.302521 0.886398
Si Si4 0.214388 0.611499 0.605497
Si Si5 0.971720 0.383926 0.101165
Si Si6 0.116099 0.969288 0.070898
O O1 0.173826 0.570709 0.489302
O O2 0.246768 0.481202 0.482319
O O3 0.131491 0.520736 0.249556
O O4 0.000000 0.500000 0.500000
O O5 0.679999 0.750000 0.056420
O O6 0.613819 0.680904 0.246796
O O7 0.864644 0.691705 0.167751
O O8 0.683579 0.661934 0.967601
O O9 0.944878 0.250000 0.932500
O O10 0.952353 0.331644 0.040557
O O11 0.372673 0.606385 0.649020
O O12 0.123974 0.606252 0.755717
O O13 0.925053 0.416064 0.958961
O O14 0.000000 0.000000 0.000000
#
# Coordination Sequence:
#
# PCOD8255185 Si02
#       6
#     8   8   8   8   8   8
#     4  12  26  42  67  91 122 165 204 257 308 367
#     4   9  19  38  63  89 121 158 202 252 307 367
#     4   9  19  38  62  89 121 158 201 253 308 365
#     4  11  24  41  60  90 123 162 205 252 308 364
#     4  11  24  40  61  88 125 161 204 255 305 368
#     4  12  24  44  63  91 124 160 206 252 308 363
#
# _framework density 19.478162000000001
#
# number of rings (size 3 to 8) (size 9 to 14) (size 15 to 20)
#    0.000    1.333    1.667    4.000    2.333    2.000 
#    0.000    0.000    0.000    0.000    0.000    0.000 
#    0.000    0.000    0.000    0.000    0.000    0.000 
#
# Total GULP energy -595340.120187 kJ/mol
# GULP energy per Si atom -12402.919171 kJ/mol
# Density = 1.943383 g / cm^3
# Si number density = 19.478162 Si / 1000 Ang^3
#
#
#
# Elastic Constant Matrix: (Units=GPa)
#
#
# Indices 1 2 3 4 5 6 
#
# 1 131.3193 45.4922 65.7406 0.0000 0.0000 0.0000
# 2 45.4922 94.1031 42.9800 0.0000 0.0000 0.0000
# 3 65.7406 42.9800 141.9197 0.0000 0.0000 0.0000
# 4 0.0000 0.0000 0.0000 31.8403 0.0000 0.0000
# 5 0.0000 0.0000 0.0000 0.0000 36.6258 0.0000
# 6 0.0000 0.0000 0.0000 0.0000 0.0000 32.0116
#
#
#
# Elastic Compliance Matrix: (Units=1/GPa)
#
#
# Indices 1 2 3 4 5 6 
#
# 1 0.010776 -0.003400 -0.003962 0.000000 0.000000 0.000000
# 2 -0.003400 0.013405 -0.002485 0.000000 0.000000 0.000000
# 3 -0.003962 -0.002485 0.009634 0.000000 0.000000 0.000000
# 4 0.000000 0.000000 0.000000 0.031407 0.000000 0.000000
# 5 0.000000 0.000000 0.000000 0.000000 0.027303 0.000000
# 6 0.000000 0.000000 0.000000 0.000000 0.000000 0.031239
#
#
# Mechanical properties :
#
#
# Convention : Reuss Voigt Hill
#
# Bulk Modulus (GPa) = 70.81250 75.08531 72.94891
# Shear Modulus (GPa) = 33.74606 34.30416 34.02511
#
# Velocity S-wave (km/s) = 4.16686 4.20117 4.18405
# Velocity P-wave (km/s) = 7.71907 7.88449 7.80222
#
# Compressibility (1/GPa) = 0.01412180
#
# Stress axis : x y z
#
# Youngs Moduli (GPa) = 92.79528 74.59810 103.79748
#
# Poissons Ratio (x) = 0.25363 0.41127
# Poissons Ratio (y) = 0.31550 0.25791
# Poissons Ratio (z) = 0.36768 0.18536
#
# Static dielectric constant tensor:
#      x y z
#    x 3.763170 0.000000 0.000000 
#    y 0.000000 3.628770 0.000000 
#    z 0.000000 0.000000 3.551790 
# 
# 
# High freq. dielectric constant tensor:
#      x y z
#    x 1.774650 0.000000 0.000000 
#    y 0.000000 1.776050 0.000000 
#    z 0.000000 0.000000 1.749750 
# 
# From -- ./inp_files/4493.got.cif
#   From: 2010.03.12/outbox.cif.g09.slc.cpg/sg62_3_cif.got.tgz:4493.got - 2010.04.10 19:12:36.
