data_PCOD8255934
_publ_section_title
;
Structure prediction by ZEFSAII (Michael W. Deem and Ramdas Pophale) SiO2 
 PCOD8255934
Probable space group: C M C M
;
_chemical_formula_sum "Si O2"
_cell_formula_units_Z 128
_cell_length_a 20.499169
_cell_length_b 19.010290
_cell_length_c 19.657379
_cell_angle_alpha 90.000000
_cell_angle_beta 90.000000
_cell_angle_gamma 90.000000
_cell_volume 7660.385208
_symmetry_space_group_name_H-M "C M C M"
_symmetry_group_IT_number 63
_symmetry_cell_setting 'orthorhombic'
loop_
_space_group_symop_operation_xyz
x,y,z
-x,-y,1/2+z
x,-y,-z
-x,y,1/2-z
-x,-y,-z
x,y,1/2-z
-x,y,z
x,-y,1/2+z
1/2+x,1/2+y,z
1/2-x,1/2-y,1/2+z
1/2+x,1/2-y,-z
1/2-x,1/2+y,1/2-z
1/2-x,1/2-y,-z
1/2+x,1/2+y,1/2-z
1/2-x,1/2+y,z
1/2+x,1/2-y,1/2+z
loop_
_atom_site_type_symbol
_atom_site_label
_atom_site_fract_x
_atom_site_fract_y
_atom_site_fract_z
Si Si1 0.877884 0.094459 0.328107
Si Si2 0.810483 0.316034 0.066881
Si Si3 0.426275 0.320682 0.437267
Si Si4 0.120557 0.971641 0.427370
Si Si5 0.774222 0.405563 0.828571
Si Si6 0.926369 0.219073 0.088577
Si Si7 0.274403 0.029169 0.572623
Si Si8 0.811154 0.723533 0.411702
O O1 0.893816 0.079328 0.250000
O O2 0.801905 0.108472 0.341339
O O3 0.916646 0.163473 0.351164
O O4 0.901293 0.026701 0.370026
O O5 0.877664 0.284655 0.096289
O O6 0.809228 0.397185 0.088792
O O7 0.749988 0.274945 0.100441
O O8 0.806089 0.311875 0.985515
O O9 0.500000 0.296650 0.421473
O O10 0.415152 0.398993 0.409697
O O11 0.411186 0.320736 0.517878
O O12 0.377932 0.266303 0.400657
O O13 0.197374 0.957624 0.428111
O O14 0.096378 0.000000 0.500000
O O15 0.791211 0.417349 0.750000
O O16 0.796191 0.475150 0.868868
O O17 0.812410 0.337707 0.855780
O O18 0.000000 0.248472 0.090970
O O19 0.297947 0.000000 0.500000
#
# Coordination Sequence:
#
# PCOD8255934 Si02
#       8
#    16  16  16  16  16  16  16  16
#     4  10  20  33  49  74 107 142 176 209 256 318
#     4  10  18  30  55  79 100 129 178 217 258 305
#     4  10  20  32  50  78 106 134 174 218 256 299
#     4  10  18  29  50  74 104 141 177 210 251 305
#     4  10  20  34  52  78 109 136 170 219 268 310
#     4  10  20  33  50  75 107 137 168 214 264 311
#     4  10  18  30  52  81 103 134 174 217 259 310
#     4  10  18  31  53  78 100 135 172 217 259 305
#
# _framework density 16.709341999999999
#
# number of rings (size 3 to 8) (size 9 to 14) (size 15 to 20)
#    0.000    2.000    5.000    0.000    0.000    1.000 
#    0.000    1.875    0.000    2.250    0.000    0.000 
#    0.000    0.000    0.000    0.000    0.000    0.000 
#
# Total GULP energy -793824.304664 kJ/mol
# GULP energy per Si atom -12403.504760 kJ/mol
# Density = 1.667131 g / cm^3
# Si number density = 16.709342 Si / 1000 Ang^3
#
#
#
# Elastic Constant Matrix: (Units=GPa)
#
#
# Indices 1 2 3 4 5 6 
#
# 1 86.0553 58.6233 35.1280 0.0000 0.0000 0.0000
# 2 58.6233 139.1570 53.7257 0.0000 0.0000 0.0000
# 3 35.1280 53.7257 87.6958 0.0000 0.0000 0.0000
# 4 0.0000 0.0000 0.0000 26.5081 0.0000 0.0000
# 5 0.0000 0.0000 0.0000 0.0000 13.7233 0.0000
# 6 0.0000 0.0000 0.0000 0.0000 0.0000 24.4222
#
#
#
# Elastic Compliance Matrix: (Units=1/GPa)
#
#
# Indices 1 2 3 4 5 6 
#
# 1 0.016941 -0.005916 -0.003162 0.000000 0.000000 0.000000
# 2 -0.005916 0.011479 -0.004662 0.000000 0.000000 0.000000
# 3 -0.003162 -0.004662 0.015526 0.000000 0.000000 0.000000
# 4 0.000000 0.000000 0.000000 0.037724 0.000000 0.000000
# 5 0.000000 0.000000 0.000000 0.000000 0.072869 0.000000
# 6 0.000000 0.000000 0.000000 0.000000 0.000000 0.040946
#
#
# Mechanical properties :
#
#
# Convention : Reuss Voigt Hill
#
# Bulk Modulus (GPa) = 60.73392 67.54023 64.13707
# Shear Modulus (GPa) = 21.88625 23.95946 22.92286
#
# Velocity S-wave (km/s) = 3.62307 3.79079 3.70788
# Velocity P-wave (km/s) = 7.34359 7.72454 7.53647
#
# Compressibility (1/GPa) = 0.01646526
#
# Stress axis : x y z
#
# Youngs Moduli (GPa) = 59.02707 87.11896 64.40899
#
# Poissons Ratio (x) = 0.51543 0.20363
# Poissons Ratio (y) = 0.34922 0.30029
# Poissons Ratio (z) = 0.18662 0.40618
#
# Static dielectric constant tensor:
#      x y z
#    x 2.970240 0.000000 0.000000 
#    y 0.000000 3.096840 0.000000 
#    z 0.000000 0.000000 2.943450 
# 
# 
# High freq. dielectric constant tensor:
#      x y z
#    x 1.622850 0.000000 0.000000 
#    y 0.000000 1.646100 0.000000 
#    z 0.000000 0.000000 1.621840 
# 
# From -- ./inp_files/56953.got.cif
#   From: 2010.03.12/outbox.cif.g09.slc.cpg/sg63_29_cif.got.tgz:56953.got - 2010.04.10 19:34:48.
