data_PCOD8255889
_publ_section_title
;
Structure prediction by ZEFSAII (Michael W. Deem and Ramdas Pophale) SiO2 
 PCOD8255889
Probable space group: C M C M
;
_chemical_formula_sum "Si O2"
_cell_formula_units_Z 96
_cell_length_a 9.280325
_cell_length_b 26.776970
_cell_length_c 22.847173
_cell_angle_alpha 90.000000
_cell_angle_beta 90.000000
_cell_angle_gamma 90.000000
_cell_volume 5677.499280
_symmetry_space_group_name_H-M "C M C M"
_symmetry_group_IT_number 63
_symmetry_cell_setting 'orthorhombic'
loop_
_space_group_symop_operation_xyz
x,y,z
-x,-y,1/2+z
x,-y,-z
-x,y,1/2-z
-x,-y,-z
x,y,1/2-z
-x,y,z
x,-y,1/2+z
1/2+x,1/2+y,z
1/2-x,1/2-y,1/2+z
1/2+x,1/2-y,-z
1/2-x,1/2+y,1/2-z
1/2-x,1/2-y,-z
1/2+x,1/2+y,1/2-z
1/2-x,1/2+y,z
1/2+x,1/2-y,1/2+z
loop_
_atom_site_type_symbol
_atom_site_label
_atom_site_fract_x
_atom_site_fract_y
_atom_site_fract_z
Si Si1 0.170955 0.510865 0.750000
Si Si2 0.330897 0.400592 0.954317
Si Si3 0.163176 0.113913 0.750000
Si Si4 0.337026 0.040854 0.131501
Si Si5 0.334094 0.637756 0.624144
Si Si6 0.335610 0.057614 0.559846
Si Si7 0.165549 0.798860 0.016751
O O1 0.236183 0.565879 0.750000
O O2 0.222639 0.480134 0.693024
O O3 0.000000 0.518181 0.750000
O O4 0.500000 0.411280 0.952796
O O5 0.262243 0.413210 0.890822
O O6 0.258687 0.437038 0.001712
O O7 0.297141 0.343387 0.971576
O O8 0.188658 0.149143 0.806941
O O9 0.000000 0.093442 0.750000
O O10 0.500000 0.060396 0.139583
O O11 0.331250 0.998827 0.081632
O O12 0.500000 0.622965 0.609745
O O13 0.230951 0.591401 0.610965
O O14 0.292125 0.684655 0.583087
O O15 0.500000 0.074164 0.547006
O O16 0.000000 0.784425 0.012920
O O17 0.250000 0.750000 0.000000
#
# Coordination Sequence:
#
# PCOD8255889 Si02
#       7
#     8  16   8  16  16  16  16
#     4  10  20  34  48  69 104 141 173 208 237 277
#     4  10  21  34  49  71  99 127 161 206 251 295
#     4  10  18  30  50  73 102 137 167 196 239 297
#     4  10  20  32  47  69 100 136 171 202 237 282
#     4   9  18  31  48  74 104 131 163 202 246 298
#     4  10  18  29  47  71 100 133 167 199 239 288
#     4   9  19  35  53  74  97 123 159 208 261 306
#
# _framework density 16.908852
#
# number of rings (size 3 to 8) (size 9 to 14) (size 15 to 20)
#    0.000    2.333    1.667    2.500    0.000    7.333 
#    0.000    0.000    0.000    1.000    0.000    4.667 
#    0.000    0.000    0.000    0.000    0.000    0.000 
#
# Total GULP energy -595015.505106 kJ/mol
# GULP energy per Si atom -12396.156356 kJ/mol
# Density = 1.687037 g / cm^3
# Si number density = 16.908852 Si / 1000 Ang^3
#
#
#
# Elastic Constant Matrix: (Units=GPa)
#
#
# Indices 1 2 3 4 5 6 
#
# 1 76.3958 46.2575 43.8007 0.0000 0.0000 0.0000
# 2 46.2575 82.6043 60.9478 0.0000 0.0000 0.0000
# 3 43.8007 60.9478 113.8454 0.0000 0.0000 0.0000
# 4 0.0000 0.0000 0.0000 17.2313 0.0000 0.0000
# 5 0.0000 0.0000 0.0000 0.0000 25.8531 0.0000
# 6 0.0000 0.0000 0.0000 0.0000 0.0000 29.2999
#
#
#
# Elastic Compliance Matrix: (Units=1/GPa)
#
#
# Indices 1 2 3 4 5 6 
#
# 1 0.020352 -0.009289 -0.002858 0.000000 0.000000 0.000000
# 2 -0.009289 0.024249 -0.009408 0.000000 0.000000 0.000000
# 3 -0.002858 -0.009408 0.014920 0.000000 0.000000 0.000000
# 4 0.000000 0.000000 0.000000 0.058034 0.000000 0.000000
# 5 0.000000 0.000000 0.000000 0.000000 0.038680 0.000000
# 6 0.000000 0.000000 0.000000 0.000000 0.000000 0.034130
#
#
# Mechanical properties :
#
#
# Convention : Reuss Voigt Hill
#
# Bulk Modulus (GPa) = 60.92904 63.87309 62.40107
# Shear Modulus (GPa) = 20.92530 22.59948 21.76239
#
# Velocity S-wave (km/s) = 3.52168 3.65985 3.59143
# Velocity P-wave (km/s) = 7.25592 7.46433 7.36086
#
# Compressibility (1/GPa) = 0.01641253
#
# Stress axis : x y z
#
# Youngs Moduli (GPa) = 49.13428 41.23865 67.02418
#
# Poissons Ratio (x) = 0.38305 0.19153
# Poissons Ratio (y) = 0.45639 0.63058
# Poissons Ratio (z) = 0.14041 0.38798
#
# Static dielectric constant tensor:
#      x y z
#    x 3.268610 0.000000 0.000000 
#    y 0.000000 2.835480 0.000000 
#    z 0.000000 0.000000 3.437410 
# 
# 
# High freq. dielectric constant tensor:
#      x y z
#    x 1.658470 0.000000 0.000000 
#    y 0.000000 1.612630 0.000000 
#    z 0.000000 0.000000 1.656980 
# 
# From -- ./inp_files/59992.got.cif
#   From: 2010.03.12/outbox.cif.g09.slc.cpg/sg63_30_cif.got.tgz:59992.got - 2010.04.10 19:34:48.
