data_PCOD8255396
_publ_section_title
;
Structure prediction by ZEFSAII (Michael W. Deem and Ramdas Pophale) SiO2 
 PCOD8255396
Probable space group: C M C M
;
_chemical_formula_sum "Si O2"
_cell_formula_units_Z 88
_cell_length_a 9.147467
_cell_length_b 19.999328
_cell_length_c 24.525523
_cell_angle_alpha 90.000000
_cell_angle_beta 90.000000
_cell_angle_gamma 90.000000
_cell_volume 4486.777485
_symmetry_space_group_name_H-M "C M C M"
_symmetry_group_IT_number 63
_symmetry_cell_setting 'orthorhombic'
loop_
_space_group_symop_operation_xyz
x,y,z
-x,-y,1/2+z
x,-y,-z
-x,y,1/2-z
-x,-y,-z
x,y,1/2-z
-x,y,z
x,-y,1/2+z
1/2+x,1/2+y,z
1/2-x,1/2-y,1/2+z
1/2+x,1/2-y,-z
1/2-x,1/2+y,1/2-z
1/2-x,1/2-y,-z
1/2+x,1/2+y,1/2-z
1/2-x,1/2+y,z
1/2+x,1/2-y,1/2+z
loop_
_atom_site_type_symbol
_atom_site_label
_atom_site_fract_x
_atom_site_fract_y
_atom_site_fract_z
Si Si1 0.331555 0.588532 0.187264
Si Si2 0.662582 0.144254 0.484668
Si Si3 0.174837 0.332283 0.396248
Si Si4 0.245417 0.000000 0.500000
Si Si5 0.174969 0.700958 0.372774
Si Si6 0.162497 0.963763 0.383483
O O1 0.310468 0.568959 0.250000
O O2 0.500000 0.605928 0.173874
O O3 0.231439 0.652546 0.174644
O O4 0.277292 0.526335 0.150939
O O5 0.500000 0.172203 0.482454
O O6 0.732865 0.171837 0.540821
O O7 0.655935 0.063740 0.484884
O O8 0.739969 0.172581 0.430395
O O9 0.253456 0.273458 0.362911
O O10 0.226740 0.403025 0.371751
O O11 0.000000 0.327801 0.391614
O O12 0.148510 0.982519 0.447359
O O13 0.000000 0.705179 0.370451
O O14 0.000000 0.943876 0.363462
#
# Coordination Sequence:
#
# PCOD8255396 Si02
#       6
#    16  16  16   8  16  16
#     4  10  22  41  62  83 111 149 192 236 284 340
#     4   9  18  30  50  81 117 153 187 228 280 341
#     4  10  21  36  55  82 117 156 190 228 284 346
#     4  10  16  30  52  84 115 150 183 232 285 350
#     4  11  21  36  57  84 115 150 192 238 283 334
#     4  10  20  35  56  85 115 147 188 238 289 342
#
# _framework density 19.613185000000001
#
# number of rings (size 3 to 8) (size 9 to 14) (size 15 to 20)
#    0.000    2.000    1.818    2.182    0.000    1.818 
#    0.000    2.727    0.000    3.273    0.000    0.000 
#    0.000    0.000    0.000    0.000    0.000    0.000 
#
# Total GULP energy -545467.054622 kJ/mol
# GULP energy per Si atom -12396.978514 kJ/mol
# Density = 1.956854 g / cm^3
# Si number density = 19.613185 Si / 1000 Ang^3
#
#
#
# Elastic Constant Matrix: (Units=GPa)
#
#
# Indices 1 2 3 4 5 6 
#
# 1 87.8460 51.5617 29.9824 0.0000 0.0000 0.0000
# 2 51.5617 137.2856 51.2131 0.0000 0.0000 0.0000
# 3 29.9824 51.2131 70.2019 0.0000 0.0000 0.0000
# 4 0.0000 0.0000 0.0000 23.7900 0.0000 0.0000
# 5 0.0000 0.0000 0.0000 0.0000 22.0044 0.0000
# 6 0.0000 0.0000 0.0000 0.0000 0.0000 33.8915
#
#
#
# Elastic Compliance Matrix: (Units=1/GPa)
#
#
# Indices 1 2 3 4 5 6 
#
# 1 0.015101 -0.004487 -0.003176 0.000000 0.000000 0.000000
# 2 -0.004487 0.011341 -0.006357 0.000000 0.000000 0.000000
# 3 -0.003176 -0.006357 0.020239 0.000000 0.000000 0.000000
# 4 0.000000 0.000000 0.000000 0.042035 0.000000 0.000000
# 5 0.000000 0.000000 0.000000 0.000000 0.045446 0.000000
# 6 0.000000 0.000000 0.000000 0.000000 0.000000 0.029506
#
#
# Mechanical properties :
#
#
# Convention : Reuss Voigt Hill
#
# Bulk Modulus (GPa) = 53.64693 62.31644 57.98168
# Shear Modulus (GPa) = 25.26274 26.77558 26.01916
#
# Velocity S-wave (km/s) = 3.59283 3.69885 3.64623
# Velocity P-wave (km/s) = 6.68005 7.07698 6.88138
#
# Compressibility (1/GPa) = 0.01864040
#
# Stress axis : x y z
#
# Youngs Moduli (GPa) = 66.21979 88.17873 49.41044
#
# Poissons Ratio (x) = 0.39564 0.15695
# Poissons Ratio (y) = 0.29711 0.31409
# Poissons Ratio (z) = 0.21034 0.56054
#
# Static dielectric constant tensor:
#      x y z
#    x 3.287390 0.000000 0.000000 
#    y 0.000000 3.567380 0.000000 
#    z 0.000000 0.000000 3.445710 
# 
# 
# High freq. dielectric constant tensor:
#      x y z
#    x 1.749940 0.000000 0.000000 
#    y 0.000000 1.770330 0.000000 
#    z 0.000000 0.000000 1.739380 
# 
# From -- ./inp_files/59628.got.cif
#   From: 2010.03.12/outbox.cif.g09.slc.cpg/sg63_30_cif.got.tgz:59628.got - 2010.04.10 19:34:48.
