data_PCOD8255365
_publ_section_title
;
Structure prediction by ZEFSAII (Michael W. Deem and Ramdas Pophale) SiO2 
 PCOD8255365
Probable space group: C M C M
;
_chemical_formula_sum "Si O2"
_cell_formula_units_Z 80
_cell_length_a 21.086659
_cell_length_b 15.999966
_cell_length_c 14.862979
_cell_angle_alpha 90.000000
_cell_angle_beta 90.000000
_cell_angle_gamma 90.000000
_cell_volume 5014.558462
_symmetry_space_group_name_H-M "C M C M"
_symmetry_group_IT_number 63
_symmetry_cell_setting 'orthorhombic'
loop_
_space_group_symop_operation_xyz
x,y,z
-x,-y,1/2+z
x,-y,-z
-x,y,1/2-z
-x,-y,-z
x,y,1/2-z
-x,y,z
x,-y,1/2+z
1/2+x,1/2+y,z
1/2-x,1/2-y,1/2+z
1/2+x,1/2-y,-z
1/2-x,1/2+y,1/2-z
1/2-x,1/2-y,-z
1/2+x,1/2+y,1/2-z
1/2-x,1/2+y,z
1/2+x,1/2-y,1/2+z
loop_
_atom_site_type_symbol
_atom_site_label
_atom_site_fract_x
_atom_site_fract_y
_atom_site_fract_z
Si Si1 0.571090 0.363250 0.149849
Si Si2 0.162998 0.266742 0.915641
Si Si3 0.209970 0.557789 0.750000
Si Si4 0.175422 0.172446 0.250000
Si Si5 0.678895 0.874947 0.750000
Si Si6 0.356970 0.510162 0.750000
Si Si7 0.801349 0.696879 0.890585
O O1 0.569804 0.321763 0.250000
O O2 0.500000 0.379854 0.113780
O O3 0.606334 0.300663 0.081978
O O4 0.609073 0.451588 0.160280
O O5 0.148265 0.335816 0.839812
O O6 0.226957 0.216663 0.894650
O O7 0.167493 0.312777 0.011543
O O8 0.167456 0.474353 0.750000
O O9 0.284002 0.536607 0.750000
O O10 0.191329 0.609690 0.661226
O O11 0.247121 0.142584 0.250000
O O12 0.131971 0.089722 0.250000
O O13 0.162493 0.228232 0.338475
#
# Coordination Sequence:
#
# PCOD8255365 Si02
#       7
#    16  16   8   8   8   8  16
#     4   9  16  27  48  68  87 122 155 187 230 261
#     4  10  16  29  44  66  93 119 149 190 229 279
#     4  10  16  28  42  67  95 122 143 180 232 280
#     4   8  16  28  40  64  85 124 157 174 224 279
#     4   9  17  25  43  65  92 115 147 188 230 273
#     4   9  14  27  46  60  95 117 146 196 224 262
#     4   9  17  27  45  63  93 126 148 178 236 279
#
# _framework density 15.953549000000001
#
# number of rings (size 3 to 8) (size 9 to 14) (size 15 to 20)
#    0.600    2.200    3.000    0.600    0.000    0.800 
#    0.000    1.000    0.000    3.600    0.000    6.300 
#    0.000    0.000    0.000    0.000    0.000    0.000 
#
# Total GULP energy -495685.472408 kJ/mol
# GULP energy per Si atom -12392.136810 kJ/mol
# Density = 1.591724 g / cm^3
# Si number density = 15.953549 Si / 1000 Ang^3
#
#
#
# Elastic Constant Matrix: (Units=GPa)
#
#
# Indices 1 2 3 4 5 6 
#
# 1 56.0407 34.8813 17.3680 0.0000 0.0000 0.0000
# 2 34.8813 125.5002 53.0090 0.0000 0.0000 0.0000
# 3 17.3680 53.0090 102.3490 0.0000 0.0000 0.0000
# 4 0.0000 0.0000 0.0000 10.3716 0.0000 0.0000
# 5 0.0000 0.0000 0.0000 0.0000 11.8261 0.0000
# 6 0.0000 0.0000 0.0000 0.0000 0.0000 12.9453
#
#
#
# Elastic Compliance Matrix: (Units=1/GPa)
#
#
# Indices 1 2 3 4 5 6 
#
# 1 0.021617 -0.005707 -0.000712 0.000000 0.000000 0.000000
# 2 -0.005707 0.011706 -0.005094 0.000000 0.000000 0.000000
# 3 -0.000712 -0.005094 0.012530 0.000000 0.000000 0.000000
# 4 0.000000 0.000000 0.000000 0.096417 0.000000 0.000000
# 5 0.000000 0.000000 0.000000 0.000000 0.084559 0.000000
# 6 0.000000 0.000000 0.000000 0.000000 0.000000 0.077248
#
#
# Mechanical properties :
#
#
# Convention : Reuss Voigt Hill
#
# Bulk Modulus (GPa) = 43.81128 54.93406 49.37267
# Shear Modulus (GPa) = 14.93809 18.93736 16.93773
#
# Velocity S-wave (km/s) = 3.06330 3.44907 3.26189
# Velocity P-wave (km/s) = 6.32718 7.09718 6.72321
#
# Compressibility (1/GPa) = 0.02282517
#
# Stress axis : x y z
#
# Youngs Moduli (GPa) = 46.25901 85.42461 79.80918
#
# Poissons Ratio (x) = 0.48756 0.05685
# Poissons Ratio (y) = 0.26402 0.40658
# Poissons Ratio (z) = 0.03295 0.43519
#
# Static dielectric constant tensor:
#      x y z
#    x 2.667550 0.000000 0.000000 
#    y 0.000000 3.085830 0.000000 
#    z 0.000000 0.000000 2.928800 
# 
# 
# High freq. dielectric constant tensor:
#      x y z
#    x 1.568310 0.000000 0.000000 
#    y 0.000000 1.607390 0.000000 
#    z 0.000000 0.000000 1.600270 
# 
# From -- ./inp_files/48148.got.cif
#   From: 2010.03.12/outbox.cif.g09.slc.cpg/sg63_25_cif.got.tgz:48148.got - 2010.04.10 19:34:48.
