data_PCOD8255761
_publ_section_title
;
Structure prediction by ZEFSAII (Michael W. Deem and Ramdas Pophale) SiO2 
 PCOD8255761
Probable space group: C M C M
;
_chemical_formula_sum "Si O2"
_cell_formula_units_Z 104
_cell_length_a 28.133321
_cell_length_b 24.380523
_cell_length_c 8.892710
_cell_angle_alpha 90.000000
_cell_angle_beta 90.000000
_cell_angle_gamma 90.000000
_cell_volume 6099.554961
_symmetry_space_group_name_H-M "C M C M"
_symmetry_group_IT_number 63
_symmetry_cell_setting 'orthorhombic'
loop_
_space_group_symop_operation_xyz
x,y,z
-x,-y,1/2+z
x,-y,-z
-x,y,1/2-z
-x,-y,-z
x,y,1/2-z
-x,y,z
x,-y,1/2+z
1/2+x,1/2+y,z
1/2-x,1/2-y,1/2+z
1/2+x,1/2-y,-z
1/2-x,1/2+y,1/2-z
1/2-x,1/2-y,-z
1/2+x,1/2+y,1/2-z
1/2-x,1/2+y,z
1/2+x,1/2-y,1/2+z
loop_
_atom_site_type_symbol
_atom_site_label
_atom_site_fract_x
_atom_site_fract_y
_atom_site_fract_z
Si Si1 0.590100 0.625784 0.428186
Si Si2 0.379151 0.941052 0.424703
Si Si3 0.000000 0.059065 0.429223
Si Si4 0.944588 0.758890 0.576138
Si Si5 0.318279 0.560165 0.428982
Si Si6 0.774352 0.558730 0.925246
Si Si7 0.944519 0.352666 0.924015
O O1 0.587186 0.625435 0.250000
O O2 0.546347 0.590397 0.491270
O O3 0.585372 0.688763 0.483034
O O4 0.639217 0.599345 0.484907
O O5 0.388952 0.949829 0.250000
O O6 0.326376 0.914461 0.450473
O O7 0.417615 0.900054 0.489085
O O8 0.384819 0.000000 0.500000
O O9 0.000000 0.054790 0.250000
O O10 0.000000 0.000000 0.500000
O O11 0.934128 0.746139 0.750000
O O12 0.927569 0.706669 0.481202
O O13 0.000000 0.772120 0.551211
O O14 0.325300 0.500000 0.500000
O O15 0.316884 0.555011 0.250000
O O16 0.269504 0.588859 0.490221
O O17 0.761933 0.553558 0.750000
O O18 0.777559 0.500000 0.000000
O O19 0.932149 0.357434 0.750000
O O20 0.000000 0.360570 0.957321
#
# Coordination Sequence:
#
# PCOD8255761 Si02
#       7
#    16  16   8  16  16  16  16
#     4   9  17  29  47  68  92 126 167 207 245 290
#     4  10  20  34  54  78 102 130 161 193 233 283
#     4  10  18  30  44  64  96 130 163 202 249 296
#     4   9  16  31  53  70  88 124 171 209 241 283
#     4  10  18  28  44  68  97 128 163 202 246 294
#     4   9  17  30  48  70  95 124 160 198 236 282
#     4  10  21  35  51  75 105 131 156 193 237 284
#
# _framework density 17.050425000000001
#
# number of rings (size 3 to 8) (size 9 to 14) (size 15 to 20)
#    0.000    2.462    0.769    3.231    0.000    3.077 
#    0.000    3.077    0.000    0.923    0.000    0.000 
#    0.000    0.000    0.000    0.000    0.000    0.000 
#
# Total GULP energy -644546.713035 kJ/mol
# GULP energy per Si atom -12395.129097 kJ/mol
# Density = 1.701162 g / cm^3
# Si number density = 17.050425 Si / 1000 Ang^3
#
#
#
# Elastic Constant Matrix: (Units=GPa)
#
#
# Indices 1 2 3 4 5 6 
#
# 1 97.4336 67.2546 51.3168 0.0000 0.0000 0.0000
# 2 67.2546 111.0704 46.2337 0.0000 0.0000 0.0000
# 3 51.3168 46.2337 82.5872 0.0000 0.0000 0.0000
# 4 0.0000 0.0000 0.0000 24.4700 0.0000 0.0000
# 5 0.0000 0.0000 0.0000 0.0000 24.1487 0.0000
# 6 0.0000 0.0000 0.0000 0.0000 0.0000 13.6715
#
#
#
# Elastic Compliance Matrix: (Units=1/GPa)
#
#
# Indices 1 2 3 4 5 6 
#
# 1 0.020780 -0.009398 -0.007651 0.000000 0.000000 0.000000
# 2 -0.009398 0.015989 -0.003111 0.000000 0.000000 0.000000
# 3 -0.007651 -0.003111 0.018604 0.000000 0.000000 0.000000
# 4 0.000000 0.000000 0.000000 0.040866 0.000000 0.000000
# 5 0.000000 0.000000 0.000000 0.000000 0.041410 0.000000
# 6 0.000000 0.000000 0.000000 0.000000 0.000000 0.073145
#
#
# Mechanical properties :
#
#
# Convention : Reuss Voigt Hill
#
# Bulk Modulus (GPa) = 66.43233 68.96683 67.69958
# Shear Modulus (GPa) = 19.52118 20.87712 20.19915
#
# Velocity S-wave (km/s) = 3.38732 3.50299 3.44564
# Velocity P-wave (km/s) = 7.37194 7.54306 7.45799
#
# Compressibility (1/GPa) = 0.01505291
#
# Stress axis : x y z
#
# Youngs Moduli (GPa) = 48.12329 62.54324 53.75123
#
# Poissons Ratio (x) = 0.58777 0.41124
# Poissons Ratio (y) = 0.45225 0.16724
# Poissons Ratio (z) = 0.36819 0.19460
#
# Static dielectric constant tensor:
#      x y z
#    x 3.745150 0.000000 0.000000 
#    y 0.000000 3.109700 0.000000 
#    z 0.000000 0.000000 3.148290 
# 
# 
# High freq. dielectric constant tensor:
#      x y z
#    x 1.661410 0.000000 0.000000 
#    y 0.000000 1.635190 0.000000 
#    z 0.000000 0.000000 1.655890 
# 
# From -- ./inp_files/12840.got.cif
#   From: 2010.03.12/outbox.cif.g09.slc.cpg/sg63_7_cif.got.tgz:12840.got - 2010.04.10 19:34:48.
