data_PCOD8255364
_publ_section_title
;
Structure prediction by ZEFSAII (Michael W. Deem and Ramdas Pophale) SiO2 
 PCOD8255364
Probable space group: C M C M
;
_chemical_formula_sum "Si O2"
_cell_formula_units_Z 96
_cell_length_a 14.123404
_cell_length_b 20.705406
_cell_length_c 18.951067
_cell_angle_alpha 90.000000
_cell_angle_beta 90.000000
_cell_angle_gamma 90.000000
_cell_volume 5541.875948
_symmetry_space_group_name_H-M "C M C M"
_symmetry_group_IT_number 63
_symmetry_cell_setting 'orthorhombic'
loop_
_space_group_symop_operation_xyz
x,y,z
-x,-y,1/2+z
x,-y,-z
-x,y,1/2-z
-x,-y,-z
x,y,1/2-z
-x,y,z
x,-y,1/2+z
1/2+x,1/2+y,z
1/2-x,1/2-y,1/2+z
1/2+x,1/2-y,-z
1/2-x,1/2+y,1/2-z
1/2-x,1/2-y,-z
1/2+x,1/2+y,1/2-z
1/2-x,1/2+y,z
1/2+x,1/2-y,1/2+z
loop_
_atom_site_type_symbol
_atom_site_label
_atom_site_fract_x
_atom_site_fract_y
_atom_site_fract_z
Si Si1 0.796919 0.189694 0.461612
Si Si2 0.795816 0.741318 0.329911
Si Si3 0.802616 0.373873 0.170732
Si Si4 0.500000 0.187459 0.330639
Si Si5 0.000000 0.624640 0.472317
Si Si6 0.195046 0.570304 0.525615
Si Si7 0.500000 0.805592 0.172746
Si Si8 0.000000 0.766590 0.538069
O O1 0.750000 0.250000 0.500000
O O2 0.768629 0.195666 0.379258
O O3 0.763579 0.121575 0.489923
O O4 0.907990 0.191558 0.478779
O O5 0.769092 0.722256 0.250000
O O6 0.771839 0.816327 0.343646
O O7 0.907504 0.731525 0.344504
O O8 0.788485 0.402448 0.250000
O O9 0.790018 0.428060 0.110625
O O10 0.908647 0.349038 0.160074
O O11 0.500000 0.160303 0.250000
O O12 0.500000 0.127668 0.386274
O O13 0.911133 0.585888 0.501727
O O14 0.000000 0.698510 0.497695
O O15 0.225251 0.500000 0.500000
O O16 0.500000 0.774825 0.250000
O O17 0.500000 0.745314 0.121424
#
# Coordination Sequence:
#
# PCOD8255364 Si02
#       8
#    16  16  16   8   8  16   8   8
#     4  12  20  36  57  83 113 145 193 237 288 339
#     4  10  18  31  54  82 114 146 185 241 289 335
#     4  10  19  34  54  80 111 145 187 235 286 341
#     4  10  20  31  50  85 120 147 182 234 293 343
#     4  12  19  35  58  82 112 150 189 236 286 344
#     4  12  24  38  55  83 118 157 195 233 286 346
#     4  10  16  27  52  85 115 135 176 239 295 340
#     4  12  20  31  60  88 110 140 190 243 292 334
#
# _framework density 17.322654
#
# number of rings (size 3 to 8) (size 9 to 14) (size 15 to 20)
#    0.000    1.000    8.333    0.250    0.000    0.000 
#    0.000    2.083    0.000    0.000    0.000    0.000 
#    0.000    0.000    0.000    0.000    0.000    0.000 
#
# Total GULP energy -595083.280655 kJ/mol
# GULP energy per Si atom -12397.568347 kJ/mol
# Density = 1.728323 g / cm^3
# Si number density = 17.322654 Si / 1000 Ang^3
#
#
#
# Elastic Constant Matrix: (Units=GPa)
#
#
# Indices 1 2 3 4 5 6 
#
# 1 107.4618 39.6326 28.2382 0.0000 0.0000 0.0000
# 2 39.6326 101.7529 54.6208 0.0000 0.0000 0.0000
# 3 28.2382 54.6208 132.6231 0.0000 0.0000 0.0000
# 4 0.0000 0.0000 0.0000 23.0023 0.0000 0.0000
# 5 0.0000 0.0000 0.0000 0.0000 15.7412 0.0000
# 6 0.0000 0.0000 0.0000 0.0000 0.0000 19.3150
#
#
#
# Elastic Compliance Matrix: (Units=1/GPa)
#
#
# Indices 1 2 3 4 5 6 
#
# 1 0.010922 -0.003859 -0.000736 0.000000 0.000000 0.000000
# 2 -0.003859 0.013981 -0.004936 0.000000 0.000000 0.000000
# 3 -0.000736 -0.004936 0.009730 0.000000 0.000000 0.000000
# 4 0.000000 0.000000 0.000000 0.043474 0.000000 0.000000
# 5 0.000000 0.000000 0.000000 0.000000 0.063528 0.000000
# 6 0.000000 0.000000 0.000000 0.000000 0.000000 0.051773
#
#
# Mechanical properties :
#
#
# Convention : Reuss Voigt Hill
#
# Bulk Modulus (GPa) = 64.22682 65.20232 64.71457
# Shear Modulus (GPa) = 22.97156 26.23479 24.60317
#
# Velocity S-wave (km/s) = 3.64552 3.89585 3.77276
# Velocity P-wave (km/s) = 7.40790 7.61305 7.51117
#
# Compressibility (1/GPa) = 0.01556982
#
# Stress axis : x y z
#
# Youngs Moduli (GPa) = 91.55560 71.52788 102.77581
#
# Poissons Ratio (x) = 0.27603 0.07567
# Poissons Ratio (y) = 0.35331 0.50733
# Poissons Ratio (z) = 0.06741 0.35308
#
# Static dielectric constant tensor:
#      x y z
#    x 3.315900 0.000000 0.000000 
#    y 0.000000 2.828350 0.000000 
#    z 0.000000 0.000000 3.791440 
# 
# 
# High freq. dielectric constant tensor:
#      x y z
#    x 1.674650 0.000000 0.000000 
#    y 0.000000 1.611030 0.000000 
#    z 0.000000 0.000000 1.698110 
# 
# From -- ./inp_files/52969.got.cif
#   From: 2010.03.12/outbox.cif.g09.slc.cpg/sg63_27_cif.got.tgz:52969.got - 2010.04.10 19:34:48.
