data_PCOD8255962
_publ_section_title
;
Structure prediction by ZEFSAII (Michael W. Deem and Ramdas Pophale) SiO2 
 PCOD8255962
Probable space group: C M C M
;
_chemical_formula_sum "Si O2"
_cell_formula_units_Z 128
_cell_length_a 17.318335
_cell_length_b 24.880547
_cell_length_c 18.407957
_cell_angle_alpha 90.000000
_cell_angle_beta 90.000000
_cell_angle_gamma 90.000000
_cell_volume 7931.798111
_symmetry_space_group_name_H-M "C M C M"
_symmetry_group_IT_number 63
_symmetry_cell_setting 'orthorhombic'
loop_
_space_group_symop_operation_xyz
x,y,z
-x,-y,1/2+z
x,-y,-z
-x,y,1/2-z
-x,-y,-z
x,y,1/2-z
-x,y,z
x,-y,1/2+z
1/2+x,1/2+y,z
1/2-x,1/2-y,1/2+z
1/2+x,1/2-y,-z
1/2-x,1/2+y,1/2-z
1/2-x,1/2-y,-z
1/2+x,1/2+y,1/2-z
1/2-x,1/2+y,z
1/2+x,1/2-y,1/2+z
loop_
_atom_site_type_symbol
_atom_site_label
_atom_site_fract_x
_atom_site_fract_y
_atom_site_fract_z
Si Si1 0.158551 0.272595 0.087531
Si Si2 0.267175 0.613766 0.330752
Si Si3 0.699184 0.232055 0.331445
Si Si4 0.086964 0.826847 0.833698
Si Si5 0.642703 0.924018 0.563704
Si Si6 0.410760 0.133785 0.671302
Si Si7 0.087577 0.464679 0.417237
Si Si8 0.911083 0.696464 0.058608
O O1 0.246555 0.266959 0.114839
O O2 0.105848 0.224567 0.117193
O O3 0.131013 0.330526 0.112830
O O4 0.147390 0.277943 0.000951
O O5 0.257077 0.586879 0.250000
O O6 0.234261 0.673299 0.326599
O O7 0.357936 0.621797 0.350466
O O8 0.225842 0.580960 0.395679
O O9 0.693220 0.257139 0.250000
O O10 0.614040 0.226420 0.366888
O O11 0.097660 0.808528 0.750000
O O12 0.000000 0.845731 0.849969
O O13 0.646907 0.943835 0.479918
O O14 0.597367 0.867839 0.567971
O O15 0.599444 0.973046 0.605072
O O16 0.374448 0.144830 0.750000
O O17 0.500000 0.149387 0.670448
O O18 0.398267 0.071010 0.653689
O O19 0.000000 0.456333 0.446619
O O20 0.000000 0.709799 0.040669
#
# Coordination Sequence:
#
# PCOD8255962 Si02
#       8
#    16  16  16  16  16  16  16  16
#     4  11  18  29  46  66  93 122 150 184 227 276
#     4   8  16  29  44  64  87 111 145 181 215 264
#     4   9  19  33  46  63  90 123 155 189 228 270
#     4   9  16  27  45  67  92 118 139 168 219 278
#     4  10  18  30  46  61  86 122 151 186 230 262
#     4  10  19  29  43  65  91 116 147 189 228 268
#     4  10  19  31  45  61  84 117 158 191 221 266
#     4  11  20  30  47  70  92 119 158 195 230 274
#
# _framework density 16.137577
#
# number of rings (size 3 to 8) (size 9 to 14) (size 15 to 20)
#    0.000    2.250    1.250    4.875    0.000    1.750 
#    0.000    0.000    0.000    4.125    0.000    1.750 
#    0.000    1.000    0.000    3.250    0.000    0.000 
#
# Total GULP energy -792865.197505 kJ/mol
# GULP energy per Si atom -12388.518711 kJ/mol
# Density = 1.610085 g / cm^3
# Si number density = 16.137577 Si / 1000 Ang^3
#
#
#
# Elastic Constant Matrix: (Units=GPa)
#
#
# Indices 1 2 3 4 5 6 
#
# 1 71.6966 33.3575 40.3993 0.0000 0.0000 0.0000
# 2 33.3575 50.2787 29.8380 0.0000 0.0000 0.0000
# 3 40.3993 29.8380 72.8510 0.0000 0.0000 0.0000
# 4 0.0000 0.0000 0.0000 15.7462 0.0000 0.0000
# 5 0.0000 0.0000 0.0000 0.0000 24.3270 0.0000
# 6 0.0000 0.0000 0.0000 0.0000 0.0000 18.5489
#
#
#
# Elastic Compliance Matrix: (Units=1/GPa)
#
#
# Indices 1 2 3 4 5 6 
#
# 1 0.023885 -0.010550 -0.008924 0.000000 0.000000 0.000000
# 2 -0.010550 0.030936 -0.006820 0.000000 0.000000 0.000000
# 3 -0.008924 -0.006820 0.021469 0.000000 0.000000 0.000000
# 4 0.000000 0.000000 0.000000 0.063507 0.000000 0.000000
# 5 0.000000 0.000000 0.000000 0.000000 0.041107 0.000000
# 6 0.000000 0.000000 0.000000 0.000000 0.000000 0.053912
#
#
# Mechanical properties :
#
#
# Convention : Reuss Voigt Hill
#
# Bulk Modulus (GPa) = 42.19267 44.66842 43.43055
# Shear Modulus (GPa) = 16.93167 17.80653 17.36910
#
# Velocity S-wave (km/s) = 3.24266 3.32538 3.28428
# Velocity P-wave (km/s) = 6.34210 6.51798 6.43064
#
# Compressibility (1/GPa) = 0.02370080
#
# Stress axis : x y z
#
# Youngs Moduli (GPa) = 41.86750 32.32457 46.57931
#
# Poissons Ratio (x) = 0.34104 0.41568
# Poissons Ratio (y) = 0.44172 0.31767
# Poissons Ratio (z) = 0.37363 0.22045
#
# Static dielectric constant tensor:
#      x y z
#    x 3.142740 0.000000 0.000000 
#    y 0.000000 2.938980 0.000000 
#    z 0.000000 0.000000 3.215940 
# 
# 
# High freq. dielectric constant tensor:
#      x y z
#    x 1.600320 0.000000 0.000000 
#    y 0.000000 1.592070 0.000000 
#    z 0.000000 0.000000 1.624400 
# 
# From -- ./inp_files/46335.got.cif
#   From: 2010.03.12/outbox.cif.g09.slc.cpg/sg63_24_cif.got.tgz:46335.got - 2010.04.10 19:34:48.
