data_PCOD8255847
_publ_section_title
;
Structure prediction by ZEFSAII (Michael W. Deem and Ramdas Pophale) SiO2 
 PCOD8255847
Probable space group: C M C M
;
_chemical_formula_sum "Si O2"
_cell_formula_units_Z 96
_cell_length_a 19.768437
_cell_length_b 12.676908
_cell_length_c 22.693134
_cell_angle_alpha 90.000000
_cell_angle_beta 90.000000
_cell_angle_gamma 90.000000
_cell_volume 5686.959680
_symmetry_space_group_name_H-M "C M C M"
_symmetry_group_IT_number 63
_symmetry_cell_setting 'orthorhombic'
loop_
_space_group_symop_operation_xyz
x,y,z
-x,-y,1/2+z
x,-y,-z
-x,y,1/2-z
-x,-y,-z
x,y,1/2-z
-x,y,z
x,-y,1/2+z
1/2+x,1/2+y,z
1/2-x,1/2-y,1/2+z
1/2+x,1/2-y,-z
1/2-x,1/2+y,1/2-z
1/2-x,1/2-y,-z
1/2+x,1/2+y,1/2-z
1/2-x,1/2+y,z
1/2+x,1/2-y,1/2+z
loop_
_atom_site_type_symbol
_atom_site_label
_atom_site_fract_x
_atom_site_fract_y
_atom_site_fract_z
Si Si1 0.422632 0.748036 0.318490
Si Si2 0.424269 0.919884 0.411921
Si Si3 0.572869 0.563908 0.939863
Si Si4 0.834303 0.898343 0.605271
Si Si5 0.698535 0.065745 0.443723
Si Si6 0.872253 0.746885 0.500814
O O1 0.411184 0.767866 0.250000
O O2 0.500000 0.708811 0.331784
O O3 0.410228 0.859147 0.350871
O O4 0.366431 0.663621 0.339606
O O5 0.500000 0.968530 0.412735
O O6 0.419967 0.836491 0.465530
O O7 0.369839 0.012861 0.418534
O O8 0.500000 0.556136 0.908291
O O9 0.627804 0.510614 0.897517
O O10 0.570772 0.500000 0.000000
O O11 0.586772 0.686851 0.952301
O O12 0.754412 0.927234 0.608687
O O13 0.840019 0.828532 0.546553
O O14 0.685180 0.184298 0.465490
O O15 0.726776 0.000000 0.500000
#
# Coordination Sequence:
#
# PCOD8255847 Si02
#       6
#    16  16  16  16  16  16
#     4   9  18  34  54  70  85 112 152 198 240 271
#     4   9  18  31  47  69  94 121 157 195 228 267
#     4   9  16  25  39  61  89 119 148 179 215 259
#     4  10  18  29  44  66  93 119 151 187 225 273
#     4  10  19  29  44  67  98 130 152 179 222 274
#     4   9  17  27  44  65  93 128 156 179 214 268
#
# _framework density 16.880725000000002
#
# number of rings (size 3 to 8) (size 9 to 14) (size 15 to 20)
#    0.000    2.667    0.000    3.000    0.000   10.333 
#    0.000    0.833    0.000    0.000    0.000    1.167 
#    0.000    2.667    0.000    0.000    0.000    0.000 
#
# Total GULP energy -594856.804520 kJ/mol
# GULP energy per Si atom -12392.850094 kJ/mol
# Density = 1.684230 g / cm^3
# Si number density = 16.880725 Si / 1000 Ang^3
#
#
#
# Elastic Constant Matrix: (Units=GPa)
#
#
# Indices 1 2 3 4 5 6 
#
# 1 110.5533 36.9024 32.0497 0.0000 0.0000 0.0000
# 2 36.9024 77.7038 21.9608 0.0000 0.0000 0.0000
# 3 32.0497 21.9608 63.7879 0.0000 0.0000 0.0000
# 4 0.0000 0.0000 0.0000 11.1904 0.0000 0.0000
# 5 0.0000 0.0000 0.0000 0.0000 18.1806 0.0000
# 6 0.0000 0.0000 0.0000 0.0000 0.0000 19.1533
#
#
#
# Elastic Compliance Matrix: (Units=1/GPa)
#
#
# Indices 1 2 3 4 5 6 
#
# 1 0.011777 -0.004343 -0.004422 0.000000 0.000000 0.000000
# 2 -0.004343 0.015858 -0.003277 0.000000 0.000000 0.000000
# 3 -0.004422 -0.003277 0.019027 0.000000 0.000000 0.000000
# 4 0.000000 0.000000 0.000000 0.089362 0.000000 0.000000
# 5 0.000000 0.000000 0.000000 0.000000 0.055004 0.000000
# 6 0.000000 0.000000 0.000000 0.000000 0.000000 0.052210
#
#
# Mechanical properties :
#
#
# Convention : Reuss Voigt Hill
#
# Bulk Modulus (GPa) = 44.29272 48.20785 46.25028
# Shear Modulus (GPa) = 18.19173 20.44700 19.31937
#
# Velocity S-wave (km/s) = 3.28634 3.48410 3.38666
# Velocity P-wave (km/s) = 6.37931 6.69367 6.53838
#
# Compressibility (1/GPa) = 0.02257708
#
# Stress axis : x y z
#
# Youngs Moduli (GPa) = 84.91009 63.05822 52.55666
#
# Poissons Ratio (x) = 0.27388 0.23241
# Poissons Ratio (y) = 0.36879 0.17225
# Poissons Ratio (z) = 0.37547 0.20667
#
# Static dielectric constant tensor:
#      x y z
#    x 3.261980 0.000000 0.000000 
#    y 0.000000 3.255360 0.000000 
#    z 0.000000 0.000000 2.766890 
# 
# 
# High freq. dielectric constant tensor:
#      x y z
#    x 1.660580 0.000000 0.000000 
#    y 0.000000 1.649700 0.000000 
#    z 0.000000 0.000000 1.591350 
# 
# From -- ./inp_files/56549.got.cif
#   From: 2010.03.12/outbox.cif.g09.slc.cpg/sg63_29_cif.got.tgz:56549.got - 2010.04.10 19:34:48.
