data_PCOD8255290
_publ_section_title
;
Structure prediction by ZEFSAII (Michael W. Deem and Ramdas Pophale) SiO2 
 PCOD8255290
Probable space group: P N M A
;
_chemical_formula_sum "Si O2"
_cell_formula_units_Z 40
_cell_length_a 16.555083
_cell_length_b 9.127925
_cell_length_c 16.660846
_cell_angle_alpha 90.000000
_cell_angle_beta 90.000000
_cell_angle_gamma 90.000000
_cell_volume 2517.679685
_symmetry_space_group_name_H-M "P N M A"
_symmetry_group_IT_number 62
_symmetry_cell_setting 'orthorhombic'
loop_
_space_group_symop_operation_xyz
x,y,z
1/2-x,-y,1/2+z
1/2+x,1/2-y,1/2-z
-x,1/2+y,-z
-x,-y,-z
1/2+x,y,1/2-z
1/2-x,1/2+y,1/2+z
x,1/2-y,z
loop_
_atom_site_type_symbol
_atom_site_label
_atom_site_fract_x
_atom_site_fract_y
_atom_site_fract_z
Si Si1 0.781908 0.915675 0.114559
Si Si2 0.963182 0.078571 0.384865
Si Si3 0.601174 0.577229 0.713038
Si Si4 0.611789 0.922608 0.050888
Si Si5 0.952961 0.916193 0.068567
O O1 0.767404 0.750000 0.145544
O O2 0.701460 0.978707 0.073060
O O3 0.856097 0.917437 0.049956
O O4 0.808983 0.016470 0.190498
O O5 0.981458 0.250000 0.386690
O O6 0.917546 0.032117 0.304038
O O7 0.906836 0.030253 0.459374
O O8 0.048775 0.996896 0.388626
O O9 0.597714 0.750000 0.699622
O O10 0.535104 0.499738 0.654158
O O11 0.604428 0.750000 0.061207
O O12 0.985670 0.750000 0.075043
O O13 0.000000 0.000000 0.000000
#
# Coordination Sequence:
#
# PCOD8255290 Si02
#       5
#     8   8   8   8   8
#     4   8  17  31  48  68  94 127 160 199 243 285
#     4   9  18  31  49  73  97 126 163 199 241 290
#     4   9  17  30  48  69  97 127 159 200 241 287
#     4   9  17  32  51  70  96 129 163 200 244 288
#     4   9  17  30  49  71  96 126 161 195 239 287
#
# _framework density 15.887643000000001
#
# number of rings (size 3 to 8) (size 9 to 14) (size 15 to 20)
#    1.200    2.000    0.000    0.600    0.000    2.400 
#    0.000    2.000    0.000    4.800    0.000    0.000 
#    0.000    0.000    0.000    0.000    0.000    0.000 
#
# Total GULP energy -495560.791204 kJ/mol
# GULP energy per Si atom -12389.019780 kJ/mol
# Density = 1.585148 g / cm^3
# Si number density = 15.887643 Si / 1000 Ang^3
#
#
#
# Elastic Constant Matrix: (Units=GPa)
#
#
# Indices 1 2 3 4 5 6 
#
# 1 103.8710 40.8079 62.7198 0.0000 0.0000 0.0000
# 2 40.8079 70.3572 49.9307 0.0000 0.0000 0.0000
# 3 62.7198 49.9307 111.0688 0.0000 0.0000 0.0000
# 4 0.0000 0.0000 0.0000 26.0058 0.0000 0.0000
# 5 0.0000 0.0000 0.0000 0.0000 22.7297 0.0000
# 6 0.0000 0.0000 0.0000 0.0000 0.0000 24.8106
#
#
#
# Elastic Compliance Matrix: (Units=1/GPa)
#
#
# Indices 1 2 3 4 5 6 
#
# 1 0.015353 -0.004042 -0.006853 0.000000 0.000000 0.000000
# 2 -0.004042 0.021936 -0.007579 0.000000 0.000000 0.000000
# 3 -0.006853 -0.007579 0.016280 0.000000 0.000000 0.000000
# 4 0.000000 0.000000 0.000000 0.038453 0.000000 0.000000
# 5 0.000000 0.000000 0.000000 0.000000 0.043995 0.000000
# 6 0.000000 0.000000 0.000000 0.000000 0.000000 0.040305
#
#
# Mechanical properties :
#
#
# Convention : Reuss Voigt Hill
#
# Bulk Modulus (GPa) = 60.15981 65.80153 62.98067
# Shear Modulus (GPa) = 22.85078 23.49845 23.17462
#
# Velocity S-wave (km/s) = 3.79657 3.85000 3.82338
# Velocity P-wave (km/s) = 7.56086 7.82752 7.69534
#
# Compressibility (1/GPa) = 0.01662239
#
# Stress axis : x y z
#
# Youngs Moduli (GPa) = 65.13341 45.58721 61.42395
#
# Poissons Ratio (x) = 0.18425 0.42093
# Poissons Ratio (y) = 0.26325 0.46553
# Poissons Ratio (z) = 0.44635 0.34550
#
# Static dielectric constant tensor:
#      x y z
#    x 2.957440 0.000000 0.000000 
#    y 0.000000 3.018180 0.000000 
#    z 0.000000 0.000000 2.912450 
# 
# 
# High freq. dielectric constant tensor:
#      x y z
#    x 1.593690 0.000000 0.000000 
#    y 0.000000 1.617290 0.000000 
#    z 0.000000 0.000000 1.593360 
# 
# From -- ./inp_files/24149.got.cif
#   From: 2010.03.12/outbox.cif.g09.slc.cpg/sg62_13_cif.got.tgz:24149.got - 2010.04.10 19:12:36.
