data_PCOD8255770
_publ_section_title
;
Structure prediction by ZEFSAII (Michael W. Deem and Ramdas Pophale) SiO2 
 PCOD8255770
Probable space group: C M C M
;
_chemical_formula_sum "Si O2"
_cell_formula_units_Z 96
_cell_length_a 28.485403
_cell_length_b 25.868648
_cell_length_c 8.876381
_cell_angle_alpha 90.000000
_cell_angle_beta 90.000000
_cell_angle_gamma 90.000000
_cell_volume 6540.817542
_symmetry_space_group_name_H-M "C M C M"
_symmetry_group_IT_number 63
_symmetry_cell_setting 'orthorhombic'
loop_
_space_group_symop_operation_xyz
x,y,z
-x,-y,1/2+z
x,-y,-z
-x,y,1/2-z
-x,-y,-z
x,y,1/2-z
-x,y,z
x,-y,1/2+z
1/2+x,1/2+y,z
1/2-x,1/2-y,1/2+z
1/2+x,1/2-y,-z
1/2-x,1/2+y,1/2-z
1/2-x,1/2-y,-z
1/2+x,1/2+y,1/2-z
1/2-x,1/2+y,z
1/2+x,1/2-y,1/2+z
loop_
_atom_site_type_symbol
_atom_site_label
_atom_site_fract_x
_atom_site_fract_y
_atom_site_fract_z
Si Si1 0.053181 0.290881 0.575753
Si Si2 0.946856 0.599379 0.573950
Si Si3 0.308624 0.144083 0.578795
Si Si4 0.361613 0.251287 0.924969
Si Si5 0.221133 0.795153 0.075352
Si Si6 0.140356 0.447696 0.927152
O O1 0.064390 0.301879 0.750000
O O2 0.061804 0.342970 0.483470
O O3 0.088182 0.247744 0.509090
O O4 0.000000 0.270804 0.554420
O O5 0.935249 0.598569 0.750000
O O6 0.912251 0.560794 0.488678
O O7 0.000000 0.581459 0.540261
O O8 0.319186 0.126989 0.750000
O O9 0.336629 0.196593 0.542733
O O10 0.252486 0.152908 0.555634
O O11 0.325344 0.099431 0.467619
O O12 0.369235 0.262177 0.750000
O O13 0.329578 0.297689 0.993682
O O14 0.213644 0.782228 0.250000
O O15 0.250000 0.750000 0.000000
O O16 0.138271 0.454178 0.750000
O O17 0.160734 0.500000 0.000000
#
# Coordination Sequence:
#
# PCOD8255770 Si02
#       6
#    16  16  16  16  16  16
#     4  10  19  29  43  63  85 111 143 175 210 253
#     4  10  20  34  49  62  79 103 134 175 220 263
#     4   9  18  32  46  62  84 107 133 169 211 253
#     4  10  18  28  45  65  87 111 136 170 207 249
#     4   9  17  28  44  64  86 108 132 165 205 250
#     4  12  24  35  49  63  80 106 137 176 218 262
#
# _framework density 14.677064
#
# number of rings (size 3 to 8) (size 9 to 14) (size 15 to 20)
#    0.000    2.000    1.667    4.500    0.000    5.667 
#    0.000    0.000    0.000    0.000    0.000    0.000 
#    0.000    0.000    0.000    0.000    0.000    0.833 
#
# Total GULP energy -595109.869737 kJ/mol
# GULP energy per Si atom -12398.122286 kJ/mol
# Density = 1.464366 g / cm^3
# Si number density = 14.677064 Si / 1000 Ang^3
#
#
#
# Elastic Constant Matrix: (Units=GPa)
#
#
# Indices 1 2 3 4 5 6 
#
# 1 76.7367 32.8732 41.2873 0.0000 0.0000 0.0000
# 2 32.8732 34.6482 29.8334 0.0000 0.0000 0.0000
# 3 41.2873 29.8334 106.4438 0.0000 0.0000 0.0000
# 4 0.0000 0.0000 0.0000 19.4747 0.0000 0.0000
# 5 0.0000 0.0000 0.0000 0.0000 27.1637 0.0000
# 6 0.0000 0.0000 0.0000 0.0000 0.0000 15.5334
#
#
#
# Elastic Compliance Matrix: (Units=1/GPa)
#
#
# Indices 1 2 3 4 5 6 
#
# 1 0.023009 -0.018646 -0.003699 0.000000 0.000000 0.000000
# 2 -0.018646 0.053152 -0.007665 0.000000 0.000000 0.000000
# 3 -0.003699 -0.007665 0.012978 0.000000 0.000000 0.000000
# 4 0.000000 0.000000 0.000000 0.051349 0.000000 0.000000
# 5 0.000000 0.000000 0.000000 0.000000 0.036814 0.000000
# 6 0.000000 0.000000 0.000000 0.000000 0.000000 0.064378
#
#
# Mechanical properties :
#
#
# Convention : Reuss Voigt Hill
#
# Bulk Modulus (GPa) = 34.34087 47.31294 40.82690
# Shear Modulus (GPa) = 16.05631 20.02333 18.03982
#
# Velocity S-wave (km/s) = 3.31111 3.69760 3.50968
# Velocity P-wave (km/s) = 6.16980 7.10884 6.65590
#
# Compressibility (1/GPa) = 0.02911982
#
# Stress axis : x y z
#
# Youngs Moduli (GPa) = 43.46057 18.81413 77.05590
#
# Poissons Ratio (x) = 0.35080 0.28503
# Poissons Ratio (y) = 0.81035 0.59061
# Poissons Ratio (z) = 0.16076 0.14420
#
# Static dielectric constant tensor:
#      x y z
#    x 3.187500 0.000000 0.000000 
#    y 0.000000 2.537980 0.000000 
#    z 0.000000 0.000000 3.017580 
# 
# 
# High freq. dielectric constant tensor:
#      x y z
#    x 1.560680 0.000000 0.000000 
#    y 0.000000 1.500180 0.000000 
#    z 0.000000 0.000000 1.582680 
# 
# From -- ./inp_files/12760.got.cif
#   From: 2010.03.12/outbox.cif.g09.slc.cpg/sg63_7_cif.got.tgz:12760.got - 2010.04.10 19:34:48.
