data_PCOD8255660
_publ_section_title
;
Structure prediction by ZEFSAII (Michael W. Deem and Ramdas Pophale) SiO2 
 PCOD8255660
Probable space group: C M C M
;
_chemical_formula_sum "Si O2"
_cell_formula_units_Z 80
_cell_length_a 28.527106
_cell_length_b 22.920557
_cell_length_c 9.104975
_cell_angle_alpha 90.000000
_cell_angle_beta 90.000000
_cell_angle_gamma 90.000000
_cell_volume 5953.353087
_symmetry_space_group_name_H-M "C M C M"
_symmetry_group_IT_number 63
_symmetry_cell_setting 'orthorhombic'
loop_
_space_group_symop_operation_xyz
x,y,z
-x,-y,1/2+z
x,-y,-z
-x,y,1/2-z
-x,-y,-z
x,y,1/2-z
-x,y,z
x,-y,1/2+z
1/2+x,1/2+y,z
1/2-x,1/2-y,1/2+z
1/2+x,1/2-y,-z
1/2-x,1/2+y,1/2-z
1/2-x,1/2-y,-z
1/2+x,1/2+y,1/2-z
1/2-x,1/2+y,z
1/2+x,1/2-y,1/2+z
loop_
_atom_site_type_symbol
_atom_site_label
_atom_site_fract_x
_atom_site_fract_y
_atom_site_fract_z
Si Si1 0.447608 0.442003 0.580081
Si Si2 0.221430 0.939293 0.424673
Si Si3 0.820512 0.765062 0.413642
Si Si4 0.222130 0.330551 0.087849
Si Si5 0.859438 0.131088 0.077820
O O1 0.429603 0.500000 0.500000
O O2 0.447407 0.457816 0.750000
O O3 0.500000 0.424269 0.527046
O O4 0.412704 0.388618 0.547355
O O5 0.213925 0.945939 0.250000
O O6 0.265318 0.896522 0.460167
O O7 0.174113 0.913973 0.494265
O O8 0.234147 0.000000 0.500000
O O9 0.841622 0.760284 0.250000
O O10 0.815017 0.699637 0.478553
O O11 0.770293 0.795120 0.410022
O O12 0.854912 0.803493 0.514753
O O13 0.199671 0.329964 0.250000
O O14 0.846695 0.131073 0.250000
#
# Coordination Sequence:
#
# PCOD8255660 Si02
#       5
#    16  16  16  16  16
#     4   9  18  30  41  53  69  91 119 150 185 222
#     4  10  19  28  38  53  73  95 120 150 180 213
#     4   9  16  25  38  54  70  88 113 146 179 212
#     4   8  15  26  37  50  69  92 116 142 174 210
#     4  10  18  27  40  54  70  92 118 151 186 219
#
# _framework density 13.437806
#
# number of rings (size 3 to 8) (size 9 to 14) (size 15 to 20)
#    0.000    2.800    0.000    3.600    0.000    8.800 
#    0.000    0.000    0.000    0.000    0.000    0.000 
#    0.000    0.000    0.000    0.000    0.000    1.000 
#
# Total GULP energy -495813.830878 kJ/mol
# GULP energy per Si atom -12395.345772 kJ/mol
# Density = 1.340722 g / cm^3
# Si number density = 13.437806 Si / 1000 Ang^3
#
#
#
# Elastic Constant Matrix: (Units=GPa)
#
#
# Indices 1 2 3 4 5 6 
#
# 1 44.2984 40.4577 34.8009 0.0000 0.0000 0.0000
# 2 40.4577 91.8269 53.4543 0.0000 0.0000 0.0000
# 3 34.8009 53.4543 90.1787 0.0000 0.0000 0.0000
# 4 0.0000 0.0000 0.0000 25.0471 0.0000 0.0000
# 5 0.0000 0.0000 0.0000 0.0000 13.6731 0.0000
# 6 0.0000 0.0000 0.0000 0.0000 0.0000 16.1904
#
#
#
# Elastic Compliance Matrix: (Units=1/GPa)
#
#
# Indices 1 2 3 4 5 6 
#
# 1 0.041101 -0.013551 -0.007829 0.000000 0.000000 0.000000
# 2 -0.013551 0.021095 -0.007275 0.000000 0.000000 0.000000
# 3 -0.007829 -0.007275 0.018423 0.000000 0.000000 0.000000
# 4 0.000000 0.000000 0.000000 0.039925 0.000000 0.000000
# 5 0.000000 0.000000 0.000000 0.000000 0.073136 0.000000
# 6 0.000000 0.000000 0.000000 0.000000 0.000000 0.061765
#
#
# Mechanical properties :
#
#
# Convention : Reuss Voigt Hill
#
# Bulk Modulus (GPa) = 42.90165 53.74777 48.32471
# Shear Modulus (GPa) = 15.59948 17.48822 16.54385
#
# Velocity S-wave (km/s) = 3.41084 3.61143 3.51257
# Velocity P-wave (km/s) = 6.89255 7.58117 7.24505
#
# Compressibility (1/GPa) = 0.02330913
#
# Stress axis : x y z
#
# Youngs Moduli (GPa) = 24.33051 47.40364 54.28137
#
# Poissons Ratio (x) = 0.64238 0.42495
# Poissons Ratio (y) = 0.32971 0.39490
# Poissons Ratio (z) = 0.19047 0.34486
#
# Static dielectric constant tensor:
#      x y z
#    x 2.451920 0.000000 0.000000 
#    y 0.000000 2.777180 0.000000 
#    z 0.000000 0.000000 2.898500 
# 
# 
# High freq. dielectric constant tensor:
#      x y z
#    x 1.459580 0.000000 0.000000 
#    y 0.000000 1.500460 0.000000 
#    z 0.000000 0.000000 1.529850 
# 
# From -- ./inp_files/14291.got.cif
#   From: 2010.03.12/outbox.cif.g09.slc.cpg/sg63_8_cif.got.tgz:14291.got - 2010.04.10 19:34:48.
