data_PCOD8255198
_publ_section_title
;
Structure prediction by ZEFSAII (Michael W. Deem and Ramdas Pophale) SiO2 
 PCOD8255198
Probable space group: P N M A
;
_chemical_formula_sum "Si O2"
_cell_formula_units_Z 64
_cell_length_a 10.596367
_cell_length_b 29.539198
_cell_length_c 8.823548
_cell_angle_alpha 90.000000
_cell_angle_beta 90.000000
_cell_angle_gamma 90.000000
_cell_volume 2761.842726
_symmetry_space_group_name_H-M "P N M A"
_symmetry_group_IT_number 62
_symmetry_cell_setting 'orthorhombic'
loop_
_space_group_symop_operation_xyz
x,y,z
1/2-x,-y,1/2+z
1/2+x,1/2-y,1/2-z
-x,1/2+y,-z
-x,-y,-z
1/2+x,y,1/2-z
1/2-x,1/2+y,1/2+z
x,1/2-y,z
loop_
_atom_site_type_symbol
_atom_site_label
_atom_site_fract_x
_atom_site_fract_y
_atom_site_fract_z
Si Si1 0.237235 0.801461 0.091114
Si Si2 0.705613 0.363162 0.654352
Si Si3 0.459783 0.486867 0.821107
Si Si4 0.211165 0.433583 0.326256
Si Si5 0.412514 0.845337 0.860436
Si Si6 0.382147 0.080833 0.062514
Si Si7 0.784580 0.553187 0.328989
Si Si8 0.528193 0.301889 0.452571
O O1 0.255253 0.750000 0.137579
O O2 0.212236 0.826701 0.251490
O O3 0.364923 0.816736 0.004672
O O4 0.120088 0.808704 0.978700
O O5 0.776669 0.397043 0.542861
O O6 0.658390 0.397048 0.787730
O O7 0.597444 0.336797 0.564084
O O8 0.419233 0.539210 0.789685
O O9 0.603674 0.479590 0.765629
O O10 0.350902 0.457049 0.741973
O O11 0.454823 0.463511 0.991268
O O12 0.196636 0.379671 0.308911
O O13 0.320605 0.444163 0.206877
O O14 0.247800 0.449435 0.493699
O O15 0.529353 0.876819 0.903743
O O16 0.444509 0.811706 0.723183
O O17 0.569309 0.250000 0.487051
#
# Coordination Sequence:
#
# PCOD8255198 Si02
#       8
#     8   8   8   8   8   8   8   8
#     4  11  25  45  70 101 134 179 227 279 351 413
#     4  11  24  44  68 100 135 178 230 279 339 416
#     4  11  25  44  67 103 140 183 234 288 345 409
#     4  12  23  43  68  97 139 181 230 281 339 416
#     4  12  24  44  71  98 138 177 227 281 347 408
#     4  11  25  44  67 103 134 185 232 279 347 411
#     4  11  25  44  70  99 140 182 229 290 343 416
#     4  11  26  46  69  99 137 174 227 286 344 418
#
# _framework density 23.172934000000001
#
# number of rings (size 3 to 8) (size 9 to 14) (size 15 to 20)
#    0.000    0.750    3.750    2.625    7.000    0.000 
#    0.000    4.375    0.000    0.000    0.000    0.000 
#    0.000    0.000    0.000    0.000    0.000    0.000 
#
# Total GULP energy -793114.537378 kJ/mol
# GULP energy per Si atom -12392.414647 kJ/mol
# Density = 2.312019 g / cm^3
# Si number density = 23.172934 Si / 1000 Ang^3
#
#
#
# Elastic Constant Matrix: (Units=GPa)
#
#
# Indices 1 2 3 4 5 6 
#
# 1 81.7485 27.7271 34.4739 0.0000 0.0000 0.0000
# 2 27.7271 138.0717 32.1950 0.0000 0.0000 0.0000
# 3 34.4739 32.1950 85.9019 0.0000 0.0000 0.0000
# 4 0.0000 0.0000 0.0000 28.0725 0.0000 0.0000
# 5 0.0000 0.0000 0.0000 0.0000 23.5130 0.0000
# 6 0.0000 0.0000 0.0000 0.0000 0.0000 40.1869
#
#
#
# Elastic Compliance Matrix: (Units=1/GPa)
#
#
# Indices 1 2 3 4 5 6 
#
# 1 0.015112 -0.001776 -0.005399 0.000000 0.000000 0.000000
# 2 -0.001776 0.008145 -0.002340 0.000000 0.000000 0.000000
# 3 -0.005399 -0.002340 0.014685 0.000000 0.000000 0.000000
# 4 0.000000 0.000000 0.000000 0.035622 0.000000 0.000000
# 5 0.000000 0.000000 0.000000 0.000000 0.042530 0.000000
# 6 0.000000 0.000000 0.000000 0.000000 0.000000 0.024884
#
#
# Mechanical properties :
#
#
# Convention : Reuss Voigt Hill
#
# Bulk Modulus (GPa) = 52.87662 54.94602 53.91132
# Shear Modulus (GPa) = 30.06424 32.44289 31.25357
#
# Velocity S-wave (km/s) = 3.60583 3.74576 3.67646
# Velocity P-wave (km/s) = 6.34065 6.51693 6.42940
#
# Compressibility (1/GPa) = 0.01891195
#
# Stress axis : x y z
#
# Youngs Moduli (GPa) = 66.17365 122.77723 68.09710
#
# Poissons Ratio (x) = 0.21802 0.36766
# Poissons Ratio (y) = 0.11751 0.15934
# Poissons Ratio (z) = 0.35728 0.28729
#
# Static dielectric constant tensor:
#      x y z
#    x 4.065770 0.000000 0.000000 
#    y 0.000000 4.555330 0.000000 
#    z 0.000000 0.000000 4.278720 
# 
# 
# High freq. dielectric constant tensor:
#      x y z
#    x 1.911950 0.000000 0.000000 
#    y 0.000000 1.942720 0.000000 
#    z 0.000000 0.000000 1.920820 
# 
# From -- ./inp_files/5522.got.cif
#   From: 2010.03.12/outbox.cif.g09.slc.cpg/sg62_3_cif.got.tgz:5522.got - 2010.04.10 19:12:36.
