data_PCOD8255867
_publ_section_title
;
Structure prediction by ZEFSAII (Michael W. Deem and Ramdas Pophale) SiO2 
 PCOD8255867
Probable space group: C M C M
;
_chemical_formula_sum "Si O2"
_cell_formula_units_Z 80
_cell_length_a 13.341470
_cell_length_b 19.839917
_cell_length_c 18.412485
_cell_angle_alpha 90.000000
_cell_angle_beta 90.000000
_cell_angle_gamma 90.000000
_cell_volume 4873.667998
_symmetry_space_group_name_H-M "C M C M"
_symmetry_group_IT_number 63
_symmetry_cell_setting 'orthorhombic'
loop_
_space_group_symop_operation_xyz
x,y,z
-x,-y,1/2+z
x,-y,-z
-x,y,1/2-z
-x,-y,-z
x,y,1/2-z
-x,y,z
x,-y,1/2+z
1/2+x,1/2+y,z
1/2-x,1/2-y,1/2+z
1/2+x,1/2-y,-z
1/2-x,1/2+y,1/2-z
1/2-x,1/2-y,-z
1/2+x,1/2+y,1/2-z
1/2-x,1/2+y,z
1/2+x,1/2-y,1/2+z
loop_
_atom_site_type_symbol
_atom_site_label
_atom_site_fract_x
_atom_site_fract_y
_atom_site_fract_z
Si Si1 0.881078 0.431355 0.095314
Si Si2 0.380937 0.929524 0.665822
Si Si3 0.306689 0.854512 0.534135
Si Si4 0.614020 0.721237 0.032666
Si Si5 0.382288 0.200894 0.671460
O O1 0.843212 0.499306 0.133246
O O2 0.838003 0.369952 0.143554
O O3 0.000000 0.430979 0.089842
O O4 0.839943 0.419447 0.013518
O O5 0.348129 0.923441 0.750000
O O6 0.500000 0.922035 0.658166
O O7 0.325960 0.871785 0.618692
O O8 0.371729 0.787745 0.516525
O O9 0.190242 0.839159 0.514477
O O10 0.500000 0.695645 0.023755
O O11 0.641742 0.739534 0.115784
O O12 0.334999 0.218527 0.750000
O O13 0.500000 0.191046 0.678163
#
# Coordination Sequence:
#
# PCOD8255867 Si02
#       5
#    16  16  16  16  16
#     4   9  16  27  44  65  88 113 142 176 216 262
#     4  10  19  29  44  68  94 115 137 173 222 269
#     4  10  18  29  46  65  88 117 146 179 217 259
#     4   9  18  30  44  64  88 116 150 182 213 253
#     4   8  13  23  40  61  85 111 138 171 211 253
#
# _framework density 16.414742
#
# number of rings (size 3 to 8) (size 9 to 14) (size 15 to 20)
#    0.000    2.800    0.000    4.200    0.000    4.800 
#    0.000    0.000    0.000    2.400    0.000    0.000 
#    0.000    0.000    0.000    0.000    0.000    0.000 
#
# Total GULP energy -495735.680245 kJ/mol
# GULP energy per Si atom -12393.392006 kJ/mol
# Density = 1.637738 g / cm^3
# Si number density = 16.414742 Si / 1000 Ang^3
#
#
#
# Elastic Constant Matrix: (Units=GPa)
#
#
# Indices 1 2 3 4 5 6 
#
# 1 58.2482 23.4719 20.8384 0.0000 0.0000 0.0000
# 2 23.4719 46.1936 33.6403 0.0000 0.0000 0.0000
# 3 20.8384 33.6403 113.5721 0.0000 0.0000 0.0000
# 4 0.0000 0.0000 0.0000 15.3747 0.0000 0.0000
# 5 0.0000 0.0000 0.0000 0.0000 12.6098 0.0000
# 6 0.0000 0.0000 0.0000 0.0000 0.0000 18.5682
#
#
#
# Elastic Compliance Matrix: (Units=1/GPa)
#
#
# Indices 1 2 3 4 5 6 
#
# 1 0.021662 -0.010344 -0.000911 0.000000 0.000000 0.000000
# 2 -0.010344 0.032541 -0.007741 0.000000 0.000000 0.000000
# 3 -0.000911 -0.007741 0.011265 0.000000 0.000000 0.000000
# 4 0.000000 0.000000 0.000000 0.065042 0.000000 0.000000
# 5 0.000000 0.000000 0.000000 0.000000 0.079303 0.000000
# 6 0.000000 0.000000 0.000000 0.000000 0.000000 0.053856
#
#
# Mechanical properties :
#
#
# Convention : Reuss Voigt Hill
#
# Bulk Modulus (GPa) = 36.39350 41.54612 38.96981
# Shear Modulus (GPa) = 16.08657 18.64809 17.36733
#
# Velocity S-wave (km/s) = 3.13390 3.37420 3.25627
# Velocity P-wave (km/s) = 5.94260 6.36754 6.15873
#
# Compressibility (1/GPa) = 0.02747743
#
# Stress axis : x y z
#
# Youngs Moduli (GPa) = 46.16417 30.73037 88.77094
#
# Poissons Ratio (x) = 0.31786 0.08085
# Poissons Ratio (y) = 0.47750 0.68717
# Poissons Ratio (z) = 0.04204 0.23788
#
# Static dielectric constant tensor:
#      x y z
#    x 2.750230 0.000000 0.000000 
#    y 0.000000 2.936460 0.000000 
#    z 0.000000 0.000000 3.967360 
# 
# 
# High freq. dielectric constant tensor:
#      x y z
#    x 1.587030 0.000000 0.000000 
#    y 0.000000 1.613910 0.000000 
#    z 0.000000 0.000000 1.643320 
# 
# From -- ./inp_files/43933.got.cif
#   From: 2010.03.12/outbox.cif.g09.slc.cpg/sg63_22_cif.got.tgz:43933.got - 2010.04.10 19:34:48.
