data_PCOD8255581
_publ_section_title
;
Structure prediction by ZEFSAII (Michael W. Deem and Ramdas Pophale) SiO2 
 PCOD8255581
Probable space group: C M C M
;
_chemical_formula_sum "Si O2"
_cell_formula_units_Z 88
_cell_length_a 7.861985
_cell_length_b 18.511912
_cell_length_c 31.857547
_cell_angle_alpha 90.000000
_cell_angle_beta 90.000000
_cell_angle_gamma 90.000000
_cell_volume 4636.559320
_symmetry_space_group_name_H-M "C M C M"
_symmetry_group_IT_number 63
_symmetry_cell_setting 'orthorhombic'
loop_
_space_group_symop_operation_xyz
x,y,z
-x,-y,1/2+z
x,-y,-z
-x,y,1/2-z
-x,-y,-z
x,y,1/2-z
-x,y,z
x,-y,1/2+z
1/2+x,1/2+y,z
1/2-x,1/2-y,1/2+z
1/2+x,1/2-y,-z
1/2-x,1/2+y,1/2-z
1/2-x,1/2-y,-z
1/2+x,1/2+y,1/2-z
1/2-x,1/2+y,z
1/2+x,1/2-y,1/2+z
loop_
_atom_site_type_symbol
_atom_site_label
_atom_site_fract_x
_atom_site_fract_y
_atom_site_fract_z
Si Si1 0.500000 0.103701 0.151036
Si Si2 0.808463 0.585151 0.494696
Si Si3 0.500000 0.957080 0.298386
Si Si4 0.305706 0.429069 0.593654
Si Si5 0.500000 0.248104 0.299720
Si Si6 0.816652 0.333701 0.335615
Si Si7 0.195207 0.904918 0.084175
O O1 0.328114 0.111689 0.123511
O O2 0.500000 0.166307 0.185246
O O3 0.500000 0.029152 0.175169
O O4 0.800427 0.500000 0.500000
O O5 0.703693 0.606200 0.452932
O O6 0.728495 0.620871 0.536406
O O7 0.000000 0.613072 0.489301
O O8 0.500000 0.978050 0.250000
O O9 0.331606 0.909776 0.310040
O O10 0.500000 0.420918 0.610238
O O11 0.245714 0.512474 0.591133
O O12 0.500000 0.250248 0.250000
O O13 0.667742 0.286639 0.316687
O O14 0.792875 0.351456 0.384711
O O15 0.000000 0.292510 0.331650
O O16 0.000000 0.897702 0.095477
#
# Coordination Sequence:
#
# PCOD8255581 Si02
#       7
#     8  16   8  16   8  16  16
#     4  12  23  40  62  88 125 159 201 249 310 360
#     4   9  16  25  48  83 127 161 196 248 295 345
#     4  10  21  40  67  90 116 150 197 261 312 357
#     4  10  19  33  53  87 125 161 201 246 301 349
#     4  12  27  44  64  89 121 160 201 249 312 381
#     4  10  21  39  65  89 116 153 200 248 301 363
#     4  10  17  30  55  93 124 155 205 252 296 348
#
# _framework density 18.979590000000002
#
# number of rings (size 3 to 8) (size 9 to 14) (size 15 to 20)
#    0.545    1.273    3.636    1.909    1.273    2.909 
#    0.000    0.000    0.000    2.182    0.000    0.000 
#    0.000    0.000    0.000    0.000    0.000    0.000 
#
# Total GULP energy -545351.197621 kJ/mol
# GULP energy per Si atom -12394.345400 kJ/mol
# Density = 1.893639 g / cm^3
# Si number density = 18.979590 Si / 1000 Ang^3
#
#
#
# Elastic Constant Matrix: (Units=GPa)
#
#
# Indices 1 2 3 4 5 6 
#
# 1 100.1175 16.7940 0.5195 0.0000 0.0000 0.0000
# 2 16.7940 41.6505 -5.0106 0.0000 0.0000 0.0000
# 3 0.5195 -5.0106 36.8417 0.0000 0.0000 0.0000
# 4 0.0000 0.0000 0.0000 24.3957 0.0000 0.0000
# 5 0.0000 0.0000 0.0000 0.0000 18.9211 0.0000
# 6 0.0000 0.0000 0.0000 0.0000 0.0000 15.7878
#
#
#
# Elastic Compliance Matrix: (Units=1/GPa)
#
#
# Indices 1 2 3 4 5 6 
#
# 1 0.010733 -0.004418 -0.000752 0.000000 0.000000 0.000000
# 2 -0.004418 0.026227 0.003629 0.000000 0.000000 0.000000
# 3 -0.000752 0.003629 0.027647 0.000000 0.000000 0.000000
# 4 0.000000 0.000000 0.000000 0.040991 0.000000 0.000000
# 5 0.000000 0.000000 0.000000 0.000000 0.052851 0.000000
# 6 0.000000 0.000000 0.000000 0.000000 0.000000 0.063340
#
#
# Mechanical properties :
#
#
# Convention : Reuss Voigt Hill
#
# Bulk Modulus (GPa) = 16.25338 22.57949 19.41644
# Shear Modulus (GPa) = 20.37646 22.90803 21.64224
#
# Velocity S-wave (km/s) = 3.28014 3.47793 3.38048
# Velocity P-wave (km/s) = 4.78831 5.29628 5.04869
#
# Compressibility (1/GPa) = 0.06152567
#
# Stress axis : x y z
#
# Youngs Moduli (GPa) = 93.16791 38.12799 36.16982
#
# Poissons Ratio (x) = 0.16846 0.02721
# Poissons Ratio (y) = 0.41164 -0.13127
# Poissons Ratio (z) = 0.07009 -0.13838
#
# Static dielectric constant tensor:
#      x y z
#    x 3.559220 0.000000 0.000000 
#    y 0.000000 2.975030 0.000000 
#    z 0.000000 0.000000 3.722840 
# 
# 
# High freq. dielectric constant tensor:
#      x y z
#    x 1.745970 0.000000 0.000000 
#    y 0.000000 1.682040 0.000000 
#    z 0.000000 0.000000 1.746730 
# 
# From -- ./inp_files/71726.got.cif
#   From: 2010.03.12/outbox.cif.g09.slc.cpg/sg63_36_cif.got.tgz:71726.got - 2010.04.10 19:34:48.
