data_PCOD8255162
_publ_section_title
;
Structure prediction by ZEFSAII (Michael W. Deem and Ramdas Pophale) SiO2 
 PCOD8255162
Probable space group: P N M A
;
_chemical_formula_sum "Si O2"
_cell_formula_units_Z 40
_cell_length_a 20.236561
_cell_length_b 10.070179
_cell_length_c 9.429731
_cell_angle_alpha 90.000000
_cell_angle_beta 90.000000
_cell_angle_gamma 90.000000
_cell_volume 1921.645197
_symmetry_space_group_name_H-M "P N M A"
_symmetry_group_IT_number 62
_symmetry_cell_setting 'orthorhombic'
loop_
_space_group_symop_operation_xyz
x,y,z
1/2-x,-y,1/2+z
1/2+x,1/2-y,1/2-z
-x,1/2+y,-z
-x,-y,-z
1/2+x,y,1/2-z
1/2-x,1/2+y,1/2+z
x,1/2-y,z
loop_
_atom_site_type_symbol
_atom_site_label
_atom_site_fract_x
_atom_site_fract_y
_atom_site_fract_z
Si Si1 0.046315 0.750000 0.714488
Si Si2 0.063816 0.496568 0.902166
Si Si3 0.466542 0.750000 0.219003
Si Si4 0.303525 0.909335 0.537935
Si Si5 0.407411 0.750000 0.914841
Si Si6 0.813489 0.510245 0.648023
Si Si7 0.104316 0.750000 0.395959
O O1 0.070731 0.625945 0.805714
O O2 0.082045 0.750000 0.561026
O O3 0.965819 0.750000 0.703998
O O4 0.062003 0.377426 0.793404
O O5 0.125814 0.472963 0.003727
O O6 0.000000 0.500000 0.000000
O O7 0.545370 0.750000 0.217174
O O8 0.445220 0.750000 0.059298
O O9 0.301171 0.750000 0.511770
O O10 0.287499 0.943111 0.699799
O O11 0.250721 0.990204 0.447172
O O12 0.362320 0.878649 0.910451
O O13 0.853185 0.375274 0.646361
#
# Coordination Sequence:
#
# PCOD8255162 Si02
#       7
#     4   8   4   8   4   8   4
#     4  11  25  43  73 110 148 184 242 301 364 422
#     4  12  25  43  74 102 147 190 245 298 363 421
#     4  11  23  41  73 102 138 192 244 285 362 432
#     4  12  28  49  71 106 144 191 238 303 358 426
#     4  11  24  45  73 106 146 189 232 304 362 425
#     4  12  27  46  76  98 151 187 240 292 367 425
#     4  11  24  45  69 110 142 183 242 300 350 441
#
# _framework density 20.815498999999999
#
# number of rings (size 3 to 8) (size 9 to 14) (size 15 to 20)
#    0.000    0.400    3.000    5.400    5.600    5.600 
#    0.000    0.000    0.000    0.000    0.000    0.000 
#    0.000    0.000    0.000    0.000    0.000    0.000 
#
# Total GULP energy -496075.211778 kJ/mol
# GULP energy per Si atom -12401.880294 kJ/mol
# Density = 2.076812 g / cm^3
# Si number density = 20.815499 Si / 1000 Ang^3
#
#
#
# Elastic Constant Matrix: (Units=GPa)
#
#
# Indices 1 2 3 4 5 6 
#
# 1 104.3382 18.9421 11.7292 0.0000 0.0000 0.0000
# 2 18.9421 142.8646 11.4954 0.0000 0.0000 0.0000
# 3 11.7292 11.4954 57.7112 0.0000 0.0000 0.0000
# 4 0.0000 0.0000 0.0000 44.9368 0.0000 0.0000
# 5 0.0000 0.0000 0.0000 0.0000 32.5821 0.0000
# 6 0.0000 0.0000 0.0000 0.0000 0.0000 -126.0695
#
#
#
# Elastic Compliance Matrix: (Units=1/GPa)
#
#
# Indices 1 2 3 4 5 6 
#
# 1 0.010001 -0.001181 -0.001797 0.000000 0.000000 0.000000
# 2 -0.001181 0.007253 -0.001205 0.000000 0.000000 0.000000
# 3 -0.001797 -0.001205 0.017933 0.000000 0.000000 0.000000
# 4 0.000000 0.000000 0.000000 0.022254 0.000000 0.000000
# 5 0.000000 0.000000 0.000000 0.000000 0.030692 0.000000
# 6 0.000000 0.000000 0.000000 0.000000 0.000000 -0.007932
#
#
# Mechanical properties :
#
#
# Convention : Reuss Voigt Hill
#
# Bulk Modulus (GPa) = 37.28518 43.24973 40.26745
# Shear Modulus (GPa) = 51.27864 7.80635 29.54249
#
# Velocity S-wave (km/s) = 4.96873 1.93866 3.77139
# Velocity P-wave (km/s) = 7.13224 5.08271 6.19285
#
# Compressibility (1/GPa) = 0.02682031
#
# Stress axis : x y z
#
# Youngs Moduli (GPa) = 99.99278 137.87017 55.76347
#
# Poissons Ratio (x) = 0.16287 0.10022
# Poissons Ratio (y) = 0.11813 0.06718
# Poissons Ratio (z) = 0.17971 0.16609
#
# Static dielectric constant tensor:
#      x y z
#    x 4.139040 0.000000 0.000000 
#    y 0.000000 3.863310 0.000000 
#    z 0.000000 0.000000 3.947550 
# 
# 
# High freq. dielectric constant tensor:
#      x y z
#    x 1.829550 0.000000 0.000000 
#    y 0.000000 1.834540 0.000000 
#    z 0.000000 0.000000 1.830240 
# 
# From -- ./inp_files/9155.got.cif
#   From: 2010.03.12/outbox.cif.g09.slc.cpg/sg62_5_cif.got.tgz:9155.got - 2010.04.10 19:12:36.
