data_PCOD8255983
_publ_section_title
;
Structure prediction by ZEFSAII (Michael W. Deem and Ramdas Pophale) SiO2 
 PCOD8255983
Probable space group: C M C M
;
_chemical_formula_sum "Si O2"
_cell_formula_units_Z 96
_cell_length_a 22.687501
_cell_length_b 27.246558
_cell_length_c 8.850499
_cell_angle_alpha 90.000000
_cell_angle_beta 90.000000
_cell_angle_gamma 90.000000
_cell_volume 5470.991820
_symmetry_space_group_name_H-M "C M C M"
_symmetry_group_IT_number 63
_symmetry_cell_setting 'orthorhombic'
loop_
_space_group_symop_operation_xyz
x,y,z
-x,-y,1/2+z
x,-y,-z
-x,y,1/2-z
-x,-y,-z
x,y,1/2-z
-x,y,z
x,-y,1/2+z
1/2+x,1/2+y,z
1/2-x,1/2-y,1/2+z
1/2+x,1/2-y,-z
1/2-x,1/2+y,1/2-z
1/2-x,1/2-y,-z
1/2+x,1/2+y,1/2-z
1/2-x,1/2+y,z
1/2+x,1/2-y,1/2+z
loop_
_atom_site_type_symbol
_atom_site_label
_atom_site_fract_x
_atom_site_fract_y
_atom_site_fract_z
Si Si1 0.000000 0.260745 0.930518
Si Si2 0.795546 0.863559 0.427178
Si Si3 0.814455 0.700142 0.580468
Si Si4 0.619868 0.283011 0.426743
Si Si5 0.000000 0.373921 0.570633
Si Si6 0.270444 0.948143 0.570920
Si Si7 0.618389 0.897556 0.423581
O O1 0.056799 0.231768 0.998820
O O2 0.000000 0.259323 0.750000
O O3 0.000000 0.317209 0.985457
O O4 0.790299 0.877177 0.250000
O O5 0.747104 0.822978 0.470814
O O6 0.858831 0.838588 0.468255
O O7 0.783328 0.911957 0.524909
O O8 0.810834 0.720468 0.750000
O O9 0.829449 0.745080 0.472858
O O10 0.865025 0.659355 0.565952
O O11 0.613548 0.278663 0.250000
O O12 0.056125 0.403312 0.506897
O O13 0.000000 0.376761 0.750000
O O14 0.274633 0.951695 0.750000
O O15 0.332923 0.930634 0.505760
O O16 0.253731 0.000000 0.500000
O O17 0.613774 0.915066 0.250000
#
# Coordination Sequence:
#
# PCOD8255983 Si02
#       7
#     8  16  16  16   8  16  16
#     4   9  18  29  45  72 105 142 181 215 244 288
#     4   9  19  33  49  72 101 133 168 209 257 308
#     4   9  17  28  43  67  99 132 170 212 251 295
#     4  10  18  30  47  69 102 140 175 210 249 295
#     4  11  19  31  50  74 105 142 188 221 250 296
#     4  11  22  38  59  79 100 126 161 210 267 318
#     4  10  20  34  51  74 104 138 177 216 257 301
#
# _framework density 17.547091999999999
#
# number of rings (size 3 to 8) (size 9 to 14) (size 15 to 20)
#    0.000    2.167    1.667    3.750    0.000    3.333 
#    0.000    0.833    0.000    0.000    0.000    0.583 
#    0.000    0.000    0.000    0.000    0.000    0.000 
#
# Total GULP energy -595032.249118 kJ/mol
# GULP energy per Si atom -12396.505190 kJ/mol
# Density = 1.750715 g / cm^3
# Si number density = 17.547092 Si / 1000 Ang^3
#
#
#
# Elastic Constant Matrix: (Units=GPa)
#
#
# Indices 1 2 3 4 5 6 
#
# 1 50.8299 40.8527 24.8626 0.0000 0.0000 0.0000
# 2 40.8527 96.7050 40.6693 0.0000 0.0000 0.0000
# 3 24.8626 40.6693 73.6987 0.0000 0.0000 0.0000
# 4 0.0000 0.0000 0.0000 25.2978 0.0000 0.0000
# 5 0.0000 0.0000 0.0000 0.0000 18.6634 0.0000
# 6 0.0000 0.0000 0.0000 0.0000 0.0000 16.0549
#
#
#
# Elastic Compliance Matrix: (Units=1/GPa)
#
#
# Indices 1 2 3 4 5 6 
#
# 1 0.030742 -0.011232 -0.004173 0.000000 0.000000 0.000000
# 2 -0.011232 0.017569 -0.005906 0.000000 0.000000 0.000000
# 3 -0.004173 -0.005906 0.018236 0.000000 0.000000 0.000000
# 4 0.000000 0.000000 0.000000 0.039529 0.000000 0.000000
# 5 0.000000 0.000000 0.000000 0.000000 0.053581 0.000000
# 6 0.000000 0.000000 0.000000 0.000000 0.000000 0.062286
#
#
# Mechanical properties :
#
#
# Convention : Reuss Voigt Hill
#
# Bulk Modulus (GPa) = 41.79709 48.22252 45.00981
# Shear Modulus (GPa) = 18.34593 19.65982 19.00287
#
# Velocity S-wave (km/s) = 3.23697 3.35087 3.29441
# Velocity P-wave (km/s) = 6.15161 6.52017 6.33857
#
# Compressibility (1/GPa) = 0.02392511
#
# Stress axis : x y z
#
# Youngs Moduli (GPa) = 32.52913 56.91690 54.83738
#
# Poissons Ratio (x) = 0.63928 0.22882
# Poissons Ratio (y) = 0.36536 0.32389
# Poissons Ratio (z) = 0.13574 0.33617
#
# Static dielectric constant tensor:
#      x y z
#    x 3.418660 0.000000 0.000000 
#    y 0.000000 3.143610 0.000000 
#    z 0.000000 0.000000 3.158670 
# 
# 
# High freq. dielectric constant tensor:
#      x y z
#    x 1.666950 0.000000 0.000000 
#    y 0.000000 1.655520 0.000000 
#    z 0.000000 0.000000 1.673310 
# 
# From -- ./inp_files/10757.got.cif
#   From: 2010.03.12/outbox.cif.g09.slc.cpg/sg63_6_cif.got.tgz:10757.got - 2010.04.10 19:34:48.
