data_PCOD8255056
_publ_section_title
;
Structure prediction by ZEFSAII (Michael W. Deem and Ramdas Pophale) SiO2 
 PCOD8255056
Probable space group: P N M A
;
_chemical_formula_sum "Si O2"
_cell_formula_units_Z 48
_cell_length_a 8.674843
_cell_length_b 15.492302
_cell_length_c 17.835152
_cell_angle_alpha 90.000000
_cell_angle_beta 90.000000
_cell_angle_gamma 90.000000
_cell_volume 2396.924711
_symmetry_space_group_name_H-M "P N M A"
_symmetry_group_IT_number 62
_symmetry_cell_setting 'orthorhombic'
loop_
_space_group_symop_operation_xyz
x,y,z
1/2-x,-y,1/2+z
1/2+x,1/2-y,1/2-z
-x,1/2+y,-z
-x,-y,-z
1/2+x,y,1/2-z
1/2-x,1/2+y,1/2+z
x,1/2-y,z
loop_
_atom_site_type_symbol
_atom_site_label
_atom_site_fract_x
_atom_site_fract_y
_atom_site_fract_z
Si Si1 0.648773 0.885328 0.535563
Si Si2 0.545295 0.006561 0.663053
Si Si3 0.201724 0.250000 0.363635
Si Si4 0.639738 0.750000 0.784148
Si Si5 0.839864 0.473880 0.467533
Si Si6 0.132227 0.154141 0.941126
Si Si7 0.220096 0.560570 0.693567
O O1 0.778564 0.831673 0.581151
O O2 0.519732 0.831068 0.492221
O O3 0.557696 0.946584 0.591332
O O4 0.728831 0.943764 0.472771
O O5 0.592350 0.102832 0.636092
O O6 0.646616 0.973451 0.731006
O O7 0.373082 0.995730 0.691072
O O8 0.349542 0.250000 0.307053
O O9 0.035750 0.250000 0.318934
O O10 0.737252 0.835080 0.806482
O O11 0.767277 0.392393 0.511514
O O12 0.877767 0.456446 0.380850
O O13 0.000000 0.500000 0.500000
O O14 0.190668 0.250000 0.918820
#
# Coordination Sequence:
#
# PCOD8255056 Si02
#       7
#     8   8   4   4   8   8   8
#     4  11  21  43  63  90 130 175 219 263 328 399
#     4  11  24  41  64  96 125 180 215 267 333 396
#     4  12  24  38  62  96 138 170 217 275 333 398
#     4  12  26  36  58 106 136 172 211 269 341 408
#     4  11  24  41  66  96 131 170 216 273 333 391
#     4  11  23  45  71  91 124 176 232 270 321 398
#     4  12  24  40  66  92 140 171 216 264 334 401
#
# _framework density 20.025659999999998
#
# number of rings (size 3 to 8) (size 9 to 14) (size 15 to 20)
#    0.000    0.667    5.833    3.000    5.833    0.000 
#    1.500    0.833    1.833    0.000    0.000    0.000 
#    0.000    0.000    0.000    0.000    0.000    0.000 
#
# Total GULP energy -594779.643716 kJ/mol
# GULP energy per Si atom -12391.242577 kJ/mol
# Density = 1.998008 g / cm^3
# Si number density = 20.025660 Si / 1000 Ang^3
#
#
#
# Elastic Constant Matrix: (Units=GPa)
#
#
# Indices 1 2 3 4 5 6 
#
# 1 67.3779 19.6771 13.4217 0.0000 0.0000 0.0000
# 2 19.6771 127.7934 34.2833 0.0000 0.0000 0.0000
# 3 13.4217 34.2833 99.8915 0.0000 0.0000 0.0000
# 4 0.0000 0.0000 0.0000 23.1671 0.0000 0.0000
# 5 0.0000 0.0000 0.0000 0.0000 -23.1574 0.0000
# 6 0.0000 0.0000 0.0000 0.0000 0.0000 10.5726
#
#
#
# Elastic Compliance Matrix: (Units=1/GPa)
#
#
# Indices 1 2 3 4 5 6 
#
# 1 0.015719 -0.002042 -0.001411 0.000000 0.000000 0.000000
# 2 -0.002042 0.008884 -0.002775 0.000000 0.000000 0.000000
# 3 -0.001411 -0.002775 0.011153 0.000000 0.000000 0.000000
# 4 0.000000 0.000000 0.000000 0.043165 0.000000 0.000000
# 5 0.000000 0.000000 0.000000 0.000000 -0.043183 0.000000
# 6 0.000000 0.000000 0.000000 0.000000 0.000000 0.094584
#
#
# Mechanical properties :
#
#
# Convention : Reuss Voigt Hill
#
# Bulk Modulus (GPa) = 42.91796 47.75856 45.33826
# Shear Modulus (GPa) = 33.21302 17.29520 25.25411
#
# Velocity S-wave (km/s) = 4.07692 2.94198 3.55503
# Velocity P-wave (km/s) = 6.60603 5.95322 6.28810
#
# Compressibility (1/GPa) = 0.02330027
#
# Stress axis : x y z
#
# Youngs Moduli (GPa) = 63.61701 112.56356 89.66386
#
# Poissons Ratio (x) = 0.22983 0.12654
# Poissons Ratio (y) = 0.12989 0.24879
# Poissons Ratio (z) = 0.08978 0.31233
#
# Static dielectric constant tensor:
#      x y z
#    x 4.000330 0.000000 0.000000 
#    y 0.000000 4.075230 0.000000 
#    z 0.000000 0.000000 31.483440 
# 
# 
# High freq. dielectric constant tensor:
#      x y z
#    x 1.778420 0.000000 0.000000 
#    y 0.000000 1.780300 0.000000 
#    z 0.000000 0.000000 1.787430 
# 
# From -- ./inp_files/17010.got.cif
#   From: 2010.03.12/outbox.cif.g09.slc.cpg/sg62_9_cif.got.tgz:17010.got - 2010.04.10 19:12:36.
