data_PCOD8255058
_publ_section_title
;
Structure prediction by ZEFSAII (Michael W. Deem and Ramdas Pophale) SiO2 
 PCOD8255058
Probable space group: P N M A
;
_chemical_formula_sum "Si O2"
_cell_formula_units_Z 48
_cell_length_a 14.296631
_cell_length_b 18.228888
_cell_length_c 8.373403
_cell_angle_alpha 90.000000
_cell_angle_beta 90.000000
_cell_angle_gamma 90.000000
_cell_volume 2182.206667
_symmetry_space_group_name_H-M "P N M A"
_symmetry_group_IT_number 62
_symmetry_cell_setting 'orthorhombic'
loop_
_space_group_symop_operation_xyz
x,y,z
1/2-x,-y,1/2+z
1/2+x,1/2-y,1/2-z
-x,1/2+y,-z
-x,-y,-z
1/2+x,y,1/2-z
1/2-x,1/2+y,1/2+z
x,1/2-y,z
loop_
_atom_site_type_symbol
_atom_site_label
_atom_site_fract_x
_atom_site_fract_y
_atom_site_fract_z
Si Si1 0.791941 0.909573 0.050248
Si Si2 0.986230 0.750000 0.778451
Si Si3 0.086283 0.750000 0.075710
Si Si4 0.698149 0.250000 0.891887
Si Si5 0.152879 0.000794 0.244884
Si Si6 0.506723 0.395000 0.707539
Si Si7 0.919745 0.869604 0.545951
Si Si8 0.821231 0.750000 0.034375
O O1 0.895121 0.911539 0.124466
O O2 0.762690 0.825238 0.007325
O O3 0.719292 0.939501 0.178691
O O4 0.788445 0.957600 0.890674
O O5 0.980701 0.823299 0.672698
O O6 0.907166 0.750000 0.914246
O O7 0.082633 0.750000 0.880405
O O8 0.191908 0.750000 0.135960
O O9 0.034242 0.679348 0.140407
O O10 0.645079 0.250000 0.720788
O O11 0.668848 0.178003 0.988916
O O12 0.119720 0.056926 0.378987
O O13 0.063326 0.961492 0.166679
O O14 0.513925 0.390139 0.899038
#
# Coordination Sequence:
#
# PCOD8255058 Si02
#       8
#     8   4   4   4   8   8   8   4
#     4  12  25  46  71 102 146 185 237 296 348 419
#     4  11  21  43  73  98 141 181 237 291 354 405
#     4  12  23  43  70 106 130 188 245 287 348 425
#     4  11  24  41  76  97 138 186 243 284 355 417
#     4  12  27  43  70 105 141 187 236 289 359 423
#     4  12  24  45  70 102 138 190 234 285 357 421
#     4  11  23  46  68 102 143 188 225 298 351 419
#     4  12  20  47  69  95 127 193 227 282 345 415
#
# _framework density 21.996085000000001
#
# number of rings (size 3 to 8) (size 9 to 14) (size 15 to 20)
#    0.000    0.333    5.000    4.000    2.333    0.000 
#    3.000    1.667    0.000    0.000    0.000    0.000 
#    0.000    0.000    0.000    0.000    0.000    0.000 
#
# Total GULP energy -595379.748369 kJ/mol
# GULP energy per Si atom -12403.744758 kJ/mol
# Density = 2.194602 g / cm^3
# Si number density = 21.996085 Si / 1000 Ang^3
#
#
#
# Elastic Constant Matrix: (Units=GPa)
#
#
# Indices 1 2 3 4 5 6 
#
# 1 66.9213 28.2790 8.4491 0.0000 0.0000 0.0000
# 2 28.2790 142.4752 25.0438 0.0000 0.0000 0.0000
# 3 8.4491 25.0438 106.5121 0.0000 0.0000 0.0000
# 4 0.0000 0.0000 0.0000 30.7181 0.0000 0.0000
# 5 0.0000 0.0000 0.0000 0.0000 21.7290 0.0000
# 6 0.0000 0.0000 0.0000 0.0000 0.0000 41.4970
#
#
#
# Elastic Compliance Matrix: (Units=1/GPa)
#
#
# Indices 1 2 3 4 5 6 
#
# 1 0.016343 -0.003146 -0.000557 0.000000 0.000000 0.000000
# 2 -0.003146 0.007927 -0.001614 0.000000 0.000000 0.000000
# 3 -0.000557 -0.001614 0.009812 0.000000 0.000000 0.000000
# 4 0.000000 0.000000 0.000000 0.032554 0.000000 0.000000
# 5 0.000000 0.000000 0.000000 0.000000 0.046021 0.000000
# 6 0.000000 0.000000 0.000000 0.000000 0.000000 0.024098
#
#
# Mechanical properties :
#
#
# Convention : Reuss Voigt Hill
#
# Bulk Modulus (GPa) = 42.64738 48.82803 45.73770
# Shear Modulus (GPa) = 32.21541 35.73128 33.97335
#
# Velocity S-wave (km/s) = 3.83116 4.03480 3.93430
# Velocity P-wave (km/s) = 6.24508 6.62970 6.44026
#
# Compressibility (1/GPa) = 0.02344810
#
# Stress axis : x y z
#
# Youngs Moduli (GPa) = 61.18993 126.15231 101.91267
#
# Poissons Ratio (x) = 0.39686 0.05673
# Poissons Ratio (y) = 0.19250 0.16452
# Poissons Ratio (z) = 0.03406 0.20365
#
# Static dielectric constant tensor:
#      x y z
#    x 3.804620 0.000000 0.000000 
#    y 0.000000 4.363890 0.000000 
#    z 0.000000 0.000000 4.251520 
# 
# 
# High freq. dielectric constant tensor:
#      x y z
#    x 1.845200 0.000000 0.000000 
#    y 0.000000 1.888070 0.000000 
#    z 0.000000 0.000000 1.878990 
# 
# From -- ./inp_files/6542.got.cif
#   From: 2010.03.12/outbox.cif.g09.slc.cpg/sg62_4_cif.got.tgz:6542.got - 2010.04.10 19:12:36.
