data_PCOD8255794
_publ_section_title
;
Structure prediction by ZEFSAII (Michael W. Deem and Ramdas Pophale) SiO2 
 PCOD8255794
Probable space group: C M C M
;
_chemical_formula_sum "Si O2"
_cell_formula_units_Z 96
_cell_length_a 8.971379
_cell_length_b 22.892669
_cell_length_c 26.884263
_cell_angle_alpha 90.000000
_cell_angle_beta 90.000000
_cell_angle_gamma 90.000000
_cell_volume 5521.457941
_symmetry_space_group_name_H-M "C M C M"
_symmetry_group_IT_number 63
_symmetry_cell_setting 'orthorhombic'
loop_
_space_group_symop_operation_xyz
x,y,z
-x,-y,1/2+z
x,-y,-z
-x,y,1/2-z
-x,-y,-z
x,y,1/2-z
-x,y,z
x,-y,1/2+z
1/2+x,1/2+y,z
1/2-x,1/2-y,1/2+z
1/2+x,1/2-y,-z
1/2-x,1/2+y,1/2-z
1/2-x,1/2-y,-z
1/2+x,1/2+y,1/2-z
1/2-x,1/2+y,z
1/2+x,1/2-y,1/2+z
loop_
_atom_site_type_symbol
_atom_site_label
_atom_site_fract_x
_atom_site_fract_y
_atom_site_fract_z
Si Si1 0.165356 0.132557 0.250000
Si Si2 0.177083 0.040427 0.954437
Si Si3 0.326416 0.164430 0.532732
Si Si4 0.173661 0.014319 0.149077
Si Si5 0.671762 0.228047 0.069057
Si Si6 0.325532 0.015273 0.250000
Si Si7 0.166514 0.848855 0.643766
O O1 0.293834 0.084215 0.250000
O O2 0.177201 0.172514 0.298922
O O3 0.000000 0.101171 0.250000
O O4 0.240218 0.104600 0.961167
O O5 0.000000 0.043109 0.955735
O O6 0.234039 0.016370 0.901159
O O7 0.235321 0.000000 0.000000
O O8 0.500000 0.153696 0.541568
O O9 0.288294 0.189303 0.478602
O O10 0.267121 0.212456 0.571857
O O11 0.256055 0.989205 0.198558
O O12 0.205707 0.082812 0.141804
O O13 0.000000 0.001684 0.156374
O O14 0.500000 0.245864 0.070209
O O15 0.710613 0.188156 0.115700
O O16 0.500000 0.002158 0.250000
O O17 0.000000 0.837936 0.621983
#
# Coordination Sequence:
#
# PCOD8255794 Si02
#       7
#     8  16  16  16  16   8  16
#     4   8  16  30  46  67  98 131 160 194 240 292
#     4  10  20  34  53  76 102 132 164 199 243 296
#     4  10  21  35  50  70  97 129 163 199 239 284
#     4   9  18  32  50  72 101 135 165 198 244 296
#     4  10  20  33  50  71  96 127 162 199 239 286
#     4  10  18  28  46  71  98 129 168 210 244 280
#     4   9  16  29  50  73  97 127 162 198 239 285
#
# _framework density 17.386711999999999
#
# number of rings (size 3 to 8) (size 9 to 14) (size 15 to 20)
#    0.000    2.500    0.000    3.750    0.000    7.000 
#    0.000    0.000    0.000    1.000    0.000    4.667 
#    0.000    0.000    0.000    0.000    0.000    0.000 
#
# Total GULP energy -595015.446244 kJ/mol
# GULP energy per Si atom -12396.155130 kJ/mol
# Density = 1.734714 g / cm^3
# Si number density = 17.386712 Si / 1000 Ang^3
#
#
#
# Elastic Constant Matrix: (Units=GPa)
#
#
# Indices 1 2 3 4 5 6 
#
# 1 35.4670 19.0100 42.0029 0.0000 0.0000 0.0000
# 2 19.0100 73.1685 45.3458 0.0000 0.0000 0.0000
# 3 42.0029 45.3458 122.1115 0.0000 0.0000 0.0000
# 4 0.0000 0.0000 0.0000 21.1172 0.0000 0.0000
# 5 0.0000 0.0000 0.0000 0.0000 24.7912 0.0000
# 6 0.0000 0.0000 0.0000 0.0000 0.0000 29.1717
#
#
#
# Elastic Compliance Matrix: (Units=1/GPa)
#
#
# Indices 1 2 3 4 5 6 
#
# 1 0.048048 -0.002911 -0.015446 0.000000 0.000000 0.000000
# 2 -0.002911 0.017929 -0.005657 0.000000 0.000000 0.000000
# 3 -0.015446 -0.005657 0.015603 0.000000 0.000000 0.000000
# 4 0.000000 0.000000 0.000000 0.047355 0.000000 0.000000
# 5 0.000000 0.000000 0.000000 0.000000 0.040337 0.000000
# 6 0.000000 0.000000 0.000000 0.000000 0.000000 0.034280
#
#
# Mechanical properties :
#
#
# Convention : Reuss Voigt Hill
#
# Bulk Modulus (GPa) = 29.80390 49.27381 39.53885
# Shear Modulus (GPa) = 19.02855 23.30857 21.16856
#
# Velocity S-wave (km/s) = 3.31181 3.66539 3.49307
# Velocity P-wave (km/s) = 5.63942 6.80550 6.24972
#
# Compressibility (1/GPa) = 0.03355266
#
# Stress axis : x y z
#
# Youngs Moduli (GPa) = 20.81251 55.77545 64.09058
#
# Poissons Ratio (x) = 0.16234 0.98996
# Poissons Ratio (y) = 0.06058 0.36254
# Poissons Ratio (z) = 0.32148 0.31551
#
# Static dielectric constant tensor:
#      x y z
#    x 3.133690 0.000000 0.000000 
#    y 0.000000 2.969440 0.000000 
#    z 0.000000 0.000000 3.590080 
# 
# 
# High freq. dielectric constant tensor:
#      x y z
#    x 1.669170 0.000000 0.000000 
#    y 0.000000 1.639110 0.000000 
#    z 0.000000 0.000000 1.679910 
# 
# From -- ./inp_files/60041.got.cif
#   From: 2010.03.12/outbox.cif.g09.slc.cpg/sg63_31_cif.got.tgz:60041.got - 2010.04.10 19:34:48.
