data_PCOD8255244
_publ_section_title
;
Structure prediction by ZEFSAII (Michael W. Deem and Ramdas Pophale) SiO2 
 PCOD8255244
Probable space group: P N M A
;
_chemical_formula_sum "Si O2"
_cell_formula_units_Z 48
_cell_length_a 14.694961
_cell_length_b 8.861510
_cell_length_c 19.937141
_cell_angle_alpha 90.000000
_cell_angle_beta 90.000000
_cell_angle_gamma 90.000000
_cell_volume 2596.205407
_symmetry_space_group_name_H-M "P N M A"
_symmetry_group_IT_number 62
_symmetry_cell_setting 'orthorhombic'
loop_
_space_group_symop_operation_xyz
x,y,z
1/2-x,-y,1/2+z
1/2+x,1/2-y,1/2-z
-x,1/2+y,-z
-x,-y,-z
1/2+x,y,1/2-z
1/2-x,1/2+y,1/2+z
x,1/2-y,z
loop_
_atom_site_type_symbol
_atom_site_label
_atom_site_fract_x
_atom_site_fract_y
_atom_site_fract_z
Si Si1 0.816003 0.076881 0.667942
Si Si2 0.609762 0.426688 0.693006
Si Si3 0.920920 0.573137 0.041972
Si Si4 0.002483 0.426892 0.308899
Si Si5 0.220653 0.575211 0.485695
Si Si6 0.063573 0.427701 0.555565
O O1 0.837774 0.250000 0.685185
O O2 0.716932 0.033359 0.696484
O O3 0.820879 0.051721 0.588188
O O4 0.892223 0.973070 0.702787
O O5 0.594720 0.250000 0.708615
O O6 0.570888 0.469539 0.619996
O O7 0.556098 0.530682 0.744305
O O8 0.926888 0.750000 0.033440
O O9 0.824344 0.517392 0.013016
O O10 0.000000 0.500000 0.000000
O O11 0.996137 0.250000 0.322277
O O12 0.961528 0.515997 0.371227
O O13 0.213379 0.750000 0.506399
O O14 0.167124 0.474261 0.539408
O O15 0.051621 0.250000 0.553059
O O16 0.000000 0.500000 0.500000
#
# Coordination Sequence:
#
# PCOD8255244 Si02
#       6
#     8   8   8   8   8   8
#     4   9  18  36  62  82 106 148 192 234 283 340
#     4   9  20  40  61  83 112 153 196 234 284 343
#     4   9  19  37  62  88 115 150 191 235 284 337
#     4  12  24  37  57  86 118 152 190 240 290 340
#     4   9  18  35  58  84 113 147 187 235 283 334
#     4  12  23  36  57  86 117 151 190 234 285 344
#
# _framework density 18.488520999999999
#
# number of rings (size 3 to 8) (size 9 to 14) (size 15 to 20)
#    0.000    2.000    1.667    5.000    0.000    2.000 
#    3.000    3.333    0.000    0.000    0.000    0.000 
#    0.000    0.000    0.000    0.000    0.000    0.000 
#
# Total GULP energy -595268.015563 kJ/mol
# GULP energy per Si atom -12401.416991 kJ/mol
# Density = 1.844644 g / cm^3
# Si number density = 18.488521 Si / 1000 Ang^3
#
#
#
# Elastic Constant Matrix: (Units=GPa)
#
#
# Indices 1 2 3 4 5 6 
#
# 1 122.3961 57.0386 63.9895 0.0000 0.0000 0.0000
# 2 57.0386 106.3889 47.4829 0.0000 0.0000 0.0000
# 3 63.9895 47.4829 87.3441 0.0000 0.0000 0.0000
# 4 0.0000 0.0000 0.0000 31.4432 0.0000 0.0000
# 5 0.0000 0.0000 0.0000 0.0000 34.9768 0.0000
# 6 0.0000 0.0000 0.0000 0.0000 0.0000 36.0080
#
#
#
# Elastic Compliance Matrix: (Units=1/GPa)
#
#
# Indices 1 2 3 4 5 6 
#
# 1 0.014415 -0.003981 -0.008397 0.000000 0.000000 0.000000
# 2 -0.003981 0.013510 -0.004428 0.000000 0.000000 0.000000
# 3 -0.008397 -0.004428 0.020008 0.000000 0.000000 0.000000
# 4 0.000000 0.000000 0.000000 0.031803 0.000000 0.000000
# 5 0.000000 0.000000 0.000000 0.000000 0.028590 0.000000
# 6 0.000000 0.000000 0.000000 0.000000 0.000000 0.027772
#
#
# Mechanical properties :
#
#
# Convention : Reuss Voigt Hill
#
# Bulk Modulus (GPa) = 69.82357 72.57235 71.19796
# Shear Modulus (GPa) = 28.65604 30.32680 29.49142
#
# Velocity S-wave (km/s) = 3.94120 4.05446 3.99823
# Velocity P-wave (km/s) = 7.65236 7.82663 7.73998
#
# Compressibility (1/GPa) = 0.01432181
#
# Stress axis : x y z
#
# Youngs Moduli (GPa) = 69.37135 74.01886 49.98093
#
# Poissons Ratio (x) = 0.29466 0.41967
# Poissons Ratio (y) = 0.27616 0.22132
# Poissons Ratio (z) = 0.58248 0.32776
#
# Static dielectric constant tensor:
#      x y z
#    x 3.525930 0.000000 0.000000 
#    y 0.000000 3.569510 0.000000 
#    z 0.000000 0.000000 3.312150 
# 
# 
# High freq. dielectric constant tensor:
#      x y z
#    x 1.730160 0.000000 0.000000 
#    y 0.000000 1.712270 0.000000 
#    z 0.000000 0.000000 1.702970 
# 
# From -- ./inp_files/26868.got.cif
#   From: 2010.03.12/outbox.cif.g09.slc.cpg/sg62_14_cif.got.tgz:26868.got - 2010.04.10 19:12:36.
