data_PCOD8255020
_publ_section_title
;
Structure prediction by ZEFSAII (Michael W. Deem and Ramdas Pophale) SiO2 
 PCOD8255020
Probable space group: P N M A
;
_chemical_formula_sum "Si O2"
_cell_formula_units_Z 48
_cell_length_a 9.980291
_cell_length_b 22.280006
_cell_length_c 10.878339
_cell_angle_alpha 90.000000
_cell_angle_beta 90.000000
_cell_angle_gamma 90.000000
_cell_volume 2418.917722
_symmetry_space_group_name_H-M "P N M A"
_symmetry_group_IT_number 62
_symmetry_cell_setting 'orthorhombic'
loop_
_space_group_symop_operation_xyz
x,y,z
1/2-x,-y,1/2+z
1/2+x,1/2-y,1/2-z
-x,1/2+y,-z
-x,-y,-z
1/2+x,y,1/2-z
1/2-x,1/2+y,1/2+z
x,1/2-y,z
loop_
_atom_site_type_symbol
_atom_site_label
_atom_site_fract_x
_atom_site_fract_y
_atom_site_fract_z
Si Si1 0.844490 0.601679 0.604124
Si Si2 0.606406 0.577058 0.788683
Si Si3 0.955294 0.527402 0.126129
Si Si4 0.833841 0.035222 0.547248
Si Si5 0.925892 0.127462 0.730357
Si Si6 0.317823 0.681461 0.134639
O O1 0.714934 0.604881 0.694406
O O2 0.880378 0.534204 0.555365
O O3 0.807830 0.643834 0.490684
O O4 0.984045 0.622529 0.671748
O O5 0.523103 0.521922 0.731097
O O6 0.689095 0.553428 0.906008
O O7 0.800529 0.544214 0.124281
O O8 0.039938 0.586957 0.151005
O O9 0.000000 0.500000 0.000000
O O10 0.930600 0.083588 0.611476
O O11 0.788821 0.160611 0.762705
O O12 0.038848 0.176521 0.701203
O O13 0.290693 0.750000 0.098670
#
# Coordination Sequence:
#
# PCOD8255020 Si02
#       6
#     8   8   8   8   8   8
#     4  11  23  38  64  93 133 166 202 259 318 384
#     4  11  21  36  59  93 130 164 201 250 323 383
#     4  11  22  34  59  98 136 158 194 253 329 388
#     4  11  21  35  64  99 128 160 205 259 331 377
#     4  12  22  42  67  93 125 164 211 268 319 376
#     4  12  27  46  64  89 125 174 221 260 307 379
#
# _framework density 19.843586999999999
#
# number of rings (size 3 to 8) (size 9 to 14) (size 15 to 20)
#    0.000    0.667    5.000    5.000    4.667    0.000 
#    0.000    0.833    0.000    0.000    0.000    0.000 
#    0.000    0.000    0.000    0.000    0.000    0.000 
#
# Total GULP energy -595108.354880 kJ/mol
# GULP energy per Si atom -12398.090727 kJ/mol
# Density = 1.979842 g / cm^3
# Si number density = 19.843587 Si / 1000 Ang^3
#
#
#
# Elastic Constant Matrix: (Units=GPa)
#
#
# Indices 1 2 3 4 5 6 
#
# 1 83.9471 27.8874 31.5099 0.0000 0.0000 0.0000
# 2 27.8874 101.2952 48.6732 0.0000 0.0000 0.0000
# 3 31.5099 48.6732 117.1079 0.0000 0.0000 0.0000
# 4 0.0000 0.0000 0.0000 23.9844 0.0000 0.0000
# 5 0.0000 0.0000 0.0000 0.0000 30.9475 0.0000
# 6 0.0000 0.0000 0.0000 0.0000 0.0000 18.6327
#
#
#
# Elastic Compliance Matrix: (Units=1/GPa)
#
#
# Indices 1 2 3 4 5 6 
#
# 1 0.013742 -0.002507 -0.002655 0.000000 0.000000 0.000000
# 2 -0.002507 0.012793 -0.004643 0.000000 0.000000 0.000000
# 3 -0.002655 -0.004643 0.011183 0.000000 0.000000 0.000000
# 4 0.000000 0.000000 0.000000 0.041694 0.000000 0.000000
# 5 0.000000 0.000000 0.000000 0.000000 0.032313 0.000000
# 6 0.000000 0.000000 0.000000 0.000000 0.000000 0.053669
#
#
# Mechanical properties :
#
#
# Convention : Reuss Voigt Hill
#
# Bulk Modulus (GPa) = 55.22495 57.61013 56.41754
# Shear Modulus (GPa) = 26.17249 27.66491 26.91870
#
# Velocity S-wave (km/s) = 3.63566 3.73788 3.68713
# Velocity P-wave (km/s) = 6.74645 6.90827 6.82784
#
# Compressibility (1/GPa) = 0.01810776
#
# Stress axis : x y z
#
# Youngs Moduli (GPa) = 72.77009 78.16636 89.41991
#
# Poissons Ratio (x) = 0.19599 0.23744
# Poissons Ratio (y) = 0.18246 0.41514
# Poissons Ratio (z) = 0.19323 0.36289
#
# Static dielectric constant tensor:
#      x y z
#    x 3.677140 0.000000 0.000000 
#    y 0.000000 3.254770 0.000000 
#    z 0.000000 0.000000 3.653320 
# 
# 
# High freq. dielectric constant tensor:
#      x y z
#    x 1.797670 0.000000 0.000000 
#    y 0.000000 1.723700 0.000000 
#    z 0.000000 0.000000 1.789000 
# 
# From -- ./inp_files/5286.got.cif
#   From: 2010.03.12/outbox.cif.g09.slc.cpg/sg62_3_cif.got.tgz:5286.got - 2010.04.10 19:12:36.
