data_PCOD8255403
_publ_section_title
;
Structure prediction by ZEFSAII (Michael W. Deem and Ramdas Pophale) SiO2 
 PCOD8255403
Probable space group: C M C M
;
_chemical_formula_sum "Si O2"
_cell_formula_units_Z 88
_cell_length_a 18.542735
_cell_length_b 21.179844
_cell_length_c 13.744623
_cell_angle_alpha 90.000000
_cell_angle_beta 90.000000
_cell_angle_gamma 90.000000
_cell_volume 5397.956505
_symmetry_space_group_name_H-M "C M C M"
_symmetry_group_IT_number 63
_symmetry_cell_setting 'orthorhombic'
loop_
_space_group_symop_operation_xyz
x,y,z
-x,-y,1/2+z
x,-y,-z
-x,y,1/2-z
-x,-y,-z
x,y,1/2-z
-x,y,z
x,-y,1/2+z
1/2+x,1/2+y,z
1/2-x,1/2-y,1/2+z
1/2+x,1/2-y,-z
1/2-x,1/2+y,1/2-z
1/2-x,1/2-y,-z
1/2+x,1/2+y,1/2-z
1/2-x,1/2+y,z
1/2+x,1/2-y,1/2+z
loop_
_atom_site_type_symbol
_atom_site_label
_atom_site_fract_x
_atom_site_fract_y
_atom_site_fract_z
Si Si1 0.179433 0.958653 0.638657
Si Si2 0.824624 0.395941 0.361642
Si Si3 0.582793 0.222750 0.637127
Si Si4 0.915497 0.853750 0.955419
Si Si5 0.297152 0.000000 0.500000
Si Si6 0.655926 0.601310 0.858103
O O1 0.205299 0.951009 0.750000
O O2 0.122710 0.904912 0.612666
O O3 0.248400 0.954159 0.567997
O O4 0.142617 0.026986 0.623474
O O5 0.844561 0.412847 0.250000
O O6 0.868452 0.335370 0.398343
O O7 0.845794 0.455160 0.430977
O O8 0.739887 0.382364 0.372099
O O9 0.595730 0.237278 0.750000
O O10 0.500000 0.205243 0.616012
O O11 0.607413 0.284161 0.578153
O O12 0.000000 0.864549 0.943147
O O13 0.892495 0.859511 0.067493
O O14 0.630748 0.620508 0.750000
#
# Coordination Sequence:
#
# PCOD8255403 Si02
#       6
#    16  16  16  16   8  16
#     4  10  18  30  46  67  98 127 157 197 237 277
#     4   9  17  32  54  72  94 125 157 194 237 285
#     4   9  19  34  50  71  97 125 158 196 238 284
#     4  11  20  31  47  68  96 131 165 197 235 275
#     4  10  16  32  50  74  94 124 150 196 242 286
#     4   9  18  32  47  68  95 127 164 197 234 280
#
# _framework density 16.302465999999999
#
# number of rings (size 3 to 8) (size 9 to 14) (size 15 to 20)
#    0.000    2.364    3.636    2.182    0.000    3.636 
#    0.000    2.273    0.000    1.091    0.000    0.000 
#    0.000    0.000    0.000    0.000    0.000    0.000 
#
# Total GULP energy -545559.666821 kJ/mol
# GULP energy per Si atom -12399.083337 kJ/mol
# Density = 1.626536 g / cm^3
# Si number density = 16.302466 Si / 1000 Ang^3
#
#
#
# Elastic Constant Matrix: (Units=GPa)
#
#
# Indices 1 2 3 4 5 6 
#
# 1 48.9396 63.3751 28.8574 0.0000 0.0000 0.0000
# 2 63.3751 133.6484 66.6158 0.0000 0.0000 0.0000
# 3 28.8574 66.6158 104.9330 0.0000 0.0000 0.0000
# 4 0.0000 0.0000 0.0000 29.8742 0.0000 0.0000
# 5 0.0000 0.0000 0.0000 0.0000 19.1491 0.0000
# 6 0.0000 0.0000 0.0000 0.0000 0.0000 26.6667
#
#
#
# Elastic Compliance Matrix: (Units=1/GPa)
#
#
# Indices 1 2 3 4 5 6 
#
# 1 0.053238 -0.026256 0.002027 0.000000 0.000000 0.000000
# 2 -0.026256 0.023894 -0.007949 0.000000 0.000000 0.000000
# 3 0.002027 -0.007949 0.014019 0.000000 0.000000 0.000000
# 4 0.000000 0.000000 0.000000 0.033474 0.000000 0.000000
# 5 0.000000 0.000000 0.000000 0.000000 0.052222 0.000000
# 6 0.000000 0.000000 0.000000 0.000000 0.000000 0.037500
#
#
# Mechanical properties :
#
#
# Convention : Reuss Voigt Hill
#
# Bulk Modulus (GPa) = 37.31757 67.24640 52.28198
# Shear Modulus (GPa) = 17.38326 23.71618 20.54972
#
# Velocity S-wave (km/s) = 3.26896 3.81827 3.55424
# Velocity P-wave (km/s) = 6.09825 7.79600 6.99880
#
# Compressibility (1/GPa) = 0.02679703
#
# Stress axis : x y z
#
# Youngs Moduli (GPa) = 18.78356 41.85068 71.33399
#
# Poissons Ratio (x) = 1.09881 -0.14461
# Poissons Ratio (y) = 0.49317 0.56701
# Poissons Ratio (z) = -0.03808 0.33266
#
# Static dielectric constant tensor:
#      x y z
#    x 2.853410 0.000000 0.000000 
#    y 0.000000 3.059680 0.000000 
#    z 0.000000 0.000000 3.312270 
# 
# 
# High freq. dielectric constant tensor:
#      x y z
#    x 1.597440 0.000000 0.000000 
#    y 0.000000 1.616380 0.000000 
#    z 0.000000 0.000000 1.641390 
# 
# From -- ./inp_files/34128.got.cif
#   From: 2010.03.12/outbox.cif.g09.slc.cpg/sg63_18_cif.got.tgz:34128.got - 2010.04.10 19:34:48.
