data_PCOD8255113
_publ_section_title
;
Structure prediction by ZEFSAII (Michael W. Deem and Ramdas Pophale) SiO2 
 PCOD8255113
Probable space group: P N M A
;
_chemical_formula_sum "Si O2"
_cell_formula_units_Z 48
_cell_length_a 8.780579
_cell_length_b 15.619957
_cell_length_c 17.362310
_cell_angle_alpha 90.000000
_cell_angle_beta 90.000000
_cell_angle_gamma 90.000000
_cell_volume 2381.280167
_symmetry_space_group_name_H-M "P N M A"
_symmetry_group_IT_number 62
_symmetry_cell_setting 'orthorhombic'
loop_
_space_group_symop_operation_xyz
x,y,z
1/2-x,-y,1/2+z
1/2+x,1/2-y,1/2-z
-x,1/2+y,-z
-x,-y,-z
1/2+x,y,1/2-z
1/2-x,1/2+y,1/2+z
x,1/2-y,z
loop_
_atom_site_type_symbol
_atom_site_label
_atom_site_fract_x
_atom_site_fract_y
_atom_site_fract_z
Si Si1 0.651176 0.018759 0.455237
Si Si2 0.871818 0.604583 0.524625
Si Si3 0.666902 0.250000 0.137590
Si Si4 0.992057 0.060267 0.195994
Si Si5 0.656941 0.991423 0.159591
Si Si6 0.826708 0.347194 0.553016
Si Si7 0.445755 0.250000 0.261872
O O1 0.616051 0.031730 0.366087
O O2 0.722123 0.104408 0.491257
O O3 0.500000 0.000000 0.500000
O O4 0.754936 0.933862 0.462496
O O5 0.792196 0.668975 0.585243
O O6 0.922980 0.525991 0.580137
O O7 0.002908 0.654019 0.480293
O O8 0.491013 0.250000 0.170112
O O9 0.766275 0.250000 0.217056
O O10 0.013964 0.162295 0.203502
O O11 0.037961 0.009011 0.273011
O O12 0.819807 0.035321 0.175145
O O13 0.680087 0.891138 0.138398
O O14 0.769385 0.250000 0.562475
#
# Coordination Sequence:
#
# PCOD8255113 Si02
#       7
#     8   8   4   8   8   8   4
#     4  11  22  43  65  96 130 173 213 269 331 387
#     4  11  22  43  65  92 136 171 216 261 321 397
#     4  12  22  40  62 102 132 166 213 265 321 391
#     4  12  24  39  66  95 133 171 211 266 335 395
#     4  11  24  43  63  95 131 173 213 264 330 397
#     4  11  25  44  69  94 128 174 228 273 316 388
#     4  12  22  38  62  98 140 162 207 269 325 401
#
# _framework density 20.157226000000001
#
# number of rings (size 3 to 8) (size 9 to 14) (size 15 to 20)
#    0.000    0.667    7.500    2.000    5.833    1.333 
#    1.500    0.833    1.833    0.000    0.000    0.000 
#    0.000    0.000    0.000    0.000    0.000    0.000 
#
# Total GULP energy -594909.240089 kJ/mol
# GULP energy per Si atom -12393.942502 kJ/mol
# Density = 2.011135 g / cm^3
# Si number density = 20.157226 Si / 1000 Ang^3
#
#
#
# Elastic Constant Matrix: (Units=GPa)
#
#
# Indices 1 2 3 4 5 6 
#
# 1 71.1440 33.4747 26.2812 0.0000 0.0000 0.0000
# 2 33.4747 116.1001 33.2560 0.0000 0.0000 0.0000
# 3 26.2812 33.2560 90.7343 0.0000 0.0000 0.0000
# 4 0.0000 0.0000 0.0000 30.6686 0.0000 0.0000
# 5 0.0000 0.0000 0.0000 0.0000 34.9159 0.0000
# 6 0.0000 0.0000 0.0000 0.0000 0.0000 24.2683
#
#
#
# Elastic Compliance Matrix: (Units=1/GPa)
#
#
# Indices 1 2 3 4 5 6 
#
# 1 0.017223 -0.003952 -0.003540 0.000000 0.000000 0.000000
# 2 -0.003952 0.010530 -0.002715 0.000000 0.000000 0.000000
# 3 -0.003540 -0.002715 0.013042 0.000000 0.000000 0.000000
# 4 0.000000 0.000000 0.000000 0.032607 0.000000 0.000000
# 5 0.000000 0.000000 0.000000 0.000000 0.028640 0.000000
# 6 0.000000 0.000000 0.000000 0.000000 0.000000 0.041206
#
#
# Mechanical properties :
#
#
# Convention : Reuss Voigt Hill
#
# Bulk Modulus (GPa) = 49.06486 51.55581 50.31033
# Shear Modulus (GPa) = 29.33308 30.30166 29.81737
#
# Velocity S-wave (km/s) = 3.81887 3.88140 3.85026
# Velocity P-wave (km/s) = 6.62109 6.76161 6.69172
#
# Compressibility (1/GPa) = 0.02038119
#
# Stress axis : x y z
#
# Youngs Moduli (GPa) = 58.06110 94.96366 76.67697
#
# Poissons Ratio (x) = 0.37528 0.27146
# Poissons Ratio (y) = 0.22945 0.20817
# Poissons Ratio (z) = 0.20555 0.25782
#
# Static dielectric constant tensor:
#      x y z
#    x 3.588260 0.000000 0.000000 
#    y 0.000000 3.940940 0.000000 
#    z 0.000000 0.000000 3.571600 
# 
# 
# High freq. dielectric constant tensor:
#      x y z
#    x 1.785010 0.000000 0.000000 
#    y 0.000000 1.789460 0.000000 
#    z 0.000000 0.000000 1.781300 
# 
# From -- ./inp_files/22239.got.cif
#   From: 2010.03.12/outbox.cif.g09.slc.cpg/sg62_12_cif.got.tgz:22239.got - 2010.04.10 19:12:36.
