data_PCOD8255588
_publ_section_title
;
Structure prediction by ZEFSAII (Michael W. Deem and Ramdas Pophale) SiO2 
 PCOD8255588
Probable space group: C M C M
;
_chemical_formula_sum "Si O2"
_cell_formula_units_Z 112
_cell_length_a 16.914064
_cell_length_b 16.969926
_cell_length_c 22.128163
_cell_angle_alpha 90.000000
_cell_angle_beta 90.000000
_cell_angle_gamma 90.000000
_cell_volume 6351.455797
_symmetry_space_group_name_H-M "C M C M"
_symmetry_group_IT_number 63
_symmetry_cell_setting 'orthorhombic'
loop_
_space_group_symop_operation_xyz
x,y,z
-x,-y,1/2+z
x,-y,-z
-x,y,1/2-z
-x,-y,-z
x,y,1/2-z
-x,y,z
x,-y,1/2+z
1/2+x,1/2+y,z
1/2-x,1/2-y,1/2+z
1/2+x,1/2-y,-z
1/2-x,1/2+y,1/2-z
1/2-x,1/2-y,-z
1/2+x,1/2+y,1/2-z
1/2-x,1/2+y,z
1/2+x,1/2-y,1/2+z
loop_
_atom_site_type_symbol
_atom_site_label
_atom_site_fract_x
_atom_site_fract_y
_atom_site_fract_z
Si Si1 0.210134 0.390262 0.623401
Si Si2 0.336228 0.782922 0.515240
Si Si3 0.277988 0.269216 0.319576
Si Si4 0.836402 0.630621 0.900651
Si Si5 0.592554 0.662242 0.898790
Si Si6 0.589362 0.991418 0.181042
Si Si7 0.803582 0.022425 0.567018
O O1 0.170358 0.352848 0.563904
O O2 0.239422 0.322595 0.668808
O O3 0.144825 0.438933 0.659215
O O4 0.286075 0.444063 0.606500
O O5 0.250000 0.750000 0.500000
O O6 0.375872 0.816388 0.453593
O O7 0.389647 0.711147 0.539777
O O8 0.272394 0.290445 0.250000
O O9 0.211638 0.316980 0.354160
O O10 0.364962 0.293062 0.343398
O O11 0.901977 0.584440 0.862423
O O12 0.777389 0.571786 0.935525
O O13 0.500000 0.658638 0.885582
O O14 0.625715 0.573157 0.903617
O O15 0.610925 0.968178 0.250000
O O16 0.500000 0.021865 0.176558
O O17 0.830199 0.000000 0.500000
#
# Coordination Sequence:
#
# PCOD8255588 Si02
#       7
#    16  16  16  16  16  16  16
#     4  10  19  31  56  80 100 135 175 217 267 315
#     4  11  17  35  55  80 105 138 171 223 272 312
#     4  10  20  35  57  80 102 136 184 228 263 307
#     4  10  19  33  58  79 100 138 185 222 262 314
#     4  10  22  34  51  81 112 142 174 211 267 331
#     4  10  22  37  50  73 112 149 177 214 265 319
#     4  10  17  31  54  76 105 136 169 212 264 312
#
# _framework density 17.633752999999999
#
# number of rings (size 3 to 8) (size 9 to 14) (size 15 to 20)
#    0.000    1.857    5.714    0.857    0.000    3.429 
#    0.000    1.429    0.000    0.000    0.000    0.000 
#    0.000    0.000    0.000    0.000    0.000    0.000 
#
# Total GULP energy -694331.466599 kJ/mol
# GULP energy per Si atom -12398.776189 kJ/mol
# Density = 1.759362 g / cm^3
# Si number density = 17.633753 Si / 1000 Ang^3
#
#
#
# Elastic Constant Matrix: (Units=GPa)
#
#
# Indices 1 2 3 4 5 6 
#
# 1 46.9932 25.0570 10.2746 0.0000 0.0000 0.0000
# 2 25.0570 93.0510 29.6541 0.0000 0.0000 0.0000
# 3 10.2746 29.6541 109.4227 0.0000 0.0000 0.0000
# 4 0.0000 0.0000 0.0000 21.4724 0.0000 0.0000
# 5 0.0000 0.0000 0.0000 0.0000 19.1069 0.0000
# 6 0.0000 0.0000 0.0000 0.0000 0.0000 13.9630
#
#
#
# Elastic Compliance Matrix: (Units=1/GPa)
#
#
# Indices 1 2 3 4 5 6 
#
# 1 0.024880 -0.006518 -0.000570 0.000000 0.000000 0.000000
# 2 -0.006518 0.013470 -0.003038 0.000000 0.000000 0.000000
# 3 -0.000570 -0.003038 0.010016 0.000000 0.000000 0.000000
# 4 0.000000 0.000000 0.000000 0.046571 0.000000 0.000000
# 5 0.000000 0.000000 0.000000 0.000000 0.052337 0.000000
# 6 0.000000 0.000000 0.000000 0.000000 0.000000 0.071618
#
#
# Mechanical properties :
#
#
# Convention : Reuss Voigt Hill
#
# Bulk Modulus (GPa) = 35.57042 42.15980 38.86511
# Shear Modulus (GPa) = 20.11944 23.20721 21.66333
#
# Velocity S-wave (km/s) = 3.38148 3.63170 3.50882
# Velocity P-wave (km/s) = 5.95495 6.44563 6.20514
#
# Compressibility (1/GPa) = 0.02811325
#
# Stress axis : x y z
#
# Youngs Moduli (GPa) = 40.19331 74.23718 99.84213
#
# Poissons Ratio (x) = 0.48389 0.05688
# Poissons Ratio (y) = 0.26199 0.30337
# Poissons Ratio (z) = 0.02290 0.22557
#
# Static dielectric constant tensor:
#      x y z
#    x 2.910820 0.000000 0.000000 
#    y 0.000000 3.557020 0.000000 
#    z 0.000000 0.000000 4.006630 
# 
# 
# High freq. dielectric constant tensor:
#      x y z
#    x 1.643030 0.000000 0.000000 
#    y 0.000000 1.694540 0.000000 
#    z 0.000000 0.000000 1.687790 
# 
# From -- ./inp_files/55839.got.cif
#   From: 2010.03.12/outbox.cif.g09.slc.cpg/sg63_28_cif.got.tgz:55839.got - 2010.04.10 19:34:48.
