data_PCOD8255346
_publ_section_title
;
Structure prediction by ZEFSAII (Michael W. Deem and Ramdas Pophale) SiO2 
 PCOD8255346
Probable space group: C M C M
;
_chemical_formula_sum "Si O2"
_cell_formula_units_Z 128
_cell_length_a 17.961324
_cell_length_b 20.374513
_cell_length_c 23.137773
_cell_angle_alpha 90.000000
_cell_angle_beta 90.000000
_cell_angle_gamma 90.000000
_cell_volume 8467.342749
_symmetry_space_group_name_H-M "C M C M"
_symmetry_group_IT_number 63
_symmetry_cell_setting 'orthorhombic'
loop_
_space_group_symop_operation_xyz
x,y,z
-x,-y,1/2+z
x,-y,-z
-x,y,1/2-z
-x,-y,-z
x,y,1/2-z
-x,y,z
x,-y,1/2+z
1/2+x,1/2+y,z
1/2-x,1/2-y,1/2+z
1/2+x,1/2-y,-z
1/2-x,1/2+y,1/2-z
1/2-x,1/2-y,-z
1/2+x,1/2+y,1/2-z
1/2-x,1/2+y,z
1/2+x,1/2-y,1/2+z
loop_
_atom_site_type_symbol
_atom_site_label
_atom_site_fract_x
_atom_site_fract_y
_atom_site_fract_z
Si Si1 0.653539 0.543752 0.080786
Si Si2 0.586793 0.422319 0.458064
Si Si3 0.414952 0.142051 0.469975
Si Si4 0.088365 0.172971 0.110508
Si Si5 0.678537 0.024456 0.434826
Si Si6 0.411457 0.206614 0.814819
Si Si7 0.413349 0.716452 0.985860
Si Si8 0.414692 0.905822 0.400063
O O1 0.614868 0.472006 0.092219
O O2 0.622473 0.600553 0.123155
O O3 0.740936 0.536858 0.092109
O O4 0.634214 0.563211 0.015281
O O5 0.500000 0.433762 0.471753
O O6 0.600816 0.345326 0.442364
O O7 0.500000 0.135336 0.448767
O O8 0.366544 0.092407 0.432076
O O9 0.380861 0.215542 0.460217
O O10 0.408857 0.127359 0.537674
O O11 0.115960 0.223823 0.159255
O O12 0.000000 0.165323 0.109428
O O13 0.119244 0.199478 0.049067
O O14 0.685797 0.000000 0.500000
O O15 0.635312 0.970978 0.396363
O O16 0.379815 0.199578 0.750000
O O17 0.500000 0.206043 0.815642
O O18 0.382901 0.145642 0.853144
O O19 0.500000 0.730612 0.994936
O O20 0.500000 0.925556 0.386890
#
# Coordination Sequence:
#
# PCOD8255346 Si02
#       8
#    16  16  16  16  16  16  16  16
#     4  10  16  25  35  52  79 106 136 164 185 217
#     4   9  15  24  37  52  72 105 141 168 189 214
#     4   9  15  25  39  54  76 108 139 163 191 232
#     4   9  15  25  40  57  77 103 127 156 200 242
#     4  10  18  26  35  54  81 110 141 167 185 220
#     4   9  16  27  45  66  80  92 122 168 209 245
#     4   8  13  22  37  53  71  97 131 160 185 221
#     4   9  16  27  41  56  77 105 132 163 204 242
#
# _framework density 15.116902
#
# number of rings (size 3 to 8) (size 9 to 14) (size 15 to 20)
#    0.000    2.875    2.500    2.625    0.000    1.500 
#    0.000    3.750    0.000    0.750    0.000    0.000 
#    0.000    0.000    0.000    0.000    0.000   26.625 
#
# Total GULP energy -792995.548302 kJ/mol
# GULP energy per Si atom -12390.555442 kJ/mol
# Density = 1.508250 g / cm^3
# Si number density = 15.116902 Si / 1000 Ang^3
#
#
#
# Elastic Constant Matrix: (Units=GPa)
#
#
# Indices 1 2 3 4 5 6 
#
# 1 65.9291 51.5782 13.5985 0.0000 0.0000 0.0000
# 2 51.5782 161.0421 37.6593 0.0000 0.0000 0.0000
# 3 13.5985 37.6593 36.7109 0.0000 0.0000 0.0000
# 4 0.0000 0.0000 0.0000 13.5324 0.0000 0.0000
# 5 0.0000 0.0000 0.0000 0.0000 2.4413 0.0000
# 6 0.0000 0.0000 0.0000 0.0000 0.0000 4.9534
#
#
#
# Elastic Compliance Matrix: (Units=1/GPa)
#
#
# Indices 1 2 3 4 5 6 
#
# 1 0.020274 -0.006232 -0.001117 0.000000 0.000000 0.000000
# 2 -0.006232 0.010085 -0.008037 0.000000 0.000000 0.000000
# 3 -0.001117 -0.008037 0.035898 0.000000 0.000000 0.000000
# 4 0.000000 0.000000 0.000000 0.073896 0.000000 0.000000
# 5 0.000000 0.000000 0.000000 0.000000 0.409624 0.000000
# 6 0.000000 0.000000 0.000000 0.000000 0.000000 0.201881
#
#
# Mechanical properties :
#
#
# Convention : Reuss Voigt Hill
#
# Bulk Modulus (GPa) = 28.18076 52.15047 40.16561
# Shear Modulus (GPa) = 6.29518 14.90849 10.60184
#
# Velocity S-wave (km/s) = 2.04288 3.14381 2.65112
# Velocity P-wave (km/s) = 4.92411 6.91021 5.99991
#
# Compressibility (1/GPa) = 0.03548520
#
# Stress axis : x y z
#
# Youngs Moduli (GPa) = 49.32507 99.15717 27.85652
#
# Poissons Ratio (x) = 0.61795 0.03111
# Poissons Ratio (y) = 0.30740 0.22388
# Poissons Ratio (z) = 0.05508 0.79693
#
# Static dielectric constant tensor:
#      x y z
#    x 2.712040 0.000000 0.000000 
#    y 0.000000 3.467340 0.000000 
#    z 0.000000 0.000000 2.442080 
# 
# 
# High freq. dielectric constant tensor:
#      x y z
#    x 1.555110 0.000000 0.000000 
#    y 0.000000 1.606120 0.000000 
#    z 0.000000 0.000000 1.498790 
# 
# From -- ./inp_files/64095.got.cif
#   From: 2010.03.12/outbox.cif.g09.slc.cpg/sg63_33_cif.got.tgz:64095.got - 2010.04.10 19:34:48.
