data_PCOD8255745
_publ_section_title
;
Structure prediction by ZEFSAII (Michael W. Deem and Ramdas Pophale) SiO2 
 PCOD8255745
Probable space group: C M C M
;
_chemical_formula_sum "Si O2"
_cell_formula_units_Z 80
_cell_length_a 23.812685
_cell_length_b 26.298570
_cell_length_c 8.731073
_cell_angle_alpha 90.000000
_cell_angle_beta 90.000000
_cell_angle_gamma 90.000000
_cell_volume 5467.743343
_symmetry_space_group_name_H-M "C M C M"
_symmetry_group_IT_number 63
_symmetry_cell_setting 'orthorhombic'
loop_
_space_group_symop_operation_xyz
x,y,z
-x,-y,1/2+z
x,-y,-z
-x,y,1/2-z
-x,-y,-z
x,y,1/2-z
-x,y,z
x,-y,1/2+z
1/2+x,1/2+y,z
1/2-x,1/2-y,1/2+z
1/2+x,1/2-y,-z
1/2-x,1/2+y,1/2-z
1/2-x,1/2-y,-z
1/2+x,1/2+y,1/2-z
1/2-x,1/2+y,z
1/2+x,1/2-y,1/2+z
loop_
_atom_site_type_symbol
_atom_site_label
_atom_site_fract_x
_atom_site_fract_y
_atom_site_fract_z
Si Si1 0.679418 0.149586 0.572213
Si Si2 0.610442 0.946872 0.429273
Si Si3 0.888389 0.259509 0.929639
Si Si4 0.000000 0.600998 0.431292
Si Si5 0.000000 0.287622 0.429087
Si Si6 0.783799 0.205117 0.927252
O O1 0.667424 0.163090 0.750000
O O2 0.660880 0.092362 0.535513
O O3 0.643214 0.187898 0.469223
O O4 0.747256 0.154118 0.536644
O O5 0.599079 0.952746 0.250000
O O6 0.553896 0.928157 0.507568
O O7 0.630006 0.000000 0.500000
O O8 0.902757 0.259487 0.750000
O O9 0.849184 0.210513 0.979636
O O10 0.945673 0.254871 0.024490
O O11 0.000000 0.658974 0.484354
O O12 0.000000 0.599364 0.250000
O O13 0.000000 0.298853 0.250000
O O14 0.784871 0.216664 0.750000
O O15 0.750000 0.250000 0.000000
#
# Coordination Sequence:
#
# PCOD8255745 Si02
#       6
#    16  16  16   8   8  16
#     4   9  17  30  46  61  82 109 137 171 213 254
#     4  11  22  34  47  62  83 111 145 181 219 254
#     4  10  18  28  44  64  84 106 138 174 208 246
#     4  12  23  35  48  60  79 106 146 189 225 255
#     4  12  22  31  43  60  86 116 144 173 212 255
#     4   8  15  27  43  63  82 103 132 168 207 249
#
# _framework density 14.631265000000001
#
# number of rings (size 3 to 8) (size 9 to 14) (size 15 to 20)
#    0.000    2.000    2.000    3.300    0.000    1.600 
#    0.000    0.000    0.000    0.000    0.000    0.000 
#    0.000    0.000    0.000    0.900    0.000    8.400 
#
# Total GULP energy -495548.088932 kJ/mol
# GULP energy per Si atom -12388.702223 kJ/mol
# Density = 1.459796 g / cm^3
# Si number density = 14.631265 Si / 1000 Ang^3
#
#
#
# Elastic Constant Matrix: (Units=GPa)
#
#
# Indices 1 2 3 4 5 6 
#
# 1 114.2424 62.0813 34.5832 0.0000 0.0000 0.0000
# 2 62.0813 66.9394 29.2400 0.0000 0.0000 0.0000
# 3 34.5832 29.2400 64.5083 0.0000 0.0000 0.0000
# 4 0.0000 0.0000 0.0000 15.3173 0.0000 0.0000
# 5 0.0000 0.0000 0.0000 0.0000 16.4835 0.0000
# 6 0.0000 0.0000 0.0000 0.0000 0.0000 3.7800
#
#
#
# Elastic Compliance Matrix: (Units=1/GPa)
#
#
# Indices 1 2 3 4 5 6 
#
# 1 0.017989 -0.015550 -0.002596 0.000000 0.000000 0.000000
# 2 -0.015550 0.032068 -0.006199 0.000000 0.000000 0.000000
# 3 -0.002596 -0.006199 0.019703 0.000000 0.000000 0.000000
# 4 0.000000 0.000000 0.000000 0.065285 0.000000 0.000000
# 5 0.000000 0.000000 0.000000 0.000000 0.060667 0.000000
# 6 0.000000 0.000000 0.000000 0.000000 0.000000 0.264549
#
#
# Mechanical properties :
#
#
# Convention : Reuss Voigt Hill
#
# Bulk Modulus (GPa) = 47.45857 55.27766 51.36812
# Shear Modulus (GPa) = 9.69038 15.10188 12.39613
#
# Velocity S-wave (km/s) = 2.57632 3.21622 2.91389
# Velocity P-wave (km/s) = 6.43092 7.18711 6.81951
#
# Compressibility (1/GPa) = 0.02107101
#
# Stress axis : x y z
#
# Youngs Moduli (GPa) = 55.58931 31.18368 50.75241
#
# Poissons Ratio (x) = 0.48490 0.13174
# Poissons Ratio (y) = 0.86440 0.31463
# Poissons Ratio (z) = 0.14430 0.19332
#
# Static dielectric constant tensor:
#      x y z
#    x 3.368850 0.000000 0.000000 
#    y 0.000000 2.821740 0.000000 
#    z 0.000000 0.000000 2.869170 
# 
# 
# High freq. dielectric constant tensor:
#      x y z
#    x 1.559430 0.000000 0.000000 
#    y 0.000000 1.514010 0.000000 
#    z 0.000000 0.000000 1.575060 
# 
# From -- ./inp_files/8902.got.cif
#   From: 2010.03.12/outbox.cif.g09.slc.cpg/sg63_5_cif.got.tgz:8902.got - 2010.04.10 19:34:48.
