data_PCOD8255193
_publ_section_title
;
Structure prediction by ZEFSAII (Michael W. Deem and Ramdas Pophale) SiO2 
 PCOD8255193
Probable space group: P N M A
;
_chemical_formula_sum "Si O2"
_cell_formula_units_Z 48
_cell_length_a 14.027869
_cell_length_b 17.891282
_cell_length_c 9.057534
_cell_angle_alpha 90.000000
_cell_angle_beta 90.000000
_cell_angle_gamma 90.000000
_cell_volume 2273.228727
_symmetry_space_group_name_H-M "P N M A"
_symmetry_group_IT_number 62
_symmetry_cell_setting 'orthorhombic'
loop_
_space_group_symop_operation_xyz
x,y,z
1/2-x,-y,1/2+z
1/2+x,1/2-y,1/2-z
-x,1/2+y,-z
-x,-y,-z
1/2+x,y,1/2-z
1/2-x,1/2+y,1/2+z
x,1/2-y,z
loop_
_atom_site_type_symbol
_atom_site_label
_atom_site_fract_x
_atom_site_fract_y
_atom_site_fract_z
Si Si1 0.013384 0.250000 0.276764
Si Si2 0.801408 0.113935 0.889575
Si Si3 0.516482 0.250000 0.894315
Si Si4 0.652760 0.640766 0.714402
Si Si5 0.634462 0.001728 0.884878
Si Si6 0.710873 0.250000 0.374377
Si Si7 0.291402 0.750000 0.276123
Si Si8 0.053823 0.909806 0.346188
O O1 0.948843 0.323548 0.256655
O O2 0.060059 0.250000 0.440232
O O3 0.099042 0.250000 0.161634
O O4 0.727630 0.048294 0.924161
O O5 0.757063 0.175399 0.782700
O O6 0.893069 0.077444 0.809425
O O7 0.831193 0.153600 0.041169
O O8 0.598324 0.250000 0.771884
O O9 0.448259 0.178593 0.877535
O O10 0.651556 0.552731 0.746693
O O11 0.738811 0.677058 0.806774
O O12 0.552538 0.058907 0.836985
O O13 0.610976 0.951894 0.026418
O O14 0.718872 0.250000 0.549076
#
# Coordination Sequence:
#
# PCOD8255193 Si02
#       8
#     4   8   4   8   8   4   4   8
#     4  11  24  43  69  97 133 176 224 282 340 402
#     4  12  25  43  70  99 141 176 233 282 336 413
#     4  12  22  45  72  92 134 178 229 275 340 400
#     4  11  25  44  67 102 136 177 227 281 339 406
#     4  11  24  45  66 100 138 186 227 275 351 404
#     4  11  27  43  71  99 135 176 225 285 346 399
#     4  12  25  43  70 102 130 174 230 280 338 405
#     4  11  25  42  72  97 136 188 225 284 342 407
#
# _framework density 21.115341000000001
#
# number of rings (size 3 to 8) (size 9 to 14) (size 15 to 20)
#    0.000    0.667    3.333    4.500    4.667    2.000 
#    0.000    0.000    0.000    0.000    0.000    0.000 
#    0.000    0.000    0.000    0.000    0.000    0.000 
#
# Total GULP energy -595539.465739 kJ/mol
# GULP energy per Si atom -12407.072203 kJ/mol
# Density = 2.106728 g / cm^3
# Si number density = 21.115341 Si / 1000 Ang^3
#
#
#
# Elastic Constant Matrix: (Units=GPa)
#
#
# Indices 1 2 3 4 5 6 
#
# 1 89.6994 40.2537 59.0558 0.0000 0.0000 0.0000
# 2 40.2537 124.8988 36.3456 0.0000 0.0000 0.0000
# 3 59.0558 36.3456 163.3027 0.0000 0.0000 0.0000
# 4 0.0000 0.0000 0.0000 28.8824 0.0000 0.0000
# 5 0.0000 0.0000 0.0000 0.0000 38.2001 0.0000
# 6 0.0000 0.0000 0.0000 0.0000 0.0000 10.9685
#
#
#
# Elastic Compliance Matrix: (Units=1/GPa)
#
#
# Indices 1 2 3 4 5 6 
#
# 1 0.016116 -0.003740 -0.004996 0.000000 0.000000 0.000000
# 2 -0.003740 0.009429 -0.000746 0.000000 0.000000 0.000000
# 3 -0.004996 -0.000746 0.008096 0.000000 0.000000 0.000000
# 4 0.000000 0.000000 0.000000 0.034623 0.000000 0.000000
# 5 0.000000 0.000000 0.000000 0.000000 0.026178 0.000000
# 6 0.000000 0.000000 0.000000 0.000000 0.000000 0.091170
#
#
# Mechanical properties :
#
#
# Convention : Reuss Voigt Hill
#
# Bulk Modulus (GPa) = 68.13195 72.13459 70.13327
# Shear Modulus (GPa) = 23.87001 31.75993 27.81497
#
# Velocity S-wave (km/s) = 3.36588 3.88250 3.63338
# Velocity P-wave (km/s) = 6.88782 7.37121 7.13361
#
# Compressibility (1/GPa) = 0.01467740
#
# Stress axis : x y z
#
# Youngs Moduli (GPa) = 62.05100 106.05567 123.51496
#
# Poissons Ratio (x) = 0.39668 0.61703
# Poissons Ratio (y) = 0.23209 0.09214
# Poissons Ratio (z) = 0.30998 0.07911
#
# Static dielectric constant tensor:
#      x y z
#    x 3.822110 0.000000 0.000000 
#    y 0.000000 3.893900 0.000000 
#    z 0.000000 0.000000 3.817190 
# 
# 
# High freq. dielectric constant tensor:
#      x y z
#    x 1.833340 0.000000 0.000000 
#    y 0.000000 1.837920 0.000000 
#    z 0.000000 0.000000 1.833560 
# 
# From -- ./inp_files/6557.got.cif
#   From: 2010.03.12/outbox.cif.g09.slc.cpg/sg62_4_cif.got.tgz:6557.got - 2010.04.10 19:12:36.
