data_PCOD8255475
_publ_section_title
;
Structure prediction by ZEFSAII (Michael W. Deem and Ramdas Pophale) SiO2 
 PCOD8255475
Probable space group: C M C M
;
_chemical_formula_sum "Si O2"
_cell_formula_units_Z 80
_cell_length_a 26.356355
_cell_length_b 18.696331
_cell_length_c 8.611187
_cell_angle_alpha 90.000000
_cell_angle_beta 90.000000
_cell_angle_gamma 90.000000
_cell_volume 4243.309964
_symmetry_space_group_name_H-M "C M C M"
_symmetry_group_IT_number 63
_symmetry_cell_setting 'orthorhombic'
loop_
_space_group_symop_operation_xyz
x,y,z
-x,-y,1/2+z
x,-y,-z
-x,y,1/2-z
-x,-y,-z
x,y,1/2-z
-x,y,z
x,-y,1/2+z
1/2+x,1/2+y,z
1/2-x,1/2-y,1/2+z
1/2+x,1/2-y,-z
1/2-x,1/2+y,1/2-z
1/2-x,1/2-y,-z
1/2+x,1/2+y,1/2-z
1/2-x,1/2+y,z
1/2+x,1/2-y,1/2+z
loop_
_atom_site_type_symbol
_atom_site_label
_atom_site_fract_x
_atom_site_fract_y
_atom_site_fract_z
Si Si1 0.296864 0.578408 0.068481
Si Si2 0.906463 0.579466 0.434027
Si Si3 0.500000 0.672278 0.434808
Si Si4 0.908053 0.921617 0.568257
Si Si5 0.197002 0.579578 0.566548
Si Si6 0.000000 0.334554 0.434632
O O1 0.284845 0.575063 0.250000
O O2 0.352169 0.613015 0.033846
O O3 0.301268 0.500000 0.000000
O O4 0.249517 0.619578 0.984890
O O5 0.913062 0.500000 0.500000
O O6 0.908455 0.576028 0.250000
O O7 0.853155 0.614542 0.490835
O O8 0.950500 0.628556 0.498287
O O9 0.500000 0.672043 0.250000
O O10 0.450059 0.632227 0.500655
O O11 0.500000 0.753249 0.495162
O O12 0.915685 0.930678 0.750000
O O13 0.915714 0.000000 0.500000
O O14 0.201375 0.500000 0.500000
O O15 0.190963 0.579841 0.750000
O O16 0.000000 0.340615 0.250000
#
# Coordination Sequence:
#
# PCOD8255475 Si02
#       6
#    16  16   8  16  16   8
#     4   9  15  24  41  68 101 131 161 199 244 290
#     4  11  21  35  54  77 103 129 163 204 247 295
#     4   9  19  35  53  72  99 135 172 209 252 300
#     4   9  17  30  50  76 103 134 170 208 249 293
#     4  10  17  27  45  71 101 130 161 197 243 293
#     4  11  22  37  54  72  98 133 170 207 250 298
#
# _framework density 18.853207000000001
#
# number of rings (size 3 to 8) (size 9 to 14) (size 15 to 20)
#    0.000    2.200    0.000    7.500    0.000    0.800 
#    0.000    2.000    0.000    1.200    0.000    0.000 
#    0.000    0.000    0.000    0.000    0.000    0.000 
#
# Total GULP energy -495662.277966 kJ/mol
# GULP energy per Si atom -12391.556949 kJ/mol
# Density = 1.881030 g / cm^3
# Si number density = 18.853207 Si / 1000 Ang^3
#
#
#
# Elastic Constant Matrix: (Units=GPa)
#
#
# Indices 1 2 3 4 5 6 
#
# 1 217.0214 69.0653 62.6855 0.0000 0.0000 0.0000
# 2 69.0653 73.2770 31.0014 0.0000 0.0000 0.0000
# 3 62.6855 31.0014 117.1938 0.0000 0.0000 0.0000
# 4 0.0000 0.0000 0.0000 13.6703 0.0000 0.0000
# 5 0.0000 0.0000 0.0000 0.0000 39.1265 0.0000
# 6 0.0000 0.0000 0.0000 0.0000 0.0000 -17.4268
#
#
#
# Elastic Compliance Matrix: (Units=1/GPa)
#
#
# Indices 1 2 3 4 5 6 
#
# 1 0.007084 -0.005713 -0.002278 0.000000 0.000000 0.000000
# 2 -0.005713 0.019974 -0.002228 0.000000 0.000000 0.000000
# 3 -0.002278 -0.002228 0.010341 0.000000 0.000000 0.000000
# 4 0.000000 0.000000 0.000000 0.073151 0.000000 0.000000
# 5 0.000000 0.000000 0.000000 0.000000 0.025558 0.000000
# 6 0.000000 0.000000 0.000000 0.000000 0.000000 -0.057383
#
#
# Mechanical properties :
#
#
# Convention : Reuss Voigt Hill
#
# Bulk Modulus (GPa) = 58.95872 81.44407 70.20139
# Shear Modulus (GPa) = 47.70241 23.39000 35.54621
#
# Velocity S-wave (km/s) = 5.03557 3.52609 4.34685
# Velocity P-wave (km/s) = 8.07153 7.73761 7.90633
#
# Compressibility (1/GPa) = 0.01696102
#
# Stress axis : x y z
#
# Youngs Moduli (GPa) = 141.16490 50.06477 96.70611
#
# Poissons Ratio (x) = 0.28602 0.22028
# Poissons Ratio (y) = 0.80649 0.21545
# Poissons Ratio (z) = 0.32155 0.11154
#
# Static dielectric constant tensor:
#      x y z
#    x 4.328850 0.000000 0.000000 
#    y 0.000000 3.028940 0.000000 
#    z 0.000000 0.000000 3.332420 
# 
# 
# High freq. dielectric constant tensor:
#      x y z
#    x 1.771550 0.000000 0.000000 
#    y 0.000000 1.663740 0.000000 
#    z 0.000000 0.000000 1.736700 
# 
# From -- ./inp_files/14084.got.cif
#   From: 2010.03.12/outbox.cif.g09.slc.cpg/sg63_8_cif.got.tgz:14084.got - 2010.04.10 19:34:48.
