data_PCOD8255145
_publ_section_title
;
Structure prediction by ZEFSAII (Michael W. Deem and Ramdas Pophale) SiO2 
 PCOD8255145
Probable space group: P N M A
;
_chemical_formula_sum "Si O2"
_cell_formula_units_Z 40
_cell_length_a 12.142078
_cell_length_b 8.530530
_cell_length_c 18.525054
_cell_angle_alpha 90.000000
_cell_angle_beta 90.000000
_cell_angle_gamma 90.000000
_cell_volume 1918.794724
_symmetry_space_group_name_H-M "P N M A"
_symmetry_group_IT_number 62
_symmetry_cell_setting 'orthorhombic'
loop_
_space_group_symop_operation_xyz
x,y,z
1/2-x,-y,1/2+z
1/2+x,1/2-y,1/2-z
-x,1/2+y,-z
-x,-y,-z
1/2+x,y,1/2-z
1/2-x,1/2+y,1/2+z
x,1/2-y,z
loop_
_atom_site_type_symbol
_atom_site_label
_atom_site_fract_x
_atom_site_fract_y
_atom_site_fract_z
Si Si1 0.674734 0.569327 0.384647
Si Si2 0.952838 0.069132 0.156731
Si Si3 0.699000 0.069702 0.538589
Si Si4 0.608274 0.932297 0.818464
Si Si5 0.946563 0.066554 0.571872
O O1 0.647185 0.750000 0.371662
O O2 0.582636 0.466061 0.344818
O O3 0.675981 0.537279 0.469766
O O4 0.792077 0.531258 0.350400
O O5 0.932087 0.250000 0.138096
O O6 0.905159 0.026736 0.234808
O O7 0.893085 0.961624 0.098203
O O8 0.693276 0.250000 0.513859
O O9 0.817225 0.029373 0.572355
O O10 0.631719 0.750000 0.831609
O O11 0.496334 0.979761 0.858919
O O12 0.971586 0.250000 0.576834
O O13 0.000000 0.000000 0.500000
#
# Coordination Sequence:
#
# PCOD8255145 Si02
#       5
#     8   8   8   8   8
#     4  12  25  43  69  96 130 171 216 269 323 386
#     4  11  26  45  67  95 132 174 216 266 327 388
#     4  11  24  43  68  98 132 170 218 269 321 384
#     4  11  25  44  66  95 132 172 216 268 325 388
#     4  11  23  40  66  97 130 170 216 267 319 381
#
# _framework density 20.846418
#
# number of rings (size 3 to 8) (size 9 to 14) (size 15 to 20)
#    0.000    0.800    2.000    4.800    2.800    5.600 
#    0.000    0.000    0.000    0.000    0.000    0.000 
#    0.000    0.000    0.000    0.000    0.000    0.000 
#
# Total GULP energy -496366.227738 kJ/mol
# GULP energy per Si atom -12409.155693 kJ/mol
# Density = 2.079897 g / cm^3
# Si number density = 20.846418 Si / 1000 Ang^3
#
#
#
# Elastic Constant Matrix: (Units=GPa)
#
#
# Indices 1 2 3 4 5 6 
#
# 1 72.7744 25.3639 25.3342 0.0000 0.0000 0.0000
# 2 25.3639 60.1519 43.4365 0.0000 0.0000 0.0000
# 3 25.3342 43.4365 107.8470 0.0000 0.0000 0.0000
# 4 0.0000 0.0000 0.0000 32.3634 0.0000 0.0000
# 5 0.0000 0.0000 0.0000 0.0000 32.0161 0.0000
# 6 0.0000 0.0000 0.0000 0.0000 0.0000 29.9757
#
#
#
# Elastic Compliance Matrix: (Units=1/GPa)
#
#
# Indices 1 2 3 4 5 6 
#
# 1 0.016277 -0.005785 -0.001494 0.000000 0.000000 0.000000
# 2 -0.005785 0.025499 -0.008911 0.000000 0.000000 0.000000
# 3 -0.001494 -0.008911 0.013212 0.000000 0.000000 0.000000
# 4 0.000000 0.000000 0.000000 0.030899 0.000000 0.000000
# 5 0.000000 0.000000 0.000000 0.000000 0.031234 0.000000
# 6 0.000000 0.000000 0.000000 0.000000 0.000000 0.033360
#
#
# Mechanical properties :
#
#
# Convention : Reuss Voigt Hill
#
# Bulk Modulus (GPa) = 44.23017 47.67141 45.95079
# Shear Modulus (GPa) = 26.26089 28.64695 27.45392
#
# Velocity S-wave (km/s) = 3.55312 3.71103 3.63293
# Velocity P-wave (km/s) = 6.17220 6.42494 6.29984
#
# Compressibility (1/GPa) = 0.02260900
#
# Stress axis : x y z
#
# Youngs Moduli (GPa) = 61.43525 39.21796 75.68740
#
# Poissons Ratio (x) = 0.22687 0.11306
# Poissons Ratio (y) = 0.35540 0.67444
# Poissons Ratio (z) = 0.09177 0.34947
#
# Static dielectric constant tensor:
#      x y z
#    x 4.069580 0.000000 0.000000 
#    y 0.000000 3.805500 0.000000 
#    z 0.000000 0.000000 4.040400 
# 
# 
# High freq. dielectric constant tensor:
#      x y z
#    x 1.830580 0.000000 0.000000 
#    y 0.000000 1.828000 0.000000 
#    z 0.000000 0.000000 1.821360 
# 
# From -- ./inp_files/22761.got.cif
#   From: 2010.03.12/outbox.cif.g09.slc.cpg/sg62_12_cif.got.tgz:22761.got - 2010.04.10 19:12:36.
