data_PCOD8255219
_publ_section_title
;
Structure prediction by ZEFSAII (Michael W. Deem and Ramdas Pophale) SiO2 
 PCOD8255219
Probable space group: P N M A
;
_chemical_formula_sum "Si O2"
_cell_formula_units_Z 32
_cell_length_a 10.023006
_cell_length_b 22.025829
_cell_length_c 5.450247
_cell_angle_alpha 90.000000
_cell_angle_beta 90.000000
_cell_angle_gamma 90.000000
_cell_volume 1203.223867
_symmetry_space_group_name_H-M "P N M A"
_symmetry_group_IT_number 62
_symmetry_cell_setting 'orthorhombic'
loop_
_space_group_symop_operation_xyz
x,y,z
1/2-x,-y,1/2+z
1/2+x,1/2-y,1/2-z
-x,1/2+y,-z
-x,-y,-z
1/2+x,y,1/2-z
1/2-x,1/2+y,1/2+z
x,1/2-y,z
loop_
_atom_site_type_symbol
_atom_site_label
_atom_site_fract_x
_atom_site_fract_y
_atom_site_fract_z
Si Si1 0.245783 0.848522 0.411345
Si Si2 0.617961 0.250000 0.328783
Si Si3 0.958593 0.250000 0.675126
Si Si4 0.609940 0.945807 0.795530
Si Si5 0.350938 0.576800 0.023869
O O1 0.296579 0.812802 0.659004
O O2 0.132092 0.808683 0.285808
O O3 0.186749 0.914136 0.479302
O O4 0.358102 0.864041 0.203042
O O5 0.563383 0.250000 0.607666
O O6 0.521405 0.250000 0.099536
O O7 0.695631 0.930099 0.554339
O O8 0.457677 0.917800 0.796375
O O9 0.601999 0.017888 0.824168
#
# Coordination Sequence:
#
# PCOD8255219 Si02
#       5
#     8   4   4   8   8
#     4  11  26  46  75 107 153 204 265 325 405 473
#     4  11  28  49  74 109 150 204 264 325 397 461
#     4  11  28  49  76 107 152 204 266 327 389 471
#     4  11  25  44  73 110 160 203 272 323 409 480
#     4  11  25  46  71 116 156 216 255 338 395 494
#
# _framework density 26.595217000000002
#
# number of rings (size 3 to 8) (size 9 to 14) (size 15 to 20)
#    0.000    1.000    2.500    1.500   10.500    5.000 
#    0.000    0.000    0.000    0.000    0.000    0.000 
#    0.000    0.000    0.000    0.000    0.000    0.000 
#
# Total GULP energy -396558.531889 kJ/mol
# GULP energy per Si atom -12392.454122 kJ/mol
# Density = 2.653468 g / cm^3
# Si number density = 26.595217 Si / 1000 Ang^3
#
#
#
# Elastic Constant Matrix: (Units=GPa)
#
#
# Indices 1 2 3 4 5 6 
#
# 1 115.2415 35.4837 24.5625 0.0000 0.0000 0.0000
# 2 35.4837 90.7984 24.9889 0.0000 0.0000 0.0000
# 3 24.5625 24.9889 81.8969 0.0000 0.0000 0.0000
# 4 0.0000 0.0000 0.0000 30.0503 0.0000 0.0000
# 5 0.0000 0.0000 0.0000 0.0000 50.9579 0.0000
# 6 0.0000 0.0000 0.0000 0.0000 0.0000 29.7413
#
#
#
# Elastic Compliance Matrix: (Units=1/GPa)
#
#
# Indices 1 2 3 4 5 6 
#
# 1 0.010157 -0.003418 -0.002003 0.000000 0.000000 0.000000
# 2 -0.003418 0.013173 -0.002994 0.000000 0.000000 0.000000
# 3 -0.002003 -0.002994 0.013725 0.000000 0.000000 0.000000
# 4 0.000000 0.000000 0.000000 0.033278 0.000000 0.000000
# 5 0.000000 0.000000 0.000000 0.000000 0.019624 0.000000
# 6 0.000000 0.000000 0.000000 0.000000 0.000000 0.033623
#
#
# Mechanical properties :
#
#
# Convention : Reuss Voigt Hill
#
# Bulk Modulus (GPa) = 49.44683 50.88965 50.16824
# Shear Modulus (GPa) = 33.97839 35.67669 34.82754
#
# Velocity S-wave (km/s) = 3.57825 3.66658 3.62268
# Velocity P-wave (km/s) = 5.97533 6.09110 6.03349
#
# Compressibility (1/GPa) = 0.02022374
#
# Stress axis : x y z
#
# Youngs Moduli (GPa) = 98.45604 75.91158 72.85984
#
# Poissons Ratio (x) = 0.25946 0.14596
# Poissons Ratio (y) = 0.33651 0.21817
# Poissons Ratio (z) = 0.19724 0.22731
#
# Static dielectric constant tensor:
#      x y z
#    x 5.077330 0.000000 0.000000 
#    y 0.000000 5.044180 0.000000 
#    z 0.000000 0.000000 4.160930 
# 
# 
# High freq. dielectric constant tensor:
#      x y z
#    x 2.070850 0.000000 0.000000 
#    y 0.000000 2.091590 0.000000 
#    z 0.000000 0.000000 2.040940 
# 
# From -- ./inp_files/540.got.cif
#   From: 2010.03.12/outbox.cif.g09.slc.cpg/sg62_1_cif.got.tgz:540.got - 2010.04.10 19:12:36.
