data_PCOD8255284
_publ_section_title
;
Structure prediction by ZEFSAII (Michael W. Deem and Ramdas Pophale) SiO2 
 PCOD8255284
Probable space group: P N M A
;
_chemical_formula_sum "Si O2"
_cell_formula_units_Z 64
_cell_length_a 17.343574
_cell_length_b 19.799589
_cell_length_c 11.148032
_cell_angle_alpha 90.000000
_cell_angle_beta 90.000000
_cell_angle_gamma 90.000000
_cell_volume 3828.185550
_symmetry_space_group_name_H-M "P N M A"
_symmetry_group_IT_number 62
_symmetry_cell_setting 'orthorhombic'
loop_
_space_group_symop_operation_xyz
x,y,z
1/2-x,-y,1/2+z
1/2+x,1/2-y,1/2-z
-x,1/2+y,-z
-x,-y,-z
1/2+x,y,1/2-z
1/2-x,1/2+y,1/2+z
x,1/2-y,z
loop_
_atom_site_type_symbol
_atom_site_label
_atom_site_fract_x
_atom_site_fract_y
_atom_site_fract_z
Si Si1 0.123350 0.421864 0.958330
Si Si2 0.420367 0.171170 0.892038
Si Si3 0.825755 0.174645 0.251074
Si Si4 0.459210 0.565774 0.697171
Si Si5 0.961702 0.415090 0.829473
Si Si6 0.739268 0.829675 0.001537
Si Si7 0.493981 0.174694 0.133896
Si Si8 0.621502 0.572671 0.570218
O O1 0.156301 0.497037 0.932558
O O2 0.048745 0.407410 0.877316
O O3 0.102508 0.414047 0.097663
O O4 0.189790 0.367480 0.934581
O O5 0.413456 0.250000 0.873488
O O6 0.448918 0.141340 0.768216
O O7 0.336586 0.143541 0.929924
O O8 0.483095 0.154700 0.994962
O O9 0.804338 0.250000 0.205479
O O10 0.768703 0.152754 0.359416
O O11 0.911593 0.175810 0.302603
O O12 0.819094 0.123359 0.137598
O O13 0.447463 0.487691 0.733914
O O14 0.450259 0.618035 0.807748
O O15 0.543731 0.571495 0.644337
O O16 0.899530 0.403394 0.935757
O O17 0.751085 0.750000 0.018009
O O18 0.530949 0.250000 0.146285
#
# Coordination Sequence:
#
# PCOD8255284 Si02
#       8
#     8   8   8   8   8   8   8   8
#     4   9  17  30  46  69  96 121 151 195 244 282
#     4   9  18  31  45  65  93 125 162 194 224 277
#     4   8  14  27  47  66  85 114 151 191 230 267
#     4   8  15  28  46  67  93 117 144 190 238 271
#     4   9  17  29  47  68  97 128 152 190 234 282
#     4   9  18  32  47  65  91 120 156 203 240 272
#     4   8  14  26  45  66  88 116 151 190 225 264
#     4   8  15  29  45  68  95 115 144 189 234 279
#
# _framework density 16.718104
#
# number of rings (size 3 to 8) (size 9 to 14) (size 15 to 20)
#    0.000    3.500    0.000    3.000    0.000    2.000 
#    4.500    2.500    0.000    1.500    0.000    0.000 
#    0.000    0.000    0.000    0.000    0.000    0.000 
#
# Total GULP energy -793047.935044 kJ/mol
# GULP energy per Si atom -12391.373985 kJ/mol
# Density = 1.668005 g / cm^3
# Si number density = 16.718104 Si / 1000 Ang^3
#
#
#
# Elastic Constant Matrix: (Units=GPa)
#
#
# Indices 1 2 3 4 5 6 
#
# 1 41.8258 35.7323 27.1390 0.0000 0.0000 0.0000
# 2 35.7323 68.0641 56.2347 0.0000 0.0000 0.0000
# 3 27.1390 56.2347 94.3772 0.0000 0.0000 0.0000
# 4 0.0000 0.0000 0.0000 33.3557 0.0000 0.0000
# 5 0.0000 0.0000 0.0000 0.0000 13.5897 0.0000
# 6 0.0000 0.0000 0.0000 0.0000 0.0000 23.9596
#
#
#
# Elastic Compliance Matrix: (Units=1/GPa)
#
#
# Indices 1 2 3 4 5 6 
#
# 1 0.043576 -0.024667 0.002167 0.000000 0.000000 0.000000
# 2 -0.024667 0.042901 -0.018470 0.000000 0.000000 0.000000
# 3 0.002167 -0.018470 0.020978 0.000000 0.000000 0.000000
# 4 0.000000 0.000000 0.000000 0.029980 0.000000 0.000000
# 5 0.000000 0.000000 0.000000 0.000000 0.073585 0.000000
# 6 0.000000 0.000000 0.000000 0.000000 0.000000 0.041737
#
#
# Mechanical properties :
#
#
# Convention : Reuss Voigt Hill
#
# Bulk Modulus (GPa) = 39.19087 49.16432 44.17760
# Shear Modulus (GPa) = 14.56874 19.85841 17.21358
#
# Velocity S-wave (km/s) = 2.95521 3.45024 3.21228
# Velocity P-wave (km/s) = 5.92768 6.73379 6.34355
#
# Compressibility (1/GPa) = 0.02551615
#
# Stress axis : x y z
#
# Youngs Moduli (GPa) = 22.94853 23.30931 47.66970
#
# Poissons Ratio (x) = 0.57497 -0.10331
# Poissons Ratio (y) = 0.56607 0.88044
# Poissons Ratio (z) = -0.04973 0.43051
#
# Static dielectric constant tensor:
#      x y z
#    x 2.820000 0.000000 0.000000 
#    y 0.000000 3.433990 0.000000 
#    z 0.000000 0.000000 3.209960 
# 
# 
# High freq. dielectric constant tensor:
#      x y z
#    x 1.604880 0.000000 0.000000 
#    y 0.000000 1.647830 0.000000 
#    z 0.000000 0.000000 1.632360 
# 
# From -- ./inp_files/14466.got.cif
#   From: 2010.03.12/outbox.cif.g09.slc.cpg/sg62_8_cif.got.tgz:14466.got - 2010.04.10 19:12:36.
