data_PCOD8255888
_publ_section_title
;
Structure prediction by ZEFSAII (Michael W. Deem and Ramdas Pophale) SiO2 
 PCOD8255888
Probable space group: C M C M
;
_chemical_formula_sum "Si O2"
_cell_formula_units_Z 96
_cell_length_a 8.951894
_cell_length_b 29.816284
_cell_length_c 20.715026
_cell_angle_alpha 90.000000
_cell_angle_beta 90.000000
_cell_angle_gamma 90.000000
_cell_volume 5529.093449
_symmetry_space_group_name_H-M "C M C M"
_symmetry_group_IT_number 63
_symmetry_cell_setting 'orthorhombic'
loop_
_space_group_symop_operation_xyz
x,y,z
-x,-y,1/2+z
x,-y,-z
-x,y,1/2-z
-x,-y,-z
x,y,1/2-z
-x,y,z
x,-y,1/2+z
1/2+x,1/2+y,z
1/2-x,1/2-y,1/2+z
1/2+x,1/2-y,-z
1/2-x,1/2+y,1/2-z
1/2-x,1/2-y,-z
1/2+x,1/2+y,1/2-z
1/2-x,1/2+y,z
1/2+x,1/2-y,1/2+z
loop_
_atom_site_type_symbol
_atom_site_label
_atom_site_fract_x
_atom_site_fract_y
_atom_site_fract_z
Si Si1 0.327130 0.444287 0.678527
Si Si2 0.175342 0.637399 0.486663
Si Si3 0.824191 0.215399 0.950311
Si Si4 0.169552 0.261014 0.819677
Si Si5 0.327812 0.344365 0.641339
Si Si6 0.323424 0.038470 0.452166
O O1 0.274132 0.461089 0.750000
O O2 0.500000 0.455620 0.668619
O O3 0.299116 0.391061 0.677353
O O4 0.240027 0.468548 0.620187
O O5 0.260293 0.664885 0.542334
O O6 0.220665 0.660954 0.420184
O O7 0.228651 0.585581 0.483561
O O8 0.000000 0.641243 0.498265
O O9 0.781342 0.228131 0.877089
O O10 0.000000 0.215507 0.962952
O O11 0.750000 0.250000 0.000000
O O12 0.181910 0.236050 0.750000
O O13 0.279237 0.303656 0.813403
O O14 0.000000 0.277625 0.831555
O O15 0.500000 0.339951 0.620134
O O16 0.500000 0.036528 0.445503
O O17 0.262876 0.000000 0.500000
#
# Coordination Sequence:
#
# PCOD8255888 Si02
#       6
#    16  16  16  16  16  16
#     4   9  18  31  47  72 105 134 161 199 249 306
#     4  10  19  32  51  74 100 130 166 208 252 299
#     4  11  21  33  51  73 100 133 171 209 246 292
#     4  10  21  34  47  66  96 133 170 208 249 293
#     4  10  18  29  47  71 100 132 164 199 243 297
#     4   9  19  35  54  76 101 130 168 212 256 303
#
# _framework density 17.362701999999999
#
# number of rings (size 3 to 8) (size 9 to 14) (size 15 to 20)
#    0.000    2.167    1.667    2.000    0.000    3.667 
#    0.000    0.000    0.000    1.000    0.000    4.667 
#    0.000    0.000    0.000    0.000    0.000    0.000 
#
# Total GULP energy -594995.641783 kJ/mol
# GULP energy per Si atom -12395.742537 kJ/mol
# Density = 1.732318 g / cm^3
# Si number density = 17.362702 Si / 1000 Ang^3
#
#
#
# Elastic Constant Matrix: (Units=GPa)
#
#
# Indices 1 2 3 4 5 6 
#
# 1 54.4889 30.6326 40.4580 0.0000 0.0000 0.0000
# 2 30.6326 76.9617 64.6764 0.0000 0.0000 0.0000
# 3 40.4580 64.6764 146.5947 0.0000 0.0000 0.0000
# 4 0.0000 0.0000 0.0000 23.1402 0.0000 0.0000
# 5 0.0000 0.0000 0.0000 0.0000 23.7006 0.0000
# 6 0.0000 0.0000 0.0000 0.0000 0.0000 23.1769
#
#
#
# Elastic Compliance Matrix: (Units=1/GPa)
#
#
# Indices 1 2 3 4 5 6 
#
# 1 0.025032 -0.006607 -0.003993 0.000000 0.000000 0.000000
# 2 -0.006607 0.022394 -0.008056 0.000000 0.000000 0.000000
# 3 -0.003993 -0.008056 0.011478 0.000000 0.000000 0.000000
# 4 0.000000 0.000000 0.000000 0.043215 0.000000 0.000000
# 5 0.000000 0.000000 0.000000 0.000000 0.042193 0.000000
# 6 0.000000 0.000000 0.000000 0.000000 0.000000 0.043146
#
#
# Mechanical properties :
#
#
# Convention : Reuss Voigt Hill
#
# Bulk Modulus (GPa) = 46.31888 61.06439 53.69163
# Shear Modulus (GPa) = 21.55459 23.48873 22.52166
#
# Velocity S-wave (km/s) = 3.52722 3.68207 3.60547
# Velocity P-wave (km/s) = 6.58206 7.30226 6.95149
#
# Compressibility (1/GPa) = 0.02158947
#
# Stress axis : x y z
#
# Youngs Moduli (GPa) = 39.94883 44.65527 87.12287
#
# Poissons Ratio (x) = 0.29506 0.34791
# Poissons Ratio (y) = 0.26396 0.70190
# Poissons Ratio (z) = 0.15953 0.35976
#
# Static dielectric constant tensor:
#      x y z
#    x 3.219000 0.000000 0.000000 
#    y 0.000000 3.159210 0.000000 
#    z 0.000000 0.000000 3.391080 
# 
# 
# High freq. dielectric constant tensor:
#      x y z
#    x 1.674380 0.000000 0.000000 
#    y 0.000000 1.637710 0.000000 
#    z 0.000000 0.000000 1.670330 
# 
# From -- ./inp_files/51400.got.cif
#   From: 2010.03.12/outbox.cif.g09.slc.cpg/sg63_26_cif.got.tgz:51400.got - 2010.04.10 19:34:48.
