data_PCOD8255046
_publ_section_title
;
Structure prediction by ZEFSAII (Michael W. Deem and Ramdas Pophale) SiO2 
 PCOD8255046
Probable space group: P N M A
;
_chemical_formula_sum "Si O2"
_cell_formula_units_Z 32
_cell_length_a 15.318458
_cell_length_b 10.420595
_cell_length_c 9.277530
_cell_angle_alpha 90.000000
_cell_angle_beta 90.000000
_cell_angle_gamma 90.000000
_cell_volume 1480.948427
_symmetry_space_group_name_H-M "P N M A"
_symmetry_group_IT_number 62
_symmetry_cell_setting 'orthorhombic'
loop_
_space_group_symop_operation_xyz
x,y,z
1/2-x,-y,1/2+z
1/2+x,1/2-y,1/2-z
-x,1/2+y,-z
-x,-y,-z
1/2+x,y,1/2-z
1/2-x,1/2+y,1/2+z
x,1/2-y,z
loop_
_atom_site_type_symbol
_atom_site_label
_atom_site_fract_x
_atom_site_fract_y
_atom_site_fract_z
Si Si1 0.969461 0.750000 0.306171
Si Si2 0.781856 0.476648 0.023888
Si Si3 0.931648 0.250000 0.416313
Si Si4 0.243266 0.250000 0.941609
Si Si5 0.655071 0.750000 0.341428
Si Si6 0.864793 0.000276 0.313296
O O1 0.916326 0.875521 0.257635
O O2 0.985337 0.750000 0.477873
O O3 0.062697 0.750000 0.232653
O O4 0.842359 0.377460 0.939363
O O5 0.682029 0.465649 0.966142
O O6 0.810224 0.626080 0.002931
O O7 0.791087 0.454432 0.196423
O O8 0.839411 0.250000 0.494832
O O9 0.934403 0.382874 0.326090
O O10 0.261391 0.250000 0.767284
#
# Coordination Sequence:
#
# PCOD8255046 Si02
#       6
#     4   8   4   4   4   8
#     4  11  24  42  64  91 139 175 202 266 346 379
#     4  11  21  40  69  95 125 171 225 268 322 377
#     4   9  21  38  60  91 129 163 220 258 313 395
#     4   9  19  38  59  95 125 164 213 272 317 364
#     4  11  22  40  63  95 135 170 209 276 322 390
#     4  11  22  40  68  96 125 172 218 270 321 386
#
# _framework density 21.607776000000001
#
# number of rings (size 3 to 8) (size 9 to 14) (size 15 to 20)
#    0.000    1.500    2.500    3.000    0.000    1.000 
#    0.000    1.250    0.000    0.000    0.000    0.000 
#    0.000    0.000    0.000    0.000    0.000    0.000 
#
# Total GULP energy -396445.629131 kJ/mol
# GULP energy per Si atom -12388.925910 kJ/mol
# Density = 2.155860 g / cm^3
# Si number density = 21.607776 Si / 1000 Ang^3
#
#
#
# Elastic Constant Matrix: (Units=GPa)
#
#
# Indices 1 2 3 4 5 6 
#
# 1 69.1524 43.1181 34.2909 0.0000 0.0000 0.0000
# 2 43.1181 185.9853 59.5798 0.0000 0.0000 0.0000
# 3 34.2909 59.5798 86.6438 0.0000 0.0000 0.0000
# 4 0.0000 0.0000 0.0000 10.3686 0.0000 0.0000
# 5 0.0000 0.0000 0.0000 0.0000 35.1325 0.0000
# 6 0.0000 0.0000 0.0000 0.0000 0.0000 15.5344
#
#
#
# Elastic Compliance Matrix: (Units=1/GPa)
#
#
# Indices 1 2 3 4 5 6 
#
# 1 0.018886 -0.002545 -0.005725 0.000000 0.000000 0.000000
# 2 -0.002545 0.007239 -0.003971 0.000000 0.000000 0.000000
# 3 -0.005725 -0.003971 0.016538 0.000000 0.000000 0.000000
# 4 0.000000 0.000000 0.000000 0.096445 0.000000 0.000000
# 5 0.000000 0.000000 0.000000 0.000000 0.028464 0.000000
# 6 0.000000 0.000000 0.000000 0.000000 0.000000 0.064373
#
#
# Mechanical properties :
#
#
# Convention : Reuss Voigt Hill
#
# Bulk Modulus (GPa) = 54.99789 68.41769 61.70779
# Shear Modulus (GPa) = 19.04874 25.85995 22.45435
#
# Velocity S-wave (km/s) = 2.97234 3.46322 3.22713
# Velocity P-wave (km/s) = 6.10638 6.90826 6.51966
#
# Compressibility (1/GPa) = 0.01818251
#
# Stress axis : x y z
#
# Youngs Moduli (GPa) = 52.94873 138.14756 60.46862
#
# Poissons Ratio (x) = 0.35153 0.34617
# Poissons Ratio (y) = 0.13473 0.24009
# Poissons Ratio (z) = 0.30312 0.54852
#
# Static dielectric constant tensor:
#      x y z
#    x 3.485070 0.000000 0.000000 
#    y 0.000000 4.413840 0.000000 
#    z 0.000000 0.000000 4.015860 
# 
# 
# High freq. dielectric constant tensor:
#      x y z
#    x 1.806060 0.000000 0.000000 
#    y 0.000000 1.875670 0.000000 
#    z 0.000000 0.000000 1.838320 
# 
# From -- ./inp_files/5816.got.cif
#   From: 2010.03.12/outbox.cif.g09.slc.cpg/sg62_3_cif.got.tgz:5816.got - 2010.04.10 19:12:36.
