data_PCOD8255555
_publ_section_title
;
Structure prediction by ZEFSAII (Michael W. Deem and Ramdas Pophale) SiO2 
 PCOD8255555
Probable space group: C M C M
;
_chemical_formula_sum "Si O2"
_cell_formula_units_Z 112
_cell_length_a 28.477941
_cell_length_b 10.185787
_cell_length_c 24.261356
_cell_angle_alpha 90.000000
_cell_angle_beta 90.000000
_cell_angle_gamma 90.000000
_cell_volume 7037.497387
_symmetry_space_group_name_H-M "C M C M"
_symmetry_group_IT_number 63
_symmetry_cell_setting 'orthorhombic'
loop_
_space_group_symop_operation_xyz
x,y,z
-x,-y,1/2+z
x,-y,-z
-x,y,1/2-z
-x,-y,-z
x,y,1/2-z
-x,y,z
x,-y,1/2+z
1/2+x,1/2+y,z
1/2-x,1/2-y,1/2+z
1/2+x,1/2-y,-z
1/2-x,1/2+y,1/2-z
1/2-x,1/2-y,-z
1/2+x,1/2+y,1/2-z
1/2-x,1/2+y,z
1/2+x,1/2-y,1/2+z
loop_
_atom_site_type_symbol
_atom_site_label
_atom_site_fract_x
_atom_site_fract_y
_atom_site_fract_z
Si Si1 0.206473 0.719784 0.250000
Si Si2 0.803418 0.122223 0.036777
Si Si3 0.051274 0.719508 0.311507
Si Si4 0.647529 0.473484 0.641577
Si Si5 0.306476 0.872762 0.966664
Si Si6 0.353183 0.220797 0.140557
Si Si7 0.551386 0.530583 0.311548
Si Si8 0.792368 0.020702 0.250000
O O1 0.175384 0.693629 0.303815
O O2 0.225515 0.869673 0.250000
O O3 0.248859 0.618351 0.250000
O O4 0.748181 0.122981 0.048496
O O5 0.829903 0.116537 0.094742
O O6 0.819627 0.251679 0.005393
O O7 0.818639 0.000000 0.000000
O O8 0.057151 0.660665 0.250000
O O9 0.093298 0.670706 0.350624
O O10 0.055033 0.875068 0.306932
O O11 0.000000 0.678149 0.335571
O O12 0.649497 0.626069 0.624206
O O13 0.593983 0.421699 0.649654
O O14 0.675887 0.450452 0.697323
O O15 0.333441 0.866303 0.908968
O O16 0.322746 0.000000 0.000000
O O17 0.556994 0.589578 0.250000
O O18 0.500000 0.571807 0.335740
#
# Coordination Sequence:
#
# PCOD8255555 Si02
#       8
#     8  16  16  16  16  16  16   8
#     4  10  20  32  47  71 103 131 154 194 249 292
#     4  10  19  34  50  68  92 130 166 204 234 279
#     4   8  13  23  43  71  98 122 154 195 240 289
#     4  10  17  29  50  70  98 128 162 196 245 292
#     4  10  21  34  50  68  94 128 175 204 234 278
#     4  10  17  30  49  71  98 128 158 200 244 288
#     4   8  13  23  42  70 100 125 153 191 239 295
#     4  10  20  32  45  71 103 133 156 194 245 296
#
# _framework density 15.914747999999999
#
# number of rings (size 3 to 8) (size 9 to 14) (size 15 to 20)
#    0.000    2.571    2.857    1.714    0.000    0.000 
#    2.571    0.000    0.000    1.714    0.000    0.000 
#    0.000    3.429    0.000    0.000    0.000    0.000 
#
# Total GULP energy -694132.071164 kJ/mol
# GULP energy per Si atom -12395.215556 kJ/mol
# Density = 1.587853 g / cm^3
# Si number density = 15.914748 Si / 1000 Ang^3
#
#
#
# Elastic Constant Matrix: (Units=GPa)
#
#
# Indices 1 2 3 4 5 6 
#
# 1 115.0627 42.3363 65.5348 0.0000 0.0000 0.0000
# 2 42.3363 65.4314 43.8447 0.0000 0.0000 0.0000
# 3 65.5348 43.8447 120.2610 0.0000 0.0000 0.0000
# 4 0.0000 0.0000 0.0000 20.8829 0.0000 0.0000
# 5 0.0000 0.0000 0.0000 0.0000 11.0711 0.0000
# 6 0.0000 0.0000 0.0000 0.0000 0.0000 11.7811
#
#
#
# Elastic Compliance Matrix: (Units=1/GPa)
#
#
# Indices 1 2 3 4 5 6 
#
# 1 0.013799 -0.005147 -0.005643 0.000000 0.000000 0.000000
# 2 -0.005147 0.022144 -0.005268 0.000000 0.000000 0.000000
# 3 -0.005643 -0.005268 0.013311 0.000000 0.000000 0.000000
# 4 0.000000 0.000000 0.000000 0.047886 0.000000 0.000000
# 5 0.000000 0.000000 0.000000 0.000000 0.090325 0.000000
# 6 0.000000 0.000000 0.000000 0.000000 0.000000 0.084881
#
#
# Mechanical properties :
#
#
# Convention : Reuss Voigt Hill
#
# Bulk Modulus (GPa) = 58.35367 67.13185 62.74276
# Shear Modulus (GPa) = 16.11994 18.68298 17.40146
#
# Velocity S-wave (km/s) = 3.18605 3.43000 3.31027
# Velocity P-wave (km/s) = 7.09088 7.61316 7.35666
#
# Compressibility (1/GPa) = 0.01713688
#
# Stress axis : x y z
#
# Youngs Moduli (GPa) = 72.47077 45.15966 75.12554
#
# Poissons Ratio (x) = 0.23243 0.42393
# Poissons Ratio (y) = 0.37300 0.39579
# Poissons Ratio (z) = 0.40895 0.23792
#
# Static dielectric constant tensor:
#      x y z
#    x 3.265210 0.000000 0.000000 
#    y 0.000000 2.729130 0.000000 
#    z 0.000000 0.000000 2.955890 
# 
# 
# High freq. dielectric constant tensor:
#      x y z
#    x 1.614320 0.000000 0.000000 
#    y 0.000000 1.570160 0.000000 
#    z 0.000000 0.000000 1.606110 
# 
# From -- ./inp_files/65127.got.cif
#   From: 2010.03.12/outbox.cif.g09.slc.cpg/sg63_33_cif.got.tgz:65127.got - 2010.04.10 19:34:48.
