data_PCOD8255695
_publ_section_title
;
Structure prediction by ZEFSAII (Michael W. Deem and Ramdas Pophale) SiO2 
 PCOD8255695
Probable space group: C M C M
;
_chemical_formula_sum "Si O2"
_cell_formula_units_Z 80
_cell_length_a 8.983561
_cell_length_b 21.002638
_cell_length_c 24.730506
_cell_angle_alpha 90.000000
_cell_angle_beta 90.000000
_cell_angle_gamma 90.000000
_cell_volume 4666.114273
_symmetry_space_group_name_H-M "C M C M"
_symmetry_group_IT_number 63
_symmetry_cell_setting 'orthorhombic'
loop_
_space_group_symop_operation_xyz
x,y,z
-x,-y,1/2+z
x,-y,-z
-x,y,1/2-z
-x,-y,-z
x,y,1/2-z
-x,y,z
x,-y,1/2+z
1/2+x,1/2+y,z
1/2-x,1/2-y,1/2+z
1/2+x,1/2-y,-z
1/2-x,1/2+y,1/2-z
1/2-x,1/2-y,-z
1/2+x,1/2+y,1/2-z
1/2-x,1/2+y,z
1/2+x,1/2-y,1/2+z
loop_
_atom_site_type_symbol
_atom_site_label
_atom_site_fract_x
_atom_site_fract_y
_atom_site_fract_z
Si Si1 0.824024 0.565292 0.977139
Si Si2 0.177417 0.381026 0.364769
Si Si3 0.165869 0.240182 0.250000
Si Si4 0.327787 0.247973 0.356724
Si Si5 0.663358 0.108063 0.750000
Si Si6 0.171710 0.307134 0.969697
O O1 0.781686 0.571901 0.913734
O O2 0.000000 0.562874 0.984662
O O3 0.752315 0.500000 0.000000
O O4 0.760100 0.625397 0.010661
O O5 0.251640 0.313228 0.375965
O O6 0.239687 0.411137 0.307490
O O7 0.000000 0.369878 0.359959
O O8 0.252258 0.217297 0.303678
O O9 0.157604 0.315859 0.250000
O O10 0.000000 0.210673 0.250000
O O11 0.500000 0.261647 0.344114
O O12 0.307594 0.197567 0.405171
O O13 0.500000 0.077317 0.750000
O O14 0.000000 0.303303 0.986573
O O15 0.250000 0.250000 0.000000
#
# Coordination Sequence:
#
# PCOD8255695 Si02
#       6
#    16  16   8  16   8  16
#     4   9  17  29  46  67  93 128 166 204 242 282
#     4   9  15  26  44  64  90 121 157 198 237 287
#     4   9  17  29  45  66  93 125 157 191 235 288
#     4  10  18  27  43  69  98 123 152 196 244 287
#     4   7  12  21  37  62  83 105 141 187 231 266
#     4  10  19  30  47  70  96 127 161 198 241 287
#
# _framework density 17.144886
#
# number of rings (size 3 to 8) (size 9 to 14) (size 15 to 20)
#    0.000    2.800    2.000    2.100    0.000    0.800 
#    0.000    0.000    0.000    3.600    0.000    7.000 
#    0.000    0.000    0.000    0.000    0.000    0.000 
#
# Total GULP energy -495620.671899 kJ/mol
# GULP energy per Si atom -12390.516797 kJ/mol
# Density = 1.710586 g / cm^3
# Si number density = 17.144886 Si / 1000 Ang^3
#
#
#
# Elastic Constant Matrix: (Units=GPa)
#
#
# Indices 1 2 3 4 5 6 
#
# 1 52.4416 19.2562 36.6418 0.0000 0.0000 0.0000
# 2 19.2562 97.0816 68.2637 0.0000 0.0000 0.0000
# 3 36.6418 68.2637 165.3040 0.0000 0.0000 0.0000
# 4 0.0000 0.0000 0.0000 19.2393 0.0000 0.0000
# 5 0.0000 0.0000 0.0000 0.0000 22.2518 0.0000
# 6 0.0000 0.0000 0.0000 0.0000 0.0000 12.1600
#
#
#
# Elastic Compliance Matrix: (Units=1/GPa)
#
#
# Indices 1 2 3 4 5 6 
#
# 1 0.022690 -0.001358 -0.004469 0.000000 0.000000 0.000000
# 2 -0.001358 0.014597 -0.005727 0.000000 0.000000 0.000000
# 3 -0.004469 -0.005727 0.009405 0.000000 0.000000 0.000000
# 4 0.000000 0.000000 0.000000 0.051977 0.000000 0.000000
# 5 0.000000 0.000000 0.000000 0.000000 0.044940 0.000000
# 6 0.000000 0.000000 0.000000 0.000000 0.000000 0.082237
#
#
# Mechanical properties :
#
#
# Convention : Reuss Voigt Hill
#
# Bulk Modulus (GPa) = 42.40147 62.57231 52.48689
# Shear Modulus (GPa) = 19.46927 23.44123 21.45525
#
# Velocity S-wave (km/s) = 3.37348 3.70164 3.54136
# Velocity P-wave (km/s) = 6.32130 7.40573 6.88490
#
# Compressibility (1/GPa) = 0.02358409
#
# Stress axis : x y z
#
# Youngs Moduli (GPa) = 44.07255 68.50760 106.32754
#
# Poissons Ratio (x) = 0.09307 0.47513
# Poissons Ratio (y) = 0.05987 0.60892
# Poissons Ratio (z) = 0.19694 0.39233
#
# Static dielectric constant tensor:
#      x y z
#    x 3.024400 0.000000 0.000000 
#    y 0.000000 2.971640 0.000000 
#    z 0.000000 0.000000 3.767180 
# 
# 
# High freq. dielectric constant tensor:
#      x y z
#    x 1.633940 0.000000 0.000000 
#    y 0.000000 1.606830 0.000000 
#    z 0.000000 0.000000 1.690010 
# 
# From -- ./inp_files/59785.got.cif
#   From: 2010.03.12/outbox.cif.g09.slc.cpg/sg63_30_cif.got.tgz:59785.got - 2010.04.10 19:34:48.
