data_PCOD8255659
_publ_section_title
;
Structure prediction by ZEFSAII (Michael W. Deem and Ramdas Pophale) SiO2 
 PCOD8255659
Probable space group: C M C M
;
_chemical_formula_sum "Si O2"
_cell_formula_units_Z 80
_cell_length_a 26.866497
_cell_length_b 19.284806
_cell_length_c 9.624116
_cell_angle_alpha 90.000000
_cell_angle_beta 90.000000
_cell_angle_gamma 90.000000
_cell_volume 4986.400618
_symmetry_space_group_name_H-M "C M C M"
_symmetry_group_IT_number 63
_symmetry_cell_setting 'orthorhombic'
loop_
_space_group_symop_operation_xyz
x,y,z
-x,-y,1/2+z
x,-y,-z
-x,y,1/2-z
-x,-y,-z
x,y,1/2-z
-x,y,z
x,-y,1/2+z
1/2+x,1/2+y,z
1/2-x,1/2-y,1/2+z
1/2+x,1/2-y,-z
1/2-x,1/2+y,1/2-z
1/2-x,1/2-y,-z
1/2+x,1/2+y,1/2-z
1/2-x,1/2+y,z
1/2+x,1/2-y,1/2+z
loop_
_atom_site_type_symbol
_atom_site_label
_atom_site_fract_x
_atom_site_fract_y
_atom_site_fract_z
Si Si1 0.309616 0.443171 0.598305
Si Si2 0.207109 0.286873 0.910466
Si Si3 0.943842 0.933555 0.410335
Si Si4 0.804617 0.558857 0.097750
Si Si5 0.146860 0.840603 0.093593
O O1 0.336844 0.500000 0.500000
O O2 0.335699 0.441210 0.750000
O O3 0.252503 0.462542 0.617572
O O4 0.314366 0.370581 0.518725
O O5 0.225952 0.293891 0.750000
O O6 0.192732 0.363461 0.967316
O O7 0.155690 0.242079 0.916680
O O8 0.250000 0.250000 0.000000
O O9 0.939662 0.955239 0.250000
O O10 0.908789 0.866815 0.444001
O O11 0.000000 0.910614 0.448441
O O12 0.927501 0.000000 0.500000
O O13 0.830672 0.557121 0.250000
O O14 0.830178 0.500000 0.000000
O O15 0.160680 0.865969 0.250000
#
# Coordination Sequence:
#
# PCOD8255659 Si02
#       5
#    16  16  16  16  16
#     4  10  18  27  39  57  82 111 145 180 212 250
#     4  10  19  31  44  62  87 113 144 179 219 258
#     4   9  18  32  47  64  87 116 149 184 222 260
#     4   9  18  30  42  57  79 110 143 174 207 246
#     4  10  19  29  44  63  84 112 144 182 222 261
#
# _framework density 16.043635999999999
#
# number of rings (size 3 to 8) (size 9 to 14) (size 15 to 20)
#    0.000    2.400    2.000    1.200    0.000    4.000 
#    0.000    0.000    0.000    0.000    0.000    0.000 
#    0.000    0.800    0.000    0.600    0.000    1.200 
#
# Total GULP energy -495543.256432 kJ/mol
# GULP energy per Si atom -12388.581411 kJ/mol
# Density = 1.600712 g / cm^3
# Si number density = 16.043636 Si / 1000 Ang^3
#
#
#
# Elastic Constant Matrix: (Units=GPa)
#
#
# Indices 1 2 3 4 5 6 
#
# 1 43.3617 27.8949 14.1923 0.0000 0.0000 0.0000
# 2 27.8949 133.1483 51.7938 0.0000 0.0000 0.0000
# 3 14.1923 51.7938 84.4154 0.0000 0.0000 0.0000
# 4 0.0000 0.0000 0.0000 24.7488 0.0000 0.0000
# 5 0.0000 0.0000 0.0000 0.0000 8.8414 0.0000
# 6 0.0000 0.0000 0.0000 0.0000 0.0000 20.4071
#
#
#
# Elastic Compliance Matrix: (Units=1/GPa)
#
#
# Indices 1 2 3 4 5 6 
#
# 1 0.026778 -0.005068 -0.001392 0.000000 0.000000 0.000000
# 2 -0.005068 0.010824 -0.005789 0.000000 0.000000 0.000000
# 3 -0.001392 -0.005789 0.015632 0.000000 0.000000 0.000000
# 4 0.000000 0.000000 0.000000 0.040406 0.000000 0.000000
# 5 0.000000 0.000000 0.000000 0.000000 0.113104 0.000000
# 6 0.000000 0.000000 0.000000 0.000000 0.000000 0.049003
#
#
# Mechanical properties :
#
#
# Convention : Reuss Voigt Hill
#
# Bulk Modulus (GPa) = 34.80104 49.85413 42.32758
# Shear Modulus (GPa) = 17.25180 21.93576 19.59378
#
# Velocity S-wave (km/s) = 3.28274 3.70165 3.49847
# Velocity P-wave (km/s) = 6.00892 7.02931 6.53905
#
# Compressibility (1/GPa) = 0.02873478
#
# Stress axis : x y z
#
# Youngs Moduli (GPa) = 37.34398 92.38534 63.97036
#
# Poissons Ratio (x) = 0.46826 0.08906
# Poissons Ratio (y) = 0.18928 0.37033
# Poissons Ratio (z) = 0.05199 0.53483
#
# Static dielectric constant tensor:
#      x y z
#    x 2.727090 0.000000 0.000000 
#    y 0.000000 3.132690 0.000000 
#    z 0.000000 0.000000 3.433820 
# 
# 
# High freq. dielectric constant tensor:
#      x y z
#    x 1.559150 0.000000 0.000000 
#    y 0.000000 1.610520 0.000000 
#    z 0.000000 0.000000 1.629620 
# 
# From -- ./inp_files/14037.got.cif
#   From: 2010.03.12/outbox.cif.g09.slc.cpg/sg63_8_cif.got.tgz:14037.got - 2010.04.10 19:34:48.
