data_PCOD8255052
_publ_section_title
;
Structure prediction by ZEFSAII (Michael W. Deem and Ramdas Pophale) SiO2 
 PCOD8255052
Probable space group: P N M A
;
_chemical_formula_sum "Si O2"
_cell_formula_units_Z 48
_cell_length_a 15.044266
_cell_length_b 16.095823
_cell_length_c 9.721659
_cell_angle_alpha 90.000000
_cell_angle_beta 90.000000
_cell_angle_gamma 90.000000
_cell_volume 2354.098198
_symmetry_space_group_name_H-M "P N M A"
_symmetry_group_IT_number 62
_symmetry_cell_setting 'orthorhombic'
loop_
_space_group_symop_operation_xyz
x,y,z
1/2-x,-y,1/2+z
1/2+x,1/2-y,1/2-z
-x,1/2+y,-z
-x,-y,-z
1/2+x,y,1/2-z
1/2-x,1/2+y,1/2+z
x,1/2-y,z
loop_
_atom_site_type_symbol
_atom_site_label
_atom_site_fract_x
_atom_site_fract_y
_atom_site_fract_z
Si Si1 0.795837 0.154803 0.548673
Si Si2 0.179864 0.090861 0.169693
Si Si3 0.309782 0.341703 0.393901
Si Si4 0.250038 0.414133 0.652964
Si Si5 0.484988 0.062276 0.372106
Si Si6 0.085454 0.514469 0.589587
O O1 0.829756 0.250000 0.566167
O O2 0.710287 0.153216 0.450282
O O3 0.762549 0.116780 0.692026
O O4 0.869747 0.098812 0.470174
O O5 0.242408 0.101106 0.304666
O O6 0.074879 0.106838 0.184375
O O7 0.188651 0.994622 0.126505
O O8 0.303380 0.250000 0.330695
O O9 0.279773 0.340764 0.552293
O O10 0.412563 0.367437 0.402220
O O11 0.151948 0.436859 0.597164
O O12 0.444152 0.013310 0.246178
O O13 0.500000 0.000000 0.500000
O O14 0.000000 0.500000 0.500000
#
# Coordination Sequence:
#
# PCOD8255052 Si02
#       6
#     8   8   8   8   8   8
#     4  11  23  42  65  93 134 177 220 279 338 390
#     4  11  22  42  70  91 125 176 225 265 329 405
#     4  12  25  41  64 101 138 169 217 282 334 382
#     4  11  21  42  66  92 131 177 220 271 326 405
#     4  12  23  41  69  99 127 173 228 274 324 405
#     4  11  24  41  69  99 129 176 229 272 331 405
#
# _framework density 20.389975
#
# number of rings (size 3 to 8) (size 9 to 14) (size 15 to 20)
#    0.000    0.667    5.000    6.000    0.000    1.333 
#    0.000    3.333    0.000    0.000    0.000    0.000 
#    0.000    0.000    0.000    0.000    0.000    0.000 
#
# Total GULP energy -594672.084553 kJ/mol
# GULP energy per Si atom -12389.001762 kJ/mol
# Density = 2.034357 g / cm^3
# Si number density = 20.389975 Si / 1000 Ang^3
#
#
#
# Elastic Constant Matrix: (Units=GPa)
#
#
# Indices 1 2 3 4 5 6 
#
# 1 159.5172 41.7049 38.5112 0.0000 0.0000 0.0000
# 2 41.7049 95.7703 30.0098 0.0000 0.0000 0.0000
# 3 38.5112 30.0098 118.6408 0.0000 0.0000 0.0000
# 4 0.0000 0.0000 0.0000 25.2394 0.0000 0.0000
# 5 0.0000 0.0000 0.0000 0.0000 41.3011 0.0000
# 6 0.0000 0.0000 0.0000 0.0000 0.0000 18.7876
#
#
#
# Elastic Compliance Matrix: (Units=1/GPa)
#
#
# Indices 1 2 3 4 5 6 
#
# 1 0.007384 -0.002677 -0.001720 0.000000 0.000000 0.000000
# 2 -0.002677 0.012311 -0.002245 0.000000 0.000000 0.000000
# 3 -0.001720 -0.002245 0.009555 0.000000 0.000000 0.000000
# 4 0.000000 0.000000 0.000000 0.039621 0.000000 0.000000
# 5 0.000000 0.000000 0.000000 0.000000 0.024212 0.000000
# 6 0.000000 0.000000 0.000000 0.000000 0.000000 0.053227
#
#
# Mechanical properties :
#
#
# Convention : Reuss Voigt Hill
#
# Bulk Modulus (GPa) = 62.63082 66.04222 64.33652
# Shear Modulus (GPa) = 30.31879 34.64579 32.48229
#
# Velocity S-wave (km/s) = 3.86028 4.12656 3.99564
# Velocity P-wave (km/s) = 7.11703 7.42728 7.27381
#
# Compressibility (1/GPa) = 0.01596658
#
# Stress axis : x y z
#
# Youngs Moduli (GPa) = 135.43001 81.23001 104.65764
#
# Poissons Ratio (x) = 0.21742 0.17999
# Poissons Ratio (y) = 0.36248 0.23497
# Poissons Ratio (z) = 0.23291 0.18237
#
# Static dielectric constant tensor:
#      x y z
#    x 3.866060 0.000000 0.000000 
#    y 0.000000 3.451300 0.000000 
#    z 0.000000 0.000000 3.844660 
# 
# 
# High freq. dielectric constant tensor:
#      x y z
#    x 1.805060 0.000000 0.000000 
#    y 0.000000 1.774430 0.000000 
#    z 0.000000 0.000000 1.819230 
# 
# From -- ./inp_files/6422.got.cif
#   From: 2010.03.12/outbox.cif.g09.slc.cpg/sg62_4_cif.got.tgz:6422.got - 2010.04.10 19:12:36.
