data_PCOD8255326
_publ_section_title
;
Structure prediction by ZEFSAII (Michael W. Deem and Ramdas Pophale) SiO2 
 PCOD8255326
Probable space group: C M C M
;
_chemical_formula_sum "Si O2"
_cell_formula_units_Z 128
_cell_length_a 22.625504
_cell_length_b 18.875748
_cell_length_c 19.831984
_cell_angle_alpha 90.000000
_cell_angle_beta 90.000000
_cell_angle_gamma 90.000000
_cell_volume 8469.711088
_symmetry_space_group_name_H-M "C M C M"
_symmetry_group_IT_number 63
_symmetry_cell_setting 'orthorhombic'
loop_
_space_group_symop_operation_xyz
x,y,z
-x,-y,1/2+z
x,-y,-z
-x,y,1/2-z
-x,-y,-z
x,y,1/2-z
-x,y,z
x,-y,1/2+z
1/2+x,1/2+y,z
1/2-x,1/2-y,1/2+z
1/2+x,1/2-y,-z
1/2-x,1/2+y,1/2-z
1/2-x,1/2-y,-z
1/2+x,1/2+y,1/2-z
1/2-x,1/2+y,z
1/2+x,1/2-y,1/2+z
loop_
_atom_site_type_symbol
_atom_site_label
_atom_site_fract_x
_atom_site_fract_y
_atom_site_fract_z
Si Si1 0.251695 0.560832 0.081340
Si Si2 0.718819 0.792968 0.599713
Si Si3 0.770104 0.409571 0.429109
Si Si4 0.682978 0.336997 0.174263
Si Si5 0.432668 0.385837 0.115663
Si Si6 0.118595 0.971599 0.925222
Si Si7 0.566755 0.329447 0.534185
Si Si8 0.833122 0.276066 0.040715
O O1 0.221962 0.624696 0.123741
O O2 0.210786 0.490229 0.088899
O O3 0.316931 0.540858 0.107815
O O4 0.257115 0.589571 0.004357
O O5 0.698747 0.745532 0.662584
O O6 0.783486 0.773673 0.572488
O O7 0.671991 0.781119 0.539905
O O8 0.717927 0.384680 0.379599
O O9 0.825849 0.355337 0.426775
O O10 0.702208 0.357176 0.250000
O O11 0.612665 0.348237 0.166674
O O12 0.500000 0.375332 0.140840
O O13 0.418716 0.469838 0.115188
O O14 0.423381 0.349699 0.043334
O O15 0.083167 0.898033 0.921529
O O16 0.128589 0.000000 0.000000
O O17 0.500000 0.307932 0.549608
O O18 0.604392 0.260474 0.556369
#
# Coordination Sequence:
#
# PCOD8255326 Si02
#       8
#    16  16  16  16  16  16  16  16
#     4  10  14  26  49  67  87 109 142 181 221 284
#     4   9  17  26  43  61  81 111 145 181 222 254
#     4   9  17  27  44  70  85 110 142 180 230 263
#     4  11  20  31  42  59  89 120 154 186 213 253
#     4  10  19  29  40  58  88 124 158 181 206 251
#     4  10  15  23  39  65  93 113 144 177 218 259
#     4  10  17  25  40  66  93 118 143 178 223 265
#     4   9  15  25  43  63  86 108 140 181 217 268
#
# _framework density 15.112676
#
# number of rings (size 3 to 8) (size 9 to 14) (size 15 to 20)
#    0.000    2.250    5.000    1.875    0.000    1.750 
#    0.000    0.625    0.000    0.000    0.000    7.875 
#    0.000    8.000    0.000    0.000    0.000    0.000 
#
# Total GULP energy -793143.419656 kJ/mol
# GULP energy per Si atom -12392.865932 kJ/mol
# Density = 1.507828 g / cm^3
# Si number density = 15.112676 Si / 1000 Ang^3
#
#
#
# Elastic Constant Matrix: (Units=GPa)
#
#
# Indices 1 2 3 4 5 6 
#
# 1 81.3019 54.9109 14.1383 0.0000 0.0000 0.0000
# 2 54.9109 130.3309 21.7706 0.0000 0.0000 0.0000
# 3 14.1383 21.7706 32.5403 0.0000 0.0000 0.0000
# 4 0.0000 0.0000 0.0000 8.0823 0.0000 0.0000
# 5 0.0000 0.0000 0.0000 0.0000 8.2410 0.0000
# 6 0.0000 0.0000 0.0000 0.0000 0.0000 25.7415
#
#
#
# Elastic Compliance Matrix: (Units=1/GPa)
#
#
# Indices 1 2 3 4 5 6 
#
# 1 0.017448 -0.006850 -0.002998 0.000000 0.000000 0.000000
# 2 -0.006850 0.011328 -0.004602 0.000000 0.000000 0.000000
# 3 -0.002998 -0.004602 0.035113 0.000000 0.000000 0.000000
# 4 0.000000 0.000000 0.000000 0.123728 0.000000 0.000000
# 5 0.000000 0.000000 0.000000 0.000000 0.121345 0.000000
# 6 0.000000 0.000000 0.000000 0.000000 0.000000 0.038848
#
#
# Mechanical properties :
#
#
# Convention : Reuss Voigt Hill
#
# Bulk Modulus (GPa) = 28.58156 47.31253 37.94705
# Shear Modulus (GPa) = 12.87426 18.63649 15.75537
#
# Velocity S-wave (km/s) = 2.92187 3.51546 3.23232
# Velocity P-wave (km/s) = 5.50786 6.91755 6.25256
#
# Compressibility (1/GPa) = 0.03498759
#
# Stress axis : x y z
#
# Youngs Moduli (GPa) = 57.31369 88.27885 28.47971
#
# Poissons Ratio (x) = 0.60474 0.08537
# Poissons Ratio (y) = 0.39262 0.13107
# Poissons Ratio (z) = 0.17181 0.40628
#
# Static dielectric constant tensor:
#      x y z
#    x 2.718360 0.000000 0.000000 
#    y 0.000000 3.238690 0.000000 
#    z 0.000000 0.000000 2.459420 
# 
# 
# High freq. dielectric constant tensor:
#      x y z
#    x 1.551300 0.000000 0.000000 
#    y 0.000000 1.591090 0.000000 
#    z 0.000000 0.000000 1.524340 
# 
# From -- ./inp_files/57803.got.cif
#   From: 2010.03.12/outbox.cif.g09.slc.cpg/sg63_29_cif.got.tgz:57803.got - 2010.04.10 19:34:48.
