data_PCOD8255843
_publ_section_title
;
Structure prediction by ZEFSAII (Michael W. Deem and Ramdas Pophale) SiO2 
 PCOD8255843
Probable space group: C M C M
;
_chemical_formula_sum "Si O2"
_cell_formula_units_Z 96
_cell_length_a 15.498576
_cell_length_b 23.840246
_cell_length_c 17.884326
_cell_angle_alpha 90.000000
_cell_angle_beta 90.000000
_cell_angle_gamma 90.000000
_cell_volume 6608.077190
_symmetry_space_group_name_H-M "C M C M"
_symmetry_group_IT_number 63
_symmetry_cell_setting 'orthorhombic'
loop_
_space_group_symop_operation_xyz
x,y,z
-x,-y,1/2+z
x,-y,-z
-x,y,1/2-z
-x,-y,-z
x,y,1/2-z
-x,y,z
x,-y,1/2+z
1/2+x,1/2+y,z
1/2-x,1/2-y,1/2+z
1/2+x,1/2-y,-z
1/2-x,1/2+y,1/2-z
1/2-x,1/2-y,-z
1/2+x,1/2+y,1/2-z
1/2-x,1/2+y,z
1/2+x,1/2-y,1/2+z
loop_
_atom_site_type_symbol
_atom_site_label
_atom_site_fract_x
_atom_site_fract_y
_atom_site_fract_z
Si Si1 0.656834 0.881805 0.080655
Si Si2 0.744610 0.724052 0.581435
Si Si3 0.406740 0.782999 0.163377
Si Si4 0.899882 0.285500 0.837688
Si Si5 0.100371 0.486697 0.338077
Si Si6 0.101723 0.600685 0.412937
O O1 0.745202 0.844194 0.080105
O O2 0.584742 0.842685 0.120162
O O3 0.662542 0.938689 0.128434
O O4 0.634443 0.898239 0.996836
O O5 0.750000 0.750000 0.500000
O O6 0.826067 0.751152 0.627863
O O7 0.654278 0.737224 0.620995
O O8 0.387346 0.794442 0.250000
O O9 0.500000 0.752189 0.153219
O O10 0.883509 0.282180 0.750000
O O11 0.865348 0.345172 0.867463
O O12 0.000000 0.275879 0.857668
O O13 0.112157 0.489149 0.250000
O O14 0.135291 0.544926 0.372072
O O15 0.000000 0.476042 0.360102
O O16 0.000000 0.600598 0.411824
#
# Coordination Sequence:
#
# PCOD8255843 Si02
#       6
#    16  16  16  16  16  16
#     4  10  19  27  44  63  89 124 153 189 228 267
#     4  10  20  31  45  66  91 123 159 196 235 274
#     4   9  17  28  44  66  90 119 152 186 229 276
#     4  10  19  32  48  65  91 127 163 197 231 273
#     4  10  19  29  42  64  93 124 157 190 223 270
#     4  10  18  29  44  64  90 124 160 188 225 274
#
# _framework density 14.527675
#
# number of rings (size 3 to 8) (size 9 to 14) (size 15 to 20)
#    1.000    1.167    1.667    3.500    0.000    5.333 
#    0.000    0.000    0.000    0.000    0.000    0.000 
#    0.000    4.000    0.000    5.167    0.000    0.167 
#
# Total GULP energy -594666.583955 kJ/mol
# GULP energy per Si atom -12388.887166 kJ/mol
# Density = 1.449461 g / cm^3
# Si number density = 14.527675 Si / 1000 Ang^3
#
#
#
# Elastic Constant Matrix: (Units=GPa)
#
#
# Indices 1 2 3 4 5 6 
#
# 1 76.3558 58.4603 50.7712 0.0000 0.0000 0.0000
# 2 58.4603 115.4232 53.9693 0.0000 0.0000 0.0000
# 3 50.7712 53.9693 121.4093 0.0000 0.0000 0.0000
# 4 0.0000 0.0000 0.0000 31.6061 0.0000 0.0000
# 5 0.0000 0.0000 0.0000 0.0000 22.4122 0.0000
# 6 0.0000 0.0000 0.0000 0.0000 0.0000 21.7982
#
#
#
# Elastic Compliance Matrix: (Units=1/GPa)
#
#
# Indices 1 2 3 4 5 6 
#
# 1 0.024369 -0.009566 -0.005938 0.000000 0.000000 0.000000
# 2 -0.009566 0.014692 -0.002531 0.000000 0.000000 0.000000
# 3 -0.005938 -0.002531 0.011845 0.000000 0.000000 0.000000
# 4 0.000000 0.000000 0.000000 0.031639 0.000000 0.000000
# 5 0.000000 0.000000 0.000000 0.000000 0.044619 0.000000
# 6 0.000000 0.000000 0.000000 0.000000 0.000000 0.045875
#
#
# Mechanical properties :
#
#
# Convention : Reuss Voigt Hill
#
# Bulk Modulus (GPa) = 67.40360 71.06552 69.23456
# Shear Modulus (GPa) = 23.35844 25.16246 24.26045
#
# Velocity S-wave (km/s) = 4.01416 4.16629 4.09093
# Velocity P-wave (km/s) = 8.24512 8.49514 8.37107
#
# Compressibility (1/GPa) = 0.01483600
#
# Stress axis : x y z
#
# Youngs Moduli (GPa) = 41.03525 68.06376 84.42451
#
# Poissons Ratio (x) = 0.65110 0.50135
# Poissons Ratio (y) = 0.39254 0.21365
# Poissons Ratio (z) = 0.24369 0.17225
#
# Static dielectric constant tensor:
#      x y z
#    x 2.613430 0.000000 0.000000 
#    y 0.000000 2.827250 0.000000 
#    z 0.000000 0.000000 2.942810 
# 
# 
# High freq. dielectric constant tensor:
#      x y z
#    x 1.515920 0.000000 0.000000 
#    y 0.000000 1.535820 0.000000 
#    z 0.000000 0.000000 1.580500 
# 
# From -- ./inp_files/46208.got.cif
#   From: 2010.03.12/outbox.cif.g09.slc.cpg/sg63_24_cif.got.tgz:46208.got - 2010.04.10 19:34:48.
