data_PCOD8255134
_publ_section_title
;
Structure prediction by ZEFSAII (Michael W. Deem and Ramdas Pophale) SiO2 
 PCOD8255134
Probable space group: P N M A
;
_chemical_formula_sum "Si O2"
_cell_formula_units_Z 40
_cell_length_a 7.563383
_cell_length_b 8.690412
_cell_length_c 29.633955
_cell_angle_alpha 90.000000
_cell_angle_beta 90.000000
_cell_angle_gamma 90.000000
_cell_volume 1947.807691
_symmetry_space_group_name_H-M "P N M A"
_symmetry_group_IT_number 62
_symmetry_cell_setting 'orthorhombic'
loop_
_space_group_symop_operation_xyz
x,y,z
1/2-x,-y,1/2+z
1/2+x,1/2-y,1/2-z
-x,1/2+y,-z
-x,-y,-z
1/2+x,y,1/2-z
1/2-x,1/2+y,1/2+z
x,1/2-y,z
loop_
_atom_site_type_symbol
_atom_site_label
_atom_site_fract_x
_atom_site_fract_y
_atom_site_fract_z
Si Si1 0.540966 0.432358 0.451643
Si Si2 0.346360 0.568855 0.103692
Si Si3 0.729789 0.433595 0.114818
Si Si4 0.197244 0.418814 0.288776
Si Si5 0.789500 0.079043 0.305639
O O1 0.500000 0.500000 0.500000
O O2 0.551377 0.250000 0.453872
O O3 0.729731 0.497405 0.436195
O O4 0.384774 0.487450 0.418242
O O5 0.350825 0.750000 0.098683
O O6 0.545360 0.506690 0.098776
O O7 0.249921 0.524539 0.150858
O O8 0.705225 0.250000 0.115684
O O9 0.785181 0.491808 0.165944
O O10 0.282524 0.250000 0.279986
O O11 0.220820 0.505732 0.240631
O O12 0.996481 0.403643 0.301964
O O13 0.703788 0.250000 0.312543
#
# Coordination Sequence:
#
# PCOD8255134 Si02
#       5
#     8   8   8   8   8
#     4  11  24  42  67  93 119 152 201 254 306 361
#     4  11  23  39  59  86 125 163 196 242 301 362
#     4   9  20  40  64  88 115 155 204 251 294 347
#     4   8  15  28  52  82 109 144 197 247 286 335
#     4   9  17  31  53  81 113 152 201 247 288 344
#
# _framework density 20.535907999999999
#
# number of rings (size 3 to 8) (size 9 to 14) (size 15 to 20)
#    0.000    2.400    0.000    3.600    2.800    2.400 
#    0.000    4.000    0.000    0.000    0.000    0.000 
#    0.000    0.000    0.000    0.000    0.000    0.000 
#
# Total GULP energy -495638.827684 kJ/mol
# GULP energy per Si atom -12390.970692 kJ/mol
# Density = 2.048917 g / cm^3
# Si number density = 20.535908 Si / 1000 Ang^3
#
#
#
# Elastic Constant Matrix: (Units=GPa)
#
#
# Indices 1 2 3 4 5 6 
#
# 1 45.0443 22.8536 12.3485 0.0000 0.0000 0.0000
# 2 22.8536 70.6761 22.3340 0.0000 0.0000 0.0000
# 3 12.3485 22.3340 95.1133 0.0000 0.0000 0.0000
# 4 0.0000 0.0000 0.0000 23.8056 0.0000 0.0000
# 5 0.0000 0.0000 0.0000 0.0000 39.3516 0.0000
# 6 0.0000 0.0000 0.0000 0.0000 0.0000 17.8148
#
#
#
# Elastic Compliance Matrix: (Units=1/GPa)
#
#
# Indices 1 2 3 4 5 6 
#
# 1 0.026769 -0.008164 -0.001559 0.000000 0.000000 0.000000
# 2 -0.008164 0.017773 -0.003113 0.000000 0.000000 0.000000
# 3 -0.001559 -0.003113 0.011447 0.000000 0.000000 0.000000
# 4 0.000000 0.000000 0.000000 0.042007 0.000000 0.000000
# 5 0.000000 0.000000 0.000000 0.000000 0.025412 0.000000
# 6 0.000000 0.000000 0.000000 0.000000 0.000000 0.056133
#
#
# Mechanical properties :
#
#
# Convention : Reuss Voigt Hill
#
# Bulk Modulus (GPa) = 32.98339 36.21175 34.59757
# Shear Modulus (GPa) = 23.22143 26.41424 24.81784
#
# Velocity S-wave (km/s) = 3.36634 3.59032 3.48013
# Velocity P-wave (km/s) = 5.58622 5.90414 5.74738
#
# Compressibility (1/GPa) = 0.03031829
#
# Stress axis : x y z
#
# Youngs Moduli (GPa) = 37.35595 56.26617 87.35767
#
# Poissons Ratio (x) = 0.45933 0.13615
# Poissons Ratio (y) = 0.30496 0.27198
# Poissons Ratio (z) = 0.05822 0.17518
#
# Static dielectric constant tensor:
#      x y z
#    x 3.665620 0.000000 0.000000 
#    y 0.000000 3.426210 0.000000 
#    z 0.000000 0.000000 4.271380 
# 
# 
# High freq. dielectric constant tensor:
#      x y z
#    x 1.802580 0.000000 0.000000 
#    y 0.000000 1.760060 0.000000 
#    z 0.000000 0.000000 1.820410 
# 
# From -- ./inp_files/30675.got.cif
#   From: 2010.03.12/outbox.cif.g09.slc.cpg/sg62_16_cif.got.tgz:30675.got - 2010.04.10 19:12:36.
