data_PCOD8255309
_publ_section_title
;
Structure prediction by ZEFSAII (Michael W. Deem and Ramdas Pophale) SiO2 
 PCOD8255309
Probable space group: P N M A
;
_chemical_formula_sum "Si O2"
_cell_formula_units_Z 40
_cell_length_a 27.000000
_cell_length_b 9.000000
_cell_length_c 9.000000
_cell_angle_alpha 90.000000
_cell_angle_beta 90.000000
_cell_angle_gamma 90.000000
_cell_volume 2187.000000
_symmetry_space_group_name_H-M "P N M A"
_symmetry_group_IT_number 62
_symmetry_cell_setting 'orthorhombic'
loop_
_space_group_symop_operation_xyz
x,y,z
1/2-x,-y,1/2+z
1/2+x,1/2-y,1/2-z
-x,1/2+y,-z
-x,-y,-z
1/2+x,y,1/2-z
1/2-x,1/2+y,1/2+z
x,1/2-y,z
loop_
_atom_site_type_symbol
_atom_site_label
_atom_site_fract_x
_atom_site_fract_y
_atom_site_fract_z
Si Si1 0.203692 0.921870 0.675619
Si Si2 0.202583 0.923035 0.325220
Si Si3 0.003746 0.573682 0.340827
Si Si4 0.894934 0.917156 0.324917
Si Si5 0.101973 0.420010 0.321539
O O1 0.208061 0.750000 0.719100
O O2 0.207447 0.948525 0.500475
O O3 0.248678 0.009020 0.750642
O O4 0.149748 0.978869 0.734248
O O5 0.199354 0.750000 0.284566
O O6 0.152364 0.000930 0.263413
O O7 0.011875 0.750000 0.356843
O O8 0.950140 0.541105 0.260233
O O9 0.000000 0.500000 0.500000
O O10 0.051989 0.502008 0.258554
O O11 0.881237 0.750000 0.276881
O O12 0.898714 0.929093 0.501683
O O13 0.101764 0.250000 0.264946
#
# Coordination Sequence:
#
# PCOD8255309 Si02
#       5
#     8   8   8   8   8
#     4  10  20  32  48  70  94 123 159 195 232 276
#     4  10  20  33  49  69  95 126 158 194 235 278
#     4   9  15  23  37  59  87 118 150 185 230 278
#     4   8  15  26  40  60  88 120 150 185 229 273
#     4   9  16  26  41  62  89 119 151 189 231 275
#
# _framework density 18.289895000000001
#
# number of rings (size 3 to 8) (size 9 to 14) (size 15 to 20)
#    0.000    2.800    0.000    3.600    0.000    8.000 
#    0.000    0.000    0.000    0.000    0.000    1.400 
#    0.000    0.000    0.000    0.000    0.000    0.000 
#
# Total GULP energy -495646.319310 kJ/mol
# GULP energy per Si atom -12391.157983 kJ/mol
# Density = 1.824827 g / cm^3
# Si number density = 18.289895 Si / 1000 Ang^3
#
#
#
# Elastic Constant Matrix: (Units=GPa)
#
#
# Indices 1 2 3 4 5 6 
#
# 1 226.7719 102.3636 21.1590 0.0000 0.0000 0.0000
# 2 102.3636 156.1605 19.2065 0.0000 0.0000 0.0000
# 3 21.1590 19.2065 12.9150 0.0000 0.0000 0.0000
# 4 0.0000 0.0000 0.0000 16.3454 0.0000 0.0000
# 5 0.0000 0.0000 0.0000 0.0000 23.9683 0.0000
# 6 0.0000 0.0000 0.0000 0.0000 0.0000 48.7811
#
#
#
# Elastic Compliance Matrix: (Units=1/GPa)
#
#
# Indices 1 2 3 4 5 6 
#
# 1 0.006548 -0.003638 -0.005317 0.000000 0.000000 0.000000
# 2 -0.003638 0.009859 -0.008701 0.000000 0.000000 0.000000
# 3 -0.005317 -0.008701 0.099080 0.000000 0.000000 0.000000
# 4 0.000000 0.000000 0.000000 0.061179 0.000000 0.000000
# 5 0.000000 0.000000 0.000000 0.000000 0.041722 0.000000
# 6 0.000000 0.000000 0.000000 0.000000 0.000000 0.020500
#
#
# Mechanical properties :
#
#
# Convention : Reuss Voigt Hill
#
# Bulk Modulus (GPa) = 12.47284 75.70065 44.08674
# Shear Modulus (GPa) = 16.61546 34.69350 25.65448
#
# Velocity S-wave (km/s) = 3.01732 4.36003 3.74927
# Velocity P-wave (km/s) = 4.35583 8.17470 6.54977
#
# Compressibility (1/GPa) = 0.08017419
#
# Stress axis : x y z
#
# Youngs Moduli (GPa) = 152.71390 101.43297 10.09289
#
# Poissons Ratio (x) = 0.36905 0.05367
# Poissons Ratio (y) = 0.55563 0.08781
# Poissons Ratio (z) = 0.81203 0.88252
#
# Static dielectric constant tensor:
#      x y z
#    x 4.292980 0.000000 0.000000 
#    y 0.000000 3.624110 0.000000 
#    z 0.000000 0.000000 2.687590 
# 
# 
# High freq. dielectric constant tensor:
#      x y z
#    x 1.755190 0.000000 0.000000 
#    y 0.000000 1.728650 0.000000 
#    z 0.000000 0.000000 1.626550 
# 
# From -- ./inp_files/9081.got.cif
#   From: 2010.03.12/outbox.ucp.g09.slc.cvg/sg62_5_cif.got.tgz:9081.got - 2010.05.04 19:35:18.
