data_PCOD8255316
_publ_section_title
;
Structure prediction by ZEFSAII (Michael W. Deem and Ramdas Pophale) SiO2 
 PCOD8255316
Probable space group: P N M A
;
_chemical_formula_sum "Si O2"
_cell_formula_units_Z 64
_cell_length_a 15.000000
_cell_length_b 9.000000
_cell_length_c 24.000000
_cell_angle_alpha 90.000000
_cell_angle_beta 90.000000
_cell_angle_gamma 90.000000
_cell_volume 3240.000000
_symmetry_space_group_name_H-M "P N M A"
_symmetry_group_IT_number 62
_symmetry_cell_setting 'orthorhombic'
loop_
_space_group_symop_operation_xyz
x,y,z
1/2-x,-y,1/2+z
1/2+x,1/2-y,1/2-z
-x,1/2+y,-z
-x,-y,-z
1/2+x,y,1/2-z
1/2-x,1/2+y,1/2+z
x,1/2-y,z
loop_
_atom_site_type_symbol
_atom_site_label
_atom_site_fract_x
_atom_site_fract_y
_atom_site_fract_z
Si Si1 0.143014 0.580091 0.753120
Si Si2 0.093936 0.573170 0.875877
Si Si3 0.348001 0.579176 0.749239
Si Si4 0.585572 0.419342 0.852601
Si Si5 0.084687 0.576620 0.142905
Si Si6 0.739007 0.424669 0.548849
Si Si7 0.114403 0.581133 0.362254
Si Si8 0.257541 0.923819 0.069332
O O1 0.112987 0.750000 0.752912
O O2 0.127260 0.516079 0.815203
O O3 0.244624 0.558620 0.735001
O O4 0.082960 0.498676 0.707393
O O5 0.096145 0.750000 0.880835
O O6 0.155257 0.505964 0.923812
O O7 0.995060 0.512002 0.886537
O O8 0.377734 0.750000 0.743531
O O9 0.404236 0.482067 0.705923
O O10 0.363828 0.528412 0.812047
O O11 0.611629 0.250000 0.840350
O O12 0.488514 0.436238 0.880223
O O13 0.657636 0.484909 0.895783
O O14 0.061896 0.750000 0.145829
O O15 0.171098 0.543750 0.106268
O O16 0.719988 0.250000 0.546920
O O17 0.827146 0.463074 0.584378
O O18 0.753144 0.483671 0.486958
O O19 0.134895 0.750000 0.343173
O O20 0.267031 0.750000 0.054925
#
# Coordination Sequence:
#
# PCOD8255316 Si02
#       8
#     8   8   8   8   8   8   8   8
#     4  10  21  36  58  89 122 155 194 239 293 352
#     4  11  23  41  63  90 122 159 198 244 300 358
#     4  11  21  36  60  90 124 159 195 241 297 355
#     4  10  21  39  62  88 119 157 197 241 294 352
#     4  11  23  40  62  91 121 157 200 245 297 355
#     4  11  24  41  62  88 118 155 202 252 300 353
#     4  10  22  39  61  90 122 156 198 246 297 356
#     4  10  23  42  62  84 116 157 201 246 297 353
#
# _framework density 19.753086
#
# number of rings (size 3 to 8) (size 9 to 14) (size 15 to 20)
#    0.000    1.500    2.500    2.250    0.000    7.000 
#    0.000    0.000    0.000    0.000    0.000    0.000 
#    0.000    0.000    0.000    0.000    0.000    0.000 
#
# Total GULP energy -793931.745612 kJ/mol
# GULP energy per Si atom -12405.183525 kJ/mol
# Density = 1.970813 g / cm^3
# Si number density = 19.753086 Si / 1000 Ang^3
#
#
#
# Elastic Constant Matrix: (Units=GPa)
#
#
# Indices 1 2 3 4 5 6 
#
# 1 92.5091 41.9052 36.0634 0.0000 0.0000 0.0000
# 2 41.9052 83.6407 52.9403 0.0000 0.0000 0.0000
# 3 36.0634 52.9403 123.9863 0.0000 0.0000 0.0000
# 4 0.0000 0.0000 0.0000 38.7890 0.0000 0.0000
# 5 0.0000 0.0000 0.0000 0.0000 16.7707 0.0000
# 6 0.0000 0.0000 0.0000 0.0000 0.0000 23.9632
#
#
#
# Elastic Compliance Matrix: (Units=1/GPa)
#
#
# Indices 1 2 3 4 5 6 
#
# 1 0.014183 -0.006159 -0.001495 0.000000 0.000000 0.000000
# 2 -0.006159 0.019059 -0.006346 0.000000 0.000000 0.000000
# 3 -0.001495 -0.006346 0.011210 0.000000 0.000000 0.000000
# 4 0.000000 0.000000 0.000000 0.025780 0.000000 0.000000
# 5 0.000000 0.000000 0.000000 0.000000 0.059628 0.000000
# 6 0.000000 0.000000 0.000000 0.000000 0.000000 0.041731
#
#
# Mechanical properties :
#
#
# Convention : Reuss Voigt Hill
#
# Bulk Modulus (GPa) = 60.79120 62.43933 61.61526
# Shear Modulus (GPa) = 24.38127 27.18639 25.78383
#
# Velocity S-wave (km/s) = 3.51707 3.71389 3.61682
# Velocity P-wave (km/s) = 6.88008 7.07596 6.97870
#
# Compressibility (1/GPa) = 0.01644975
#
# Stress axis : x y z
#
# Youngs Moduli (GPa) = 70.50813 52.46967 89.20523
#
# Poissons Ratio (x) = 0.32318 0.13339
# Poissons Ratio (y) = 0.43428 0.56612
# Poissons Ratio (z) = 0.10544 0.33298
#
# Static dielectric constant tensor:
#      x y z
#    x 3.765110 0.000000 0.000000 
#    y 0.000000 3.596200 0.000000 
#    z 0.000000 0.000000 3.505100 
# 
# 
# High freq. dielectric constant tensor:
#      x y z
#    x 1.784400 0.000000 0.000000 
#    y 0.000000 1.771600 0.000000 
#    z 0.000000 0.000000 1.767670 
# 
# From -- ./inp_files/29843.got.cif
#   From: 2010.03.12/outbox.ucp.g09.slc.cvg/sg62_15_cif.got.tgz:29843.got - 2010.05.04 19:35:18.
