data_PCOD8255389
_publ_section_title
;
Structure prediction by ZEFSAII (Michael W. Deem and Ramdas Pophale) SiO2 
 PCOD8255389
Probable space group: C M C M
;
_chemical_formula_sum "Si O2"
_cell_formula_units_Z 120
_cell_length_a 23.641192
_cell_length_b 13.586146
_cell_length_c 22.943028
_cell_angle_alpha 90.000000
_cell_angle_beta 90.000000
_cell_angle_gamma 90.000000
_cell_volume 7369.132791
_symmetry_space_group_name_H-M "C M C M"
_symmetry_group_IT_number 63
_symmetry_cell_setting 'orthorhombic'
loop_
_space_group_symop_operation_xyz
x,y,z
-x,-y,1/2+z
x,-y,-z
-x,y,1/2-z
-x,-y,-z
x,y,1/2-z
-x,y,z
x,-y,1/2+z
1/2+x,1/2+y,z
1/2-x,1/2-y,1/2+z
1/2+x,1/2-y,-z
1/2-x,1/2+y,1/2-z
1/2-x,1/2-y,-z
1/2+x,1/2+y,1/2-z
1/2-x,1/2+y,z
1/2+x,1/2-y,1/2+z
loop_
_atom_site_type_symbol
_atom_site_label
_atom_site_fract_x
_atom_site_fract_y
_atom_site_fract_z
Si Si1 0.434609 0.568216 0.182034
Si Si2 0.270892 0.950797 0.876636
Si Si3 0.663805 0.685623 0.127572
Si Si4 0.235848 0.000000 0.000000
Si Si5 0.264099 0.845750 0.317888
Si Si6 0.311835 0.704589 0.999386
Si Si7 0.338056 0.761957 0.622745
Si Si8 0.936199 0.845743 0.318562
O O1 0.421270 0.580004 0.250000
O O2 0.500000 0.592071 0.168942
O O3 0.396862 0.645415 0.146817
O O4 0.420127 0.456753 0.161958
O O5 0.209778 0.901219 0.866850
O O6 0.320358 0.873209 0.861278
O O7 0.278941 0.042046 0.833498
O O8 0.276244 0.982500 0.944250
O O9 0.681992 0.777158 0.168058
O O10 0.658086 0.724426 0.061192
O O11 0.193352 0.089014 0.987653
O O12 0.248699 0.837997 0.250000
O O13 0.210523 0.812956 0.356135
O O14 0.250000 0.750000 0.000000
O O15 0.346904 0.752806 0.946877
O O16 0.397031 0.735989 0.652222
O O17 0.929362 0.836981 0.250000
O O18 0.000000 0.821945 0.337799
#
# Coordination Sequence:
#
# PCOD8255389 Si02
#       8
#    16  16  16   8  16  16  16  16
#     4   9  18  34  54  74  98 134 174 205 248 306
#     4  10  20  30  49  74 100 133 168 203 248 305
#     4  10  20  32  50  74 101 135 164 211 247 304
#     4  10  16  30  48  66 102 130 164 198 236 298
#     4  11  21  31  46  74 108 130 159 208 260 306
#     4  11  18  32  48  73 103 134 172 195 247 304
#     4  11  20  32  51  74  99 135 169 207 249 305
#     4   9  19  35  53  72  98 133 171 209 250 299
#
# _framework density 16.284141000000002
#
# number of rings (size 3 to 8) (size 9 to 14) (size 15 to 20)
#    0.000    1.867    5.333    2.400    1.867    4.267 
#    0.000    0.667    0.000    2.400    0.000    2.333 
#    0.000    0.000    0.000    0.000    0.000    0.000 
#
# Total GULP energy -744014.205736 kJ/mol
# GULP energy per Si atom -12400.236762 kJ/mol
# Density = 1.624708 g / cm^3
# Si number density = 16.284141 Si / 1000 Ang^3
#
#
#
# Elastic Constant Matrix: (Units=GPa)
#
#
# Indices 1 2 3 4 5 6 
#
# 1 75.5310 28.9958 30.9530 0.0000 0.0000 0.0000
# 2 28.9958 81.2275 30.6502 0.0000 0.0000 0.0000
# 3 30.9530 30.6502 81.3552 0.0000 0.0000 0.0000
# 4 0.0000 0.0000 0.0000 26.0238 0.0000 0.0000
# 5 0.0000 0.0000 0.0000 0.0000 22.2983 0.0000
# 6 0.0000 0.0000 0.0000 0.0000 0.0000 26.9066
#
#
#
# Elastic Compliance Matrix: (Units=1/GPa)
#
#
# Indices 1 2 3 4 5 6 
#
# 1 0.016823 -0.004185 -0.004824 0.000000 0.000000 0.000000
# 2 -0.004185 0.015392 -0.004207 0.000000 0.000000 0.000000
# 3 -0.004824 -0.004207 0.015712 0.000000 0.000000 0.000000
# 4 0.000000 0.000000 0.000000 0.038426 0.000000 0.000000
# 5 0.000000 0.000000 0.000000 0.000000 0.044846 0.000000
# 6 0.000000 0.000000 0.000000 0.000000 0.000000 0.037166
#
#
# Mechanical properties :
#
#
# Convention : Reuss Voigt Hill
#
# Bulk Modulus (GPa) = 46.52028 46.59018 46.55523
# Shear Modulus (GPa) = 24.75704 24.88005 24.81854
#
# Velocity S-wave (km/s) = 3.90335 3.91304 3.90820
# Velocity P-wave (km/s) = 6.99605 7.00633 7.00119
#
# Compressibility (1/GPa) = 0.02149600
#
# Stress axis : x y z
#
# Youngs Moduli (GPa) = 59.44202 64.96701 63.64562
#
# Poissons Ratio (x) = 0.27189 0.30702
# Poissons Ratio (y) = 0.24877 0.26774
# Poissons Ratio (z) = 0.28674 0.27330
#
# Static dielectric constant tensor:
#      x y z
#    x 2.812790 0.000000 0.000000 
#    y 0.000000 3.764150 0.000000 
#    z 0.000000 0.000000 4.700620 
# 
# 
# High freq. dielectric constant tensor:
#      x y z
#    x 1.586080 0.000000 0.000000 
#    y 0.000000 1.627570 0.000000 
#    z 0.000000 0.000000 1.634640 
# 
# From -- ./inp_files/64689.got.cif
#   From: 2010.03.12/outbox.cif.g09.slc.cpg/sg63_33_cif.got.tgz:64689.got - 2010.04.10 19:34:48.
