data_PCOD8255534
_publ_section_title
;
Structure prediction by ZEFSAII (Michael W. Deem and Ramdas Pophale) SiO2 
 PCOD8255534
Probable space group: C M C M
;
_chemical_formula_sum "Si O2"
_cell_formula_units_Z 80
_cell_length_a 11.813694
_cell_length_b 19.457767
_cell_length_c 20.259954
_cell_angle_alpha 90.000000
_cell_angle_beta 90.000000
_cell_angle_gamma 90.000000
_cell_volume 4657.117239
_symmetry_space_group_name_H-M "C M C M"
_symmetry_group_IT_number 63
_symmetry_cell_setting 'orthorhombic'
loop_
_space_group_symop_operation_xyz
x,y,z
-x,-y,1/2+z
x,-y,-z
-x,y,1/2-z
-x,-y,-z
x,y,1/2-z
-x,y,z
x,-y,1/2+z
1/2+x,1/2+y,z
1/2-x,1/2-y,1/2+z
1/2+x,1/2-y,-z
1/2-x,1/2+y,1/2-z
1/2-x,1/2-y,-z
1/2+x,1/2+y,1/2-z
1/2-x,1/2+y,z
1/2+x,1/2-y,1/2+z
loop_
_atom_site_type_symbol
_atom_site_label
_atom_site_fract_x
_atom_site_fract_y
_atom_site_fract_z
Si Si1 0.633550 0.947110 0.442388
Si Si2 0.706398 0.470977 0.176230
Si Si3 0.000000 0.891331 0.486023
Si Si4 0.772860 0.813706 0.453912
Si Si5 0.630381 0.316722 0.177524
Si Si6 0.500000 0.477449 0.608290
O O1 0.500000 0.946016 0.432807
O O2 0.687833 0.972105 0.373628
O O3 0.674159 0.870356 0.460968
O O4 0.670369 0.000000 0.500000
O O5 0.749852 0.489300 0.250000
O O6 0.642598 0.398567 0.175650
O O7 0.612400 0.525866 0.153219
O O8 0.890800 0.846716 0.472778
O O9 0.000000 0.910433 0.562845
O O10 0.000000 0.956384 0.438617
O O11 0.750000 0.750000 0.500000
O O12 0.786133 0.785650 0.378323
O O13 0.665842 0.288464 0.250000
O O14 0.500000 0.297974 0.162660
#
# Coordination Sequence:
#
# PCOD8255534 Si02
#       6
#    16  16   8  16  16   8
#     4  10  21  36  52  74 106 143 177 216 269 318
#     4  10  17  28  50  80 107 133 169 215 263 312
#     4  11  20  32  52  84 105 138 170 219 276 311
#     4  11  21  33  53  79 108 136 179 221 265 323
#     4   9  15  28  49  75 103 127 164 216 260 298
#     4  11  17  30  56  80 114 126 168 219 277 317
#
# _framework density 17.178007999999998
#
# number of rings (size 3 to 8) (size 9 to 14) (size 15 to 20)
#    0.000    1.800    6.000    1.500    1.400    0.400 
#    0.000    0.000    0.000    6.000    0.000    0.000 
#    0.000    0.000    0.000    0.000    0.000    0.000 
#
# Total GULP energy -495839.172525 kJ/mol
# GULP energy per Si atom -12395.979313 kJ/mol
# Density = 1.713891 g / cm^3
# Si number density = 17.178008 Si / 1000 Ang^3
#
#
#
# Elastic Constant Matrix: (Units=GPa)
#
#
# Indices 1 2 3 4 5 6 
#
# 1 85.8511 24.8616 51.4642 0.0000 0.0000 0.0000
# 2 24.8616 42.8987 48.1227 0.0000 0.0000 0.0000
# 3 51.4642 48.1227 165.0272 0.0000 0.0000 0.0000
# 4 0.0000 0.0000 0.0000 24.5580 0.0000 0.0000
# 5 0.0000 0.0000 0.0000 0.0000 26.8062 0.0000
# 6 0.0000 0.0000 0.0000 0.0000 0.0000 15.1676
#
#
#
# Elastic Compliance Matrix: (Units=1/GPa)
#
#
# Indices 1 2 3 4 5 6 
#
# 1 0.015052 -0.005138 -0.003196 0.000000 0.000000 0.000000
# 2 -0.005138 0.036397 -0.009011 0.000000 0.000000 0.000000
# 3 -0.003196 -0.009011 0.009684 0.000000 0.000000 0.000000
# 4 0.000000 0.000000 0.000000 0.040720 0.000000 0.000000
# 5 0.000000 0.000000 0.000000 0.000000 0.037305 0.000000
# 6 0.000000 0.000000 0.000000 0.000000 0.000000 0.065930
#
#
# Mechanical properties :
#
#
# Convention : Reuss Voigt Hill
#
# Bulk Modulus (GPa) = 37.81794 60.29711 49.05752
# Shear Modulus (GPa) = 20.11330 24.59493 22.35411
#
# Velocity S-wave (km/s) = 3.42552 3.78798 3.61130
# Velocity P-wave (km/s) = 6.14074 7.36948 6.78299
#
# Compressibility (1/GPa) = 0.02644248
#
# Stress axis : x y z
#
# Youngs Moduli (GPa) = 66.43771 27.47466 103.26488
#
# Poissons Ratio (x) = 0.14118 0.32999
# Poissons Ratio (y) = 0.34139 0.93054
# Poissons Ratio (z) = 0.21230 0.24758
#
# Static dielectric constant tensor:
#      x y z
#    x 3.130220 0.000000 0.000000 
#    y 0.000000 2.966330 0.000000 
#    z 0.000000 0.000000 4.143660 
# 
# 
# High freq. dielectric constant tensor:
#      x y z
#    x 1.660200 0.000000 0.000000 
#    y 0.000000 1.610930 0.000000 
#    z 0.000000 0.000000 1.683700 
# 
# From -- ./inp_files/61177.got.cif
#   From: 2010.03.12/outbox.cif.g09.slc.cpg/sg63_31_cif.got.tgz:61177.got - 2010.04.10 19:34:48.
