data_PCOD8255562
_publ_section_title
;
Structure prediction by ZEFSAII (Michael W. Deem and Ramdas Pophale) SiO2 
 PCOD8255562
Probable space group: C M C M
;
_chemical_formula_sum "Si O2"
_cell_formula_units_Z 96
_cell_length_a 21.057514
_cell_length_b 11.102173
_cell_length_c 23.873082
_cell_angle_alpha 90.000000
_cell_angle_beta 90.000000
_cell_angle_gamma 90.000000
_cell_volume 5581.148503
_symmetry_space_group_name_H-M "C M C M"
_symmetry_group_IT_number 63
_symmetry_cell_setting 'orthorhombic'
loop_
_space_group_symop_operation_xyz
x,y,z
-x,-y,1/2+z
x,-y,-z
-x,y,1/2-z
-x,-y,-z
x,y,1/2-z
-x,y,z
x,-y,1/2+z
1/2+x,1/2+y,z
1/2-x,1/2-y,1/2+z
1/2+x,1/2-y,-z
1/2-x,1/2+y,1/2-z
1/2-x,1/2-y,-z
1/2+x,1/2+y,1/2-z
1/2-x,1/2+y,z
1/2+x,1/2-y,1/2+z
loop_
_atom_site_type_symbol
_atom_site_label
_atom_site_fract_x
_atom_site_fract_y
_atom_site_fract_z
Si Si1 0.163306 0.614995 0.631942
Si Si2 0.302781 0.538930 0.633593
Si Si3 0.195842 0.165902 0.054289
Si Si4 0.667630 0.250239 0.438594
Si Si5 0.791085 0.966327 0.750000
Si Si6 0.925750 0.454936 0.562249
Si Si7 0.191285 0.313355 0.250000
O O1 0.226014 0.531674 0.635693
O O2 0.173471 0.714547 0.584987
O O3 0.103826 0.536869 0.611329
O O4 0.149474 0.675381 0.693049
O O5 0.329883 0.450026 0.586610
O O6 0.325024 0.673519 0.618672
O O7 0.330754 0.495422 0.693584
O O8 0.272736 0.160691 0.052302
O O9 0.166202 0.161089 0.992267
O O10 0.602476 0.178524 0.432744
O O11 0.773876 0.820739 0.750000
O O12 0.736107 0.068712 0.750000
O O13 0.909458 0.500000 0.500000
O O14 0.000000 0.449059 0.573540
#
# Coordination Sequence:
#
# PCOD8255562 Si02
#       7
#    16  16  16  16   8  16   8
#     4  10  19  32  51  78 107 141 179 215 271 323
#     4  10  19  30  51  80 114 139 174 220 277 332
#     4  10  17  29  51  78 113 135 168 218 267 330
#     4  10  20  30  51  80 108 142 175 221 271 327
#     4  10  20  32  50  83 116 156 174 219 291 340
#     4  11  22  37  55  76 108 143 182 225 269 328
#     4  10  20  32  53  77 118 144 185 225 271 340
#
# _framework density 17.200761
#
# number of rings (size 3 to 8) (size 9 to 14) (size 15 to 20)
#    0.000    1.833    5.000    0.500    0.000    0.000 
#    0.000    0.417    0.000    3.000    0.000    0.000 
#    0.000    0.000    0.000    0.000    0.000    0.000 
#
# Total GULP energy -594770.347549 kJ/mol
# GULP energy per Si atom -12391.048907 kJ/mol
# Density = 1.716161 g / cm^3
# Si number density = 17.200761 Si / 1000 Ang^3
#
#
#
# Elastic Constant Matrix: (Units=GPa)
#
#
# Indices 1 2 3 4 5 6 
#
# 1 63.8239 38.0612 33.6592 0.0000 0.0000 0.0000
# 2 38.0612 90.7214 45.5595 0.0000 0.0000 0.0000
# 3 33.6592 45.5595 120.4637 0.0000 0.0000 0.0000
# 4 0.0000 0.0000 0.0000 32.3514 0.0000 0.0000
# 5 0.0000 0.0000 0.0000 0.0000 13.1267 0.0000
# 6 0.0000 0.0000 0.0000 0.0000 0.0000 20.6090
#
#
#
# Elastic Compliance Matrix: (Units=1/GPa)
#
#
# Indices 1 2 3 4 5 6 
#
# 1 0.021888 -0.007544 -0.003262 0.000000 0.000000 0.000000
# 2 -0.007544 0.016208 -0.004022 0.000000 0.000000 0.000000
# 3 -0.003262 -0.004022 0.010734 0.000000 0.000000 0.000000
# 4 0.000000 0.000000 0.000000 0.030911 0.000000 0.000000
# 5 0.000000 0.000000 0.000000 0.000000 0.076181 0.000000
# 6 0.000000 0.000000 0.000000 0.000000 0.000000 0.048522
#
#
# Mechanical properties :
#
#
# Convention : Reuss Voigt Hill
#
# Bulk Modulus (GPa) = 52.15922 56.61876 54.38899
# Shear Modulus (GPa) = 20.79084 23.73269 22.26177
#
# Velocity S-wave (km/s) = 3.48043 3.71852 3.60145
# Velocity P-wave (km/s) = 6.82208 7.17108 6.99876
#
# Compressibility (1/GPa) = 0.01917206
#
# Stress axis : x y z
#
# Youngs Moduli (GPa) = 45.68767 61.69936 93.16328
#
# Poissons Ratio (x) = 0.46549 0.30394
# Poissons Ratio (y) = 0.34469 0.37468
# Poissons Ratio (z) = 0.14905 0.24814
#
# Static dielectric constant tensor:
#      x y z
#    x 2.657640 0.000000 0.000000 
#    y 0.000000 3.237960 0.000000 
#    z 0.000000 0.000000 3.731240 
# 
# 
# High freq. dielectric constant tensor:
#      x y z
#    x 1.586960 0.000000 0.000000 
#    y 0.000000 1.674080 0.000000 
#    z 0.000000 0.000000 1.686440 
# 
# From -- ./inp_files/70453.got.cif
#   From: 2010.03.12/outbox.cif.g09.slc.cpg/sg63_36_cif.got.tgz:70453.got - 2010.04.10 19:34:48.
