data_PCOD8255342
_publ_section_title
;
Structure prediction by ZEFSAII (Michael W. Deem and Ramdas Pophale) SiO2 
 PCOD8255342
Probable space group: C M C M
;
_chemical_formula_sum "Si O2"
_cell_formula_units_Z 88
_cell_length_a 26.052576
_cell_length_b 27.932725
_cell_length_c 8.620522
_cell_angle_alpha 90.000000
_cell_angle_beta 90.000000
_cell_angle_gamma 90.000000
_cell_volume 6273.321451
_symmetry_space_group_name_H-M "C M C M"
_symmetry_group_IT_number 63
_symmetry_cell_setting 'orthorhombic'
loop_
_space_group_symop_operation_xyz
x,y,z
-x,-y,1/2+z
x,-y,-z
-x,y,1/2-z
-x,-y,-z
x,y,1/2-z
-x,y,z
x,-y,1/2+z
1/2+x,1/2+y,z
1/2-x,1/2-y,1/2+z
1/2+x,1/2-y,-z
1/2-x,1/2+y,1/2-z
1/2-x,1/2-y,-z
1/2+x,1/2+y,1/2-z
1/2-x,1/2+y,z
1/2+x,1/2-y,1/2+z
loop_
_atom_site_type_symbol
_atom_site_label
_atom_site_fract_x
_atom_site_fract_y
_atom_site_fract_z
Si Si1 0.801256 0.274486 0.434118
Si Si2 0.500000 0.447232 0.432970
Si Si3 0.298331 0.449885 0.927919
Si Si4 0.400584 0.397560 0.934132
Si Si5 0.851107 0.810074 0.068231
Si Si6 0.749191 0.645310 0.069356
O O1 0.801370 0.276418 0.250000
O O2 0.750000 0.250000 0.500000
O O3 0.850090 0.243777 0.495007
O O4 0.801094 0.328921 0.505260
O O5 0.500000 0.500000 0.500000
O O6 0.500000 0.450699 0.250000
O O7 0.549570 0.419189 0.488896
O O8 0.308014 0.459933 0.750000
O O9 0.351576 0.428257 0.994741
O O10 0.251245 0.412265 0.953676
O O11 0.282209 0.500000 0.000000
O O12 0.405351 0.398731 0.750000
O O13 0.395264 0.342371 0.989260
O O14 0.861401 0.806397 0.250000
O O15 0.796952 0.834562 0.033404
O O16 0.739667 0.658097 0.250000
#
# Coordination Sequence:
#
# PCOD8255342 Si02
#       6
#    16   8  16  16  16  16
#     4  10  16  23  36  54  73  94 116 142 176 217
#     4  12  24  36  48  62  76  96 124 158 199 240
#     4   9  18  28  40  54  71  94 122 154 189 224
#     4  10  20  34  46  58  74  94 121 157 195 234
#     4  10  17  26  40  57  74  93 114 143 182 226
#     4   9  16  26  36  51  73  96 120 148 180 217
#
# _framework density 14.027656
#
# number of rings (size 3 to 8) (size 9 to 14) (size 15 to 20)
#    0.000    2.182    0.000    9.000    0.000    5.818 
#    0.000    0.000    0.000    0.000    0.000    0.000 
#    0.000    0.000    0.000    0.000    0.000    0.000 
#
# Total GULP energy -545180.672597 kJ/mol
# GULP energy per Si atom -12390.469832 kJ/mol
# Density = 1.399573 g / cm^3
# Si number density = 14.027656 Si / 1000 Ang^3
#
#
#
# Elastic Constant Matrix: (Units=GPa)
#
#
# Indices 1 2 3 4 5 6 
#
# 1 37.5975 51.9223 24.4403 0.0000 0.0000 0.0000
# 2 51.9223 121.8551 48.3929 0.0000 0.0000 0.0000
# 3 24.4403 48.3929 95.6553 0.0000 0.0000 0.0000
# 4 0.0000 0.0000 0.0000 27.0095 0.0000 0.0000
# 5 0.0000 0.0000 0.0000 0.0000 16.0297 0.0000
# 6 0.0000 0.0000 0.0000 0.0000 0.0000 38.0297
#
#
#
# Elastic Compliance Matrix: (Units=1/GPa)
#
#
# Indices 1 2 3 4 5 6 
#
# 1 0.065434 -0.026583 -0.003270 0.000000 0.000000 0.000000
# 2 -0.026583 0.021069 -0.003867 0.000000 0.000000 0.000000
# 3 -0.003270 -0.003867 0.013246 0.000000 0.000000 0.000000
# 4 0.000000 0.000000 0.000000 0.037024 0.000000 0.000000
# 5 0.000000 0.000000 0.000000 0.000000 0.062384 0.000000
# 6 0.000000 0.000000 0.000000 0.000000 0.000000 0.026295
#
#
# Mechanical properties :
#
#
# Convention : Reuss Voigt Hill
#
# Bulk Modulus (GPa) = 30.95072 56.06874 43.50973
# Shear Modulus (GPa) = 16.46565 24.90395 20.68480
#
# Velocity S-wave (km/s) = 3.42979 4.21806 3.84418
# Velocity P-wave (km/s) = 6.14789 7.98621 7.12658
#
# Compressibility (1/GPa) = 0.03230942
#
# Stress axis : x y z
#
# Youngs Moduli (GPa) = 15.28253 47.46295 75.49371
#
# Poissons Ratio (x) = 1.26169 0.24688
# Poissons Ratio (y) = 0.40625 0.29194
# Poissons Ratio (z) = 0.04998 0.18354
#
# Static dielectric constant tensor:
#      x y z
#    x 2.553700 0.000000 0.000000 
#    y 0.000000 3.506990 0.000000 
#    z 0.000000 0.000000 3.074580 
# 
# 
# High freq. dielectric constant tensor:
#      x y z
#    x 1.464050 0.000000 0.000000 
#    y 0.000000 1.540120 0.000000 
#    z 0.000000 0.000000 1.555210 
# 
# From -- ./inp_files/14805.got.cif
#   From: 2010.03.12/outbox.cif.g09.slc.cpg/sg63_8_cif.got.tgz:14805.got - 2010.04.10 19:34:48.
