data_PCOD8255598
_publ_section_title
;
Structure prediction by ZEFSAII (Michael W. Deem and Ramdas Pophale) SiO2 
 PCOD8255598
Probable space group: C M C M
;
_chemical_formula_sum "Si O2"
_cell_formula_units_Z 104
_cell_length_a 14.008323
_cell_length_b 17.996465
_cell_length_c 19.411287
_cell_angle_alpha 90.000000
_cell_angle_beta 90.000000
_cell_angle_gamma 90.000000
_cell_volume 4893.591171
_symmetry_space_group_name_H-M "C M C M"
_symmetry_group_IT_number 63
_symmetry_cell_setting 'orthorhombic'
loop_
_space_group_symop_operation_xyz
x,y,z
-x,-y,1/2+z
x,-y,-z
-x,y,1/2-z
-x,-y,-z
x,y,1/2-z
-x,y,z
x,-y,1/2+z
1/2+x,1/2+y,z
1/2-x,1/2-y,1/2+z
1/2+x,1/2-y,-z
1/2-x,1/2+y,1/2-z
1/2-x,1/2-y,-z
1/2+x,1/2+y,1/2-z
1/2-x,1/2+y,z
1/2+x,1/2-y,1/2+z
loop_
_atom_site_type_symbol
_atom_site_label
_atom_site_fract_x
_atom_site_fract_y
_atom_site_fract_z
Si Si1 0.209013 0.190375 0.635974
Si Si2 0.266269 0.348190 0.621572
Si Si3 0.888703 0.096622 0.750000
Si Si4 0.298036 0.434310 0.750000
Si Si5 0.608469 0.288763 0.998723
Si Si6 0.396385 0.990427 0.750000
Si Si7 0.393194 0.885278 0.975186
Si Si8 0.393263 0.101206 0.625411
O O1 0.208262 0.278204 0.653883
O O2 0.137754 0.144978 0.684027
O O3 0.171787 0.175711 0.559088
O O4 0.317329 0.163694 0.645032
O O5 0.326419 0.392514 0.679684
O O6 0.347806 0.317995 0.571732
O O7 0.188284 0.401043 0.582127
O O8 0.000000 0.078558 0.750000
O O9 0.833754 0.018400 0.750000
O O10 0.182735 0.427304 0.750000
O O11 0.500000 0.316441 0.005521
O O12 0.615643 0.200197 0.000709
O O13 0.500000 0.952417 0.750000
O O14 0.381827 0.036645 0.680435
O O15 0.500000 0.901477 0.945104
O O16 0.377306 0.931067 0.047074
O O17 0.500000 0.136267 0.629868
#
# Coordination Sequence:
#
# PCOD8255598 Si02
#       8
#    16  16   8   8  16   8  16  16
#     4  11  19  40  67  94 120 160 209 256 302 361
#     4  11  22  38  61  94 125 157 200 257 318 368
#     4  12  27  46  63  84 123 175 225 259 291 359
#     4  12  27  42  59  83 125 168 204 255 317 366
#     4  10  19  34  59  91 126 160 199 251 309 366
#     4  10  22  40  58  81 116 159 203 244 302 377
#     4   9  17  33  59  93 126 151 188 248 315 371
#     4  10  17  32  63  94 117 148 194 249 304 364
#
# _framework density 21.252285000000001
#
# number of rings (size 3 to 8) (size 9 to 14) (size 15 to 20)
#    0.000    1.538    4.615    1.846    0.000    1.846 
#    0.000    3.846    0.000    4.615    0.000    0.000 
#    0.000    0.000    0.000    0.000    0.000    0.000 
#
# Total GULP energy -644643.151653 kJ/mol
# GULP energy per Si atom -12396.983686 kJ/mol
# Density = 2.120391 g / cm^3
# Si number density = 21.252285 Si / 1000 Ang^3
#
#
#
# Elastic Constant Matrix: (Units=GPa)
#
#
# Indices 1 2 3 4 5 6 
#
# 1 93.8213 1.9044 9.7537 0.0000 0.0000 0.0000
# 2 1.9044 39.6399 27.3739 0.0000 0.0000 0.0000
# 3 9.7537 27.3739 106.5307 0.0000 0.0000 0.0000
# 4 0.0000 0.0000 0.0000 19.2294 0.0000 0.0000
# 5 0.0000 0.0000 0.0000 0.0000 27.5282 0.0000
# 6 0.0000 0.0000 0.0000 0.0000 0.0000 22.6077
#
#
#
# Elastic Compliance Matrix: (Units=1/GPa)
#
#
# Indices 1 2 3 4 5 6 
#
# 1 0.010762 0.000199 -0.001036 0.000000 0.000000 0.000000
# 2 0.000199 0.030673 -0.007900 0.000000 0.000000 0.000000
# 3 -0.001036 -0.007900 0.011512 0.000000 0.000000 0.000000
# 4 0.000000 0.000000 0.000000 0.052004 0.000000 0.000000
# 5 0.000000 0.000000 0.000000 0.000000 0.036326 0.000000
# 6 0.000000 0.000000 0.000000 0.000000 0.000000 0.044233
#
#
# Mechanical properties :
#
#
# Convention : Reuss Voigt Hill
#
# Bulk Modulus (GPa) = 28.19143 35.33955 31.76549
# Shear Modulus (GPa) = 23.27650 27.27038 25.27344
#
# Velocity S-wave (km/s) = 3.31304 3.58603 3.45223
# Velocity P-wave (km/s) = 5.28478 5.81471 5.55607
#
# Compressibility (1/GPa) = 0.03547177
#
# Stress axis : x y z
#
# Youngs Moduli (GPa) = 92.91717 32.60204 86.86744
#
# Poissons Ratio (x) = -0.00648 0.09003
# Poissons Ratio (y) = -0.01846 0.68624
# Poissons Ratio (z) = 0.09630 0.25755
#
# Static dielectric constant tensor:
#      x y z
#    x 4.012610 0.000000 0.000000 
#    y 0.000000 3.507450 0.000000 
#    z 0.000000 0.000000 4.175090 
# 
# 
# High freq. dielectric constant tensor:
#      x y z
#    x 1.836550 0.000000 0.000000 
#    y 0.000000 1.803200 0.000000 
#    z 0.000000 0.000000 1.846310 
# 
# From -- ./inp_files/54540.got.cif
#   From: 2010.03.12/outbox.cif.g09.slc.cpg/sg63_28_cif.got.tgz:54540.got - 2010.04.10 19:34:48.
