data_PCOD8255604
_publ_section_title
;
Structure prediction by ZEFSAII (Michael W. Deem and Ramdas Pophale) SiO2 
 PCOD8255604
Probable space group: C M C M
;
_chemical_formula_sum "Si O2"
_cell_formula_units_Z 84
_cell_length_a 11.458072
_cell_length_b 14.575488
_cell_length_c 24.176191
_cell_angle_alpha 90.000000
_cell_angle_beta 90.000000
_cell_angle_gamma 90.000000
_cell_volume 4037.592911
_symmetry_space_group_name_H-M "C M C M"
_symmetry_group_IT_number 63
_symmetry_cell_setting 'orthorhombic'
loop_
_space_group_symop_operation_xyz
x,y,z
-x,-y,1/2+z
x,-y,-z
-x,y,1/2-z
-x,-y,-z
x,y,1/2-z
-x,y,z
x,-y,1/2+z
1/2+x,1/2+y,z
1/2-x,1/2-y,1/2+z
1/2+x,1/2-y,-z
1/2-x,1/2+y,1/2-z
1/2-x,1/2-y,-z
1/2+x,1/2+y,1/2-z
1/2-x,1/2+y,z
1/2+x,1/2-y,1/2+z
loop_
_atom_site_type_symbol
_atom_site_label
_atom_site_fract_x
_atom_site_fract_y
_atom_site_fract_z
Si Si1 0.000000 0.590330 0.250000
Si Si2 0.716832 0.207350 0.941907
Si Si3 0.000000 0.432220 0.867001
Si Si4 0.240789 0.680516 0.250000
Si Si5 0.500000 0.921155 0.454134
Si Si6 0.257606 0.625315 0.369022
Si Si7 0.135574 0.933601 0.372101
Si Si8 0.634458 0.633315 0.750000
O O1 0.000000 0.528409 0.304488
O O2 0.106071 0.658654 0.250000
O O3 0.611399 0.142170 0.957793
O O4 0.682340 0.293041 0.903157
O O5 0.815148 0.149387 0.909361
O O6 0.750000 0.250000 0.000000
O O7 0.883873 0.371008 0.877957
O O8 0.000000 0.528747 0.896201
O O9 0.299086 0.639437 0.305335
O O10 0.236458 0.790472 0.250000
O O11 0.500000 0.000000 0.500000
O O12 0.303282 0.527943 0.390962
O O13 0.157827 0.923306 0.306257
O O14 0.000000 0.939781 0.385862
O O15 0.500000 0.668710 0.750000
#
# Coordination Sequence:
#
# PCOD8255604 Si02
#       8
#     4  16   8   8   8  16  16   8
#     4   8  18  28  60 100 124 162 216 264 330 378
#     4  12  28  44  70  98 129 179 229 281 342 402
#     4  10  20  40  68  93 131 171 218 278 325 397
#     4  10  17  33  65  95 132 168 218 270 322 402
#     4  12  26  50  70  93 130 174 232 288 338 393
#     4  11  23  42  65 100 135 173 223 273 339 392
#     4  11  25  43  69  99 139 178 224 278 339 411
#     4  10  19  38  65 102 134 177 225 269 339 406
#
# _framework density 20.804473999999999
#
# number of rings (size 3 to 8) (size 9 to 14) (size 15 to 20)
#    0.000    1.143    4.286    1.714    4.000    0.000 
#    0.000    1.905    0.000    0.000    0.000    0.000 
#    0.000    0.000    0.000    0.000    0.000    0.000 
#
# Total GULP energy -520535.410237 kJ/mol
# GULP energy per Si atom -12393.700244 kJ/mol
# Density = 2.075712 g / cm^3
# Si number density = 20.804474 Si / 1000 Ang^3
#
#
#
# Elastic Constant Matrix: (Units=GPa)
#
#
# Indices 1 2 3 4 5 6 
#
# 1 88.6762 40.6096 41.7064 0.0000 0.0000 0.0000
# 2 40.6096 144.7082 67.5030 0.0000 0.0000 0.0000
# 3 41.7064 67.5030 142.8893 0.0000 0.0000 0.0000
# 4 0.0000 0.0000 0.0000 42.0530 0.0000 0.0000
# 5 0.0000 0.0000 0.0000 0.0000 -23.2176 0.0000
# 6 0.0000 0.0000 0.0000 0.0000 0.0000 41.0087
#
#
#
# Elastic Compliance Matrix: (Units=1/GPa)
#
#
# Indices 1 2 3 4 5 6 
#
# 1 0.013769 -0.002552 -0.002813 0.000000 0.000000 0.000000
# 2 -0.002552 0.009337 -0.003666 0.000000 0.000000 0.000000
# 3 -0.002813 -0.003666 0.009551 0.000000 0.000000 0.000000
# 4 0.000000 0.000000 0.000000 0.023779 0.000000 0.000000
# 5 0.000000 0.000000 0.000000 0.000000 -0.043071 0.000000
# 6 0.000000 0.000000 0.000000 0.000000 0.000000 0.024385
#
#
# Mechanical properties :
#
#
# Convention : Reuss Voigt Hill
#
# Bulk Modulus (GPa) = 68.51728 75.10133 71.80931
# Shear Modulus (GPa) = 82.40301 27.06581 54.73441
#
# Velocity S-wave (km/s) = 6.30034 3.61080 5.13479
# Velocity P-wave (km/s) = 9.26991 7.31853 8.35141
#
# Compressibility (1/GPa) = 0.01459486
#
# Stress axis : x y z
#
# Youngs Moduli (GPa) = 72.62860 107.10528 104.69582
#
# Poissons Ratio (x) = 0.27328 0.29455
# Poissons Ratio (y) = 0.18531 0.38382
# Poissons Ratio (z) = 0.20433 0.39265
#
# Static dielectric constant tensor:
#      x y z
#    x 3.686990 0.000000 0.000000 
#    y 0.000000 3.823000 0.000000 
#    z 0.000000 0.000000 4.227100 
# 
# 
# High freq. dielectric constant tensor:
#      x y z
#    x 1.794950 0.000000 0.000000 
#    y 0.000000 1.820870 0.000000 
#    z 0.000000 0.000000 1.826540 
# 
# From -- ./inp_files/61317.got.cif
#   From: 2010.03.12/outbox.cif.g09.slc.cpg/sg63_31_cif.got.tgz:61317.got - 2010.04.10 19:34:48.
