data_PCOD8255247
_publ_section_title
;
Structure prediction by ZEFSAII (Michael W. Deem and Ramdas Pophale) SiO2 
 PCOD8255247
Probable space group: P N M A
;
_chemical_formula_sum "Si O2"
_cell_formula_units_Z 40
_cell_length_a 8.955687
_cell_length_b 10.160819
_cell_length_c 19.625831
_cell_angle_alpha 90.000000
_cell_angle_beta 90.000000
_cell_angle_gamma 90.000000
_cell_volume 1785.893993
_symmetry_space_group_name_H-M "P N M A"
_symmetry_group_IT_number 62
_symmetry_cell_setting 'orthorhombic'
loop_
_space_group_symop_operation_xyz
x,y,z
1/2-x,-y,1/2+z
1/2+x,1/2-y,1/2-z
-x,1/2+y,-z
-x,-y,-z
1/2+x,y,1/2-z
1/2-x,1/2+y,1/2+z
x,1/2-y,z
loop_
_atom_site_type_symbol
_atom_site_label
_atom_site_fract_x
_atom_site_fract_y
_atom_site_fract_z
Si Si1 0.874318 0.526986 0.559403
Si Si2 0.650018 0.750000 0.516879
Si Si3 0.626811 0.750000 0.044813
Si Si4 0.696089 0.250000 0.889167
Si Si5 0.263699 0.520127 0.681923
Si Si6 0.459608 0.895413 0.792306
Si Si7 0.174306 0.250000 0.081106
O O1 0.736753 0.618919 0.540225
O O2 0.804846 0.382786 0.577019
O O3 0.948641 0.580290 0.627194
O O4 0.000000 0.500000 0.500000
O O5 0.654143 0.750000 0.434765
O O6 0.478609 0.750000 0.538170
O O7 0.445880 0.750000 0.058230
O O8 0.674228 0.750000 0.964559
O O9 0.699507 0.380765 0.843632
O O10 0.384103 0.498241 0.742096
O O11 0.329604 0.614188 0.623192
O O12 0.134561 0.597475 0.721818
O O13 0.399494 0.750000 0.773814
#
# Coordination Sequence:
#
# PCOD8255247 Si02
#       7
#     8   4   4   4   8   8   4
#     4  12  23  42  79 111 144 196 258 308 379 462
#     4  12  26  45  77 112 152 193 253 323 385 441
#     4  12  24  43  73 109 149 197 247 309 397 451
#     4  12  26  49  73 113 152 198 251 328 382 464
#     4  12  28  46  76 107 154 195 262 313 380 462
#     4  12  24  46  76 104 141 204 250 315 376 455
#     4  12  28  47  73 114 153 200 259 322 368 466
#
# _framework density 22.397746999999999
#
# number of rings (size 3 to 8) (size 9 to 14) (size 15 to 20)
#    0.000    0.000    7.000    2.400    2.800    4.800 
#    0.000    0.000    0.000    0.000    0.000    0.000 
#    0.000    0.000    0.000    0.000    0.000    0.000 
#
# Total GULP energy -495584.595496 kJ/mol
# GULP energy per Si atom -12389.614887 kJ/mol
# Density = 2.234677 g / cm^3
# Si number density = 22.397747 Si / 1000 Ang^3
#
#
#
# Elastic Constant Matrix: (Units=GPa)
#
#
# Indices 1 2 3 4 5 6 
#
# 1 108.9543 36.8700 71.7746 0.0000 0.0000 0.0000
# 2 36.8700 160.7838 22.9061 0.0000 0.0000 0.0000
# 3 71.7746 22.9061 107.5177 0.0000 0.0000 0.0000
# 4 0.0000 0.0000 0.0000 35.1363 0.0000 0.0000
# 5 0.0000 0.0000 0.0000 0.0000 44.0026 0.0000
# 6 0.0000 0.0000 0.0000 0.0000 0.0000 19.0117
#
#
#
# Elastic Compliance Matrix: (Units=1/GPa)
#
#
# Indices 1 2 3 4 5 6 
#
# 1 0.017225 -0.002384 -0.010991 0.000000 0.000000 0.000000
# 2 -0.002384 0.006744 0.000155 0.000000 0.000000 0.000000
# 3 -0.010991 0.000155 0.016605 0.000000 0.000000 0.000000
# 4 0.000000 0.000000 0.000000 0.028461 0.000000 0.000000
# 5 0.000000 0.000000 0.000000 0.000000 0.022726 0.000000
# 6 0.000000 0.000000 0.000000 0.000000 0.000000 0.052599
#
#
# Mechanical properties :
#
#
# Convention : Reuss Voigt Hill
#
# Bulk Modulus (GPa) = 70.75301 71.15082 70.95192
# Shear Modulus (GPa) = 28.48796 36.01045 32.24921
#
# Velocity S-wave (km/s) = 3.57026 4.01405 3.79864
# Velocity P-wave (km/s) = 6.97521 7.30201 7.14048
#
# Compressibility (1/GPa) = 0.01413367
#
# Stress axis : x y z
#
# Youngs Moduli (GPa) = 58.05363 148.27531 60.22265
#
# Poissons Ratio (x) = 0.35352 0.66191
# Poissons Ratio (y) = 0.13841 -0.00932
# Poissons Ratio (z) = 0.63807 -0.02295
#
# Static dielectric constant tensor:
#      x y z
#    x 3.877270 0.000000 0.000000 
#    y 0.000000 4.746840 0.000000 
#    z 0.000000 0.000000 4.009230 
# 
# 
# High freq. dielectric constant tensor:
#      x y z
#    x 1.870450 0.000000 0.000000 
#    y 0.000000 1.903300 0.000000 
#    z 0.000000 0.000000 1.876700 
# 
# From -- ./inp_files/21965.got.cif
#   From: 2010.03.12/outbox.cif.g09.slc.cpg/sg62_11_cif.got.tgz:21965.got - 2010.04.10 19:12:36.
