data_PCOD8255293
_publ_section_title
;
Structure prediction by ZEFSAII (Michael W. Deem and Ramdas Pophale) SiO2 
 PCOD8255293
Probable space group: P N M A
;
_chemical_formula_sum "Si O2"
_cell_formula_units_Z 64
_cell_length_a 8.396730
_cell_length_b 13.821482
_cell_length_c 31.566358
_cell_angle_alpha 90.000000
_cell_angle_beta 90.000000
_cell_angle_gamma 90.000000
_cell_volume 3663.441650
_symmetry_space_group_name_H-M "P N M A"
_symmetry_group_IT_number 62
_symmetry_cell_setting 'orthorhombic'
loop_
_space_group_symop_operation_xyz
x,y,z
1/2-x,-y,1/2+z
1/2+x,1/2-y,1/2-z
-x,1/2+y,-z
-x,-y,-z
1/2+x,y,1/2-z
1/2-x,1/2+y,1/2+z
x,1/2-y,z
loop_
_atom_site_type_symbol
_atom_site_label
_atom_site_fract_x
_atom_site_fract_y
_atom_site_fract_z
Si Si1 0.645925 0.859659 0.706444
Si Si2 0.969325 0.861889 0.464613
Si Si3 0.068701 0.476450 0.265107
Si Si4 0.625832 0.359074 0.356755
Si Si5 0.282718 0.359531 0.605893
Si Si6 0.242894 0.497118 0.482554
Si Si7 0.554980 0.469152 0.436981
Si Si8 0.727553 0.467356 0.810876
O O1 0.702570 0.750000 0.713574
O O2 0.797121 0.930469 0.704747
O O3 0.533122 0.888686 0.745554
O O4 0.549932 0.872007 0.662908
O O5 0.002092 0.750000 0.475203
O O6 0.882339 0.874268 0.419431
O O7 0.134511 0.919713 0.461798
O O8 0.861713 0.905790 0.502418
O O9 0.147223 0.541813 0.227920
O O10 0.952668 0.542717 0.293537
O O11 0.689050 0.250000 0.351218
O O12 0.609152 0.383279 0.406143
O O13 0.752499 0.428450 0.333688
O O14 0.344124 0.250000 0.601663
O O15 0.418084 0.427370 0.585727
O O16 0.256717 0.382593 0.655402
O O17 0.368286 0.459852 0.447682
O O18 0.338276 0.544166 0.521483
#
# Coordination Sequence:
#
# PCOD8255293 Si02
#       8
#     8   8   8   8   8   8   8   8
#     4   9  16  26  41  63  89 118 151 182 218 271
#     4   9  18  32  50  72  97 126 159 194 235 283
#     4   9  17  28  45  65  88 118 150 188 229 271
#     4   9  18  30  44  66  96 125 151 184 230 283
#     4   9  18  34  52  68  91 123 158 197 239 278
#     4   9  18  32  50  72  97 125 160 199 236 278
#     4   9  18  32  50  71  95 125 159 197 237 278
#     4   9  18  32  48  67  91 120 153 190 233 279
#
# _framework density 17.469912000000001
#
# number of rings (size 3 to 8) (size 9 to 14) (size 15 to 20)
#    0.000    3.000    0.000    0.375    0.000    6.000 
#    0.000    3.125    0.000    0.000    0.000    0.000 
#    0.000    0.000    0.000    0.000    0.000    0.000 
#
# Total GULP energy -793557.247099 kJ/mol
# GULP energy per Si atom -12399.331986 kJ/mol
# Density = 1.743015 g / cm^3
# Si number density = 17.469912 Si / 1000 Ang^3
#
#
#
# Elastic Constant Matrix: (Units=GPa)
#
#
# Indices 1 2 3 4 5 6 
#
# 1 74.5224 14.5889 18.2538 0.0000 0.0000 0.0000
# 2 14.5889 58.8497 17.7447 0.0000 0.0000 0.0000
# 3 18.2538 17.7447 68.3209 0.0000 0.0000 0.0000
# 4 0.0000 0.0000 0.0000 19.6842 0.0000 0.0000
# 5 0.0000 0.0000 0.0000 0.0000 18.4090 0.0000
# 6 0.0000 0.0000 0.0000 0.0000 0.0000 15.2285
#
#
#
# Elastic Compliance Matrix: (Units=1/GPa)
#
#
# Indices 1 2 3 4 5 6 
#
# 1 0.014737 -0.002676 -0.003242 0.000000 0.000000 0.000000
# 2 -0.002676 0.018922 -0.004200 0.000000 0.000000 0.000000
# 3 -0.003242 -0.004200 0.016594 0.000000 0.000000 0.000000
# 4 0.000000 0.000000 0.000000 0.050802 0.000000 0.000000
# 5 0.000000 0.000000 0.000000 0.000000 0.054321 0.000000
# 6 0.000000 0.000000 0.000000 0.000000 0.000000 0.065666
#
#
# Mechanical properties :
#
#
# Convention : Reuss Voigt Hill
#
# Bulk Modulus (GPa) = 33.31413 33.65200 33.48306
# Shear Modulus (GPa) = 19.89784 20.73804 20.31794
#
# Velocity S-wave (km/s) = 3.37854 3.44913 3.41401
# Velocity P-wave (km/s) = 5.85919 5.93015 5.89478
#
# Compressibility (1/GPa) = 0.03001730
#
# Stress axis : x y z
#
# Youngs Moduli (GPa) = 67.85740 52.84839 60.26318
#
# Poissons Ratio (x) = 0.14140 0.19540
# Poissons Ratio (y) = 0.18156 0.25309
# Poissons Ratio (z) = 0.22002 0.22195
#
# Static dielectric constant tensor:
#      x y z
#    x 3.274990 0.000000 0.000000 
#    y 0.000000 3.043550 0.000000 
#    z 0.000000 0.000000 3.283790 
# 
# 
# High freq. dielectric constant tensor:
#      x y z
#    x 1.670150 0.000000 0.000000 
#    y 0.000000 1.653460 0.000000 
#    z 0.000000 0.000000 1.673240 
# 
# From -- ./inp_files/32322.got.cif
#   From: 2010.03.12/outbox.cif.g09.slc.cpg/sg62_17_cif.got.tgz:32322.got - 2010.04.10 19:12:36.
