data_PCOD8255424
_publ_section_title
;
Structure prediction by ZEFSAII (Michael W. Deem and Ramdas Pophale) SiO2 
 PCOD8255424
Probable space group: C M C M
;
_chemical_formula_sum "Si O2"
_cell_formula_units_Z 80
_cell_length_a 9.175530
_cell_length_b 19.453917
_cell_length_c 26.124847
_cell_angle_alpha 90.000000
_cell_angle_beta 90.000000
_cell_angle_gamma 90.000000
_cell_volume 4663.285165
_symmetry_space_group_name_H-M "C M C M"
_symmetry_group_IT_number 63
_symmetry_cell_setting 'orthorhombic'
loop_
_space_group_symop_operation_xyz
x,y,z
-x,-y,1/2+z
x,-y,-z
-x,y,1/2-z
-x,-y,-z
x,y,1/2-z
-x,y,z
x,-y,1/2+z
1/2+x,1/2+y,z
1/2-x,1/2-y,1/2+z
1/2+x,1/2-y,-z
1/2-x,1/2+y,1/2-z
1/2-x,1/2-y,-z
1/2+x,1/2+y,1/2-z
1/2-x,1/2+y,z
1/2+x,1/2-y,1/2+z
loop_
_atom_site_type_symbol
_atom_site_label
_atom_site_fract_x
_atom_site_fract_y
_atom_site_fract_z
Si Si1 0.173497 0.629064 0.083676
Si Si2 0.171299 0.260162 0.114824
Si Si3 0.172331 0.632063 0.531411
Si Si4 0.326964 0.875090 0.193082
Si Si5 0.826563 0.521396 0.890259
O O1 0.242449 0.688831 0.118048
O O2 0.228795 0.556776 0.107055
O O3 0.000000 0.635291 0.085374
O O4 0.235811 0.635171 0.025830
O O5 0.217109 0.299864 0.062828
O O6 0.219442 0.305676 0.163604
O O7 0.000000 0.245227 0.115737
O O8 0.232557 0.564469 0.560827
O O9 0.000000 0.626195 0.528451
O O10 0.258031 0.875415 0.250000
O O11 0.500000 0.877846 0.196145
O O12 0.270386 0.942044 0.161875
O O13 0.000000 0.523455 0.891676
#
# Coordination Sequence:
#
# PCOD8255424 Si02
#       5
#    16  16  16  16  16
#     4  10  17  25  41  65  90 111 131 164 210 248
#     4   9  17  28  42  61  84 110 140 170 199 238
#     4   8  14  25  41  60  83 113 144 167 191 235
#     4   8  14  27  46  62  76 102 142 179 205 236
#     4   8  14  24  40  62  82 103 138 177 205 234
#
# _framework density 17.155287999999999
#
# number of rings (size 3 to 8) (size 9 to 14) (size 15 to 20)
#    0.000    3.400    0.000    3.600    0.000    2.400 
#    0.000    1.000    0.000    9.000    0.000    0.000 
#    0.000    0.000    0.000    0.000    0.000    0.000 
#
# Total GULP energy -495716.928580 kJ/mol
# GULP energy per Si atom -12392.923215 kJ/mol
# Density = 1.711624 g / cm^3
# Si number density = 17.155288 Si / 1000 Ang^3
#
#
#
# Elastic Constant Matrix: (Units=GPa)
#
#
# Indices 1 2 3 4 5 6 
#
# 1 13.4066 25.7744 12.4323 0.0000 0.0000 0.0000
# 2 25.7744 160.4029 67.6387 0.0000 0.0000 0.0000
# 3 12.4323 67.6387 125.8475 0.0000 0.0000 0.0000
# 4 0.0000 0.0000 0.0000 14.7956 0.0000 0.0000
# 5 0.0000 0.0000 0.0000 0.0000 9.5178 0.0000
# 6 0.0000 0.0000 0.0000 0.0000 0.0000 24.9391
#
#
#
# Elastic Compliance Matrix: (Units=1/GPa)
#
#
# Indices 1 2 3 4 5 6 
#
# 1 0.108227 -0.016657 -0.001739 0.000000 0.000000 0.000000
# 2 -0.016657 0.010625 -0.004065 0.000000 0.000000 0.000000
# 3 -0.001739 -0.004065 0.010303 0.000000 0.000000 0.000000
# 4 0.000000 0.000000 0.000000 0.067588 0.000000 0.000000
# 5 0.000000 0.000000 0.000000 0.000000 0.105066 0.000000
# 6 0.000000 0.000000 0.000000 0.000000 0.000000 0.040098
#
#
# Mechanical properties :
#
#
# Convention : Reuss Voigt Hill
#
# Bulk Modulus (GPa) = 11.87194 56.81641 34.34417
# Shear Modulus (GPa) = 12.05093 22.77127 17.41110
#
# Velocity S-wave (km/s) = 2.65327 3.64725 3.18922
# Velocity P-wave (km/s) = 4.04002 7.13634 5.79867
#
# Compressibility (1/GPa) = 0.08423223
#
# Stress axis : x y z
#
# Youngs Moduli (GPa) = 9.23986 94.11745 97.06171
#
# Poissons Ratio (x) = 1.56774 0.16878
# Poissons Ratio (y) = 0.15391 0.39456
# Poissons Ratio (z) = 0.01607 0.38259
#
# Static dielectric constant tensor:
#      x y z
#    x 2.542820 0.000000 0.000000 
#    y 0.000000 3.341450 0.000000 
#    z 0.000000 0.000000 3.557350 
# 
# 
# High freq. dielectric constant tensor:
#      x y z
#    x 1.594200 0.000000 0.000000 
#    y 0.000000 1.670490 0.000000 
#    z 0.000000 0.000000 1.655050 
# 
# From -- ./inp_files/61081.got.cif
#   From: 2010.03.12/outbox.cif.g09.slc.cpg/sg63_31_cif.got.tgz:61081.got - 2010.04.10 19:34:48.
