data_PCOD8255691
_publ_section_title
;
Structure prediction by ZEFSAII (Michael W. Deem and Ramdas Pophale) SiO2 
 PCOD8255691
Probable space group: C M C M
;
_chemical_formula_sum "Si O2"
_cell_formula_units_Z 80
_cell_length_a 14.367102
_cell_length_b 23.702556
_cell_length_c 14.130782
_cell_angle_alpha 90.000000
_cell_angle_beta 90.000000
_cell_angle_gamma 90.000000
_cell_volume 4812.054671
_symmetry_space_group_name_H-M "C M C M"
_symmetry_group_IT_number 63
_symmetry_cell_setting 'orthorhombic'
loop_
_space_group_symop_operation_xyz
x,y,z
-x,-y,1/2+z
x,-y,-z
-x,y,1/2-z
-x,-y,-z
x,y,1/2-z
-x,y,z
x,-y,1/2+z
1/2+x,1/2+y,z
1/2-x,1/2-y,1/2+z
1/2+x,1/2-y,-z
1/2-x,1/2+y,1/2-z
1/2-x,1/2-y,-z
1/2+x,1/2+y,1/2-z
1/2-x,1/2+y,z
1/2+x,1/2-y,1/2+z
loop_
_atom_site_type_symbol
_atom_site_label
_atom_site_fract_x
_atom_site_fract_y
_atom_site_fract_z
Si Si1 0.210844 0.142369 0.141165
Si Si2 0.610064 0.590149 0.645182
Si Si3 0.895810 0.698888 0.357914
Si Si4 0.609172 0.307418 0.020854
Si Si5 0.603615 0.533198 0.137559
O O1 0.181878 0.151855 0.250000
O O2 0.322528 0.147890 0.127708
O O3 0.177369 0.080673 0.105856
O O4 0.159466 0.191059 0.080933
O O5 0.654644 0.595590 0.750000
O O6 0.500000 0.596813 0.653885
O O7 0.650542 0.640046 0.580664
O O8 0.633370 0.528734 0.598217
O O9 0.892005 0.721416 0.250000
O O10 0.866391 0.749807 0.425962
O O11 0.000000 0.676779 0.381682
O O12 0.500000 0.313350 0.004640
O O13 0.599836 0.526996 0.250000
O O14 0.500000 0.550142 0.100157
#
# Coordination Sequence:
#
# PCOD8255691 Si02
#       5
#    16  16  16  16  16
#     4  10  19  29  41  59  86 115 139 165 200 244
#     4   8  14  25  41  62  88 114 137 163 197 239
#     4   9  18  32  47  61  78 103 140 183 214 234
#     4  10  18  27  43  65  87 111 136 163 201 249
#     4   8  14  25  40  60  88 115 135 159 194 241
#
# _framework density 16.624915000000001
#
# number of rings (size 3 to 8) (size 9 to 14) (size 15 to 20)
#    0.000    3.000    0.000    3.000    0.000    4.400 
#    0.000    3.000    0.000    0.000    0.000    2.800 
#    0.000    1.600    0.000    2.000    0.000    0.000 
#
# Total GULP energy -495754.011740 kJ/mol
# GULP energy per Si atom -12393.850294 kJ/mol
# Density = 1.658708 g / cm^3
# Si number density = 16.624915 Si / 1000 Ang^3
#
#
#
# Elastic Constant Matrix: (Units=GPa)
#
#
# Indices 1 2 3 4 5 6 
#
# 1 71.0781 53.3657 24.6538 0.0000 0.0000 0.0000
# 2 53.3657 83.1456 21.9679 0.0000 0.0000 0.0000
# 3 24.6538 21.9679 42.8589 0.0000 0.0000 0.0000
# 4 0.0000 0.0000 0.0000 17.5738 0.0000 0.0000
# 5 0.0000 0.0000 0.0000 0.0000 16.6643 0.0000
# 6 0.0000 0.0000 0.0000 0.0000 0.0000 17.2606
#
#
#
# Elastic Compliance Matrix: (Units=1/GPa)
#
#
# Indices 1 2 3 4 5 6 
#
# 1 0.029568 -0.016753 -0.008422 0.000000 0.000000 0.000000
# 2 -0.016753 0.023403 -0.002359 0.000000 0.000000 0.000000
# 3 -0.008422 -0.002359 0.029386 0.000000 0.000000 0.000000
# 4 0.000000 0.000000 0.000000 0.056903 0.000000 0.000000
# 5 0.000000 0.000000 0.000000 0.000000 0.060008 0.000000
# 6 0.000000 0.000000 0.000000 0.000000 0.000000 0.057935
#
#
# Mechanical properties :
#
#
# Convention : Reuss Voigt Hill
#
# Bulk Modulus (GPa) = 36.64286 44.11748 40.38017
# Shear Modulus (GPa) = 15.55855 16.77276 16.16565
#
# Velocity S-wave (km/s) = 3.06250 3.17975 3.12168
# Velocity P-wave (km/s) = 5.88166 6.33054 6.11022
#
# Compressibility (1/GPa) = 0.02729045
#
# Stress axis : x y z
#
# Youngs Moduli (GPa) = 33.82014 42.72992 34.03006
#
# Poissons Ratio (x) = 0.71585 0.28659
# Poissons Ratio (y) = 0.56658 0.08027
# Poissons Ratio (z) = 0.28482 0.10079
#
# Static dielectric constant tensor:
#      x y z
#    x 2.903170 0.000000 0.000000 
#    y 0.000000 3.173250 0.000000 
#    z 0.000000 0.000000 3.248400 
# 
# 
# High freq. dielectric constant tensor:
#      x y z
#    x 1.597090 0.000000 0.000000 
#    y 0.000000 1.628160 0.000000 
#    z 0.000000 0.000000 1.648880 
# 
# From -- ./inp_files/29724.got.cif
#   From: 2010.03.12/outbox.cif.g09.slc.cpg/sg63_15_cif.got.tgz:29724.got - 2010.04.10 19:34:48.
