data_PCOD8255848
_publ_section_title
;
Structure prediction by ZEFSAII (Michael W. Deem and Ramdas Pophale) SiO2 
 PCOD8255848
Probable space group: C M C M
;
_chemical_formula_sum "Si O2"
_cell_formula_units_Z 96
_cell_length_a 25.831400
_cell_length_b 9.763745
_cell_length_c 24.202360
_cell_angle_alpha 90.000000
_cell_angle_beta 90.000000
_cell_angle_gamma 90.000000
_cell_volume 6104.106321
_symmetry_space_group_name_H-M "C M C M"
_symmetry_group_IT_number 63
_symmetry_cell_setting 'orthorhombic'
loop_
_space_group_symop_operation_xyz
x,y,z
-x,-y,1/2+z
x,-y,-z
-x,y,1/2-z
-x,-y,-z
x,y,1/2-z
-x,y,z
x,-y,1/2+z
1/2+x,1/2+y,z
1/2-x,1/2-y,1/2+z
1/2+x,1/2-y,-z
1/2-x,1/2+y,1/2-z
1/2-x,1/2-y,-z
1/2+x,1/2+y,1/2-z
1/2-x,1/2+y,z
1/2+x,1/2-y,1/2+z
loop_
_atom_site_type_symbol
_atom_site_label
_atom_site_fract_x
_atom_site_fract_y
_atom_site_fract_z
Si Si1 0.363723 0.089748 0.186211
Si Si2 0.670641 0.363951 0.362471
Si Si3 0.057824 0.636247 0.815678
Si Si4 0.739699 0.626488 0.539646
Si Si5 0.784434 0.630429 0.652614
Si Si6 0.638329 0.640999 0.185247
O O1 0.370917 0.128086 0.250000
O O2 0.362478 0.229496 0.151625
O O3 0.411887 0.999289 0.163728
O O4 0.311480 0.001408 0.179289
O O5 0.684721 0.360878 0.427867
O O6 0.724481 0.365572 0.327191
O O7 0.637793 0.499085 0.348171
O O8 0.056508 0.633133 0.750000
O O9 0.088238 0.772627 0.834679
O O10 0.000000 0.637658 0.840826
O O11 0.738885 0.500000 0.500000
O O12 0.750000 0.750000 0.500000
O O13 0.785542 0.616846 0.585541
O O14 0.810428 0.771771 0.671674
O O15 0.636029 0.609006 0.250000
#
# Coordination Sequence:
#
# PCOD8255848 Si02
#       6
#    16  16  16  16  16  16
#     4  10  18  29  44  66  95 121 148 180 217 261
#     4  10  20  28  42  68  93 121 149 190 210 270
#     4   8  16  31  48  62  84 122 157 183 217 264
#     4  10  19  32  44  58  89 125 154 188 219 246
#     4   9  19  29  43  64  89 127 154 183 201 275
#     4  10  18  29  44  66  95 122 152 184 219 265
#
# _framework density 15.727119
#
# number of rings (size 3 to 8) (size 9 to 14) (size 15 to 20)
#    1.000    1.500    0.000    5.000    0.000    4.000 
#    0.000    0.833    0.000    4.000    0.000    0.000 
#    0.000   84.000    0.000    0.000    0.000    0.000 
#
# Total GULP energy -594873.869146 kJ/mol
# GULP energy per Si atom -12393.205607 kJ/mol
# Density = 1.569132 g / cm^3
# Si number density = 15.727119 Si / 1000 Ang^3
#
#
#
# Elastic Constant Matrix: (Units=GPa)
#
#
# Indices 1 2 3 4 5 6 
#
# 1 85.0440 43.0524 4.7665 0.0000 0.0000 0.0000
# 2 43.0524 148.5157 35.0366 0.0000 0.0000 0.0000
# 3 4.7665 35.0366 57.3776 0.0000 0.0000 0.0000
# 4 0.0000 0.0000 0.0000 29.0125 0.0000 0.0000
# 5 0.0000 0.0000 0.0000 0.0000 4.0705 0.0000
# 6 0.0000 0.0000 0.0000 0.0000 0.0000 11.2658
#
#
#
# Elastic Compliance Matrix: (Units=1/GPa)
#
#
# Indices 1 2 3 4 5 6 
#
# 1 0.013894 -0.004387 0.001525 0.000000 0.000000 0.000000
# 2 -0.004387 0.009252 -0.005285 0.000000 0.000000 0.000000
# 3 0.001525 -0.005285 0.020529 0.000000 0.000000 0.000000
# 4 0.000000 0.000000 0.000000 0.034468 0.000000 0.000000
# 5 0.000000 0.000000 0.000000 0.000000 0.245672 0.000000
# 6 0.000000 0.000000 0.000000 0.000000 0.000000 0.088764
#
#
# Mechanical properties :
#
#
# Convention : Reuss Voigt Hill
#
# Bulk Modulus (GPa) = 36.52318 50.73873 43.63095
# Shear Modulus (GPa) = 11.41551 22.74188 17.07869
#
# Velocity S-wave (km/s) = 2.69708 3.80680 3.29893
# Velocity P-wave (km/s) = 5.74217 7.18709 6.50487
#
# Compressibility (1/GPa) = 0.02737988
#
# Stress axis : x y z
#
# Youngs Moduli (GPa) = 71.97220 108.08510 48.71168
#
# Poissons Ratio (x) = 0.47422 -0.07428
# Poissons Ratio (y) = 0.31578 0.25744
# Poissons Ratio (z) = -0.10975 0.57124
#
# Static dielectric constant tensor:
#      x y z
#    x 2.954180 0.000000 0.000000 
#    y 0.000000 3.022290 0.000000 
#    z 0.000000 0.000000 2.852570 
# 
# 
# High freq. dielectric constant tensor:
#      x y z
#    x 1.571030 0.000000 0.000000 
#    y 0.000000 1.617420 0.000000 
#    z 0.000000 0.000000 1.579180 
# 
# From -- ./inp_files/70627.got.cif
#   From: 2010.03.12/outbox.cif.g09.slc.cpg/sg63_36_cif.got.tgz:70627.got - 2010.04.10 19:34:48.
