data_PCOD8255724
_publ_section_title
;
Structure prediction by ZEFSAII (Michael W. Deem and Ramdas Pophale) SiO2 
 PCOD8255724
Probable space group: C M C M
;
_chemical_formula_sum "Si O2"
_cell_formula_units_Z 80
_cell_length_a 22.846230
_cell_length_b 28.624648
_cell_length_c 8.990555
_cell_angle_alpha 90.000000
_cell_angle_beta 90.000000
_cell_angle_gamma 90.000000
_cell_volume 5879.510925
_symmetry_space_group_name_H-M "C M C M"
_symmetry_group_IT_number 63
_symmetry_cell_setting 'orthorhombic'
loop_
_space_group_symop_operation_xyz
x,y,z
-x,-y,1/2+z
x,-y,-z
-x,y,1/2-z
-x,-y,-z
x,y,1/2-z
-x,y,z
x,-y,1/2+z
1/2+x,1/2+y,z
1/2-x,1/2-y,1/2+z
1/2+x,1/2-y,-z
1/2-x,1/2+y,1/2-z
1/2-x,1/2-y,-z
1/2+x,1/2+y,1/2-z
1/2-x,1/2+y,z
1/2+x,1/2-y,1/2+z
loop_
_atom_site_type_symbol
_atom_site_label
_atom_site_fract_x
_atom_site_fract_y
_atom_site_fract_z
Si Si1 0.566893 0.272120 0.923705
Si Si2 0.666297 0.776249 0.582846
Si Si3 0.265803 0.679145 0.917854
Si Si4 0.432544 0.548262 0.924573
Si Si5 0.131689 0.866908 0.575078
O O1 0.574674 0.262688 0.750000
O O2 0.500000 0.268385 0.975399
O O3 0.589646 0.323622 0.964617
O O4 0.603143 0.232312 0.009117
O O5 0.657182 0.794583 0.750000
O O6 0.702348 0.728632 0.581629
O O7 0.701688 0.815461 0.490920
O O8 0.258855 0.660287 0.750000
O O9 0.303073 0.642596 0.014775
O O10 0.421113 0.544530 0.750000
O O11 0.500000 0.559709 0.960703
O O12 0.413591 0.500000 0.000000
O O13 0.392814 0.588279 0.992710
O O14 0.134438 0.876246 0.750000
#
# Coordination Sequence:
#
# PCOD8255724 Si02
#       5
#    16  16  16  16  16
#     4   9  17  27  38  53  74 100 127 155 189 227
#     4   9  16  25  37  53  72  94 121 153 187 221
#     4   9  16  26  39  54  72  94 120 151 187 225
#     4  10  20  32  44  57  74  97 125 157 194 234
#     4  10  18  28  42  58  75  95 123 159 195 229
#
# _framework density 13.606574
#
# number of rings (size 3 to 8) (size 9 to 14) (size 15 to 20)
#    0.000    2.600    0.000    3.000    0.000    8.000 
#    0.000    0.000    0.000    0.000    0.000    0.000 
#    0.000    0.000    0.000    0.000    0.000    1.000 
#
# Total GULP energy -496015.460499 kJ/mol
# GULP energy per Si atom -12400.386512 kJ/mol
# Density = 1.357561 g / cm^3
# Si number density = 13.606574 Si / 1000 Ang^3
#
#
#
# Elastic Constant Matrix: (Units=GPa)
#
#
# Indices 1 2 3 4 5 6 
#
# 1 95.2361 46.1538 48.6698 0.0000 0.0000 0.0000
# 2 46.1538 50.9261 35.3727 0.0000 0.0000 0.0000
# 3 48.6698 35.3727 84.1435 0.0000 0.0000 0.0000
# 4 0.0000 0.0000 0.0000 21.0857 0.0000 0.0000
# 5 0.0000 0.0000 0.0000 0.0000 24.9096 0.0000
# 6 0.0000 0.0000 0.0000 0.0000 0.0000 11.4675
#
#
#
# Elastic Compliance Matrix: (Units=1/GPa)
#
#
# Indices 1 2 3 4 5 6 
#
# 1 0.020502 -0.014610 -0.005717 0.000000 0.000000 0.000000
# 2 -0.014610 0.038146 -0.007585 0.000000 0.000000 0.000000
# 3 -0.005717 -0.007585 0.018380 0.000000 0.000000 0.000000
# 4 0.000000 0.000000 0.000000 0.047426 0.000000 0.000000
# 5 0.000000 0.000000 0.000000 0.000000 0.040145 0.000000
# 6 0.000000 0.000000 0.000000 0.000000 0.000000 0.087203
#
#
# Mechanical properties :
#
#
# Convention : Reuss Voigt Hill
#
# Bulk Modulus (GPa) = 47.16201 54.52203 50.84202
# Shear Modulus (GPa) = 15.88846 18.16652 17.02749
#
# Velocity S-wave (km/s) = 3.42088 3.65790 3.54137
# Velocity P-wave (km/s) = 7.09504 7.61562 7.35994
#
# Compressibility (1/GPa) = 0.02120351
#
# Stress axis : x y z
#
# Youngs Moduli (GPa) = 48.77523 26.21517 54.40705
#
# Poissons Ratio (x) = 0.38300 0.31104
# Poissons Ratio (y) = 0.71261 0.41269
# Poissons Ratio (z) = 0.27884 0.19885
#
# Static dielectric constant tensor:
#      x y z
#    x 2.716570 0.000000 0.000000 
#    y 0.000000 2.396160 0.000000 
#    z 0.000000 0.000000 2.880500 
# 
# 
# High freq. dielectric constant tensor:
#      x y z
#    x 1.506180 0.000000 0.000000 
#    y 0.000000 1.469220 0.000000 
#    z 0.000000 0.000000 1.538700 
# 
# From -- ./inp_files/6660.got.cif
#   From: 2010.03.12/outbox.cif.g09.slc.cpg/sg63_4_cif.got.tgz:6660.got - 2010.04.10 19:34:48.
