data_PCOD8255160
_publ_section_title
;
Structure prediction by ZEFSAII (Michael W. Deem and Ramdas Pophale) SiO2 
 PCOD8255160
Probable space group: P N M A
;
_chemical_formula_sum "Si O2"
_cell_formula_units_Z 40
_cell_length_a 18.275378
_cell_length_b 8.421635
_cell_length_c 12.115583
_cell_angle_alpha 90.000000
_cell_angle_beta 90.000000
_cell_angle_gamma 90.000000
_cell_volume 1864.691969
_symmetry_space_group_name_H-M "P N M A"
_symmetry_group_IT_number 62
_symmetry_cell_setting 'orthorhombic'
loop_
_space_group_symop_operation_xyz
x,y,z
1/2-x,-y,1/2+z
1/2+x,1/2-y,1/2-z
-x,1/2+y,-z
-x,-y,-z
1/2+x,y,1/2-z
1/2-x,1/2+y,1/2+z
x,1/2-y,z
loop_
_atom_site_type_symbol
_atom_site_label
_atom_site_fract_x
_atom_site_fract_y
_atom_site_fract_z
Si Si1 0.617155 0.434848 0.683449
Si Si2 0.065606 0.566436 0.427934
Si Si3 0.160368 0.566687 0.041877
Si Si4 0.188786 0.567544 0.600735
Si Si5 0.961020 0.567290 0.805306
O O1 0.635739 0.250000 0.688356
O O2 0.663300 0.513600 0.585165
O O3 0.639415 0.517935 0.796610
O O4 0.530896 0.460162 0.665818
O O5 0.049925 0.750000 0.402910
O O6 0.141900 0.541396 0.490319
O O7 0.072102 0.473008 0.313827
O O8 0.000000 0.500000 0.500000
O O9 0.138922 0.750000 0.053133
O O10 0.239408 0.540162 0.095957
O O11 0.100243 0.461698 0.103330
O O12 0.212466 0.750000 0.612888
O O13 0.985332 0.750000 0.808591
#
# Coordination Sequence:
#
# PCOD8255160 Si02
#       5
#     8   8   8   8   8
#     4  12  25  45  71  99 135 176 224 276 334 399
#     4  11  23  41  68  99 135 174 222 273 330 394
#     4  12  27  46  69  98 136 179 224 276 339 401
#     4  11  25  45  68  99 136 176 223 275 335 398
#     4  12  25  44  70 100 136 176 226 278 334 398
#
# _framework density 21.451263999999998
#
# number of rings (size 3 to 8) (size 9 to 14) (size 15 to 20)
#    0.000    0.400    2.000    7.200    2.800    2.400 
#    0.000    0.000    0.000    0.000    0.000    0.000 
#    0.000    0.000    0.000    0.000    0.000    0.000 
#
# Total GULP energy -496422.668980 kJ/mol
# GULP energy per Si atom -12410.566724 kJ/mol
# Density = 2.140244 g / cm^3
# Si number density = 21.451264 Si / 1000 Ang^3
#
#
#
# Elastic Constant Matrix: (Units=GPa)
#
#
# Indices 1 2 3 4 5 6 
#
# 1 93.1282 14.3342 14.4983 0.0000 0.0000 0.0000
# 2 14.3342 91.4618 45.8576 0.0000 0.0000 0.0000
# 3 14.4983 45.8576 67.1436 0.0000 0.0000 0.0000
# 4 0.0000 0.0000 0.0000 38.4292 0.0000 0.0000
# 5 0.0000 0.0000 0.0000 0.0000 31.1822 0.0000
# 6 0.0000 0.0000 0.0000 0.0000 0.0000 35.8421
#
#
#
# Elastic Compliance Matrix: (Units=1/GPa)
#
#
# Indices 1 2 3 4 5 6 
#
# 1 0.011152 -0.000822 -0.001847 0.000000 0.000000 0.000000
# 2 -0.000822 0.016688 -0.011220 0.000000 0.000000 0.000000
# 3 -0.001847 -0.011220 0.022955 0.000000 0.000000 0.000000
# 4 0.000000 0.000000 0.000000 0.026022 0.000000 0.000000
# 5 0.000000 0.000000 0.000000 0.000000 0.032070 0.000000
# 6 0.000000 0.000000 0.000000 0.000000 0.000000 0.027900
#
#
# Mechanical properties :
#
#
# Convention : Reuss Voigt Hill
#
# Bulk Modulus (GPa) = 43.44451 44.56820 44.00636
# Shear Modulus (GPa) = 29.02988 32.89358 30.96173
#
# Velocity S-wave (km/s) = 3.68271 3.92013 3.80327
# Velocity P-wave (km/s) = 6.19514 6.42740 6.31234
#
# Compressibility (1/GPa) = 0.02301787
#
# Stress axis : x y z
#
# Youngs Moduli (GPa) = 89.67095 59.92377 43.56309
#
# Poissons Ratio (x) = 0.04925 0.08045
# Poissons Ratio (y) = 0.07370 0.48878
# Poissons Ratio (z) = 0.16560 0.67234
#
# Static dielectric constant tensor:
#      x y z
#    x 3.855620 0.000000 0.000000 
#    y 0.000000 3.658210 0.000000 
#    z 0.000000 0.000000 4.084040 
# 
# 
# High freq. dielectric constant tensor:
#      x y z
#    x 1.845200 0.000000 0.000000 
#    y 0.000000 1.856640 0.000000 
#    z 0.000000 0.000000 1.855950 
# 
# From -- ./inp_files/13844.got.cif
#   From: 2010.03.12/outbox.cif.g09.slc.cpg/sg62_7_cif.got.tgz:13844.got - 2010.04.10 19:12:36.
