data_PCOD8255065
_publ_section_title
;
Structure prediction by ZEFSAII (Michael W. Deem and Ramdas Pophale) SiO2 
 PCOD8255065
Probable space group: P N M A
;
_chemical_formula_sum "Si O2"
_cell_formula_units_Z 40
_cell_length_a 24.917746
_cell_length_b 9.179472
_cell_length_c 9.418773
_cell_angle_alpha 90.000000
_cell_angle_beta 90.000000
_cell_angle_gamma 90.000000
_cell_volume 2154.372447
_symmetry_space_group_name_H-M "P N M A"
_symmetry_group_IT_number 62
_symmetry_cell_setting 'orthorhombic'
loop_
_space_group_symop_operation_xyz
x,y,z
1/2-x,-y,1/2+z
1/2+x,1/2-y,1/2-z
-x,1/2+y,-z
-x,-y,-z
1/2+x,y,1/2-z
1/2-x,1/2+y,1/2+z
x,1/2-y,z
loop_
_atom_site_type_symbol
_atom_site_label
_atom_site_fract_x
_atom_site_fract_y
_atom_site_fract_z
Si Si1 0.902477 0.077912 0.827820
Si Si2 0.419280 0.077561 0.356921
Si Si3 0.486793 0.576031 0.852591
Si Si4 0.281553 0.084464 0.617625
Si Si5 0.803379 0.082744 0.205088
O O1 0.911686 0.250000 0.802810
O O2 0.839640 0.037398 0.822537
O O3 0.930316 0.984896 0.703869
O O4 0.926756 0.026441 0.979954
O O5 0.413438 0.250000 0.360485
O O6 0.468395 0.025290 0.260712
O O7 0.363606 0.014974 0.292051
O O8 0.484614 0.750000 0.870918
O O9 0.500000 0.500000 0.000000
O O10 0.271123 0.250000 0.659876
O O11 0.278587 0.061472 0.449879
O O12 0.233629 0.992582 0.680583
O O13 0.805831 0.250000 0.249055
#
# Coordination Sequence:
#
# PCOD8255065 Si02
#       5
#     8   8   8   8   8
#     4   9  18  36  57  74  98 133 171 210 253 299
#     4   8  17  35  56  74  97 134 173 209 252 301
#     4  11  22  35  52  77 106 134 168 209 257 307
#     4   9  19  34  52  76 104 133 166 207 254 299
#     4   9  18  34  54  75 101 134 172 209 248 300
#
# _framework density 18.566891999999999
#
# number of rings (size 3 to 8) (size 9 to 14) (size 15 to 20)
#    0.000    2.800    0.000    3.600    0.000    3.200 
#    0.000   12.000    0.000    0.000    0.000    0.000 
#    0.000    0.000    0.000    0.000    0.000    0.000 
#
# Total GULP energy -495898.026245 kJ/mol
# GULP energy per Si atom -12397.450656 kJ/mol
# Density = 1.852463 g / cm^3
# Si number density = 18.566892 Si / 1000 Ang^3
#
#
#
# Elastic Constant Matrix: (Units=GPa)
#
#
# Indices 1 2 3 4 5 6 
#
# 1 43.1908 11.4862 2.0882 0.0000 0.0000 0.0000
# 2 11.4862 41.6998 12.6390 0.0000 0.0000 0.0000
# 3 2.0882 12.6390 35.5352 0.0000 0.0000 0.0000
# 4 0.0000 0.0000 0.0000 32.5930 0.0000 0.0000
# 5 0.0000 0.0000 0.0000 0.0000 24.0688 0.0000
# 6 0.0000 0.0000 0.0000 0.0000 0.0000 29.6945
#
#
#
# Elastic Compliance Matrix: (Units=1/GPa)
#
#
# Indices 1 2 3 4 5 6 
#
# 1 0.025021 -0.007225 0.001099 0.000000 0.000000 0.000000
# 2 -0.007225 0.028965 -0.009878 0.000000 0.000000 0.000000
# 3 0.001099 -0.009878 0.031590 0.000000 0.000000 0.000000
# 4 0.000000 0.000000 0.000000 0.030681 0.000000 0.000000
# 5 0.000000 0.000000 0.000000 0.000000 0.041548 0.000000
# 6 0.000000 0.000000 0.000000 0.000000 0.000000 0.033676
#
#
# Mechanical properties :
#
#
# Convention : Reuss Voigt Hill
#
# Bulk Modulus (GPa) = 18.66743 19.20587 18.93665
# Shear Modulus (GPa) = 20.71728 23.55210 22.13469
#
# Velocity S-wave (km/s) = 3.34401 3.56546 3.45651
# Velocity P-wave (km/s) = 4.99859 5.22653 5.11383
#
# Compressibility (1/GPa) = 0.05356923
#
# Stress axis : x y z
#
# Youngs Moduli (GPa) = 39.96575 34.52449 31.65594
#
# Poissons Ratio (x) = 0.24945 -0.03481
# Poissons Ratio (y) = 0.28877 0.31268
# Poissons Ratio (z) = -0.04394 0.34102
#
# Static dielectric constant tensor:
#      x y z
#    x 3.563570 0.000000 0.000000 
#    y 0.000000 3.267840 0.000000 
#    z 0.000000 0.000000 3.379380 
# 
# 
# High freq. dielectric constant tensor:
#      x y z
#    x 1.730110 0.000000 0.000000 
#    y 0.000000 1.697430 0.000000 
#    z 0.000000 0.000000 1.719290 
# 
# From -- ./inp_files/8453.got.cif
#   From: 2010.03.12/outbox.cif.g09.slc.cpg/sg62_5_cif.got.tgz:8453.got - 2010.04.10 19:12:36.
