data_PCOD8255637
_publ_section_title
;
Structure prediction by ZEFSAII (Michael W. Deem and Ramdas Pophale) SiO2 
 PCOD8255637
Probable space group: C M C M
;
_chemical_formula_sum "Si O2"
_cell_formula_units_Z 96
_cell_length_a 29.314581
_cell_length_b 23.460736
_cell_length_c 8.986318
_cell_angle_alpha 90.000000
_cell_angle_beta 90.000000
_cell_angle_gamma 90.000000
_cell_volume 6180.265131
_symmetry_space_group_name_H-M "C M C M"
_symmetry_group_IT_number 63
_symmetry_cell_setting 'orthorhombic'
loop_
_space_group_symop_operation_xyz
x,y,z
-x,-y,1/2+z
x,-y,-z
-x,y,1/2-z
-x,-y,-z
x,y,1/2-z
-x,y,z
x,-y,1/2+z
1/2+x,1/2+y,z
1/2-x,1/2-y,1/2+z
1/2+x,1/2-y,-z
1/2-x,1/2+y,1/2-z
1/2-x,1/2-y,-z
1/2+x,1/2+y,1/2-z
1/2-x,1/2+y,z
1/2+x,1/2-y,1/2+z
loop_
_atom_site_type_symbol
_atom_site_label
_atom_site_fract_x
_atom_site_fract_y
_atom_site_fract_z
Si Si1 0.500000 0.240636 0.574935
Si Si2 0.239914 0.334097 0.076824
Si Si3 0.000000 0.624491 0.418916
Si Si4 0.818571 0.558322 0.924380
Si Si5 0.318781 0.275620 0.576172
Si Si6 0.091595 0.254932 0.576017
Si Si7 0.401345 0.111475 0.081918
O O1 0.500000 0.252057 0.750000
O O2 0.500000 0.173521 0.541771
O O3 0.545439 0.267732 0.502092
O O4 0.252699 0.332254 0.250000
O O5 0.217868 0.393851 0.028682
O O6 0.203491 0.285257 0.037573
O O7 0.285789 0.325736 0.982050
O O8 0.953491 0.588000 0.437816
O O9 0.000000 0.651726 0.250000
O O10 0.819673 0.549168 0.750000
O O11 0.802953 0.500000 0.000000
O O12 0.869282 0.576321 0.972716
O O13 0.327156 0.283581 0.750000
O O14 0.366664 0.280564 0.492085
O O15 0.088315 0.242527 0.750000
O O16 0.099055 0.321723 0.541976
O O17 0.383970 0.101611 0.250000
#
# Coordination Sequence:
#
# PCOD8255637 Si02
#       7
#     8  16   8  16  16  16  16
#     4  10  18  26  40  63  91 120 153 185 219 265
#     4   9  19  33  46  65  91 116 145 184 229 274
#     4   8  16  30  45  63  84 110 143 185 233 279
#     4  11  22  35  49  65  87 114 150 189 230 276
#     4  10  18  29  48  71  92 114 147 185 225 270
#     4  10  18  29  45  65  92 122 150 183 226 271
#     4   9  17  30  47  64  84 111 146 186 230 274
#
# _framework density 15.533315
#
# number of rings (size 3 to 8) (size 9 to 14) (size 15 to 20)
#    0.000    2.333    1.667    3.250    0.000    4.667 
#    0.000    0.417    0.000    0.000    0.000    0.000 
#    0.000    0.000    0.000    0.750    0.000   10.167 
#
# Total GULP energy -595152.678595 kJ/mol
# GULP energy per Si atom -12399.014137 kJ/mol
# Density = 1.549796 g / cm^3
# Si number density = 15.533315 Si / 1000 Ang^3
#
#
#
# Elastic Constant Matrix: (Units=GPa)
#
#
# Indices 1 2 3 4 5 6 
#
# 1 128.0000 49.5424 64.9982 0.0000 0.0000 0.0000
# 2 49.5424 57.0182 34.1501 0.0000 0.0000 0.0000
# 3 64.9982 34.1501 88.6167 0.0000 0.0000 0.0000
# 4 0.0000 0.0000 0.0000 18.5264 0.0000 0.0000
# 5 0.0000 0.0000 0.0000 0.0000 31.4290 0.0000
# 6 0.0000 0.0000 0.0000 0.0000 0.0000 14.4635
#
#
#
# Elastic Compliance Matrix: (Units=1/GPa)
#
#
# Indices 1 2 3 4 5 6 
#
# 1 0.015005 -0.008380 -0.007776 0.000000 0.000000 0.000000
# 2 -0.008380 0.027481 -0.004444 0.000000 0.000000 0.000000
# 3 -0.007776 -0.004444 0.018701 0.000000 0.000000 0.000000
# 4 0.000000 0.000000 0.000000 0.053977 0.000000 0.000000
# 5 0.000000 0.000000 0.000000 0.000000 0.031818 0.000000
# 6 0.000000 0.000000 0.000000 0.000000 0.000000 0.069139
#
#
# Mechanical properties :
#
#
# Convention : Reuss Voigt Hill
#
# Bulk Modulus (GPa) = 50.03387 63.44626 56.74007
# Shear Modulus (GPa) = 18.94061 21.21339 20.07700
#
# Velocity S-wave (km/s) = 3.49571 3.69951 3.59905
# Velocity P-wave (km/s) = 6.96950 7.69301 7.34018
#
# Compressibility (1/GPa) = 0.01998646
#
# Stress axis : x y z
#
# Youngs Moduli (GPa) = 66.64564 36.38868 53.47381
#
# Poissons Ratio (x) = 0.30494 0.41582
# Poissons Ratio (y) = 0.55849 0.23763
# Poissons Ratio (z) = 0.51825 0.16171
#
# Static dielectric constant tensor:
#      x y z
#    x 3.152990 0.000000 0.000000 
#    y 0.000000 2.569300 0.000000 
#    z 0.000000 0.000000 2.992420 
# 
# 
# High freq. dielectric constant tensor:
#      x y z
#    x 1.603160 0.000000 0.000000 
#    y 0.000000 1.531770 0.000000 
#    z 0.000000 0.000000 1.608540 
# 
# From -- ./inp_files/12820.got.cif
#   From: 2010.03.12/outbox.cif.g09.slc.cpg/sg63_7_cif.got.tgz:12820.got - 2010.04.10 19:34:48.
