data_PCOD8255734
_publ_section_title
;
Structure prediction by ZEFSAII (Michael W. Deem and Ramdas Pophale) SiO2 
 PCOD8255734
Probable space group: C M C M
;
_chemical_formula_sum "Si O2"
_cell_formula_units_Z 104
_cell_length_a 22.038487
_cell_length_b 29.993402
_cell_length_c 9.037381
_cell_angle_alpha 90.000000
_cell_angle_beta 90.000000
_cell_angle_gamma 90.000000
_cell_volume 5973.791985
_symmetry_space_group_name_H-M "C M C M"
_symmetry_group_IT_number 63
_symmetry_cell_setting 'orthorhombic'
loop_
_space_group_symop_operation_xyz
x,y,z
-x,-y,1/2+z
x,-y,-z
-x,y,1/2-z
-x,-y,-z
x,y,1/2-z
-x,y,z
x,-y,1/2+z
1/2+x,1/2+y,z
1/2-x,1/2-y,1/2+z
1/2+x,1/2-y,-z
1/2-x,1/2+y,1/2-z
1/2-x,1/2-y,-z
1/2+x,1/2+y,1/2-z
1/2-x,1/2+y,z
1/2+x,1/2-y,1/2+z
loop_
_atom_site_type_symbol
_atom_site_label
_atom_site_fract_x
_atom_site_fract_y
_atom_site_fract_z
Si Si1 0.640945 0.453917 0.575611
Si Si2 0.927966 0.124418 0.581093
Si Si3 0.720755 0.045431 0.423105
Si Si4 0.572180 0.287764 0.583312
Si Si5 0.000000 0.452325 0.926123
Si Si6 0.428603 0.800134 0.921156
Si Si7 0.387405 0.105532 0.425197
O O1 0.621384 0.500000 0.500000
O O2 0.631084 0.458467 0.750000
O O3 0.598370 0.415709 0.513650
O O4 0.710431 0.442049 0.534929
O O5 0.905482 0.121372 0.750000
O O6 0.903673 0.170609 0.511997
O O7 0.000000 0.121699 0.571241
O O8 0.713268 0.037296 0.250000
O O9 0.677227 0.085541 0.477177
O O10 0.699809 0.000000 0.500000
O O11 0.597239 0.292027 0.750000
O O12 0.500000 0.287400 0.581331
O O13 0.596501 0.242024 0.512214
O O14 0.941133 0.425842 0.984544
O O15 0.000000 0.457714 0.750000
O O16 0.000000 0.500000 0.000000
O O17 0.413625 0.791270 0.750000
O O18 0.500000 0.807467 0.943926
O O19 0.394633 0.843982 0.984737
O O20 0.392842 0.107859 0.250000
#
# Coordination Sequence:
#
# PCOD8255734 Si02
#       7
#    16  16  16  16   8  16  16
#     4  10  20  34  52  73  98 129 162 197 235 278
#     4  10  20  34  53  77 101 125 154 188 231 285
#     4   9  18  32  49  68  92 126 167 204 239 282
#     4   9  17  29  46  70 100 129 154 189 236 285
#     4  10  18  28  42  64  94 128 162 202 251 294
#     4   9  15  26  45  67  92 126 165 201 239 286
#     4   9  16  28  46  67  93 126 165 205 244 287
#
# _framework density 17.409376999999999
#
# number of rings (size 3 to 8) (size 9 to 14) (size 15 to 20)
#    0.000    2.615    0.769    1.846    0.000    3.692 
#    0.000    1.538    0.000    0.923    0.000    0.000 
#    0.000    0.000    0.000    0.000    0.000    0.000 
#
# Total GULP energy -644772.547275 kJ/mol
# GULP energy per Si atom -12399.472063 kJ/mol
# Density = 1.736975 g / cm^3
# Si number density = 17.409377 Si / 1000 Ang^3
#
#
#
# Elastic Constant Matrix: (Units=GPa)
#
#
# Indices 1 2 3 4 5 6 
#
# 1 33.7169 39.3554 23.6957 0.0000 0.0000 0.0000
# 2 39.3554 159.9023 57.1638 0.0000 0.0000 0.0000
# 3 23.6957 57.1638 76.8538 0.0000 0.0000 0.0000
# 4 0.0000 0.0000 0.0000 33.4155 0.0000 0.0000
# 5 0.0000 0.0000 0.0000 0.0000 14.1103 0.0000
# 6 0.0000 0.0000 0.0000 0.0000 0.0000 20.9075
#
#
#
# Elastic Compliance Matrix: (Units=1/GPa)
#
#
# Indices 1 2 3 4 5 6 
#
# 1 0.044666 -0.008269 -0.007621 0.000000 0.000000 0.000000
# 2 -0.008269 0.010050 -0.004926 0.000000 0.000000 0.000000
# 3 -0.007621 -0.004926 0.019025 0.000000 0.000000 0.000000
# 4 0.000000 0.000000 0.000000 0.029926 0.000000 0.000000
# 5 0.000000 0.000000 0.000000 0.000000 0.070870 0.000000
# 6 0.000000 0.000000 0.000000 0.000000 0.000000 0.047830
#
#
# Mechanical properties :
#
#
# Convention : Reuss Voigt Hill
#
# Bulk Modulus (GPa) = 31.14292 56.76699 43.95495
# Shear Modulus (GPa) = 18.20150 23.70385 20.95268
#
# Velocity S-wave (km/s) = 3.23693 3.69393 3.47295
# Velocity P-wave (km/s) = 5.64780 7.13242 6.43308
#
# Compressibility (1/GPa) = 0.03211003
#
# Stress axis : x y z
#
# Youngs Moduli (GPa) = 22.38816 99.50432 52.56189
#
# Poissons Ratio (x) = 0.82278 0.40059
# Poissons Ratio (y) = 0.18512 0.25890
# Poissons Ratio (z) = 0.17063 0.49012
#
# Static dielectric constant tensor:
#      x y z
#    x 3.066560 0.000000 0.000000 
#    y 0.000000 3.446720 0.000000 
#    z 0.000000 0.000000 3.205530 
# 
# 
# High freq. dielectric constant tensor:
#      x y z
#    x 1.639190 0.000000 0.000000 
#    y 0.000000 1.684440 0.000000 
#    z 0.000000 0.000000 1.664460 
# 
# From -- ./inp_files/10813.got.cif
#   From: 2010.03.12/outbox.cif.g09.slc.cpg/sg63_6_cif.got.tgz:10813.got - 2010.04.10 19:34:48.
