data_PCOD8255756
_publ_section_title
;
Structure prediction by ZEFSAII (Michael W. Deem and Ramdas Pophale) SiO2 
 PCOD8255756
Probable space group: C M C M
;
_chemical_formula_sum "Si O2"
_cell_formula_units_Z 128
_cell_length_a 23.451161
_cell_length_b 19.142586
_cell_length_c 16.142358
_cell_angle_alpha 90.000000
_cell_angle_beta 90.000000
_cell_angle_gamma 90.000000
_cell_volume 7246.560625
_symmetry_space_group_name_H-M "C M C M"
_symmetry_group_IT_number 63
_symmetry_cell_setting 'orthorhombic'
loop_
_space_group_symop_operation_xyz
x,y,z
-x,-y,1/2+z
x,-y,-z
-x,y,1/2-z
-x,-y,-z
x,y,1/2-z
-x,y,z
x,-y,1/2+z
1/2+x,1/2+y,z
1/2-x,1/2-y,1/2+z
1/2+x,1/2-y,-z
1/2-x,1/2+y,1/2-z
1/2-x,1/2-y,-z
1/2+x,1/2+y,1/2-z
1/2-x,1/2+y,z
1/2+x,1/2-y,1/2+z
loop_
_atom_site_type_symbol
_atom_site_label
_atom_site_fract_x
_atom_site_fract_y
_atom_site_fract_z
Si Si1 0.936031 0.742015 0.349017
Si Si2 0.237450 0.754037 0.904489
Si Si3 0.731763 0.462856 0.155336
Si Si4 0.337706 0.664415 0.654995
Si Si5 0.893670 0.404270 0.843884
Si Si6 0.671973 0.875717 0.091592
Si Si7 0.726426 0.900979 0.911453
Si Si8 0.434814 0.051919 0.651937
O O1 0.929544 0.739885 0.250000
O O2 0.895585 0.803993 0.385409
O O3 0.916965 0.666886 0.387040
O O4 0.000000 0.759058 0.377251
O O5 0.289842 0.723606 0.852488
O O6 0.181088 0.706944 0.886980
O O7 0.232532 0.836360 0.884507
O O8 0.250000 0.750000 0.000000
O O9 0.717687 0.483914 0.250000
O O10 0.684226 0.409221 0.116094
O O11 0.792618 0.423200 0.155813
O O12 0.733854 0.530726 0.096559
O O13 0.348859 0.648056 0.750000
O O14 0.914637 0.402116 0.750000
O O15 0.825331 0.407631 0.846878
O O16 0.921492 0.474015 0.883129
O O17 0.605363 0.893725 0.101837
O O18 0.697200 0.893964 0.001128
O O19 0.422389 0.057135 0.750000
O O20 0.500000 0.071421 0.631778
#
# Coordination Sequence:
#
# PCOD8255756 Si02
#       8
#    16  16  16  16  16  16  16  16
#     4   9  16  27  44  66  93 124 155 189 233 281
#     4   9  19  32  47  65  95 123 151 191 238 280
#     4  10  19  30  46  67  94 124 155 191 233 281
#     4   9  17  29  45  67  92 120 156 193 227 275
#     4  10  18  28  44  67  95 125 158 190 226 279
#     4  10  20  33  48  68  92 123 160 198 233 276
#     4  11  19  30  48  69  96 125 151 191 239 285
#     4  10  20  34  50  67  93 130 165 196 231 273
#
# _framework density 17.663551999999999
#
# number of rings (size 3 to 8) (size 9 to 14) (size 15 to 20)
#    0.000    2.250    2.500    1.500    0.000    2.500 
#    0.000    1.875    0.000    0.000    0.000    0.875 
#    0.000   15.000    0.000    0.000    0.000    0.000 
#
# Total GULP energy -792958.888985 kJ/mol
# GULP energy per Si atom -12389.982640 kJ/mol
# Density = 1.762335 g / cm^3
# Si number density = 17.663552 Si / 1000 Ang^3
#
#
#
# Elastic Constant Matrix: (Units=GPa)
#
#
# Indices 1 2 3 4 5 6 
#
# 1 115.4716 85.6198 13.0136 0.0000 0.0000 0.0000
# 2 85.6198 157.7234 21.9456 0.0000 0.0000 0.0000
# 3 13.0136 21.9456 26.3497 0.0000 0.0000 0.0000
# 4 0.0000 0.0000 0.0000 17.5682 0.0000 0.0000
# 5 0.0000 0.0000 0.0000 0.0000 14.0288 0.0000
# 6 0.0000 0.0000 0.0000 0.0000 0.0000 28.0232
#
#
#
# Elastic Compliance Matrix: (Units=1/GPa)
#
#
# Indices 1 2 3 4 5 6 
#
# 1 0.014505 -0.007779 -0.000685 0.000000 0.000000 0.000000
# 2 -0.007779 0.011343 -0.005605 0.000000 0.000000 0.000000
# 3 -0.000685 -0.005605 0.042958 0.000000 0.000000 0.000000
# 4 0.000000 0.000000 0.000000 0.056921 0.000000 0.000000
# 5 0.000000 0.000000 0.000000 0.000000 0.071282 0.000000
# 6 0.000000 0.000000 0.000000 0.000000 0.000000 0.035685
#
#
# Mechanical properties :
#
#
# Convention : Reuss Voigt Hill
#
# Bulk Modulus (GPa) = 24.58968 60.07808 42.33388
# Shear Modulus (GPa) = 18.22240 23.85508 21.03874
#
# Velocity S-wave (km/s) = 3.21540 3.67894 3.45495
# Velocity P-wave (km/s) = 5.26654 7.22028 6.31937
#
# Compressibility (1/GPa) = 0.04066747
#
# Stress axis : x y z
#
# Youngs Moduli (GPa) = 68.94113 88.16175 23.27867
#
# Poissons Ratio (x) = 0.68579 0.01595
# Poissons Ratio (y) = 0.53628 0.13048
# Poissons Ratio (z) = 0.04724 0.49416
#
# Static dielectric constant tensor:
#      x y z
#    x 3.221230 0.000000 0.000000 
#    y 0.000000 3.715880 0.000000 
#    z 0.000000 0.000000 3.048490 
# 
# 
# High freq. dielectric constant tensor:
#      x y z
#    x 1.648750 0.000000 0.000000 
#    y 0.000000 1.684230 0.000000 
#    z 0.000000 0.000000 1.657910 
# 
# From -- ./inp_files/47573.got.cif
#   From: 2010.03.12/outbox.cif.g09.slc.cpg/sg63_24_cif.got.tgz:47573.got - 2010.04.10 19:34:48.
