data_PCOD8255764
_publ_section_title
;
Structure prediction by ZEFSAII (Michael W. Deem and Ramdas Pophale) SiO2 
 PCOD8255764
Probable space group: C M C M
;
_chemical_formula_sum "Si O2"
_cell_formula_units_Z 96
_cell_length_a 8.743088
_cell_length_b 22.895754
_cell_length_c 27.458842
_cell_angle_alpha 90.000000
_cell_angle_beta 90.000000
_cell_angle_gamma 90.000000
_cell_volume 5496.699790
_symmetry_space_group_name_H-M "C M C M"
_symmetry_group_IT_number 63
_symmetry_cell_setting 'orthorhombic'
loop_
_space_group_symop_operation_xyz
x,y,z
-x,-y,1/2+z
x,-y,-z
-x,y,1/2-z
-x,-y,-z
x,y,1/2-z
-x,y,z
x,-y,1/2+z
1/2+x,1/2+y,z
1/2-x,1/2-y,1/2+z
1/2+x,1/2-y,-z
1/2-x,1/2+y,1/2-z
1/2-x,1/2-y,-z
1/2+x,1/2+y,1/2-z
1/2-x,1/2+y,z
1/2+x,1/2-y,1/2+z
loop_
_atom_site_type_symbol
_atom_site_label
_atom_site_fract_x
_atom_site_fract_y
_atom_site_fract_z
Si Si1 0.324931 0.664797 0.979084
Si Si2 0.676906 0.655243 0.155875
Si Si3 0.318998 0.464586 0.453290
Si Si4 0.676839 0.858014 0.750000
Si Si5 0.321056 0.518288 0.250000
Si Si6 0.818699 0.021759 0.144795
Si Si7 0.672941 0.217103 0.070837
O O1 0.500000 0.661481 0.998349
O O2 0.272337 0.603021 0.957165
O O3 0.309426 0.713575 0.937320
O O4 0.212974 0.680818 0.022725
O O5 0.500000 0.658190 0.169826
O O6 0.779197 0.677603 0.201431
O O7 0.726645 0.589797 0.140196
O O8 0.709919 0.699755 0.112623
O O9 0.252960 0.500000 0.500000
O O10 0.500000 0.473082 0.451863
O O11 0.248217 0.488696 0.402241
O O12 0.500000 0.876059 0.750000
O O13 0.790128 0.913032 0.750000
O O14 0.500000 0.507029 0.250000
O O15 0.255791 0.495102 0.197321
O O16 0.000000 0.014881 0.144548
O O17 0.500000 0.201225 0.085680
#
# Coordination Sequence:
#
# PCOD8255764 Si02
#       7
#    16  16  16   8   8  16  16
#     4   9  18  31  46  65  89 118 152 188 227 271
#     4  10  18  30  48  69  92 120 153 185 223 269
#     4   9  15  24  42  67  90 113 146 189 231 268
#     4  10  18  28  44  69  98 121 145 184 230 268
#     4   8  14  26  42  63  90 119 151 182 216 264
#     4   8  14  24  42  66  88 111 145 188 224 261
#     4  10  19  30  45  65  90 120 153 189 227 268
#
# _framework density 17.465026000000002
#
# number of rings (size 3 to 8) (size 9 to 14) (size 15 to 20)
#    0.000    2.833    0.000    3.750    0.000    3.333 
#    0.000    0.000    0.000    9.500    0.000    4.667 
#    0.000    0.000    0.000    0.000    0.000    0.000 
#
# Total GULP energy -594754.683257 kJ/mol
# GULP energy per Si atom -12390.722568 kJ/mol
# Density = 1.742527 g / cm^3
# Si number density = 17.465026 Si / 1000 Ang^3
#
#
#
# Elastic Constant Matrix: (Units=GPa)
#
#
# Indices 1 2 3 4 5 6 
#
# 1 35.0734 22.1080 17.5210 0.0000 0.0000 0.0000
# 2 22.1080 90.4211 60.4257 0.0000 0.0000 0.0000
# 3 17.5210 60.4257 146.0714 0.0000 0.0000 0.0000
# 4 0.0000 0.0000 0.0000 21.8393 0.0000 0.0000
# 5 0.0000 0.0000 0.0000 0.0000 22.3590 0.0000
# 6 0.0000 0.0000 0.0000 0.0000 0.0000 15.2877
#
#
#
# Elastic Compliance Matrix: (Units=1/GPa)
#
#
# Indices 1 2 3 4 5 6 
#
# 1 0.033788 -0.007674 -0.000878 0.000000 0.000000 0.000000
# 2 -0.007674 0.017028 -0.006123 0.000000 0.000000 0.000000
# 3 -0.000878 -0.006123 0.009484 0.000000 0.000000 0.000000
# 4 0.000000 0.000000 0.000000 0.045789 0.000000 0.000000
# 5 0.000000 0.000000 0.000000 0.000000 0.044725 0.000000
# 6 0.000000 0.000000 0.000000 0.000000 0.000000 0.065412
#
#
# Mechanical properties :
#
#
# Convention : Reuss Voigt Hill
#
# Bulk Modulus (GPa) = 32.31204 52.40836 42.36020
# Shear Modulus (GPa) = 19.53939 23.33127 21.43533
#
# Velocity S-wave (km/s) = 3.34843 3.65894 3.50713
# Velocity P-wave (km/s) = 5.78710 6.92266 6.38019
#
# Compressibility (1/GPa) = 0.03094822
#
# Stress axis : x y z
#
# Youngs Moduli (GPa) = 29.59661 58.72729 105.43628
#
# Poissons Ratio (x) = 0.45069 0.09259
# Poissons Ratio (y) = 0.22713 0.64563
# Poissons Ratio (z) = 0.02599 0.35961
#
# Static dielectric constant tensor:
#      x y z
#    x 2.923000 0.000000 0.000000 
#    y 0.000000 3.057960 0.000000 
#    z 0.000000 0.000000 3.823960 
# 
# 
# High freq. dielectric constant tensor:
#      x y z
#    x 1.645020 0.000000 0.000000 
#    y 0.000000 1.638320 0.000000 
#    z 0.000000 0.000000 1.689930 
# 
# From -- ./inp_files/67266.got.cif
#   From: 2010.03.12/outbox.cif.g09.slc.cpg/sg63_34_cif.got.tgz:67266.got - 2010.04.10 19:34:48.
