data_PCOD8255811
_publ_section_title
;
Structure prediction by ZEFSAII (Michael W. Deem and Ramdas Pophale) SiO2 
 PCOD8255811
Probable space group: C M C M
;
_chemical_formula_sum "Si O2"
_cell_formula_units_Z 80
_cell_length_a 24.737485
_cell_length_b 20.889214
_cell_length_c 9.074309
_cell_angle_alpha 90.000000
_cell_angle_beta 90.000000
_cell_angle_gamma 90.000000
_cell_volume 4689.118486
_symmetry_space_group_name_H-M "C M C M"
_symmetry_group_IT_number 63
_symmetry_cell_setting 'orthorhombic'
loop_
_space_group_symop_operation_xyz
x,y,z
-x,-y,1/2+z
x,-y,-z
-x,y,1/2-z
-x,-y,-z
x,y,1/2-z
-x,y,z
x,-y,1/2+z
1/2+x,1/2+y,z
1/2-x,1/2-y,1/2+z
1/2+x,1/2-y,-z
1/2-x,1/2+y,1/2-z
1/2-x,1/2-y,-z
1/2+x,1/2+y,1/2-z
1/2-x,1/2+y,z
1/2+x,1/2-y,1/2+z
loop_
_atom_site_type_symbol
_atom_site_label
_atom_site_fract_x
_atom_site_fract_y
_atom_site_fract_z
Si Si1 0.280070 0.307068 0.919636
Si Si2 0.000000 0.609620 0.088558
Si Si3 0.000000 0.237816 0.585364
Si Si4 0.885635 0.378556 0.924862
Si Si5 0.606023 0.253869 0.579408
Si Si6 0.273327 0.063979 0.421899
O O1 0.262502 0.301977 0.750000
O O2 0.344637 0.303422 0.938978
O O3 0.260471 0.375498 0.983024
O O4 0.250000 0.250000 0.000000
O O5 0.942577 0.590182 0.013334
O O6 0.000000 0.578633 0.250000
O O7 0.000000 0.686141 0.093634
O O8 0.946283 0.215126 0.499105
O O9 0.000000 0.208210 0.750000
O O10 0.891203 0.364383 0.750000
O O11 0.836771 0.426261 0.958987
O O12 0.874499 0.311985 0.005675
O O13 0.592310 0.241048 0.750000
O O14 0.263507 0.055063 0.250000
O O15 0.252489 0.000000 0.500000
#
# Coordination Sequence:
#
# PCOD8255811 Si02
#       6
#    16   8   8  16  16  16
#     4  10  20  33  51  75 102 131 167 211 256 300
#     4   7  12  23  42  64  84 118 161 197 232 274
#     4   9  17  29  45  68 101 134 159 193 246 302
#     4   9  16  29  47  66  94 130 168 205 246 295
#     4  10  18  28  47  75 101 126 161 207 251 294
#     4  10  21  35  49  68  98 135 172 211 254 301
#
# _framework density 17.060776000000001
#
# number of rings (size 3 to 8) (size 9 to 14) (size 15 to 20)
#    0.000    2.600    2.000    2.100    0.000    2.400 
#    0.000    0.500    0.000    0.000    0.000    0.700 
#    0.000    0.000    0.000    0.000    0.000    0.000 
#
# Total GULP energy -495700.766040 kJ/mol
# GULP energy per Si atom -12392.519151 kJ/mol
# Density = 1.702194 g / cm^3
# Si number density = 17.060776 Si / 1000 Ang^3
#
#
#
# Elastic Constant Matrix: (Units=GPa)
#
#
# Indices 1 2 3 4 5 6 
#
# 1 94.9563 46.3335 40.2423 0.0000 0.0000 0.0000
# 2 46.3335 96.9728 35.6940 0.0000 0.0000 0.0000
# 3 40.2423 35.6940 67.8040 0.0000 0.0000 0.0000
# 4 0.0000 0.0000 0.0000 21.6876 0.0000 0.0000
# 5 0.0000 0.0000 0.0000 0.0000 23.7132 0.0000
# 6 0.0000 0.0000 0.0000 0.0000 0.0000 15.1810
#
#
#
# Elastic Compliance Matrix: (Units=1/GPa)
#
#
# Indices 1 2 3 4 5 6 
#
# 1 0.015877 -0.005107 -0.006735 0.000000 0.000000 0.000000
# 2 -0.005107 0.014433 -0.004567 0.000000 0.000000 0.000000
# 3 -0.006735 -0.004567 0.021150 0.000000 0.000000 0.000000
# 4 0.000000 0.000000 0.000000 0.046109 0.000000 0.000000
# 5 0.000000 0.000000 0.000000 0.000000 0.042171 0.000000
# 6 0.000000 0.000000 0.000000 0.000000 0.000000 0.065872
#
#
# Mechanical properties :
#
#
# Convention : Reuss Voigt Hill
#
# Bulk Modulus (GPa) = 53.64071 56.03031 54.83551
# Shear Modulus (GPa) = 20.43782 21.28058 20.85920
#
# Velocity S-wave (km/s) = 3.46488 3.53560 3.50042
# Velocity P-wave (km/s) = 6.89322 7.04132 6.96766
#
# Compressibility (1/GPa) = 0.01864256
#
# Stress axis : x y z
#
# Youngs Moduli (GPa) = 62.98260 69.28350 47.28190
#
# Poissons Ratio (x) = 0.35385 0.31843
# Poissons Ratio (y) = 0.32167 0.21594
# Poissons Ratio (z) = 0.42417 0.31642
#
# Static dielectric constant tensor:
#      x y z
#    x 3.626590 0.000000 0.000000 
#    y 0.000000 2.818310 0.000000 
#    z 0.000000 0.000000 3.185560 
# 
# 
# High freq. dielectric constant tensor:
#      x y z
#    x 1.673400 0.000000 0.000000 
#    y 0.000000 1.607880 0.000000 
#    z 0.000000 0.000000 1.651500 
# 
# From -- ./inp_files/12259.got.cif
#   From: 2010.03.12/outbox.cif.g09.slc.cpg/sg63_7_cif.got.tgz:12259.got - 2010.04.10 19:34:48.
