data_PCOD8255678
_publ_section_title
;
Structure prediction by ZEFSAII (Michael W. Deem and Ramdas Pophale) SiO2 
 PCOD8255678
Probable space group: C M C M
;
_chemical_formula_sum "Si O2"
_cell_formula_units_Z 96
_cell_length_a 22.373458
_cell_length_b 27.293393
_cell_length_c 9.212865
_cell_angle_alpha 90.000000
_cell_angle_beta 90.000000
_cell_angle_gamma 90.000000
_cell_volume 5625.813735
_symmetry_space_group_name_H-M "C M C M"
_symmetry_group_IT_number 63
_symmetry_cell_setting 'orthorhombic'
loop_
_space_group_symop_operation_xyz
x,y,z
-x,-y,1/2+z
x,-y,-z
-x,y,1/2-z
-x,-y,-z
x,y,1/2-z
-x,y,z
x,-y,1/2+z
1/2+x,1/2+y,z
1/2-x,1/2-y,1/2+z
1/2+x,1/2-y,-z
1/2-x,1/2+y,1/2-z
1/2-x,1/2-y,-z
1/2+x,1/2+y,1/2-z
1/2-x,1/2+y,z
1/2+x,1/2-y,1/2+z
loop_
_atom_site_type_symbol
_atom_site_label
_atom_site_fract_x
_atom_site_fract_y
_atom_site_fract_z
Si Si1 0.318066 0.805691 0.916081
Si Si2 0.500000 0.123465 0.580328
Si Si3 0.800375 0.135470 0.086474
Si Si4 0.756071 0.449925 0.421016
Si Si5 0.500000 0.233782 0.922281
Si Si6 0.371765 0.106761 0.580305
Si Si7 0.875586 0.223051 0.419371
O O1 0.338017 0.801641 0.750000
O O2 0.250486 0.823598 0.931537
O O3 0.361755 0.843371 0.995517
O O4 0.325949 0.753529 0.992706
O O5 0.500000 0.132698 0.750000
O O6 0.500000 0.178461 0.511995
O O7 0.440374 0.092106 0.539274
O O8 0.799652 0.113724 0.250000
O O9 0.862004 0.164956 0.054641
O O10 0.790809 0.091195 0.974133
O O11 0.740020 0.500000 0.500000
O O12 0.748891 0.456781 0.250000
O O13 0.824015 0.434787 0.465797
O O14 0.500000 0.232669 0.750000
O O15 0.558283 0.263556 0.977117
O O16 0.364036 0.117921 0.750000
O O17 0.868182 0.235816 0.250000
#
# Coordination Sequence:
#
# PCOD8255678 Si02
#       7
#    16   8  16  16   8  16  16
#     4  10  18  27  41  65  96 126 155 193 232 271
#     4   9  14  26  47  67  89 122 169 202 218 258
#     4   9  19  32  47  68  94 122 154 193 235 278
#     4  10  20  34  53  72  92 117 150 194 245 291
#     4   9  16  26  46  69  92 128 166 195 218 257
#     4   9  17  30  48  67  88 123 163 197 229 272
#     4  10  18  30  46  66  94 128 162 191 223 270
#
# _framework density 17.064198000000001
#
# number of rings (size 3 to 8) (size 9 to 14) (size 15 to 20)
#    0.000    2.500    1.667    1.500    0.000    2.000 
#    0.000    2.083    0.000    0.000    0.000    0.583 
#    0.000    0.000    0.000    0.000    0.000    0.000 
#
# Total GULP energy -594896.120262 kJ/mol
# GULP energy per Si atom -12393.669172 kJ/mol
# Density = 1.702536 g / cm^3
# Si number density = 17.064198 Si / 1000 Ang^3
#
#
#
# Elastic Constant Matrix: (Units=GPa)
#
#
# Indices 1 2 3 4 5 6 
#
# 1 41.5030 25.0984 9.9607 0.0000 0.0000 0.0000
# 2 25.0984 87.9973 37.4706 0.0000 0.0000 0.0000
# 3 9.9607 37.4706 57.1302 0.0000 0.0000 0.0000
# 4 0.0000 0.0000 0.0000 24.6133 0.0000 0.0000
# 5 0.0000 0.0000 0.0000 0.0000 13.6858 0.0000
# 6 0.0000 0.0000 0.0000 0.0000 0.0000 15.7635
#
#
#
# Elastic Compliance Matrix: (Units=1/GPa)
#
#
# Indices 1 2 3 4 5 6 
#
# 1 0.029128 -0.008527 0.000514 0.000000 0.000000 0.000000
# 2 -0.008527 0.018264 -0.010492 0.000000 0.000000 0.000000
# 3 0.000514 -0.010492 0.024296 0.000000 0.000000 0.000000
# 4 0.000000 0.000000 0.000000 0.040628 0.000000 0.000000
# 5 0.000000 0.000000 0.000000 0.000000 0.073069 0.000000
# 6 0.000000 0.000000 0.000000 0.000000 0.000000 0.063438
#
#
# Mechanical properties :
#
#
# Convention : Reuss Voigt Hill
#
# Bulk Modulus (GPa) = 28.83701 36.85441 32.84571
# Shear Modulus (GPa) = 16.81293 18.41926 17.61609
#
# Velocity S-wave (km/s) = 3.14231 3.28900 3.21649
# Velocity P-wave (km/s) = 5.48647 6.00564 5.75192
#
# Compressibility (1/GPa) = 0.03467766
#
# Stress axis : x y z
#
# Youngs Moduli (GPa) = 34.33166 54.75369 41.15933
#
# Poissons Ratio (x) = 0.46686 -0.02116
# Poissons Ratio (y) = 0.29273 0.43185
# Poissons Ratio (z) = -0.01765 0.57448
#
# Static dielectric constant tensor:
#      x y z
#    x 3.370240 0.000000 0.000000 
#    y 0.000000 2.951560 0.000000 
#    z 0.000000 0.000000 3.095550 
# 
# 
# High freq. dielectric constant tensor:
#      x y z
#    x 1.644710 0.000000 0.000000 
#    y 0.000000 1.632240 0.000000 
#    z 0.000000 0.000000 1.646420 
# 
# From -- ./inp_files/10748.got.cif
#   From: 2010.03.12/outbox.cif.g09.slc.cpg/sg63_6_cif.got.tgz:10748.got - 2010.04.10 19:34:48.
