data_PCOD8255693
_publ_section_title
;
Structure prediction by ZEFSAII (Michael W. Deem and Ramdas Pophale) SiO2 
 PCOD8255693
Probable space group: C M C M
;
_chemical_formula_sum "Si O2"
_cell_formula_units_Z 96
_cell_length_a 19.568184
_cell_length_b 18.451874
_cell_length_c 15.023947
_cell_angle_alpha 90.000000
_cell_angle_beta 90.000000
_cell_angle_gamma 90.000000
_cell_volume 5424.691519
_symmetry_space_group_name_H-M "C M C M"
_symmetry_group_IT_number 63
_symmetry_cell_setting 'orthorhombic'
loop_
_space_group_symop_operation_xyz
x,y,z
-x,-y,1/2+z
x,-y,-z
-x,y,1/2-z
-x,-y,-z
x,y,1/2-z
-x,y,z
x,-y,1/2+z
1/2+x,1/2+y,z
1/2-x,1/2-y,1/2+z
1/2+x,1/2-y,-z
1/2-x,1/2+y,1/2-z
1/2-x,1/2-y,-z
1/2+x,1/2+y,1/2-z
1/2-x,1/2+y,z
1/2+x,1/2-y,1/2+z
loop_
_atom_site_type_symbol
_atom_site_label
_atom_site_fract_x
_atom_site_fract_y
_atom_site_fract_z
Si Si1 0.373173 0.174501 0.148513
Si Si2 0.271726 0.623422 0.347668
Si Si3 0.920715 0.829609 0.353061
Si Si4 0.712615 0.962868 0.346936
Si Si5 0.676311 0.581268 0.975675
Si Si6 0.925555 0.477093 0.599569
O O1 0.396193 0.163303 0.250000
O O2 0.290888 0.179123 0.140888
O O3 0.403581 0.249315 0.110783
O O4 0.403587 0.106885 0.095829
O O5 0.307366 0.636833 0.250000
O O6 0.242511 0.542930 0.350444
O O7 0.321303 0.630089 0.433593
O O8 0.898622 0.836972 0.250000
O O9 0.880670 0.888521 0.410210
O O10 0.000000 0.846022 0.365744
O O11 0.727558 0.927368 0.250000
O O12 0.749417 0.916980 0.425301
O O13 0.630768 0.970124 0.356327
O O14 0.654226 0.500000 0.000000
O O15 0.933808 0.500000 0.500000
O O16 0.000000 0.485643 0.647340
#
# Coordination Sequence:
#
# PCOD8255693 Si02
#       6
#    16  16  16  16  16  16
#     4   9  17  31  50  72 100 130 162 203 248 292
#     4   8  15  28  47  70  94 123 158 194 236 289
#     4  10  21  35  51  73  99 128 165 210 259 302
#     4   9  16  27  44  66  94 128 163 197 237 285
#     4  10  19  32  51  72  99 129 162 205 251 297
#     4  10  18  27  43  69 101 135 169 202 237 285
#
# _framework density 17.696859
#
# number of rings (size 3 to 8) (size 9 to 14) (size 15 to 20)
#    0.000    2.667    0.000    5.000    0.000    3.667 
#    0.000    0.000    0.000    0.500    0.000    1.167 
#    0.000    8.000    0.000    0.000    0.000    0.000 
#
# Total GULP energy -594778.436011 kJ/mol
# GULP energy per Si atom -12391.217417 kJ/mol
# Density = 1.765658 g / cm^3
# Si number density = 17.696859 Si / 1000 Ang^3
#
#
#
# Elastic Constant Matrix: (Units=GPa)
#
#
# Indices 1 2 3 4 5 6 
#
# 1 82.0877 39.6889 48.3526 0.0000 0.0000 0.0000
# 2 39.6889 63.0895 39.7312 0.0000 0.0000 0.0000
# 3 48.3526 39.7312 109.8194 0.0000 0.0000 0.0000
# 4 0.0000 0.0000 0.0000 18.7150 0.0000 0.0000
# 5 0.0000 0.0000 0.0000 0.0000 23.0375 0.0000
# 6 0.0000 0.0000 0.0000 0.0000 0.0000 15.9895
#
#
#
# Elastic Compliance Matrix: (Units=1/GPa)
#
#
# Indices 1 2 3 4 5 6 
#
# 1 0.019729 -0.008989 -0.005435 0.000000 0.000000 0.000000
# 2 -0.008989 0.024623 -0.004950 0.000000 0.000000 0.000000
# 3 -0.005435 -0.004950 0.013290 0.000000 0.000000 0.000000
# 4 0.000000 0.000000 0.000000 0.053433 0.000000 0.000000
# 5 0.000000 0.000000 0.000000 0.000000 0.043408 0.000000
# 6 0.000000 0.000000 0.000000 0.000000 0.000000 0.062541
#
#
# Mechanical properties :
#
#
# Convention : Reuss Voigt Hill
#
# Bulk Modulus (GPa) = 52.92718 56.72688 54.82703
# Shear Modulus (GPa) = 19.07890 20.03001 19.55446
#
# Velocity S-wave (km/s) = 3.28700 3.36793 3.32771
# Velocity P-wave (km/s) = 6.66171 6.87374 6.76856
#
# Compressibility (1/GPa) = 0.01889388
#
# Stress axis : x y z
#
# Youngs Moduli (GPa) = 50.68582 40.61241 75.24645
#
# Poissons Ratio (x) = 0.36507 0.40893
# Poissons Ratio (y) = 0.45562 0.37251
# Poissons Ratio (z) = 0.27546 0.20105
#
# Static dielectric constant tensor:
#      x y z
#    x 3.345700 0.000000 0.000000 
#    y 0.000000 3.044910 0.000000 
#    z 0.000000 0.000000 3.631760 
# 
# 
# High freq. dielectric constant tensor:
#      x y z
#    x 1.665070 0.000000 0.000000 
#    y 0.000000 1.649070 0.000000 
#    z 0.000000 0.000000 1.691820 
# 
# From -- ./inp_files/45777.got.cif
#   From: 2010.03.12/outbox.cif.g09.slc.cpg/sg63_23_cif.got.tgz:45777.got - 2010.04.10 19:34:48.
