data_PCOD8255459
_publ_section_title
;
Structure prediction by ZEFSAII (Michael W. Deem and Ramdas Pophale) SiO2 
 PCOD8255459
Probable space group: C M C M
;
_chemical_formula_sum "Si O2"
_cell_formula_units_Z 128
_cell_length_a 13.027838
_cell_length_b 27.198126
_cell_length_c 24.428222
_cell_angle_alpha 90.000000
_cell_angle_beta 90.000000
_cell_angle_gamma 90.000000
_cell_volume 8655.719798
_symmetry_space_group_name_H-M "C M C M"
_symmetry_group_IT_number 63
_symmetry_cell_setting 'orthorhombic'
loop_
_space_group_symop_operation_xyz
x,y,z
-x,-y,1/2+z
x,-y,-z
-x,y,1/2-z
-x,-y,-z
x,y,1/2-z
-x,y,z
x,-y,1/2+z
1/2+x,1/2+y,z
1/2-x,1/2-y,1/2+z
1/2+x,1/2-y,-z
1/2-x,1/2+y,1/2-z
1/2-x,1/2-y,-z
1/2+x,1/2+y,1/2-z
1/2-x,1/2+y,z
1/2+x,1/2-y,1/2+z
loop_
_atom_site_type_symbol
_atom_site_label
_atom_site_fract_x
_atom_site_fract_y
_atom_site_fract_z
Si Si1 0.381726 0.318977 0.188161
Si Si2 0.379741 0.148115 0.100489
Si Si3 0.289937 0.785184 0.688051
Si Si4 0.619836 0.954125 0.937757
Si Si5 0.738746 0.155374 0.591208
Si Si6 0.878510 0.561145 0.939800
Si Si7 0.618041 0.254210 0.889696
Si Si8 0.274786 0.696141 0.480770
O O1 0.349490 0.335198 0.250000
O O2 0.500000 0.331596 0.177219
O O3 0.366229 0.260769 0.181825
O O4 0.314341 0.347069 0.143062
O O5 0.500000 0.156066 0.090583
O O6 0.343836 0.169565 0.157977
O O7 0.351616 0.089958 0.103471
O O8 0.324416 0.174169 0.049660
O O9 0.273071 0.801430 0.750000
O O10 0.179104 0.772245 0.663575
O O11 0.500000 0.960656 0.945906
O O12 0.658008 0.007519 0.916173
O O13 0.660827 0.938687 0.997562
O O14 0.679071 0.103959 0.592881
O O15 0.658049 0.200193 0.593586
O O16 0.802255 0.162614 0.533864
O O17 0.000000 0.570243 0.933633
O O18 0.500000 0.250390 0.873809
O O19 0.632489 0.295712 0.937434
O O20 0.250000 0.750000 0.500000
#
# Coordination Sequence:
#
# PCOD8255459 Si02
#       8
#    16  16  16  16  16  16  16  16
#     4   9  18  32  46  62  86 112 144 185 218 249
#     4  10  17  27  43  62  89 118 142 172 211 256
#     4   9  18  30  44  63  84 111 149 183 214 253
#     4   8  15  25  40  64  91 119 144 169 208 254
#     4  10  17  27  45  66  86 116 148 175 211 257
#     4   9  15  25  42  66  93 117 143 172 205 256
#     4   9  18  29  40  59  89 120 144 173 212 255
#     4   9  18  26  35  60  90 113 140 170 207 250
#
# _framework density 14.78791
#
# number of rings (size 3 to 8) (size 9 to 14) (size 15 to 20)
#    0.000    2.875    1.250    2.250    0.000    3.500 
#    0.000    0.000    0.000    1.875    0.000    7.000 
#    0.000    0.000    0.000    0.000    0.000    0.000 
#
# Total GULP energy -792994.047559 kJ/mol
# GULP energy per Si atom -12390.531993 kJ/mol
# Density = 1.475425 g / cm^3
# Si number density = 14.787910 Si / 1000 Ang^3
#
#
#
# Elastic Constant Matrix: (Units=GPa)
#
#
# Indices 1 2 3 4 5 6 
#
# 1 72.0637 42.3288 39.3831 0.0000 0.0000 0.0000
# 2 42.3288 107.8214 51.7744 0.0000 0.0000 0.0000
# 3 39.3831 51.7744 103.0544 0.0000 0.0000 0.0000
# 4 0.0000 0.0000 0.0000 16.3585 0.0000 0.0000
# 5 0.0000 0.0000 0.0000 0.0000 16.2133 0.0000
# 6 0.0000 0.0000 0.0000 0.0000 0.0000 19.7884
#
#
#
# Elastic Compliance Matrix: (Units=1/GPa)
#
#
# Indices 1 2 3 4 5 6 
#
# 1 0.019684 -0.005424 -0.004798 0.000000 0.000000 0.000000
# 2 -0.005424 0.013718 -0.004819 0.000000 0.000000 0.000000
# 3 -0.004798 -0.004819 0.013958 0.000000 0.000000 0.000000
# 4 0.000000 0.000000 0.000000 0.061130 0.000000 0.000000
# 5 0.000000 0.000000 0.000000 0.000000 0.061678 0.000000
# 6 0.000000 0.000000 0.000000 0.000000 0.000000 0.050535
#
#
# Mechanical properties :
#
#
# Convention : Reuss Voigt Hill
#
# Bulk Modulus (GPa) = 57.87279 61.10136 59.48708
# Shear Modulus (GPa) = 19.48979 20.43559 19.96269
#
# Velocity S-wave (km/s) = 3.63430 3.72144 3.67813
# Velocity P-wave (km/s) = 7.53864 7.73781 7.63887
#
# Compressibility (1/GPa) = 0.01727928
#
# Stress axis : x y z
#
# Youngs Moduli (GPa) = 50.80149 72.89661 71.64286
#
# Poissons Ratio (x) = 0.39540 0.34371
# Poissons Ratio (y) = 0.27555 0.34525
# Poissons Ratio (z) = 0.24372 0.35130
#
# Static dielectric constant tensor:
#      x y z
#    x 2.653040 0.000000 0.000000 
#    y 0.000000 2.039030 0.000000 
#    z 0.000000 0.000000 2.945350 
# 
# 
# High freq. dielectric constant tensor:
#      x y z
#    x 1.539470 0.000000 0.000000 
#    y 0.000000 1.555780 0.000000 
#    z 0.000000 0.000000 1.558370 
# 
# From -- ./inp_files/62139.got.cif
#   From: 2010.03.12/outbox.cif.g09.slc.cpg/sg63_32_cif.got.tgz:62139.got - 2010.04.10 19:34:48.
