data_PCOD8255349
_publ_section_title
;
Structure prediction by ZEFSAII (Michael W. Deem and Ramdas Pophale) SiO2 
 PCOD8255349
Probable space group: C M C M
;
_chemical_formula_sum "Si O2"
_cell_formula_units_Z 112
_cell_length_a 13.457381
_cell_length_b 23.834456
_cell_length_c 23.596858
_cell_angle_alpha 90.000000
_cell_angle_beta 90.000000
_cell_angle_gamma 90.000000
_cell_volume 7568.676991
_symmetry_space_group_name_H-M "C M C M"
_symmetry_group_IT_number 63
_symmetry_cell_setting 'orthorhombic'
loop_
_space_group_symop_operation_xyz
x,y,z
-x,-y,1/2+z
x,-y,-z
-x,y,1/2-z
-x,-y,-z
x,y,1/2-z
-x,y,z
x,-y,1/2+z
1/2+x,1/2+y,z
1/2-x,1/2-y,1/2+z
1/2+x,1/2-y,-z
1/2-x,1/2+y,1/2-z
1/2-x,1/2-y,-z
1/2+x,1/2+y,1/2-z
1/2-x,1/2+y,z
1/2+x,1/2-y,1/2+z
loop_
_atom_site_type_symbol
_atom_site_label
_atom_site_fract_x
_atom_site_fract_y
_atom_site_fract_z
Si Si1 0.223164 0.625390 0.815696
Si Si2 0.788086 0.954012 0.877161
Si Si3 0.115622 0.510787 0.815553
Si Si4 0.884555 0.072376 0.887336
Si Si5 0.890745 0.064417 0.487751
Si Si6 0.610335 0.644060 0.183296
Si Si7 0.388781 0.767191 0.317302
O O1 0.248474 0.631685 0.750000
O O2 0.144489 0.575429 0.826166
O O3 0.326362 0.614429 0.846953
O O4 0.179476 0.683009 0.841759
O O5 0.804353 0.927688 0.940367
O O6 0.816895 0.905351 0.834102
O O7 0.675916 0.971547 0.860077
O O8 0.858410 0.008146 0.871481
O O9 0.139425 0.494441 0.750000
O O10 0.000000 0.502639 0.829172
O O11 0.000000 0.080892 0.875874
O O12 0.856012 0.089957 0.951968
O O13 0.000000 0.088826 0.468832
O O14 0.908129 0.000000 0.500000
O O15 0.603309 0.644375 0.250000
O O16 0.500000 0.633860 0.157924
O O17 0.650546 0.705539 0.163455
O O18 0.390449 0.772369 0.250000
O O19 0.500000 0.775497 0.340880
#
# Coordination Sequence:
#
# PCOD8255349 Si02
#       7
#    16  16  16  16  16  16  16
#     4   9  16  26  42  59  76 103 135 166 200 237
#     4  10  16  25  42  60  80 106 135 162 194 237
#     4   9  17  27  39  58  82 106 133 163 196 236
#     4   9  17  27  40  61  86 107 129 162 204 246
#     4   8  14  25  40  57  79 108 136 159 190 240
#     4   9  16  24  37  61  87 104 123 159 203 240
#     4   8  14  25  40  57  78 104 132 161 194 233
#
# _framework density 14.797829999999999
#
# number of rings (size 3 to 8) (size 9 to 14) (size 15 to 20)
#    0.000    3.143    0.000    3.857    0.000    2.571 
#    0.000    0.000    0.000   13.286    0.000    2.000 
#    0.000    0.000    0.000    0.000    0.000    0.000 
#
# Total GULP energy -693773.131996 kJ/mol
# GULP energy per Si atom -12388.805928 kJ/mol
# Density = 1.476415 g / cm^3
# Si number density = 14.797830 Si / 1000 Ang^3
#
#
#
# Elastic Constant Matrix: (Units=GPa)
#
#
# Indices 1 2 3 4 5 6 
#
# 1 94.1525 43.6712 40.1355 0.0000 0.0000 0.0000
# 2 43.6712 82.0230 26.1089 0.0000 0.0000 0.0000
# 3 40.1355 26.1089 49.2359 0.0000 0.0000 0.0000
# 4 0.0000 0.0000 0.0000 8.5302 0.0000 0.0000
# 5 0.0000 0.0000 0.0000 0.0000 4.9429 0.0000
# 6 0.0000 0.0000 0.0000 0.0000 0.0000 19.4225
#
#
#
# Elastic Compliance Matrix: (Units=1/GPa)
#
#
# Indices 1 2 3 4 5 6 
#
# 1 0.018490 -0.006072 -0.011853 0.000000 0.000000 0.000000
# 2 -0.006072 0.016661 -0.003886 0.000000 0.000000 0.000000
# 3 -0.011853 -0.003886 0.032033 0.000000 0.000000 0.000000
# 4 0.000000 0.000000 0.000000 0.117231 0.000000 0.000000
# 5 0.000000 0.000000 0.000000 0.000000 0.202309 0.000000
# 6 0.000000 0.000000 0.000000 0.000000 0.000000 0.051487
#
#
# Mechanical properties :
#
#
# Convention : Reuss Voigt Hill
#
# Bulk Modulus (GPa) = 42.43789 49.47138 45.95463
# Shear Modulus (GPa) = 10.21063 14.27885 12.24474
#
# Velocity S-wave (km/s) = 2.62965 3.10970 2.87970
# Velocity P-wave (km/s) = 6.16123 6.81159 6.49456
#
# Compressibility (1/GPa) = 0.02356385
#
# Stress axis : x y z
#
# Youngs Moduli (GPa) = 54.08364 60.01931 31.21799
#
# Poissons Ratio (x) = 0.36442 0.37002
# Poissons Ratio (y) = 0.32838 0.12131
# Poissons Ratio (z) = 0.64103 0.23322
#
# Static dielectric constant tensor:
#      x y z
#    x 2.748160 0.000000 0.000000 
#    y 0.000000 2.862330 0.000000 
#    z 0.000000 0.000000 3.019260 
# 
# 
# High freq. dielectric constant tensor:
#      x y z
#    x 1.548290 0.000000 0.000000 
#    y 0.000000 1.548080 0.000000 
#    z 0.000000 0.000000 1.547990 
# 
# From -- ./inp_files/68606.got.cif
#   From: 2010.03.12/outbox.cif.g09.slc.cpg/sg63_35_cif.got.tgz:68606.got - 2010.04.10 19:34:48.
