data_PCOD8255748
_publ_section_title
;
Structure prediction by ZEFSAII (Michael W. Deem and Ramdas Pophale) SiO2 
 PCOD8255748
Probable space group: C M C M
;
_chemical_formula_sum "Si O2"
_cell_formula_units_Z 112
_cell_length_a 17.737845
_cell_length_b 18.084325
_cell_length_c 18.738839
_cell_angle_alpha 90.000000
_cell_angle_beta 90.000000
_cell_angle_gamma 90.000000
_cell_volume 6010.987692
_symmetry_space_group_name_H-M "C M C M"
_symmetry_group_IT_number 63
_symmetry_cell_setting 'orthorhombic'
loop_
_space_group_symop_operation_xyz
x,y,z
-x,-y,1/2+z
x,-y,-z
-x,y,1/2-z
-x,-y,-z
x,y,1/2-z
-x,y,z
x,-y,1/2+z
1/2+x,1/2+y,z
1/2-x,1/2-y,1/2+z
1/2+x,1/2-y,-z
1/2-x,1/2+y,1/2-z
1/2-x,1/2-y,-z
1/2+x,1/2+y,1/2-z
1/2-x,1/2+y,z
1/2+x,1/2-y,1/2+z
loop_
_atom_site_type_symbol
_atom_site_label
_atom_site_fract_x
_atom_site_fract_y
_atom_site_fract_z
Si Si1 0.000000 0.572665 0.546296
Si Si2 0.201549 0.077761 0.328281
Si Si3 0.836029 0.417630 0.469622
Si Si4 0.206585 0.828654 0.952379
Si Si5 0.820414 0.220256 0.902840
Si Si6 0.500000 0.966344 0.834172
Si Si7 0.130317 0.360646 0.669851
Si Si8 0.741628 0.415146 0.331113
O O1 0.000000 0.500000 0.500000
O O2 0.078317 0.616044 0.529852
O O3 0.000000 0.546257 0.629071
O O4 0.168383 0.099578 0.250000
O O5 0.161341 0.121555 0.393819
O O6 0.288153 0.102625 0.332258
O O7 0.193233 0.990281 0.339838
O O8 0.833522 0.500000 0.500000
O O9 0.783042 0.369258 0.520417
O O10 0.809476 0.415973 0.387311
O O11 0.235416 0.753014 0.915240
O O12 0.152085 0.811561 0.019762
O O13 0.875397 0.283719 0.873699
O O14 0.814401 0.153549 0.846230
O O15 0.500000 0.979597 0.750000
O O16 0.427490 0.920278 0.861894
O O17 0.106001 0.340959 0.750000
O O18 0.773409 0.409893 0.250000
#
# Coordination Sequence:
#
# PCOD8255748 Si02
#       8
#     8  16  16  16  16   8  16  16
#     4  10  22  28  42  68  86 120 156 194 216 247
#     4   9  16  26  43  61  85 112 144 181 221 263
#     4  10  18  30  43  61  90 117 153 189 218 254
#     4   9  17  30  42  61  82 121 148 182 226 265
#     4   9  18  27  43  59  88 113 149 184 220 270
#     4  10  20  32  46  64  90 121 158 189 224 265
#     4   9  17  29  44  63  88 121 152 183 217 264
#     4  10  18  28  44  65  85 116 150 187 227 264
#
# _framework density 18.632546000000001
#
# number of rings (size 3 to 8) (size 9 to 14) (size 15 to 20)
#    0.000    2.571    1.429    1.286    6.000    2.286 
#    0.000    0.000    0.000    0.000    0.000    0.000 
#    0.000    2.286    0.000   10.357    0.000   84.357 
#
# Total GULP energy -693802.236155 kJ/mol
# GULP energy per Si atom -12389.325646 kJ/mol
# Density = 1.859014 g / cm^3
# Si number density = 18.632546 Si / 1000 Ang^3
#
#
#
# Elastic Constant Matrix: (Units=GPa)
#
#
# Indices 1 2 3 4 5 6 
#
# 1 14.5311 -3.0625 -2.2936 0.0000 0.0000 0.0000
# 2 -3.0625 80.3231 35.7826 0.0000 0.0000 0.0000
# 3 -2.2936 35.7826 115.5007 0.0000 0.0000 0.0000
# 4 0.0000 0.0000 0.0000 34.5224 0.0000 0.0000
# 5 0.0000 0.0000 0.0000 0.0000 12.1372 0.0000
# 6 0.0000 0.0000 0.0000 0.0000 0.0000 14.1316
#
#
#
# Elastic Compliance Matrix: (Units=1/GPa)
#
#
# Indices 1 2 3 4 5 6 
#
# 1 0.069417 0.002358 0.000648 0.000000 0.000000 0.000000
# 2 0.002358 0.014523 -0.004453 0.000000 0.000000 0.000000
# 3 0.000648 -0.004453 0.010050 0.000000 0.000000 0.000000
# 4 0.000000 0.000000 0.000000 0.028967 0.000000 0.000000
# 5 0.000000 0.000000 0.000000 0.000000 0.082391 0.000000
# 6 0.000000 0.000000 0.000000 0.000000 0.000000 0.070763
#
#
# Mechanical properties :
#
#
# Convention : Reuss Voigt Hill
#
# Bulk Modulus (GPa) = 10.97725 30.13421 20.55573
# Shear Modulus (GPa) = 16.16186 24.15349 20.15767
#
# Velocity S-wave (km/s) = 2.94836 3.60433 3.29272
# Velocity P-wave (km/s) = 4.18266 5.79048 5.05095
#
# Compressibility (1/GPa) = 0.09109746
#
# Stress axis : x y z
#
# Youngs Moduli (GPa) = 14.40566 68.85560 99.50024
#
# Poissons Ratio (x) = -0.16236 -0.06447
# Poissons Ratio (y) = -0.03397 0.44303
# Poissons Ratio (z) = -0.00933 0.30658
#
# Static dielectric constant tensor:
#      x y z
#    x 2.891070 0.000000 0.000000 
#    y 0.000000 3.624860 0.000000 
#    z 0.000000 0.000000 4.321750 
# 
# 
# High freq. dielectric constant tensor:
#      x y z
#    x 1.634340 0.000000 0.000000 
#    y 0.000000 1.720540 0.000000 
#    z 0.000000 0.000000 1.757190 
# 
# From -- ./inp_files/56931.got.cif
#   From: 2010.03.12/outbox.cif.g09.slc.cpg/sg63_29_cif.got.tgz:56931.got - 2010.04.10 19:34:48.
