data_PCOD8255119
_publ_section_title
;
Structure prediction by ZEFSAII (Michael W. Deem and Ramdas Pophale) SiO2 
 PCOD8255119
Probable space group: P N M A
;
_chemical_formula_sum "Si O2"
_cell_formula_units_Z 40
_cell_length_a 12.611989
_cell_length_b 13.360611
_cell_length_c 11.553433
_cell_angle_alpha 90.000000
_cell_angle_beta 90.000000
_cell_angle_gamma 90.000000
_cell_volume 1946.798276
_symmetry_space_group_name_H-M "P N M A"
_symmetry_group_IT_number 62
_symmetry_cell_setting 'orthorhombic'
loop_
_space_group_symop_operation_xyz
x,y,z
1/2-x,-y,1/2+z
1/2+x,1/2-y,1/2-z
-x,1/2+y,-z
-x,-y,-z
1/2+x,y,1/2-z
1/2-x,1/2+y,1/2+z
x,1/2-y,z
loop_
_atom_site_type_symbol
_atom_site_label
_atom_site_fract_x
_atom_site_fract_y
_atom_site_fract_z
Si Si1 0.882675 0.949772 0.110427
Si Si2 0.888375 0.445204 0.883453
Si Si3 0.633828 0.250000 0.090194
Si Si4 0.219000 0.250000 0.914148
Si Si5 0.748580 0.750000 0.354306
Si Si6 0.878608 0.250000 0.389497
Si Si7 0.753665 0.591567 0.750167
O O1 0.840519 0.850312 0.045481
O O2 0.995331 0.926511 0.171439
O O3 0.799743 0.990189 0.203485
O O4 0.899616 0.040510 0.020888
O O5 0.820204 0.348116 0.864780
O O6 0.842797 0.548903 0.834535
O O7 0.506355 0.250000 0.107221
O O8 0.686896 0.346691 0.149685
O O9 0.659441 0.250000 0.952641
O O10 0.208684 0.250000 0.775490
O O11 0.334107 0.250000 0.977809
O O12 0.834489 0.345988 0.320232
#
# Coordination Sequence:
#
# PCOD8255119 Si02
#       7
#     8   8   4   4   4   4   8
#     4  11  23  41  65  93 127 170 210 257 320 377
#     4  11  23  41  65  93 127 170 210 257 320 377
#     4  11  25  43  67  97 128 170 219 267 324 382
#     4  12  24  43  63  92 135 165 212 270 313 382
#     4  12  24  43  63  92 135 165 212 270 313 382
#     4  11  25  43  67  97 128 170 219 267 324 382
#     4  11  22  45  68  94 130 167 214 273 314 392
#
# _framework density 20.546555000000001
#
# number of rings (size 3 to 8) (size 9 to 14) (size 15 to 20)
#    0.000    0.800    6.000    1.800    0.000    1.600 
#    0.000    2.000    0.000    0.000    0.000    0.000 
#    0.000    0.000    0.000    0.000    0.000    0.000 
#
# Total GULP energy -495804.243013 kJ/mol
# GULP energy per Si atom -12395.106075 kJ/mol
# Density = 2.049979 g / cm^3
# Si number density = 20.546555 Si / 1000 Ang^3
#
#
#
# Elastic Constant Matrix: (Units=GPa)
#
#
# Indices 1 2 3 4 5 6 
#
# 1 156.8173 45.9312 39.5539 0.0000 0.0000 0.0000
# 2 45.9312 114.2036 19.2749 0.0000 0.0000 0.0000
# 3 39.5539 19.2749 92.9851 0.0000 0.0000 0.0000
# 4 0.0000 0.0000 0.0000 20.0521 0.0000 0.0000
# 5 0.0000 0.0000 0.0000 0.0000 21.8360 0.0000
# 6 0.0000 0.0000 0.0000 0.0000 0.0000 -1.6021
#
#
#
# Elastic Compliance Matrix: (Units=1/GPa)
#
#
# Indices 1 2 3 4 5 6 
#
# 1 0.007869 -0.002694 -0.002789 0.000000 0.000000 0.000000
# 2 -0.002694 0.009996 -0.000926 0.000000 0.000000 0.000000
# 3 -0.002789 -0.000926 0.012133 0.000000 0.000000 0.000000
# 4 0.000000 0.000000 0.000000 0.049870 0.000000 0.000000
# 5 0.000000 0.000000 0.000000 0.000000 0.045796 0.000000
# 6 0.000000 0.000000 0.000000 0.000000 0.000000 -0.624198
#
#
# Mechanical properties :
#
#
# Convention : Reuss Voigt Hill
#
# Bulk Modulus (GPa) = 58.20795 63.72513 60.96654
# Shear Modulus (GPa) = -10.41693 25.34026 7.46167
#
# Velocity S-wave (km/s) = -2.25409 3.51566 1.90774
# Velocity P-wave (km/s) = 4.64938 6.89653 5.88128
#
# Compressibility (1/GPa) = 0.01717978
#
# Stress axis : x y z
#
# Youngs Moduli (GPa) = 127.07348 100.03818 82.42151
#
# Poissons Ratio (x) = 0.26953 0.22987
# Poissons Ratio (y) = 0.34237 0.07632
# Poissons Ratio (z) = 0.35441 0.09264
#
# Static dielectric constant tensor:
#      x y z
#    x 3.797400 0.000000 0.000000 
#    y 0.000000 4.219450 0.000000 
#    z 0.000000 0.000000 3.728070 
# 
# 
# High freq. dielectric constant tensor:
#      x y z
#    x 1.804950 0.000000 0.000000 
#    y 0.000000 1.820090 0.000000 
#    z 0.000000 0.000000 1.800470 
# 
# From -- ./inp_files/12095.got.cif
#   From: 2010.03.12/outbox.cif.g09.slc.cpg/sg62_7_cif.got.tgz:12095.got - 2010.04.10 19:12:36.
