data_PCOD8255510
_publ_section_title
;
Structure prediction by ZEFSAII (Michael W. Deem and Ramdas Pophale) SiO2 
 PCOD8255510
Probable space group: C M C M
;
_chemical_formula_sum "Si O2"
_cell_formula_units_Z 128
_cell_length_a 19.763344
_cell_length_b 20.918254
_cell_length_c 18.743738
_cell_angle_alpha 90.000000
_cell_angle_beta 90.000000
_cell_angle_gamma 90.000000
_cell_volume 7748.935879
_symmetry_space_group_name_H-M "C M C M"
_symmetry_group_IT_number 63
_symmetry_cell_setting 'orthorhombic'
loop_
_space_group_symop_operation_xyz
x,y,z
-x,-y,1/2+z
x,-y,-z
-x,y,1/2-z
-x,-y,-z
x,y,1/2-z
-x,y,z
x,-y,1/2+z
1/2+x,1/2+y,z
1/2-x,1/2-y,1/2+z
1/2+x,1/2-y,-z
1/2-x,1/2+y,1/2-z
1/2-x,1/2-y,-z
1/2+x,1/2+y,1/2-z
1/2-x,1/2+y,z
1/2+x,1/2-y,1/2+z
loop_
_atom_site_type_symbol
_atom_site_label
_atom_site_fract_x
_atom_site_fract_y
_atom_site_fract_z
Si Si1 0.715551 0.504517 0.834788
Si Si2 0.801308 0.376935 0.165764
Si Si3 0.573330 0.464477 0.834815
Si Si4 0.299652 0.118993 0.165290
Si Si5 0.076781 0.574002 0.917688
Si Si6 0.926815 0.819574 0.665176
Si Si7 0.210304 0.764636 0.665829
Si Si8 0.076894 0.573602 0.082843
O O1 0.715449 0.505626 0.750000
O O2 0.751480 0.568317 0.864572
O O3 0.637999 0.504207 0.864104
O O4 0.755148 0.441413 0.861020
O O5 0.812010 0.383532 0.250000
O O6 0.874627 0.382681 0.130074
O O7 0.769268 0.307904 0.145737
O O8 0.574534 0.465747 0.750000
O O9 0.500000 0.491945 0.861507
O O10 0.581852 0.392100 0.861659
O O11 0.308155 0.118755 0.250000
O O12 0.264620 0.184206 0.136698
O O13 0.373668 0.116523 0.130507
O O14 0.086620 0.500256 0.896106
O O15 0.000000 0.595361 0.902030
O O16 0.094582 0.584086 0.000292
O O17 0.925141 0.818397 0.750000
O O18 0.864638 0.778512 0.633645
O O19 0.000000 0.792764 0.638476
O O20 0.206685 0.773962 0.750000
O O21 0.000000 0.595015 0.098741
#
# Coordination Sequence:
#
# PCOD8255510 Si02
#       8
#    16  16  16  16  16  16  16  16
#     4   9  15  24  39  61  87 114 147 186 220 257
#     4  10  19  29  43  66  95 123 149 183 230 278
#     4   8  12  19  34  55  79 107 138 173 213 256
#     4  10  17  28  47  68  90 119 155 192 227 266
#     4   9  18  32  47  66  94 123 151 187 233 282
#     4   8  12  19  32  51  78 111 139 159 195 259
#     4   9  17  27  39  61  94 123 143 177 229 271
#     4   9  18  32  49  67  89 119 155 196 235 269
#
# _framework density 16.518397
#
# number of rings (size 3 to 8) (size 9 to 14) (size 15 to 20)
#    0.000    3.000    2.500    1.500    0.000    1.000 
#    0.000    3.125    0.000    0.750    0.000    3.500 
#    0.000    3.000    0.000    0.000    0.000    0.250 
#
# Total GULP energy -793057.180202 kJ/mol
# GULP energy per Si atom -12391.518441 kJ/mol
# Density = 1.648080 g / cm^3
# Si number density = 16.518397 Si / 1000 Ang^3
#
#
#
# Elastic Constant Matrix: (Units=GPa)
#
#
# Indices 1 2 3 4 5 6 
#
# 1 126.1699 65.7423 26.2406 0.0000 0.0000 0.0000
# 2 65.7423 108.6366 21.9348 0.0000 0.0000 0.0000
# 3 26.2406 21.9348 19.0488 0.0000 0.0000 0.0000
# 4 0.0000 0.0000 0.0000 9.7068 0.0000 0.0000
# 5 0.0000 0.0000 0.0000 0.0000 13.3159 0.0000
# 6 0.0000 0.0000 0.0000 0.0000 0.0000 25.2821
#
#
#
# Elastic Compliance Matrix: (Units=1/GPa)
#
#
# Indices 1 2 3 4 5 6 
#
# 1 0.013354 -0.005690 -0.011844 0.000000 0.000000 0.000000
# 2 -0.005690 0.014418 -0.008764 0.000000 0.000000 0.000000
# 3 -0.011844 -0.008764 0.078904 0.000000 0.000000 0.000000
# 4 0.000000 0.000000 0.000000 0.103020 0.000000 0.000000
# 5 0.000000 0.000000 0.000000 0.000000 0.075098 0.000000
# 6 0.000000 0.000000 0.000000 0.000000 0.000000 0.039554
#
#
# Mechanical properties :
#
#
# Convention : Reuss Voigt Hill
#
# Bulk Modulus (GPa) = 18.49099 53.52119 36.00609
# Shear Modulus (GPa) = 12.65917 18.99012 15.82465
#
# Velocity S-wave (km/s) = 2.77134 3.39430 3.09852
# Velocity P-wave (km/s) = 4.63238 6.91614 5.88608
#
# Compressibility (1/GPa) = 0.05408039
#
# Stress axis : x y z
#
# Youngs Moduli (GPa) = 74.88518 69.35848 12.67359
#
# Poissons Ratio (x) = 0.39464 0.15010
# Poissons Ratio (y) = 0.42608 0.11108
# Poissons Ratio (z) = 0.88691 0.60788
#
# Static dielectric constant tensor:
#      x y z
#    x 3.446580 0.000000 0.000000 
#    y 0.000000 3.089660 0.000000 
#    z 0.000000 0.000000 2.537910 
# 
# 
# High freq. dielectric constant tensor:
#      x y z
#    x 1.648610 0.000000 0.000000 
#    y 0.000000 1.618760 0.000000 
#    z 0.000000 0.000000 1.573510 
# 
# From -- ./inp_files/56073.got.cif
#   From: 2010.03.12/outbox.cif.g09.slc.cpg/sg63_29_cif.got.tgz:56073.got - 2010.04.10 19:34:48.
