data_PCOD8255325
_publ_section_title
;
Structure prediction by ZEFSAII (Michael W. Deem and Ramdas Pophale) SiO2 
 PCOD8255325
Probable space group: P N M A
;
_chemical_formula_sum "Si O2"
_cell_formula_units_Z 48
_cell_length_a 9.000000
_cell_length_b 9.000000
_cell_length_c 30.000000
_cell_angle_alpha 90.000000
_cell_angle_beta 90.000000
_cell_angle_gamma 90.000000
_cell_volume 2430.000000
_symmetry_space_group_name_H-M "P N M A"
_symmetry_group_IT_number 62
_symmetry_cell_setting 'orthorhombic'
loop_
_space_group_symop_operation_xyz
x,y,z
1/2-x,-y,1/2+z
1/2+x,1/2-y,1/2-z
-x,1/2+y,-z
-x,-y,-z
1/2+x,y,1/2-z
1/2-x,1/2+y,1/2+z
x,1/2-y,z
loop_
_atom_site_type_symbol
_atom_site_label
_atom_site_fract_x
_atom_site_fract_y
_atom_site_fract_z
Si Si1 0.262443 0.072916 0.275133
Si Si2 0.765722 0.923135 0.378927
Si Si3 0.864508 0.587240 0.052663
Si Si4 0.554172 0.426919 0.648498
Si Si5 0.452322 0.575091 0.203099
Si Si6 0.291807 0.086557 0.527485
O O1 0.260874 0.250000 0.269189
O O2 0.376710 0.025498 0.313002
O O3 0.314608 0.991754 0.230313
O O4 0.099090 0.015742 0.286444
O O5 0.735152 0.750000 0.387442
O O6 0.616842 0.980413 0.354423
O O7 0.910885 0.950594 0.348897
O O8 0.784797 0.992051 0.428897
O O9 0.794869 0.750000 0.052424
O O10 0.859638 0.526939 0.103202
O O11 0.033126 0.590837 0.036354
O O12 0.759916 0.496699 0.018828
O O13 0.569730 0.250000 0.658427
O O14 0.473204 0.750000 0.213672
O O15 0.226099 0.250000 0.520328
#
# Coordination Sequence:
#
# PCOD8255325 Si02
#       6
#     8   8   8   8   8   8
#     4  12  25  39  55  81 112 136 169 223 277 315
#     4   8  16  31  54  80 103 133 178 222 254 303
#     4   8  14  24  42  71 104 136 172 212 252 303
#     4   9  17  33  55  78 106 142 182 218 257 314
#     4  11  22  39  61  80 102 140 183 215 258 325
#     4   8  13  24  43  70 103 134 166 210 260 302
#
# _framework density 19.753086
#
# number of rings (size 3 to 8) (size 9 to 14) (size 15 to 20)
#    0.000    2.667    0.000    5.000    0.000    2.000 
#    0.000    5.000    0.000    1.000    0.000    0.000 
#    0.000    0.000    0.000    0.000    0.000    0.000 
#
# Total GULP energy -594748.596790 kJ/mol
# GULP energy per Si atom -12390.595766 kJ/mol
# Density = 1.970813 g / cm^3
# Si number density = 19.753086 Si / 1000 Ang^3
#
#
#
# Elastic Constant Matrix: (Units=GPa)
#
#
# Indices 1 2 3 4 5 6 
#
# 1 28.4235 0.2366 -21.9293 0.0000 0.0000 0.0000
# 2 0.2366 66.9435 12.8280 0.0000 0.0000 0.0000
# 3 -21.9293 12.8280 35.6960 0.0000 0.0000 0.0000
# 4 0.0000 0.0000 0.0000 30.6623 0.0000 0.0000
# 5 0.0000 0.0000 0.0000 0.0000 15.9274 0.0000
# 6 0.0000 0.0000 0.0000 0.0000 0.0000 22.3801
#
#
#
# Elastic Compliance Matrix: (Units=1/GPa)
#
#
# Indices 1 2 3 4 5 6 
#
# 1 0.071971 -0.009372 0.047582 0.000000 0.000000 0.000000
# 2 -0.009372 0.017263 -0.011962 0.000000 0.000000 0.000000
# 3 0.047582 -0.011962 0.061544 0.000000 0.000000 0.000000
# 4 0.000000 0.000000 0.000000 0.032613 0.000000 0.000000
# 5 0.000000 0.000000 0.000000 0.000000 0.062785 0.000000
# 6 0.000000 0.000000 0.000000 0.000000 0.000000 0.044683
#
#
# Mechanical properties :
#
#
# Convention : Reuss Voigt Hill
#
# Bulk Modulus (GPa) = 4.91944 12.59262 8.75603
# Shear Modulus (GPa) = 16.33343 23.12247 19.72795
#
# Velocity S-wave (km/s) = 2.87867 3.42508 3.16369
# Velocity P-wave (km/s) = 3.68034 4.69366 4.21754
#
# Compressibility (1/GPa) = 0.20327532
#
# Stress axis : x y z
#
# Youngs Moduli (GPa) = 13.89453 57.92666 16.24842
#
# Poissons Ratio (x) = 0.54290 -0.77314
# Poissons Ratio (y) = 0.13022 0.19436
# Poissons Ratio (z) = -0.66113 0.69289
#
# Static dielectric constant tensor:
#      x y z
#    x 3.202210 0.000000 0.000000 
#    y 0.000000 3.534400 0.000000 
#    z 0.000000 0.000000 3.984590 
# 
# 
# High freq. dielectric constant tensor:
#      x y z
#    x 1.732110 0.000000 0.000000 
#    y 0.000000 1.742400 0.000000 
#    z 0.000000 0.000000 1.787810 
# 
# From -- ./inp_files/31949.got.cif
#   From: 2010.03.12/outbox.ucp.g09.slc.cvg/sg62_16_cif.got.tgz:31949.got - 2010.05.04 19:35:18.
