data_PCOD8255038
_publ_section_title
;
Structure prediction by ZEFSAII (Michael W. Deem and Ramdas Pophale) SiO2 
 PCOD8255038
Probable space group: P N M A
;
_chemical_formula_sum "Si O2"
_cell_formula_units_Z 48
_cell_length_a 16.411065
_cell_length_b 27.626468
_cell_length_c 4.908524
_cell_angle_alpha 90.000000
_cell_angle_beta 90.000000
_cell_angle_gamma 90.000000
_cell_volume 2225.425443
_symmetry_space_group_name_H-M "P N M A"
_symmetry_group_IT_number 62
_symmetry_cell_setting 'orthorhombic'
loop_
_space_group_symop_operation_xyz
x,y,z
1/2-x,-y,1/2+z
1/2+x,1/2-y,1/2-z
-x,1/2+y,-z
-x,-y,-z
1/2+x,y,1/2-z
1/2-x,1/2+y,1/2+z
x,1/2-y,z
loop_
_atom_site_type_symbol
_atom_site_label
_atom_site_fract_x
_atom_site_fract_y
_atom_site_fract_z
Si Si1 0.218482 0.841101 0.684895
Si Si2 0.423595 0.750000 0.395900
Si Si3 0.144193 0.879492 0.175781
Si Si4 0.372991 0.895520 0.840244
Si Si5 0.812642 0.750000 0.614161
Si Si6 0.965838 0.641763 0.165162
Si Si7 0.239686 0.031508 0.568853
O O1 0.187841 0.840327 0.375173
O O2 0.288102 0.880876 0.707126
O O3 0.254628 0.793129 0.806113
O O4 0.142826 0.856997 0.873708
O O5 0.393601 0.750000 0.705531
O O6 0.475805 0.799781 0.371876
O O7 0.344072 0.750000 0.197690
O O8 0.049667 0.883643 0.261718
O O9 0.194207 0.929459 0.179598
O O10 0.439505 0.888932 0.602462
O O11 0.348662 0.948381 0.960299
O O12 0.399286 0.862961 0.096615
O O13 0.217504 0.997987 0.825483
#
# Coordination Sequence:
#
# PCOD8255038 Si02
#       7
#     8   4   8   8   4   8   8
#     4  11  21  40  61  91 123 171 214 262 303 376
#     4  12  22  38  62  94 132 172 214 254 306 378
#     4  11  25  41  64  94 133 164 209 272 339 367
#     4  11  22  41  66  91 125 172 213 254 326 389
#     4  12  22  36  64  94 122 164 240 254 290 380
#     4  12  23  41  62  97 133 173 206 261 321 387
#     4  11  23  44  69  94 123 166 223 277 330 397
#
# _framework density 21.568906999999999
#
# number of rings (size 3 to 8) (size 9 to 14) (size 15 to 20)
#    0.000    0.667    3.333    7.000    0.000    1.333 
#    0.000    5.000    0.000    0.000    0.000    0.000 
#    0.000    0.000    0.000    0.000    0.000    0.000 
#
# Total GULP energy -594716.405901 kJ/mol
# GULP energy per Si atom -12389.925123 kJ/mol
# Density = 2.151982 g / cm^3
# Si number density = 21.568907 Si / 1000 Ang^3
#
#
#
# Elastic Constant Matrix: (Units=GPa)
#
#
# Indices 1 2 3 4 5 6 
#
# 1 91.9949 32.4411 28.1011 0.0000 0.0000 0.0000
# 2 32.4411 75.0603 23.5824 0.0000 0.0000 0.0000
# 3 28.1011 23.5824 88.3284 0.0000 0.0000 0.0000
# 4 0.0000 0.0000 0.0000 38.7597 0.0000 0.0000
# 5 0.0000 0.0000 0.0000 0.0000 28.6209 0.0000
# 6 0.0000 0.0000 0.0000 0.0000 0.0000 16.3012
#
#
#
# Elastic Compliance Matrix: (Units=1/GPa)
#
#
# Indices 1 2 3 4 5 6 
#
# 1 0.013512 -0.004900 -0.002990 0.000000 0.000000 0.000000
# 2 -0.004900 0.016320 -0.002798 0.000000 0.000000 0.000000
# 3 -0.002990 -0.002798 0.013020 0.000000 0.000000 0.000000
# 4 0.000000 0.000000 0.000000 0.025800 0.000000 0.000000
# 5 0.000000 0.000000 0.000000 0.000000 0.034940 0.000000
# 6 0.000000 0.000000 0.000000 0.000000 0.000000 0.061345
#
#
# Mechanical properties :
#
#
# Convention : Reuss Voigt Hill
#
# Bulk Modulus (GPa) = 46.56872 47.07033 46.81952
# Shear Modulus (GPa) = 25.84368 28.15362 26.99865
#
# Velocity S-wave (km/s) = 3.46525 3.61680 3.54183
# Velocity P-wave (km/s) = 6.13581 6.26995 6.20324
#
# Compressibility (1/GPa) = 0.02147364
#
# Stress axis : x y z
#
# Youngs Moduli (GPa) = 74.01039 61.27597 76.80608
#
# Poissons Ratio (x) = 0.30027 0.22968
# Poissons Ratio (y) = 0.36267 0.21491
# Poissons Ratio (z) = 0.22132 0.17146
#
# Static dielectric constant tensor:
#      x y z
#    x 3.701650 0.000000 0.000000 
#    y 0.000000 4.045780 0.000000 
#    z 0.000000 0.000000 4.265020 
# 
# 
# High freq. dielectric constant tensor:
#      x y z
#    x 1.824880 0.000000 0.000000 
#    y 0.000000 1.837140 0.000000 
#    z 0.000000 0.000000 1.872160 
# 
# From -- ./inp_files/1202.got.cif
#   From: 2010.03.12/outbox.cif.g09.slc.cpg/sg62_1_cif.got.tgz:1202.got - 2010.04.10 19:12:36.
