data_PCOD8255123
_publ_section_title
;
Structure prediction by ZEFSAII (Michael W. Deem and Ramdas Pophale) SiO2 
 PCOD8255123
Probable space group: P N M A
;
_chemical_formula_sum "Si O2"
_cell_formula_units_Z 32
_cell_length_a 9.771449
_cell_length_b 20.624106
_cell_length_c 7.159057
_cell_angle_alpha 90.000000
_cell_angle_beta 90.000000
_cell_angle_gamma 90.000000
_cell_volume 1442.746143
_symmetry_space_group_name_H-M "P N M A"
_symmetry_group_IT_number 62
_symmetry_cell_setting 'orthorhombic'
loop_
_space_group_symop_operation_xyz
x,y,z
1/2-x,-y,1/2+z
1/2+x,1/2-y,1/2-z
-x,1/2+y,-z
-x,-y,-z
1/2+x,y,1/2-z
1/2-x,1/2+y,1/2+z
x,1/2-y,z
loop_
_atom_site_type_symbol
_atom_site_label
_atom_site_fract_x
_atom_site_fract_y
_atom_site_fract_z
Si Si1 0.089924 0.141498 0.047415
Si Si2 0.910479 0.250000 0.957231
Si Si3 0.679841 0.250000 0.683447
Si Si4 0.919283 0.529474 0.243559
Si Si5 0.829690 0.946243 0.638341
O O1 0.207002 0.185558 0.944217
O O2 0.059885 0.077513 0.928354
O O3 0.949569 0.184429 0.072673
O O4 0.143540 0.120541 0.250591
O O5 0.757225 0.250000 0.880456
O O6 0.014773 0.250000 0.775510
O O7 0.824072 0.469688 0.179836
O O8 0.850995 0.567224 0.418569
O O9 0.067576 0.503120 0.298679
#
# Coordination Sequence:
#
# PCOD8255123 Si02
#       5
#     8   4   4   8   8
#     4   9  21  38  60  83 129 150 205 246 304 361
#     4   8  20  36  64  87 115 167 200 256 303 355
#     4   8  20  36  64  85 111 167 200 250 301 355
#     4  11  23  35  62  89 123 160 202 243 320 359
#     4  11  23  37  57  95 121 163 196 254 304 376
#
# _framework density 22.179922999999999
#
# number of rings (size 3 to 8) (size 9 to 14) (size 15 to 20)
#    1.500    0.500    2.500    0.750    3.500    0.000 
#    0.000    5.000    0.000    9.000    0.000    0.000 
#    0.000    0.000    0.000    0.000    0.000    0.000 
#
# Total GULP energy -396434.938979 kJ/mol
# GULP energy per Si atom -12388.591843 kJ/mol
# Density = 2.212944 g / cm^3
# Si number density = 22.179923 Si / 1000 Ang^3
#
#
#
# Elastic Constant Matrix: (Units=GPa)
#
#
# Indices 1 2 3 4 5 6 
#
# 1 37.4501 -15.6215 -14.4514 0.0000 0.0000 0.0000
# 2 -15.6215 54.2918 -7.1866 0.0000 0.0000 0.0000
# 3 -14.4514 -7.1866 63.1388 0.0000 0.0000 0.0000
# 4 0.0000 0.0000 0.0000 26.6034 0.0000 0.0000
# 5 0.0000 0.0000 0.0000 0.0000 22.0707 0.0000
# 6 0.0000 0.0000 0.0000 0.0000 0.0000 11.1144
#
#
#
# Elastic Compliance Matrix: (Units=1/GPa)
#
#
# Indices 1 2 3 4 5 6 
#
# 1 0.035005 0.011303 0.009299 0.000000 0.000000 0.000000
# 2 0.011303 0.022350 0.005131 0.000000 0.000000 0.000000
# 3 0.009299 0.005131 0.018550 0.000000 0.000000 0.000000
# 4 0.000000 0.000000 0.000000 0.037589 0.000000 0.000000
# 5 0.000000 0.000000 0.000000 0.000000 0.045309 0.000000
# 6 0.000000 0.000000 0.000000 0.000000 0.000000 0.089973
#
#
# Mechanical properties :
#
#
# Convention : Reuss Voigt Hill
#
# Bulk Modulus (GPa) = 7.85108 8.92909 8.39008
# Shear Modulus (GPa) = 20.85339 24.76705 22.81022
#
# Velocity S-wave (km/s) = 3.06958 3.34525 3.21037
# Velocity P-wave (km/s) = 4.01379 4.35378 4.18724
#
# Compressibility (1/GPa) = 0.12737106
#
# Stress axis : x y z
#
# Youngs Moduli (GPa) = 28.56726 44.74191 53.90713
#
# Poissons Ratio (x) = -0.50572 -0.50126
# Poissons Ratio (y) = -0.32289 -0.27660
# Poissons Ratio (z) = -0.26564 -0.22957
#
# Static dielectric constant tensor:
#      x y z
#    x 3.697360 0.000000 0.000000 
#    y 0.000000 3.918730 0.000000 
#    z 0.000000 0.000000 3.950180 
# 
# 
# High freq. dielectric constant tensor:
#      x y z
#    x 1.854530 0.000000 0.000000 
#    y 0.000000 1.868790 0.000000 
#    z 0.000000 0.000000 1.858370 
# 
# From -- ./inp_files/4989.got.cif
#   From: 2010.03.12/outbox.cif.g09.slc.cpg/sg62_3_cif.got.tgz:4989.got - 2010.04.10 19:12:36.
