data_PCOD8255828
_publ_section_title
;
Structure prediction by ZEFSAII (Michael W. Deem and Ramdas Pophale) SiO2 
 PCOD8255828
Probable space group: C M C M
;
_chemical_formula_sum "Si O2"
_cell_formula_units_Z 80
_cell_length_a 9.158423
_cell_length_b 18.370652
_cell_length_c 25.848165
_cell_angle_alpha 90.000000
_cell_angle_beta 90.000000
_cell_angle_gamma 90.000000
_cell_volume 4348.855585
_symmetry_space_group_name_H-M "C M C M"
_symmetry_group_IT_number 63
_symmetry_cell_setting 'orthorhombic'
loop_
_space_group_symop_operation_xyz
x,y,z
-x,-y,1/2+z
x,-y,-z
-x,y,1/2-z
-x,-y,-z
x,y,1/2-z
-x,y,z
x,-y,1/2+z
1/2+x,1/2+y,z
1/2-x,1/2-y,1/2+z
1/2+x,1/2-y,-z
1/2-x,1/2+y,1/2-z
1/2-x,1/2-y,-z
1/2+x,1/2+y,1/2-z
1/2-x,1/2+y,z
1/2+x,1/2-y,1/2+z
loop_
_atom_site_type_symbol
_atom_site_label
_atom_site_fract_x
_atom_site_fract_y
_atom_site_fract_z
Si Si1 0.672351 0.798994 0.250000
Si Si2 0.165283 0.054159 0.750000
Si Si3 0.172342 0.709129 0.453849
Si Si4 0.827367 0.543283 0.450378
Si Si5 0.329871 0.292867 0.148408
Si Si6 0.164909 0.037752 0.862110
O O1 0.500000 0.787681 0.250000
O O2 0.713353 0.883713 0.250000
O O3 0.740244 0.763616 0.198052
O O4 0.183594 0.007887 0.802846
O O5 0.000000 0.089046 0.750000
O O6 0.250000 0.750000 0.500000
O O7 0.226822 0.626032 0.453804
O O8 0.221350 0.745348 0.400186
O O9 0.000000 0.715200 0.462174
O O10 0.765302 0.500000 0.500000
O O11 0.771662 0.507343 0.397937
O O12 0.000000 0.539077 0.448662
O O13 0.500000 0.282171 0.160211
O O14 0.293820 0.377053 0.136398
O O15 0.000000 0.026096 0.881780
#
# Coordination Sequence:
#
# PCOD8255828 Si02
#       6
#     8   8  16  16  16  16
#     4  10  18  28  49  80 105 129 167 211 253 294
#     4   8  16  32  51  74 105 137 169 205 247 296
#     4  10  21  36  54  75 100 134 171 208 255 306
#     4  10  21  35  50  73 105 133 160 205 260 302
#     4   9  18  34  53  73 102 138 172 205 246 299
#     4   9  17  31  53  76  98 131 171 206 241 289
#
# _framework density 18.395645999999999
#
# number of rings (size 3 to 8) (size 9 to 14) (size 15 to 20)
#    0.000    2.600    0.000    3.300    0.000    5.200 
#    0.000    1.000    0.000    3.600    0.000    0.000 
#    0.000    0.000    0.000    0.000    0.000    0.000 
#
# Total GULP energy -495904.051912 kJ/mol
# GULP energy per Si atom -12397.601298 kJ/mol
# Density = 1.835378 g / cm^3
# Si number density = 18.395646 Si / 1000 Ang^3
#
#
#
# Elastic Constant Matrix: (Units=GPa)
#
#
# Indices 1 2 3 4 5 6 
#
# 1 52.0085 32.3557 56.1054 0.0000 0.0000 0.0000
# 2 32.3557 98.3881 78.9447 0.0000 0.0000 0.0000
# 3 56.1054 78.9447 184.3660 0.0000 0.0000 0.0000
# 4 0.0000 0.0000 0.0000 31.6201 0.0000 0.0000
# 5 0.0000 0.0000 0.0000 0.0000 36.7431 0.0000
# 6 0.0000 0.0000 0.0000 0.0000 0.0000 16.9809
#
#
#
# Elastic Compliance Matrix: (Units=1/GPa)
#
#
# Indices 1 2 3 4 5 6 
#
# 1 0.029533 -0.003810 -0.007356 0.000000 0.000000 0.000000
# 2 -0.003810 0.015975 -0.005681 0.000000 0.000000 0.000000
# 3 -0.007356 -0.005681 0.010095 0.000000 0.000000 0.000000
# 4 0.000000 0.000000 0.000000 0.031625 0.000000 0.000000
# 5 0.000000 0.000000 0.000000 0.000000 0.027216 0.000000
# 6 0.000000 0.000000 0.000000 0.000000 0.000000 0.058890
#
#
# Mechanical properties :
#
#
# Convention : Reuss Voigt Hill
#
# Bulk Modulus (GPa) = 45.64216 74.39714 60.01965
# Shear Modulus (GPa) = 23.32830 28.22595 25.77713
#
# Velocity S-wave (km/s) = 3.56496 3.92137 3.74741
# Velocity P-wave (km/s) = 6.46611 7.81239 7.17091
#
# Compressibility (1/GPa) = 0.02190957
#
# Stress axis : x y z
#
# Youngs Moduli (GPa) = 33.85997 62.59733 99.05734
#
# Poissons Ratio (x) = 0.23849 0.72867
# Poissons Ratio (y) = 0.12900 0.56275
# Poissons Ratio (z) = 0.24908 0.35562
#
# Static dielectric constant tensor:
#      x y z
#    x 3.192630 0.000000 0.000000 
#    y 0.000000 3.271780 0.000000 
#    z 0.000000 0.000000 3.618820 
# 
# 
# High freq. dielectric constant tensor:
#      x y z
#    x 1.701730 0.000000 0.000000 
#    y 0.000000 1.683720 0.000000 
#    z 0.000000 0.000000 1.735400 
# 
# From -- ./inp_files/59565.got.cif
#   From: 2010.03.12/outbox.cif.g09.slc.cpg/sg63_30_cif.got.tgz:59565.got - 2010.04.10 19:34:48.
