data_PCOD8255730
_publ_section_title
;
Structure prediction by ZEFSAII (Michael W. Deem and Ramdas Pophale) SiO2 
 PCOD8255730
Probable space group: C M C M
;
_chemical_formula_sum "Si O2"
_cell_formula_units_Z 88
_cell_length_a 20.641155
_cell_length_b 24.623203
_cell_length_c 8.917840
_cell_angle_alpha 90.000000
_cell_angle_beta 90.000000
_cell_angle_gamma 90.000000
_cell_volume 4532.504217
_symmetry_space_group_name_H-M "C M C M"
_symmetry_group_IT_number 63
_symmetry_cell_setting 'orthorhombic'
loop_
_space_group_symop_operation_xyz
x,y,z
-x,-y,1/2+z
x,-y,-z
-x,y,1/2-z
-x,-y,-z
x,y,1/2-z
-x,y,z
x,-y,1/2+z
1/2+x,1/2+y,z
1/2-x,1/2-y,1/2+z
1/2+x,1/2-y,-z
1/2-x,1/2+y,1/2-z
1/2-x,1/2-y,-z
1/2+x,1/2+y,1/2-z
1/2-x,1/2+y,z
1/2+x,1/2-y,1/2+z
loop_
_atom_site_type_symbol
_atom_site_label
_atom_site_fract_x
_atom_site_fract_y
_atom_site_fract_z
Si Si1 0.194452 0.715744 0.418974
Si Si2 0.426480 0.172227 0.573626
Si Si3 0.763324 0.593072 0.416779
Si Si4 0.617820 0.054236 0.925053
Si Si5 0.000000 0.939935 0.428361
Si Si6 0.375555 0.557910 0.074107
O O1 0.186075 0.737941 0.250000
O O2 0.250000 0.750000 0.500000
O O3 0.123567 0.715079 0.498503
O O4 0.218201 0.654975 0.421278
O O5 0.413368 0.174432 0.750000
O O6 0.500000 0.189831 0.533495
O O7 0.416789 0.109682 0.517700
O O8 0.773982 0.568563 0.250000
O O9 0.806207 0.558109 0.531731
O O10 0.688272 0.592048 0.461515
O O11 0.608965 0.047292 0.750000
O O12 0.587189 0.000000 0.000000
O O13 0.064597 0.910906 0.492454
O O14 0.000000 0.941311 0.250000
O O15 0.000000 0.000000 0.500000
O O16 0.390154 0.551765 0.250000
O O17 0.364796 0.500000 0.000000
#
# Coordination Sequence:
#
# PCOD8255730 Si02
#       6
#    16  16  16  16   8  16
#     4  10  20  36  58  82 105 132 171 217 267 320
#     4   9  19  36  56  79 108 143 182 221 265 316
#     4   9  19  33  50  72  98 129 168 211 255 305
#     4  10  19  30  47  73 107 144 179 215 255 301
#     4  10  18  28  42  62  88 122 160 196 236 286
#     4  10  18  29  45  66  93 126 162 200 241 292
#
# _framework density 19.415316000000001
#
# number of rings (size 3 to 8) (size 9 to 14) (size 15 to 20)
#    0.000    2.364    0.000    4.091    0.000    5.091 
#    0.000    0.000    2.000    0.000    0.000    0.000 
#    0.000    0.000    0.000    0.000    0.000    0.000 
#
# Total GULP energy -545315.628918 kJ/mol
# GULP energy per Si atom -12393.537021 kJ/mol
# Density = 1.937113 g / cm^3
# Si number density = 19.415316 Si / 1000 Ang^3
#
#
#
# Elastic Constant Matrix: (Units=GPa)
#
#
# Indices 1 2 3 4 5 6 
#
# 1 146.3236 21.3901 51.8840 0.0000 0.0000 0.0000
# 2 21.3901 30.7666 20.9727 0.0000 0.0000 0.0000
# 3 51.8840 20.9727 103.1918 0.0000 0.0000 0.0000
# 4 0.0000 0.0000 0.0000 25.7741 0.0000 0.0000
# 5 0.0000 0.0000 0.0000 0.0000 32.2843 0.0000
# 6 0.0000 0.0000 0.0000 0.0000 0.0000 23.9814
#
#
#
# Elastic Compliance Matrix: (Units=1/GPa)
#
#
# Indices 1 2 3 4 5 6 
#
# 1 0.008636 -0.003534 -0.003624 0.000000 0.000000 0.000000
# 2 -0.003534 0.039176 -0.006185 0.000000 0.000000 0.000000
# 3 -0.003624 -0.006185 0.012770 0.000000 0.000000 0.000000
# 4 0.000000 0.000000 0.000000 0.038799 0.000000 0.000000
# 5 0.000000 0.000000 0.000000 0.000000 0.030975 0.000000
# 6 0.000000 0.000000 0.000000 0.000000 0.000000 0.041699
#
#
# Mechanical properties :
#
#
# Convention : Reuss Voigt Hill
#
# Bulk Modulus (GPa) = 29.50226 52.08618 40.79422
# Shear Modulus (GPa) = 23.80523 28.81032 26.30778
#
# Velocity S-wave (km/s) = 3.50538 3.85632 3.68503
# Velocity P-wave (km/s) = 5.62245 6.83475 6.25803
#
# Compressibility (1/GPa) = 0.03389570
#
# Stress axis : x y z
#
# Youngs Moduli (GPa) = 115.79905 25.52592 78.30963
#
# Poissons Ratio (x) = 0.09020 0.28378
# Poissons Ratio (y) = 0.40919 0.48438
# Poissons Ratio (z) = 0.41963 0.15789
#
# Static dielectric constant tensor:
#      x y z
#    x 4.301660 0.000000 0.000000 
#    y 0.000000 2.455420 0.000000 
#    z 0.000000 0.000000 3.731540 
# 
# 
# High freq. dielectric constant tensor:
#      x y z
#    x 1.769120 0.000000 0.000000 
#    y 0.000000 1.714080 0.000000 
#    z 0.000000 0.000000 1.761020 
# 
# From -- ./inp_files/8986.got.cif
#   From: 2010.03.12/outbox.cif.g09.slc.cpg/sg63_5_cif.got.tgz:8986.got - 2010.04.10 19:34:48.
