data_PCOD8255292
_publ_section_title
;
Structure prediction by ZEFSAII (Michael W. Deem and Ramdas Pophale) SiO2 
 PCOD8255292
Probable space group: P N M A
;
_chemical_formula_sum "Si O2"
_cell_formula_units_Z 64
_cell_length_a 9.474383
_cell_length_b 27.447472
_cell_length_c 14.838658
_cell_angle_alpha 90.000000
_cell_angle_beta 90.000000
_cell_angle_gamma 90.000000
_cell_volume 3858.761289
_symmetry_space_group_name_H-M "P N M A"
_symmetry_group_IT_number 62
_symmetry_cell_setting 'orthorhombic'
loop_
_space_group_symop_operation_xyz
x,y,z
1/2-x,-y,1/2+z
1/2+x,1/2-y,1/2-z
-x,1/2+y,-z
-x,-y,-z
1/2+x,y,1/2-z
1/2-x,1/2+y,1/2+z
x,1/2-y,z
loop_
_atom_site_type_symbol
_atom_site_label
_atom_site_fract_x
_atom_site_fract_y
_atom_site_fract_z
Si Si1 0.666837 0.918372 0.838191
Si Si2 0.832884 0.694360 0.339899
Si Si3 0.662357 0.805642 0.162235
Si Si4 0.166497 0.468763 0.662384
Si Si5 0.161499 0.081630 0.335991
Si Si6 0.332758 0.611914 0.026328
Si Si7 0.660803 0.531248 0.164671
Si Si8 0.666432 0.611898 0.028553
O O1 0.502962 0.908310 0.818072
O O2 0.754156 0.900508 0.751702
O O3 0.694068 0.974992 0.859940
O O4 0.724082 0.889058 0.925884
O O5 0.802157 0.750000 0.367635
O O6 0.746083 0.679340 0.251669
O O7 0.781438 0.660792 0.422946
O O8 0.997309 0.685812 0.318372
O O9 0.694179 0.750000 0.134958
O O10 0.716276 0.839213 0.079834
O O11 0.219953 0.436221 0.578800
O O12 0.254615 0.451477 0.748133
O O13 0.003176 0.458676 0.683698
O O14 0.221534 0.110948 0.422926
O O15 0.189569 0.024989 0.357225
O O16 0.499693 0.610145 0.021354
O O17 0.717200 0.563772 0.081831
#
# Coordination Sequence:
#
# PCOD8255292 Si02
#       8
#     8   8   8   8   8   8   8   8
#     4   9  17  29  43  59  81 109 140 172 203 236
#     4   9  17  29  45  65  87 109 133 163 201 244
#     4   9  17  29  45  65  87 109 133 163 201 244
#     4   9  16  26  41  61  84 109 136 166 201 241
#     4   9  17  29  43  59  81 109 140 172 203 236
#     4   9  16  27  44  62  81 109 141 167 197 243
#     4   9  16  26  41  61  84 109 136 166 201 241
#     4   9  16  27  44  62  81 109 141 167 197 243
#
# _framework density 16.585633000000001
#
# number of rings (size 3 to 8) (size 9 to 14) (size 15 to 20)
#    0.000    3.000    0.000    1.500    0.000    3.000 
#    0.000    2.500    0.000    6.750    0.000    0.000 
#    0.000    0.000    0.000    0.000    0.000    0.000 
#
# Total GULP energy -793367.294495 kJ/mol
# GULP energy per Si atom -12396.363976 kJ/mol
# Density = 1.654788 g / cm^3
# Si number density = 16.585633 Si / 1000 Ang^3
#
#
#
# Elastic Constant Matrix: (Units=GPa)
#
#
# Indices 1 2 3 4 5 6 
#
# 1 30.5840 19.9101 31.6977 0.0000 0.0000 0.0000
# 2 19.9101 68.1019 58.2922 0.0000 0.0000 0.0000
# 3 31.6977 58.2922 134.4968 0.0000 0.0000 0.0000
# 4 0.0000 0.0000 0.0000 26.1658 0.0000 0.0000
# 5 0.0000 0.0000 0.0000 0.0000 26.6873 0.0000
# 6 0.0000 0.0000 0.0000 0.0000 0.0000 13.4647
#
#
#
# Elastic Compliance Matrix: (Units=1/GPa)
#
#
# Indices 1 2 3 4 5 6 
#
# 1 0.044996 -0.006483 -0.007795 0.000000 0.000000 0.000000
# 2 -0.006483 0.024278 -0.008994 0.000000 0.000000 0.000000
# 3 -0.007795 -0.008994 0.013170 0.000000 0.000000 0.000000
# 4 0.000000 0.000000 0.000000 0.038218 0.000000 0.000000
# 5 0.000000 0.000000 0.000000 0.000000 0.037471 0.000000
# 6 0.000000 0.000000 0.000000 0.000000 0.000000 0.074268
#
#
# Mechanical properties :
#
#
# Convention : Reuss Voigt Hill
#
# Bulk Modulus (GPa) = 27.85507 50.33139 39.09323
# Shear Modulus (GPa) = 17.18732 21.48241 19.33486
#
# Velocity S-wave (km/s) = 3.22262 3.60285 3.41803
# Velocity P-wave (km/s) = 5.53879 6.90794 6.26090
#
# Compressibility (1/GPa) = 0.03590010
#
# Stress axis : x y z
#
# Youngs Moduli (GPa) = 22.22433 41.18939 75.92770
#
# Poissons Ratio (x) = 0.26703 0.59183
# Poissons Ratio (y) = 0.14408 0.68293
# Poissons Ratio (z) = 0.17323 0.37048
#
# Static dielectric constant tensor:
#      x y z
#    x 2.915760 0.000000 0.000000 
#    y 0.000000 3.102990 0.000000 
#    z 0.000000 0.000000 3.380260 
# 
# 
# High freq. dielectric constant tensor:
#      x y z
#    x 1.610300 0.000000 0.000000 
#    y 0.000000 1.623300 0.000000 
#    z 0.000000 0.000000 1.641000 
# 
# From -- ./inp_files/12603.got.cif
#   From: 2010.03.12/outbox.cif.g09.slc.cpg/sg62_7_cif.got.tgz:12603.got - 2010.04.10 19:12:36.
