data_PCOD8255386
_publ_section_title
;
Structure prediction by ZEFSAII (Michael W. Deem and Ramdas Pophale) SiO2 
 PCOD8255386
Probable space group: C M C M
;
_chemical_formula_sum "Si O2"
_cell_formula_units_Z 96
_cell_length_a 17.960427
_cell_length_b 10.955517
_cell_length_c 26.140645
_cell_angle_alpha 90.000000
_cell_angle_beta 90.000000
_cell_angle_gamma 90.000000
_cell_volume 5143.583967
_symmetry_space_group_name_H-M "C M C M"
_symmetry_group_IT_number 63
_symmetry_cell_setting 'orthorhombic'
loop_
_space_group_symop_operation_xyz
x,y,z
-x,-y,1/2+z
x,-y,-z
-x,y,1/2-z
-x,-y,-z
x,y,1/2-z
-x,y,z
x,-y,1/2+z
1/2+x,1/2+y,z
1/2-x,1/2-y,1/2+z
1/2+x,1/2-y,-z
1/2-x,1/2+y,1/2-z
1/2-x,1/2-y,-z
1/2+x,1/2+y,1/2-z
1/2-x,1/2+y,z
1/2+x,1/2-y,1/2+z
loop_
_atom_site_type_symbol
_atom_site_label
_atom_site_fract_x
_atom_site_fract_y
_atom_site_fract_z
Si Si1 0.134703 0.863767 0.044855
Si Si2 0.680929 0.179280 0.376368
Si Si3 0.833996 0.710581 0.635167
Si Si4 0.295111 0.967486 0.052982
Si Si5 0.416807 0.374275 0.564601
Si Si6 0.086005 0.505510 0.809702
O O1 0.125915 0.763239 0.089543
O O2 0.219835 0.900491 0.037973
O O3 0.085522 0.979324 0.061040
O O4 0.111503 0.814275 0.988863
O O5 0.747290 0.260488 0.350208
O O6 0.723616 0.088573 0.414808
O O7 0.631331 0.105865 0.335679
O O8 0.845363 0.620716 0.586801
O O9 0.873521 0.833984 0.616270
O O10 0.875240 0.638279 0.680948
O O11 0.337428 0.000000 0.000000
O O12 0.500000 0.329706 0.572953
O O13 0.089243 0.478945 0.750000
O O14 0.000000 0.507531 0.828846
#
# Coordination Sequence:
#
# PCOD8255386 Si02
#       6
#    16  16  16  16  16  16
#     4  10  18  30  47  76 111 146 180 204 245 308
#     4  10  20  34  58  79 106 139 180 222 264 316
#     4  10  20  34  56  82 104 140 181 221 264 315
#     4  10  16  29  50  77 109 140 178 217 252 297
#     4  11  20  31  47  75 116 151 178 207 250 309
#     4  10  23  42  61  80 103 134 176 231 288 327
#
# _framework density 18.664028999999999
#
# number of rings (size 3 to 8) (size 9 to 14) (size 15 to 20)
#    0.000    1.833    3.333    2.500    0.000    4.667 
#    0.000    0.000    0.000    5.500    0.000    2.333 
#    0.000    0.000    0.000    0.000    0.000    0.000 
#
# Total GULP energy -594893.309579 kJ/mol
# GULP energy per Si atom -12393.610616 kJ/mol
# Density = 1.862155 g / cm^3
# Si number density = 18.664029 Si / 1000 Ang^3
#
#
#
# Elastic Constant Matrix: (Units=GPa)
#
#
# Indices 1 2 3 4 5 6 
#
# 1 91.9362 26.2680 34.1056 0.0000 0.0000 0.0000
# 2 26.2680 72.9424 33.8877 0.0000 0.0000 0.0000
# 3 34.1056 33.8877 74.1243 0.0000 0.0000 0.0000
# 4 0.0000 0.0000 0.0000 28.1269 0.0000 0.0000
# 5 0.0000 0.0000 0.0000 0.0000 24.0254 0.0000
# 6 0.0000 0.0000 0.0000 0.0000 0.0000 22.6566
#
#
#
# Elastic Compliance Matrix: (Units=1/GPa)
#
#
# Indices 1 2 3 4 5 6 
#
# 1 0.013466 -0.002502 -0.005052 0.000000 0.000000 0.000000
# 2 -0.002502 0.017872 -0.007019 0.000000 0.000000 0.000000
# 3 -0.005052 -0.007019 0.019024 0.000000 0.000000 0.000000
# 4 0.000000 0.000000 0.000000 0.035553 0.000000 0.000000
# 5 0.000000 0.000000 0.000000 0.000000 0.041623 0.000000
# 6 0.000000 0.000000 0.000000 0.000000 0.000000 0.044137
#
#
# Mechanical properties :
#
#
# Convention : Reuss Voigt Hill
#
# Bulk Modulus (GPa) = 47.13593 47.50283 47.31938
# Shear Modulus (GPa) = 24.05077 24.61121 24.33099
#
# Velocity S-wave (km/s) = 3.59362 3.63525 3.61450
# Velocity P-wave (km/s) = 6.52140 6.56711 6.54429
#
# Compressibility (1/GPa) = 0.02121524
#
# Stress axis : x y z
#
# Youngs Moduli (GPa) = 74.25984 55.95499 52.56453
#
# Poissons Ratio (x) = 0.14002 0.26555
# Poissons Ratio (y) = 0.18583 0.36895
# Poissons Ratio (z) = 0.37516 0.39275
#
# Static dielectric constant tensor:
#      x y z
#    x 3.286090 0.000000 0.000000 
#    y 0.000000 3.677640 0.000000 
#    z 0.000000 0.000000 3.409610 
# 
# 
# High freq. dielectric constant tensor:
#      x y z
#    x 1.714580 0.000000 0.000000 
#    y 0.000000 1.728560 0.000000 
#    z 0.000000 0.000000 1.696460 
# 
# From -- ./inp_files/69869.got.cif
#   From: 2010.03.12/outbox.cif.g09.slc.cpg/sg63_35_cif.got.tgz:69869.got - 2010.04.10 19:34:48.
