data_PCOD8255762
_publ_section_title
;
Structure prediction by ZEFSAII (Michael W. Deem and Ramdas Pophale) SiO2 
 PCOD8255762
Probable space group: C M C M
;
_chemical_formula_sum "Si O2"
_cell_formula_units_Z 96
_cell_length_a 9.448843
_cell_length_b 27.077797
_cell_length_c 22.426942
_cell_angle_alpha 90.000000
_cell_angle_beta 90.000000
_cell_angle_gamma 90.000000
_cell_volume 5738.019514
_symmetry_space_group_name_H-M "C M C M"
_symmetry_group_IT_number 63
_symmetry_cell_setting 'orthorhombic'
loop_
_space_group_symop_operation_xyz
x,y,z
-x,-y,1/2+z
x,-y,-z
-x,y,1/2-z
-x,-y,-z
x,y,1/2-z
-x,y,z
x,-y,1/2+z
1/2+x,1/2+y,z
1/2-x,1/2-y,1/2+z
1/2+x,1/2-y,-z
1/2-x,1/2+y,1/2-z
1/2-x,1/2-y,-z
1/2+x,1/2+y,1/2-z
1/2-x,1/2+y,z
1/2+x,1/2-y,1/2+z
loop_
_atom_site_type_symbol
_atom_site_label
_atom_site_fract_x
_atom_site_fract_y
_atom_site_fract_z
Si Si1 0.158172 0.194090 0.435081
Si Si2 0.664676 0.639484 0.554810
Si Si3 0.333669 0.736999 0.250000
Si Si4 0.166370 0.443677 0.991159
Si Si5 0.338047 0.208192 0.629458
Si Si6 0.337259 0.114128 0.122366
Si Si7 0.836617 0.364210 0.750000
O O1 0.186938 0.180387 0.503501
O O2 0.179731 0.252038 0.423811
O O3 0.260504 0.165107 0.391287
O O4 0.000000 0.178181 0.416885
O O5 0.500000 0.628297 0.567183
O O6 0.743459 0.588953 0.537116
O O7 0.737572 0.661707 0.614124
O O8 0.500000 0.725467 0.250000
O O9 0.289652 0.768567 0.307861
O O10 0.255432 0.684988 0.250000
O O11 0.208787 0.429404 0.922921
O O12 0.000000 0.435504 0.003825
O O13 0.211136 0.500000 0.000000
O O14 0.500000 0.189622 0.633059
O O15 0.500000 0.125532 0.111847
O O16 0.304560 0.101647 0.191763
O O17 0.000000 0.347338 0.750000
#
# Coordination Sequence:
#
# PCOD8255762 Si02
#       7
#    16  16   8  16  16  16   8
#     4   9  17  29  45  67  95 127 160 192 229 276
#     4  10  20  31  47  72  97 123 156 198 245 289
#     4  10  20  32  48  67  94 135 173 198 225 273
#     4   9  18  34  54  72  92 123 162 204 252 300
#     4  10  19  31  46  66  95 131 166 196 227 274
#     4   9  17  28  45  70  97 124 155 193 240 291
#     4  10  18  28  44  69 100 127 153 192 239 287
#
# _framework density 16.730511
#
# number of rings (size 3 to 8) (size 9 to 14) (size 15 to 20)
#    0.000    2.500    1.667    1.000    0.000    2.333 
#    0.000    0.000    0.000    1.000    0.000    4.667 
#    0.000    0.000    0.000    0.000    0.000    0.000 
#
# Total GULP energy -594977.394318 kJ/mol
# GULP energy per Si atom -12395.362382 kJ/mol
# Density = 1.669243 g / cm^3
# Si number density = 16.730511 Si / 1000 Ang^3
#
#
#
# Elastic Constant Matrix: (Units=GPa)
#
#
# Indices 1 2 3 4 5 6 
#
# 1 59.5330 47.1292 35.6616 0.0000 0.0000 0.0000
# 2 47.1292 93.1473 52.2732 0.0000 0.0000 0.0000
# 3 35.6616 52.2732 82.5503 0.0000 0.0000 0.0000
# 4 0.0000 0.0000 0.0000 17.3359 0.0000 0.0000
# 5 0.0000 0.0000 0.0000 0.0000 18.9621 0.0000
# 6 0.0000 0.0000 0.0000 0.0000 0.0000 23.6134
#
#
#
# Elastic Compliance Matrix: (Units=1/GPa)
#
#
# Indices 1 2 3 4 5 6 
#
# 1 0.029332 -0.011991 -0.005078 0.000000 0.000000 0.000000
# 2 -0.011991 0.021556 -0.008470 0.000000 0.000000 0.000000
# 3 -0.005078 -0.008470 0.019671 0.000000 0.000000 0.000000
# 4 0.000000 0.000000 0.000000 0.057684 0.000000 0.000000
# 5 0.000000 0.000000 0.000000 0.000000 0.052737 0.000000
# 6 0.000000 0.000000 0.000000 0.000000 0.000000 0.042349
#
#
# Mechanical properties :
#
#
# Convention : Reuss Voigt Hill
#
# Bulk Modulus (GPa) = 51.33283 56.15098 53.74190
# Shear Modulus (GPa) = 17.79993 18.66005 18.22999
#
# Velocity S-wave (km/s) = 3.26532 3.34328 3.30453
# Velocity P-wave (km/s) = 6.70561 6.96694 6.83752
#
# Compressibility (1/GPa) = 0.01948071
#
# Stress axis : x y z
#
# Youngs Moduli (GPa) = 34.09223 46.39117 50.83664
#
# Poissons Ratio (x) = 0.55628 0.25816
# Poissons Ratio (y) = 0.40881 0.43057
# Poissons Ratio (z) = 0.17313 0.39292
#
# Static dielectric constant tensor:
#      x y z
#    x 3.192150 0.000000 0.000000 
#    y 0.000000 2.856640 0.000000 
#    z 0.000000 0.000000 3.305380 
# 
# 
# High freq. dielectric constant tensor:
#      x y z
#    x 1.649260 0.000000 0.000000 
#    y 0.000000 1.608870 0.000000 
#    z 0.000000 0.000000 1.642910 
# 
# From -- ./inp_files/60277.got.cif
#   From: 2010.03.12/outbox.cif.g09.slc.cpg/sg63_31_cif.got.tgz:60277.got - 2010.04.10 19:34:48.
