data_PCOD8255330
_publ_section_title
;
Structure prediction by ZEFSAII (Michael W. Deem and Ramdas Pophale) SiO2 
 PCOD8255330
Probable space group: C M C M
;
_chemical_formula_sum "Si O2"
_cell_formula_units_Z 128
_cell_length_a 18.003630
_cell_length_b 20.790316
_cell_length_c 23.332026
_cell_angle_alpha 90.000000
_cell_angle_beta 90.000000
_cell_angle_gamma 90.000000
_cell_volume 8733.204323
_symmetry_space_group_name_H-M "C M C M"
_symmetry_group_IT_number 63
_symmetry_cell_setting 'orthorhombic'
loop_
_space_group_symop_operation_xyz
x,y,z
-x,-y,1/2+z
x,-y,-z
-x,y,1/2-z
-x,-y,-z
x,y,1/2-z
-x,y,z
x,-y,1/2+z
1/2+x,1/2+y,z
1/2-x,1/2-y,1/2+z
1/2+x,1/2-y,-z
1/2-x,1/2+y,1/2-z
1/2-x,1/2-y,-z
1/2+x,1/2+y,1/2-z
1/2-x,1/2+y,z
1/2+x,1/2-y,1/2+z
loop_
_atom_site_type_symbol
_atom_site_label
_atom_site_fract_x
_atom_site_fract_y
_atom_site_fract_z
Si Si1 0.583928 0.811317 0.684644
Si Si2 0.916386 0.212520 0.002093
Si Si3 0.814620 0.240210 0.604940
Si Si4 0.083127 0.418737 0.591544
Si Si5 0.229750 0.623778 0.577630
Si Si6 0.581539 0.143368 0.970290
Si Si7 0.723092 0.013934 0.066444
Si Si8 0.218259 0.148300 0.048778
O O1 0.602879 0.828773 0.750000
O O2 0.500000 0.784372 0.678686
O O3 0.642134 0.758124 0.662899
O O4 0.592511 0.875393 0.647413
O O5 0.876836 0.220987 0.941094
O O6 0.000000 0.184889 0.993344
O O7 0.920261 0.280156 0.033857
O O8 0.869226 0.164840 0.043299
O O9 0.764322 0.177061 0.620025
O O10 0.761435 0.298669 0.585910
O O11 0.103668 0.376632 0.535356
O O12 0.142411 0.476147 0.595473
O O13 0.000000 0.447182 0.587485
O O14 0.139827 0.618456 0.577367
O O15 0.260233 0.551631 0.592134
O O16 0.247750 0.650070 0.514376
O O17 0.500000 0.115261 0.955251
O O18 0.774280 0.076899 0.076681
O O19 0.709293 0.000000 0.000000
#
# Coordination Sequence:
#
# PCOD8255330 Si02
#       8
#    16  16  16  16  16  16  16  16
#     4  10  19  30  46  66  84 105 140 183 219 251
#     4  10  16  23  39  60  84 111 139 168 202 245
#     4  11  16  28  44  59  81 113 142 176 213 252
#     4  10  17  26  40  60  91 122 142 168 208 252
#     4  10  17  25  38  61  86 117 141 168 204 247
#     4  10  15  22  37  61  90 115 141 165 198 249
#     4  10  17  26  38  59  89 119 146 168 198 246
#     4  10  16  26  40  58  84 116 146 166 199 245
#
# _framework density 14.656706
#
# number of rings (size 3 to 8) (size 9 to 14) (size 15 to 20)
#    0.000    1.875    7.500    1.125    0.000    0.750 
#    0.000    0.000    0.000   10.875    0.000    0.000 
#    0.000    2.000    0.000    0.000    0.000    0.000 
#
# Total GULP energy -793040.283150 kJ/mol
# GULP energy per Si atom -12391.254424 kJ/mol
# Density = 1.462335 g / cm^3
# Si number density = 14.656706 Si / 1000 Ang^3
#
#
#
# Elastic Constant Matrix: (Units=GPa)
#
#
# Indices 1 2 3 4 5 6 
#
# 1 86.1205 36.7576 28.0211 0.0000 0.0000 0.0000
# 2 36.7576 100.0203 24.4908 0.0000 0.0000 0.0000
# 3 28.0211 24.4908 31.4095 0.0000 0.0000 0.0000
# 4 0.0000 0.0000 0.0000 6.0064 0.0000 0.0000
# 5 0.0000 0.0000 0.0000 0.0000 13.7998 0.0000
# 6 0.0000 0.0000 0.0000 0.0000 0.0000 18.8799
#
#
#
# Elastic Compliance Matrix: (Units=1/GPa)
#
#
# Indices 1 2 3 4 5 6 
#
# 1 0.017130 -0.003156 -0.012822 0.000000 0.000000 0.000000
# 2 -0.003156 0.012939 -0.007273 0.000000 0.000000 0.000000
# 3 -0.012822 -0.007273 0.048947 0.000000 0.000000 0.000000
# 4 0.000000 0.000000 0.000000 0.166489 0.000000 0.000000
# 5 0.000000 0.000000 0.000000 0.000000 0.072465 0.000000
# 6 0.000000 0.000000 0.000000 0.000000 0.000000 0.052966
#
#
# Mechanical properties :
#
#
# Convention : Reuss Voigt Hill
#
# Bulk Modulus (GPa) = 30.75535 44.00992 37.38263
# Shear Modulus (GPa) = 11.67471 16.28926 13.98199
#
# Velocity S-wave (km/s) = 2.82537 3.33736 3.09198
# Velocity P-wave (km/s) = 5.62788 6.70395 6.18935
#
# Compressibility (1/GPa) = 0.03251467
#
# Stress axis : x y z
#
# Youngs Moduli (GPa) = 58.37567 77.28761 20.43028
#
# Poissons Ratio (x) = 0.24392 0.26195
# Poissons Ratio (y) = 0.18423 0.14859
# Poissons Ratio (z) = 0.74847 0.56212
#
# Static dielectric constant tensor:
#      x y z
#    x 3.163280 0.000000 0.000000 
#    y 0.000000 3.046440 0.000000 
#    z 0.000000 0.000000 2.395210 
# 
# 
# High freq. dielectric constant tensor:
#      x y z
#    x 1.564680 0.000000 0.000000 
#    y 0.000000 1.558930 0.000000 
#    z 0.000000 0.000000 1.490990 
# 
# From -- ./inp_files/64094.got.cif
#   From: 2010.03.12/outbox.cif.g09.slc.cpg/sg63_33_cif.got.tgz:64094.got - 2010.04.10 19:34:48.
