data_PCOD8255029
_publ_section_title
;
Structure prediction by ZEFSAII (Michael W. Deem and Ramdas Pophale) SiO2 
 PCOD8255029
Probable space group: P N M A
;
_chemical_formula_sum "Si O2"
_cell_formula_units_Z 48
_cell_length_a 28.337869
_cell_length_b 8.358067
_cell_length_c 10.330246
_cell_angle_alpha 90.000000
_cell_angle_beta 90.000000
_cell_angle_gamma 90.000000
_cell_volume 2446.716779
_symmetry_space_group_name_H-M "P N M A"
_symmetry_group_IT_number 62
_symmetry_cell_setting 'orthorhombic'
loop_
_space_group_symop_operation_xyz
x,y,z
1/2-x,-y,1/2+z
1/2+x,1/2-y,1/2-z
-x,1/2+y,-z
-x,-y,-z
1/2+x,y,1/2-z
1/2-x,1/2+y,1/2+z
x,1/2-y,z
loop_
_atom_site_type_symbol
_atom_site_label
_atom_site_fract_x
_atom_site_fract_y
_atom_site_fract_z
Si Si1 0.355193 0.559687 0.758470
Si Si2 0.650217 0.934115 0.746227
Si Si3 0.198685 0.064418 0.509395
Si Si4 0.698700 0.064137 0.495846
Si Si5 0.446745 0.437924 0.372115
Si Si6 0.049917 0.436865 0.151886
O O1 0.355514 0.750000 0.760118
O O2 0.324577 0.499638 0.636453
O O3 0.408978 0.491453 0.744652
O O4 0.332493 0.495347 0.890840
O O5 0.656910 0.750000 0.786130
O O6 0.594826 0.976363 0.728562
O O7 0.669387 0.046479 0.859045
O O8 0.678557 0.962923 0.614491
O O9 0.211544 0.250000 0.488852
O O10 0.245601 0.960241 0.516375
O O11 0.687409 0.250000 0.518958
O O12 0.449764 0.250000 0.403007
O O13 0.435308 0.527743 0.504837
O O14 0.497189 0.502812 0.316389
O O15 0.049496 0.250000 0.173494
#
# Coordination Sequence:
#
# PCOD8255029 Si02
#       6
#     8   8   8   8   8   8
#     4   9  19  35  56  80 107 138 180 227 275 329
#     4  11  22  37  54  81 116 148 182 224 271 331
#     4  11  23  38  55  79 111 149 186 228 277 328
#     4  11  21  37  60  84 106 141 186 232 281 330
#     4   9  18  31  53  82 109 137 176 226 275 320
#     4   9  16  32  56  80 105 137 178 227 277 328
#
# _framework density 19.618126
#
# number of rings (size 3 to 8) (size 9 to 14) (size 15 to 20)
#    0.000    2.000    1.667    2.500    0.000    2.000 
#    0.000    5.000    0.000    0.000    0.000    0.000 
#    0.000    0.000    0.000    0.000    0.000    0.000 
#
# Total GULP energy -595124.204201 kJ/mol
# GULP energy per Si atom -12398.420921 kJ/mol
# Density = 1.957347 g / cm^3
# Si number density = 19.618126 Si / 1000 Ang^3
#
#
#
# Elastic Constant Matrix: (Units=GPa)
#
#
# Indices 1 2 3 4 5 6 
#
# 1 147.9889 8.1326 55.1308 0.0000 0.0000 0.0000
# 2 8.1326 21.6349 2.1075 0.0000 0.0000 0.0000
# 3 55.1308 2.1075 109.2585 0.0000 0.0000 0.0000
# 4 0.0000 0.0000 0.0000 20.4895 0.0000 0.0000
# 5 0.0000 0.0000 0.0000 0.0000 8.9658 0.0000
# 6 0.0000 0.0000 0.0000 0.0000 0.0000 22.1192
#
#
#
# Elastic Compliance Matrix: (Units=1/GPa)
#
#
# Indices 1 2 3 4 5 6 
#
# 1 0.008485 -0.002778 -0.004228 0.000000 0.000000 0.000000
# 2 -0.002778 0.047218 0.000491 0.000000 0.000000 0.000000
# 3 -0.004228 0.000491 0.011276 0.000000 0.000000 0.000000
# 4 0.000000 0.000000 0.000000 0.048805 0.000000 0.000000
# 5 0.000000 0.000000 0.000000 0.000000 0.111536 0.000000
# 6 0.000000 0.000000 0.000000 0.000000 0.000000 0.045210
#
#
# Mechanical properties :
#
#
# Convention : Reuss Voigt Hill
#
# Bulk Modulus (GPa) = 18.53571 45.51379 32.02475
# Shear Modulus (GPa) = 16.47215 24.54897 20.51056
#
# Velocity S-wave (km/s) = 2.90080 3.54127 3.23691
# Velocity P-wave (km/s) = 4.54844 6.32226 5.50723
#
# Compressibility (1/GPa) = 0.05394992
#
# Stress axis : x y z
#
# Youngs Moduli (GPa) = 117.85617 21.17839 88.68026
#
# Poissons Ratio (x) = 0.05883 0.37493
# Poissons Ratio (y) = 0.32736 -0.04352
# Poissons Ratio (z) = 0.49828 -0.01039
#
# Static dielectric constant tensor:
#      x y z
#    x 4.164160 0.000000 0.000000 
#    y 0.000000 3.296830 0.000000 
#    z 0.000000 0.000000 3.500940 
# 
# 
# High freq. dielectric constant tensor:
#      x y z
#    x 1.787210 0.000000 0.000000 
#    y 0.000000 1.745590 0.000000 
#    z 0.000000 0.000000 1.742280 
# 
# From -- ./inp_files/10285.got.cif
#   From: 2010.03.12/outbox.cif.g09.slc.cpg/sg62_6_cif.got.tgz:10285.got - 2010.04.10 19:12:36.
