data_PCOD8255808
_publ_section_title
;
Structure prediction by ZEFSAII (Michael W. Deem and Ramdas Pophale) SiO2 
 PCOD8255808
Probable space group: C M C M
;
_chemical_formula_sum "Si O2"
_cell_formula_units_Z 80
_cell_length_a 21.302198
_cell_length_b 12.917973
_cell_length_c 17.279395
_cell_angle_alpha 90.000000
_cell_angle_beta 90.000000
_cell_angle_gamma 90.000000
_cell_volume 4754.964973
_symmetry_space_group_name_H-M "C M C M"
_symmetry_group_IT_number 63
_symmetry_cell_setting 'orthorhombic'
loop_
_space_group_symop_operation_xyz
x,y,z
-x,-y,1/2+z
x,-y,-z
-x,y,1/2-z
-x,-y,-z
x,y,1/2-z
-x,y,z
x,-y,1/2+z
1/2+x,1/2+y,z
1/2-x,1/2-y,1/2+z
1/2+x,1/2-y,-z
1/2-x,1/2+y,1/2-z
1/2-x,1/2-y,-z
1/2+x,1/2+y,1/2-z
1/2-x,1/2+y,z
1/2+x,1/2-y,1/2+z
loop_
_atom_site_type_symbol
_atom_site_label
_atom_site_fract_x
_atom_site_fract_y
_atom_site_fract_z
Si Si1 0.795496 0.429426 0.339560
Si Si2 0.710152 0.853668 0.589237
Si Si3 0.835331 0.748411 0.934179
Si Si4 0.428425 0.618387 0.523135
Si Si5 0.339783 0.337540 0.336886
O O1 0.807642 0.454121 0.250000
O O2 0.808907 0.529466 0.391722
O O3 0.841829 0.334692 0.364251
O O4 0.723363 0.400266 0.355898
O O5 0.785267 0.836484 0.590225
O O6 0.686878 0.822597 0.504878
O O7 0.676264 0.783340 0.653687
O O8 0.898993 0.808359 0.956166
O O9 0.423143 0.500000 0.500000
O O10 0.500000 0.653841 0.533120
O O11 0.394133 0.629457 0.604932
O O12 0.363497 0.358903 0.250000
#
# Coordination Sequence:
#
# PCOD8255808 Si02
#       5
#    16  16  16  16  16
#     4  10  18  28  47  74 101 127 153 189 243 296
#     4   9  16  28  48  71  97 125 153 189 238 292
#     4   9  18  30  47  70  96 124 158 197 236 279
#     4  10  20  34  51  68  90 125 164 197 232 278
#     4   9  18  30  46  72  99 121 152 196 240 282
#
# _framework density 16.82452
#
# number of rings (size 3 to 8) (size 9 to 14) (size 15 to 20)
#    0.000    2.600    0.000    3.600    0.000    1.200 
#    0.000    1.000    0.000   11.400    0.000    0.000 
#    0.000    0.000    0.000    0.000    0.000    0.000 
#
# Total GULP energy -495833.888258 kJ/mol
# GULP energy per Si atom -12395.847206 kJ/mol
# Density = 1.678623 g / cm^3
# Si number density = 16.824520 Si / 1000 Ang^3
#
#
#
# Elastic Constant Matrix: (Units=GPa)
#
#
# Indices 1 2 3 4 5 6 
#
# 1 89.1767 33.2607 42.0460 0.0000 0.0000 0.0000
# 2 33.2607 87.0632 33.1517 0.0000 0.0000 0.0000
# 3 42.0460 33.1517 71.6600 0.0000 0.0000 0.0000
# 4 0.0000 0.0000 0.0000 24.5258 0.0000 0.0000
# 5 0.0000 0.0000 0.0000 0.0000 18.1651 0.0000
# 6 0.0000 0.0000 0.0000 0.0000 0.0000 20.3308
#
#
#
# Elastic Compliance Matrix: (Units=1/GPa)
#
#
# Indices 1 2 3 4 5 6 
#
# 1 0.016169 -0.003113 -0.008047 0.000000 0.000000 0.000000
# 2 -0.003113 0.014541 -0.004901 0.000000 0.000000 0.000000
# 3 -0.008047 -0.004901 0.020943 0.000000 0.000000 0.000000
# 4 0.000000 0.000000 0.000000 0.040773 0.000000 0.000000
# 5 0.000000 0.000000 0.000000 0.000000 0.055051 0.000000
# 6 0.000000 0.000000 0.000000 0.000000 0.000000 0.049187
#
#
# Mechanical properties :
#
#
# Convention : Reuss Voigt Hill
#
# Bulk Modulus (GPa) = 51.19647 51.64631 51.42139
# Shear Modulus (GPa) = 21.24989 21.90042 21.57516
#
# Velocity S-wave (km/s) = 3.55777 3.61182 3.58490
# Velocity P-wave (km/s) = 6.88278 6.93955 6.91122
#
# Compressibility (1/GPa) = 0.01953260
#
# Stress axis : x y z
#
# Youngs Moduli (GPa) = 61.84791 68.77021 47.74791
#
# Poissons Ratio (x) = 0.21407 0.38422
# Poissons Ratio (y) = 0.19253 0.23400
# Poissons Ratio (z) = 0.49768 0.33702
#
# Static dielectric constant tensor:
#      x y z
#    x 2.907680 0.000000 0.000000 
#    y 0.000000 3.189900 0.000000 
#    z 0.000000 0.000000 3.414520 
# 
# 
# High freq. dielectric constant tensor:
#      x y z
#    x 1.604750 0.000000 0.000000 
#    y 0.000000 1.657420 0.000000 
#    z 0.000000 0.000000 1.653880 
# 
# From -- ./inp_files/36473.got.cif
#   From: 2010.03.12/outbox.cif.g09.slc.cpg/sg63_19_cif.got.tgz:36473.got - 2010.04.10 19:34:48.
