data_PCOD8255544
_publ_section_title
;
Structure prediction by ZEFSAII (Michael W. Deem and Ramdas Pophale) SiO2 
 PCOD8255544
Probable space group: C M C M
;
_chemical_formula_sum "Si O2"
_cell_formula_units_Z 64
_cell_length_a 5.301817
_cell_length_b 27.491084
_cell_length_c 22.581208
_cell_angle_alpha 90.000000
_cell_angle_beta 90.000000
_cell_angle_gamma 90.000000
_cell_volume 3291.271956
_symmetry_space_group_name_H-M "C M C M"
_symmetry_group_IT_number 63
_symmetry_cell_setting 'orthorhombic'
loop_
_space_group_symop_operation_xyz
x,y,z
-x,-y,1/2+z
x,-y,-z
-x,y,1/2-z
-x,-y,-z
x,y,1/2-z
-x,y,z
x,-y,1/2+z
1/2+x,1/2+y,z
1/2-x,1/2-y,1/2+z
1/2+x,1/2-y,-z
1/2-x,1/2+y,1/2-z
1/2-x,1/2-y,-z
1/2+x,1/2+y,1/2-z
1/2-x,1/2+y,z
1/2+x,1/2-y,1/2+z
loop_
_atom_site_type_symbol
_atom_site_label
_atom_site_fract_x
_atom_site_fract_y
_atom_site_fract_z
Si Si1 0.000000 0.519246 0.818615
Si Si2 0.000000 0.852592 0.077220
Si Si3 0.500000 0.803501 0.467481
Si Si4 0.500000 0.295981 0.587858
Si Si5 0.500000 0.404858 0.964563
Si Si6 0.500000 0.420970 0.318723
Si Si7 0.500000 0.178453 0.392367
Si Si8 0.000000 0.429142 0.596112
O O1 0.750046 0.548941 0.835424
O O2 0.000000 0.504974 0.750000
O O3 0.000000 0.469251 0.853915
O O4 0.747859 0.821611 0.066467
O O5 0.000000 0.870975 0.144665
O O6 0.000000 0.900967 0.035617
O O7 0.500000 0.744438 0.463667
O O8 0.500000 0.821211 0.535091
O O9 0.500000 0.349123 0.558024
O O10 0.249980 0.292845 0.629168
O O11 0.251435 0.433817 0.943740
O O12 0.500000 0.406399 0.250000
O O13 0.500000 0.123032 0.370240
#
# Coordination Sequence:
#
# PCOD8255544 Si02
#       8
#     8   8   8   8   8   8   8   8
#     4  10  21  40  62  79  94 128 183 225 257 316
#     4  12  21  34  52  77 107 141 174 218 260 319
#     4  12  19  30  50  77 109 144 182 204 241 309
#     4  10  18  28  46  74 111 145 175 205 234 293
#     4  10  19  32  48  79 118 138 163 206 259 312
#     4  10  23  42  59  76  99 129 177 235 268 295
#     4  10  17  29  45  72 113 141 162 207 252 292
#     4  10  18  33  53  76 108 137 159 212 266 309
#
# _framework density 19.44537
#
# number of rings (size 3 to 8) (size 9 to 14) (size 15 to 20)
#    0.000    1.500    5.000    3.000    0.000    0.000 
#    0.000    3.750    0.000    0.000    0.000   21.000 
#    0.000    0.000    0.000    0.000    0.000    0.000 
#
# Total GULP energy -396589.642255 kJ/mol
# GULP energy per Si atom -12393.426320 kJ/mol
# Density = 1.940111 g / cm^3
# Si number density = 19.445370 Si / 1000 Ang^3
#
#
#
# Elastic Constant Matrix: (Units=GPa)
#
#
# Indices 1 2 3 4 5 6 
#
# 1 209.9578 35.0160 25.8556 0.0000 0.0000 0.0000
# 2 35.0160 65.8208 32.1658 0.0000 0.0000 0.0000
# 3 25.8556 32.1658 46.7241 0.0000 0.0000 0.0000
# 4 0.0000 0.0000 0.0000 13.7650 0.0000 0.0000
# 5 0.0000 0.0000 0.0000 0.0000 9.3768 0.0000
# 6 0.0000 0.0000 0.0000 0.0000 0.0000 13.6385
#
#
#
# Elastic Compliance Matrix: (Units=1/GPa)
#
#
# Indices 1 2 3 4 5 6 
#
# 1 0.005295 -0.002087 -0.001493 0.000000 0.000000 0.000000
# 2 -0.002087 0.023718 -0.015173 0.000000 0.000000 0.000000
# 3 -0.001493 -0.015173 0.032674 0.000000 0.000000 0.000000
# 4 0.000000 0.000000 0.000000 0.072648 0.000000 0.000000
# 5 0.000000 0.000000 0.000000 0.000000 0.106646 0.000000
# 6 0.000000 0.000000 0.000000 0.000000 0.000000 0.073322
#
#
# Mechanical properties :
#
#
# Convention : Reuss Voigt Hill
#
# Bulk Modulus (GPa) = 41.35622 56.50860 48.93241
# Shear Modulus (GPa) = 13.89393 22.65374 18.27384
#
# Velocity S-wave (km/s) = 2.67593 3.41690 3.06886
# Velocity P-wave (km/s) = 5.55532 6.68508 6.14621
#
# Compressibility (1/GPa) = 0.02418016
#
# Stress axis : x y z
#
# Youngs Moduli (GPa) = 188.86380 42.16221 30.60545
#
# Poissons Ratio (x) = 0.08800 0.04570
# Poissons Ratio (y) = 0.39417 0.46438
# Poissons Ratio (z) = 0.28201 0.63973
#
# Static dielectric constant tensor:
#      x y z
#    x 5.355740 0.000000 0.000000 
#    y 0.000000 3.319670 0.000000 
#    z 0.000000 0.000000 3.070250 
# 
# 
# High freq. dielectric constant tensor:
#      x y z
#    x 1.805970 0.000000 0.000000 
#    y 0.000000 1.743540 0.000000 
#    z 0.000000 0.000000 1.692470 
# 
# From -- ./inp_files/58768.got.cif
#   From: 2010.03.12/outbox.cif.g09.slc.cpg/sg63_30_cif.got.tgz:58768.got - 2010.04.10 19:34:48.
