data_PCOD8255583
_publ_section_title
;
Structure prediction by ZEFSAII (Michael W. Deem and Ramdas Pophale) SiO2 
 PCOD8255583
Probable space group: C M C M
;
_chemical_formula_sum "Si O2"
_cell_formula_units_Z 80
_cell_length_a 18.108920
_cell_length_b 11.421111
_cell_length_c 19.541904
_cell_angle_alpha 90.000000
_cell_angle_beta 90.000000
_cell_angle_gamma 90.000000
_cell_volume 4041.734468
_symmetry_space_group_name_H-M "C M C M"
_symmetry_group_IT_number 63
_symmetry_cell_setting 'orthorhombic'
loop_
_space_group_symop_operation_xyz
x,y,z
-x,-y,1/2+z
x,-y,-z
-x,y,1/2-z
-x,-y,-z
x,y,1/2-z
-x,y,z
x,-y,1/2+z
1/2+x,1/2+y,z
1/2-x,1/2-y,1/2+z
1/2+x,1/2-y,-z
1/2-x,1/2+y,1/2-z
1/2-x,1/2-y,-z
1/2+x,1/2+y,1/2-z
1/2-x,1/2+y,z
1/2+x,1/2-y,1/2+z
loop_
_atom_site_type_symbol
_atom_site_label
_atom_site_fract_x
_atom_site_fract_y
_atom_site_fract_z
Si Si1 0.820599 0.380902 0.987722
Si Si2 0.088305 0.602575 0.750000
Si Si3 0.332647 0.719136 0.868138
Si Si4 0.664696 0.469287 0.571236
Si Si5 0.171250 0.262583 0.368025
Si Si6 0.914265 0.662786 0.250000
O O1 0.856014 0.283905 0.938939
O O2 0.745833 0.425232 0.951120
O O3 0.869523 0.500000 0.000000
O O4 0.806175 0.326616 0.061543
O O5 0.118408 0.664733 0.681552
O O6 0.118998 0.469410 0.750000
O O7 0.000000 0.611441 0.750000
O O8 0.335933 0.579715 0.878295
O O9 0.252859 0.755364 0.835777
O O10 0.393390 0.761671 0.815514
O O11 0.621386 0.500000 0.500000
O O12 0.630211 0.360582 0.614251
O O13 0.000000 0.644214 0.250000
#
# Coordination Sequence:
#
# PCOD8255583 Si02
#       6
#    16   8  16  16  16   8
#     4  10  17  30  59  96 125 151 196 258 315 356
#     4  11  27  47  59  81 128 174 216 254 301 368
#     4  11  20  37  62  93 127 155 204 258 307 372
#     4  10  17  32  59 100 125 145 190 259 325 358
#     4  11  20  36  64  95 123 162 203 257 313 368
#     4  11  27  45  59  81 126 174 212 256 305 366
#
# _framework density 19.793481
#
# number of rings (size 3 to 8) (size 9 to 14) (size 15 to 20)
#    0.000    1.400    6.000    3.000    2.800    0.800 
#    0.000    3.000    0.000    4.800    0.000    0.000 
#    0.000    0.000    0.000    0.000    0.000    0.000 
#
# Total GULP energy -495528.719552 kJ/mol
# GULP energy per Si atom -12388.217989 kJ/mol
# Density = 1.974843 g / cm^3
# Si number density = 19.793481 Si / 1000 Ang^3
#
#
#
# Elastic Constant Matrix: (Units=GPa)
#
#
# Indices 1 2 3 4 5 6 
#
# 1 40.5882 25.2124 29.2501 0.0000 0.0000 0.0000
# 2 25.2124 190.0161 66.6927 0.0000 0.0000 0.0000
# 3 29.2501 66.6927 113.3223 0.0000 0.0000 0.0000
# 4 0.0000 0.0000 0.0000 1.0627 0.0000 0.0000
# 5 0.0000 0.0000 0.0000 0.0000 -9.2248 0.0000
# 6 0.0000 0.0000 0.0000 0.0000 0.0000 18.9289
#
#
#
# Elastic Compliance Matrix: (Units=1/GPa)
#
#
# Indices 1 2 3 4 5 6 
#
# 1 0.030662 -0.001627 -0.006957 0.000000 0.000000 0.000000
# 2 -0.001627 0.006719 -0.003534 0.000000 0.000000 0.000000
# 3 -0.006957 -0.003534 0.012700 0.000000 0.000000 0.000000
# 4 0.000000 0.000000 0.000000 0.941034 0.000000 0.000000
# 5 0.000000 0.000000 0.000000 0.000000 -0.108404 0.000000
# 6 0.000000 0.000000 0.000000 0.000000 0.000000 0.052829
#
#
# Mechanical properties :
#
#
# Convention : Reuss Voigt Hill
#
# Bulk Modulus (GPa) = 38.69234 65.13746 51.91490
# Shear Modulus (GPa) = 5.16320 17.00479 11.08399
#
# Velocity S-wave (km/s) = 1.61685 2.93424 2.36896
# Velocity P-wave (km/s) = 4.80375 6.66781 5.81101
#
# Compressibility (1/GPa) = 0.02584491
#
# Stress axis : x y z
#
# Youngs Moduli (GPa) = 32.61406 148.82970 78.73898
#
# Poissons Ratio (x) = 0.24209 0.54778
# Poissons Ratio (y) = 0.05305 0.27830
# Poissons Ratio (z) = 0.22689 0.52604
#
# Static dielectric constant tensor:
#      x y z
#    x 2.966400 0.000000 0.000000 
#    y 0.000000 4.550730 0.000000 
#    z 0.000000 0.000000 3.779250 
# 
# 
# High freq. dielectric constant tensor:
#      x y z
#    x 1.695140 0.000000 0.000000 
#    y 0.000000 1.807870 0.000000 
#    z 0.000000 0.000000 1.776120 
# 
# From -- ./inp_files/46864.got.cif
#   From: 2010.03.12/outbox.cif.g09.slc.cpg/sg63_24_cif.got.tgz:46864.got - 2010.04.10 19:34:48.
