data_PCOD8255552
_publ_section_title
;
Structure prediction by ZEFSAII (Michael W. Deem and Ramdas Pophale) SiO2 
 PCOD8255552
Probable space group: C M C M
;
_chemical_formula_sum "Si O2"
_cell_formula_units_Z 96
_cell_length_a 8.354691
_cell_length_b 30.261277
_cell_length_c 20.726584
_cell_angle_alpha 90.000000
_cell_angle_beta 90.000000
_cell_angle_gamma 90.000000
_cell_volume 5240.169968
_symmetry_space_group_name_H-M "C M C M"
_symmetry_group_IT_number 63
_symmetry_cell_setting 'orthorhombic'
loop_
_space_group_symop_operation_xyz
x,y,z
-x,-y,1/2+z
x,-y,-z
-x,y,1/2-z
-x,-y,-z
x,y,1/2-z
-x,y,z
x,-y,1/2+z
1/2+x,1/2+y,z
1/2-x,1/2-y,1/2+z
1/2+x,1/2-y,-z
1/2-x,1/2+y,1/2-z
1/2-x,1/2-y,-z
1/2+x,1/2+y,1/2-z
1/2-x,1/2+y,z
1/2+x,1/2-y,1/2+z
loop_
_atom_site_type_symbol
_atom_site_label
_atom_site_fract_x
_atom_site_fract_y
_atom_site_fract_z
Si Si1 0.314833 0.384453 0.021262
Si Si2 0.189418 0.537389 0.448337
Si Si3 0.688525 0.005009 0.680604
Si Si4 0.685282 0.306249 0.321156
Si Si5 0.684271 0.100986 0.845654
Si Si6 0.312611 0.209223 0.959205
O O1 0.500000 0.388415 0.040378
O O2 0.200353 0.402548 0.077447
O O3 0.274543 0.333134 0.009436
O O4 0.274921 0.415636 0.960639
O O5 0.239518 0.500000 0.500000
O O6 0.259812 0.522884 0.378524
O O7 0.000000 0.544476 0.447750
O O8 0.730749 0.982771 0.750000
O O9 0.500000 0.008187 0.669087
O O10 0.752190 0.055340 0.682899
O O11 0.738867 0.287502 0.250000
O O12 0.500000 0.295943 0.332387
O O13 0.710555 0.358907 0.319026
O O14 0.778894 0.285102 0.382070
O O15 0.500000 0.109507 0.826746
O O16 0.500000 0.203837 0.968859
O O17 0.250000 0.250000 0.000000
#
# Coordination Sequence:
#
# PCOD8255552 Si02
#       6
#    16  16  16  16  16  16
#     4  11  21  33  51  77 106 136 176 217 264 315
#     4  10  18  32  51  72 100 136 179 219 259 307
#     4   9  17  28  45  69  98 133 175 220 262 307
#     4  10  20  33  50  77 113 146 175 212 261 319
#     4  10  17  29  48  72 102 137 177 214 258 313
#     4  11  22  38  60  83 109 139 177 222 274 325
#
# _framework density 18.320017
#
# number of rings (size 3 to 8) (size 9 to 14) (size 15 to 20)
#    0.000    1.833    1.667    6.500    0.000    2.333 
#    0.000    0.000    0.000    3.500    0.000    2.333 
#    0.000    0.000    0.000    0.000    0.000    0.000 
#
# Total GULP energy -594898.027289 kJ/mol
# GULP energy per Si atom -12393.708902 kJ/mol
# Density = 1.827832 g / cm^3
# Si number density = 18.320017 Si / 1000 Ang^3
#
#
#
# Elastic Constant Matrix: (Units=GPa)
#
#
# Indices 1 2 3 4 5 6 
#
# 1 55.6472 17.6433 17.8449 0.0000 0.0000 0.0000
# 2 17.6433 88.2270 63.8182 0.0000 0.0000 0.0000
# 3 17.8449 63.8182 138.1032 0.0000 0.0000 0.0000
# 4 0.0000 0.0000 0.0000 17.6676 0.0000 0.0000
# 5 0.0000 0.0000 0.0000 0.0000 17.6249 0.0000
# 6 0.0000 0.0000 0.0000 0.0000 0.0000 24.1277
#
#
#
# Elastic Compliance Matrix: (Units=1/GPa)
#
#
# Indices 1 2 3 4 5 6 
#
# 1 0.019291 -0.003086 -0.001066 0.000000 0.000000 0.000000
# 2 -0.003086 0.017519 -0.007697 0.000000 0.000000 0.000000
# 3 -0.001066 -0.007697 0.010936 0.000000 0.000000 0.000000
# 4 0.000000 0.000000 0.000000 0.056601 0.000000 0.000000
# 5 0.000000 0.000000 0.000000 0.000000 0.056738 0.000000
# 6 0.000000 0.000000 0.000000 0.000000 0.000000 0.041446
#
#
# Mechanical properties :
#
#
# Convention : Reuss Voigt Hill
#
# Bulk Modulus (GPa) = 41.58657 53.39891 47.49274
# Shear Modulus (GPa) = 21.34519 24.06211 22.70365
#
# Velocity S-wave (km/s) = 3.41710 3.62806 3.52416
# Velocity P-wave (km/s) = 6.19016 6.83824 6.52226
#
# Compressibility (1/GPa) = 0.02404622
#
# Stress axis : x y z
#
# Youngs Moduli (GPa) = 51.83797 57.08085 91.44521
#
# Poissons Ratio (x) = 0.17617 0.09752
# Poissons Ratio (y) = 0.15999 0.70384
# Poissons Ratio (z) = 0.05528 0.43934
#
# Static dielectric constant tensor:
#      x y z
#    x 3.206540 0.000000 0.000000 
#    y 0.000000 3.166410 0.000000 
#    z 0.000000 0.000000 3.569040 
# 
# 
# High freq. dielectric constant tensor:
#      x y z
#    x 1.701360 0.000000 0.000000 
#    y 0.000000 1.677550 0.000000 
#    z 0.000000 0.000000 1.713320 
# 
# From -- ./inp_files/60224.got.cif
#   From: 2010.03.12/outbox.cif.g09.slc.cpg/sg63_31_cif.got.tgz:60224.got - 2010.04.10 19:34:48.
