data_PCOD8255003
_publ_section_title
;
Structure prediction by ZEFSAII (Michael W. Deem and Ramdas Pophale) SiO2 
 PCOD8255003
Probable space group: P N M A
;
_chemical_formula_sum "Si O2"
_cell_formula_units_Z 40
_cell_length_a 17.995849
_cell_length_b 9.187323
_cell_length_c 13.481741
_cell_angle_alpha 90.000000
_cell_angle_beta 90.000000
_cell_angle_gamma 90.000000
_cell_volume 2228.985818
_symmetry_space_group_name_H-M "P N M A"
_symmetry_group_IT_number 62
_symmetry_cell_setting 'orthorhombic'
loop_
_space_group_symop_operation_xyz
x,y,z
1/2-x,-y,1/2+z
1/2+x,1/2-y,1/2-z
-x,1/2+y,-z
-x,-y,-z
1/2+x,y,1/2-z
1/2-x,1/2+y,1/2+z
x,1/2-y,z
loop_
_atom_site_type_symbol
_atom_site_label
_atom_site_fract_x
_atom_site_fract_y
_atom_site_fract_z
Si Si1 0.466200 0.419404 0.303655
Si Si2 0.689001 0.421556 0.177582
Si Si3 0.468663 0.916219 0.907435
Si Si4 0.667492 0.423300 0.597201
Si Si5 0.622149 0.077841 0.380762
O O1 0.450213 0.250000 0.327062
O O2 0.479274 0.443641 0.187236
O O3 0.396324 0.516421 0.332145
O O4 0.538010 0.478771 0.363965
O O5 0.707147 0.250000 0.171072
O O6 0.615541 0.462798 0.116100
O O7 0.754471 0.515232 0.132101
O O8 0.676690 0.471675 0.291855
O O9 0.469956 0.750000 0.938223
O O10 0.500000 0.000000 0.000000
O O11 0.668402 0.250000 0.602810
O O12 0.653358 0.479321 0.485024
O O13 0.617087 0.250000 0.376415
#
# Coordination Sequence:
#
# PCOD8255003 Si02
#       5
#     8   8   8   8   8
#     4   9  18  35  55  74  98 135 173 203 247 310
#     4   9  19  37  54  71 100 139 173 202 245 308
#     4   9  19  35  56  77 101 136 176 212 251 300
#     4  11  21  32  51  81 106 127 163 215 259 292
#     4   8  17  35  55  71  96 133 171 206 245 296
#
# _framework density 17.945381999999999
#
# number of rings (size 3 to 8) (size 9 to 14) (size 15 to 20)
#    0.000    2.800    0.000    3.600    0.000    3.200 
#    0.000   12.000    0.000    0.000    0.000    0.000 
#    0.000    0.000    0.000    0.000    0.000    0.000 
#
# Total GULP energy -495923.747434 kJ/mol
# GULP energy per Si atom -12398.093686 kJ/mol
# Density = 1.790454 g / cm^3
# Si number density = 17.945382 Si / 1000 Ang^3
#
#
#
# Elastic Constant Matrix: (Units=GPa)
#
#
# Indices 1 2 3 4 5 6 
#
# 1 131.4968 56.9279 82.8889 0.0000 0.0000 0.0000
# 2 56.9279 59.8504 50.4067 0.0000 0.0000 0.0000
# 3 82.8889 50.4067 114.2059 0.0000 0.0000 0.0000
# 4 0.0000 0.0000 0.0000 31.2680 0.0000 0.0000
# 5 0.0000 0.0000 0.0000 0.0000 28.6111 0.0000
# 6 0.0000 0.0000 0.0000 0.0000 0.0000 33.8102
#
#
#
# Elastic Compliance Matrix: (Units=1/GPa)
#
#
# Indices 1 2 3 4 5 6 
#
# 1 0.016575 -0.008967 -0.008072 0.000000 0.000000 0.000000
# 2 -0.008967 0.031445 -0.007371 0.000000 0.000000 0.000000
# 3 -0.008072 -0.007371 0.017868 0.000000 0.000000 0.000000
# 4 0.000000 0.000000 0.000000 0.031982 0.000000 0.000000
# 5 0.000000 0.000000 0.000000 0.000000 0.034951 0.000000
# 6 0.000000 0.000000 0.000000 0.000000 0.000000 0.029577
#
#
# Mechanical properties :
#
#
# Convention : Reuss Voigt Hill
#
# Bulk Modulus (GPa) = 58.58810 76.22224 67.40517
# Shear Modulus (GPa) = 23.05128 26.42652 24.73890
#
# Velocity S-wave (km/s) = 3.58791 3.84162 3.71693
# Velocity P-wave (km/s) = 7.06279 7.88950 7.48756
#
# Compressibility (1/GPa) = 0.01706831
#
# Stress axis : x y z
#
# Youngs Moduli (GPa) = 60.33125 31.80119 55.96650
#
# Poissons Ratio (x) = 0.28517 0.45177
# Poissons Ratio (y) = 0.54101 0.41250
# Poissons Ratio (z) = 0.48700 0.23439
#
# Static dielectric constant tensor:
#      x y z
#    x 3.307630 0.000000 0.000000 
#    y 0.000000 3.080050 0.000000 
#    z 0.000000 0.000000 3.773500 
# 
# 
# High freq. dielectric constant tensor:
#      x y z
#    x 1.698960 0.000000 0.000000 
#    y 0.000000 1.674240 0.000000 
#    z 0.000000 0.000000 1.703910 
# 
# From -- ./inp_files/13854.got.cif
#   From: 2010.03.12/outbox.cif.g09.slc.cpg/sg62_7_cif.got.tgz:13854.got - 2010.04.10 19:12:36.
