data_PCOD8255900
_publ_section_title
;
Structure prediction by ZEFSAII (Michael W. Deem and Ramdas Pophale) SiO2 
 PCOD8255900
Probable space group: C M C M
;
_chemical_formula_sum "Si O2"
_cell_formula_units_Z 128
_cell_length_a 23.330415
_cell_length_b 13.497405
_cell_length_c 22.227661
_cell_angle_alpha 90.000000
_cell_angle_beta 90.000000
_cell_angle_gamma 90.000000
_cell_volume 6999.491784
_symmetry_space_group_name_H-M "C M C M"
_symmetry_group_IT_number 63
_symmetry_cell_setting 'orthorhombic'
loop_
_space_group_symop_operation_xyz
x,y,z
-x,-y,1/2+z
x,-y,-z
-x,y,1/2-z
-x,-y,-z
x,y,1/2-z
-x,y,z
x,-y,1/2+z
1/2+x,1/2+y,z
1/2-x,1/2-y,1/2+z
1/2+x,1/2-y,-z
1/2-x,1/2+y,1/2-z
1/2-x,1/2-y,-z
1/2+x,1/2+y,1/2-z
1/2-x,1/2+y,z
1/2+x,1/2-y,1/2+z
loop_
_atom_site_type_symbol
_atom_site_label
_atom_site_fract_x
_atom_site_fract_y
_atom_site_fract_z
Si Si1 0.760568 0.765333 0.181648
Si Si2 0.663024 0.873556 0.376203
Si Si3 0.729062 0.927948 0.884196
Si Si4 0.064108 0.129959 0.680860
Si Si5 0.433606 0.020374 0.819096
Si Si6 0.152700 0.607864 0.489240
Si Si7 0.823993 0.030436 0.680983
Si Si8 0.934091 0.325436 0.894537
O O1 0.753890 0.735542 0.250000
O O2 0.696665 0.785877 0.156743
O O3 0.789762 0.672210 0.149050
O O4 0.800521 0.859210 0.170896
O O5 0.599114 0.886700 0.350059
O O6 0.664343 0.842653 0.446381
O O7 0.692258 0.979290 0.361179
O O8 0.714015 0.908322 0.954542
O O9 0.795289 0.954404 0.866998
O O10 0.071071 0.164159 0.750000
O O11 0.108038 0.039545 0.667162
O O12 0.078060 0.224989 0.640894
O O13 0.000000 0.090111 0.668154
O O14 0.414559 0.009144 0.750000
O O15 0.500000 0.046540 0.824604
O O16 0.418646 0.917938 0.852286
O O17 0.124206 0.500000 0.500000
O O18 0.107535 0.673583 0.452302
O O19 0.812240 0.995283 0.750000
O O20 0.000000 0.330748 0.916154
#
# Coordination Sequence:
#
# PCOD8255900 Si02
#       8
#    16  16  16  16  16  16  16  16
#     4  10  20  33  52  75  98 130 163 204 256 298
#     4  10  21  36  50  71 104 133 171 208 248 300
#     4  10  19  33  49  71  99 131 171 208 244 298
#     4   9  17  30  48  73 104 129 158 206 257 307
#     4  10  19  30  48  72  98 131 167 206 253 297
#     4  10  19  33  47  70 102 136 172 204 246 296
#     4   9  18  30  47  73 100 129 162 197 249 306
#     4  10  18  29  47  73 101 133 168 202 248 303
#
# _framework density 18.287042
#
# number of rings (size 3 to 8) (size 9 to 14) (size 15 to 20)
#    0.000    2.250    2.500    1.875    0.000    4.250 
#    0.000    2.500    0.000    0.750    0.000    1.750 
#    0.000   14.500    0.000    0.000    0.000    0.000 
#
# Total GULP energy -793294.523113 kJ/mol
# GULP energy per Si atom -12395.226924 kJ/mol
# Density = 1.824542 g / cm^3
# Si number density = 18.287042 Si / 1000 Ang^3
#
#
#
# Elastic Constant Matrix: (Units=GPa)
#
#
# Indices 1 2 3 4 5 6 
#
# 1 79.3478 9.6794 25.2891 0.0000 0.0000 0.0000
# 2 9.6794 26.9962 15.6462 0.0000 0.0000 0.0000
# 3 25.2891 15.6462 71.7027 0.0000 0.0000 0.0000
# 4 0.0000 0.0000 0.0000 19.6677 0.0000 0.0000
# 5 0.0000 0.0000 0.0000 0.0000 26.6896 0.0000
# 6 0.0000 0.0000 0.0000 0.0000 0.0000 24.4073
#
#
#
# Elastic Compliance Matrix: (Units=1/GPa)
#
#
# Indices 1 2 3 4 5 6 
#
# 1 0.014348 -0.002532 -0.004508 0.000000 0.000000 0.000000
# 2 -0.002532 0.042852 -0.008458 0.000000 0.000000 0.000000
# 3 -0.004508 -0.008458 0.017382 0.000000 0.000000 0.000000
# 4 0.000000 0.000000 0.000000 0.050845 0.000000 0.000000
# 5 0.000000 0.000000 0.000000 0.000000 0.037468 0.000000
# 6 0.000000 0.000000 0.000000 0.000000 0.000000 0.040971
#
#
# Mechanical properties :
#
#
# Convention : Reuss Voigt Hill
#
# Bulk Modulus (GPa) = 22.94265 31.03067 26.98666
# Shear Modulus (GPa) = 20.04890 22.64840 21.34865
#
# Velocity S-wave (km/s) = 3.31470 3.52304 3.42046
# Velocity P-wave (km/s) = 5.21754 5.79263 5.51259
#
# Compressibility (1/GPa) = 0.04358694
#
# Stress axis : x y z
#
# Youngs Moduli (GPa) = 69.69425 23.33627 57.53071
#
# Poissons Ratio (x) = 0.05908 0.25936
# Poissons Ratio (y) = 0.17645 0.48658
# Poissons Ratio (z) = 0.31419 0.19737
#
# Static dielectric constant tensor:
#      x y z
#    x 3.611480 0.000000 0.000000 
#    y 0.000000 3.072410 0.000000 
#    z 0.000000 0.000000 3.415610 
# 
# 
# High freq. dielectric constant tensor:
#      x y z
#    x 1.709880 0.000000 0.000000 
#    y 0.000000 1.673590 0.000000 
#    z 0.000000 0.000000 1.702870 
# 
# From -- ./inp_files/65171.got.cif
#   From: 2010.03.12/outbox.cif.g09.slc.cpg/sg63_33_cif.got.tgz:65171.got - 2010.04.10 19:34:48.
