data_PCOD8255648
_publ_section_title
;
Structure prediction by ZEFSAII (Michael W. Deem and Ramdas Pophale) SiO2 
 PCOD8255648
Probable space group: C M C M
;
_chemical_formula_sum "Si O2"
_cell_formula_units_Z 80
_cell_length_a 24.882172
_cell_length_b 20.552185
_cell_length_c 9.124393
_cell_angle_alpha 90.000000
_cell_angle_beta 90.000000
_cell_angle_gamma 90.000000
_cell_volume 4666.059485
_symmetry_space_group_name_H-M "C M C M"
_symmetry_group_IT_number 63
_symmetry_cell_setting 'orthorhombic'
loop_
_space_group_symop_operation_xyz
x,y,z
-x,-y,1/2+z
x,-y,-z
-x,y,1/2-z
-x,-y,-z
x,y,1/2-z
-x,y,z
x,-y,1/2+z
1/2+x,1/2+y,z
1/2-x,1/2-y,1/2+z
1/2+x,1/2-y,-z
1/2-x,1/2+y,1/2-z
1/2-x,1/2-y,-z
1/2+x,1/2+y,1/2-z
1/2-x,1/2+y,z
1/2+x,1/2-y,1/2+z
loop_
_atom_site_type_symbol
_atom_site_label
_atom_site_fract_x
_atom_site_fract_y
_atom_site_fract_z
Si Si1 0.279504 0.308580 0.078327
Si Si2 0.000000 0.630956 0.083327
Si Si3 0.000000 0.236348 0.422316
Si Si4 0.883860 0.383227 0.915971
Si Si5 0.604676 0.268904 0.418951
Si Si6 0.284723 0.064848 0.577362
O O1 0.271631 0.297155 0.250000
O O2 0.342456 0.309598 0.036269
O O3 0.254021 0.376653 0.027499
O O4 0.250000 0.250000 0.000000
O O5 0.054873 0.589659 0.062411
O O6 0.000000 0.660753 0.250000
O O7 0.000000 0.688292 0.965736
O O8 0.054385 0.204119 0.487180
O O9 0.000000 0.227111 0.250000
O O10 0.863788 0.395834 0.750000
O O11 0.883329 0.306684 0.952083
O O12 0.845615 0.421019 0.027055
O O13 0.589959 0.279006 0.250000
O O14 0.284518 0.054433 0.750000
O O15 0.262814 0.000000 0.500000
#
# Coordination Sequence:
#
# PCOD8255648 Si02
#       6
#    16   8   8  16  16  16
#     4  10  20  34  54  78 102 131 171 213 255 303
#     4   8  16  30  47  67  96 133 168 205 254 301
#     4  10  18  26  42  73 106 131 162 205 246 293
#     4   9  16  30  51  71  96 131 168 207 253 300
#     4   9  17  31  50  72 101 135 164 201 255 306
#     4  11  23  36  51  73 102 135 171 210 254 305
#
# _framework density 17.145088000000001
#
# number of rings (size 3 to 8) (size 9 to 14) (size 15 to 20)
#    0.000    2.400    2.000    2.700    0.000    4.800 
#    0.000    0.500    0.000    0.000    0.000    0.700 
#    0.000    0.000    0.000    0.000    0.000    0.000 
#
# Total GULP energy -495866.322693 kJ/mol
# GULP energy per Si atom -12396.658067 kJ/mol
# Density = 1.710606 g / cm^3
# Si number density = 17.145088 Si / 1000 Ang^3
#
#
#
# Elastic Constant Matrix: (Units=GPa)
#
#
# Indices 1 2 3 4 5 6 
#
# 1 132.3341 58.9805 56.3569 0.0000 0.0000 0.0000
# 2 58.9805 83.9980 42.6101 0.0000 0.0000 0.0000
# 3 56.3569 42.6101 78.8669 0.0000 0.0000 0.0000
# 4 0.0000 0.0000 0.0000 19.2781 0.0000 0.0000
# 5 0.0000 0.0000 0.0000 0.0000 26.7185 0.0000
# 6 0.0000 0.0000 0.0000 0.0000 0.0000 15.7718
#
#
#
# Elastic Compliance Matrix: (Units=1/GPa)
#
#
# Indices 1 2 3 4 5 6 
#
# 1 0.012705 -0.005945 -0.005867 0.000000 0.000000 0.000000
# 2 -0.005945 0.019181 -0.006115 0.000000 0.000000 0.000000
# 3 -0.005867 -0.006115 0.020176 0.000000 0.000000 0.000000
# 4 0.000000 0.000000 0.000000 0.051872 0.000000 0.000000
# 5 0.000000 0.000000 0.000000 0.000000 0.037427 0.000000
# 6 0.000000 0.000000 0.000000 0.000000 0.000000 0.063404
#
#
# Mechanical properties :
#
#
# Convention : Reuss Voigt Hill
#
# Bulk Modulus (GPa) = 61.69655 67.89933 64.79794
# Shear Modulus (GPa) = 20.32340 21.50377 20.91359
#
# Velocity S-wave (km/s) = 3.44667 3.54534 3.49635
# Velocity P-wave (km/s) = 7.20433 7.51319 7.36038
#
# Compressibility (1/GPa) = 0.01620836
#
# Stress axis : x y z
#
# Youngs Moduli (GPa) = 78.71186 52.13402 49.56444
#
# Poissons Ratio (x) = 0.30992 0.29078
# Poissons Ratio (y) = 0.46792 0.30310
# Poissons Ratio (z) = 0.46178 0.31881
#
# Static dielectric constant tensor:
#      x y z
#    x 3.656870 0.000000 0.000000 
#    y 0.000000 2.904280 0.000000 
#    z 0.000000 0.000000 3.124350 
# 
# 
# High freq. dielectric constant tensor:
#      x y z
#    x 1.675730 0.000000 0.000000 
#    y 0.000000 1.610230 0.000000 
#    z 0.000000 0.000000 1.660880 
# 
# From -- ./inp_files/12141.got.cif
#   From: 2010.03.12/outbox.cif.g09.slc.cpg/sg63_7_cif.got.tgz:12141.got - 2010.04.10 19:34:48.
