data_PCOD8255980
_publ_section_title
;
Structure prediction by ZEFSAII (Michael W. Deem and Ramdas Pophale) SiO2 
 PCOD8255980
Probable space group: C M C M
;
_chemical_formula_sum "Si O2"
_cell_formula_units_Z 80
_cell_length_a 14.869141
_cell_length_b 32.531277
_cell_length_c 9.646982
_cell_angle_alpha 90.000000
_cell_angle_beta 90.000000
_cell_angle_gamma 90.000000
_cell_volume 4666.362352
_symmetry_space_group_name_H-M "C M C M"
_symmetry_group_IT_number 63
_symmetry_cell_setting 'orthorhombic'
loop_
_space_group_symop_operation_xyz
x,y,z
-x,-y,1/2+z
x,-y,-z
-x,y,1/2-z
-x,-y,-z
x,y,1/2-z
-x,y,z
x,-y,1/2+z
1/2+x,1/2+y,z
1/2-x,1/2-y,1/2+z
1/2+x,1/2-y,-z
1/2-x,1/2+y,1/2-z
1/2-x,1/2-y,-z
1/2+x,1/2+y,1/2-z
1/2-x,1/2+y,z
1/2+x,1/2-y,1/2+z
loop_
_atom_site_type_symbol
_atom_site_label
_atom_site_fract_x
_atom_site_fract_y
_atom_site_fract_z
Si Si1 0.099725 0.825158 0.905795
Si Si2 0.166597 0.738086 0.592119
Si Si3 0.902048 0.349017 0.086317
Si Si4 0.216437 0.117742 0.586941
Si Si5 0.896748 0.039534 0.910796
O O1 0.127413 0.838638 0.750000
O O2 0.097066 0.775773 0.916337
O O3 0.000000 0.841442 0.940919
O O4 0.169650 0.843929 0.013409
O O5 0.199007 0.730542 0.750000
O O6 0.250000 0.750000 0.500000
O O7 0.120803 0.696798 0.532027
O O8 0.910076 0.347303 0.250000
O O9 0.822519 0.381120 0.045044
O O10 0.000000 0.362680 0.024751
O O11 0.202877 0.124057 0.750000
O O12 0.170298 0.075409 0.538740
O O13 0.881601 0.028852 0.750000
O O14 0.000000 0.053043 0.937921
O O15 0.871022 0.000000 0.000000
#
# Coordination Sequence:
#
# PCOD8255980 Si02
#       5
#    16  16  16  16  16
#     4  10  20  31  45  68  98 130 161 196 240 287
#     4  10  18  30  47  66  92 127 166 203 238 278
#     4   9  17  30  49  70  93 126 166 203 238 278
#     4  10  19  32  51  74  97 123 159 202 240 279
#     4   9  18  32  50  73  99 124 151 186 232 289
#
# _framework density 17.143975000000001
#
# number of rings (size 3 to 8) (size 9 to 14) (size 15 to 20)
#    0.000    2.400    2.000    1.200    0.000    4.400 
#    0.000    2.000    0.000    4.200    0.000    0.000 
#    0.000    0.000    0.000    0.000    0.000    0.000 
#
# Total GULP energy -495781.793718 kJ/mol
# GULP energy per Si atom -12394.544843 kJ/mol
# Density = 1.710495 g / cm^3
# Si number density = 17.143975 Si / 1000 Ang^3
#
#
#
# Elastic Constant Matrix: (Units=GPa)
#
#
# Indices 1 2 3 4 5 6 
#
# 1 140.2935 61.3726 31.3511 0.0000 0.0000 0.0000
# 2 61.3726 100.0581 24.7462 0.0000 0.0000 0.0000
# 3 31.3511 24.7462 35.1649 0.0000 0.0000 0.0000
# 4 0.0000 0.0000 0.0000 23.8793 0.0000 0.0000
# 5 0.0000 0.0000 0.0000 0.0000 16.5799 0.0000
# 6 0.0000 0.0000 0.0000 0.0000 0.0000 28.3948
#
#
#
# Elastic Compliance Matrix: (Units=1/GPa)
#
#
# Indices 1 2 3 4 5 6 
#
# 1 0.010679 -0.005079 -0.005946 0.000000 0.000000 0.000000
# 2 -0.005079 0.014516 -0.005687 0.000000 0.000000 0.000000
# 3 -0.005946 -0.005687 0.037740 0.000000 0.000000 0.000000
# 4 0.000000 0.000000 0.000000 0.041877 0.000000 0.000000
# 5 0.000000 0.000000 0.000000 0.000000 0.060314 0.000000
# 6 0.000000 0.000000 0.000000 0.000000 0.000000 0.035218
#
#
# Mechanical properties :
#
#
# Convention : Reuss Voigt Hill
#
# Bulk Modulus (GPa) = 33.88583 56.71736 45.30160
# Shear Modulus (GPa) = 20.52495 24.30724 22.41609
#
# Velocity S-wave (km/s) = 3.46383 3.76949 3.61989
# Velocity P-wave (km/s) = 5.98380 7.21805 6.62971
#
# Compressibility (1/GPa) = 0.02951086
#
# Stress axis : x y z
#
# Youngs Moduli (GPa) = 93.64444 68.88849 26.49674
#
# Poissons Ratio (x) = 0.34991 0.15755
# Poissons Ratio (y) = 0.47566 0.15068
# Poissons Ratio (z) = 0.55681 0.39176
#
# Static dielectric constant tensor:
#      x y z
#    x 3.548950 0.000000 0.000000 
#    y 0.000000 3.138600 0.000000 
#    z 0.000000 0.000000 3.012290 
# 
# 
# High freq. dielectric constant tensor:
#      x y z
#    x 1.664200 0.000000 0.000000 
#    y 0.000000 1.642520 0.000000 
#    z 0.000000 0.000000 1.639300 
# 
# From -- ./inp_files/6692.got.cif
#   From: 2010.03.12/outbox.cif.g09.slc.cpg/sg63_4_cif.got.tgz:6692.got - 2010.04.10 19:34:48.
