data_PCOD8255780
_publ_section_title
;
Structure prediction by ZEFSAII (Michael W. Deem and Ramdas Pophale) SiO2 
 PCOD8255780
Probable space group: C M C M
;
_chemical_formula_sum "Si O2"
_cell_formula_units_Z 120
_cell_length_a 14.940776
_cell_length_b 23.187081
_cell_length_c 19.292279
_cell_angle_alpha 90.000000
_cell_angle_beta 90.000000
_cell_angle_gamma 90.000000
_cell_volume 6683.481769
_symmetry_space_group_name_H-M "C M C M"
_symmetry_group_IT_number 63
_symmetry_cell_setting 'orthorhombic'
loop_
_space_group_symop_operation_xyz
x,y,z
-x,-y,1/2+z
x,-y,-z
-x,y,1/2-z
-x,-y,-z
x,y,1/2-z
-x,y,z
x,-y,1/2+z
1/2+x,1/2+y,z
1/2-x,1/2-y,1/2+z
1/2+x,1/2-y,-z
1/2-x,1/2+y,1/2-z
1/2-x,1/2-y,-z
1/2+x,1/2+y,1/2-z
1/2-x,1/2+y,z
1/2+x,1/2-y,1/2+z
loop_
_atom_site_type_symbol
_atom_site_label
_atom_site_fract_x
_atom_site_fract_y
_atom_site_fract_z
Si Si1 0.604173 0.494622 0.356742
Si Si2 0.785162 0.114360 0.675218
Si Si3 0.809793 0.000000 0.500000
Si Si4 0.897731 0.703895 0.037907
Si Si5 0.103688 0.770396 0.327408
Si Si6 0.605930 0.377646 0.675035
Si Si7 0.397136 0.320429 0.964429
Si Si8 0.737713 0.882904 0.026482
O O1 0.500000 0.487681 0.339683
O O2 0.656791 0.443751 0.318907
O O3 0.621999 0.490288 0.437852
O O4 0.641315 0.556902 0.332089
O O5 0.734123 0.119705 0.750000
O O6 0.848696 0.168892 0.665238
O O7 0.717441 0.112516 0.609460
O O8 0.743336 0.054232 0.491988
O O9 0.862246 0.726376 0.112837
O O10 0.839317 0.650077 0.014263
O O11 0.000000 0.683113 0.043646
O O12 0.887381 0.752494 0.978416
O O13 0.118725 0.743911 0.250000
O O14 0.000000 0.782594 0.342193
O O15 0.638428 0.353116 0.750000
O O16 0.500000 0.379504 0.671855
O O17 0.638723 0.335657 0.613066
O O18 0.500000 0.340487 0.975493
O O19 0.335276 0.353399 0.019284
#
# Coordination Sequence:
#
# PCOD8255780 Si02
#       8
#    16  16   8  16  16  16  16  16
#     4  10  18  28  45  70 105 146 180 208 249 308
#     4  10  20  30  45  73 107 142 176 210 255 310
#     4  10  21  32  49  76 102 132 176 222 262 306
#     4  10  21  37  57  77 100 137 180 222 271 314
#     4   9  17  30  49  76 107 133 165 211 261 316
#     4   9  17  29  44  66 103 144 178 209 241 294
#     4  10  19  32  51  77 105 138 172 204 254 316
#     4  11  21  36  56  74 105 136 175 222 265 310
#
# _framework density 17.954713999999999
#
# number of rings (size 3 to 8) (size 9 to 14) (size 15 to 20)
#    0.000    2.133    2.667    1.400    0.000    3.467 
#    0.000    1.667    0.000    1.200    0.000    0.000 
#    0.000    0.000    0.000    0.000    0.000    0.000 
#
# Total GULP energy -743574.899372 kJ/mol
# GULP energy per Si atom -12392.914990 kJ/mol
# Density = 1.791385 g / cm^3
# Si number density = 17.954714 Si / 1000 Ang^3
#
#
#
# Elastic Constant Matrix: (Units=GPa)
#
#
# Indices 1 2 3 4 5 6 
#
# 1 39.7728 27.1433 19.5465 0.0000 0.0000 0.0000
# 2 27.1433 64.4865 21.4544 0.0000 0.0000 0.0000
# 3 19.5465 21.4544 115.1772 0.0000 0.0000 0.0000
# 4 0.0000 0.0000 0.0000 19.9831 0.0000 0.0000
# 5 0.0000 0.0000 0.0000 0.0000 14.4698 0.0000
# 6 0.0000 0.0000 0.0000 0.0000 0.0000 22.1975
#
#
#
# Elastic Compliance Matrix: (Units=1/GPa)
#
#
# Indices 1 2 3 4 5 6 
#
# 1 0.036598 -0.014219 -0.003562 0.000000 0.000000 0.000000
# 2 -0.014219 0.022056 -0.001695 0.000000 0.000000 0.000000
# 3 -0.003562 -0.001695 0.009603 0.000000 0.000000 0.000000
# 4 0.000000 0.000000 0.000000 0.050042 0.000000 0.000000
# 5 0.000000 0.000000 0.000000 0.000000 0.069110 0.000000
# 6 0.000000 0.000000 0.000000 0.000000 0.000000 0.045050
#
#
# Mechanical properties :
#
#
# Convention : Reuss Voigt Hill
#
# Bulk Modulus (GPa) = 34.12657 39.52498 36.82578
# Shear Modulus (GPa) = 17.78222 21.41623 19.59922
#
# Velocity S-wave (km/s) = 3.15046 3.45743 3.30751
# Velocity P-wave (km/s) = 5.68174 6.16441 5.92799
#
# Compressibility (1/GPa) = 0.02930268
#
# Stress axis : x y z
#
# Youngs Moduli (GPa) = 27.32422 45.33858 104.13835
#
# Poissons Ratio (x) = 0.64468 0.37097
# Poissons Ratio (y) = 0.38853 0.17655
# Poissons Ratio (z) = 0.09734 0.07687
#
# Static dielectric constant tensor:
#      x y z
#    x 2.812340 0.000000 0.000000 
#    y 0.000000 3.295930 0.000000 
#    z 0.000000 0.000000 3.790700 
# 
# 
# High freq. dielectric constant tensor:
#      x y z
#    x 1.635870 0.000000 0.000000 
#    y 0.000000 1.684670 0.000000 
#    z 0.000000 0.000000 1.719280 
# 
# From -- ./inp_files/46313.got.cif
#   From: 2010.03.12/outbox.cif.g09.slc.cpg/sg63_24_cif.got.tgz:46313.got - 2010.04.10 19:34:48.
