data_PCOD8255275
_publ_section_title
;
Structure prediction by ZEFSAII (Michael W. Deem and Ramdas Pophale) SiO2 
 PCOD8255275
Probable space group: P N M A
;
_chemical_formula_sum "Si O2"
_cell_formula_units_Z 64
_cell_length_a 26.119042
_cell_length_b 9.772786
_cell_length_c 18.257357
_cell_angle_alpha 90.000000
_cell_angle_beta 90.000000
_cell_angle_gamma 90.000000
_cell_volume 4660.296413
_symmetry_space_group_name_H-M "P N M A"
_symmetry_group_IT_number 62
_symmetry_cell_setting 'orthorhombic'
loop_
_space_group_symop_operation_xyz
x,y,z
1/2-x,-y,1/2+z
1/2+x,1/2-y,1/2-z
-x,1/2+y,-z
-x,-y,-z
1/2+x,y,1/2-z
1/2-x,1/2+y,1/2+z
x,1/2-y,z
loop_
_atom_site_type_symbol
_atom_site_label
_atom_site_fract_x
_atom_site_fract_y
_atom_site_fract_z
Si Si1 0.550110 0.407273 0.918995
Si Si2 0.743396 0.590954 0.420806
Si Si3 0.254516 0.587528 0.915503
Si Si4 0.044122 0.091328 0.410771
Si Si5 0.853725 0.587714 0.664300
Si Si6 0.197942 0.402505 0.192278
Si Si7 0.152673 0.092749 0.664098
Si Si8 0.695843 0.902270 0.722208
O O1 0.535845 0.250000 0.902884
O O2 0.505048 0.502746 0.888414
O O3 0.601872 0.451378 0.878571
O O4 0.558890 0.431228 0.004860
O O5 0.728434 0.750000 0.416750
O O6 0.742278 0.532687 0.503434
O O7 0.700797 0.507447 0.375253
O O8 0.799910 0.564562 0.389541
O O9 0.259951 0.750000 0.917829
O O10 0.308427 0.525100 0.886550
O O11 0.208122 0.546645 0.860552
O O12 0.032235 0.250000 0.394285
O O13 0.091339 0.033986 0.362738
O O14 0.851795 0.750000 0.656099
O O15 0.845192 0.547257 0.749633
O O16 0.185202 0.250000 0.162721
O O17 0.251027 0.398952 0.235084
O O18 0.150910 0.250000 0.688235
O O19 0.156479 0.004526 0.738415
O O20 0.671618 0.750000 0.721359
#
# Coordination Sequence:
#
# PCOD8255275 Si02
#       8
#     8   8   8   8   8   8   8   8
#     4   9  17  27  37  52  75  98 120 151 187 213
#     4   9  15  23  37  55  73  95 124 151 173 207
#     4   8  13  22  37  55  73  95 123 151 177 207
#     4   9  16  26  40  55  70  93 127 158 178 204
#     4   8  13  23  39  54  69  95 128 153 174 207
#     4   8  14  24  36  51  72  95 118 147 181 211
#     4   9  16  25  37  52  72  99 125 147 176 214
#     4   8  14  24  37  52  70  93 121 151 178 205
#
# _framework density 13.733033000000001
#
# number of rings (size 3 to 8) (size 9 to 14) (size 15 to 20)
#    0.000    3.500    0.000    2.250    0.000    3.500 
#    0.000    1.250    0.000    3.750    0.000    0.000 
#    0.000    1.000    0.000    2.250    0.000    4.000 
#
# Total GULP energy -793219.449868 kJ/mol
# GULP energy per Si atom -12394.053904 kJ/mol
# Density = 1.370178 g / cm^3
# Si number density = 13.733033 Si / 1000 Ang^3
#
#
#
# Elastic Constant Matrix: (Units=GPa)
#
#
# Indices 1 2 3 4 5 6 
#
# 1 70.5755 36.7863 45.4108 0.0000 0.0000 0.0000
# 2 36.7863 48.9701 43.0575 0.0000 0.0000 0.0000
# 3 45.4108 43.0575 97.7857 0.0000 0.0000 0.0000
# 4 0.0000 0.0000 0.0000 20.3992 0.0000 0.0000
# 5 0.0000 0.0000 0.0000 0.0000 24.2337 0.0000
# 6 0.0000 0.0000 0.0000 0.0000 0.0000 17.8888
#
#
#
# Elastic Compliance Matrix: (Units=1/GPa)
#
#
# Indices 1 2 3 4 5 6 
#
# 1 0.024942 -0.013955 -0.005438 0.000000 0.000000 0.000000
# 2 -0.013955 0.041129 -0.011630 0.000000 0.000000 0.000000
# 3 -0.005438 -0.011630 0.017873 0.000000 0.000000 0.000000
# 4 0.000000 0.000000 0.000000 0.049022 0.000000 0.000000
# 5 0.000000 0.000000 0.000000 0.000000 0.041265 0.000000
# 6 0.000000 0.000000 0.000000 0.000000 0.000000 0.055901
#
#
# Mechanical properties :
#
#
# Convention : Reuss Voigt Hill
#
# Bulk Modulus (GPa) = 45.66539 51.98228 48.82384
# Shear Modulus (GPa) = 16.69583 18.64279 17.66931
#
# Velocity S-wave (km/s) = 3.49053 3.68844 3.59085
# Velocity P-wave (km/s) = 7.04056 7.48823 7.26785
#
# Compressibility (1/GPa) = 0.02189842
#
# Stress axis : x y z
#
# Youngs Moduli (GPa) = 40.09288 24.31371 55.95113
#
# Poissons Ratio (x) = 0.33929 0.30427
# Poissons Ratio (y) = 0.55949 0.65069
# Poissons Ratio (z) = 0.21803 0.28276
#
# Static dielectric constant tensor:
#      x y z
#    x 2.621530 0.000000 0.000000 
#    y 0.000000 2.644260 0.000000 
#    z 0.000000 0.000000 2.887640 
# 
# 
# High freq. dielectric constant tensor:
#      x y z
#    x 1.492790 0.000000 0.000000 
#    y 0.000000 1.506050 0.000000 
#    z 0.000000 0.000000 1.514570 
# 
# From -- ./inp_files/25000.got.cif
#   From: 2010.03.12/outbox.cif.g09.slc.cpg/sg62_13_cif.got.tgz:25000.got - 2010.04.10 19:12:36.
