data_PCOD8255187
_publ_section_title
;
Structure prediction by ZEFSAII (Michael W. Deem and Ramdas Pophale) SiO2 
 PCOD8255187
Probable space group: P N M A
;
_chemical_formula_sum "Si O2"
_cell_formula_units_Z 32
_cell_length_a 23.003830
_cell_length_b 12.326511
_cell_length_c 4.648421
_cell_angle_alpha 90.000000
_cell_angle_beta 90.000000
_cell_angle_gamma 90.000000
_cell_volume 1318.092144
_symmetry_space_group_name_H-M "P N M A"
_symmetry_group_IT_number 62
_symmetry_cell_setting 'orthorhombic'
loop_
_space_group_symop_operation_xyz
x,y,z
1/2-x,-y,1/2+z
1/2+x,1/2-y,1/2-z
-x,1/2+y,-z
-x,-y,-z
1/2+x,y,1/2-z
1/2-x,1/2+y,1/2+z
x,1/2-y,z
loop_
_atom_site_type_symbol
_atom_site_label
_atom_site_fract_x
_atom_site_fract_y
_atom_site_fract_z
Si Si1 0.628122 0.071843 0.988686
Si Si2 0.212982 0.250000 0.678046
Si Si3 0.706764 0.750000 0.794355
Si Si4 0.373371 0.425324 0.498655
Si Si5 0.542204 0.250000 0.200454
Si Si6 0.538331 0.750000 0.299194
O O1 0.675109 0.140576 0.800173
O O2 0.596931 0.001088 0.742014
O O3 0.579663 0.144114 0.139946
O O4 0.655834 0.995478 0.241154
O O5 0.229948 0.250000 0.343836
O O6 0.273748 0.250000 0.866938
O O7 0.673226 0.856696 0.687011
O O8 0.423528 0.355346 0.643500
O O9 0.523007 0.250000 0.532236
O O10 0.480523 0.250000 0.033051
#
# Coordination Sequence:
#
# PCOD8255187 Si02
#       6
#     8   4   4   8   4   4
#     4  11  24  42  65  95 131 171 218 273 331 393
#     4  11  24  43  66  94 128 169 220 274 330 393
#     4  11  24  43  66  94 128 169 220 274 330 393
#     4  11  24  42  65  95 131 171 218 273 331 393
#     4  11  24  41  64  96 131 171 219 268 324 393
#     4  11  24  41  64  96 131 171 219 268 324 393
#
# _framework density 24.277512000000002
#
# number of rings (size 3 to 8) (size 9 to 14) (size 15 to 20)
#    0.000    1.000    0.000    6.000    0.000   18.000 
#    0.000    0.000    0.000    0.000    0.000    0.000 
#    0.000    0.000    0.000    0.000    0.000    0.000 
#
# Total GULP energy -396583.533816 kJ/mol
# GULP energy per Si atom -12393.235432 kJ/mol
# Density = 2.422226 g / cm^3
# Si number density = 24.277512 Si / 1000 Ang^3
#
#
#
# Elastic Constant Matrix: (Units=GPa)
#
#
# Indices 1 2 3 4 5 6 
#
# 1 81.5083 32.6835 10.7055 0.0000 0.0000 0.0000
# 2 32.6835 137.1446 48.2843 0.0000 0.0000 0.0000
# 3 10.7055 48.2843 101.6888 0.0000 0.0000 0.0000
# 4 0.0000 0.0000 0.0000 37.8965 0.0000 0.0000
# 5 0.0000 0.0000 0.0000 0.0000 56.2312 0.0000
# 6 0.0000 0.0000 0.0000 0.0000 0.0000 -7.2609
#
#
#
# Elastic Compliance Matrix: (Units=1/GPa)
#
#
# Indices 1 2 3 4 5 6 
#
# 1 0.013566 -0.003278 0.000128 0.000000 0.000000 0.000000
# 2 -0.003278 0.009547 -0.004188 0.000000 0.000000 0.000000
# 3 0.000128 -0.004188 0.011809 0.000000 0.000000 0.000000
# 4 0.000000 0.000000 0.000000 0.026388 0.000000 0.000000
# 5 0.000000 0.000000 0.000000 0.000000 0.017784 0.000000
# 6 0.000000 0.000000 0.000000 0.000000 0.000000 -0.137723
#
#
# Mechanical properties :
#
#
# Convention : Reuss Voigt Hill
#
# Bulk Modulus (GPa) = 49.39092 55.96535 52.67813
# Shear Modulus (GPa) = -134.39404 32.61792 -50.88806
#
# Velocity S-wave (km/s) = -7.44833 3.66942 -4.58328
# Velocity P-wave (km/s) = 7.31995 6.40743 2.50264
#
# Compressibility (1/GPa) = 0.02024664
#
# Stress axis : x y z
#
# Youngs Moduli (GPa) = 73.71176 104.74103 84.68069
#
# Poissons Ratio (x) = 0.34337 -0.01087
# Poissons Ratio (y) = 0.24165 0.35466
# Poissons Ratio (z) = -0.00946 0.43868
#
# Static dielectric constant tensor:
#      x y z
#    x 3.903570 0.000000 0.000000 
#    y 0.000000 4.953830 0.000000 
#    z 0.000000 0.000000 4.553500 
# 
# 
# High freq. dielectric constant tensor:
#      x y z
#    x 1.937050 0.000000 0.000000 
#    y 0.000000 1.983330 0.000000 
#    z 0.000000 0.000000 1.989910 
# 
# From -- ./inp_files/2031.got.cif
#   From: 2010.03.12/outbox.cif.g09.slc.cpg/sg62_2_cif.got.tgz:2031.got - 2010.04.10 19:12:36.
