data_PCOD8255853
_publ_section_title
;
Structure prediction by ZEFSAII (Michael W. Deem and Ramdas Pophale) SiO2 
 PCOD8255853
Probable space group: C M C M
;
_chemical_formula_sum "Si O2"
_cell_formula_units_Z 88
_cell_length_a 20.548507
_cell_length_b 27.282130
_cell_length_c 8.709947
_cell_angle_alpha 90.000000
_cell_angle_beta 90.000000
_cell_angle_gamma 90.000000
_cell_volume 4882.857600
_symmetry_space_group_name_H-M "C M C M"
_symmetry_group_IT_number 63
_symmetry_cell_setting 'orthorhombic'
loop_
_space_group_symop_operation_xyz
x,y,z
-x,-y,1/2+z
x,-y,-z
-x,y,1/2-z
-x,-y,-z
x,y,1/2-z
-x,y,z
x,-y,1/2+z
1/2+x,1/2+y,z
1/2-x,1/2-y,1/2+z
1/2+x,1/2-y,-z
1/2-x,1/2+y,1/2-z
1/2-x,1/2-y,-z
1/2+x,1/2+y,1/2-z
1/2-x,1/2+y,z
1/2+x,1/2-y,1/2+z
loop_
_atom_site_type_symbol
_atom_site_label
_atom_site_fract_x
_atom_site_fract_y
_atom_site_fract_z
Si Si1 0.500000 0.054267 0.567356
Si Si2 0.360477 0.327645 0.570336
Si Si3 0.725167 0.138921 0.068914
Si Si4 0.868078 0.283345 0.431341
Si Si5 0.000000 0.176729 0.070136
Si Si6 0.131590 0.446709 0.931256
Si Si7 0.000000 0.718263 0.070847
O O1 0.500000 0.054674 0.750000
O O2 0.433540 0.078444 0.503211
O O3 0.500000 0.000000 0.500000
O O4 0.351138 0.323996 0.750000
O O5 0.300549 0.360798 0.508946
O O6 0.357545 0.272104 0.505641
O O7 0.432063 0.351871 0.532137
O O8 0.719240 0.146929 0.250000
O O9 0.692367 0.087538 0.022314
O O10 0.691710 0.184528 0.987249
O O11 0.872988 0.284765 0.250000
O O12 0.935130 0.305791 0.498986
O O13 0.000000 0.192588 0.250000
O O14 0.000000 0.224495 0.966604
O O15 0.122283 0.451464 0.750000
O O16 0.146034 0.500000 0.000000
O O17 0.000000 0.708153 0.250000
#
# Coordination Sequence:
#
# PCOD8255853 Si02
#       7
#     8  16  16  16   8  16   8
#     4  10  18  31  52  71  90 117 152 192 232 273
#     4   8  15  29  48  70  95 122 153 188 228 272
#     4  10  20  32  47  69  95 123 154 190 233 279
#     4  10  19  31  47  67  94 126 158 193 229 270
#     4   8  14  28  49  69  91 120 154 192 229 270
#     4  10  20  34  51  69  92 120 153 192 231 271
#     4  10  18  29  45  64  91 127 163 196 228 265
#
# _framework density 18.022234999999998
#
# number of rings (size 3 to 8) (size 9 to 14) (size 15 to 20)
#    0.000    2.545    0.000    5.455    0.000    2.182 
#    0.000    4.545    0.000    0.000    0.000    0.636 
#    0.000    0.000    0.000    0.000    0.000    0.000 
#
# Total GULP energy -545135.103364 kJ/mol
# GULP energy per Si atom -12389.434167 kJ/mol
# Density = 1.798122 g / cm^3
# Si number density = 18.022235 Si / 1000 Ang^3
#
#
#
# Elastic Constant Matrix: (Units=GPa)
#
#
# Indices 1 2 3 4 5 6 
#
# 1 206.2150 62.9708 40.0335 0.0000 0.0000 0.0000
# 2 62.9708 57.4941 24.5546 0.0000 0.0000 0.0000
# 3 40.0335 24.5546 63.0447 0.0000 0.0000 0.0000
# 4 0.0000 0.0000 0.0000 15.9581 0.0000 0.0000
# 5 0.0000 0.0000 0.0000 0.0000 19.4876 0.0000
# 6 0.0000 0.0000 0.0000 0.0000 0.0000 9.6022
#
#
#
# Elastic Compliance Matrix: (Units=1/GPa)
#
#
# Indices 1 2 3 4 5 6 
#
# 1 0.007465 -0.007379 -0.001866 0.000000 0.000000 0.000000
# 2 -0.007379 0.028157 -0.006281 0.000000 0.000000 0.000000
# 3 -0.001866 -0.006281 0.019493 0.000000 0.000000 0.000000
# 4 0.000000 0.000000 0.000000 0.062664 0.000000 0.000000
# 5 0.000000 0.000000 0.000000 0.000000 0.051315 0.000000
# 6 0.000000 0.000000 0.000000 0.000000 0.000000 0.104143
#
#
# Mechanical properties :
#
#
# Convention : Reuss Voigt Hill
#
# Bulk Modulus (GPa) = 41.55772 64.65241 53.10507
# Shear Modulus (GPa) = 16.00967 22.28922 19.14945
#
# Velocity S-wave (km/s) = 2.98372 3.52058 3.26321
# Velocity P-wave (km/s) = 5.91433 7.24414 6.61275
#
# Compressibility (1/GPa) = 0.02406292
#
# Stress axis : x y z
#
# Youngs Moduli (GPa) = 133.96075 35.51464 51.29988
#
# Poissons Ratio (x) = 0.26206 0.09574
# Poissons Ratio (y) = 0.98848 0.32222
# Poissons Ratio (z) = 0.25001 0.22307
#
# Static dielectric constant tensor:
#      x y z
#    x 4.300450 0.000000 0.000000 
#    y 0.000000 3.016120 0.000000 
#    z 0.000000 0.000000 3.186270 
# 
# 
# High freq. dielectric constant tensor:
#      x y z
#    x 1.718680 0.000000 0.000000 
#    y 0.000000 1.643210 0.000000 
#    z 0.000000 0.000000 1.688040 
# 
# From -- ./inp_files/9030.got.cif
#   From: 2010.03.12/outbox.cif.g09.slc.cpg/sg63_5_cif.got.tgz:9030.got - 2010.04.10 19:34:48.
