data_PCOD8255809
_publ_section_title
;
Structure prediction by ZEFSAII (Michael W. Deem and Ramdas Pophale) SiO2 
 PCOD8255809
Probable space group: C M C M
;
_chemical_formula_sum "Si O2"
_cell_formula_units_Z 80
_cell_length_a 9.102440
_cell_length_b 20.785755
_cell_length_c 24.816273
_cell_angle_alpha 90.000000
_cell_angle_beta 90.000000
_cell_angle_gamma 90.000000
_cell_volume 4695.265845
_symmetry_space_group_name_H-M "C M C M"
_symmetry_group_IT_number 63
_symmetry_cell_setting 'orthorhombic'
loop_
_space_group_symop_operation_xyz
x,y,z
-x,-y,1/2+z
x,-y,-z
-x,y,1/2-z
-x,-y,-z
x,y,1/2-z
-x,y,z
x,-y,1/2+z
1/2+x,1/2+y,z
1/2-x,1/2-y,1/2+z
1/2+x,1/2-y,-z
1/2-x,1/2+y,1/2-z
1/2-x,1/2-y,-z
1/2+x,1/2+y,1/2-z
1/2-x,1/2+y,z
1/2+x,1/2-y,1/2+z
loop_
_atom_site_type_symbol
_atom_site_label
_atom_site_fract_x
_atom_site_fract_y
_atom_site_fract_z
Si Si1 0.829290 0.361806 0.750000
Si Si2 0.830945 0.003838 0.867507
Si Si3 0.671701 0.811600 0.976706
Si Si4 0.835047 0.989794 0.750000
Si Si5 0.672887 0.940231 0.036800
Si Si6 0.674213 0.867612 0.865435
O O1 0.790803 0.436685 0.750000
O O2 0.772620 0.334648 0.691873
O O3 0.000000 0.351566 0.750000
O O4 0.756594 0.934481 0.874764
O O5 0.000000 0.997547 0.884530
O O6 0.815982 0.029935 0.805524
O O7 0.752588 0.055720 0.905580
O O8 0.500000 0.801668 0.984249
O O9 0.713492 0.819031 0.913616
O O10 0.750000 0.750000 0.000000
O O11 0.724836 0.874862 0.008350
O O12 0.000000 0.958584 0.750000
O O13 0.500000 0.941524 0.046592
O O14 0.722619 0.000000 0.000000
O O15 0.500000 0.882799 0.865256
#
# Coordination Sequence:
#
# PCOD8255809 Si02
#       6
#     8  16  16   8  16  16
#     4   8  14  24  46  71  90 119 163 199 231 287
#     4  10  18  28  47  74 101 128 162 203 244 291
#     4  10  21  35  51  70  99 133 163 201 246 292
#     4   8  16  28  40  65 104 131 149 193 255 291
#     4  10  19  34  52  70  98 132 164 200 244 288
#     4   9  16  30  48  70  98 128 159 198 245 290
#
# _framework density 17.038439
#
# number of rings (size 3 to 8) (size 9 to 14) (size 15 to 20)
#    0.000    2.600    2.000    0.600    0.000    2.800 
#    0.000    0.000    0.000    1.200    0.000    5.600 
#    0.000    0.000    0.000    0.000    0.000    0.000 
#
# Total GULP energy -495541.506396 kJ/mol
# GULP energy per Si atom -12388.537660 kJ/mol
# Density = 1.699966 g / cm^3
# Si number density = 17.038439 Si / 1000 Ang^3
#
#
#
# Elastic Constant Matrix: (Units=GPa)
#
#
# Indices 1 2 3 4 5 6 
#
# 1 29.7665 29.2869 41.2517 0.0000 0.0000 0.0000
# 2 29.2869 91.1855 69.8568 0.0000 0.0000 0.0000
# 3 41.2517 69.8568 183.5627 0.0000 0.0000 0.0000
# 4 0.0000 0.0000 0.0000 18.6035 0.0000 0.0000
# 5 0.0000 0.0000 0.0000 0.0000 25.5346 0.0000
# 6 0.0000 0.0000 0.0000 0.0000 0.0000 24.2792
#
#
#
# Elastic Compliance Matrix: (Units=1/GPa)
#
#
# Indices 1 2 3 4 5 6 
#
# 1 0.056696 -0.011925 -0.008203 0.000000 0.000000 0.000000
# 2 -0.011925 0.017988 -0.004166 0.000000 0.000000 0.000000
# 3 -0.008203 -0.004166 0.008876 0.000000 0.000000 0.000000
# 4 0.000000 0.000000 0.000000 0.053753 0.000000 0.000000
# 5 0.000000 0.000000 0.000000 0.000000 0.039163 0.000000
# 6 0.000000 0.000000 0.000000 0.000000 0.000000 0.041188
#
#
# Mechanical properties :
#
#
# Convention : Reuss Voigt Hill
#
# Bulk Modulus (GPa) = 28.59366 65.03394 46.81380
# Shear Modulus (GPa) = 17.99149 24.62474 21.30812
#
# Velocity S-wave (km/s) = 3.25304 3.80576 3.54021
# Velocity P-wave (km/s) = 5.56129 7.58707 6.65175
#
# Compressibility (1/GPa) = 0.03497279
#
# Stress axis : x y z
#
# Youngs Moduli (GPa) = 17.63792 55.59232 112.65827
#
# Poissons Ratio (x) = 0.66296 0.92412
# Poissons Ratio (y) = 0.21034 0.46929
# Poissons Ratio (z) = 0.14468 0.23157
#
# Static dielectric constant tensor:
#      x y z
#    x 3.165440 0.000000 0.000000 
#    y 0.000000 2.722980 0.000000 
#    z 0.000000 0.000000 3.933940 
# 
# 
# High freq. dielectric constant tensor:
#      x y z
#    x 1.655390 0.000000 0.000000 
#    y 0.000000 1.594710 0.000000 
#    z 0.000000 0.000000 1.688300 
# 
# From -- ./inp_files/59770.got.cif
#   From: 2010.03.12/outbox.cif.g09.slc.cpg/sg63_30_cif.got.tgz:59770.got - 2010.04.10 19:34:48.
