data_PCOD8255997
_publ_section_title
;
Structure prediction by ZEFSAII (Michael W. Deem and Ramdas Pophale) SiO2 
 PCOD8255997
Probable space group: C M C M
;
_chemical_formula_sum "Si O2"
_cell_formula_units_Z 104
_cell_length_a 27.517010
_cell_length_b 24.284103
_cell_length_c 8.919785
_cell_angle_alpha 90.000000
_cell_angle_beta 90.000000
_cell_angle_gamma 90.000000
_cell_volume 5960.431405
_symmetry_space_group_name_H-M "C M C M"
_symmetry_group_IT_number 63
_symmetry_cell_setting 'orthorhombic'
loop_
_space_group_symop_operation_xyz
x,y,z
-x,-y,1/2+z
x,-y,-z
-x,y,1/2-z
-x,-y,-z
x,y,1/2-z
-x,y,z
x,-y,1/2+z
1/2+x,1/2+y,z
1/2-x,1/2-y,1/2+z
1/2+x,1/2-y,-z
1/2-x,1/2+y,1/2-z
1/2-x,1/2-y,-z
1/2+x,1/2+y,1/2-z
1/2-x,1/2+y,z
1/2+x,1/2-y,1/2+z
loop_
_atom_site_type_symbol
_atom_site_label
_atom_site_fract_x
_atom_site_fract_y
_atom_site_fract_z
Si Si1 0.831240 0.844715 0.924279
Si Si2 0.402952 0.559201 0.427564
Si Si3 0.557872 0.946250 0.918195
Si Si4 0.444087 0.164119 0.574674
Si Si5 0.632986 0.234271 0.074102
Si Si6 0.767570 0.695977 0.422636
Si Si7 0.000000 0.939463 0.430258
O O1 0.839847 0.830249 0.750000
O O2 0.857215 0.901924 0.965138
O O3 0.772604 0.851676 0.958436
O O4 0.853279 0.795538 0.022231
O O5 0.391742 0.500000 0.500000
O O6 0.411600 0.552407 0.250000
O O7 0.450626 0.587723 0.504321
O O8 0.578326 0.945128 0.750000
O O9 0.500000 0.948734 0.919993
O O10 0.576339 0.891801 0.001623
O O11 0.579449 0.000000 0.000000
O O12 0.436400 0.158904 0.750000
O O13 0.500000 0.173601 0.531791
O O14 0.415336 0.216275 0.511620
O O15 0.622014 0.235505 0.250000
O O16 0.675580 0.188861 0.032443
O O17 0.766751 0.710144 0.250000
O O18 0.750000 0.750000 0.500000
O O19 0.000000 0.939089 0.250000
O O20 0.000000 0.000000 0.500000
#
# Coordination Sequence:
#
# PCOD8255997 Si02
#       7
#    16  16  16  16  16  16   8
#     4   9  18  33  52  73  97 126 161 199 244 299
#     4  10  19  32  51  73  98 130 165 205 248 295
#     4   9  16  27  45  68  92 119 155 197 235 274
#     4  10  20  33  48  67  96 133 167 199 239 289
#     4  10  19  31  50  74  99 127 161 204 250 294
#     4   8  15  29  49  72  94 118 151 192 237 284
#     4  10  18  30  48  68  94 126 162 202 241 286
#
# _framework density 17.448402000000002
#
# number of rings (size 3 to 8) (size 9 to 14) (size 15 to 20)
#    0.000    2.615    0.000    3.462    0.000    4.615 
#    1.385    0.000    0.000    0.923    0.000    2.154 
#    0.000    0.000    0.000    0.000    0.000    0.000 
#
# Total GULP energy -644215.517688 kJ/mol
# GULP energy per Si atom -12388.759956 kJ/mol
# Density = 1.740869 g / cm^3
# Si number density = 17.448402 Si / 1000 Ang^3
#
#
#
# Elastic Constant Matrix: (Units=GPa)
#
#
# Indices 1 2 3 4 5 6 
#
# 1 91.2280 47.7975 47.7843 0.0000 0.0000 0.0000
# 2 47.7975 68.8417 33.0523 0.0000 0.0000 0.0000
# 3 47.7843 33.0523 85.8945 0.0000 0.0000 0.0000
# 4 0.0000 0.0000 0.0000 28.6328 0.0000 0.0000
# 5 0.0000 0.0000 0.0000 0.0000 19.5158 0.0000
# 6 0.0000 0.0000 0.0000 0.0000 0.0000 28.7245
#
#
#
# Elastic Compliance Matrix: (Units=1/GPa)
#
#
# Indices 1 2 3 4 5 6 
#
# 1 0.020311 -0.010644 -0.007204 0.000000 0.000000 0.000000
# 2 -0.010644 0.023396 -0.003081 0.000000 0.000000 0.000000
# 3 -0.007204 -0.003081 0.016835 0.000000 0.000000 0.000000
# 4 0.000000 0.000000 0.000000 0.034925 0.000000 0.000000
# 5 0.000000 0.000000 0.000000 0.000000 0.051241 0.000000
# 6 0.000000 0.000000 0.000000 0.000000 0.000000 0.034813
#
#
# Mechanical properties :
#
#
# Convention : Reuss Voigt Hill
#
# Bulk Modulus (GPa) = 53.51990 55.91468 54.71729
# Shear Modulus (GPa) = 21.77628 23.19663 22.48645
#
# Velocity S-wave (km/s) = 3.53659 3.65011 3.59380
# Velocity P-wave (km/s) = 6.88596 7.06255 6.97482
#
# Compressibility (1/GPa) = 0.01868464
#
# Stress axis : x y z
#
# Youngs Moduli (GPa) = 49.23330 42.74312 59.39841
#
# Poissons Ratio (x) = 0.45495 0.42789
# Poissons Ratio (y) = 0.52403 0.18303
# Poissons Ratio (z) = 0.35467 0.13171
#
# Static dielectric constant tensor:
#      x y z
#    x 3.822110 0.000000 0.000000 
#    y 0.000000 3.019910 0.000000 
#    z 0.000000 0.000000 3.366500 
# 
# 
# High freq. dielectric constant tensor:
#      x y z
#    x 1.667030 0.000000 0.000000 
#    y 0.000000 1.641740 0.000000 
#    z 0.000000 0.000000 1.689090 
# 
# From -- ./inp_files/13094.got.cif
#   From: 2010.03.12/outbox.cif.g09.slc.cpg/sg63_7_cif.got.tgz:13094.got - 2010.04.10 19:34:48.
