data_PCOD8255484
_publ_section_title
;
Structure prediction by ZEFSAII (Michael W. Deem and Ramdas Pophale) SiO2 
 PCOD8255484
Probable space group: C M C M
;
_chemical_formula_sum "Si O2"
_cell_formula_units_Z 96
_cell_length_a 16.677359
_cell_length_b 17.501606
_cell_length_c 18.209664
_cell_angle_alpha 90.000000
_cell_angle_beta 90.000000
_cell_angle_gamma 90.000000
_cell_volume 5315.047041
_symmetry_space_group_name_H-M "C M C M"
_symmetry_group_IT_number 63
_symmetry_cell_setting 'orthorhombic'
loop_
_space_group_symop_operation_xyz
x,y,z
-x,-y,1/2+z
x,-y,-z
-x,y,1/2-z
-x,-y,-z
x,y,1/2-z
-x,y,z
x,-y,1/2+z
1/2+x,1/2+y,z
1/2-x,1/2-y,1/2+z
1/2+x,1/2-y,-z
1/2-x,1/2+y,1/2-z
1/2-x,1/2-y,-z
1/2+x,1/2+y,1/2-z
1/2-x,1/2+y,z
1/2+x,1/2-y,1/2+z
loop_
_atom_site_type_symbol
_atom_site_label
_atom_site_fract_x
_atom_site_fract_y
_atom_site_fract_z
Si Si1 0.595580 0.992716 0.250000
Si Si2 0.590305 0.277443 0.330475
Si Si3 0.406980 0.795277 0.409154
Si Si4 0.590042 0.109504 0.131824
Si Si5 0.593554 0.822576 0.250000
Si Si6 0.808697 0.410227 0.004306
Si Si7 0.176446 0.195006 0.981064
O O1 0.500000 0.996646 0.250000
O O2 0.632595 0.907766 0.250000
O O3 0.625409 0.038567 0.178085
O O4 0.618704 0.309595 0.250000
O O5 0.500000 0.306682 0.347466
O O6 0.589551 0.186292 0.320806
O O7 0.647421 0.304075 0.396776
O O8 0.500000 0.817452 0.416443
O O9 0.383539 0.775876 0.324015
O O10 0.354671 0.870764 0.427449
O O11 0.391901 0.720927 0.460951
O O12 0.500000 0.091393 0.102847
O O13 0.648960 0.128025 0.065283
O O14 0.500000 0.838632 0.250000
O O15 0.713349 0.389785 0.005292
O O16 0.821629 0.500000 0.000000
O O17 0.250000 0.250000 0.000000
#
# Coordination Sequence:
#
# PCOD8255484 Si02
#       7
#     8  16  16  16   8  16  16
#     4   9  16  26  41  70 112 139 163 211 258 306
#     4  10  18  32  56  80 100 131 180 230 267 302
#     4  10  19  34  55  76 103 139 181 221 255 304
#     4  10  17  27  48  74 101 136 173 211 256 306
#     4   9  18  30  45  72 104 137 173 207 252 306
#     4  11  22  34  48  72 107 141 171 209 263 324
#     4  10  20  35  50  77 107 140 174 215 265 321
#
# _framework density 18.06193
#
# number of rings (size 3 to 8) (size 9 to 14) (size 15 to 20)
#    0.000    2.000    4.167    2.000    0.000    2.667 
#    6.000    0.833    0.000    2.000    0.000    0.000 
#    0.000    0.000    0.000    0.000    0.000    0.000 
#
# Total GULP energy -594629.460302 kJ/mol
# GULP energy per Si atom -12388.113756 kJ/mol
# Density = 1.802082 g / cm^3
# Si number density = 18.061930 Si / 1000 Ang^3
#
#
#
# Elastic Constant Matrix: (Units=GPa)
#
#
# Indices 1 2 3 4 5 6 
#
# 1 67.2188 29.3641 51.6848 0.0000 0.0000 0.0000
# 2 29.3641 37.4532 24.1883 0.0000 0.0000 0.0000
# 3 51.6848 24.1883 153.7139 0.0000 0.0000 0.0000
# 4 0.0000 0.0000 0.0000 16.5733 0.0000 0.0000
# 5 0.0000 0.0000 0.0000 0.0000 14.8035 0.0000
# 6 0.0000 0.0000 0.0000 0.0000 0.0000 21.4157
#
#
#
# Elastic Compliance Matrix: (Units=1/GPa)
#
#
# Indices 1 2 3 4 5 6 
#
# 1 0.027440 -0.017314 -0.006502 0.000000 0.000000 0.000000
# 2 -0.017314 0.040646 -0.000574 0.000000 0.000000 0.000000
# 3 -0.006502 -0.000574 0.008782 0.000000 0.000000 0.000000
# 4 0.000000 0.000000 0.000000 0.060338 0.000000 0.000000
# 5 0.000000 0.000000 0.000000 0.000000 0.067552 0.000000
# 6 0.000000 0.000000 0.000000 0.000000 0.000000 0.046695
#
#
# Mechanical properties :
#
#
# Convention : Reuss Voigt Hill
#
# Bulk Modulus (GPa) = 35.60380 52.09559 43.84969
# Shear Modulus (GPa) = 16.15017 20.76840 18.45929
#
# Velocity S-wave (km/s) = 2.99349 3.39461 3.20034
# Velocity P-wave (km/s) = 5.63052 6.65356 6.16331
#
# Compressibility (1/GPa) = 0.02808689
#
# Stress axis : x y z
#
# Youngs Moduli (GPa) = 36.44367 24.60296 113.86793
#
# Poissons Ratio (x) = 0.42598 0.74034
# Poissons Ratio (y) = 0.63099 0.06538
# Poissons Ratio (z) = 0.23695 0.01413
#
# Static dielectric constant tensor:
#      x y z
#    x 3.418600 0.000000 0.000000 
#    y 0.000000 3.239480 0.000000 
#    z 0.000000 0.000000 3.622740 
# 
# 
# High freq. dielectric constant tensor:
#      x y z
#    x 1.673110 0.000000 0.000000 
#    y 0.000000 1.655370 0.000000 
#    z 0.000000 0.000000 1.717840 
# 
# From -- ./inp_files/45809.got.cif
#   From: 2010.03.12/outbox.cif.g09.slc.cpg/sg63_23_cif.got.tgz:45809.got - 2010.04.10 19:34:48.
