data_PCOD8255144
_publ_section_title
;
Structure prediction by ZEFSAII (Michael W. Deem and Ramdas Pophale) SiO2 
 PCOD8255144
Probable space group: P N M A
;
_chemical_formula_sum "Si O2"
_cell_formula_units_Z 48
_cell_length_a 18.822854
_cell_length_b 8.350548
_cell_length_c 14.927639
_cell_angle_alpha 90.000000
_cell_angle_beta 90.000000
_cell_angle_gamma 90.000000
_cell_volume 2346.343402
_symmetry_space_group_name_H-M "P N M A"
_symmetry_group_IT_number 62
_symmetry_cell_setting 'orthorhombic'
loop_
_space_group_symop_operation_xyz
x,y,z
1/2-x,-y,1/2+z
1/2+x,1/2-y,1/2-z
-x,1/2+y,-z
-x,-y,-z
1/2+x,y,1/2-z
1/2-x,1/2+y,1/2+z
x,1/2-y,z
loop_
_atom_site_type_symbol
_atom_site_label
_atom_site_fract_x
_atom_site_fract_y
_atom_site_fract_z
Si Si1 0.073953 0.064404 0.036667
Si Si2 0.923226 0.434835 0.284889
Si Si3 0.429308 0.435430 0.726752
Si Si4 0.077207 0.435415 0.523823
Si Si5 0.666862 0.934563 0.615913
Si Si6 0.320320 0.434949 0.879281
O O1 0.066079 0.250000 0.059717
O O2 0.095993 0.969679 0.126034
O O3 0.135751 0.039982 0.964472
O O4 0.000000 0.000000 0.000000
O O5 0.912382 0.250000 0.310524
O O6 0.907502 0.542381 0.371331
O O7 0.868309 0.491235 0.208825
O O8 0.002681 0.458033 0.249237
O O9 0.449621 0.250000 0.739248
O O10 0.366045 0.484648 0.792905
O O11 0.082052 0.250000 0.497900
O O12 0.135352 0.533741 0.468966
O O13 0.000000 0.500000 0.500000
O O14 0.648026 0.750000 0.597477
O O15 0.750811 0.956367 0.621359
O O16 0.297960 0.250000 0.875766
#
# Coordination Sequence:
#
# PCOD8255144 Si02
#       6
#     8   8   8   8   8   8
#     4  12  24  40  66  96 130 170 217 268 321 383
#     4  11  23  40  66  96 129 169 218 265 319 383
#     4  11  23  40  66  96 129 169 218 265 319 383
#     4  12  24  40  66  96 130 170 217 268 321 383
#     4  11  25  44  66  95 131 170 213 266 326 386
#     4  11  25  44  66  95 131 170 213 266 326 386
#
# _framework density 20.457363999999998
#
# number of rings (size 3 to 8) (size 9 to 14) (size 15 to 20)
#    0.000    0.667    3.333    5.000    0.000    5.333 
#    0.000    3.333    0.000    0.000    0.000    0.000 
#    0.000    0.000    0.000    0.000    0.000    0.000 
#
# Total GULP energy -595648.027309 kJ/mol
# GULP energy per Si atom -12409.333902 kJ/mol
# Density = 2.041080 g / cm^3
# Si number density = 20.457364 Si / 1000 Ang^3
#
#
#
# Elastic Constant Matrix: (Units=GPa)
#
#
# Indices 1 2 3 4 5 6 
#
# 1 122.4928 10.8504 52.7890 0.0000 0.0000 0.0000
# 2 10.8504 56.3492 13.9279 0.0000 0.0000 0.0000
# 3 52.7890 13.9279 145.3767 0.0000 0.0000 0.0000
# 4 0.0000 0.0000 0.0000 34.1693 0.0000 0.0000
# 5 0.0000 0.0000 0.0000 0.0000 35.0018 0.0000
# 6 0.0000 0.0000 0.0000 0.0000 0.0000 32.5017
#
#
#
# Elastic Compliance Matrix: (Units=1/GPa)
#
#
# Indices 1 2 3 4 5 6 
#
# 1 0.009736 -0.001025 -0.003437 0.000000 0.000000 0.000000
# 2 -0.001025 0.018285 -0.001380 0.000000 0.000000 0.000000
# 3 -0.003437 -0.001380 0.008259 0.000000 0.000000 0.000000
# 4 0.000000 0.000000 0.000000 0.029266 0.000000 0.000000
# 5 0.000000 0.000000 0.000000 0.000000 0.028570 0.000000
# 6 0.000000 0.000000 0.000000 0.000000 0.000000 0.030768
#
#
# Mechanical properties :
#
#
# Convention : Reuss Voigt Hill
#
# Bulk Modulus (GPa) = 40.65688 53.26148 46.95918
# Shear Modulus (GPa) = 34.53867 36.77798 35.65833
#
# Velocity S-wave (km/s) = 4.11338 4.24463 4.17952
# Velocity P-wave (km/s) = 6.51744 7.07915 6.80409
#
# Compressibility (1/GPa) = 0.02459608
#
# Stress axis : x y z
#
# Youngs Moduli (GPa) = 102.71410 54.69006 121.08148
#
# Poissons Ratio (x) = 0.05607 0.41616
# Poissons Ratio (y) = 0.10530 0.16704
# Poissons Ratio (z) = 0.35303 0.07545
#
# Static dielectric constant tensor:
#      x y z
#    x 3.519460 0.000000 0.000000 
#    y 0.000000 3.828340 0.000000 
#    z 0.000000 0.000000 3.942970 
# 
# 
# High freq. dielectric constant tensor:
#      x y z
#    x 1.793130 0.000000 0.000000 
#    y 0.000000 1.810750 0.000000 
#    z 0.000000 0.000000 1.815790 
# 
# From -- ./inp_files/19621.got.cif
#   From: 2010.03.12/outbox.cif.g09.slc.cpg/sg62_10_cif.got.tgz:19621.got - 2010.04.10 19:12:36.
