data_PCOD8255577
_publ_section_title
;
Structure prediction by ZEFSAII (Michael W. Deem and Ramdas Pophale) SiO2 
 PCOD8255577
Probable space group: C M C M
;
_chemical_formula_sum "Si O2"
_cell_formula_units_Z 96
_cell_length_a 20.458160
_cell_length_b 14.648037
_cell_length_c 17.845024
_cell_angle_alpha 90.000000
_cell_angle_beta 90.000000
_cell_angle_gamma 90.000000
_cell_volume 5347.651973
_symmetry_space_group_name_H-M "C M C M"
_symmetry_group_IT_number 63
_symmetry_cell_setting 'orthorhombic'
loop_
_space_group_symop_operation_xyz
x,y,z
-x,-y,1/2+z
x,-y,-z
-x,y,1/2-z
-x,-y,-z
x,y,1/2-z
-x,y,z
x,-y,1/2+z
1/2+x,1/2+y,z
1/2-x,1/2-y,1/2+z
1/2+x,1/2-y,-z
1/2-x,1/2+y,1/2-z
1/2-x,1/2-y,-z
1/2+x,1/2+y,1/2-z
1/2-x,1/2+y,z
1/2+x,1/2-y,1/2+z
loop_
_atom_site_type_symbol
_atom_site_label
_atom_site_fract_x
_atom_site_fract_y
_atom_site_fract_z
Si Si1 0.572203 0.131022 0.660913
Si Si2 0.924868 0.006649 0.914192
Si Si3 0.229532 0.316871 0.661090
Si Si4 0.622468 0.673987 0.338932
Si Si5 0.310031 0.988319 0.339098
Si Si6 0.183467 0.877683 0.160889
O O1 0.575499 0.127573 0.750000
O O2 0.500000 0.102957 0.632176
O O3 0.587477 0.233502 0.634461
O O4 0.625660 0.060869 0.627194
O O5 0.915533 0.909386 0.875374
O O6 0.882646 0.084801 0.874564
O O7 0.000000 0.036803 0.906807
O O8 0.902948 0.000000 0.000000
O O9 0.232709 0.313042 0.750000
O O10 0.303410 0.322483 0.630940
O O11 0.190499 0.406625 0.633283
O O12 0.193614 0.225980 0.631749
O O13 0.620116 0.661242 0.250000
O O14 0.311517 0.982928 0.250000
O O15 0.244826 0.937587 0.367441
O O16 0.177099 0.882509 0.250000
#
# Coordination Sequence:
#
# PCOD8255577 Si02
#       6
#    16  16  16  16  16  16
#     4   9  16  25  42  72 103 127 156 201 257 306
#     4  11  24  38  50  71 106 141 173 215 265 309
#     4   9  16  27  49  80 104 126 164 211 254 296
#     4  10  17  30  54  79  99 124 167 218 259 302
#     4   9  15  26  46  72 105 134 159 201 252 299
#     4  10  18  32  55  77 101 134 172 211 252 306
#
# _framework density 17.951803999999999
#
# number of rings (size 3 to 8) (size 9 to 14) (size 15 to 20)
#    0.000    2.333    3.333    1.000    0.000    2.000 
#    0.000    1.667    0.000    3.000    0.000    0.000 
#    0.000    4.667    0.000    0.000    0.000    0.000 
#
# Total GULP energy -595098.121654 kJ/mol
# GULP energy per Si atom -12397.877534 kJ/mol
# Density = 1.791094 g / cm^3
# Si number density = 17.951804 Si / 1000 Ang^3
#
#
#
# Elastic Constant Matrix: (Units=GPa)
#
#
# Indices 1 2 3 4 5 6 
#
# 1 122.2689 67.0317 23.7218 0.0000 0.0000 0.0000
# 2 67.0317 152.1442 23.5340 0.0000 0.0000 0.0000
# 3 23.7218 23.5340 27.4856 0.0000 0.0000 0.0000
# 4 0.0000 0.0000 0.0000 2.7558 0.0000 0.0000
# 5 0.0000 0.0000 0.0000 0.0000 9.8120 0.0000
# 6 0.0000 0.0000 0.0000 0.0000 0.0000 34.0478
#
#
#
# Elastic Compliance Matrix: (Units=1/GPa)
#
#
# Indices 1 2 3 4 5 6 
#
# 1 0.011729 -0.004152 -0.006568 0.000000 0.000000 0.000000
# 2 -0.004152 0.009046 -0.004162 0.000000 0.000000 0.000000
# 3 -0.006568 -0.004162 0.045615 0.000000 0.000000 0.000000
# 4 0.000000 0.000000 0.000000 0.362874 0.000000 0.000000
# 5 0.000000 0.000000 0.000000 0.000000 0.101916 0.000000
# 6 0.000000 0.000000 0.000000 0.000000 0.000000 0.029371
#
#
# Mechanical properties :
#
#
# Convention : Reuss Voigt Hill
#
# Bulk Modulus (GPa) = 27.30287 58.94153 43.12220
# Shear Modulus (GPa) = 8.29845 21.83052 15.06448
#
# Velocity S-wave (km/s) = 2.15236 3.49099 2.89997
# Velocity P-wave (km/s) = 4.62805 7.01098 5.94023
#
# Compressibility (1/GPa) = 0.03662619
#
# Stress axis : x y z
#
# Youngs Moduli (GPa) = 85.25829 110.55071 21.92251
#
# Poissons Ratio (x) = 0.45896 0.14399
# Poissons Ratio (y) = 0.35396 0.09124
# Poissons Ratio (z) = 0.55999 0.46012
#
# Static dielectric constant tensor:
#      x y z
#    x 3.468820 0.000000 0.000000 
#    y 0.000000 3.574230 0.000000 
#    z 0.000000 0.000000 2.757130 
# 
# 
# High freq. dielectric constant tensor:
#      x y z
#    x 1.699020 0.000000 0.000000 
#    y 0.000000 1.706380 0.000000 
#    z 0.000000 0.000000 1.632100 
# 
# From -- ./inp_files/35374.got.cif
#   From: 2010.03.12/outbox.cif.g09.slc.cpg/sg63_18_cif.got.tgz:35374.got - 2010.04.10 19:34:48.
