data_PCOD8255332
_publ_section_title
;
Structure prediction by ZEFSAII (Michael W. Deem and Ramdas Pophale) SiO2 
 PCOD8255332
Probable space group: C M C M
;
_chemical_formula_sum "Si O2"
_cell_formula_units_Z 128
_cell_length_a 19.113072
_cell_length_b 20.080018
_cell_length_c 22.710077
_cell_angle_alpha 90.000000
_cell_angle_beta 90.000000
_cell_angle_gamma 90.000000
_cell_volume 8715.919297
_symmetry_space_group_name_H-M "C M C M"
_symmetry_group_IT_number 63
_symmetry_cell_setting 'orthorhombic'
loop_
_space_group_symop_operation_xyz
x,y,z
-x,-y,1/2+z
x,-y,-z
-x,y,1/2-z
-x,-y,-z
x,y,1/2-z
-x,y,z
x,-y,1/2+z
1/2+x,1/2+y,z
1/2-x,1/2-y,1/2+z
1/2+x,1/2-y,-z
1/2-x,1/2+y,1/2-z
1/2-x,1/2-y,-z
1/2+x,1/2+y,1/2-z
1/2-x,1/2+y,z
1/2+x,1/2-y,1/2+z
loop_
_atom_site_type_symbol
_atom_site_label
_atom_site_fract_x
_atom_site_fract_y
_atom_site_fract_z
Si Si1 0.721713 0.838883 0.062250
Si Si2 0.075870 0.252956 0.956342
Si Si3 0.919350 0.111324 0.506139
Si Si4 0.718645 0.199553 0.071960
Si Si5 0.420353 0.686802 0.316572
Si Si6 0.172358 0.896864 0.890424
Si Si7 0.922615 0.298767 0.087890
Si Si8 0.693958 0.468744 0.059178
O O1 0.749413 0.770747 0.091809
O O2 0.640914 0.851812 0.082432
O O3 0.762908 0.904951 0.081883
O O4 0.734972 0.824935 0.993815
O O5 0.087709 0.174090 0.949408
O O6 0.134197 0.295611 0.921629
O O7 0.000000 0.275609 0.931736
O O8 0.078415 0.259227 0.026872
O O9 0.873339 0.122794 0.447652
O O10 0.886029 0.050675 0.543036
O O11 0.000000 0.096557 0.489774
O O12 0.754124 0.143659 0.112609
O O13 0.403455 0.709088 0.250000
O O14 0.500000 0.663100 0.323158
O O15 0.372145 0.623629 0.333293
O O16 0.405286 0.749032 0.358970
O O17 0.190552 0.975505 0.889674
O O18 0.000000 0.332096 0.097176
O O19 0.729838 0.500000 0.000000
#
# Coordination Sequence:
#
# PCOD8255332 Si02
#       8
#    16  16  16  16  16  16  16  16
#     4  10  15  26  41  59  85 113 144 167 200 250
#     4   9  15  23  39  61  86 110 139 166 199 247
#     4  10  16  24  36  55  84 113 137 165 196 240
#     4  10  15  24  42  59  81 116 142 166 203 247
#     4  10  19  30  44  63  85 109 141 178 215 255
#     4  11  18  28  40  60  84 113 142 174 206 249
#     4   9  16  26  43  62  81 108 141 177 212 248
#     4  10  19  26  36  60  87 114 142 165 201 247
#
# _framework density 14.685771000000001
#
# number of rings (size 3 to 8) (size 9 to 14) (size 15 to 20)
#    0.000    2.125    6.250    1.125    0.000    2.750 
#    0.000    0.000    0.000    1.875    0.000    0.000 
#    0.000    0.500    0.000    0.000    0.000    0.000 
#
# Total GULP energy -792863.894787 kJ/mol
# GULP energy per Si atom -12388.498356 kJ/mol
# Density = 1.465235 g / cm^3
# Si number density = 14.685771 Si / 1000 Ang^3
#
#
#
# Elastic Constant Matrix: (Units=GPa)
#
#
# Indices 1 2 3 4 5 6 
#
# 1 112.4725 49.3993 23.3554 0.0000 0.0000 0.0000
# 2 49.3993 73.1452 13.9213 0.0000 0.0000 0.0000
# 3 23.3554 13.9213 31.5888 0.0000 0.0000 0.0000
# 4 0.0000 0.0000 0.0000 8.8195 0.0000 0.0000
# 5 0.0000 0.0000 0.0000 0.0000 12.0816 0.0000
# 6 0.0000 0.0000 0.0000 0.0000 0.0000 23.6613
#
#
#
# Elastic Compliance Matrix: (Units=1/GPa)
#
#
# Indices 1 2 3 4 5 6 
#
# 1 0.013816 -0.008063 -0.006661 0.000000 0.000000 0.000000
# 2 -0.008063 0.019628 -0.002689 0.000000 0.000000 0.000000
# 3 -0.006661 -0.002689 0.037767 0.000000 0.000000 0.000000
# 4 0.000000 0.000000 0.000000 0.113386 0.000000 0.000000
# 5 0.000000 0.000000 0.000000 0.000000 0.082771 0.000000
# 6 0.000000 0.000000 0.000000 0.000000 0.000000 0.042263
#
#
# Mechanical properties :
#
#
# Convention : Reuss Voigt Hill
#
# Bulk Modulus (GPa) = 27.48411 43.39538 35.43975
# Shear Modulus (GPa) = 14.02191 17.61449 15.81820
#
# Velocity S-wave (km/s) = 3.09333 3.46703 3.28550
# Velocity P-wave (km/s) = 5.61370 6.75577 6.21104
#
# Compressibility (1/GPa) = 0.03638465
#
# Stress axis : x y z
#
# Youngs Moduli (GPa) = 72.38229 50.94651 26.47813
#
# Poissons Ratio (x) = 0.41076 0.17638
# Poissons Ratio (y) = 0.58359 0.07120
# Poissons Ratio (z) = 0.48216 0.13700
#
# Static dielectric constant tensor:
#      x y z
#    x 3.152950 0.000000 0.000000 
#    y 0.000000 2.764290 0.000000 
#    z 0.000000 0.000000 2.409170 
# 
# 
# High freq. dielectric constant tensor:
#      x y z
#    x 1.575250 0.000000 0.000000 
#    y 0.000000 1.544140 0.000000 
#    z 0.000000 0.000000 1.491590 
# 
# From -- ./inp_files/56982.got.cif
#   From: 2010.03.12/outbox.cif.g09.slc.cpg/sg63_29_cif.got.tgz:56982.got - 2010.04.10 19:34:48.
