data_PCOD8255220
_publ_section_title
;
Structure prediction by ZEFSAII (Michael W. Deem and Ramdas Pophale) SiO2 
 PCOD8255220
Probable space group: P N M A
;
_chemical_formula_sum "Si O2"
_cell_formula_units_Z 24
_cell_length_a 13.877725
_cell_length_b 13.282219
_cell_length_c 4.878648
_cell_angle_alpha 90.000000
_cell_angle_beta 90.000000
_cell_angle_gamma 90.000000
_cell_volume 899.266465
_symmetry_space_group_name_H-M "P N M A"
_symmetry_group_IT_number 62
_symmetry_cell_setting 'orthorhombic'
loop_
_space_group_symop_operation_xyz
x,y,z
1/2-x,-y,1/2+z
1/2+x,1/2-y,1/2-z
-x,1/2+y,-z
-x,-y,-z
1/2+x,y,1/2-z
1/2-x,1/2+y,1/2+z
x,1/2-y,z
loop_
_atom_site_type_symbol
_atom_site_label
_atom_site_fract_x
_atom_site_fract_y
_atom_site_fract_z
Si Si1 0.857178 0.047702 0.054035
Si Si2 0.839511 0.864794 0.691740
Si Si3 0.455794 0.363522 0.947042
O O1 0.933895 0.107373 0.865587
O O2 0.852324 0.931007 0.966847
O O3 0.751721 0.096457 0.016474
O O4 0.894693 0.059616 0.364353
O O5 0.824510 0.750000 0.789321
O O6 0.931097 0.875519 0.494226
O O7 0.421399 0.250000 0.008404
#
# Coordination Sequence:
#
# PCOD8255220 Si02
#       3
#     8   8   8
#     4  12  25  47  73 104 144 185 234 290 349 417
#     4  11  26  47  73 105 142 187 237 290 352 418
#     4  11  25  46  74 107 143 184 232 288 351 419
#
# _framework density 26.688419
#
# number of rings (size 3 to 8) (size 9 to 14) (size 15 to 20)
#    0.000    0.667    0.000    7.000    0.000    5.333 
#    0.000   21.667    0.000    2.000    0.000    0.000 
#    0.000    0.000    0.000    0.000    0.000    0.000 
#
# Total GULP energy -297828.205218 kJ/mol
# GULP energy per Si atom -12409.508551 kJ/mol
# Density = 2.662768 g / cm^3
# Si number density = 26.688419 Si / 1000 Ang^3
#
#
#
# Elastic Constant Matrix: (Units=GPa)
#
#
# Indices 1 2 3 4 5 6 
#
# 1 124.1304 31.4785 4.1183 0.0000 0.0000 0.0000
# 2 31.4785 207.2659 12.8682 0.0000 0.0000 0.0000
# 3 4.1183 12.8682 68.7054 0.0000 0.0000 0.0000
# 4 0.0000 0.0000 0.0000 22.8874 0.0000 0.0000
# 5 0.0000 0.0000 0.0000 0.0000 35.7709 0.0000
# 6 0.0000 0.0000 0.0000 0.0000 0.0000 35.1633
#
#
#
# Elastic Compliance Matrix: (Units=1/GPa)
#
#
# Indices 1 2 3 4 5 6 
#
# 1 0.008384 -0.001257 -0.000267 0.000000 0.000000 0.000000
# 2 -0.001257 0.005070 -0.000874 0.000000 0.000000 0.000000
# 3 -0.000267 -0.000874 0.014735 0.000000 0.000000 0.000000
# 4 0.000000 0.000000 0.000000 0.043692 0.000000 0.000000
# 5 0.000000 0.000000 0.000000 0.000000 0.027956 0.000000
# 6 0.000000 0.000000 0.000000 0.000000 0.000000 0.028439
#
#
# Mechanical properties :
#
#
# Convention : Reuss Voigt Hill
#
# Bulk Modulus (GPa) = 42.74970 55.22575 48.98772
# Shear Modulus (GPa) = 35.49419 42.20676 38.85047
#
# Velocity S-wave (km/s) = 3.65080 3.98108 3.81951
# Velocity P-wave (km/s) = 5.81584 6.47068 6.15198
#
# Compressibility (1/GPa) = 0.02339198
#
# Stress axis : x y z
#
# Youngs Moduli (GPa) = 119.28063 197.24435 67.86724
#
# Poissons Ratio (x) = 0.24787 0.01813
# Poissons Ratio (y) = 0.14990 0.05933
# Poissons Ratio (z) = 0.03187 0.17244
#
# Static dielectric constant tensor:
#      x y z
#    x 5.100570 0.000000 0.000000 
#    y 0.000000 5.269330 0.000000 
#    z 0.000000 0.000000 4.279310 
# 
# 
# High freq. dielectric constant tensor:
#      x y z
#    x 2.093040 0.000000 0.000000 
#    y 0.000000 2.093790 0.000000 
#    z 0.000000 0.000000 2.058360 
# 
# From -- ./inp_files/796.got.cif
#   From: 2010.03.12/outbox.cif.g09.slc.cpg/sg62_1_cif.got.tgz:796.got - 2010.04.10 19:12:36.
