data_PCOD8255137
_publ_section_title
;
Structure prediction by ZEFSAII (Michael W. Deem and Ramdas Pophale) SiO2 
 PCOD8255137
Probable space group: P N M A
;
_chemical_formula_sum "Si O2"
_cell_formula_units_Z 40
_cell_length_a 11.542017
_cell_length_b 8.763801
_cell_length_c 20.363720
_cell_angle_alpha 90.000000
_cell_angle_beta 90.000000
_cell_angle_gamma 90.000000
_cell_volume 2059.829786
_symmetry_space_group_name_H-M "P N M A"
_symmetry_group_IT_number 62
_symmetry_cell_setting 'orthorhombic'
loop_
_space_group_symop_operation_xyz
x,y,z
1/2-x,-y,1/2+z
1/2+x,1/2-y,1/2-z
-x,1/2+y,-z
-x,-y,-z
1/2+x,y,1/2-z
1/2-x,1/2+y,1/2+z
x,1/2-y,z
loop_
_atom_site_type_symbol
_atom_site_label
_atom_site_fract_x
_atom_site_fract_y
_atom_site_fract_z
Si Si1 0.377534 0.929934 0.982367
Si Si2 0.175650 0.570006 0.219503
Si Si3 0.250437 0.929414 0.364606
Si Si4 0.489194 0.422780 0.356186
Si Si5 0.229123 0.077269 0.093056
O O1 0.387899 0.750000 0.981780
O O2 0.281258 0.978987 0.034708
O O3 0.500000 0.000000 0.000000
O O4 0.341618 0.987780 0.910769
O O5 0.172040 0.750000 0.210537
O O6 0.221842 0.522052 0.290422
O O7 0.045472 0.502606 0.208763
O O8 0.261402 0.497418 0.164092
O O9 0.240488 0.750000 0.376204
O O10 0.379661 0.983377 0.381968
O O11 0.452084 0.250000 0.339072
O O12 0.588338 0.424462 0.413123
O O13 0.277452 0.250000 0.089939
#
# Coordination Sequence:
#
# PCOD8255137 Si02
#       5
#     8   8   8   8   8
#     4  12  26  43  64  89 123 164 207 255 310 370
#     4   9  19  37  60  89 122 161 202 249 306 360
#     4  11  23  39  63  93 127 162 206 256 305 367
#     4   9  20  37  61  90 120 158 203 251 304 359
#     4   9  20  40  63  89 121 159 203 250 304 364
#
# _framework density 19.419080999999998
#
# number of rings (size 3 to 8) (size 9 to 14) (size 15 to 20)
#    1.200    0.800    0.000    3.600    0.000    5.600 
#    0.000    2.000    0.000    0.000    0.000    0.000 
#    0.000    0.000    0.000    0.000    0.000    0.000 
#
# Total GULP energy -495810.838827 kJ/mol
# GULP energy per Si atom -12395.270971 kJ/mol
# Density = 1.937488 g / cm^3
# Si number density = 19.419081 Si / 1000 Ang^3
#
#
#
# Elastic Constant Matrix: (Units=GPa)
#
#
# Indices 1 2 3 4 5 6 
#
# 1 78.1868 30.3046 13.5687 0.0000 0.0000 0.0000
# 2 30.3046 134.1290 38.6614 0.0000 0.0000 0.0000
# 3 13.5687 38.6614 79.2739 0.0000 0.0000 0.0000
# 4 0.0000 0.0000 0.0000 34.1528 0.0000 0.0000
# 5 0.0000 0.0000 0.0000 0.0000 30.5499 0.0000
# 6 0.0000 0.0000 0.0000 0.0000 0.0000 33.7888
#
#
#
# Elastic Compliance Matrix: (Units=1/GPa)
#
#
# Indices 1 2 3 4 5 6 
#
# 1 0.014085 -0.002894 -0.000999 0.000000 0.000000 0.000000
# 2 -0.002894 0.009270 -0.004025 0.000000 0.000000 0.000000
# 3 -0.000999 -0.004025 0.014749 0.000000 0.000000 0.000000
# 4 0.000000 0.000000 0.000000 0.029280 0.000000 0.000000
# 5 0.000000 0.000000 0.000000 0.000000 0.032733 0.000000
# 6 0.000000 0.000000 0.000000 0.000000 0.000000 0.029596
#
#
# Mechanical properties :
#
#
# Convention : Reuss Voigt Hill
#
# Bulk Modulus (GPa) = 44.91245 50.73989 47.82617
# Shear Modulus (GPa) = 32.68563 33.63531 33.16047
#
# Velocity S-wave (km/s) = 4.10710 4.16634 4.13682
# Velocity P-wave (km/s) = 6.75790 7.02354 6.89200
#
# Compressibility (1/GPa) = 0.02226554
#
# Stress axis : x y z
#
# Youngs Moduli (GPa) = 70.99697 107.87823 67.80265
#
# Poissons Ratio (x) = 0.31223 0.06776
# Poissons Ratio (y) = 0.20549 0.27293
# Poissons Ratio (z) = 0.07095 0.43425
#
# Static dielectric constant tensor:
#      x y z
#    x 3.363380 0.000000 0.000000 
#    y 0.000000 3.646970 0.000000 
#    z 0.000000 0.000000 3.676890 
# 
# 
# High freq. dielectric constant tensor:
#      x y z
#    x 1.744570 0.000000 0.000000 
#    y 0.000000 1.775940 0.000000 
#    z 0.000000 0.000000 1.744830 
# 
# From -- ./inp_files/22800.got.cif
#   From: 2010.03.12/outbox.cif.g09.slc.cpg/sg62_12_cif.got.tgz:22800.got - 2010.04.10 19:12:36.
