data_PCOD8255881
_publ_section_title
;
Structure prediction by ZEFSAII (Michael W. Deem and Ramdas Pophale) SiO2 
 PCOD8255881
Probable space group: C M C M
;
_chemical_formula_sum "Si O2"
_cell_formula_units_Z 104
_cell_length_a 22.901864
_cell_length_b 13.576814
_cell_length_c 18.475938
_cell_angle_alpha 90.000000
_cell_angle_beta 90.000000
_cell_angle_gamma 90.000000
_cell_volume 5744.803732
_symmetry_space_group_name_H-M "C M C M"
_symmetry_group_IT_number 63
_symmetry_cell_setting 'orthorhombic'
loop_
_space_group_symop_operation_xyz
x,y,z
-x,-y,1/2+z
x,-y,-z
-x,y,1/2-z
-x,-y,-z
x,y,1/2-z
-x,y,z
x,-y,1/2+z
1/2+x,1/2+y,z
1/2-x,1/2-y,1/2+z
1/2+x,1/2-y,-z
1/2-x,1/2+y,1/2-z
1/2-x,1/2-y,-z
1/2+x,1/2+y,1/2-z
1/2-x,1/2+y,z
1/2+x,1/2-y,1/2+z
loop_
_atom_site_type_symbol
_atom_site_label
_atom_site_fract_x
_atom_site_fract_y
_atom_site_fract_z
Si Si1 0.935320 0.239389 0.539066
Si Si2 0.224826 0.231632 0.750000
Si Si3 0.606993 0.337045 0.901069
Si Si4 0.815086 0.722495 0.406564
Si Si5 0.935606 0.953039 0.124000
Si Si6 0.153194 0.954806 0.250000
Si Si7 0.150760 0.183082 0.250000
Si Si8 0.780835 0.885533 0.514284
O O1 0.924296 0.243546 0.452460
O O2 0.884591 0.297237 0.582114
O O3 0.929634 0.123853 0.558653
O O4 0.000000 0.281861 0.557772
O O5 0.197985 0.283243 0.821241
O O6 0.210087 0.114893 0.750000
O O7 0.294478 0.243617 0.750000
O O8 0.571026 0.437724 0.906754
O O9 0.609594 0.296438 0.819159
O O10 0.673489 0.352415 0.925153
O O11 0.793389 0.827413 0.439420
O O12 0.782442 0.637254 0.451773
O O13 0.885600 0.927476 0.180988
O O14 0.000000 0.943605 0.159818
O O15 0.172481 0.068848 0.250000
O O16 0.786314 0.000000 0.500000
#
# Coordination Sequence:
#
# PCOD8255881 Si02
#       8
#    16   8  16  16  16   8   8  16
#     4  10  19  32  49  71 101 136 176 214 254 304
#     4  12  20  35  51  74 109 142 174 216 261 321
#     4  10  18  31  48  72 103 137 170 209 258 308
#     4  10  21  34  52  78 103 140 175 216 262 314
#     4  10  18  29  46  71 101 139 175 202 244 309
#     4  10  21  32  48  70 106 144 170 208 261 301
#     4  10  22  33  47  74 105 140 173 216 260 316
#     4  10  20  34  54  76 106 135 175 217 265 313
#
# _framework density 18.103316
#
# number of rings (size 3 to 8) (size 9 to 14) (size 15 to 20)
#    0.000    1.846    3.077    3.000    2.154    1.231 
#    0.000    1.538    0.000    0.462    0.000    0.000 
#    0.000    0.000    0.000    0.000    0.000    0.000 
#
# Total GULP energy -644664.233201 kJ/mol
# GULP energy per Si atom -12397.389100 kJ/mol
# Density = 1.806211 g / cm^3
# Si number density = 18.103316 Si / 1000 Ang^3
#
#
#
# Elastic Constant Matrix: (Units=GPa)
#
#
# Indices 1 2 3 4 5 6 
#
# 1 105.8896 8.4884 23.8782 0.0000 0.0000 0.0000
# 2 8.4884 17.3468 3.9363 0.0000 0.0000 0.0000
# 3 23.8782 3.9363 112.1636 0.0000 0.0000 0.0000
# 4 0.0000 0.0000 0.0000 12.6368 0.0000 0.0000
# 5 0.0000 0.0000 0.0000 0.0000 13.8472 0.0000
# 6 0.0000 0.0000 0.0000 0.0000 0.0000 24.3193
#
#
#
# Elastic Compliance Matrix: (Units=1/GPa)
#
#
# Indices 1 2 3 4 5 6 
#
# 1 0.010266 -0.004564 -0.002025 0.000000 0.000000 0.000000
# 2 -0.004564 0.060139 -0.001139 0.000000 0.000000 0.000000
# 3 -0.002025 -0.001139 0.009387 0.000000 0.000000 0.000000
# 4 0.000000 0.000000 0.000000 0.079134 0.000000 0.000000
# 5 0.000000 0.000000 0.000000 0.000000 0.072217 0.000000
# 6 0.000000 0.000000 0.000000 0.000000 0.000000 0.041120
#
#
# Mechanical properties :
#
#
# Convention : Reuss Voigt Hill
#
# Bulk Modulus (GPa) = 15.54353 34.22287 24.88320
# Shear Modulus (GPa) = 16.17263 23.43381 19.80322
#
# Velocity S-wave (km/s) = 2.99214 3.60175 3.31100
# Velocity P-wave (km/s) = 4.53231 6.02013 5.32841
#
# Compressibility (1/GPa) = 0.06433545
#
# Stress axis : x y z
#
# Youngs Moduli (GPa) = 97.40513 16.62809 106.53373
#
# Poissons Ratio (x) = 0.07589 0.21577
# Poissons Ratio (y) = 0.44457 0.12133
# Poissons Ratio (z) = 0.19728 0.01894
#
# Static dielectric constant tensor:
#      x y z
#    x 3.522220 0.000000 0.000000 
#    y 0.000000 2.913100 0.000000 
#    z 0.000000 0.000000 3.489590 
# 
# 
# High freq. dielectric constant tensor:
#      x y z
#    x 1.705070 0.000000 0.000000 
#    y 0.000000 1.637970 0.000000 
#    z 0.000000 0.000000 1.716340 
# 
# From -- ./inp_files/48241.got.cif
#   From: 2010.03.12/outbox.cif.g09.slc.cpg/sg63_25_cif.got.tgz:48241.got - 2010.04.10 19:34:48.
