data_PCOD8255131
_publ_section_title
;
Structure prediction by ZEFSAII (Michael W. Deem and Ramdas Pophale) SiO2 
 PCOD8255131
Probable space group: P N M A
;
_chemical_formula_sum "Si O2"
_cell_formula_units_Z 48
_cell_length_a 10.005283
_cell_length_b 18.896394
_cell_length_c 14.023430
_cell_angle_alpha 90.000000
_cell_angle_beta 90.000000
_cell_angle_gamma 90.000000
_cell_volume 2651.322539
_symmetry_space_group_name_H-M "P N M A"
_symmetry_group_IT_number 62
_symmetry_cell_setting 'orthorhombic'
loop_
_space_group_symop_operation_xyz
x,y,z
1/2-x,-y,1/2+z
1/2+x,1/2-y,1/2-z
-x,1/2+y,-z
-x,-y,-z
1/2+x,y,1/2-z
1/2-x,1/2+y,1/2+z
x,1/2-y,z
loop_
_atom_site_type_symbol
_atom_site_label
_atom_site_fract_x
_atom_site_fract_y
_atom_site_fract_z
Si Si1 0.877827 0.039655 0.452931
Si Si2 0.353589 0.387961 0.757140
Si Si3 0.104438 0.483364 0.755483
Si Si4 0.970382 0.169591 0.554045
Si Si5 0.280794 0.330637 0.562001
Si Si6 0.129506 0.964513 0.956922
O O1 0.864937 0.026090 0.340819
O O2 0.901350 0.122993 0.471554
O O3 0.747959 0.014198 0.507711
O O4 0.000000 0.000000 0.500000
O O5 0.205707 0.418712 0.770729
O O6 0.454572 0.453397 0.745002
O O7 0.393454 0.340168 0.846518
O O8 0.352092 0.338409 0.664187
O O9 0.120873 0.537806 0.842571
O O10 0.958006 0.250000 0.520124
O O11 0.124944 0.147512 0.569431
O O12 0.297884 0.250000 0.526355
O O13 0.353098 0.383224 0.488577
O O14 0.000000 0.000000 0.000000
#
# Coordination Sequence:
#
# PCOD8255131 Si02
#       6
#     8   8   8   8   8   8
#     4  12  20  40  61  84 120 158 200 244 285 354
#     4  12  19  38  58  89 119 153 189 253 300 348
#     4  12  22  34  64  90 116 148 209 244 287 353
#     4  11  23  38  60  89 121 158 201 247 300 359
#     4  11  23  39  58  88 125 158 194 247 311 360
#     4  12  22  38  59  89 122 153 195 246 298 354
#
# _framework density 18.104171999999998
#
# number of rings (size 3 to 8) (size 9 to 14) (size 15 to 20)
#    0.000    0.333   10.000    0.500    0.000    0.000 
#    0.000    3.333    0.000    0.000    0.000    0.000 
#    0.000    0.000    0.000    0.000    0.000    0.000 
#
# Total GULP energy -595351.373796 kJ/mol
# GULP energy per Si atom -12403.153621 kJ/mol
# Density = 1.806297 g / cm^3
# Si number density = 18.104172 Si / 1000 Ang^3
#
#
#
# Elastic Constant Matrix: (Units=GPa)
#
#
# Indices 1 2 3 4 5 6 
#
# 1 80.2466 24.6460 16.5881 0.0000 0.0000 0.0000
# 2 24.6460 98.1544 30.3255 0.0000 0.0000 0.0000
# 3 16.5881 30.3255 107.7735 0.0000 0.0000 0.0000
# 4 0.0000 0.0000 0.0000 33.3718 0.0000 0.0000
# 5 0.0000 0.0000 0.0000 0.0000 25.1220 0.0000
# 6 0.0000 0.0000 0.0000 0.0000 0.0000 23.7394
#
#
#
# Elastic Compliance Matrix: (Units=1/GPa)
#
#
# Indices 1 2 3 4 5 6 
#
# 1 0.013654 -0.003044 -0.001245 0.000000 0.000000 0.000000
# 2 -0.003044 0.011837 -0.002862 0.000000 0.000000 0.000000
# 3 -0.001245 -0.002862 0.010276 0.000000 0.000000 0.000000
# 4 0.000000 0.000000 0.000000 0.029965 0.000000 0.000000
# 5 0.000000 0.000000 0.000000 0.000000 0.039806 0.000000
# 6 0.000000 0.000000 0.000000 0.000000 0.000000 0.042124
#
#
# Mechanical properties :
#
#
# Convention : Reuss Voigt Hill
#
# Bulk Modulus (GPa) = 46.58918 47.69930 47.14424
# Shear Modulus (GPa) = 29.56517 30.75429 30.15973
#
# Velocity S-wave (km/s) = 4.04550 4.12605 4.08597
# Velocity P-wave (km/s) = 6.90009 7.00738 6.95394
#
# Compressibility (1/GPa) = 0.02146421
#
# Stress axis : x y z
#
# Youngs Moduli (GPa) = 73.23988 84.48405 97.31690
#
# Poissons Ratio (x) = 0.25714 0.12117
# Poissons Ratio (y) = 0.22292 0.27853
# Poissons Ratio (z) = 0.09119 0.24180
#
# Static dielectric constant tensor:
#      x y z
#    x 3.542440 0.000000 0.000000 
#    y 0.000000 3.375360 0.000000 
#    z 0.000000 0.000000 3.533990 
# 
# 
# High freq. dielectric constant tensor:
#      x y z
#    x 1.715360 0.000000 0.000000 
#    y 0.000000 1.688150 0.000000 
#    z 0.000000 0.000000 1.699280 
# 
# From -- ./inp_files/16936.got.cif
#   From: 2010.03.12/outbox.cif.g09.slc.cpg/sg62_9_cif.got.tgz:16936.got - 2010.04.10 19:12:36.
