data_PCOD8255854
_publ_section_title
;
Structure prediction by ZEFSAII (Michael W. Deem and Ramdas Pophale) SiO2 
 PCOD8255854
Probable space group: C M C M
;
_chemical_formula_sum "Si O2"
_cell_formula_units_Z 96
_cell_length_a 28.674466
_cell_length_b 26.430843
_cell_length_c 8.609595
_cell_angle_alpha 90.000000
_cell_angle_beta 90.000000
_cell_angle_gamma 90.000000
_cell_volume 6525.128615
_symmetry_space_group_name_H-M "C M C M"
_symmetry_group_IT_number 63
_symmetry_cell_setting 'orthorhombic'
loop_
_space_group_symop_operation_xyz
x,y,z
-x,-y,1/2+z
x,-y,-z
-x,y,1/2-z
-x,-y,-z
x,y,1/2-z
-x,y,z
x,-y,1/2+z
1/2+x,1/2+y,z
1/2-x,1/2-y,1/2+z
1/2+x,1/2-y,-z
1/2-x,1/2+y,1/2-z
1/2-x,1/2-y,-z
1/2+x,1/2+y,1/2-z
1/2-x,1/2+y,z
1/2+x,1/2-y,1/2+z
loop_
_atom_site_type_symbol
_atom_site_label
_atom_site_fract_x
_atom_site_fract_y
_atom_site_fract_z
Si Si1 0.643746 0.745470 0.431719
Si Si2 0.275821 0.201256 0.433840
Si Si3 0.356062 0.554361 0.431816
Si Si4 0.051877 0.109609 0.427371
Si Si5 0.947650 0.216328 0.569620
Si Si6 0.694875 0.648606 0.933221
O O1 0.651580 0.749108 0.250000
O O2 0.670511 0.793041 0.511468
O O3 0.589119 0.750026 0.473809
O O4 0.662445 0.691373 0.490164
O O5 0.272884 0.198681 0.250000
O O6 0.250000 0.250000 0.500000
O O7 0.248578 0.153357 0.506960
O O8 0.344193 0.500000 0.500000
O O9 0.345077 0.555728 0.250000
O O10 0.410351 0.566709 0.466796
O O11 0.322940 0.593829 0.518234
O O12 0.057831 0.128575 0.250000
O O13 0.060572 0.157107 0.538268
O O14 0.000000 0.086895 0.454527
O O15 0.939425 0.226402 0.750000
O O16 0.000000 0.231983 0.518487
O O17 0.692847 0.655688 0.750000
#
# Coordination Sequence:
#
# PCOD8255854 Si02
#       6
#    16  16  16  16  16  16
#     4  11  19  29  45  65  87 111 138 170 209 254
#     4  10  18  29  45  65  86 107 133 166 207 253
#     4  11  22  34  47  63  82 108 141 179 222 267
#     4   9  18  32  47  60  77 104 138 177 221 265
#     4  10  19  29  43  63  85 111 143 176 213 255
#     4  11  20  32  47  63  84 107 135 174 215 258
#
# _framework density 14.712353
#
# number of rings (size 3 to 8) (size 9 to 14) (size 15 to 20)
#    0.000    1.667    1.667    7.500    0.000    2.000 
#    0.000    0.000    0.000    0.000    0.000    0.000 
#    0.000    0.000    0.000    0.000    0.000    0.833 
#
# Total GULP energy -595124.326674 kJ/mol
# GULP energy per Si atom -12398.423472 kJ/mol
# Density = 1.467887 g / cm^3
# Si number density = 14.712353 Si / 1000 Ang^3
#
#
#
# Elastic Constant Matrix: (Units=GPa)
#
#
# Indices 1 2 3 4 5 6 
#
# 1 93.5077 45.0098 33.3209 0.0000 0.0000 0.0000
# 2 45.0098 46.7129 18.7407 0.0000 0.0000 0.0000
# 3 33.3209 18.7407 91.1168 0.0000 0.0000 0.0000
# 4 0.0000 0.0000 0.0000 19.5357 0.0000 0.0000
# 5 0.0000 0.0000 0.0000 0.0000 24.0031 0.0000
# 6 0.0000 0.0000 0.0000 0.0000 0.0000 15.2195
#
#
#
# Elastic Compliance Matrix: (Units=1/GPa)
#
#
# Indices 1 2 3 4 5 6 
#
# 1 0.021118 -0.018801 -0.003856 0.000000 0.000000 0.000000
# 2 -0.018801 0.040071 -0.001366 0.000000 0.000000 0.000000
# 3 -0.003856 -0.001366 0.012666 0.000000 0.000000 0.000000
# 4 0.000000 0.000000 0.000000 0.051188 0.000000 0.000000
# 5 0.000000 0.000000 0.000000 0.000000 0.041661 0.000000
# 6 0.000000 0.000000 0.000000 0.000000 0.000000 0.065705
#
#
# Mechanical properties :
#
#
# Convention : Reuss Voigt Hill
#
# Bulk Modulus (GPa) = 38.74650 47.27557 43.01103
# Shear Modulus (GPa) = 17.29742 20.70273 19.00007
#
# Velocity S-wave (km/s) = 3.43258 3.75529 3.59756
# Velocity P-wave (km/s) = 6.48871 7.14185 6.82310
#
# Compressibility (1/GPa) = 0.02580879
#
# Stress axis : x y z
#
# Youngs Moduli (GPa) = 47.35216 24.95540 78.95163
#
# Poissons Ratio (x) = 0.46920 0.30442
# Poissons Ratio (y) = 0.89029 0.10786
# Poissons Ratio (z) = 0.18258 0.03409
#
# Static dielectric constant tensor:
#      x y z
#    x 3.398980 0.000000 0.000000 
#    y 0.000000 2.536470 0.000000 
#    z 0.000000 0.000000 2.980090 
# 
# 
# High freq. dielectric constant tensor:
#      x y z
#    x 1.564990 0.000000 0.000000 
#    y 0.000000 1.501360 0.000000 
#    z 0.000000 0.000000 1.584580 
# 
# From -- ./inp_files/12979.got.cif
#   From: 2010.03.12/outbox.cif.g09.slc.cpg/sg63_7_cif.got.tgz:12979.got - 2010.04.10 19:34:48.
