data_PCOD8255436
_publ_section_title
;
Structure prediction by ZEFSAII (Michael W. Deem and Ramdas Pophale) SiO2 
 PCOD8255436
Probable space group: C M C M
;
_chemical_formula_sum "Si O2"
_cell_formula_units_Z 72
_cell_length_a 19.655241
_cell_length_b 21.999232
_cell_length_c 10.186109
_cell_angle_alpha 90.000000
_cell_angle_beta 90.000000
_cell_angle_gamma 90.000000
_cell_volume 4404.475638
_symmetry_space_group_name_H-M "C M C M"
_symmetry_group_IT_number 63
_symmetry_cell_setting 'orthorhombic'
loop_
_space_group_symop_operation_xyz
x,y,z
-x,-y,1/2+z
x,-y,-z
-x,y,1/2-z
-x,-y,-z
x,y,1/2-z
-x,y,z
x,-y,1/2+z
1/2+x,1/2+y,z
1/2-x,1/2-y,1/2+z
1/2+x,1/2-y,-z
1/2-x,1/2+y,1/2-z
1/2-x,1/2-y,-z
1/2+x,1/2+y,1/2-z
1/2-x,1/2+y,z
1/2+x,1/2-y,1/2+z
loop_
_atom_site_type_symbol
_atom_site_label
_atom_site_fract_x
_atom_site_fract_y
_atom_site_fract_z
Si Si1 0.818519 0.343445 0.750000
Si Si2 0.171997 0.805938 0.750000
Si Si3 0.283044 0.167663 0.750000
Si Si4 0.362688 0.704600 0.750000
Si Si5 0.622184 0.857653 0.477166
Si Si6 0.500000 0.056135 0.597766
Si Si7 0.922566 0.780946 0.978379
O O1 0.736460 0.351611 0.750000
O O2 0.835085 0.272675 0.750000
O O3 0.851530 0.374759 0.622409
O O4 0.199502 0.738156 0.750000
O O5 0.126412 0.816876 0.621167
O O6 0.201704 0.158979 0.750000
O O7 0.313575 0.137040 0.880250
O O8 0.408613 0.692844 0.622859
O O9 0.566595 0.905016 0.430842
O O10 0.589700 0.790986 0.472044
O O11 0.500000 0.035061 0.750000
O O12 0.500000 0.000000 0.500000
O O13 0.000000 0.794352 0.938900
#
# Coordination Sequence:
#
# PCOD8255436 Si02
#       7
#     8   8   8   8  16   8  16
#     4   9  18  29  44  67  86 113 150 198 235 267
#     4   9  17  26  41  64  90 114 155 195 222 262
#     4   9  16  29  46  61  82 117 154 198 231 271
#     4   9  17  26  39  64  92 114 153 199 226 260
#     4  10  19  32  50  62  85 118 159 195 241 281
#     4  12  26  40  52  70  90 116 160 208 252 286
#     4  10  17  26  42  64  92 126 158 188 226 270
#
# _framework density 16.347007999999999
#
# number of rings (size 3 to 8) (size 9 to 14) (size 15 to 20)
#    0.000    2.222    2.222    2.000    1.556    5.333 
#    0.000    0.000    0.000    0.000    0.000    0.000 
#    0.000    0.000    0.000    0.000    0.000   77.778 
#
# Total GULP energy -446351.812048 kJ/mol
# GULP energy per Si atom -12398.661446 kJ/mol
# Density = 1.630980 g / cm^3
# Si number density = 16.347008 Si / 1000 Ang^3
#
#
#
# Elastic Constant Matrix: (Units=GPa)
#
#
# Indices 1 2 3 4 5 6 
#
# 1 98.1786 16.1934 35.7768 0.0000 0.0000 0.0000
# 2 16.1934 25.2252 16.7145 0.0000 0.0000 0.0000
# 3 35.7768 16.7145 138.0368 0.0000 0.0000 0.0000
# 4 0.0000 0.0000 0.0000 14.5651 0.0000 0.0000
# 5 0.0000 0.0000 0.0000 0.0000 25.4329 0.0000
# 6 0.0000 0.0000 0.0000 0.0000 0.0000 6.5902
#
#
#
# Elastic Compliance Matrix: (Units=1/GPa)
#
#
# Indices 1 2 3 4 5 6 
#
# 1 0.012071 -0.006171 -0.002381 0.000000 0.000000 0.000000
# 2 -0.006171 0.046256 -0.004002 0.000000 0.000000 0.000000
# 3 -0.002381 -0.004002 0.008346 0.000000 0.000000 0.000000
# 4 0.000000 0.000000 0.000000 0.068657 0.000000 0.000000
# 5 0.000000 0.000000 0.000000 0.000000 0.039319 0.000000
# 6 0.000000 0.000000 0.000000 0.000000 0.000000 0.151740
#
#
# Mechanical properties :
#
#
# Convention : Reuss Voigt Hill
#
# Bulk Modulus (GPa) = 24.05864 44.31222 34.18543
# Shear Modulus (GPa) = 13.68539 22.16803 17.92671
#
# Velocity S-wave (km/s) = 2.89655 3.68651 3.31514
# Velocity P-wave (km/s) = 5.09274 6.72953 5.96752
#
# Compressibility (1/GPa) = 0.04156512
#
# Stress axis : x y z
#
# Youngs Moduli (GPa) = 82.84194 21.61881 119.81503
#
# Poissons Ratio (x) = 0.13341 0.28533
# Poissons Ratio (y) = 0.51123 0.47945
# Poissons Ratio (z) = 0.19728 0.08651
#
# Static dielectric constant tensor:
#      x y z
#    x 3.255630 0.000000 0.000000 
#    y 0.000000 2.463260 0.000000 
#    z 0.000000 0.000000 3.406850 
# 
# 
# High freq. dielectric constant tensor:
#      x y z
#    x 1.642890 0.000000 0.000000 
#    y 0.000000 1.538360 0.000000 
#    z 0.000000 0.000000 1.654470 
# 
# From -- ./inp_files/7930.got.cif
#   From: 2010.03.12/outbox.cif.g09.slc.cpg/sg63_4_cif.got.tgz:7930.got - 2010.04.10 19:34:48.
