data_PCOD8255629
_publ_section_title
;
Structure prediction by ZEFSAII (Michael W. Deem and Ramdas Pophale) SiO2 
 PCOD8255629
Probable space group: C M C M
;
_chemical_formula_sum "Si O2"
_cell_formula_units_Z 72
_cell_length_a 22.474286
_cell_length_b 24.131923
_cell_length_c 8.943075
_cell_angle_alpha 90.000000
_cell_angle_beta 90.000000
_cell_angle_gamma 90.000000
_cell_volume 4850.256508
_symmetry_space_group_name_H-M "C M C M"
_symmetry_group_IT_number 63
_symmetry_cell_setting 'orthorhombic'
loop_
_space_group_symop_operation_xyz
x,y,z
-x,-y,1/2+z
x,-y,-z
-x,y,1/2-z
-x,-y,-z
x,y,1/2-z
-x,y,z
x,-y,1/2+z
1/2+x,1/2+y,z
1/2-x,1/2-y,1/2+z
1/2+x,1/2-y,-z
1/2-x,1/2+y,1/2-z
1/2-x,1/2-y,-z
1/2+x,1/2+y,1/2-z
1/2-x,1/2+y,z
1/2+x,1/2-y,1/2+z
loop_
_atom_site_type_symbol
_atom_site_label
_atom_site_fract_x
_atom_site_fract_y
_atom_site_fract_z
Si Si1 0.172237 0.296186 0.583241
Si Si2 0.000000 0.059950 0.428561
Si Si3 0.066409 0.746975 0.920791
Si Si4 0.280796 0.671472 0.916216
Si Si5 0.592598 0.361131 0.427158
O O1 0.156042 0.315224 0.750000
O O2 0.112580 0.298875 0.483110
O O3 0.223731 0.337241 0.522274
O O4 0.196706 0.234242 0.579038
O O5 0.059219 0.090678 0.484593
O O6 0.000000 0.056822 0.250000
O O7 0.000000 0.000000 0.500000
O O8 0.083431 0.761644 0.750000
O O9 0.000000 0.721732 0.930285
O O10 0.067909 0.802293 0.019130
O O11 0.259918 0.655946 0.750000
O O12 0.336823 0.633331 0.964470
O O13 0.580911 0.365936 0.250000
#
# Coordination Sequence:
#
# PCOD8255629 Si02
#       5
#    16   8  16  16  16
#     4   9  16  24  36  54  75 100 127 160 195 228
#     4  12  24  36  48  62  80 102 130 168 210 250
#     4  10  18  26  38  56  78 105 135 165 198 237
#     4   8  15  26  39  55  74  96 122 156 196 235
#     4  10  19  31  46  60  75  97 127 164 204 244
#
# _framework density 14.844576999999999
#
# number of rings (size 3 to 8) (size 9 to 14) (size 15 to 20)
#    0.000    2.444    1.111    4.333    0.000    7.556 
#    0.000    0.000    0.000    0.000    0.000    0.000 
#    0.000    0.000    0.000    0.000    0.000    1.111 
#
# Total GULP energy -446204.127912 kJ/mol
# GULP energy per Si atom -12394.559109 kJ/mol
# Density = 1.481079 g / cm^3
# Si number density = 14.844577 Si / 1000 Ang^3
#
#
#
# Elastic Constant Matrix: (Units=GPa)
#
#
# Indices 1 2 3 4 5 6 
#
# 1 122.0821 36.4479 66.2037 0.0000 0.0000 0.0000
# 2 36.4479 31.2953 25.5055 0.0000 0.0000 0.0000
# 3 66.2037 25.5055 119.0185 0.0000 0.0000 0.0000
# 4 0.0000 0.0000 0.0000 14.7179 0.0000 0.0000
# 5 0.0000 0.0000 0.0000 0.0000 29.1245 0.0000
# 6 0.0000 0.0000 0.0000 0.0000 0.0000 9.1898
#
#
#
# Elastic Compliance Matrix: (Units=1/GPa)
#
#
# Indices 1 2 3 4 5 6 
#
# 1 0.015135 -0.013044 -0.005624 0.000000 0.000000 0.000000
# 2 -0.013044 0.049957 -0.003450 0.000000 0.000000 0.000000
# 3 -0.005624 -0.003450 0.012270 0.000000 0.000000 0.000000
# 4 0.000000 0.000000 0.000000 0.067944 0.000000 0.000000
# 5 0.000000 0.000000 0.000000 0.000000 0.034335 0.000000
# 6 0.000000 0.000000 0.000000 0.000000 0.000000 0.108816
#
#
# Mechanical properties :
#
#
# Convention : Reuss Voigt Hill
#
# Bulk Modulus (GPa) = 30.18732 58.74555 44.46643
# Shear Modulus (GPa) = 14.54613 20.22238 17.38426
#
# Velocity S-wave (km/s) = 3.13372 3.69490 3.42582
# Velocity P-wave (km/s) = 5.78562 7.60676 6.75781
#
# Compressibility (1/GPa) = 0.03312649
#
# Stress axis : x y z
#
# Youngs Moduli (GPa) = 66.07175 20.01729 81.50287
#
# Poissons Ratio (x) = 0.26110 0.45834
# Poissons Ratio (y) = 0.86182 0.28119
# Poissons Ratio (z) = 0.37156 0.06906
#
# Static dielectric constant tensor:
#      x y z
#    x 3.335790 0.000000 0.000000 
#    y 0.000000 2.314960 0.000000 
#    z 0.000000 0.000000 3.102510 
# 
# 
# High freq. dielectric constant tensor:
#      x y z
#    x 1.582440 0.000000 0.000000 
#    y 0.000000 1.477540 0.000000 
#    z 0.000000 0.000000 1.588760 
# 
# From -- ./inp_files/8013.got.cif
#   From: 2010.03.12/outbox.cif.g09.slc.cpg/sg63_5_cif.got.tgz:8013.got - 2010.04.10 19:34:48.
