data_PCOD8255167
_publ_section_title
;
Structure prediction by ZEFSAII (Michael W. Deem and Ramdas Pophale) SiO2 
 PCOD8255167
Probable space group: P N M A
;
_chemical_formula_sum "Si O2"
_cell_formula_units_Z 48
_cell_length_a 8.946611
_cell_length_b 21.930640
_cell_length_c 11.121675
_cell_angle_alpha 90.000000
_cell_angle_beta 90.000000
_cell_angle_gamma 90.000000
_cell_volume 2182.127187
_symmetry_space_group_name_H-M "P N M A"
_symmetry_group_IT_number 62
_symmetry_cell_setting 'orthorhombic'
loop_
_space_group_symop_operation_xyz
x,y,z
1/2-x,-y,1/2+z
1/2+x,1/2-y,1/2-z
-x,1/2+y,-z
-x,-y,-z
1/2+x,y,1/2-z
1/2-x,1/2+y,1/2+z
x,1/2-y,z
loop_
_atom_site_type_symbol
_atom_site_label
_atom_site_fract_x
_atom_site_fract_y
_atom_site_fract_z
Si Si1 0.788519 0.991950 0.163546
Si Si2 0.607647 0.385551 0.823194
Si Si3 0.353251 0.403130 0.012860
Si Si4 0.904774 0.318516 0.864700
Si Si5 0.392551 0.819221 0.585588
Si Si6 0.519804 0.073051 0.249917
O O1 0.812262 0.946584 0.276576
O O2 0.651184 0.035481 0.190960
O O3 0.753284 0.956143 0.040422
O O4 0.937712 0.033037 0.146133
O O5 0.732150 0.337489 0.862864
O O6 0.503711 0.361540 0.717578
O O7 0.504749 0.397769 0.938018
O O8 0.254927 0.341030 0.011984
O O9 0.392058 0.417257 0.149948
O O10 0.917000 0.250000 0.814783
O O11 0.962646 0.322385 0.000812
O O12 0.365927 0.750000 0.630793
O O13 0.421500 0.862702 0.699634
#
# Coordination Sequence:
#
# PCOD8255167 Si02
#       6
#     8   8   8   8   8   8
#     4  12  24  44  72 108 145 182 234 297 369 435
#     4  12  23  42  70 109 146 183 233 304 365 435
#     4  12  26  46  73 109 145 191 244 300 367 431
#     4  11  23  42  69 102 141 190 243 296 362 433
#     4  11  27  50  72 100 142 195 249 298 361 438
#     4  12  27  46  70 106 144 194 237 300 364 439
#
# _framework density 21.996884999999999
#
# number of rings (size 3 to 8) (size 9 to 14) (size 15 to 20)
#    0.000    0.333    6.667    1.000    2.333    4.000 
#    0.000    0.000    0.000    0.000    0.000    0.000 
#    0.000    0.000    0.000    0.000    0.000    0.000 
#
# Total GULP energy -595346.304548 kJ/mol
# GULP energy per Si atom -12403.048011 kJ/mol
# Density = 2.194682 g / cm^3
# Si number density = 21.996885 Si / 1000 Ang^3
#
#
#
# Elastic Constant Matrix: (Units=GPa)
#
#
# Indices 1 2 3 4 5 6 
#
# 1 69.2397 40.9587 23.2797 0.0000 0.0000 0.0000
# 2 40.9587 143.0956 40.7744 0.0000 0.0000 0.0000
# 3 23.2797 40.7744 79.5806 0.0000 0.0000 0.0000
# 4 0.0000 0.0000 0.0000 34.3057 0.0000 0.0000
# 5 0.0000 0.0000 0.0000 0.0000 35.0906 0.0000
# 6 0.0000 0.0000 0.0000 0.0000 0.0000 39.0632
#
#
#
# Elastic Compliance Matrix: (Units=1/GPa)
#
#
# Indices 1 2 3 4 5 6 
#
# 1 0.018007 -0.004278 -0.003076 0.000000 0.000000 0.000000
# 2 -0.004278 0.009199 -0.003462 0.000000 0.000000 0.000000
# 3 -0.003076 -0.003462 0.015239 0.000000 0.000000 0.000000
# 4 0.000000 0.000000 0.000000 0.029150 0.000000 0.000000
# 5 0.000000 0.000000 0.000000 0.000000 0.028498 0.000000
# 6 0.000000 0.000000 0.000000 0.000000 0.000000 0.025600
#
#
# Mechanical properties :
#
#
# Convention : Reuss Voigt Hill
#
# Bulk Modulus (GPa) = 48.04307 55.77128 51.90718
# Shear Modulus (GPa) = 32.41229 34.15212 33.28220
#
# Velocity S-wave (km/s) = 3.84278 3.94457 3.89400
# Velocity P-wave (km/s) = 6.44806 6.79377 6.62317
#
# Compressibility (1/GPa) = 0.02081466
#
# Stress axis : x y z
#
# Youngs Moduli (GPa) = 55.53303 108.70427 65.61904
#
# Poissons Ratio (x) = 0.46502 0.20184
# Poissons Ratio (y) = 0.23756 0.22717
# Poissons Ratio (z) = 0.17081 0.37633
#
# Static dielectric constant tensor:
#      x y z
#    x 4.232560 0.000000 0.000000 
#    y 0.000000 4.187900 0.000000 
#    z 0.000000 0.000000 3.854800 
# 
# 
# High freq. dielectric constant tensor:
#      x y z
#    x 1.885840 0.000000 0.000000 
#    y 0.000000 1.871820 0.000000 
#    z 0.000000 0.000000 1.851530 
# 
# From -- ./inp_files/11290.got.cif
#   From: 2010.03.12/outbox.cif.g09.slc.cpg/sg62_6_cif.got.tgz:11290.got - 2010.04.10 19:12:36.
