data_PCOD8255104
_publ_section_title
;
Structure prediction by ZEFSAII (Michael W. Deem and Ramdas Pophale) SiO2 
 PCOD8255104
Probable space group: P N M A
;
_chemical_formula_sum "Si O2"
_cell_formula_units_Z 48
_cell_length_a 9.890572
_cell_length_b 17.351906
_cell_length_c 12.312669
_cell_angle_alpha 90.000000
_cell_angle_beta 90.000000
_cell_angle_gamma 90.000000
_cell_volume 2113.103648
_symmetry_space_group_name_H-M "P N M A"
_symmetry_group_IT_number 62
_symmetry_cell_setting 'orthorhombic'
loop_
_space_group_symop_operation_xyz
x,y,z
1/2-x,-y,1/2+z
1/2+x,1/2-y,1/2-z
-x,1/2+y,-z
-x,-y,-z
1/2+x,y,1/2-z
1/2-x,1/2+y,1/2+z
x,1/2-y,z
loop_
_atom_site_type_symbol
_atom_site_label
_atom_site_fract_x
_atom_site_fract_y
_atom_site_fract_z
Si Si1 0.666577 0.554037 0.960573
Si Si2 0.683598 0.836303 0.551332
Si Si3 0.174183 0.108049 0.652264
Si Si4 0.401341 0.064983 0.797030
Si Si5 0.457851 0.663180 0.847219
Si Si6 0.947636 0.578588 0.862362
O O1 0.652114 0.478844 0.888833
O O2 0.547791 0.611826 0.927065
O O3 0.813679 0.590478 0.934546
O O4 0.645577 0.530686 0.086488
O O5 0.620771 0.750000 0.563229
O O6 0.765171 0.836507 0.438018
O O7 0.574605 0.907367 0.554721
O O8 0.797595 0.852713 0.641232
O O9 0.273348 0.111817 0.754377
O O10 0.021988 0.128255 0.691094
O O11 0.445813 0.999662 0.708699
O O12 0.497547 0.750000 0.875678
O O13 0.481255 0.647971 0.720245
#
# Coordination Sequence:
#
# PCOD8255104 Si02
#       6
#     8   8   8   8   8   8
#     4  11  23  41  66  97 138 172 226 279 340 397
#     4  11  25  44  65  96 138 179 221 278 342 403
#     4  11  24  41  68  94 132 172 224 277 335 391
#     4  11  24  40  67  99 129 171 219 279 335 399
#     4  11  22  40  64  94 134 181 226 277 342 405
#     4  11  24  38  67  99 132 171 220 278 339 402
#
# _framework density 22.715402000000001
#
# number of rings (size 3 to 8) (size 9 to 14) (size 15 to 20)
#    0.000    1.000    3.333    3.000    7.000    4.000 
#    0.000    1.667    0.000    0.000    0.000    0.000 
#    0.000    0.000    0.000    0.000    0.000    0.000 
#
# Total GULP energy -594912.799751 kJ/mol
# GULP energy per Si atom -12394.016661 kJ/mol
# Density = 2.266370 g / cm^3
# Si number density = 22.715402 Si / 1000 Ang^3
#
#
#
# Elastic Constant Matrix: (Units=GPa)
#
#
# Indices 1 2 3 4 5 6 
#
# 1 121.4446 13.5284 43.5236 0.0000 0.0000 0.0000
# 2 13.5284 52.5728 4.5769 0.0000 0.0000 0.0000
# 3 43.5236 4.5769 83.6567 0.0000 0.0000 0.0000
# 4 0.0000 0.0000 0.0000 24.9113 0.0000 0.0000
# 5 0.0000 0.0000 0.0000 0.0000 41.7130 0.0000
# 6 0.0000 0.0000 0.0000 0.0000 0.0000 25.4105
#
#
#
# Elastic Compliance Matrix: (Units=1/GPa)
#
#
# Indices 1 2 3 4 5 6 
#
# 1 0.010371 -0.002209 -0.005275 0.000000 0.000000 0.000000
# 2 -0.002209 0.019583 0.000078 0.000000 0.000000 0.000000
# 3 -0.005275 0.000078 0.014694 0.000000 0.000000 0.000000
# 4 0.000000 0.000000 0.000000 0.040142 0.000000 0.000000
# 5 0.000000 0.000000 0.000000 0.000000 0.023973 0.000000
# 6 0.000000 0.000000 0.000000 0.000000 0.000000 0.039354
#
#
# Mechanical properties :
#
#
# Convention : Reuss Voigt Hill
#
# Bulk Modulus (GPa) = 33.51734 42.32574 37.92154
# Shear Modulus (GPa) = 28.92284 31.47664 30.19974
#
# Velocity S-wave (km/s) = 3.57216 3.72653 3.65016
# Velocity P-wave (km/s) = 5.63925 6.09832 5.87328
#
# Compressibility (1/GPa) = 0.02983530
#
# Stress axis : x y z
#
# Youngs Moduli (GPa) = 96.42598 51.06470 68.05719
#
# Poissons Ratio (x) = 0.11282 0.35897
# Poissons Ratio (y) = 0.21305 -0.00532
# Poissons Ratio (z) = 0.50861 -0.00399
#
# Static dielectric constant tensor:
#      x y z
#    x 4.741640 0.000000 0.000000 
#    y 0.000000 3.632380 0.000000 
#    z 0.000000 0.000000 4.150770 
# 
# 
# High freq. dielectric constant tensor:
#      x y z
#    x 1.917970 0.000000 0.000000 
#    y 0.000000 1.857840 0.000000 
#    z 0.000000 0.000000 1.899640 
# 
# From -- ./inp_files/16933.got.cif
#   From: 2010.03.12/outbox.cif.g09.slc.cpg/sg62_9_cif.got.tgz:16933.got - 2010.04.10 19:12:36.
