data_PCOD8255343
_publ_section_title
;
Structure prediction by ZEFSAII (Michael W. Deem and Ramdas Pophale) SiO2 
 PCOD8255343
Probable space group: C M C M
;
_chemical_formula_sum "Si O2"
_cell_formula_units_Z 112
_cell_length_a 28.444766
_cell_length_b 27.423780
_cell_length_c 9.617148
_cell_angle_alpha 90.000000
_cell_angle_beta 90.000000
_cell_angle_gamma 90.000000
_cell_volume 7501.981368
_symmetry_space_group_name_H-M "C M C M"
_symmetry_group_IT_number 63
_symmetry_cell_setting 'orthorhombic'
loop_
_space_group_symop_operation_xyz
x,y,z
-x,-y,1/2+z
x,-y,-z
-x,y,1/2-z
-x,-y,-z
x,y,1/2-z
-x,y,z
x,-y,1/2+z
1/2+x,1/2+y,z
1/2-x,1/2-y,1/2+z
1/2+x,1/2-y,-z
1/2-x,1/2+y,1/2-z
1/2-x,1/2-y,-z
1/2+x,1/2+y,1/2-z
1/2-x,1/2+y,z
1/2+x,1/2-y,1/2+z
loop_
_atom_site_type_symbol
_atom_site_label
_atom_site_fract_x
_atom_site_fract_y
_atom_site_fract_z
Si Si1 0.223167 0.858501 0.087605
Si Si2 0.946421 0.637521 0.089109
Si Si3 0.225731 0.451818 0.413909
Si Si4 0.647439 0.713388 0.586714
Si Si5 0.808312 0.296666 0.408625
Si Si6 0.366311 0.893040 0.406258
Si Si7 0.949205 0.748276 0.085264
O O1 0.234518 0.861162 0.250000
O O2 0.234754 0.912743 0.032262
O O3 0.169759 0.840358 0.055956
O O4 0.259500 0.818090 0.029974
O O5 0.932716 0.633674 0.250000
O O6 0.939928 0.693066 0.034985
O O7 0.000000 0.620469 0.064207
O O8 0.911654 0.601755 0.005312
O O9 0.235695 0.500000 0.500000
O O10 0.230367 0.462729 0.250000
O O11 0.174117 0.431131 0.450652
O O12 0.650635 0.725444 0.750000
O O13 0.678276 0.752591 0.507393
O O14 0.593061 0.716075 0.535131
O O15 0.803480 0.277761 0.250000
O O16 0.847456 0.338315 0.417630
O O17 0.382764 0.904517 0.250000
O O18 0.952114 0.747811 0.250000
O O19 0.000000 0.766671 0.026214
#
# Coordination Sequence:
#
# PCOD8255343 Si02
#       7
#    16  16  16  16  16  16  16
#     4   8  16  28  41  59  82 106 132 162 201 242
#     4   9  16  26  40  59  83 108 138 177 206 228
#     4   9  18  33  48  62  81 103 130 169 211 251
#     4  10  16  24  41  59  79 112 142 161 189 234
#     4   9  16  26  37  54  84 112 131 161 197 229
#     4   9  17  28  42  59  81 108 135 165 206 248
#     4   8  14  23  35  55  83 111 139 170 196 217
#
# _framework density 14.929389
#
# number of rings (size 3 to 8) (size 9 to 14) (size 15 to 20)
#    0.000    3.143    1.429    3.000    0.000    0.857 
#    0.000    2.857    0.000    0.857    0.000    0.000 
#    0.000    0.571    0.000    0.429    0.000    0.857 
#
# Total GULP energy -693821.487332 kJ/mol
# GULP energy per Si atom -12389.669417 kJ/mol
# Density = 1.489541 g / cm^3
# Si number density = 14.929389 Si / 1000 Ang^3
#
#
#
# Elastic Constant Matrix: (Units=GPa)
#
#
# Indices 1 2 3 4 5 6 
#
# 1 90.8792 53.3959 26.4677 0.0000 0.0000 0.0000
# 2 53.3959 82.5213 30.4182 0.0000 0.0000 0.0000
# 3 26.4677 30.4182 34.4345 0.0000 0.0000 0.0000
# 4 0.0000 0.0000 0.0000 17.4275 0.0000 0.0000
# 5 0.0000 0.0000 0.0000 0.0000 15.2378 0.0000
# 6 0.0000 0.0000 0.0000 0.0000 0.0000 14.7701
#
#
#
# Elastic Compliance Matrix: (Units=1/GPa)
#
#
# Indices 1 2 3 4 5 6 
#
# 1 0.018401 -0.009924 -0.005377 0.000000 0.000000 0.000000
# 2 -0.009924 0.023322 -0.012973 0.000000 0.000000 0.000000
# 3 -0.005377 -0.012973 0.044634 0.000000 0.000000 0.000000
# 4 0.000000 0.000000 0.000000 0.057380 0.000000 0.000000
# 5 0.000000 0.000000 0.000000 0.000000 0.065626 0.000000
# 6 0.000000 0.000000 0.000000 0.000000 0.000000 0.067704
#
#
# Mechanical properties :
#
#
# Convention : Reuss Voigt Hill
#
# Bulk Modulus (GPa) = 33.54891 47.59986 40.57438
# Shear Modulus (GPa) = 14.55386 15.99062 15.27224
#
# Velocity S-wave (km/s) = 3.12564 3.27629 3.20185
# Velocity P-wave (km/s) = 5.96210 6.80181 6.39575
#
# Compressibility (1/GPa) = 0.02980723
#
# Stress axis : x y z
#
# Youngs Moduli (GPa) = 54.34634 42.87837 22.40469
#
# Poissons Ratio (x) = 0.42554 0.12046
# Poissons Ratio (y) = 0.53935 0.29066
# Poissons Ratio (z) = 0.29220 0.55628
#
# Static dielectric constant tensor:
#      x y z
#    x 3.142430 0.000000 0.000000 
#    y 0.000000 2.650860 0.000000 
#    z 0.000000 0.000000 2.660030 
# 
# 
# High freq. dielectric constant tensor:
#      x y z
#    x 1.570690 0.000000 0.000000 
#    y 0.000000 1.532700 0.000000 
#    z 0.000000 0.000000 1.549590 
# 
# From -- ./inp_files/25199.got.cif
#   From: 2010.03.12/outbox.cif.g09.slc.cpg/sg63_13_cif.got.tgz:25199.got - 2010.04.10 19:34:48.
