data_PCOD8255024
_publ_section_title
;
Structure prediction by ZEFSAII (Michael W. Deem and Ramdas Pophale) SiO2 
 PCOD8255024
Probable space group: P N M A
;
_chemical_formula_sum "Si O2"
_cell_formula_units_Z 64
_cell_length_a 9.888925
_cell_length_b 25.891575
_cell_length_c 13.896029
_cell_angle_alpha 90.000000
_cell_angle_beta 90.000000
_cell_angle_gamma 90.000000
_cell_volume 3557.937088
_symmetry_space_group_name_H-M "P N M A"
_symmetry_group_IT_number 62
_symmetry_cell_setting 'orthorhombic'
loop_
_space_group_symop_operation_xyz
x,y,z
1/2-x,-y,1/2+z
1/2+x,1/2-y,1/2-z
-x,1/2+y,-z
-x,-y,-z
1/2+x,y,1/2-z
1/2-x,1/2+y,1/2+z
x,1/2-y,z
loop_
_atom_site_type_symbol
_atom_site_label
_atom_site_fract_x
_atom_site_fract_y
_atom_site_fract_z
Si Si1 0.326345 0.371190 0.589779
Si Si2 0.922409 0.692483 0.338338
Si Si3 0.890778 0.057430 0.421253
Si Si4 0.833981 0.488235 0.235336
Si Si5 0.200914 0.459553 0.461581
Si Si6 0.906175 0.441773 0.750958
Si Si7 0.067061 0.308665 0.884703
Si Si8 0.842316 0.132573 0.579789
O O1 0.201259 0.345856 0.644912
O O2 0.270124 0.409540 0.509331
O O3 0.422404 0.399406 0.667043
O O4 0.435606 0.328351 0.553456
O O5 0.876069 0.750000 0.366882
O O6 0.969954 0.690119 0.228233
O O7 0.048787 0.677792 0.405807
O O8 0.846889 0.060300 0.308820
O O9 0.845257 0.110563 0.471430
O O10 0.052619 0.053688 0.423981
O O11 0.812501 0.008470 0.468209
O O12 0.800736 0.471749 0.127150
O O13 0.723459 0.525776 0.279133
O O14 0.969810 0.520182 0.246408
O O15 0.886253 0.415895 0.646498
O O16 0.099985 0.250000 0.917325
O O17 0.194503 0.345521 0.901577
#
# Coordination Sequence:
#
# PCOD8255024 Si02
#       8
#     8   8   8   8   8   8   8   8
#     4  12  22  36  57  84 117 160 195 232 290 350
#     4  11  21  36  59  85 116 155 195 238 291 356
#     4  11  22  38  58  84 117 156 195 239 281 344
#     4  12  23  38  55  82 122 155 199 240 275 331
#     4  11  23  38  58  84 117 157 198 234 287 342
#     4  12  21  33  56  84 118 159 195 231 278 340
#     4  11  23  37  55  88 124 150 189 246 294 344
#     4  12  21  37  59  83 118 162 194 230 290 351
#
# _framework density 17.987952
#
# number of rings (size 3 to 8) (size 9 to 14) (size 15 to 20)
#    0.000    0.500    7.500    3.000    0.000    3.500 
#    0.000    0.000    0.000    0.000    0.000    5.250 
#    0.000    0.000    0.000    0.000    0.000    0.000 
#
# Total GULP energy -793409.618476 kJ/mol
# GULP energy per Si atom -12397.025289 kJ/mol
# Density = 1.794701 g / cm^3
# Si number density = 17.987952 Si / 1000 Ang^3
#
#
#
# Elastic Constant Matrix: (Units=GPa)
#
#
# Indices 1 2 3 4 5 6 
#
# 1 113.6632 42.1496 31.2147 0.0000 0.0000 0.0000
# 2 42.1496 91.9056 40.8174 0.0000 0.0000 0.0000
# 3 31.2147 40.8174 74.7318 0.0000 0.0000 0.0000
# 4 0.0000 0.0000 0.0000 23.3733 0.0000 0.0000
# 5 0.0000 0.0000 0.0000 0.0000 14.9540 0.0000
# 6 0.0000 0.0000 0.0000 0.0000 0.0000 32.7270
#
#
#
# Elastic Compliance Matrix: (Units=1/GPa)
#
#
# Indices 1 2 3 4 5 6 
#
# 1 0.010920 -0.003938 -0.002411 0.000000 0.000000 0.000000
# 2 -0.003938 0.015785 -0.006977 0.000000 0.000000 0.000000
# 3 -0.002411 -0.006977 0.018199 0.000000 0.000000 0.000000
# 4 0.000000 0.000000 0.000000 0.042784 0.000000 0.000000
# 5 0.000000 0.000000 0.000000 0.000000 0.066872 0.000000
# 6 0.000000 0.000000 0.000000 0.000000 0.000000 0.030556
#
#
# Mechanical properties :
#
#
# Convention : Reuss Voigt Hill
#
# Bulk Modulus (GPa) = 54.78292 56.51822 55.65057
# Shear Modulus (GPa) = 22.95157 25.28547 24.11852
#
# Velocity S-wave (km/s) = 3.57591 3.75332 3.66569
# Velocity P-wave (km/s) = 6.89717 7.09024 6.99437
#
# Compressibility (1/GPa) = 0.01825386
#
# Stress axis : x y z
#
# Youngs Moduli (GPa) = 91.57439 63.35053 54.94880
#
# Poissons Ratio (x) = 0.24945 0.13246
# Poissons Ratio (y) = 0.36058 0.38338
# Poissons Ratio (z) = 0.22075 0.44199
#
# Static dielectric constant tensor:
#      x y z
#    x 3.395420 0.000000 0.000000 
#    y 0.000000 3.445120 0.000000 
#    z 0.000000 0.000000 3.302230 
# 
# 
# High freq. dielectric constant tensor:
#      x y z
#    x 1.715760 0.000000 0.000000 
#    y 0.000000 1.690360 0.000000 
#    z 0.000000 0.000000 1.662030 
# 
# From -- ./inp_files/17374.got.cif
#   From: 2010.03.12/outbox.cif.g09.slc.cpg/sg62_9_cif.got.tgz:17374.got - 2010.04.10 19:12:36.
