data_PCOD8255699
_publ_section_title
;
Structure prediction by ZEFSAII (Michael W. Deem and Ramdas Pophale) SiO2 
 PCOD8255699
Probable space group: C M C M
;
_chemical_formula_sum "Si O2"
_cell_formula_units_Z 112
_cell_length_a 30.305196
_cell_length_b 13.591046
_cell_length_c 17.140398
_cell_angle_alpha 90.000000
_cell_angle_beta 90.000000
_cell_angle_gamma 90.000000
_cell_volume 7059.775351
_symmetry_space_group_name_H-M "C M C M"
_symmetry_group_IT_number 63
_symmetry_cell_setting 'orthorhombic'
loop_
_space_group_symop_operation_xyz
x,y,z
-x,-y,1/2+z
x,-y,-z
-x,y,1/2-z
-x,-y,-z
x,y,1/2-z
-x,y,z
x,-y,1/2+z
1/2+x,1/2+y,z
1/2-x,1/2-y,1/2+z
1/2+x,1/2-y,-z
1/2-x,1/2+y,1/2-z
1/2-x,1/2-y,-z
1/2+x,1/2+y,1/2-z
1/2-x,1/2+y,z
1/2+x,1/2-y,1/2+z
loop_
_atom_site_type_symbol
_atom_site_label
_atom_site_fract_x
_atom_site_fract_y
_atom_site_fract_z
Si Si1 0.049003 0.894663 0.039930
Si Si2 0.124363 0.163029 0.061143
Si Si3 0.113447 0.031850 0.839809
Si Si4 0.765950 0.314343 0.660192
Si Si5 0.823489 0.300820 0.160253
Si Si6 0.723262 0.023166 0.914963
Si Si7 0.687622 0.642162 0.917368
O O1 0.000000 0.849570 0.050795
O O2 0.072290 0.908407 0.123612
O O3 0.078215 0.822369 0.985241
O O4 0.046259 0.000000 0.000000
O O5 0.120862 0.072172 0.119440
O O6 0.135126 0.261041 0.110073
O O7 0.162911 0.140443 0.999595
O O8 0.103008 0.013434 0.750000
O O9 0.157717 0.095746 0.849356
O O10 0.779800 0.302446 0.750000
O O11 0.716528 0.275163 0.647474
O O12 0.768173 0.427050 0.635967
O O13 0.800078 0.253105 0.607196
O O14 0.837727 0.306909 0.250000
O O15 0.811233 0.409565 0.131629
O O16 0.768737 0.079191 0.927938
O O17 0.703054 0.000000 0.000000
#
# Coordination Sequence:
#
# PCOD8255699 Si02
#       7
#    16  16  16  16  16  16  16
#     4   8  16  30  45  63  88 116 144 173 211 263
#     4  10  18  30  47  64  87 118 149 182 221 265
#     4  10  18  27  44  67  90 117 147 182 221 261
#     4  10  20  31  43  60  87 120 152 191 233 265
#     4  10  20  31  44  64  88 116 152 192 229 266
#     4  11  20  30  44  61  86 120 157 192 226 265
#     4  10  19  31  44  62  86 118 158 191 218 261
#
# _framework density 15.864528
#
# number of rings (size 3 to 8) (size 9 to 14) (size 15 to 20)
#    0.000    2.143    0.000    6.000    0.000    5.429 
#    0.000    0.000    0.000    1.286    0.000    0.000 
#    0.000   14.286    0.000    6.286    0.000    0.571 
#
# Total GULP energy -694426.835868 kJ/mol
# GULP energy per Si atom -12400.479212 kJ/mol
# Density = 1.582842 g / cm^3
# Si number density = 15.864528 Si / 1000 Ang^3
#
#
#
# Elastic Constant Matrix: (Units=GPa)
#
#
# Indices 1 2 3 4 5 6 
#
# 1 57.7605 19.6657 39.4680 0.0000 0.0000 0.0000
# 2 19.6657 81.0881 34.2874 0.0000 0.0000 0.0000
# 3 39.4680 34.2874 120.3677 0.0000 0.0000 0.0000
# 4 0.0000 0.0000 0.0000 24.4629 0.0000 0.0000
# 5 0.0000 0.0000 0.0000 0.0000 14.0338 0.0000
# 6 0.0000 0.0000 0.0000 0.0000 0.0000 16.5071
#
#
#
# Elastic Compliance Matrix: (Units=1/GPa)
#
#
# Indices 1 2 3 4 5 6 
#
# 1 0.022818 -0.002695 -0.006714 0.000000 0.000000 0.000000
# 2 -0.002695 0.014339 -0.003201 0.000000 0.000000 0.000000
# 3 -0.006714 -0.003201 0.011421 0.000000 0.000000 0.000000
# 4 0.000000 0.000000 0.000000 0.040878 0.000000 0.000000
# 5 0.000000 0.000000 0.000000 0.000000 0.071257 0.000000
# 6 0.000000 0.000000 0.000000 0.000000 0.000000 0.060580
#
#
# Mechanical properties :
#
#
# Convention : Reuss Voigt Hill
#
# Bulk Modulus (GPa) = 42.81092 49.56205 46.18648
# Shear Modulus (GPa) = 19.66176 22.05376 20.85776
#
# Velocity S-wave (km/s) = 3.52426 3.73249 3.62987
# Velocity P-wave (km/s) = 6.60337 7.06286 6.83697
#
# Compressibility (1/GPa) = 0.02335853
#
# Stress axis : x y z
#
# Youngs Moduli (GPa) = 43.82436 69.73826 87.55551
#
# Poissons Ratio (x) = 0.18793 0.58788
# Poissons Ratio (y) = 0.11810 0.28027
# Poissons Ratio (z) = 0.29425 0.22323
#
# Static dielectric constant tensor:
#      x y z
#    x 3.059390 0.000000 0.000000 
#    y 0.000000 2.928150 0.000000 
#    z 0.000000 0.000000 3.137980 
# 
# 
# High freq. dielectric constant tensor:
#      x y z
#    x 1.578970 0.000000 0.000000 
#    y 0.000000 1.589770 0.000000 
#    z 0.000000 0.000000 1.626020 
# 
# From -- ./inp_files/38716.got.cif
#   From: 2010.03.12/outbox.cif.g09.slc.cpg/sg63_20_cif.got.tgz:38716.got - 2010.04.10 19:34:48.
