data_PCOD8255044
_publ_section_title
;
Structure prediction by ZEFSAII (Michael W. Deem and Ramdas Pophale) SiO2 
 PCOD8255044
Probable space group: P N M A
;
_chemical_formula_sum "Si O2"
_cell_formula_units_Z 48
_cell_length_a 27.484031
_cell_length_b 8.451278
_cell_length_c 10.040469
_cell_angle_alpha 90.000000
_cell_angle_beta 90.000000
_cell_angle_gamma 90.000000
_cell_volume 2332.151810
_symmetry_space_group_name_H-M "P N M A"
_symmetry_group_IT_number 62
_symmetry_cell_setting 'orthorhombic'
loop_
_space_group_symop_operation_xyz
x,y,z
1/2-x,-y,1/2+z
1/2+x,1/2-y,1/2-z
-x,1/2+y,-z
-x,-y,-z
1/2+x,y,1/2-z
1/2-x,1/2+y,1/2+z
x,1/2-y,z
loop_
_atom_site_type_symbol
_atom_site_label
_atom_site_fract_x
_atom_site_fract_y
_atom_site_fract_z
Si Si1 0.037844 0.436650 0.606045
Si Si2 0.037437 0.562746 0.893303
Si Si3 0.854288 0.565326 0.470390
Si Si4 0.179640 0.565020 0.258172
Si Si5 0.285632 0.064795 0.247096
Si Si6 0.142509 0.562350 0.975021
O O1 0.035317 0.250000 0.607799
O O2 0.021911 0.502609 0.748673
O O3 0.092046 0.495210 0.569101
O O4 0.000000 0.500000 0.500000
O O5 0.037560 0.750000 0.894392
O O6 0.090416 0.493531 0.931062
O O7 0.000000 0.500000 0.000000
O O8 0.847696 0.750000 0.439205
O O9 0.845710 0.534058 0.625668
O O10 0.814595 0.465954 0.389026
O O11 0.169683 0.750000 0.280364
O O12 0.236906 0.536234 0.249450
O O13 0.155385 0.501764 0.122134
O O14 0.273290 0.250000 0.259006
O O15 0.317314 0.001450 0.370972
O O16 0.141598 0.750000 0.971473
#
# Coordination Sequence:
#
# PCOD8255044 Si02
#       6
#     8   8   8   8   8   8
#     4  11  25  44  67  95 127 167 212 263 318 378
#     4  11  23  43  67  95 126 165 211 259 315 378
#     4  11  24  42  62  92 129 166 212 262 311 373
#     4  11  23  39  62  94 128 168 210 256 311 373
#     4  11  21  40  66  92 124 167 211 258 316 373
#     4   9  21  40  62  88 124 163 204 252 311 373
#
# _framework density 20.581852000000001
#
# number of rings (size 3 to 8) (size 9 to 14) (size 15 to 20)
#    0.000    1.333    1.667    3.500    2.333    3.333 
#    0.000    5.000    0.000    0.000    0.000    0.000 
#    0.000    0.000    0.000    0.000    0.000    0.000 
#
# Total GULP energy -595514.709371 kJ/mol
# GULP energy per Si atom -12406.556445 kJ/mol
# Density = 2.053501 g / cm^3
# Si number density = 20.581852 Si / 1000 Ang^3
#
#
#
# Elastic Constant Matrix: (Units=GPa)
#
#
# Indices 1 2 3 4 5 6 
#
# 1 113.6488 21.5104 60.0826 0.0000 0.0000 0.0000
# 2 21.5104 48.6008 17.2890 0.0000 0.0000 0.0000
# 3 60.0826 17.2890 171.3890 0.0000 0.0000 0.0000
# 4 0.0000 0.0000 0.0000 33.5481 0.0000 0.0000
# 5 0.0000 0.0000 0.0000 0.0000 45.7355 0.0000
# 6 0.0000 0.0000 0.0000 0.0000 0.0000 29.8076
#
#
#
# Elastic Compliance Matrix: (Units=1/GPa)
#
#
# Indices 1 2 3 4 5 6 
#
# 1 0.011430 -0.003769 -0.003627 0.000000 0.000000 0.000000
# 2 -0.003769 0.022584 -0.000957 0.000000 0.000000 0.000000
# 3 -0.003627 -0.000957 0.007203 0.000000 0.000000 0.000000
# 4 0.000000 0.000000 0.000000 0.029808 0.000000 0.000000
# 5 0.000000 0.000000 0.000000 0.000000 0.021865 0.000000
# 6 0.000000 0.000000 0.000000 0.000000 0.000000 0.033548
#
#
# Mechanical properties :
#
#
# Convention : Reuss Voigt Hill
#
# Bulk Modulus (GPa) = 40.79658 59.04474 49.92066
# Shear Modulus (GPa) = 33.04413 37.46869 35.25641
#
# Velocity S-wave (km/s) = 4.01121 4.27133 4.14331
# Velocity P-wave (km/s) = 6.42789 7.28531 6.86999
#
# Compressibility (1/GPa) = 0.02451186
#
# Stress axis : x y z
#
# Youngs Moduli (GPa) = 87.49209 44.27872 138.83888
#
# Poissons Ratio (x) = 0.16687 0.50352
# Poissons Ratio (y) = 0.32972 0.13288
# Poissons Ratio (z) = 0.31730 0.04238
#
# Static dielectric constant tensor:
#      x y z
#    x 3.970020 0.000000 0.000000 
#    y 0.000000 3.538660 0.000000 
#    z 0.000000 0.000000 3.920240 
# 
# 
# High freq. dielectric constant tensor:
#      x y z
#    x 1.814840 0.000000 0.000000 
#    y 0.000000 1.797270 0.000000 
#    z 0.000000 0.000000 1.822970 
# 
# From -- ./inp_files/10186.got.cif
#   From: 2010.03.12/outbox.cif.g09.slc.cpg/sg62_6_cif.got.tgz:10186.got - 2010.04.10 19:12:36.
