data_PCOD8255999
_publ_section_title
;
Structure prediction by ZEFSAII (Michael W. Deem and Ramdas Pophale) SiO2 
 PCOD8255999
Probable space group: C M C M
;
_chemical_formula_sum "Si O2"
_cell_formula_units_Z 72
_cell_length_a 15.603662
_cell_length_b 28.696261
_cell_length_c 8.917667
_cell_angle_alpha 90.000000
_cell_angle_beta 90.000000
_cell_angle_gamma 90.000000
_cell_volume 3993.034835
_symmetry_space_group_name_H-M "C M C M"
_symmetry_group_IT_number 63
_symmetry_cell_setting 'orthorhombic'
loop_
_space_group_symop_operation_xyz
x,y,z
-x,-y,1/2+z
x,-y,-z
-x,y,1/2-z
-x,-y,-z
x,y,1/2-z
-x,y,z
x,-y,1/2+z
1/2+x,1/2+y,z
1/2-x,1/2-y,1/2+z
1/2+x,1/2-y,-z
1/2-x,1/2+y,1/2-z
1/2-x,1/2-y,-z
1/2+x,1/2+y,1/2-z
1/2-x,1/2+y,z
1/2+x,1/2-y,1/2+z
loop_
_atom_site_type_symbol
_atom_site_label
_atom_site_fract_x
_atom_site_fract_y
_atom_site_fract_z
Si Si1 0.331620 0.548675 0.423718
Si Si2 0.094894 0.798483 0.928422
Si Si3 0.752585 0.357921 0.922517
Si Si4 0.096371 0.693370 0.573904
Si Si5 0.500000 0.551115 0.929117
O O1 0.304093 0.500000 0.500000
O O2 0.353781 0.539050 0.250000
O O3 0.255747 0.586188 0.441025
O O4 0.413236 0.573473 0.504965
O O5 0.091939 0.800927 0.750000
O O6 0.169202 0.831960 0.993151
O O7 0.115924 0.745867 0.981639
O O8 0.000000 0.813272 0.989564
O O9 0.759510 0.343565 0.750000
O O10 0.839360 0.343227 0.001750
O O11 0.108055 0.690425 0.750000
O O12 0.000000 0.679201 0.527121
O O13 0.500000 0.551547 0.750000
O O14 0.500000 0.500000 0.000000
#
# Coordination Sequence:
#
# PCOD8255999 Si02
#       5
#    16  16  16  16   8
#     4  10  20  33  49  71  99 132 169 205 249 295
#     4   8  15  29  49  73 102 134 165 196 237 294
#     4  10  20  31  51  77  98 130 170 207 246 290
#     4   9  18  33  52  73  99 132 165 201 250 300
#     4  10  18  30  48  68  94 130 166 200 242 288
#
# _framework density 18.031397999999999
#
# number of rings (size 3 to 8) (size 9 to 14) (size 15 to 20)
#    0.000    2.667    0.000    5.000    1.556    2.222 
#    0.000    0.000    0.000    2.000    0.000    0.000 
#    0.000    0.000    0.000    0.000    0.000    0.000 
#
# Total GULP energy -446167.503205 kJ/mol
# GULP energy per Si atom -12393.541756 kJ/mol
# Density = 1.799036 g / cm^3
# Si number density = 18.031398 Si / 1000 Ang^3
#
#
#
# Elastic Constant Matrix: (Units=GPa)
#
#
# Indices 1 2 3 4 5 6 
#
# 1 119.8964 66.8390 41.5461 0.0000 0.0000 0.0000
# 2 66.8390 89.5028 37.3681 0.0000 0.0000 0.0000
# 3 41.5461 37.3681 72.6792 0.0000 0.0000 0.0000
# 4 0.0000 0.0000 0.0000 21.6773 0.0000 0.0000
# 5 0.0000 0.0000 0.0000 0.0000 29.4913 0.0000
# 6 0.0000 0.0000 0.0000 0.0000 0.0000 28.1238
#
#
#
# Elastic Compliance Matrix: (Units=1/GPa)
#
#
# Indices 1 2 3 4 5 6 
#
# 1 0.014987 -0.009697 -0.003582 0.000000 0.000000 0.000000
# 2 -0.009697 0.020501 -0.004997 0.000000 0.000000 0.000000
# 3 -0.003582 -0.004997 0.018376 0.000000 0.000000 0.000000
# 4 0.000000 0.000000 0.000000 0.046131 0.000000 0.000000
# 5 0.000000 0.000000 0.000000 0.000000 0.033908 0.000000
# 6 0.000000 0.000000 0.000000 0.000000 0.000000 0.035557
#
#
# Mechanical properties :
#
#
# Convention : Reuss Voigt Hill
#
# Bulk Modulus (GPa) = 57.76292 63.73166 60.74729
# Shear Modulus (GPa) = 23.60903 24.94684 24.27793
#
# Velocity S-wave (km/s) = 3.62239 3.72361 3.67335
# Velocity P-wave (km/s) = 7.04271 7.34225 7.19404
#
# Compressibility (1/GPa) = 0.01731214
#
# Stress axis : x y z
#
# Youngs Moduli (GPa) = 66.72257 48.77859 54.41904
#
# Poissons Ratio (x) = 0.47300 0.19491
# Poissons Ratio (y) = 0.64701 0.27195
# Poissons Ratio (z) = 0.23898 0.24377
#
# Static dielectric constant tensor:
#      x y z
#    x 3.594020 0.000000 0.000000 
#    y 0.000000 3.228430 0.000000 
#    z 0.000000 0.000000 3.095950 
# 
# 
# High freq. dielectric constant tensor:
#      x y z
#    x 1.687630 0.000000 0.000000 
#    y 0.000000 1.689560 0.000000 
#    z 0.000000 0.000000 1.677240 
# 
# From -- ./inp_files/4908.got.cif
#   From: 2010.03.12/outbox.cif.g09.slc.cpg/sg63_3_cif.got.tgz:4908.got - 2010.04.10 19:34:48.
