data_PCOD8255782
_publ_section_title
;
Structure prediction by ZEFSAII (Michael W. Deem and Ramdas Pophale) SiO2 
 PCOD8255782
Probable space group: C M C M
;
_chemical_formula_sum "Si O2"
_cell_formula_units_Z 80
_cell_length_a 25.391062
_cell_length_b 20.765508
_cell_length_c 8.620969
_cell_angle_alpha 90.000000
_cell_angle_beta 90.000000
_cell_angle_gamma 90.000000
_cell_volume 4545.477469
_symmetry_space_group_name_H-M "C M C M"
_symmetry_group_IT_number 63
_symmetry_cell_setting 'orthorhombic'
loop_
_space_group_symop_operation_xyz
x,y,z
-x,-y,1/2+z
x,-y,-z
-x,y,1/2-z
-x,-y,-z
x,y,1/2-z
-x,y,z
x,-y,1/2+z
1/2+x,1/2+y,z
1/2-x,1/2-y,1/2+z
1/2+x,1/2-y,-z
1/2-x,1/2+y,1/2-z
1/2-x,1/2-y,-z
1/2+x,1/2+y,1/2-z
1/2-x,1/2+y,z
1/2+x,1/2-y,1/2+z
loop_
_atom_site_type_symbol
_atom_site_label
_atom_site_fract_x
_atom_site_fract_y
_atom_site_fract_z
Si Si1 0.000000 0.742568 0.568617
Si Si2 0.278835 0.811788 0.065663
Si Si3 0.108579 0.118517 0.066148
Si Si4 0.112786 0.735008 0.568808
Si Si5 0.713656 0.433203 0.433639
Si Si6 0.500000 0.619528 0.569012
O O1 0.054568 0.703983 0.532476
O O2 0.000000 0.764848 0.750000
O O3 0.000000 0.804464 0.460915
O O4 0.275431 0.810140 0.250000
O O5 0.339640 0.808895 0.003064
O O6 0.251560 0.876469 0.002033
O O7 0.250000 0.750000 0.000000
O O8 0.111362 0.113959 0.250000
O O9 0.115350 0.191993 0.004182
O O10 0.154489 0.076031 0.993049
O O11 0.052693 0.089831 0.008161
O O12 0.121780 0.739892 0.750000
O O13 0.736217 0.500000 0.500000
O O14 0.713956 0.435302 0.250000
O O15 0.500000 0.604194 0.750000
#
# Coordination Sequence:
#
# PCOD8255782 Si02
#       6
#     8  16  16  16  16   8
#     4   8  14  26  44  69 100 131 161 197 254 304
#     4  10  19  32  51  76 101 129 168 210 253 303
#     4  10  18  32  52  71  97 132 170 209 255 299
#     4   8  14  26  47  73  99 126 158 202 247 297
#     4  11  23  36  51  72 101 135 172 211 256 306
#     4  10  18  28  45  71 102 131 167 209 248 292
#
# _framework density 17.599910999999999
#
# number of rings (size 3 to 8) (size 9 to 14) (size 15 to 20)
#    0.000    2.400    2.000    3.300    0.000    0.800 
#    0.000    0.500    0.000    0.000    0.000    0.700 
#    0.000    0.000    0.000    0.000    0.000    0.000 
#
# Total GULP energy -495631.405235 kJ/mol
# GULP energy per Si atom -12390.785131 kJ/mol
# Density = 1.755985 g / cm^3
# Si number density = 17.599911 Si / 1000 Ang^3
#
#
#
# Elastic Constant Matrix: (Units=GPa)
#
#
# Indices 1 2 3 4 5 6 
#
# 1 153.5438 62.2313 18.9460 0.0000 0.0000 0.0000
# 2 62.2313 92.5562 22.9835 0.0000 0.0000 0.0000
# 3 18.9460 22.9835 48.8407 0.0000 0.0000 0.0000
# 4 0.0000 0.0000 0.0000 16.1115 0.0000 0.0000
# 5 0.0000 0.0000 0.0000 0.0000 19.4111 0.0000
# 6 0.0000 0.0000 0.0000 0.0000 0.0000 19.8215
#
#
#
# Elastic Compliance Matrix: (Units=1/GPa)
#
#
# Indices 1 2 3 4 5 6 
#
# 1 0.008975 -0.005854 -0.000727 0.000000 0.000000 0.000000
# 2 -0.005854 0.016052 -0.005283 0.000000 0.000000 0.000000
# 3 -0.000727 -0.005283 0.023243 0.000000 0.000000 0.000000
# 4 0.000000 0.000000 0.000000 0.062067 0.000000 0.000000
# 5 0.000000 0.000000 0.000000 0.000000 0.051517 0.000000
# 6 0.000000 0.000000 0.000000 0.000000 0.000000 0.050450
#
#
# Mechanical properties :
#
#
# Convention : Reuss Voigt Hill
#
# Bulk Modulus (GPa) = 40.74578 55.91801 48.33189
# Shear Modulus (GPa) = 20.47393 23.78748 22.13070
#
# Velocity S-wave (km/s) = 3.41441 3.68036 3.54988
# Velocity P-wave (km/s) = 6.22460 7.06405 6.65757
#
# Compressibility (1/GPa) = 0.02454242
#
# Stress axis : x y z
#
# Youngs Moduli (GPa) = 111.41904 62.29692 43.02421
#
# Poissons Ratio (x) = 0.36469 0.03127
# Poissons Ratio (y) = 0.65225 0.22730
# Poissons Ratio (z) = 0.08098 0.32911
#
# Static dielectric constant tensor:
#      x y z
#    x 4.039070 0.000000 0.000000 
#    y 0.000000 3.109930 0.000000 
#    z 0.000000 0.000000 3.081190 
# 
# 
# High freq. dielectric constant tensor:
#      x y z
#    x 1.700990 0.000000 0.000000 
#    y 0.000000 1.627220 0.000000 
#    z 0.000000 0.000000 1.667180 
# 
# From -- ./inp_files/10128.got.cif
#   From: 2010.03.12/outbox.cif.g09.slc.cpg/sg63_6_cif.got.tgz:10128.got - 2010.04.10 19:34:48.
