data_PCOD8255553
_publ_section_title
;
Structure prediction by ZEFSAII (Michael W. Deem and Ramdas Pophale) SiO2 
 PCOD8255553
Probable space group: C M C M
;
_chemical_formula_sum "Si O2"
_cell_formula_units_Z 128
_cell_length_a 23.317115
_cell_length_b 19.155475
_cell_length_c 17.684364
_cell_angle_alpha 90.000000
_cell_angle_beta 90.000000
_cell_angle_gamma 90.000000
_cell_volume 7898.728492
_symmetry_space_group_name_H-M "C M C M"
_symmetry_group_IT_number 63
_symmetry_cell_setting 'orthorhombic'
loop_
_space_group_symop_operation_xyz
x,y,z
-x,-y,1/2+z
x,-y,-z
-x,y,1/2-z
-x,-y,-z
x,y,1/2-z
-x,y,z
x,-y,1/2+z
1/2+x,1/2+y,z
1/2-x,1/2-y,1/2+z
1/2+x,1/2-y,-z
1/2-x,1/2+y,1/2-z
1/2-x,1/2-y,-z
1/2+x,1/2+y,1/2-z
1/2-x,1/2+y,z
1/2+x,1/2-y,1/2+z
loop_
_atom_site_type_symbol
_atom_site_label
_atom_site_fract_x
_atom_site_fract_y
_atom_site_fract_z
Si Si1 0.066040 0.005645 0.411541
Si Si2 0.884481 0.142127 0.162006
Si Si3 0.249417 0.642633 0.337964
Si Si4 0.336491 0.884746 0.339780
Si Si5 0.730886 0.294211 0.338406
Si Si6 0.228798 0.497498 0.589192
Si Si7 0.063853 0.287353 0.160238
Si Si8 0.835855 0.925834 0.161166
O O1 0.085505 0.081475 0.384854
O O2 0.000000 0.993227 0.390444
O O3 0.077216 0.000000 0.500000
O O4 0.101856 0.944839 0.370237
O O5 0.898984 0.131076 0.250000
O O6 0.817105 0.141715 0.147604
O O7 0.909753 0.214823 0.130593
O O8 0.234969 0.631957 0.250000
O O9 0.224032 0.715944 0.370985
O O10 0.218863 0.581987 0.385203
O O11 0.332119 0.896441 0.250000
O O12 0.288162 0.831013 0.369468
O O13 0.397659 0.853336 0.365187
O O14 0.325694 0.958297 0.381163
O O15 0.740268 0.284487 0.250000
O O16 0.676497 0.343980 0.356873
O O17 0.232906 0.500000 0.500000
O O18 0.288061 0.525053 0.624169
O O19 0.063159 0.284082 0.250000
O O20 0.000000 0.297747 0.127159
O O21 0.833157 0.940702 0.250000
#
# Coordination Sequence:
#
# PCOD8255553 Si02
#       8
#    16  16  16  16  16  16  16  16
#     4  11  23  35  46  65  98 135 165 196 232 271
#     4  10  18  29  48  72  96 122 155 193 235 288
#     4  10  17  29  49  71  93 124 154 186 236 289
#     4   9  16  30  48  68  94 124 152 189 232 279
#     4   8  15  28  47  68  91 116 150 191 234 278
#     4  11  21  31  45  68  99 127 159 192 229 277
#     4   9  16  27  47  74  97 117 148 193 243 287
#     4  10  19  33  51  69  90 123 161 200 237 277
#
# _framework density 16.20514
#
# number of rings (size 3 to 8) (size 9 to 14) (size 15 to 20)
#    0.000    2.250    2.500    3.000    0.000    1.500 
#    0.000    3.750    0.000    0.375    0.000    0.875 
#    0.000    3.000    0.000    0.000    0.000    0.000 
#
# Total GULP energy -793439.984077 kJ/mol
# GULP energy per Si atom -12397.499751 kJ/mol
# Density = 1.616826 g / cm^3
# Si number density = 16.205140 Si / 1000 Ang^3
#
#
#
# Elastic Constant Matrix: (Units=GPa)
#
#
# Indices 1 2 3 4 5 6 
#
# 1 87.9375 64.9658 36.5109 0.0000 0.0000 0.0000
# 2 64.9658 142.1956 48.0123 0.0000 0.0000 0.0000
# 3 36.5109 48.0123 66.2013 0.0000 0.0000 0.0000
# 4 0.0000 0.0000 0.0000 0.8319 0.0000 0.0000
# 5 0.0000 0.0000 0.0000 0.0000 16.9413 0.0000
# 6 0.0000 0.0000 0.0000 0.0000 0.0000 27.7418
#
#
#
# Elastic Compliance Matrix: (Units=1/GPa)
#
#
# Indices 1 2 3 4 5 6 
#
# 1 0.018516 -0.006637 -0.005399 0.000000 0.000000 0.000000
# 2 -0.006637 0.011692 -0.004819 0.000000 0.000000 0.000000
# 3 -0.005399 -0.004819 0.021578 0.000000 0.000000 0.000000
# 4 0.000000 0.000000 0.000000 1.202043 0.000000 0.000000
# 5 0.000000 0.000000 0.000000 0.000000 0.059027 0.000000
# 6 0.000000 0.000000 0.000000 0.000000 0.000000 0.036047
#
#
# Mechanical properties :
#
#
# Convention : Reuss Voigt Hill
#
# Bulk Modulus (GPa) = 55.31947 66.14584 60.73265
# Shear Modulus (GPa) = 3.60065 18.89269 11.24667
#
# Velocity S-wave (km/s) = 1.49223 3.41815 2.63728
# Velocity P-wave (km/s) = 6.09755 7.51564 6.84342
#
# Compressibility (1/GPa) = 0.01807682
#
# Stress axis : x y z
#
# Youngs Moduli (GPa) = 54.00652 85.52862 46.34331
#
# Poissons Ratio (x) = 0.56764 0.25019
# Poissons Ratio (y) = 0.35843 0.22334
# Poissons Ratio (z) = 0.29156 0.41219
#
# Static dielectric constant tensor:
#      x y z
#    x 3.060820 0.000000 0.000000 
#    y 0.000000 3.345880 0.000000 
#    z 0.000000 0.000000 2.807870 
# 
# 
# High freq. dielectric constant tensor:
#      x y z
#    x 1.600400 0.000000 0.000000 
#    y 0.000000 1.631450 0.000000 
#    z 0.000000 0.000000 1.595760 
# 
# From -- ./inp_files/48450.got.cif
#   From: 2010.03.12/outbox.cif.g09.slc.cpg/sg63_25_cif.got.tgz:48450.got - 2010.04.10 19:34:48.
