data_PCOD8255697
_publ_section_title
;
Structure prediction by ZEFSAII (Michael W. Deem and Ramdas Pophale) SiO2 
 PCOD8255697
Probable space group: C M C M
;
_chemical_formula_sum "Si O2"
_cell_formula_units_Z 80
_cell_length_a 23.760013
_cell_length_b 24.146233
_cell_length_c 9.066851
_cell_angle_alpha 90.000000
_cell_angle_beta 90.000000
_cell_angle_gamma 90.000000
_cell_volume 5201.786699
_symmetry_space_group_name_H-M "C M C M"
_symmetry_group_IT_number 63
_symmetry_cell_setting 'orthorhombic'
loop_
_space_group_symop_operation_xyz
x,y,z
-x,-y,1/2+z
x,-y,-z
-x,y,1/2-z
-x,-y,-z
x,y,1/2-z
-x,y,z
x,-y,1/2+z
1/2+x,1/2+y,z
1/2-x,1/2-y,1/2+z
1/2+x,1/2-y,-z
1/2-x,1/2+y,1/2-z
1/2-x,1/2-y,-z
1/2+x,1/2+y,1/2-z
1/2-x,1/2+y,z
1/2+x,1/2-y,1/2+z
loop_
_atom_site_type_symbol
_atom_site_label
_atom_site_fract_x
_atom_site_fract_y
_atom_site_fract_z
Si Si1 0.881901 0.945085 0.078312
Si Si2 0.266895 0.163848 0.420628
Si Si3 0.330264 0.271678 0.079565
Si Si4 0.438012 0.333612 0.075554
Si Si5 0.749385 0.444400 0.422104
O O1 0.892560 0.952947 0.250000
O O2 0.915366 0.892330 0.014317
O O3 0.816339 0.935893 0.043839
O O4 0.905103 0.000000 0.000000
O O5 0.258084 0.149047 0.250000
O O6 0.318670 0.206541 0.443590
O O7 0.210105 0.191596 0.479403
O O8 0.281905 0.108150 0.509252
O O9 0.319542 0.289085 0.250000
O O10 0.394610 0.284614 0.032151
O O11 0.442039 0.338034 0.250000
O O12 0.500000 0.320937 0.008613
O O13 0.771780 0.500000 0.500000
O O14 0.762721 0.448369 0.250000
#
# Coordination Sequence:
#
# PCOD8255697 Si02
#       5
#    16  16  16  16  16
#     4   9  17  28  41  57  79 108 143 180 212 245
#     4  10  18  27  44  65  86 112 142 176 217 261
#     4   9  17  30  44  62  85 111 145 181 216 257
#     4   9  16  28  45  61  80 110 147 184 218 250
#     4  10  18  29  44  63  89 114 142 177 215 256
#
# _framework density 15.379331000000001
#
# number of rings (size 3 to 8) (size 9 to 14) (size 15 to 20)
#    0.000    2.600    2.000    1.200    0.000    2.000 
#    0.000    0.000    0.000    1.800    0.000    0.000 
#    0.000    0.800    0.000    1.400    0.000    2.000 
#
# Total GULP energy -495897.817263 kJ/mol
# GULP energy per Si atom -12397.445432 kJ/mol
# Density = 1.534433 g / cm^3
# Si number density = 15.379331 Si / 1000 Ang^3
#
#
#
# Elastic Constant Matrix: (Units=GPa)
#
#
# Indices 1 2 3 4 5 6 
#
# 1 74.0937 55.9322 21.9891 0.0000 0.0000 0.0000
# 2 55.9322 127.2972 50.9796 0.0000 0.0000 0.0000
# 3 21.9891 50.9796 61.8087 0.0000 0.0000 0.0000
# 4 0.0000 0.0000 0.0000 28.7444 0.0000 0.0000
# 5 0.0000 0.0000 0.0000 0.0000 10.1656 0.0000
# 6 0.0000 0.0000 0.0000 0.0000 0.0000 21.3575
#
#
#
# Elastic Compliance Matrix: (Units=1/GPa)
#
#
# Indices 1 2 3 4 5 6 
#
# 1 0.020196 -0.008954 0.000200 0.000000 0.000000 0.000000
# 2 -0.008954 0.015700 -0.009764 0.000000 0.000000 0.000000
# 3 0.000200 -0.009764 0.024161 0.000000 0.000000 0.000000
# 4 0.000000 0.000000 0.000000 0.034789 0.000000 0.000000
# 5 0.000000 0.000000 0.000000 0.000000 0.098371 0.000000
# 6 0.000000 0.000000 0.000000 0.000000 0.000000 0.046822
#
#
# Mechanical properties :
#
#
# Convention : Reuss Voigt Hill
#
# Bulk Modulus (GPa) = 43.43687 57.88901 50.66294
# Shear Modulus (GPa) = 17.55935 21.00677 19.28306
#
# Velocity S-wave (km/s) = 3.38264 3.69983 3.54479
# Velocity P-wave (km/s) = 6.60010 7.48159 7.05463
#
# Compressibility (1/GPa) = 0.02302192
#
# Stress axis : x y z
#
# Youngs Moduli (GPa) = 49.51398 63.69373 41.38912
#
# Poissons Ratio (x) = 0.57032 -0.00829
# Poissons Ratio (y) = 0.44335 0.40412
# Poissons Ratio (z) = -0.00992 0.62190
#
# Static dielectric constant tensor:
#      x y z
#    x 2.869790 0.000000 0.000000 
#    y 0.000000 3.122790 0.000000 
#    z 0.000000 0.000000 2.869140 
# 
# 
# High freq. dielectric constant tensor:
#      x y z
#    x 1.545600 0.000000 0.000000 
#    y 0.000000 1.593020 0.000000 
#    z 0.000000 0.000000 1.581560 
# 
# From -- ./inp_files/14304.got.cif
#   From: 2010.03.12/outbox.cif.g09.slc.cpg/sg63_8_cif.got.tgz:14304.got - 2010.04.10 19:34:48.
