data_PCOD8255941
_publ_section_title
;
Structure prediction by ZEFSAII (Michael W. Deem and Ramdas Pophale) SiO2 
 PCOD8255941
Probable space group: C M C M
;
_chemical_formula_sum "Si O2"
_cell_formula_units_Z 112
_cell_length_a 27.507277
_cell_length_b 14.554708
_cell_length_c 14.263196
_cell_angle_alpha 90.000000
_cell_angle_beta 90.000000
_cell_angle_gamma 90.000000
_cell_volume 5710.418636
_symmetry_space_group_name_H-M "C M C M"
_symmetry_group_IT_number 63
_symmetry_cell_setting 'orthorhombic'
loop_
_space_group_symop_operation_xyz
x,y,z
-x,-y,1/2+z
x,-y,-z
-x,y,1/2-z
-x,-y,-z
x,y,1/2-z
-x,y,z
x,-y,1/2+z
1/2+x,1/2+y,z
1/2-x,1/2-y,1/2+z
1/2+x,1/2-y,-z
1/2-x,1/2+y,1/2-z
1/2-x,1/2-y,-z
1/2+x,1/2+y,1/2-z
1/2-x,1/2+y,z
1/2+x,1/2-y,1/2+z
loop_
_atom_site_type_symbol
_atom_site_label
_atom_site_fract_x
_atom_site_fract_y
_atom_site_fract_z
Si Si1 0.944532 0.236119 0.142703
Si Si2 0.637631 0.756686 0.496799
Si Si3 0.281466 0.221771 0.856357
Si Si4 0.355515 0.564131 0.909586
Si Si5 0.947644 0.977857 0.609447
Si Si6 0.306970 0.846187 0.852898
Si Si7 0.749948 0.975748 0.392656
O O1 0.929791 0.263043 0.250000
O O2 0.000000 0.267020 0.123389
O O3 0.938277 0.128270 0.129018
O O4 0.910316 0.283829 0.063635
O O5 0.679172 0.730575 0.422256
O O6 0.633044 0.669031 0.563906
O O7 0.651889 0.843144 0.565382
O O8 0.295536 0.245066 0.750000
O O9 0.229006 0.263160 0.881499
O O10 0.282938 0.112986 0.874382
O O11 0.401917 0.532969 0.845937
O O12 0.304478 0.547866 0.854469
O O13 0.354340 0.500000 0.000000
O O14 0.000000 0.006143 0.654403
O O15 0.949728 0.000000 0.500000
O O16 0.330246 0.828360 0.750000
O O17 0.276185 0.939623 0.842531
O O18 0.753025 0.000000 0.500000
#
# Coordination Sequence:
#
# PCOD8255941 Si02
#       7
#    16  16  16  16  16  16  16
#     4  10  21  36  57  86 115 148 194 245 296 349
#     4  12  20  37  57  79 118 152 188 241 290 340
#     4  11  22  36  55  82 111 150 197 240 288 344
#     4  10  18  29  54  76 103 152 197 224 275 338
#     4   9  16  30  50  75 107 146 189 231 276 330
#     4  11  24  38  55  81 115 153 199 244 283 341
#     4  11  20  36  56  76 114 156 193 237 289 340
#
# _framework density 19.613271999999998
#
# number of rings (size 3 to 8) (size 9 to 14) (size 15 to 20)
#    0.000    1.429    5.714    3.000    0.000    0.000 
#    0.000    1.429    0.000    0.429    0.000    2.000 
#    0.000    2.286    0.000    0.000    0.000    0.000 
#
# Total GULP energy -693862.590789 kJ/mol
# GULP energy per Si atom -12390.403407 kJ/mol
# Density = 1.956863 g / cm^3
# Si number density = 19.613272 Si / 1000 Ang^3
#
#
#
# Elastic Constant Matrix: (Units=GPa)
#
#
# Indices 1 2 3 4 5 6 
#
# 1 118.4485 21.1970 54.2695 0.0000 0.0000 0.0000
# 2 21.1970 64.1707 10.6417 0.0000 0.0000 0.0000
# 3 54.2695 10.6417 87.2156 0.0000 0.0000 0.0000
# 4 0.0000 0.0000 0.0000 16.2449 0.0000 0.0000
# 5 0.0000 0.0000 0.0000 0.0000 14.1988 0.0000
# 6 0.0000 0.0000 0.0000 0.0000 0.0000 25.9477
#
#
#
# Elastic Compliance Matrix: (Units=1/GPa)
#
#
# Indices 1 2 3 4 5 6 
#
# 1 0.012300 -0.002851 -0.007306 0.000000 0.000000 0.000000
# 2 -0.002851 0.016566 -0.000247 0.000000 0.000000 0.000000
# 3 -0.007306 -0.000247 0.016042 0.000000 0.000000 0.000000
# 4 0.000000 0.000000 0.000000 0.061558 0.000000 0.000000
# 5 0.000000 0.000000 0.000000 0.000000 0.070428 0.000000
# 6 0.000000 0.000000 0.000000 0.000000 0.000000 0.038539
#
#
# Mechanical properties :
#
#
# Convention : Reuss Voigt Hill
#
# Bulk Modulus (GPa) = 41.49408 49.11682 45.30545
# Shear Modulus (GPa) = 20.46874 23.52673 21.99773
#
# Velocity S-wave (km/s) = 3.23401 3.46718 3.35262
# Velocity P-wave (km/s) = 5.92850 6.41291 6.17546
#
# Compressibility (1/GPa) = 0.02409982
#
# Stress axis : x y z
#
# Youngs Moduli (GPa) = 81.30061 60.36354 62.33662
#
# Poissons Ratio (x) = 0.17212 0.45541
# Poissons Ratio (y) = 0.23182 0.01540
# Poissons Ratio (z) = 0.59396 0.01491
#
# Static dielectric constant tensor:
#      x y z
#    x 4.432620 0.000000 0.000000 
#    y 0.000000 3.262950 0.000000 
#    z 0.000000 0.000000 4.077550 
# 
# 
# High freq. dielectric constant tensor:
#      x y z
#    x 1.753960 0.000000 0.000000 
#    y 0.000000 1.729910 0.000000 
#    z 0.000000 0.000000 1.766950 
# 
# From -- ./inp_files/37949.got.cif
#   From: 2010.03.12/outbox.cif.g09.slc.cpg/sg63_19_cif.got.tgz:37949.got - 2010.04.10 19:34:48.
