data_PCOD8255450
_publ_section_title
;
Structure prediction by ZEFSAII (Michael W. Deem and Ramdas Pophale) SiO2 
 PCOD8255450
Probable space group: C M C M
;
_chemical_formula_sum "Si O2"
_cell_formula_units_Z 96
_cell_length_a 9.189010
_cell_length_b 27.871232
_cell_length_c 22.669425
_cell_angle_alpha 90.000000
_cell_angle_beta 90.000000
_cell_angle_gamma 90.000000
_cell_volume 5805.844437
_symmetry_space_group_name_H-M "C M C M"
_symmetry_group_IT_number 63
_symmetry_cell_setting 'orthorhombic'
loop_
_space_group_symop_operation_xyz
x,y,z
-x,-y,1/2+z
x,-y,-z
-x,y,1/2-z
-x,-y,-z
x,y,1/2-z
-x,y,z
x,-y,1/2+z
1/2+x,1/2+y,z
1/2-x,1/2-y,1/2+z
1/2+x,1/2-y,-z
1/2-x,1/2+y,1/2-z
1/2-x,1/2-y,-z
1/2+x,1/2+y,1/2-z
1/2-x,1/2+y,z
1/2+x,1/2-y,1/2+z
loop_
_atom_site_type_symbol
_atom_site_label
_atom_site_fract_x
_atom_site_fract_y
_atom_site_fract_z
Si Si1 0.327048 0.375024 0.750000
Si Si2 0.328041 0.143013 0.546440
Si Si3 0.673220 0.264341 0.750000
Si Si4 0.334352 0.800698 0.565334
Si Si5 0.828091 0.721001 0.869843
Si Si6 0.833814 0.396442 0.634884
Si Si7 0.326398 0.051821 0.483188
O O1 0.500000 0.378441 0.750000
O O2 0.273223 0.319433 0.750000
O O3 0.266222 0.402598 0.807447
O O4 0.500000 0.139775 0.539476
O O5 0.271927 0.178901 0.495880
O O6 0.284985 0.166262 0.610084
O O7 0.267214 0.089481 0.533212
O O8 0.500000 0.263483 0.750000
O O9 0.736365 0.234956 0.693967
O O10 0.500000 0.782641 0.559820
O O11 0.232255 0.756728 0.581329
O O12 0.322670 0.841567 0.614863
O O13 0.000000 0.726937 0.869227
O O14 0.776910 0.431491 0.582292
O O15 0.000000 0.409505 0.651251
O O16 0.500000 0.050303 0.484260
O O17 0.260096 0.000000 0.500000
#
# Coordination Sequence:
#
# PCOD8255450 Si02
#       7
#     8  16   8  16  16  16  16
#     4  11  19  29  43  62  91 123 155 177 208 263
#     4   8  15  25  40  61  83 110 140 174 217 259
#     4   9  18  27  37  56  83 119 151 173 200 245
#     4   9  16  26  39  60  86 110 141 175 211 253
#     4  10  17  27  40  56  84 117 146 172 204 249
#     4   9  17  28  44  66  91 117 146 182 222 261
#     4   8  14  27  47  69  90 112 142 184 234 278
#
# _framework density 16.535063000000001
#
# number of rings (size 3 to 8) (size 9 to 14) (size 15 to 20)
#    0.000    3.000    1.667    2.750    0.000    0.000 
#    0.000    0.417    0.000    1.500    0.000    5.833 
#    0.000    0.000    0.000    0.000    0.000    0.000 
#
# Total GULP energy -594671.946902 kJ/mol
# GULP energy per Si atom -12388.998894 kJ/mol
# Density = 1.649743 g / cm^3
# Si number density = 16.535063 Si / 1000 Ang^3
#
#
#
# Elastic Constant Matrix: (Units=GPa)
#
#
# Indices 1 2 3 4 5 6 
#
# 1 23.2723 16.0233 20.0772 0.0000 0.0000 0.0000
# 2 16.0233 117.9731 66.3897 0.0000 0.0000 0.0000
# 3 20.0772 66.3897 93.0128 0.0000 0.0000 0.0000
# 4 0.0000 0.0000 0.0000 20.2947 0.0000 0.0000
# 5 0.0000 0.0000 0.0000 0.0000 16.2506 0.0000
# 6 0.0000 0.0000 0.0000 0.0000 0.0000 11.7012
#
#
#
# Elastic Compliance Matrix: (Units=1/GPa)
#
#
# Indices 1 2 3 4 5 6 
#
# 1 0.052916 -0.001269 -0.010516 0.000000 0.000000 0.000000
# 2 -0.001269 0.014198 -0.009860 0.000000 0.000000 0.000000
# 3 -0.010516 -0.009860 0.020059 0.000000 0.000000 0.000000
# 4 0.000000 0.000000 0.000000 0.049274 0.000000 0.000000
# 5 0.000000 0.000000 0.000000 0.000000 0.061536 0.000000
# 6 0.000000 0.000000 0.000000 0.000000 0.000000 0.085461
#
#
# Mechanical properties :
#
#
# Convention : Reuss Voigt Hill
#
# Bulk Modulus (GPa) = 22.78850 48.80429 35.79639
# Shear Modulus (GPa) = 14.64724 18.43382 16.54053
#
# Velocity S-wave (km/s) = 2.97952 3.34253 3.16623
# Velocity P-wave (km/s) = 5.06444 6.66906 5.92136
#
# Compressibility (1/GPa) = 0.04388179
#
# Stress axis : x y z
#
# Youngs Moduli (GPa) = 18.89797 70.43482 49.85334
#
# Poissons Ratio (x) = 0.08939 0.52427
# Poissons Ratio (y) = 0.02398 0.49155
# Poissons Ratio (z) = 0.19874 0.69448
#
# Static dielectric constant tensor:
#      x y z
#    x 2.693570 0.000000 0.000000 
#    y 0.000000 3.261950 0.000000 
#    z 0.000000 0.000000 3.290700 
# 
# 
# High freq. dielectric constant tensor:
#      x y z
#    x 1.593990 0.000000 0.000000 
#    y 0.000000 1.614900 0.000000 
#    z 0.000000 0.000000 1.636110 
# 
# From -- ./inp_files/60293.got.cif
#   From: 2010.03.12/outbox.cif.g09.slc.cpg/sg63_31_cif.got.tgz:60293.got - 2010.04.10 19:34:48.
