data_PCOD8255714
_publ_section_title
;
Structure prediction by ZEFSAII (Michael W. Deem and Ramdas Pophale) SiO2 
 PCOD8255714
Probable space group: C M C M
;
_chemical_formula_sum "Si O2"
_cell_formula_units_Z 88
_cell_length_a 20.983859
_cell_length_b 32.014641
_cell_length_c 9.036540
_cell_angle_alpha 90.000000
_cell_angle_beta 90.000000
_cell_angle_gamma 90.000000
_cell_volume 6070.663647
_symmetry_space_group_name_H-M "C M C M"
_symmetry_group_IT_number 63
_symmetry_cell_setting 'orthorhombic'
loop_
_space_group_symop_operation_xyz
x,y,z
-x,-y,1/2+z
x,-y,-z
-x,y,1/2-z
-x,-y,-z
x,y,1/2-z
-x,y,z
x,-y,1/2+z
1/2+x,1/2+y,z
1/2-x,1/2-y,1/2+z
1/2+x,1/2-y,-z
1/2-x,1/2+y,1/2-z
1/2-x,1/2-y,-z
1/2+x,1/2+y,1/2-z
1/2-x,1/2+y,z
1/2+x,1/2-y,1/2+z
loop_
_atom_site_type_symbol
_atom_site_label
_atom_site_fract_x
_atom_site_fract_y
_atom_site_fract_z
Si Si1 0.000000 0.954443 0.072226
Si Si2 0.875581 0.956614 0.577463
Si Si3 0.571807 0.313621 0.923438
Si Si4 0.268858 0.187319 0.583644
Si Si5 0.814556 0.127435 0.419172
Si Si6 0.348250 0.249323 0.416923
O O1 0.000000 0.954092 0.250000
O O2 0.935606 0.934571 0.005996
O O3 0.000000 0.000000 0.000000
O O4 0.892016 0.965067 0.750000
O O5 0.819273 0.922703 0.561701
O O6 0.854865 0.000000 0.500000
O O7 0.575253 0.305192 0.750000
O O8 0.500000 0.325763 0.972716
O O9 0.619069 0.351070 0.970823
O O10 0.591869 0.270522 0.002396
O O11 0.290845 0.178376 0.750000
O O12 0.245419 0.143699 0.512963
O O13 0.329289 0.205974 0.496333
O O14 0.211082 0.219559 0.576322
O O15 0.801450 0.139760 0.250000
O O16 0.367944 0.238851 0.250000
#
# Coordination Sequence:
#
# PCOD8255714 Si02
#       6
#     8  16  16  16  16  16
#     4  10  18  28  40  52  66  88 120 156 192 232
#     4  10  19  30  43  55  72  96 126 160 198 241
#     4   9  17  28  41  56  75 100 129 159 193 232
#     4   9  16  26  41  58  75  94 121 155 189 226
#     4   9  18  29  42  57  74  98 127 161 199 236
#     4   9  16  26  40  56  76  98 121 151 187 228
#
# _framework density 14.495945000000001
#
# number of rings (size 3 to 8) (size 9 to 14) (size 15 to 20)
#    0.000    2.727    0.000    3.545    1.273    6.182 
#    0.000    0.000    0.000    0.000    0.000    0.000 
#    0.000    0.000    0.000    0.000    0.000    0.909 
#
# Total GULP energy -545343.087744 kJ/mol
# GULP energy per Si atom -12394.161085 kJ/mol
# Density = 1.446295 g / cm^3
# Si number density = 14.495945 Si / 1000 Ang^3
#
#
#
# Elastic Constant Matrix: (Units=GPa)
#
#
# Indices 1 2 3 4 5 6 
#
# 1 22.5447 24.4998 16.7145 0.0000 0.0000 0.0000
# 2 24.4998 71.2028 37.8881 0.0000 0.0000 0.0000
# 3 16.7145 37.8881 84.9080 0.0000 0.0000 0.0000
# 4 0.0000 0.0000 0.0000 21.3721 0.0000 0.0000
# 5 0.0000 0.0000 0.0000 0.0000 19.2715 0.0000
# 6 0.0000 0.0000 0.0000 0.0000 0.0000 20.9642
#
#
#
# Elastic Compliance Matrix: (Units=1/GPa)
#
#
# Indices 1 2 3 4 5 6 
#
# 1 0.071913 -0.022570 -0.004085 0.000000 0.000000 0.000000
# 2 -0.022570 0.025501 -0.006936 0.000000 0.000000 0.000000
# 3 -0.004085 -0.006936 0.015677 0.000000 0.000000 0.000000
# 4 0.000000 0.000000 0.000000 0.046790 0.000000 0.000000
# 5 0.000000 0.000000 0.000000 0.000000 0.051890 0.000000
# 6 0.000000 0.000000 0.000000 0.000000 0.000000 0.047700
#
#
# Mechanical properties :
#
#
# Convention : Reuss Voigt Hill
#
# Bulk Modulus (GPa) = 21.78284 37.42890 29.60587
# Shear Modulus (GPa) = 14.62173 18.95843 16.79008
#
# Velocity S-wave (km/s) = 3.17941 3.62034 3.40701
# Velocity P-wave (km/s) = 5.34207 6.58423 5.99541
#
# Compressibility (1/GPa) = 0.04590770
#
# Stress axis : x y z
#
# Youngs Moduli (GPa) = 13.90579 39.21347 63.78882
#
# Poissons Ratio (x) = 0.88506 0.26056
# Poissons Ratio (y) = 0.31386 0.44246
# Poissons Ratio (z) = 0.05680 0.27200
#
# Static dielectric constant tensor:
#      x y z
#    x 2.677540 0.000000 0.000000 
#    y 0.000000 2.675510 0.000000 
#    z 0.000000 0.000000 2.959000 
# 
# 
# High freq. dielectric constant tensor:
#      x y z
#    x 1.502930 0.000000 0.000000 
#    y 0.000000 1.530360 0.000000 
#    z 0.000000 0.000000 1.569270 
# 
# From -- ./inp_files/8959.got.cif
#   From: 2010.03.12/outbox.cif.g09.slc.cpg/sg63_5_cif.got.tgz:8959.got - 2010.04.10 19:34:48.
