data_PCOD8255696
_publ_section_title
;
Structure prediction by ZEFSAII (Michael W. Deem and Ramdas Pophale) SiO2 
 PCOD8255696
Probable space group: C M C M
;
_chemical_formula_sum "Si O2"
_cell_formula_units_Z 80
_cell_length_a 22.313293
_cell_length_b 10.050601
_cell_length_c 13.976279
_cell_angle_alpha 90.000000
_cell_angle_beta 90.000000
_cell_angle_gamma 90.000000
_cell_volume 3134.348350
_symmetry_space_group_name_H-M "C M C M"
_symmetry_group_IT_number 63
_symmetry_cell_setting 'orthorhombic'
loop_
_space_group_symop_operation_xyz
x,y,z
-x,-y,1/2+z
x,-y,-z
-x,y,1/2-z
-x,-y,-z
x,y,1/2-z
-x,y,z
x,-y,1/2+z
1/2+x,1/2+y,z
1/2-x,1/2-y,1/2+z
1/2+x,1/2-y,-z
1/2-x,1/2+y,1/2-z
1/2-x,1/2-y,-z
1/2+x,1/2+y,1/2-z
1/2-x,1/2+y,z
1/2+x,1/2-y,1/2+z
loop_
_atom_site_type_symbol
_atom_site_label
_atom_site_fract_x
_atom_site_fract_y
_atom_site_fract_z
Si Si1 0.739956 0.317755 0.358512
Si Si2 0.432391 0.172178 0.452277
Si Si3 0.569119 0.711841 0.144247
Si Si4 0.610583 0.429748 0.358358
Si Si5 0.817526 0.446719 0.865090
O O1 0.759525 0.293175 0.250000
O O2 0.680689 0.404626 0.365810
O O3 0.793200 0.410135 0.403937
O O4 0.726861 0.172372 0.405093
O O5 0.500000 0.119604 0.431382
O O6 0.419903 0.171500 0.567069
O O7 0.427815 0.323795 0.417489
O O8 0.385018 0.074531 0.402336
O O9 0.593214 0.756258 0.250000
O O10 0.500000 0.674555 0.151253
O O11 0.602140 0.579845 0.105105
O O12 0.587429 0.418184 0.250000
O O13 0.818564 0.436994 0.750000
#
# Coordination Sequence:
#
# PCOD8255696 Si02
#       5
#    16  16  16  16  16
#     4   8  15  28  46  70 102 138 177 218 259 309
#     4  10  18  27  43  71 103 133 169 217 272 324
#     4   9  17  28  42  63  95 135 175 216 266 321
#     4   9  16  26  42  66  98 133 167 209 261 313
#     4   9  17  30  49  75 106 141 179 218 262 314
#
# _framework density 25.523648000000001
#
# number of rings (size 3 to 8) (size 9 to 14) (size 15 to 20)
#    0.000    3.000    0.000    3.000    0.000    4.000 
#    0.000    1.000    0.000    0.000    0.000   12.600 
#    0.000   43.200    0.000    0.200    0.000   72.200 
#
# Total GULP energy -495682.635305 kJ/mol
# GULP energy per Si atom -12392.065883 kJ/mol
# Density = 2.546555 g / cm^3
# Si number density = 25.523648 Si / 1000 Ang^3
#
#
#
# Elastic Constant Matrix: (Units=GPa)
#
#
# Indices 1 2 3 4 5 6 
#
# 1 111.2300 55.8046 40.2508 0.0000 0.0000 0.0000
# 2 55.8046 82.9653 50.4239 0.0000 0.0000 0.0000
# 3 40.2508 50.4239 60.1233 0.0000 0.0000 0.0000
# 4 0.0000 0.0000 0.0000 15.5880 0.0000 0.0000
# 5 0.0000 0.0000 0.0000 0.0000 8.3954 0.0000
# 6 0.0000 0.0000 0.0000 0.0000 0.0000 -12.7087
#
#
#
# Elastic Compliance Matrix: (Units=1/GPa)
#
#
# Indices 1 2 3 4 5 6 
#
# 1 0.013825 -0.007493 -0.002971 0.000000 0.000000 0.000000
# 2 -0.007493 0.028646 -0.019008 0.000000 0.000000 0.000000
# 3 -0.002971 -0.019008 0.034563 0.000000 0.000000 0.000000
# 4 0.000000 0.000000 0.000000 0.064152 0.000000 0.000000
# 5 0.000000 0.000000 0.000000 0.000000 0.119113 0.000000
# 6 0.000000 0.000000 0.000000 0.000000 0.000000 -0.078686
#
#
# Mechanical properties :
#
#
# Convention : Reuss Voigt Hill
#
# Bulk Modulus (GPa) = 55.28141 60.80855 58.04498
# Shear Modulus (GPa) = 20.27681 9.44423 14.86052
#
# Velocity S-wave (km/s) = 2.82163 1.92567 2.41555
# Velocity P-wave (km/s) = 5.68519 5.36846 5.52909
#
# Compressibility (1/GPa) = 0.01808926
#
# Stress axis : x y z
#
# Youngs Moduli (GPa) = 72.33324 34.90883 28.93262
#
# Poissons Ratio (x) = 0.26158 0.08595
# Poissons Ratio (y) = 0.54202 0.54996
# Poissons Ratio (z) = 0.21489 0.66355
#
# Static dielectric constant tensor:
#      x y z
#    x 4.428060 0.000000 0.000000 
#    y 0.000000 4.606230 0.000000 
#    z 0.000000 0.000000 4.718220 
# 
# 
# High freq. dielectric constant tensor:
#      x y z
#    x 2.012420 0.000000 0.000000 
#    y 0.000000 2.018160 0.000000 
#    z 0.000000 0.000000 2.015080 
# 
# From -- ./inp_files/36459.got.cif
#   From: 2010.03.12/outbox.cif.g09.slc.cpg/sg63_19_cif.got.tgz:36459.got - 2010.04.10 19:34:48.
