data_PCOD8255184
_publ_section_title
;
Structure prediction by ZEFSAII (Michael W. Deem and Ramdas Pophale) SiO2 
 PCOD8255184
Probable space group: P N M A
;
_chemical_formula_sum "Si O2"
_cell_formula_units_Z 48
_cell_length_a 11.190100
_cell_length_b 17.735044
_cell_length_c 11.748455
_cell_angle_alpha 90.000000
_cell_angle_beta 90.000000
_cell_angle_gamma 90.000000
_cell_volume 2331.562145
_symmetry_space_group_name_H-M "P N M A"
_symmetry_group_IT_number 62
_symmetry_cell_setting 'orthorhombic'
loop_
_space_group_symop_operation_xyz
x,y,z
1/2-x,-y,1/2+z
1/2+x,1/2-y,1/2-z
-x,1/2+y,-z
-x,-y,-z
1/2+x,y,1/2-z
1/2-x,1/2+y,1/2+z
x,1/2-y,z
loop_
_atom_site_type_symbol
_atom_site_label
_atom_site_fract_x
_atom_site_fract_y
_atom_site_fract_z
Si Si1 0.254268 0.936237 0.044328
Si Si2 0.520285 0.914457 0.322059
Si Si3 0.161504 0.600252 0.577587
Si Si4 0.473920 0.839030 0.091571
Si Si5 0.915292 0.836563 0.964691
Si Si6 0.401191 0.071835 0.327761
O O1 0.203334 0.918761 0.919668
O O2 0.148081 0.944696 0.135656
O O3 0.338145 0.867533 0.081555
O O4 0.328330 0.013383 0.040691
O O5 0.538166 0.873469 0.202267
O O6 0.464978 0.855627 0.410758
O O7 0.429941 0.984121 0.308647
O O8 0.274892 0.647997 0.537777
O O9 0.145316 0.609055 0.712471
O O10 0.045179 0.635247 0.519542
O O11 0.471259 0.750000 0.102412
O O12 0.942095 0.750000 0.938407
O O13 0.979044 0.886717 0.869009
#
# Coordination Sequence:
#
# PCOD8255184 Si02
#       6
#     8   8   8   8   8   8
#     4  11  24  44  72  99 133 179 230 277 334 407
#     4  11  23  46  73  99 131 175 230 283 340 404
#     4  12  25  43  70 100 136 179 226 278 335 403
#     4  12  29  44  66 105 142 174 222 286 349 402
#     4  11  24  44  69  99 137 177 223 280 343 401
#     4  11  24  44  72 100 131 180 232 277 332 404
#
# _framework density 20.587056
#
# number of rings (size 3 to 8) (size 9 to 14) (size 15 to 20)
#    0.000    0.667    5.000    2.500    7.000    4.667 
#    0.000    0.000    0.000    0.000    0.000    0.000 
#    0.000    0.000    0.000    0.000    0.000    0.000 
#
# Total GULP energy -595635.972559 kJ/mol
# GULP energy per Si atom -12409.082762 kJ/mol
# Density = 2.054020 g / cm^3
# Si number density = 20.587056 Si / 1000 Ang^3
#
#
#
# Elastic Constant Matrix: (Units=GPa)
#
#
# Indices 1 2 3 4 5 6 
#
# 1 69.9518 13.9806 17.2740 0.0000 0.0000 0.0000
# 2 13.9806 127.1152 26.5682 0.0000 0.0000 0.0000
# 3 17.2740 26.5682 114.8822 0.0000 0.0000 0.0000
# 4 0.0000 0.0000 0.0000 20.8391 0.0000 0.0000
# 5 0.0000 0.0000 0.0000 0.0000 19.5508 0.0000
# 6 0.0000 0.0000 0.0000 0.0000 0.0000 31.2932
#
#
#
# Elastic Compliance Matrix: (Units=1/GPa)
#
#
# Indices 1 2 3 4 5 6 
#
# 1 0.015031 -0.001241 -0.001973 0.000000 0.000000 0.000000
# 2 -0.001241 0.008369 -0.001749 0.000000 0.000000 0.000000
# 3 -0.001973 -0.001749 0.009406 0.000000 0.000000 0.000000
# 4 0.000000 0.000000 0.000000 0.047987 0.000000 0.000000
# 5 0.000000 0.000000 0.000000 0.000000 0.051149 0.000000
# 6 0.000000 0.000000 0.000000 0.000000 0.000000 0.031956
#
#
# Mechanical properties :
#
#
# Convention : Reuss Voigt Hill
#
# Bulk Modulus (GPa) = 43.70651 47.51053 45.60852
# Shear Modulus (GPa) = 27.55597 31.27837 29.41717
#
# Velocity S-wave (km/s) = 3.66253 3.90208 3.78420
# Velocity P-wave (km/s) = 6.25793 6.59011 6.42617
#
# Compressibility (1/GPa) = 0.02287988
#
# Stress axis : x y z
#
# Youngs Moduli (GPa) = 66.53017 119.49044 106.31847
#
# Poissons Ratio (x) = 0.14826 0.20978
# Poissons Ratio (y) = 0.08255 0.18594
# Poissons Ratio (z) = 0.13127 0.20897
#
# Static dielectric constant tensor:
#      x y z
#    x 3.795010 0.000000 0.000000 
#    y 0.000000 3.680330 0.000000 
#    z 0.000000 0.000000 3.829660 
# 
# 
# High freq. dielectric constant tensor:
#      x y z
#    x 1.812270 0.000000 0.000000 
#    y 0.000000 1.805310 0.000000 
#    z 0.000000 0.000000 1.814110 
# 
# From -- ./inp_files/12255.got.cif
#   From: 2010.03.12/outbox.cif.g09.slc.cpg/sg62_7_cif.got.tgz:12255.got - 2010.04.10 19:12:36.
