data_PCOD8255494
_publ_section_title
;
Structure prediction by ZEFSAII (Michael W. Deem and Ramdas Pophale) SiO2 
 PCOD8255494
Probable space group: C M C M
;
_chemical_formula_sum "Si O2"
_cell_formula_units_Z 72
_cell_length_a 26.166776
_cell_length_b 16.119454
_cell_length_c 10.011396
_cell_angle_alpha 90.000000
_cell_angle_beta 90.000000
_cell_angle_gamma 90.000000
_cell_volume 4222.748187
_symmetry_space_group_name_H-M "C M C M"
_symmetry_group_IT_number 63
_symmetry_cell_setting 'orthorhombic'
loop_
_space_group_symop_operation_xyz
x,y,z
-x,-y,1/2+z
x,-y,-z
-x,y,1/2-z
-x,-y,-z
x,y,1/2-z
-x,y,z
x,-y,1/2+z
1/2+x,1/2+y,z
1/2-x,1/2-y,1/2+z
1/2+x,1/2-y,-z
1/2-x,1/2+y,1/2-z
1/2-x,1/2-y,-z
1/2+x,1/2+y,1/2-z
1/2-x,1/2+y,z
1/2+x,1/2-y,1/2+z
loop_
_atom_site_type_symbol
_atom_site_label
_atom_site_fract_x
_atom_site_fract_y
_atom_site_fract_z
Si Si1 0.800899 0.872782 0.599778
Si Si2 0.944319 0.853354 0.097338
Si Si3 0.812505 0.571436 0.402667
Si Si4 0.879537 0.000000 0.500000
Si Si5 0.851381 0.249661 0.593716
O O1 0.800410 0.835702 0.750000
O O2 0.746409 0.911526 0.564424
O O3 0.843843 0.944269 0.594818
O O4 0.809713 0.799673 0.493338
O O5 0.954876 0.835527 0.250000
O O6 0.916306 0.941641 0.086313
O O7 0.907499 0.779886 0.043226
O O8 0.000000 0.852509 0.023189
O O9 0.833347 0.500000 0.500000
O O10 0.819300 0.542198 0.250000
O O11 0.846265 0.652891 0.431180
O O12 0.842258 0.227272 0.750000
#
# Coordination Sequence:
#
# PCOD8255494 Si02
#       5
#    16  16  16   8  16
#     4  10  19  30  46  69  98 128 159 190 230 282
#     4   9  17  29  46  67  91 123 161 197 232 273
#     4  10  20  33  48  70  95 125 160 195 237 282
#     4  10  17  28  44  68 100 128 155 188 230 278
#     4   9  19  33  49  68  94 125 160 198 236 280
#
# _framework density 17.050507
#
# number of rings (size 3 to 8) (size 9 to 14) (size 15 to 20)
#    0.000    2.444    1.111    1.667    0.000    2.667 
#    0.000    0.000    0.000    6.667    0.000    0.000 
#    0.000    0.000    0.000    0.000    0.000    0.000 
#
# Total GULP energy -446226.179545 kJ/mol
# GULP energy per Si atom -12395.171654 kJ/mol
# Density = 1.701170 g / cm^3
# Si number density = 17.050507 Si / 1000 Ang^3
#
#
#
# Elastic Constant Matrix: (Units=GPa)
#
#
# Indices 1 2 3 4 5 6 
#
# 1 85.1006 48.4089 12.7366 0.0000 0.0000 0.0000
# 2 48.4089 117.7810 47.7505 0.0000 0.0000 0.0000
# 3 12.7366 47.7505 61.8043 0.0000 0.0000 0.0000
# 4 0.0000 0.0000 0.0000 31.1993 0.0000 0.0000
# 5 0.0000 0.0000 0.0000 0.0000 15.0706 0.0000
# 6 0.0000 0.0000 0.0000 0.0000 0.0000 6.6373
#
#
#
# Elastic Compliance Matrix: (Units=1/GPa)
#
#
# Indices 1 2 3 4 5 6 
#
# 1 0.015604 -0.007440 0.002533 0.000000 0.000000 0.000000
# 2 -0.007440 0.015910 -0.010759 0.000000 0.000000 0.000000
# 3 0.002533 -0.010759 0.023971 0.000000 0.000000 0.000000
# 4 0.000000 0.000000 0.000000 0.032052 0.000000 0.000000
# 5 0.000000 0.000000 0.000000 0.000000 0.066354 0.000000
# 6 0.000000 0.000000 0.000000 0.000000 0.000000 0.150664
#
#
# Mechanical properties :
#
#
# Convention : Reuss Voigt Hill
#
# Bulk Modulus (GPa) = 41.40479 53.60864 47.50672
# Shear Modulus (GPa) = 14.53747 20.96745 17.75246
#
# Velocity S-wave (km/s) = 2.92312 3.51055 3.23022
# Velocity P-wave (km/s) = 5.97739 6.92396 6.46802
#
# Compressibility (1/GPa) = 0.02415179
#
# Stress axis : x y z
#
# Youngs Moduli (GPa) = 64.08602 62.85273 41.71755
#
# Poissons Ratio (x) = 0.46763 -0.10566
# Poissons Ratio (y) = 0.47681 0.44884
# Poissons Ratio (z) = -0.16231 0.67624
#
# Static dielectric constant tensor:
#      x y z
#    x 3.515150 0.000000 0.000000 
#    y 0.000000 3.104350 0.000000 
#    z 0.000000 0.000000 3.047310 
# 
# 
# High freq. dielectric constant tensor:
#      x y z
#    x 1.650600 0.000000 0.000000 
#    y 0.000000 1.647650 0.000000 
#    z 0.000000 0.000000 1.645420 
# 
# From -- ./inp_files/11741.got.cif
#   From: 2010.03.12/outbox.cif.g09.slc.cpg/sg63_6_cif.got.tgz:11741.got - 2010.04.10 19:34:48.
