data_PCOD8255101
_publ_section_title
;
Structure prediction by ZEFSAII (Michael W. Deem and Ramdas Pophale) SiO2 
 PCOD8255101
Probable space group: P N M A
;
_chemical_formula_sum "Si O2"
_cell_formula_units_Z 36
_cell_length_a 24.221069
_cell_length_b 10.111223
_cell_length_c 6.523609
_cell_angle_alpha 90.000000
_cell_angle_beta 90.000000
_cell_angle_gamma 90.000000
_cell_volume 1597.662048
_symmetry_space_group_name_H-M "P N M A"
_symmetry_group_IT_number 62
_symmetry_cell_setting 'orthorhombic'
loop_
_space_group_symop_operation_xyz
x,y,z
1/2-x,-y,1/2+z
1/2+x,1/2-y,1/2-z
-x,1/2+y,-z
-x,-y,-z
1/2+x,y,1/2-z
1/2-x,1/2+y,1/2+z
x,1/2-y,z
loop_
_atom_site_type_symbol
_atom_site_label
_atom_site_fract_x
_atom_site_fract_y
_atom_site_fract_z
Si Si1 0.674269 0.750000 0.929407
Si Si2 0.199827 0.250000 0.973440
Si Si3 0.553989 0.549016 0.602398
Si Si4 0.007253 0.750000 0.589894
Si Si5 0.913909 0.250000 0.777338
Si Si6 0.125070 0.250000 0.367632
Si Si7 0.349048 0.544910 0.196259
O O1 0.739775 0.750000 0.935164
O O2 0.658993 0.614086 0.811577
O O3 0.642193 0.750000 0.144886
O O4 0.151235 0.250000 0.142410
O O5 0.196769 0.381876 0.833268
O O6 0.500000 0.500000 0.500000
O O7 0.535647 0.625641 0.804902
O O8 0.587861 0.625195 0.427226
O O9 0.592801 0.431386 0.685414
O O10 0.941501 0.750000 0.625950
O O11 0.028828 0.750000 0.354830
O O12 0.147314 0.383633 0.476577
#
# Coordination Sequence:
#
# PCOD8255101 Si02
#       7
#     4   4   8   4   4   4   8
#     4  12  27  48  76 101 143 190 251 300 362 433
#     4  11  29  48  73  99 140 194 237 313 364 413
#     4  11  23  39  68 102 145 187 236 290 358 436
#     4  11  22  40  64 107 143 191 234 292 360 443
#     4  11  24  41  64 106 141 192 233 296 368 424
#     4  11  26  47  75 105 149 189 241 293 374 423
#     4  11  26  49  67 110 142 181 251 298 351 446
#
# _framework density 22.532924000000001
#
# number of rings (size 3 to 8) (size 9 to 14) (size 15 to 20)
#    0.000    0.889    2.222    3.333    9.333    5.333 
#    4.000    0.000    0.000    0.000    0.000    0.000 
#    0.000    0.000    0.000    0.000    0.000    0.000 
#
# Total GULP energy -446119.059031 kJ/mol
# GULP energy per Si atom -12392.196084 kJ/mol
# Density = 2.248164 g / cm^3
# Si number density = 22.532924 Si / 1000 Ang^3
#
#
#
# Elastic Constant Matrix: (Units=GPa)
#
#
# Indices 1 2 3 4 5 6 
#
# 1 113.5804 18.3860 24.7274 0.0000 0.0000 0.0000
# 2 18.3860 130.2939 36.5937 0.0000 0.0000 0.0000
# 3 24.7274 36.5937 113.3483 0.0000 0.0000 0.0000
# 4 0.0000 0.0000 0.0000 -68.3112 0.0000 0.0000
# 5 0.0000 0.0000 0.0000 0.0000 33.2151 0.0000
# 6 0.0000 0.0000 0.0000 0.0000 0.0000 20.2402
#
#
#
# Elastic Compliance Matrix: (Units=1/GPa)
#
#
# Indices 1 2 3 4 5 6 
#
# 1 0.009322 -0.000819 -0.001769 0.000000 0.000000 0.000000
# 2 -0.000819 0.008512 -0.002570 0.000000 0.000000 0.000000
# 3 -0.001769 -0.002570 0.010038 0.000000 0.000000 0.000000
# 4 0.000000 0.000000 0.000000 -0.014639 0.000000 0.000000
# 5 0.000000 0.000000 0.000000 0.000000 0.030107 0.000000
# 6 0.000000 0.000000 0.000000 0.000000 0.000000 0.049407
#
#
# Mechanical properties :
#
#
# Convention : Reuss Voigt Hill
#
# Bulk Modulus (GPa) = 56.95655 57.40410 57.18033
# Shear Modulus (GPa) = 45.90784 15.52986 30.71885
#
# Velocity S-wave (km/s) = 4.51862 2.62812 3.69628
# Velocity P-wave (km/s) = 7.24954 5.89409 6.60667
#
# Compressibility (1/GPa) = 0.01755724
#
# Stress axis : x y z
#
# Youngs Moduli (GPa) = 107.27259 117.47957 99.62226
#
# Poissons Ratio (x) = 0.09616 0.17627
# Poissons Ratio (y) = 0.08780 0.25598
# Poissons Ratio (z) = 0.18981 0.30187
#
# Static dielectric constant tensor:
#      x y z
#    x 4.457410 0.000000 0.000000 
#    y 0.000000 3.302170 0.000000 
#    z 0.000000 0.000000 4.969560 
# 
# 
# High freq. dielectric constant tensor:
#      x y z
#    x 1.888910 0.000000 0.000000 
#    y 0.000000 1.891570 0.000000 
#    z 0.000000 0.000000 1.900660 
# 
# From -- ./inp_files/2595.got.cif
#   From: 2010.03.12/outbox.cif.g09.slc.cpg/sg62_2_cif.got.tgz:2595.got - 2010.04.10 19:12:36.
