data_PCOD8255733
_publ_section_title
;
Structure prediction by ZEFSAII (Michael W. Deem and Ramdas Pophale) SiO2 
 PCOD8255733
Probable space group: C M C M
;
_chemical_formula_sum "Si O2"
_cell_formula_units_Z 88
_cell_length_a 22.375708
_cell_length_b 24.620636
_cell_length_c 9.493893
_cell_angle_alpha 90.000000
_cell_angle_beta 90.000000
_cell_angle_gamma 90.000000
_cell_volume 5230.225166
_symmetry_space_group_name_H-M "C M C M"
_symmetry_group_IT_number 63
_symmetry_cell_setting 'orthorhombic'
loop_
_space_group_symop_operation_xyz
x,y,z
-x,-y,1/2+z
x,-y,-z
-x,y,1/2-z
-x,-y,-z
x,y,1/2-z
-x,y,z
x,-y,1/2+z
1/2+x,1/2+y,z
1/2-x,1/2-y,1/2+z
1/2+x,1/2-y,-z
1/2-x,1/2+y,1/2-z
1/2-x,1/2-y,-z
1/2+x,1/2+y,1/2-z
1/2-x,1/2+y,z
1/2+x,1/2-y,1/2+z
loop_
_atom_site_type_symbol
_atom_site_label
_atom_site_fract_x
_atom_site_fract_y
_atom_site_fract_z
Si Si1 0.215836 0.947366 0.913552
Si Si2 0.070259 0.757767 0.911862
Si Si3 0.889687 0.127728 0.084149
Si Si4 0.000000 0.944157 0.917949
Si Si5 0.569084 0.845842 0.913584
Si Si6 0.647352 0.052824 0.086133
O O1 0.206053 0.961192 0.750000
O O2 0.174505 0.896774 0.960088
O O3 0.284069 0.931555 0.946246
O O4 0.195768 0.000000 0.000000
O O5 0.087244 0.746493 0.750000
O O6 0.103673 0.810972 0.974753
O O7 0.000000 0.767970 0.928896
O O8 0.091998 0.706349 0.001530
O O9 0.897160 0.132471 0.250000
O O10 0.942066 0.088748 0.029060
O O11 0.000000 0.954261 0.750000
O O12 0.000000 0.000000 0.000000
O O13 0.580266 0.834059 0.750000
O O14 0.500000 0.858210 0.946023
O O15 0.606747 0.897492 0.965316
O O16 0.637314 0.040081 0.250000
O O17 0.627462 0.000000 0.000000
#
# Coordination Sequence:
#
# PCOD8255733 Si02
#       6
#    16  16  16   8  16  16
#     4   9  17  30  47  65  88 120 152 182 220 266
#     4   9  16  29  48  67  87 117 155 187 216 260
#     4   9  16  28  46  65  88 119 152 185 222 259
#     4  10  18  28  42  64  92 118 147 188 227 258
#     4   9  18  32  48  67  92 118 143 180 229 271
#     4   9  18  32  49  68  91 118 147 179 220 270
#
# _framework density 16.825279999999999
#
# number of rings (size 3 to 8) (size 9 to 14) (size 15 to 20)
#    0.000    2.909    0.909    0.545    0.000    1.091 
#    0.000    2.727    0.000    0.000    0.000    0.000 
#    0.000    0.000    0.000    0.000    0.000    0.000 
#
# Total GULP energy -545570.953165 kJ/mol
# GULP energy per Si atom -12399.339845 kJ/mol
# Density = 1.678699 g / cm^3
# Si number density = 16.825280 Si / 1000 Ang^3
#
#
#
# Elastic Constant Matrix: (Units=GPa)
#
#
# Indices 1 2 3 4 5 6 
#
# 1 77.6182 82.1777 32.7325 0.0000 0.0000 0.0000
# 2 82.1777 185.6020 61.1264 0.0000 0.0000 0.0000
# 3 32.7325 61.1264 44.2436 0.0000 0.0000 0.0000
# 4 0.0000 0.0000 0.0000 32.5034 0.0000 0.0000
# 5 0.0000 0.0000 0.0000 0.0000 15.8418 0.0000
# 6 0.0000 0.0000 0.0000 0.0000 0.0000 31.8608
#
#
#
# Elastic Compliance Matrix: (Units=1/GPa)
#
#
# Indices 1 2 3 4 5 6 
#
# 1 0.025062 -0.009156 -0.005891 0.000000 0.000000 0.000000
# 2 -0.009156 0.013232 -0.011506 0.000000 0.000000 0.000000
# 3 -0.005891 -0.011506 0.042858 0.000000 0.000000 0.000000
# 4 0.000000 0.000000 0.000000 0.030766 0.000000 0.000000
# 5 0.000000 0.000000 0.000000 0.000000 0.063124 0.000000
# 6 0.000000 0.000000 0.000000 0.000000 0.000000 0.031386
#
#
# Mechanical properties :
#
#
# Convention : Reuss Voigt Hill
#
# Bulk Modulus (GPa) = 35.65910 73.28191 54.47051
# Shear Modulus (GPa) = 18.59537 24.80302 21.69920
#
# Velocity S-wave (km/s) = 3.32807 3.84363 3.59510
# Velocity P-wave (km/s) = 6.00065 7.95910 7.04823
#
# Compressibility (1/GPa) = 0.02804333
#
# Stress axis : x y z
#
# Youngs Moduli (GPa) = 39.90057 75.57719 23.33303
#
# Poissons Ratio (x) = 0.69202 0.13746
# Poissons Ratio (y) = 0.36535 0.26848
# Poissons Ratio (z) = 0.23507 0.86962
#
# Static dielectric constant tensor:
#      x y z
#    x 3.155700 0.000000 0.000000 
#    y 0.000000 3.282750 0.000000 
#    z 0.000000 0.000000 2.984550 
# 
# 
# High freq. dielectric constant tensor:
#      x y z
#    x 1.641030 0.000000 0.000000 
#    y 0.000000 1.652560 0.000000 
#    z 0.000000 0.000000 1.627000 
# 
# From -- ./inp_files/8189.got.cif
#   From: 2010.03.12/outbox.cif.g09.slc.cpg/sg63_5_cif.got.tgz:8189.got - 2010.04.10 19:34:48.
