data_PCOD8255374
_publ_section_title
;
Structure prediction by ZEFSAII (Michael W. Deem and Ramdas Pophale) SiO2 
 PCOD8255374
Probable space group: C M C M
;
_chemical_formula_sum "Si O2"
_cell_formula_units_Z 72
_cell_length_a 9.458149
_cell_length_b 22.860701
_cell_length_c 18.750901
_cell_angle_alpha 90.000000
_cell_angle_beta 90.000000
_cell_angle_gamma 90.000000
_cell_volume 4054.318245
_symmetry_space_group_name_H-M "C M C M"
_symmetry_group_IT_number 63
_symmetry_cell_setting 'orthorhombic'
loop_
_space_group_symop_operation_xyz
x,y,z
-x,-y,1/2+z
x,-y,-z
-x,y,1/2-z
-x,-y,-z
x,y,1/2-z
-x,y,z
x,-y,1/2+z
1/2+x,1/2+y,z
1/2-x,1/2-y,1/2+z
1/2+x,1/2-y,-z
1/2-x,1/2+y,1/2-z
1/2-x,1/2-y,-z
1/2+x,1/2+y,1/2-z
1/2-x,1/2+y,z
1/2+x,1/2-y,1/2+z
loop_
_atom_site_type_symbol
_atom_site_label
_atom_site_fract_x
_atom_site_fract_y
_atom_site_fract_z
Si Si1 0.669488 0.055592 0.750000
Si Si2 0.330032 0.810604 0.993985
Si Si3 0.340776 0.441632 0.750000
Si Si4 0.252804 0.500000 0.500000
Si Si5 0.343450 0.394988 0.595360
Si Si6 0.658970 0.903445 0.397057
O O1 0.500000 0.053513 0.750000
O O2 0.734003 0.086906 0.679451
O O3 0.721499 0.989974 0.750000
O O4 0.500000 0.803364 0.989121
O O5 0.275263 0.847784 0.926537
O O6 0.250000 0.750000 0.000000
O O7 0.276809 0.847405 0.062905
O O8 0.500000 0.468222 0.750000
O O9 0.316968 0.403753 0.679126
O O10 0.341480 0.455682 0.549999
O O11 0.159679 0.461249 0.446297
O O12 0.500000 0.368320 0.583338
O O13 0.500000 0.887653 0.379273
#
# Coordination Sequence:
#
# PCOD8255374 Si02
#       6
#     8  16   8   8  16  16
#     4  10  18  32  51  76 107 141 172 204 252 319
#     4  10  21  38  57  77 102 136 180 228 269 312
#     4  10  20  34  49  76 115 145 172 210 260 315
#     4  10  16  28  50  76 109 136 175 212 257 310
#     4  10  20  33  52  78 108 142 177 215 263 315
#     4   9  18  30  50  77 106 135 170 213 260 310
#
# _framework density 17.758842000000001
#
# number of rings (size 3 to 8) (size 9 to 14) (size 15 to 20)
#    0.000    2.222    2.222    1.333    0.000    1.778 
#    0.000    2.222    0.000    4.000    0.000    0.000 
#    0.000    0.000    0.000    0.000    0.000    0.000 
#
# Total GULP energy -446007.872479 kJ/mol
# GULP energy per Si atom -12389.107569 kJ/mol
# Density = 1.771842 g / cm^3
# Si number density = 17.758842 Si / 1000 Ang^3
#
#
#
# Elastic Constant Matrix: (Units=GPa)
#
#
# Indices 1 2 3 4 5 6 
#
# 1 77.4531 46.0293 38.0782 0.0000 0.0000 0.0000
# 2 46.0293 122.3203 62.7490 0.0000 0.0000 0.0000
# 3 38.0782 62.7490 156.4978 0.0000 0.0000 0.0000
# 4 0.0000 0.0000 0.0000 14.2569 0.0000 0.0000
# 5 0.0000 0.0000 0.0000 0.0000 16.8655 0.0000
# 6 0.0000 0.0000 0.0000 0.0000 0.0000 27.1530
#
#
#
# Elastic Compliance Matrix: (Units=1/GPa)
#
#
# Indices 1 2 3 4 5 6 
#
# 1 0.017109 -0.005417 -0.001991 0.000000 0.000000 0.000000
# 2 -0.005417 0.012007 -0.003496 0.000000 0.000000 0.000000
# 3 -0.001991 -0.003496 0.008276 0.000000 0.000000 0.000000
# 4 0.000000 0.000000 0.000000 0.070142 0.000000 0.000000
# 5 0.000000 0.000000 0.000000 0.000000 0.059293 0.000000
# 6 0.000000 0.000000 0.000000 0.000000 0.000000 0.036828
#
#
# Mechanical properties :
#
#
# Convention : Reuss Voigt Hill
#
# Bulk Modulus (GPa) = 64.16796 72.22045 68.19421
# Shear Modulus (GPa) = 21.67710 25.61604 23.64657
#
# Velocity S-wave (km/s) = 3.49755 3.80207 3.65298
# Velocity P-wave (km/s) = 7.24720 7.74789 7.50173
#
# Compressibility (1/GPa) = 0.01558410
#
# Stress axis : x y z
#
# Youngs Moduli (GPa) = 58.44886 83.28320 120.82833
#
# Poissons Ratio (x) = 0.45113 0.24056
# Poissons Ratio (y) = 0.31661 0.42247
# Poissons Ratio (z) = 0.11637 0.29119
#
# Static dielectric constant tensor:
#      x y z
#    x 3.193130 0.000000 0.000000 
#    y 0.000000 3.127010 0.000000 
#    z 0.000000 0.000000 4.497600 
# 
# 
# High freq. dielectric constant tensor:
#      x y z
#    x 1.675710 0.000000 0.000000 
#    y 0.000000 1.667100 0.000000 
#    z 0.000000 0.000000 1.701100 
# 
# From -- ./inp_files/50760.got.cif
#   From: 2010.03.12/outbox.cif.g09.slc.cpg/sg63_26_cif.got.tgz:50760.got - 2010.04.10 19:34:48.
