data_PCOD8255710
_publ_section_title
;
Structure prediction by ZEFSAII (Michael W. Deem and Ramdas Pophale) SiO2 
 PCOD8255710
Probable space group: C M C M
;
_chemical_formula_sum "Si O2"
_cell_formula_units_Z 96
_cell_length_a 9.299011
_cell_length_b 23.693269
_cell_length_c 25.593446
_cell_angle_alpha 90.000000
_cell_angle_beta 90.000000
_cell_angle_gamma 90.000000
_cell_volume 5638.849605
_symmetry_space_group_name_H-M "C M C M"
_symmetry_group_IT_number 63
_symmetry_cell_setting 'orthorhombic'
loop_
_space_group_symop_operation_xyz
x,y,z
-x,-y,1/2+z
x,-y,-z
-x,y,1/2-z
-x,-y,-z
x,y,1/2-z
-x,y,z
x,-y,1/2+z
1/2+x,1/2+y,z
1/2-x,1/2-y,1/2+z
1/2+x,1/2-y,-z
1/2-x,1/2+y,1/2-z
1/2-x,1/2-y,-z
1/2+x,1/2+y,1/2-z
1/2-x,1/2+y,z
1/2+x,1/2-y,1/2+z
loop_
_atom_site_type_symbol
_atom_site_label
_atom_site_fract_x
_atom_site_fract_y
_atom_site_fract_z
Si Si1 0.828838 0.747082 0.308907
Si Si2 0.670416 0.436791 0.443322
Si Si3 0.829510 0.061715 0.750000
Si Si4 0.666548 0.054441 0.250000
Si Si5 0.328816 0.365763 0.347900
Si Si6 0.331548 0.871910 0.649350
Si Si7 0.829773 0.936134 0.560585
O O1 0.766396 0.747350 0.250000
O O2 0.771038 0.802105 0.339907
O O3 0.776938 0.691571 0.339468
O O4 0.000000 0.747759 0.305434
O O5 0.500000 0.437505 0.441145
O O6 0.733545 0.391635 0.401923
O O7 0.722463 0.499823 0.428144
O O8 0.718627 0.419883 0.501660
O O9 0.774492 0.095355 0.699428
O O10 0.000000 0.055218 0.750000
O O11 0.763013 0.000361 0.750000
O O12 0.500000 0.037247 0.250000
O O13 0.706514 0.090568 0.199335
O O14 0.500000 0.365366 0.348866
O O15 0.500000 0.873277 0.637172
O O16 0.248042 0.893505 0.599040
O O17 0.000000 0.930208 0.567933
#
# Coordination Sequence:
#
# PCOD8255710 Si02
#       7
#    16  16   8   8  16  16  16
#     4   9  15  27  45  65  91 123 155 189 228 268
#     4   8  15  28  46  67  94 126 152 183 234 284
#     4  10  18  27  47  77  97 110 145 198 234 266
#     4  10  20  31  43  63  95 126 145 174 232 292
#     4   9  15  25  45  73  95 113 150 198 233 261
#     4  10  19  31  47  67  92 122 156 189 225 273
#     4   9  17  31  49  68  94 125 154 186 230 280
#
# _framework density 17.024749
#
# number of rings (size 3 to 8) (size 9 to 14) (size 15 to 20)
#    0.000    2.833    1.667    2.000    0.000    2.000 
#    0.000    2.500    0.000    2.000    0.000    0.000 
#    0.000    0.000    0.000    0.000    0.000    0.000 
#
# Total GULP energy -595018.387086 kJ/mol
# GULP energy per Si atom -12396.216398 kJ/mol
# Density = 1.698600 g / cm^3
# Si number density = 17.024749 Si / 1000 Ang^3
#
#
#
# Elastic Constant Matrix: (Units=GPa)
#
#
# Indices 1 2 3 4 5 6 
#
# 1 18.2060 31.3424 27.9040 0.0000 0.0000 0.0000
# 2 31.3424 166.7814 99.3356 0.0000 0.0000 0.0000
# 3 27.9040 99.3356 155.7625 0.0000 0.0000 0.0000
# 4 0.0000 0.0000 0.0000 27.4616 0.0000 0.0000
# 5 0.0000 0.0000 0.0000 0.0000 16.9483 0.0000
# 6 0.0000 0.0000 0.0000 0.0000 0.0000 17.7817
#
#
#
# Elastic Compliance Matrix: (Units=1/GPa)
#
#
# Indices 1 2 3 4 5 6 
#
# 1 0.087468 -0.011456 -0.008363 0.000000 0.000000 0.000000
# 2 -0.011456 0.011169 -0.005070 0.000000 0.000000 0.000000
# 3 -0.008363 -0.005070 0.011152 0.000000 0.000000 0.000000
# 4 0.000000 0.000000 0.000000 0.036415 0.000000 0.000000
# 5 0.000000 0.000000 0.000000 0.000000 0.059003 0.000000
# 6 0.000000 0.000000 0.000000 0.000000 0.000000 0.056238
#
#
# Mechanical properties :
#
#
# Convention : Reuss Voigt Hill
#
# Bulk Modulus (GPa) = 16.66430 73.10154 44.88292
# Shear Modulus (GPa) = 15.09544 24.58285 19.83914
#
# Velocity S-wave (km/s) = 2.98094 3.80405 3.41737
# Velocity P-wave (km/s) = 4.65377 7.89468 6.48011
#
# Compressibility (1/GPa) = 0.06000851
#
# Stress axis : x y z
#
# Youngs Moduli (GPa) = 11.43279 89.53579 89.67110
#
# Poissons Ratio (x) = 1.02573 0.74995
# Poissons Ratio (y) = 0.13098 0.45467
# Poissons Ratio (z) = 0.09562 0.45398
#
# Static dielectric constant tensor:
#      x y z
#    x 2.636070 0.000000 0.000000 
#    y 0.000000 3.403730 0.000000 
#    z 0.000000 0.000000 3.429540 
# 
# 
# High freq. dielectric constant tensor:
#      x y z
#    x 1.598630 0.000000 0.000000 
#    y 0.000000 1.663330 0.000000 
#    z 0.000000 0.000000 1.665010 
# 
# From -- ./inp_files/67264.got.cif
#   From: 2010.03.12/outbox.cif.g09.slc.cpg/sg63_34_cif.got.tgz:67264.got - 2010.04.10 19:34:48.
