data_PCOD8255192
_publ_section_title
;
Structure prediction by ZEFSAII (Michael W. Deem and Ramdas Pophale) SiO2 
 PCOD8255192
Probable space group: P N M A
;
_chemical_formula_sum "Si O2"
_cell_formula_units_Z 40
_cell_length_a 14.895857
_cell_length_b 8.424444
_cell_length_c 14.695936
_cell_angle_alpha 90.000000
_cell_angle_beta 90.000000
_cell_angle_gamma 90.000000
_cell_volume 1844.182914
_symmetry_space_group_name_H-M "P N M A"
_symmetry_group_IT_number 62
_symmetry_cell_setting 'orthorhombic'
loop_
_space_group_symop_operation_xyz
x,y,z
1/2-x,-y,1/2+z
1/2+x,1/2-y,1/2-z
-x,1/2+y,-z
-x,-y,-z
1/2+x,y,1/2-z
1/2-x,1/2+y,1/2+z
x,1/2-y,z
loop_
_atom_site_type_symbol
_atom_site_label
_atom_site_fract_x
_atom_site_fract_y
_atom_site_fract_z
Si Si1 0.567017 0.434181 0.426285
Si Si2 0.459734 0.434060 0.761456
Si Si3 0.259370 0.065551 0.811172
Si Si4 0.132770 0.935352 0.656404
Si Si5 0.745043 0.935161 0.492667
O O1 0.500000 0.500000 0.500000
O O2 0.586766 0.250000 0.443258
O O3 0.522899 0.460992 0.328086
O O4 0.659006 0.533325 0.429227
O O5 0.463750 0.250000 0.734950
O O6 0.364102 0.479370 0.804840
O O7 0.538421 0.475370 0.831453
O O8 0.241492 0.250000 0.792478
O O9 0.202267 0.969181 0.737700
O O10 0.227376 0.021784 0.912011
O O11 0.114561 0.750000 0.651112
O O12 0.169347 0.994632 0.559390
O O13 0.758770 0.750000 0.509457
#
# Coordination Sequence:
#
# PCOD8255192 Si02
#       5
#     8   8   8   8   8
#     4  12  24  41  66  97 133 171 223 277 334 395
#     4  11  24  43  68  96 132 175 221 273 335 397
#     4  11  24  44  69  97 133 175 223 277 336 399
#     4  12  25  43  68  98 135 176 223 276 336 400
#     4  12  25  43  67  96 133 176 223 275 334 398
#
# _framework density 21.689823000000001
#
# number of rings (size 3 to 8) (size 9 to 14) (size 15 to 20)
#    0.000    0.400    2.000    7.800    0.000    3.200 
#    0.000    0.000    0.000    0.000    0.000    0.000 
#    0.000    0.000    0.000    0.000    0.000    0.000 
#
# Total GULP energy -496381.026362 kJ/mol
# GULP energy per Si atom -12409.525659 kJ/mol
# Density = 2.164046 g / cm^3
# Si number density = 21.689823 Si / 1000 Ang^3
#
#
#
# Elastic Constant Matrix: (Units=GPa)
#
#
# Indices 1 2 3 4 5 6 
#
# 1 88.2758 26.1699 -16.4536 0.0000 0.0000 0.0000
# 2 26.1699 101.5830 13.6416 0.0000 0.0000 0.0000
# 3 -16.4536 13.6416 54.2082 0.0000 0.0000 0.0000
# 4 0.0000 0.0000 0.0000 37.0016 0.0000 0.0000
# 5 0.0000 0.0000 0.0000 0.0000 38.2534 0.0000
# 6 0.0000 0.0000 0.0000 0.0000 0.0000 35.7967
#
#
#
# Elastic Compliance Matrix: (Units=1/GPa)
#
#
# Indices 1 2 3 4 5 6 
#
# 1 0.013528 -0.004178 0.005157 0.000000 0.000000 0.000000
# 2 -0.004178 0.011479 -0.004157 0.000000 0.000000 0.000000
# 3 0.005157 -0.004157 0.021059 0.000000 0.000000 0.000000
# 4 0.000000 0.000000 0.000000 0.027026 0.000000 0.000000
# 5 0.000000 0.000000 0.000000 0.000000 0.026141 0.000000
# 6 0.000000 0.000000 0.000000 0.000000 0.000000 0.027936
#
#
# Mechanical properties :
#
#
# Convention : Reuss Voigt Hill
#
# Bulk Modulus (GPa) = 25.18161 32.30922 28.74541
# Shear Modulus (GPa) = 34.06942 36.92429 35.49685
#
# Velocity S-wave (km/s) = 3.96758 4.13047 4.04984
# Velocity P-wave (km/s) = 5.71174 6.13808 5.92874
#
# Compressibility (1/GPa) = 0.03971152
#
# Stress axis : x y z
#
# Youngs Moduli (GPa) = 73.92125 87.11851 47.48599
#
# Poissons Ratio (x) = 0.36395 -0.24490
# Poissons Ratio (y) = 0.30882 0.19738
# Poissons Ratio (z) = -0.38124 0.36212
#
# Static dielectric constant tensor:
#      x y z
#    x 4.067190 0.000000 0.000000 
#    y 0.000000 3.925330 0.000000 
#    z 0.000000 0.000000 3.919080 
# 
# 
# High freq. dielectric constant tensor:
#      x y z
#    x 1.861600 0.000000 0.000000 
#    y 0.000000 1.864360 0.000000 
#    z 0.000000 0.000000 1.855920 
# 
# From -- ./inp_files/18614.got.cif
#   From: 2010.03.12/outbox.cif.g09.slc.cpg/sg62_10_cif.got.tgz:18614.got - 2010.04.10 19:12:36.
