data_PCOD8255033
_publ_section_title
;
Structure prediction by ZEFSAII (Michael W. Deem and Ramdas Pophale) SiO2 
 PCOD8255033
Probable space group: P N M A
;
_chemical_formula_sum "Si O2"
_cell_formula_units_Z 56
_cell_length_a 9.210802
_cell_length_b 22.895679
_cell_length_c 13.962684
_cell_angle_alpha 90.000000
_cell_angle_beta 90.000000
_cell_angle_gamma 90.000000
_cell_volume 2944.556443
_symmetry_space_group_name_H-M "P N M A"
_symmetry_group_IT_number 62
_symmetry_cell_setting 'orthorhombic'
loop_
_space_group_symop_operation_xyz
x,y,z
1/2-x,-y,1/2+z
1/2+x,1/2-y,1/2-z
-x,1/2+y,-z
-x,-y,-z
1/2+x,y,1/2-z
1/2-x,1/2+y,1/2+z
x,1/2-y,z
loop_
_atom_site_type_symbol
_atom_site_label
_atom_site_fract_x
_atom_site_fract_y
_atom_site_fract_z
Si Si1 0.349941 0.750000 0.826440
Si Si2 0.326734 0.035114 0.692090
Si Si3 0.772965 0.406775 0.313430
Si Si4 0.709448 0.948557 0.526547
Si Si5 0.012314 0.750000 0.873947
Si Si6 0.591894 0.127220 0.145495
Si Si7 0.858610 0.937920 0.142617
Si Si8 0.062843 0.129815 0.030260
O O1 0.401185 0.750000 0.714979
O O2 0.419948 0.695109 0.884877
O O3 0.175189 0.750000 0.833408
O O4 0.271175 0.051907 0.587205
O O5 0.499818 0.037822 0.697269
O O6 0.259473 0.076906 0.775150
O O7 0.268782 0.971467 0.720201
O O8 0.707784 0.365705 0.231588
O O9 0.708197 0.389104 0.415181
O O10 0.944404 0.399327 0.314498
O O11 0.852122 0.914993 0.562323
O O12 0.565113 0.914708 0.559812
O O13 0.700486 0.014066 0.566879
O O14 0.985289 0.694977 0.944066
O O15 0.899057 0.879151 0.082743
#
# Coordination Sequence:
#
# PCOD8255033 Si02
#       8
#     4   8   8   8   4   8   8   8
#     4  12  24  38  56  91 117 160 190 239 291 357
#     4  11  22  36  59  86 120 158 195 243 297 352
#     4  12  21  35  56  88 121 157 197 237 292 357
#     4  11  21  39  59  87 120 160 192 247 295 356
#     4  12  24  38  66  83 121 154 204 235 301 351
#     4  12  24  34  56  83 128 155 193 239 294 355
#     4  11  22  38  61  85 124 153 201 246 298 354
#     4  11  22  40  58  87 118 161 195 240 296 362
#
# _framework density 19.018145000000001
#
# number of rings (size 3 to 8) (size 9 to 14) (size 15 to 20)
#    0.000    0.571    7.143    3.429    0.000    1.714 
#    0.000    0.000    0.000    4.286    0.000    0.000 
#    0.000    0.000    0.000    0.000    0.000    0.000 
#
# Total GULP energy -694410.055757 kJ/mol
# GULP energy per Si atom -12400.179567 kJ/mol
# Density = 1.897486 g / cm^3
# Si number density = 19.018145 Si / 1000 Ang^3
#
#
#
# Elastic Constant Matrix: (Units=GPa)
#
#
# Indices 1 2 3 4 5 6 
#
# 1 37.1543 4.9970 24.7070 0.0000 0.0000 0.0000
# 2 4.9970 78.0926 22.3853 0.0000 0.0000 0.0000
# 3 24.7070 22.3853 86.2456 0.0000 0.0000 0.0000
# 4 0.0000 0.0000 0.0000 26.8694 0.0000 0.0000
# 5 0.0000 0.0000 0.0000 0.0000 33.4055 0.0000
# 6 0.0000 0.0000 0.0000 0.0000 0.0000 17.5694
#
#
#
# Elastic Compliance Matrix: (Units=1/GPa)
#
#
# Indices 1 2 3 4 5 6 
#
# 1 0.033279 0.000652 -0.009703 0.000000 0.000000 0.000000
# 2 0.000652 0.013847 -0.003781 0.000000 0.000000 0.000000
# 3 -0.009703 -0.003781 0.015356 0.000000 0.000000 0.000000
# 4 0.000000 0.000000 0.000000 0.037217 0.000000 0.000000
# 5 0.000000 0.000000 0.000000 0.000000 0.029935 0.000000
# 6 0.000000 0.000000 0.000000 0.000000 0.000000 0.056917
#
#
# Mechanical properties :
#
#
# Convention : Reuss Voigt Hill
#
# Bulk Modulus (GPa) = 27.16006 33.96346 30.56176
# Shear Modulus (GPa) = 22.27289 25.52909 23.90099
#
# Velocity S-wave (km/s) = 3.42590 3.66779 3.54891
# Velocity P-wave (km/s) = 5.47368 5.98616 5.73565
#
# Compressibility (1/GPa) = 0.03681877
#
# Stress axis : x y z
#
# Youngs Moduli (GPa) = 30.04872 72.21579 65.12238
#
# Poissons Ratio (x) = -0.04707 0.63187
# Poissons Ratio (y) = -0.01959 0.24622
# Poissons Ratio (z) = 0.29156 0.27304
#
# Static dielectric constant tensor:
#      x y z
#    x 3.534060 0.000000 0.000000 
#    y 0.000000 3.559880 0.000000 
#    z 0.000000 0.000000 3.416960 
# 
# 
# High freq. dielectric constant tensor:
#      x y z
#    x 1.746770 0.000000 0.000000 
#    y 0.000000 1.722800 0.000000 
#    z 0.000000 0.000000 1.727330 
# 
# From -- ./inp_files/17226.got.cif
#   From: 2010.03.12/outbox.cif.g09.slc.cpg/sg62_9_cif.got.tgz:17226.got - 2010.04.10 19:12:36.
