data_PCOD8255744
_publ_section_title
;
Structure prediction by ZEFSAII (Michael W. Deem and Ramdas Pophale) SiO2 
 PCOD8255744
Probable space group: C M C M
;
_chemical_formula_sum "Si O2"
_cell_formula_units_Z 96
_cell_length_a 9.216426
_cell_length_b 20.500825
_cell_length_c 29.899722
_cell_angle_alpha 90.000000
_cell_angle_beta 90.000000
_cell_angle_gamma 90.000000
_cell_volume 5649.383136
_symmetry_space_group_name_H-M "C M C M"
_symmetry_group_IT_number 63
_symmetry_cell_setting 'orthorhombic'
loop_
_space_group_symop_operation_xyz
x,y,z
-x,-y,1/2+z
x,-y,-z
-x,y,1/2-z
-x,-y,-z
x,y,1/2-z
-x,y,z
x,-y,1/2+z
1/2+x,1/2+y,z
1/2-x,1/2-y,1/2+z
1/2+x,1/2-y,-z
1/2-x,1/2+y,1/2-z
1/2-x,1/2-y,-z
1/2+x,1/2+y,1/2-z
1/2-x,1/2+y,z
1/2+x,1/2-y,1/2+z
loop_
_atom_site_type_symbol
_atom_site_label
_atom_site_fract_x
_atom_site_fract_y
_atom_site_fract_z
Si Si1 0.331954 0.264724 0.384280
Si Si2 0.662940 0.237033 0.700627
Si Si3 0.671865 0.066025 0.478881
Si Si4 0.167426 0.389186 0.615821
Si Si5 0.327416 0.803959 0.029665
Si Si6 0.836921 0.107956 0.201170
O O1 0.500000 0.283449 0.390061
O O2 0.276563 0.289603 0.335867
O O3 0.307200 0.187763 0.389825
O O4 0.234492 0.301731 0.420438
O O5 0.708581 0.211533 0.750000
O O6 0.500000 0.213065 0.689040
O O7 0.666359 0.314561 0.700272
O O8 0.500000 0.061156 0.475565
O O9 0.732756 0.076559 0.428560
O O10 0.716066 0.125905 0.510270
O O11 0.738239 0.000000 0.500000
O O12 0.243168 0.419171 0.659890
O O13 0.000000 0.405404 0.621726
O O14 0.500000 0.792185 0.029189
O O15 0.250000 0.750000 0.000000
O O16 0.777060 0.084403 0.250000
O O17 0.000000 0.082168 0.194902
#
# Coordination Sequence:
#
# PCOD8255744 Si02
#       6
#    16  16  16  16  16  16
#     4  10  18  28  43  68  96 123 158 195 236 283
#     4   8  14  25  40  61  91 125 157 189 232 284
#     4   9  18  33  50  68  93 125 160 198 238 282
#     4   9  16  27  43  65  90 118 154 189 228 273
#     4  11  20  32  50  71  94 123 159 197 240 282
#     4   8  14  24  38  59  88 120 150 181 225 277
#
# _framework density 16.993006000000001
#
# number of rings (size 3 to 8) (size 9 to 14) (size 15 to 20)
#    0.000    2.833    1.667    2.000    0.000    1.333 
#    0.000    3.333    0.000    4.500    0.000    1.167 
#    0.000    4.000    0.000    0.000    0.000    0.000 
#
# Total GULP energy -594901.122491 kJ/mol
# GULP energy per Si atom -12393.773385 kJ/mol
# Density = 1.695433 g / cm^3
# Si number density = 16.993006 Si / 1000 Ang^3
#
#
#
# Elastic Constant Matrix: (Units=GPa)
#
#
# Indices 1 2 3 4 5 6 
#
# 1 75.0802 31.0101 68.1340 0.0000 0.0000 0.0000
# 2 31.0101 58.4941 46.6288 0.0000 0.0000 0.0000
# 3 68.1340 46.6288 181.6002 0.0000 0.0000 0.0000
# 4 0.0000 0.0000 0.0000 14.0410 0.0000 0.0000
# 5 0.0000 0.0000 0.0000 0.0000 36.2891 0.0000
# 6 0.0000 0.0000 0.0000 0.0000 0.0000 10.2893
#
#
#
# Elastic Compliance Matrix: (Units=1/GPa)
#
#
# Indices 1 2 3 4 5 6 
#
# 1 0.021934 -0.006372 -0.006593 0.000000 0.000000 0.000000
# 2 -0.006372 0.023347 -0.003604 0.000000 0.000000 0.000000
# 3 -0.006593 -0.003604 0.008906 0.000000 0.000000 0.000000
# 4 0.000000 0.000000 0.000000 0.071220 0.000000 0.000000
# 5 0.000000 0.000000 0.000000 0.000000 0.027556 0.000000
# 6 0.000000 0.000000 0.000000 0.000000 0.000000 0.097188
#
#
# Mechanical properties :
#
#
# Convention : Reuss Voigt Hill
#
# Bulk Modulus (GPa) = 47.51093 67.41338 57.46216
# Shear Modulus (GPa) = 17.22316 23.41731 20.32024
#
# Velocity S-wave (km/s) = 3.18707 3.71624 3.46179
# Velocity P-wave (km/s) = 6.44694 7.62701 7.06167
#
# Compressibility (1/GPa) = 0.02104779
#
# Stress axis : x y z
#
# Youngs Moduli (GPa) = 45.59059 42.83236 112.28827
#
# Poissons Ratio (x) = 0.27295 0.74035
# Poissons Ratio (y) = 0.29052 0.40467
# Poissons Ratio (z) = 0.30059 0.15436
#
# Static dielectric constant tensor:
#      x y z
#    x 3.139220 0.000000 0.000000 
#    y 0.000000 2.799950 0.000000 
#    z 0.000000 0.000000 3.761700 
# 
# 
# High freq. dielectric constant tensor:
#      x y z
#    x 1.643150 0.000000 0.000000 
#    y 0.000000 1.589810 0.000000 
#    z 0.000000 0.000000 1.679730 
# 
# From -- ./inp_files/67012.got.cif
#   From: 2010.03.12/outbox.cif.g09.slc.cpg/sg63_34_cif.got.tgz:67012.got - 2010.04.10 19:34:48.
