data_PCOD8255261
_publ_section_title
;
Structure prediction by ZEFSAII (Michael W. Deem and Ramdas Pophale) SiO2 
 PCOD8255261
Probable space group: P N M A
;
_chemical_formula_sum "Si O2"
_cell_formula_units_Z 32
_cell_length_a 9.787021
_cell_length_b 15.374425
_cell_length_c 9.510833
_cell_angle_alpha 90.000000
_cell_angle_beta 90.000000
_cell_angle_gamma 90.000000
_cell_volume 1431.093333
_symmetry_space_group_name_H-M "P N M A"
_symmetry_group_IT_number 62
_symmetry_cell_setting 'orthorhombic'
loop_
_space_group_symop_operation_xyz
x,y,z
1/2-x,-y,1/2+z
1/2+x,1/2-y,1/2-z
-x,1/2+y,-z
-x,-y,-z
1/2+x,y,1/2-z
1/2-x,1/2+y,1/2+z
x,1/2-y,z
loop_
_atom_site_type_symbol
_atom_site_label
_atom_site_fract_x
_atom_site_fract_y
_atom_site_fract_z
Si Si1 0.875789 0.063963 0.980503
Si Si2 0.283357 0.949956 0.744466
Si Si3 0.475457 0.089659 0.083827
Si Si4 0.370329 0.250000 0.612293
Si Si5 0.450802 0.750000 0.109583
O O1 0.910436 0.166181 0.982265
O O2 0.807683 0.043581 0.828716
O O3 0.772838 0.035058 0.100749
O O4 0.000000 0.000000 0.000000
O O5 0.179167 0.897305 0.642889
O O6 0.429721 0.903637 0.774344
O O7 0.512424 0.165650 0.978682
O O8 0.500000 0.000000 0.000000
O O9 0.209334 0.250000 0.647869
O O10 0.460195 0.250000 0.751026
#
# Coordination Sequence:
#
# PCOD8255261 Si02
#       5
#     8   8   8   4   4
#     4  12  27  46  78 110 152 199 251 310 380 458
#     4  12  24  45  74 102 149 191 244 301 376 437
#     4  12  25  45  71 106 144 193 243 304 371 445
#     4  12  28  49  75 111 151 195 257 308 382 452
#     4  12  28  47  75 107 151 195 251 316 378 456
#
# _framework density 22.360524999999999
#
# number of rings (size 3 to 8) (size 9 to 14) (size 15 to 20)
#    0.000    0.000    7.500    1.500    3.500    2.000 
#    0.000    1.250    0.000    0.000    0.000    0.000 
#    0.000    0.000    0.000    0.000    0.000    0.000 
#
# Total GULP energy -396600.122043 kJ/mol
# GULP energy per Si atom -12393.753814 kJ/mol
# Density = 2.230963 g / cm^3
# Si number density = 22.360525 Si / 1000 Ang^3
#
#
#
# Elastic Constant Matrix: (Units=GPa)
#
#
# Indices 1 2 3 4 5 6 
#
# 1 119.7043 58.8727 28.7716 0.0000 0.0000 0.0000
# 2 58.8727 172.8047 69.3194 0.0000 0.0000 0.0000
# 3 28.7716 69.3194 121.4514 0.0000 0.0000 0.0000
# 4 0.0000 0.0000 0.0000 31.1025 0.0000 0.0000
# 5 0.0000 0.0000 0.0000 0.0000 56.1059 0.0000
# 6 0.0000 0.0000 0.0000 0.0000 0.0000 19.9378
#
#
#
# Elastic Compliance Matrix: (Units=1/GPa)
#
#
# Indices 1 2 3 4 5 6 
#
# 1 0.010064 -0.003206 -0.000554 0.000000 0.000000 0.000000
# 2 -0.003206 0.008527 -0.004107 0.000000 0.000000 0.000000
# 3 -0.000554 -0.004107 0.010709 0.000000 0.000000 0.000000
# 4 0.000000 0.000000 0.000000 0.032152 0.000000 0.000000
# 5 0.000000 0.000000 0.000000 0.000000 0.017823 0.000000
# 6 0.000000 0.000000 0.000000 0.000000 0.000000 0.050156
#
#
# Mechanical properties :
#
#
# Convention : Reuss Voigt Hill
#
# Bulk Modulus (GPa) = 73.72037 80.87643 77.29840
# Shear Modulus (GPa) = 33.40274 38.56234 35.98254
#
# Velocity S-wave (km/s) = 3.86920 4.15730 4.01583
# Velocity P-wave (km/s) = 7.28021 7.70013 7.49311
#
# Compressibility (1/GPa) = 0.01356477
#
# Stress axis : x y z
#
# Youngs Moduli (GPa) = 99.36325 117.27651 93.37764
#
# Poissons Ratio (x) = 0.37604 0.05173
# Poissons Ratio (y) = 0.31861 0.38352
# Poissons Ratio (z) = 0.05505 0.48167
#
# Static dielectric constant tensor:
#      x y z
#    x 3.953120 0.000000 0.000000 
#    y 0.000000 3.806050 0.000000 
#    z 0.000000 0.000000 4.341740 
# 
# 
# High freq. dielectric constant tensor:
#      x y z
#    x 1.904700 0.000000 0.000000 
#    y 0.000000 1.861870 0.000000 
#    z 0.000000 0.000000 1.896670 
# 
# From -- ./inp_files/4911.got.cif
#   From: 2010.03.12/outbox.cif.g09.slc.cpg/sg62_3_cif.got.tgz:4911.got - 2010.04.10 19:12:36.
