data_PCOD8255468
_publ_section_title
;
Structure prediction by ZEFSAII (Michael W. Deem and Ramdas Pophale) SiO2 
 PCOD8255468
Probable space group: C M C M
;
_chemical_formula_sum "Si O2"
_cell_formula_units_Z 128
_cell_length_a 23.601442
_cell_length_b 19.023728
_cell_length_c 17.824480
_cell_angle_alpha 90.000000
_cell_angle_beta 90.000000
_cell_angle_gamma 90.000000
_cell_volume 8002.967164
_symmetry_space_group_name_H-M "C M C M"
_symmetry_group_IT_number 63
_symmetry_cell_setting 'orthorhombic'
loop_
_space_group_symop_operation_xyz
x,y,z
-x,-y,1/2+z
x,-y,-z
-x,y,1/2-z
-x,-y,-z
x,y,1/2-z
-x,y,z
x,-y,1/2+z
1/2+x,1/2+y,z
1/2-x,1/2-y,1/2+z
1/2+x,1/2-y,-z
1/2-x,1/2+y,1/2-z
1/2-x,1/2-y,-z
1/2+x,1/2+y,1/2-z
1/2-x,1/2+y,z
1/2+x,1/2-y,1/2+z
loop_
_atom_site_type_symbol
_atom_site_label
_atom_site_fract_x
_atom_site_fract_y
_atom_site_fract_z
Si Si1 0.837846 0.348190 0.161575
Si Si2 0.624208 0.918566 0.661125
Si Si3 0.563063 0.222462 0.338927
Si Si4 0.226086 0.784094 0.836759
Si Si5 0.166930 0.187980 0.837075
Si Si6 0.761918 0.075355 0.910224
Si Si7 0.755371 0.418577 0.917751
Si Si8 0.437386 0.060637 0.839147
O O1 0.840273 0.343000 0.250000
O O2 0.820584 0.271148 0.130663
O O3 0.789960 0.405439 0.143749
O O4 0.898198 0.375391 0.129958
O O5 0.637737 0.916664 0.750000
O O6 0.586639 0.852734 0.634759
O O7 0.682061 0.918116 0.615578
O O8 0.589077 0.986733 0.636413
O O9 0.560104 0.222214 0.250000
O O10 0.500000 0.235043 0.372673
O O11 0.605683 0.284370 0.364980
O O12 0.215499 0.800725 0.750000
O O13 0.288355 0.751197 0.848991
O O14 0.218563 0.856303 0.881534
O O15 0.166090 0.165669 0.750000
O O16 0.182686 0.119886 0.886569
O O17 0.775401 0.992763 0.900709
O O18 0.742215 0.094602 0.993771
O O19 0.440647 0.063395 0.750000
O O20 0.500000 0.068925 0.874249
#
# Coordination Sequence:
#
# PCOD8255468 Si02
#       8
#    16  16  16  16  16  16  16  16
#     4   9  17  30  46  65  88 116 153 193 225 265
#     4  10  17  27  44  68  96 124 154 187 220 266
#     4   9  16  27  45  70  96 118 146 185 227 274
#     4   9  17  29  46  67  88 114 148 185 229 271
#     4   9  17  30  46  68  94 120 150 187 230 275
#     4  10  21  31  43  65  92 123 156 188 230 270
#     4  11  20  30  44  66  91 124 155 184 228 274
#     4   9  16  26  44  68  91 122 160 190 220 260
#
# _framework density 15.994068
#
# number of rings (size 3 to 8) (size 9 to 14) (size 15 to 20)
#    0.000    2.500    2.500    1.875    0.000    5.000 
#    0.000    0.000    0.000    2.250    0.000    2.625 
#    0.000    4.000    0.000    0.000    0.000    0.125 
#
# Total GULP energy -793309.820743 kJ/mol
# GULP energy per Si atom -12395.465949 kJ/mol
# Density = 1.595766 g / cm^3
# Si number density = 15.994068 Si / 1000 Ang^3
#
#
#
# Elastic Constant Matrix: (Units=GPa)
#
#
# Indices 1 2 3 4 5 6 
#
# 1 117.5707 74.9359 30.3697 0.0000 0.0000 0.0000
# 2 74.9359 121.9044 30.1310 0.0000 0.0000 0.0000
# 3 30.3697 30.1310 22.0240 0.0000 0.0000 0.0000
# 4 0.0000 0.0000 0.0000 20.9182 0.0000 0.0000
# 5 0.0000 0.0000 0.0000 0.0000 7.4069 0.0000
# 6 0.0000 0.0000 0.0000 0.0000 0.0000 23.7299
#
#
#
# Elastic Compliance Matrix: (Units=1/GPa)
#
#
# Indices 1 2 3 4 5 6 
#
# 1 0.016161 -0.006688 -0.013136 0.000000 0.000000 0.000000
# 2 -0.006688 0.015162 -0.011521 0.000000 0.000000 0.000000
# 3 -0.013136 -0.011521 0.079280 0.000000 0.000000 0.000000
# 4 0.000000 0.000000 0.000000 0.047805 0.000000 0.000000
# 5 0.000000 0.000000 0.000000 0.000000 0.135010 0.000000
# 6 0.000000 0.000000 0.000000 0.000000 0.000000 0.042141
#
#
# Mechanical properties :
#
#
# Convention : Reuss Voigt Hill
#
# Bulk Modulus (GPa) = 20.87058 59.15248 40.01153
# Shear Modulus (GPa) = 12.07091 18.81515 15.44303
#
# Velocity S-wave (km/s) = 2.75018 3.43357 3.11070
# Velocity P-wave (km/s) = 4.81269 7.26522 6.16220
#
# Compressibility (1/GPa) = 0.04791435
#
# Stress axis : x y z
#
# Youngs Moduli (GPa) = 61.87680 65.95557 12.61349
#
# Poissons Ratio (x) = 0.44109 0.16569
# Poissons Ratio (y) = 0.41381 0.14532
# Poissons Ratio (z) = 0.81280 0.75987
#
# Static dielectric constant tensor:
#      x y z
#    x 3.250560 0.000000 0.000000 
#    y 0.000000 3.250040 0.000000 
#    z 0.000000 0.000000 2.785050 
# 
# 
# High freq. dielectric constant tensor:
#      x y z
#    x 1.592650 0.000000 0.000000 
#    y 0.000000 1.615190 0.000000 
#    z 0.000000 0.000000 1.587540 
# 
# From -- ./inp_files/57793.got.cif
#   From: 2010.03.12/outbox.cif.g09.slc.cpg/sg63_29_cif.got.tgz:57793.got - 2010.04.10 19:34:48.
