data_PCOD8255128
_publ_section_title
;
Structure prediction by ZEFSAII (Michael W. Deem and Ramdas Pophale) SiO2 
 PCOD8255128
Probable space group: P N M A
;
_chemical_formula_sum "Si O2"
_cell_formula_units_Z 64
_cell_length_a 15.663908
_cell_length_b 8.481811
_cell_length_c 24.533787
_cell_angle_alpha 90.000000
_cell_angle_beta 90.000000
_cell_angle_gamma 90.000000
_cell_volume 3259.517409
_symmetry_space_group_name_H-M "P N M A"
_symmetry_group_IT_number 62
_symmetry_cell_setting 'orthorhombic'
loop_
_space_group_symop_operation_xyz
x,y,z
1/2-x,-y,1/2+z
1/2+x,1/2-y,1/2-z
-x,1/2+y,-z
-x,-y,-z
1/2+x,y,1/2-z
1/2-x,1/2+y,1/2+z
x,1/2-y,z
loop_
_atom_site_type_symbol
_atom_site_label
_atom_site_fract_x
_atom_site_fract_y
_atom_site_fract_z
Si Si1 0.594687 0.438108 0.240098
Si Si2 0.593259 0.563247 0.510244
Si Si3 0.655946 0.062609 0.125250
Si Si4 0.593259 0.436753 0.010244
Si Si5 0.750000 0.563287 0.940074
Si Si6 0.250000 0.437610 0.184956
Si Si7 0.094687 0.561892 0.759902
Si Si8 0.155946 0.562609 0.874750
O O1 0.595581 0.250000 0.241527
O O2 0.615011 0.504775 0.180195
O O3 0.664664 0.500421 0.283950
O O4 0.500000 0.504690 0.250000
O O5 0.500000 0.500000 0.500000
O O6 0.597381 0.750000 0.505185
O O7 0.664179 0.495578 0.469351
O O8 0.608041 0.503651 0.571654
O O9 0.657155 0.250000 0.127678
O O10 0.750000 0.992816 0.121231
O O11 0.608041 0.003651 0.071654
O O12 0.597381 0.250000 0.005184
O O13 0.664179 0.504422 0.969351
O O14 0.500000 0.500000 0.000000
O O15 0.750000 0.750000 0.940847
O O16 0.750000 0.501001 0.877438
O O17 0.250000 0.250000 0.186261
O O18 0.335336 0.500421 0.216050
O O19 0.095581 0.750000 0.758473
O O20 0.115011 0.495225 0.819805
O O21 0.157155 0.750000 0.872322
#
# Coordination Sequence:
#
# PCOD8255128 Si02
#       8
#     8   8   8   8   8   8   8   8
#     4   9  16  26  45  73 107 141 174 224 287 330
#     4  11  23  39  59  85 116 152 194 238 287 340
#     4   9  16  30  51  75 106 142 182 232 281 327
#     4  11  23  39  59  85 116 152 194 238 287 340
#     4  11  23  38  57  85 121 155 190 231 282 346
#     4   9  18  30  45  75 113 143 178 227 280 336
#     4   9  16  26  45  73 107 141 174 224 287 330
#     4   9  16  30  51  75 106 142 182 232 281 327
#
# _framework density 19.634810000000002
#
# number of rings (size 3 to 8) (size 9 to 14) (size 15 to 20)
#    0.000    2.250    2.500    1.125    3.500    0.000 
#    0.000    0.000    0.000    0.000    0.000   12.250 
#    0.000    0.000    0.000    0.000    0.000    0.000 
#
# Total GULP energy -793150.322260 kJ/mol
# GULP energy per Si atom -12392.973785 kJ/mol
# Density = 1.959012 g / cm^3
# Si number density = 19.634810 Si / 1000 Ang^3
#
#
#
# Elastic Constant Matrix: (Units=GPa)
#
#
# Indices 1 2 3 4 5 6 
#
# 1 209.4594 26.1445 113.3226 0.0000 0.0000 0.0000
# 2 26.1445 29.1722 31.9444 0.0000 0.0000 0.0000
# 3 113.3226 31.9444 216.4483 0.0000 0.0000 0.0000
# 4 0.0000 0.0000 0.0000 20.8866 0.0000 0.0000
# 5 0.0000 0.0000 0.0000 0.0000 42.4774 0.0000
# 6 0.0000 0.0000 0.0000 0.0000 0.0000 23.1407
#
#
#
# Elastic Compliance Matrix: (Units=1/GPa)
#
#
# Indices 1 2 3 4 5 6 
#
# 1 0.006826 -0.002629 -0.003186 0.000000 0.000000 0.000000
# 2 -0.002629 0.041899 -0.004807 0.000000 0.000000 0.000000
# 3 -0.003186 -0.004807 0.006997 0.000000 0.000000 0.000000
# 4 0.000000 0.000000 0.000000 0.047878 0.000000 0.000000
# 5 0.000000 0.000000 0.000000 0.000000 0.023542 0.000000
# 6 0.000000 0.000000 0.000000 0.000000 0.000000 0.043214
#
#
# Mechanical properties :
#
#
# Convention : Reuss Voigt Hill
#
# Bulk Modulus (GPa) = 29.00336 88.65589 58.82962
# Shear Modulus (GPa) = 24.61922 36.21215 30.41568
#
# Velocity S-wave (km/s) = 3.54482 4.29917 3.94009
# Velocity P-wave (km/s) = 5.61764 8.36028 7.12222
#
# Compressibility (1/GPa) = 0.03447877
#
# Stress axis : x y z
#
# Youngs Moduli (GPa) = 146.50072 23.86665 142.90961
#
# Poissons Ratio (x) = 0.06275 0.45527
# Poissons Ratio (y) = 0.38515 0.68701
# Poissons Ratio (z) = 0.46671 0.11473
#
# Static dielectric constant tensor:
#      x y z
#    x 3.733540 0.000000 0.000000 
#    y 0.000000 3.023100 0.000000 
#    z 0.000000 0.000000 3.792800 
# 
# 
# High freq. dielectric constant tensor:
#      x y z
#    x 1.781910 0.000000 0.000000 
#    y 0.000000 1.705990 0.000000 
#    z 0.000000 0.000000 1.785950 
# 
# From -- ./inp_files/29780.got.cif
#   From: 2010.03.12/outbox.cif.g09.slc.cpg/sg62_15_cif.got.tgz:29780.got - 2010.04.10 19:12:36.
