data_PCOD8255390
_publ_section_title
;
Structure prediction by ZEFSAII (Michael W. Deem and Ramdas Pophale) SiO2 
 PCOD8255390
Probable space group: C M C M
;
_chemical_formula_sum "Si O2"
_cell_formula_units_Z 104
_cell_length_a 13.466038
_cell_length_b 22.040832
_cell_length_c 22.665153
_cell_angle_alpha 90.000000
_cell_angle_beta 90.000000
_cell_angle_gamma 90.000000
_cell_volume 6727.078182
_symmetry_space_group_name_H-M "C M C M"
_symmetry_group_IT_number 63
_symmetry_cell_setting 'orthorhombic'
loop_
_space_group_symop_operation_xyz
x,y,z
-x,-y,1/2+z
x,-y,-z
-x,y,1/2-z
-x,-y,-z
x,y,1/2-z
-x,y,z
x,-y,1/2+z
1/2+x,1/2+y,z
1/2-x,1/2-y,1/2+z
1/2+x,1/2-y,-z
1/2-x,1/2+y,1/2-z
1/2-x,1/2-y,-z
1/2+x,1/2+y,1/2-z
1/2-x,1/2+y,z
1/2+x,1/2-y,1/2+z
loop_
_atom_site_type_symbol
_atom_site_label
_atom_site_fract_x
_atom_site_fract_y
_atom_site_fract_z
Si Si1 0.385688 0.753625 0.250000
Si Si2 0.882638 0.376695 0.125373
Si Si3 0.116899 0.126700 0.052678
Si Si4 0.113624 0.038829 0.750000
Si Si5 0.614922 0.739565 0.377222
Si Si6 0.254575 0.442381 0.460838
Si Si7 0.798868 0.380993 0.250000
Si Si8 0.387750 0.488560 0.626291
O O1 0.500000 0.780011 0.250000
O O2 0.368558 0.715145 0.190271
O O3 0.307372 0.808539 0.250000
O O4 0.841519 0.307579 0.117659
O O5 0.842203 0.414074 0.069541
O O6 0.850027 0.404528 0.189040
O O7 0.000000 0.379201 0.122068
O O8 0.159685 0.191286 0.076405
O O9 0.000000 0.128760 0.034801
O O10 0.134299 0.079807 0.106161
O O11 0.184709 0.107723 0.997779
O O12 0.184280 0.097816 0.750000
O O13 0.136216 0.994961 0.804873
O O14 0.000000 0.062809 0.750000
O O15 0.500000 0.742116 0.392135
O O16 0.221661 0.500000 0.500000
O O17 0.325425 0.462354 0.408616
O O18 0.500000 0.506028 0.611719
#
# Coordination Sequence:
#
# PCOD8255390 Si02
#       8
#     8  16  16   8  16  16   8  16
#     4   8  14  25  44  67  90 113 142 183 226 257
#     4  10  19  31  48  67  88 113 145 189 226 255
#     4   9  17  29  45  63  89 121 149 175 213 267
#     4  10  18  27  44  69  93 115 139 174 220 264
#     4   8  15  27  43  66  89 112 145 183 223 261
#     4  10  19  30  44  63  88 122 152 179 213 257
#     4  10  16  30  48  66  87 114 137 177 222 269
#     4   9  17  29  43  64  91 118 144 174 216 265
#
# _framework density 15.459906
#
# number of rings (size 3 to 8) (size 9 to 14) (size 15 to 20)
#    0.000    2.769    1.538    2.077    0.000    3.385 
#    0.000    3.077    0.000    0.000    0.000    0.000 
#    0.000    0.000    0.615    0.000    0.000    0.000 
#
# Total GULP energy -644264.078434 kJ/mol
# GULP energy per Si atom -12389.693816 kJ/mol
# Density = 1.542472 g / cm^3
# Si number density = 15.459906 Si / 1000 Ang^3
#
#
#
# Elastic Constant Matrix: (Units=GPa)
#
#
# Indices 1 2 3 4 5 6 
#
# 1 60.3665 34.1131 43.0330 0.0000 0.0000 0.0000
# 2 34.1131 62.3138 46.4701 0.0000 0.0000 0.0000
# 3 43.0330 46.4701 114.5581 0.0000 0.0000 0.0000
# 4 0.0000 0.0000 0.0000 24.4930 0.0000 0.0000
# 5 0.0000 0.0000 0.0000 0.0000 22.2396 0.0000
# 6 0.0000 0.0000 0.0000 0.0000 0.0000 17.7487
#
#
#
# Elastic Compliance Matrix: (Units=1/GPa)
#
#
# Indices 1 2 3 4 5 6 
#
# 1 0.026443 -0.010134 -0.005822 0.000000 0.000000 0.000000
# 2 -0.010134 0.026892 -0.007102 0.000000 0.000000 0.000000
# 3 -0.005822 -0.007102 0.013797 0.000000 0.000000 0.000000
# 4 0.000000 0.000000 0.000000 0.040828 0.000000 0.000000
# 5 0.000000 0.000000 0.000000 0.000000 0.044965 0.000000
# 6 0.000000 0.000000 0.000000 0.000000 0.000000 0.056342
#
#
# Mechanical properties :
#
#
# Convention : Reuss Voigt Hill
#
# Bulk Modulus (GPa) = 47.58378 53.83008 50.70693
# Shear Modulus (GPa) = 19.05585 20.47110 19.76347
#
# Velocity S-wave (km/s) = 3.51465 3.64282 3.57931
# Velocity P-wave (km/s) = 6.87866 7.25178 7.06768
#
# Compressibility (1/GPa) = 0.02101557
#
# Stress axis : x y z
#
# Youngs Moduli (GPa) = 37.81790 37.18640 72.47921
#
# Poissons Ratio (x) = 0.37684 0.42199
# Poissons Ratio (y) = 0.38324 0.51473
# Poissons Ratio (z) = 0.22018 0.26409
#
# Static dielectric constant tensor:
#      x y z
#    x 2.716120 0.000000 0.000000 
#    y 0.000000 2.960060 0.000000 
#    z 0.000000 0.000000 3.195600 
# 
# 
# High freq. dielectric constant tensor:
#      x y z
#    x 1.562330 0.000000 0.000000 
#    y 0.000000 1.576700 0.000000 
#    z 0.000000 0.000000 1.606720 
# 
# From -- ./inp_files/54722.got.cif
#   From: 2010.03.12/outbox.cif.g09.slc.cpg/sg63_28_cif.got.tgz:54722.got - 2010.04.10 19:34:48.
