data_PCOD8255352
_publ_section_title
;
Structure prediction by ZEFSAII (Michael W. Deem and Ramdas Pophale) SiO2 
 PCOD8255352
Probable space group: C M C M
;
_chemical_formula_sum "Si O2"
_cell_formula_units_Z 128
_cell_length_a 23.079646
_cell_length_b 19.336454
_cell_length_c 17.601226
_cell_angle_alpha 90.000000
_cell_angle_beta 90.000000
_cell_angle_gamma 90.000000
_cell_volume 7855.048970
_symmetry_space_group_name_H-M "C M C M"
_symmetry_group_IT_number 63
_symmetry_cell_setting 'orthorhombic'
loop_
_space_group_symop_operation_xyz
x,y,z
-x,-y,1/2+z
x,-y,-z
-x,y,1/2-z
-x,-y,-z
x,y,1/2-z
-x,y,z
x,-y,1/2+z
1/2+x,1/2+y,z
1/2-x,1/2-y,1/2+z
1/2+x,1/2-y,-z
1/2-x,1/2+y,1/2-z
1/2-x,1/2-y,-z
1/2+x,1/2+y,1/2-z
1/2-x,1/2+y,z
1/2+x,1/2-y,1/2+z
loop_
_atom_site_type_symbol
_atom_site_label
_atom_site_fract_x
_atom_site_fract_y
_atom_site_fract_z
Si Si1 0.388237 0.436174 0.096131
Si Si2 0.830375 0.281622 0.840665
Si Si3 0.063048 0.800767 0.338913
Si Si4 0.238361 0.592918 0.160430
Si Si5 0.738505 0.557471 0.840013
Si Si6 0.280395 0.201362 0.839385
Si Si7 0.647853 0.326213 0.660345
Si Si8 0.068425 0.918050 0.929108
O O1 0.419146 0.379868 0.148402
O O2 0.320241 0.435272 0.113251
O O3 0.415889 0.511049 0.115260
O O4 0.398235 0.417119 0.008682
O O5 0.833505 0.278339 0.750000
O O6 0.890858 0.253472 0.875269
O O7 0.815038 0.359483 0.869785
O O8 0.779780 0.231556 0.871761
O O9 0.059598 0.788222 0.250000
O O10 0.000000 0.786532 0.376083
O O11 0.237442 0.598034 0.250000
O O12 0.230468 0.513702 0.134026
O O13 0.300227 0.622885 0.133931
O O14 0.724088 0.557754 0.750000
O O15 0.782777 0.620065 0.861396
O O16 0.278420 0.211329 0.750000
O O17 0.335172 0.247752 0.867253
O O18 0.636645 0.329236 0.750000
O O19 0.589606 0.351729 0.618993
O O20 0.000000 0.912636 0.942436
#
# Coordination Sequence:
#
# PCOD8255352 Si02
#       8
#    16  16  16  16  16  16  16  16
#     4  11  20  32  43  60  89 122 148 176 215 260
#     4   8  13  23  38  60  89 114 136 173 217 249
#     4  10  18  27  43  65  87 114 147 177 207 253
#     4   8  14  24  42  65  87 111 142 176 213 256
#     4  10  16  26  48  72  89 115 149 177 210 260
#     4   8  14  25  44  67  90 109 134 179 229 257
#     4   9  17  31  48  65  83 109 148 189 218 254
#     4  11  23  35  44  57  86 125 154 180 220 256
#
# _framework density 16.295252000000001
#
# number of rings (size 3 to 8) (size 9 to 14) (size 15 to 20)
#    0.000    2.625    2.500    3.375    0.000    0.750 
#    0.000    0.625    0.000    0.000    0.000    0.875 
#    0.000    5.000    0.000    2.375    0.000    2.125 
#
# Total GULP energy -792930.631590 kJ/mol
# GULP energy per Si atom -12389.541119 kJ/mol
# Density = 1.625816 g / cm^3
# Si number density = 16.295252 Si / 1000 Ang^3
#
#
#
# Elastic Constant Matrix: (Units=GPa)
#
#
# Indices 1 2 3 4 5 6 
#
# 1 69.5374 49.5170 16.4740 0.0000 0.0000 0.0000
# 2 49.5170 128.0654 17.2536 0.0000 0.0000 0.0000
# 3 16.4740 17.2536 16.8451 0.0000 0.0000 0.0000
# 4 0.0000 0.0000 0.0000 6.8830 0.0000 0.0000
# 5 0.0000 0.0000 0.0000 0.0000 13.4385 0.0000
# 6 0.0000 0.0000 0.0000 0.0000 0.0000 19.0556
#
#
#
# Elastic Compliance Matrix: (Units=1/GPa)
#
#
# Indices 1 2 3 4 5 6 
#
# 1 0.022845 -0.006755 -0.015422 0.000000 0.000000 0.000000
# 2 -0.006755 0.011056 -0.004718 0.000000 0.000000 0.000000
# 3 -0.015422 -0.004718 0.079279 0.000000 0.000000 0.000000
# 4 0.000000 0.000000 0.000000 0.145285 0.000000 0.000000
# 5 0.000000 0.000000 0.000000 0.000000 0.074413 0.000000
# 6 0.000000 0.000000 0.000000 0.000000 0.000000 0.052478
#
#
# Mechanical properties :
#
#
# Convention : Reuss Voigt Hill
#
# Bulk Modulus (GPa) = 16.83811 42.32635 29.58223
# Shear Modulus (GPa) = 10.89460 16.62232 13.75846
#
# Velocity S-wave (km/s) = 2.58849 3.19732 2.90888
# Velocity P-wave (km/s) = 4.39195 6.29774 5.42912
#
# Compressibility (1/GPa) = 0.05938911
#
# Stress axis : x y z
#
# Youngs Moduli (GPa) = 43.77367 90.44823 12.61368
#
# Poissons Ratio (x) = 0.61100 0.19453
# Poissons Ratio (y) = 0.29570 0.05951
# Poissons Ratio (z) = 0.67509 0.42671
#
# Static dielectric constant tensor:
#      x y z
#    x 3.161490 0.000000 0.000000 
#    y 0.000000 3.597350 0.000000 
#    z 0.000000 0.000000 2.693580 
# 
# 
# High freq. dielectric constant tensor:
#      x y z
#    x 1.599900 0.000000 0.000000 
#    y 0.000000 1.629730 0.000000 
#    z 0.000000 0.000000 1.587320 
# 
# From -- ./inp_files/48508.got.cif
#   From: 2010.03.12/outbox.cif.g09.slc.cpg/sg63_25_cif.got.tgz:48508.got - 2010.04.10 19:34:48.
