data_PCOD8255105
_publ_section_title
;
Structure prediction by ZEFSAII (Michael W. Deem and Ramdas Pophale) SiO2 
 PCOD8255105
Probable space group: P N M A
;
_chemical_formula_sum "Si O2"
_cell_formula_units_Z 56
_cell_length_a 9.267967
_cell_length_b 19.792560
_cell_length_c 14.158011
_cell_angle_alpha 90.000000
_cell_angle_beta 90.000000
_cell_angle_gamma 90.000000
_cell_volume 2597.100132
_symmetry_space_group_name_H-M "P N M A"
_symmetry_group_IT_number 62
_symmetry_cell_setting 'orthorhombic'
loop_
_space_group_symop_operation_xyz
x,y,z
1/2-x,-y,1/2+z
1/2+x,1/2-y,1/2-z
-x,1/2+y,-z
-x,-y,-z
1/2+x,y,1/2-z
1/2-x,1/2+y,1/2+z
x,1/2-y,z
loop_
_atom_site_type_symbol
_atom_site_label
_atom_site_fract_x
_atom_site_fract_y
_atom_site_fract_z
Si Si1 0.023781 0.750000 0.624911
Si Si2 0.694697 0.325491 0.645250
Si Si3 0.756752 0.938026 0.009236
Si Si4 0.761059 0.061301 0.145291
Si Si5 0.914071 0.598723 0.829067
Si Si6 0.980383 0.673783 0.315520
Si Si7 0.464970 0.880212 0.986888
Si Si8 0.172674 0.250000 0.206187
O O1 0.154122 0.750000 0.700433
O O2 0.037171 0.686164 0.557159
O O3 0.874798 0.750000 0.683945
O O4 0.647112 0.250000 0.618097
O O5 0.697532 0.364990 0.547649
O O6 0.583950 0.358357 0.720068
O O7 0.849100 0.327587 0.695394
O O8 0.784244 0.988442 0.096867
O O9 0.855271 0.946738 0.916418
O O10 0.587407 0.938863 0.978715
O O11 0.655206 0.064491 0.235663
O O12 0.685090 0.104253 0.063166
O O13 0.913413 0.092056 0.176622
O O14 0.882753 0.679219 0.839686
O O15 0.920802 0.750000 0.327373
O O16 0.925915 0.630187 0.403892
#
# Coordination Sequence:
#
# PCOD8255105 Si02
#       8
#     4   8   8   8   8   8   8   4
#     4  12  22  40  70 101 133 174 226 285 361 401
#     4   9  20  36  61  91 123 166 223 276 332 390
#     4  11  25  44  68  95 134 183 226 280 342 413
#     4  12  27  45  65 100 139 179 231 275 346 423
#     4  12  26  45  70 101 138 181 229 292 344 413
#     4   9  18  34  57  85 122 160 208 268 328 389
#     4  11  22  40  67  97 132 176 224 280 343 415
#     4  12  24  42  74 101 137 174 226 295 351 397
#
# _framework density 21.562512000000002
#
# number of rings (size 3 to 8) (size 9 to 14) (size 15 to 20)
#    0.000    1.143    3.571    2.571    2.000    4.571 
#    0.000    0.000    0.000    0.000    0.000    0.000 
#    0.000    0.000    0.000    0.000    0.000    0.000 
#
# Total GULP energy -694188.133526 kJ/mol
# GULP energy per Si atom -12396.216670 kJ/mol
# Density = 2.151343 g / cm^3
# Si number density = 21.562512 Si / 1000 Ang^3
#
#
#
# Elastic Constant Matrix: (Units=GPa)
#
#
# Indices 1 2 3 4 5 6 
#
# 1 64.0463 19.2005 8.0061 0.0000 0.0000 0.0000
# 2 19.2005 69.6845 21.8385 0.0000 0.0000 0.0000
# 3 8.0061 21.8385 51.5189 0.0000 0.0000 0.0000
# 4 0.0000 0.0000 0.0000 33.2484 0.0000 0.0000
# 5 0.0000 0.0000 0.0000 0.0000 45.3506 0.0000
# 6 0.0000 0.0000 0.0000 0.0000 0.0000 23.3732
#
#
#
# Elastic Compliance Matrix: (Units=1/GPa)
#
#
# Indices 1 2 3 4 5 6 
#
# 1 0.017045 -0.004459 -0.000759 0.000000 0.000000 0.000000
# 2 -0.004459 0.017715 -0.006816 0.000000 0.000000 0.000000
# 3 -0.000759 -0.006816 0.022418 0.000000 0.000000 0.000000
# 4 0.000000 0.000000 0.000000 0.030077 0.000000 0.000000
# 5 0.000000 0.000000 0.000000 0.000000 0.022050 0.000000
# 6 0.000000 0.000000 0.000000 0.000000 0.000000 0.042784
#
#
# Mechanical properties :
#
#
# Convention : Reuss Voigt Hill
#
# Bulk Modulus (GPa) = 30.20223 31.48219 30.84221
# Shear Modulus (GPa) = 26.71028 29.47476 28.09252
#
# Velocity S-wave (km/s) = 3.52339 3.70123 3.61340
# Velocity P-wave (km/s) = 5.53078 5.73564 5.63415
#
# Compressibility (1/GPa) = 0.03311013
#
# Stress axis : x y z
#
# Youngs Moduli (GPa) = 58.66736 56.44886 44.60753
#
# Poissons Ratio (x) = 0.25169 0.03385
# Poissons Ratio (y) = 0.26158 0.30407
# Poissons Ratio (z) = 0.04452 0.38478
#
# Static dielectric constant tensor:
#      x y z
#    x 3.873860 0.000000 0.000000 
#    y 0.000000 3.991200 0.000000 
#    z 0.000000 0.000000 3.922950 
# 
# 
# High freq. dielectric constant tensor:
#      x y z
#    x 1.843890 0.000000 0.000000 
#    y 0.000000 1.838390 0.000000 
#    z 0.000000 0.000000 1.853860 
# 
# From -- ./inp_files/17225.got.cif
#   From: 2010.03.12/outbox.cif.g09.slc.cpg/sg62_9_cif.got.tgz:17225.got - 2010.04.10 19:12:36.
