data_PCOD8255111
_publ_section_title
;
Structure prediction by ZEFSAII (Michael W. Deem and Ramdas Pophale) SiO2 
 PCOD8255111
Probable space group: P N M A
;
_chemical_formula_sum "Si O2"
_cell_formula_units_Z 48
_cell_length_a 13.804661
_cell_length_b 17.034156
_cell_length_c 9.590065
_cell_angle_alpha 90.000000
_cell_angle_beta 90.000000
_cell_angle_gamma 90.000000
_cell_volume 2255.110968
_symmetry_space_group_name_H-M "P N M A"
_symmetry_group_IT_number 62
_symmetry_cell_setting 'orthorhombic'
loop_
_space_group_symop_operation_xyz
x,y,z
1/2-x,-y,1/2+z
1/2+x,1/2-y,1/2-z
-x,1/2+y,-z
-x,-y,-z
1/2+x,y,1/2-z
1/2-x,1/2+y,1/2+z
x,1/2-y,z
loop_
_atom_site_type_symbol
_atom_site_label
_atom_site_fract_x
_atom_site_fract_y
_atom_site_fract_z
Si Si1 0.618648 0.656133 0.169071
Si Si2 0.897440 0.422931 0.172248
Si Si3 0.581508 0.405319 0.776468
Si Si4 0.429270 0.836699 0.526488
Si Si5 0.232043 0.889682 0.599245
Si Si6 0.723376 0.567581 0.403368
O O1 0.631266 0.750000 0.174558
O O2 0.508007 0.631793 0.138671
O O3 0.643149 0.615510 0.316448
O O4 0.687925 0.617614 0.054639
O O5 0.931517 0.502744 0.246216
O O6 0.851558 0.364936 0.289896
O O7 0.993360 0.391332 0.100651
O O8 0.810525 0.433634 0.062539
O O9 0.595765 0.362618 0.629408
O O10 0.673670 0.389700 0.876887
O O11 0.473461 0.750000 0.524158
O O12 0.328033 0.836717 0.611436
O O13 0.265623 0.977281 0.640905
#
# Coordination Sequence:
#
# PCOD8255111 Si02
#       6
#     8   8   8   8   8   8
#     4  12  25  42  68 102 139 177 228 285 341 402
#     4  11  24  42  69  98 134 172 230 279 334 406
#     4  11  23  41  70  97 132 174 233 273 333 398
#     4  12  23  40  65  94 132 177 216 268 343 400
#     4  11  24  43  66  98 135 178 220 281 340 401
#     4  11  22  42  69  98 127 179 232 276 321 409
#
# _framework density 21.284984000000001
#
# number of rings (size 3 to 8) (size 9 to 14) (size 15 to 20)
#    0.000    0.667    5.000    3.500    0.000    6.000 
#    0.000    0.000    0.000    0.000    0.000    0.000 
#    0.000    0.000    0.000    0.000    0.000    0.000 
#
# Total GULP energy -595158.803372 kJ/mol
# GULP energy per Si atom -12399.141737 kJ/mol
# Density = 2.123654 g / cm^3
# Si number density = 21.284984 Si / 1000 Ang^3
#
#
#
# Elastic Constant Matrix: (Units=GPa)
#
#
# Indices 1 2 3 4 5 6 
#
# 1 120.4655 28.9666 26.2829 0.0000 0.0000 0.0000
# 2 28.9666 87.3430 17.8106 0.0000 0.0000 0.0000
# 3 26.2829 17.8106 66.5295 0.0000 0.0000 0.0000
# 4 0.0000 0.0000 0.0000 15.6270 0.0000 0.0000
# 5 0.0000 0.0000 0.0000 0.0000 6.1604 0.0000
# 6 0.0000 0.0000 0.0000 0.0000 0.0000 17.4551
#
#
#
# Elastic Compliance Matrix: (Units=1/GPa)
#
#
# Indices 1 2 3 4 5 6 
#
# 1 0.009592 -0.002547 -0.003107 0.000000 0.000000 0.000000
# 2 -0.002547 0.012787 -0.002417 0.000000 0.000000 0.000000
# 3 -0.003107 -0.002417 0.016905 0.000000 0.000000 0.000000
# 4 0.000000 0.000000 0.000000 0.063992 0.000000 0.000000
# 5 0.000000 0.000000 0.000000 0.000000 0.162328 0.000000
# 6 0.000000 0.000000 0.000000 0.000000 0.000000 0.057290
#
#
# Mechanical properties :
#
#
# Convention : Reuss Voigt Hill
#
# Bulk Modulus (GPa) = 43.21337 46.71758 44.96547
# Shear Modulus (GPa) = 14.41961 21.26702 17.84332
#
# Velocity S-wave (km/s) = 2.60562 3.16437 2.89849
# Velocity P-wave (km/s) = 5.42206 5.94536 5.68973
#
# Compressibility (1/GPa) = 0.02314099
#
# Stress axis : x y z
#
# Youngs Moduli (GPa) = 104.25797 78.20601 59.15246
#
# Poissons Ratio (x) = 0.19922 0.18380
# Poissons Ratio (y) = 0.26558 0.14296
# Poissons Ratio (z) = 0.32396 0.18901
#
# Static dielectric constant tensor:
#      x y z
#    x 4.205600 0.000000 0.000000 
#    y 0.000000 3.792340 0.000000 
#    z 0.000000 0.000000 3.874290 
# 
# 
# High freq. dielectric constant tensor:
#      x y z
#    x 1.856790 0.000000 0.000000 
#    y 0.000000 1.823080 0.000000 
#    z 0.000000 0.000000 1.825470 
# 
# From -- ./inp_files/6486.got.cif
#   From: 2010.03.12/outbox.cif.g09.slc.cpg/sg62_4_cif.got.tgz:6486.got - 2010.04.10 19:12:36.
