data_PCOD8255027
_publ_section_title
;
Structure prediction by ZEFSAII (Michael W. Deem and Ramdas Pophale) SiO2 
 PCOD8255027
Probable space group: P N M A
;
_chemical_formula_sum "Si O2"
_cell_formula_units_Z 64
_cell_length_a 9.841229
_cell_length_b 20.751385
_cell_length_c 16.967578
_cell_angle_alpha 90.000000
_cell_angle_beta 90.000000
_cell_angle_gamma 90.000000
_cell_volume 3465.104049
_symmetry_space_group_name_H-M "P N M A"
_symmetry_group_IT_number 62
_symmetry_cell_setting 'orthorhombic'
loop_
_space_group_symop_operation_xyz
x,y,z
1/2-x,-y,1/2+z
1/2+x,1/2-y,1/2-z
-x,1/2+y,-z
-x,-y,-z
1/2+x,y,1/2-z
1/2-x,1/2+y,1/2+z
x,1/2-y,z
loop_
_atom_site_type_symbol
_atom_site_label
_atom_site_fract_x
_atom_site_fract_y
_atom_site_fract_z
Si Si1 0.501711 0.174420 0.334252
Si Si2 0.490944 0.325962 0.668576
Si Si3 0.391407 0.004399 0.121702
Si Si4 0.503371 0.387792 0.502142
Si Si5 0.806836 0.496862 0.005932
Si Si6 0.723157 0.109041 0.770564
Si Si7 0.229602 0.608934 0.727274
Si Si8 0.187606 0.997348 0.336437
O O1 0.486798 0.250000 0.324835
O O2 0.479162 0.157079 0.426204
O O3 0.653459 0.156087 0.305319
O O4 0.381611 0.143879 0.281795
O O5 0.495933 0.250000 0.672359
O O6 0.536882 0.346978 0.580488
O O7 0.335412 0.346820 0.686501
O O8 0.597750 0.351333 0.733637
O O9 0.348663 0.073717 0.156660
O O10 0.551000 0.001011 0.114647
O O11 0.335816 0.945110 0.172411
O O12 0.340960 0.998951 0.032453
O O13 0.619228 0.438388 0.477138
O O14 0.374123 0.431267 0.525061
O O15 0.808683 0.494608 0.100718
O O16 0.802801 0.072832 0.701229
O O17 0.309977 0.554191 0.774183
#
# Coordination Sequence:
#
# PCOD8255027 Si02
#       8
#     8   8   8   8   8   8   8   8
#     4  12  24  43  62  85 126 165 202 245 292 363
#     4  12  24  43  62  85 126 165 202 245 292 363
#     4  11  21  36  62  86 123 153 194 256 306 358
#     4  11  23  38  62  92 113 159 206 244 304 357
#     4  11  21  36  62  86 123 153 194 256 306 358
#     4  11  23  38  62  92 113 159 206 244 304 357
#     4  11  23  38  62  92 113 159 206 244 304 357
#     4  11  21  36  62  86 123 153 194 256 306 358
#
# _framework density 18.469864000000001
#
# number of rings (size 3 to 8) (size 9 to 14) (size 15 to 20)
#    0.000    0.750    7.500    1.500    0.000    0.000 
#    0.000    0.000    0.000    0.000    0.000   10.500 
#    0.000    0.000    0.000    0.000    0.000    0.000 
#
# Total GULP energy -793358.262905 kJ/mol
# GULP energy per Si atom -12396.222858 kJ/mol
# Density = 1.842783 g / cm^3
# Si number density = 18.469864 Si / 1000 Ang^3
#
#
#
# Elastic Constant Matrix: (Units=GPa)
#
#
# Indices 1 2 3 4 5 6 
#
# 1 80.2796 27.3069 12.4583 0.0000 0.0000 0.0000
# 2 27.3069 113.6419 23.1236 0.0000 0.0000 0.0000
# 3 12.4583 23.1236 78.0367 0.0000 0.0000 0.0000
# 4 0.0000 0.0000 0.0000 -28.8162 0.0000 0.0000
# 5 0.0000 0.0000 0.0000 0.0000 36.0489 0.0000
# 6 0.0000 0.0000 0.0000 0.0000 0.0000 33.3665
#
#
#
# Elastic Compliance Matrix: (Units=1/GPa)
#
#
# Indices 1 2 3 4 5 6 
#
# 1 0.013686 -0.003026 -0.001288 0.000000 0.000000 0.000000
# 2 -0.003026 0.010033 -0.002490 0.000000 0.000000 0.000000
# 3 -0.001288 -0.002490 0.013758 0.000000 0.000000 0.000000
# 4 0.000000 0.000000 0.000000 -0.034703 0.000000 0.000000
# 5 0.000000 0.000000 0.000000 0.000000 0.027740 0.000000
# 6 0.000000 0.000000 0.000000 0.000000 0.000000 0.029970
#
#
# Mechanical properties :
#
#
# Convention : Reuss Voigt Hill
#
# Bulk Modulus (GPa) = 41.89670 44.19286 43.04478
# Shear Modulus (GPa) = 60.93861 22.05779 41.49820
#
# Velocity S-wave (km/s) = 5.75023 3.45955 4.74519
# Velocity P-wave (km/s) = 8.17435 6.31957 7.30606
#
# Compressibility (1/GPa) = 0.02386823
#
# Stress axis : x y z
#
# Youngs Moduli (GPa) = 73.06840 99.66674 72.68535
#
# Poissons Ratio (x) = 0.30164 0.09363
# Poissons Ratio (y) = 0.22114 0.18098
# Poissons Ratio (z) = 0.09412 0.24816
#
# Static dielectric constant tensor:
#      x y z
#    x 3.403420 0.000000 0.000000 
#    y 0.000000 3.303200 0.000000 
#    z 0.000000 0.000000 3.370490 
# 
# 
# High freq. dielectric constant tensor:
#      x y z
#    x 1.723050 0.000000 0.000000 
#    y 0.000000 1.710270 0.000000 
#    z 0.000000 0.000000 1.725890 
# 
# From -- ./inp_files/22555.got.cif
#   From: 2010.03.12/outbox.cif.g09.slc.cpg/sg62_12_cif.got.tgz:22555.got - 2010.04.10 19:12:36.
