data_PCOD8255836
_publ_section_title
;
Structure prediction by ZEFSAII (Michael W. Deem and Ramdas Pophale) SiO2 
 PCOD8255836
Probable space group: C M C M
;
_chemical_formula_sum "Si O2"
_cell_formula_units_Z 72
_cell_length_a 22.863240
_cell_length_b 23.154492
_cell_length_c 9.252348
_cell_angle_alpha 90.000000
_cell_angle_beta 90.000000
_cell_angle_gamma 90.000000
_cell_volume 4898.070046
_symmetry_space_group_name_H-M "C M C M"
_symmetry_group_IT_number 63
_symmetry_cell_setting 'orthorhombic'
loop_
_space_group_symop_operation_xyz
x,y,z
-x,-y,1/2+z
x,-y,-z
-x,y,1/2-z
-x,-y,-z
x,y,1/2-z
-x,y,z
x,-y,1/2+z
1/2+x,1/2+y,z
1/2-x,1/2-y,1/2+z
1/2+x,1/2-y,-z
1/2-x,1/2+y,1/2-z
1/2-x,1/2-y,-z
1/2+x,1/2+y,1/2-z
1/2-x,1/2+y,z
1/2+x,1/2-y,1/2+z
loop_
_atom_site_type_symbol
_atom_site_label
_atom_site_fract_x
_atom_site_fract_y
_atom_site_fract_z
Si Si1 0.317094 0.695454 0.410638
Si Si2 0.288313 0.169594 0.912430
Si Si3 0.000000 0.440530 0.917497
Si Si4 0.564635 0.260471 0.916655
Si Si5 0.100172 0.647896 0.079427
O O1 0.306346 0.670854 0.250000
O O2 0.302288 0.763016 0.415838
O O3 0.276084 0.659416 0.519008
O O4 0.385950 0.691224 0.455034
O O5 0.287669 0.145015 0.750000
O O6 0.337127 0.135844 0.005080
O O7 0.058022 0.405099 0.959284
O O8 0.000000 0.455017 0.750000
O O9 0.000000 0.500000 0.000000
O O10 0.574315 0.240396 0.750000
O O11 0.500000 0.287696 0.937882
O O12 0.570207 0.205455 0.019245
O O13 0.109218 0.655485 0.250000
#
# Coordination Sequence:
#
# PCOD8255836 Si02
#       5
#    16  16   8  16  16
#     4   8  14  23  34  51  73  95 118 149 183 213
#     4   9  16  25  37  53  69  91 120 149 184 221
#     4  10  22  34  44  58  74  94 122 158 200 240
#     4   9  16  25  38  55  74  98 127 154 184 222
#     4  10  18  29  41  55  71  90 119 154 193 231
#
# _framework density 14.699667
#
# number of rings (size 3 to 8) (size 9 to 14) (size 15 to 20)
#    0.000    2.889    1.111    2.667    0.000    7.111 
#    0.000    0.000    0.000    0.000    0.000    0.000 
#    0.000    0.000    0.000    0.000    0.000    1.111 
#
# Total GULP energy -446153.789047 kJ/mol
# GULP energy per Si atom -12393.160807 kJ/mol
# Density = 1.466621 g / cm^3
# Si number density = 14.699667 Si / 1000 Ang^3
#
#
#
# Elastic Constant Matrix: (Units=GPa)
#
#
# Indices 1 2 3 4 5 6 
#
# 1 160.6917 31.7302 69.2667 0.0000 0.0000 0.0000
# 2 31.7302 25.1894 26.5374 0.0000 0.0000 0.0000
# 3 69.2667 26.5374 95.7900 0.0000 0.0000 0.0000
# 4 0.0000 0.0000 0.0000 13.8528 0.0000 0.0000
# 5 0.0000 0.0000 0.0000 0.0000 25.3803 0.0000
# 6 0.0000 0.0000 0.0000 0.0000 0.0000 10.6676
#
#
#
# Elastic Compliance Matrix: (Units=1/GPa)
#
#
# Indices 1 2 3 4 5 6 
#
# 1 0.009824 -0.006907 -0.005191 0.000000 0.000000 0.000000
# 2 -0.006907 0.060918 -0.011882 0.000000 0.000000 0.000000
# 3 -0.005191 -0.011882 0.017485 0.000000 0.000000 0.000000
# 4 0.000000 0.000000 0.000000 0.072188 0.000000 0.000000
# 5 0.000000 0.000000 0.000000 0.000000 0.039401 0.000000
# 6 0.000000 0.000000 0.000000 0.000000 0.000000 0.093742
#
#
# Mechanical properties :
#
#
# Convention : Reuss Voigt Hill
#
# Bulk Modulus (GPa) = 24.83394 59.63777 42.23586
# Shear Modulus (GPa) = 14.08696 20.25592 17.17144
#
# Velocity S-wave (km/s) = 3.09903 3.71615 3.42153
# Velocity P-wave (km/s) = 5.45309 7.68583 6.66364
#
# Compressibility (1/GPa) = 0.04026747
#
# Stress axis : x y z
#
# Youngs Moduli (GPa) = 101.78733 16.41562 57.19313
#
# Poissons Ratio (x) = 0.11338 0.29687
# Poissons Ratio (y) = 0.70305 0.67956
# Poissons Ratio (z) = 0.52834 0.19505
#
# Static dielectric constant tensor:
#      x y z
#    x 3.347150 0.000000 0.000000 
#    y 0.000000 2.181880 0.000000 
#    z 0.000000 0.000000 3.012040 
# 
# 
# High freq. dielectric constant tensor:
#      x y z
#    x 1.584380 0.000000 0.000000 
#    y 0.000000 1.467930 0.000000 
#    z 0.000000 0.000000 1.575410 
# 
# From -- ./inp_files/9875.got.cif
#   From: 2010.03.12/outbox.cif.g09.slc.cpg/sg63_5_cif.got.tgz:9875.got - 2010.04.10 19:34:48.
