data_PCOD8255055
_publ_section_title
;
Structure prediction by ZEFSAII (Michael W. Deem and Ramdas Pophale) SiO2 
 PCOD8255055
Probable space group: P N M A
;
_chemical_formula_sum "Si O2"
_cell_formula_units_Z 48
_cell_length_a 8.535191
_cell_length_b 9.505380
_cell_length_c 26.824671
_cell_angle_alpha 90.000000
_cell_angle_beta 90.000000
_cell_angle_gamma 90.000000
_cell_volume 2176.291831
_symmetry_space_group_name_H-M "P N M A"
_symmetry_group_IT_number 62
_symmetry_cell_setting 'orthorhombic'
loop_
_space_group_symop_operation_xyz
x,y,z
1/2-x,-y,1/2+z
1/2+x,1/2-y,1/2-z
-x,1/2+y,-z
-x,-y,-z
1/2+x,y,1/2-z
1/2-x,1/2+y,1/2+z
x,1/2-y,z
loop_
_atom_site_type_symbol
_atom_site_label
_atom_site_fract_x
_atom_site_fract_y
_atom_site_fract_z
Si Si1 0.634341 0.964988 0.388878
Si Si2 0.152628 0.087572 0.289701
Si Si3 0.584160 0.250000 0.430485
Si Si4 0.851469 0.250000 0.569288
Si Si5 0.508381 0.750000 0.461512
Si Si6 0.442321 0.250000 0.038723
Si Si7 0.462359 0.910459 0.290699
Si Si8 0.502479 0.986312 0.888783
O O1 0.596286 0.885815 0.440282
O O2 0.557647 0.890381 0.341741
O O3 0.819817 0.965090 0.381259
O O4 0.556506 0.117991 0.394717
O O5 0.185490 0.250000 0.272643
O O6 0.309064 0.001589 0.301234
O O7 0.064358 0.999380 0.247719
O O8 0.047307 0.095501 0.339131
O O9 0.470598 0.250000 0.478650
O O10 0.759770 0.250000 0.449997
O O11 0.671305 0.250000 0.554967
O O12 0.965779 0.250000 0.520809
O O13 0.887660 0.383236 0.603484
O O14 0.519823 0.387626 0.062921
O O15 0.425817 0.750000 0.271555
#
# Coordination Sequence:
#
# PCOD8255055 Si02
#       8
#     8   8   4   4   4   4   8   8
#     4  11  23  42  67  96 135 177 227 276 337 404
#     4  12  27  47  73 103 137 176 227 281 341 409
#     4   9  22  37  68  91 134 179 226 282 331 397
#     4  11  23  37  68  93 136 179 225 284 332 401
#     4  11  21  43  58  99 134 177 229 282 336 393
#     4   9  20  43  60  97 132 175 230 280 335 391
#     4  12  27  47  72 102 139 177 223 282 342 409
#     4  11  23  42  67  97 133 179 225 277 338 401
#
# _framework density 22.055865000000001
#
# number of rings (size 3 to 8) (size 9 to 14) (size 15 to 20)
#    0.000    1.000    1.667    4.500    4.667    0.000 
#    0.000    5.000    0.000    0.000    0.000    0.000 
#    0.000    0.000    0.000    0.000    0.000    0.000 
#
# Total GULP energy -595318.923229 kJ/mol
# GULP energy per Si atom -12402.477567 kJ/mol
# Density = 2.200566 g / cm^3
# Si number density = 22.055865 Si / 1000 Ang^3
#
#
#
# Elastic Constant Matrix: (Units=GPa)
#
#
# Indices 1 2 3 4 5 6 
#
# 1 97.2438 28.3633 13.6180 0.0000 0.0000 0.0000
# 2 28.3633 162.0940 16.8742 0.0000 0.0000 0.0000
# 3 13.6180 16.8742 79.7308 0.0000 0.0000 0.0000
# 4 0.0000 0.0000 0.0000 39.6258 0.0000 0.0000
# 5 0.0000 0.0000 0.0000 0.0000 35.0423 0.0000
# 6 0.0000 0.0000 0.0000 0.0000 0.0000 28.4583
#
#
#
# Elastic Compliance Matrix: (Units=1/GPa)
#
#
# Indices 1 2 3 4 5 6 
#
# 1 0.011011 -0.001770 -0.001506 0.000000 0.000000 0.000000
# 2 -0.001770 0.006593 -0.001093 0.000000 0.000000 0.000000
# 3 -0.001506 -0.001093 0.013031 0.000000 0.000000 0.000000
# 4 0.000000 0.000000 0.000000 0.025236 0.000000 0.000000
# 5 0.000000 0.000000 0.000000 0.000000 0.028537 0.000000
# 6 0.000000 0.000000 0.000000 0.000000 0.000000 0.035139
#
#
# Mechanical properties :
#
#
# Convention : Reuss Voigt Hill
#
# Bulk Modulus (GPa) = 45.66983 50.75329 48.21156
# Shear Modulus (GPa) = 36.87786 39.30615 38.09201
#
# Velocity S-wave (km/s) = 4.09347 4.22609 4.16031
# Velocity P-wave (km/s) = 6.56456 6.84648 6.70700
#
# Compressibility (1/GPa) = 0.02189629
#
# Stress axis : x y z
#
# Youngs Moduli (GPa) = 90.82198 151.68212 76.74154
#
# Poissons Ratio (x) = 0.26846 0.11557
# Poissons Ratio (y) = 0.16074 0.08388
# Poissons Ratio (z) = 0.13678 0.16579
#
# Static dielectric constant tensor:
#      x y z
#    x 3.938850 0.000000 0.000000 
#    y 0.000000 2.394020 0.000000 
#    z 0.000000 0.000000 4.028100 
# 
# 
# High freq. dielectric constant tensor:
#      x y z
#    x 1.863250 0.000000 0.000000 
#    y 0.000000 1.886770 0.000000 
#    z 0.000000 0.000000 1.871140 
# 
# From -- ./inp_files/32121.got.cif
#   From: 2010.03.12/outbox.cif.g09.slc.cpg/sg62_17_cif.got.tgz:32121.got - 2010.04.10 19:12:36.
