data_PCOD8255503
_publ_section_title
;
Structure prediction by ZEFSAII (Michael W. Deem and Ramdas Pophale) SiO2 
 PCOD8255503
Probable space group: C M C M
;
_chemical_formula_sum "Si O2"
_cell_formula_units_Z 128
_cell_length_a 23.270213
_cell_length_b 18.911123
_cell_length_c 18.404819
_cell_angle_alpha 90.000000
_cell_angle_beta 90.000000
_cell_angle_gamma 90.000000
_cell_volume 8099.332507
_symmetry_space_group_name_H-M "C M C M"
_symmetry_group_IT_number 63
_symmetry_cell_setting 'orthorhombic'
loop_
_space_group_symop_operation_xyz
x,y,z
-x,-y,1/2+z
x,-y,-z
-x,y,1/2-z
-x,-y,-z
x,y,1/2-z
-x,y,z
x,-y,1/2+z
1/2+x,1/2+y,z
1/2-x,1/2-y,1/2+z
1/2+x,1/2-y,-z
1/2-x,1/2+y,1/2-z
1/2-x,1/2-y,-z
1/2+x,1/2+y,1/2-z
1/2-x,1/2+y,z
1/2+x,1/2-y,1/2+z
loop_
_atom_site_type_symbol
_atom_site_label
_atom_site_fract_x
_atom_site_fract_y
_atom_site_fract_z
Si Si1 0.169557 0.412101 0.665879
Si Si2 0.234230 0.451724 0.334029
Si Si3 0.836684 0.024918 0.082346
Si Si4 0.749909 0.316039 0.091050
Si Si5 0.766594 0.839766 0.925180
Si Si6 0.127451 0.188897 0.834908
Si Si7 0.437064 0.171645 0.335637
Si Si8 0.933950 0.042172 0.834363
O O1 0.179881 0.392851 0.750000
O O2 0.181366 0.494940 0.651257
O O3 0.212140 0.363415 0.621024
O O4 0.104358 0.393794 0.642436
O O5 0.251219 0.448616 0.250000
O O6 0.290835 0.476260 0.376251
O O7 0.215584 0.374137 0.361589
O O8 0.819991 0.107706 0.088788
O O9 0.898666 0.015606 0.119487
O O10 0.839152 0.000000 0.000000
O O11 0.782110 0.240468 0.098587
O O12 0.684711 0.311760 0.117938
O O13 0.751575 0.342261 0.008689
O O14 0.143720 0.195250 0.750000
O O15 0.090043 0.254924 0.862761
O O16 0.090016 0.119891 0.851113
O O17 0.444237 0.175673 0.250000
O O18 0.500000 0.160286 0.371556
O O19 0.927518 0.023269 0.750000
O O20 0.000000 0.038988 0.859212
#
# Coordination Sequence:
#
# PCOD8255503 Si02
#       8
#    16  16  16  16  16  16  16  16
#     4   9  18  30  45  69  97 124 158 197 237 290
#     4  10  19  31  49  70  96 130 162 196 240 289
#     4  11  19  33  49  70  99 130 166 205 246 292
#     4  11  19  31  47  70  98 130 160 193 238 296
#     4  10  21  31  46  70  99 128 163 194 244 291
#     4  10  17  28  45  69  99 128 158 196 240 295
#     4   9  16  27  44  67  96 127 156 194 245 292
#     4  10  20  32  47  68  95 130 169 206 243 287
#
# _framework density 15.803770999999999
#
# number of rings (size 3 to 8) (size 9 to 14) (size 15 to 20)
#    0.000    2.000    3.750    1.125    0.000    2.750 
#    0.000    0.000    0.000    0.000    0.000    2.625 
#    0.000    2.000    0.000    0.000    0.000    0.125 
#
# Total GULP energy -793463.202005 kJ/mol
# GULP energy per Si atom -12397.862531 kJ/mol
# Density = 1.576780 g / cm^3
# Si number density = 15.803771 Si / 1000 Ang^3
#
#
#
# Elastic Constant Matrix: (Units=GPa)
#
#
# Indices 1 2 3 4 5 6 
#
# 1 100.8279 63.4672 39.2084 0.0000 0.0000 0.0000
# 2 63.4672 124.5598 41.0608 0.0000 0.0000 0.0000
# 3 39.2084 41.0608 66.6272 0.0000 0.0000 0.0000
# 4 0.0000 0.0000 0.0000 21.6686 0.0000 0.0000
# 5 0.0000 0.0000 0.0000 0.0000 6.8226 0.0000
# 6 0.0000 0.0000 0.0000 0.0000 0.0000 21.4685
#
#
#
# Elastic Compliance Matrix: (Units=1/GPa)
#
#
# Indices 1 2 3 4 5 6 
#
# 1 0.016080 -0.006367 -0.005538 0.000000 0.000000 0.000000
# 2 -0.006367 0.012596 -0.004016 0.000000 0.000000 0.000000
# 3 -0.005538 -0.004016 0.020743 0.000000 0.000000 0.000000
# 4 0.000000 0.000000 0.000000 0.046150 0.000000 0.000000
# 5 0.000000 0.000000 0.000000 0.000000 0.146571 0.000000
# 6 0.000000 0.000000 0.000000 0.000000 0.000000 0.046580
#
#
# Mechanical properties :
#
#
# Convention : Reuss Voigt Hill
#
# Bulk Modulus (GPa) = 56.89643 64.38753 60.64198
# Shear Modulus (GPa) = 15.31759 19.87716 17.59737
#
# Velocity S-wave (km/s) = 3.11663 3.55032 3.34052
# Velocity P-wave (km/s) = 7.00223 7.59188 7.30301
#
# Compressibility (1/GPa) = 0.01757579
#
# Stress axis : x y z
#
# Youngs Moduli (GPa) = 62.19071 79.38728 48.20913
#
# Poissons Ratio (x) = 0.50549 0.26700
# Poissons Ratio (y) = 0.39599 0.19360
# Poissons Ratio (z) = 0.34443 0.31881
#
# Static dielectric constant tensor:
#      x y z
#    x 3.024600 0.000000 0.000000 
#    y 0.000000 3.272010 0.000000 
#    z 0.000000 0.000000 2.987960 
# 
# 
# High freq. dielectric constant tensor:
#      x y z
#    x 1.582190 0.000000 0.000000 
#    y 0.000000 1.612820 0.000000 
#    z 0.000000 0.000000 1.598640 
# 
# From -- ./inp_files/48444.got.cif
#   From: 2010.03.12/outbox.cif.g09.slc.cpg/sg63_25_cif.got.tgz:48444.got - 2010.04.10 19:34:48.
