data_PCOD8255086
_publ_section_title
;
Structure prediction by ZEFSAII (Michael W. Deem and Ramdas Pophale) SiO2 
 PCOD8255086
Probable space group: P N M A
;
_chemical_formula_sum "Si O2"
_cell_formula_units_Z 64
_cell_length_a 11.704676
_cell_length_b 21.129751
_cell_length_c 12.027843
_cell_angle_alpha 90.000000
_cell_angle_beta 90.000000
_cell_angle_gamma 90.000000
_cell_volume 2974.688717
_symmetry_space_group_name_H-M "P N M A"
_symmetry_group_IT_number 62
_symmetry_cell_setting 'orthorhombic'
loop_
_space_group_symop_operation_xyz
x,y,z
1/2-x,-y,1/2+z
1/2+x,1/2-y,1/2-z
-x,1/2+y,-z
-x,-y,-z
1/2+x,y,1/2-z
1/2-x,1/2+y,1/2+z
x,1/2-y,z
loop_
_atom_site_type_symbol
_atom_site_label
_atom_site_fract_x
_atom_site_fract_y
_atom_site_fract_z
Si Si1 0.145052 0.113341 0.026504
Si Si2 0.616253 0.525578 0.205053
Si Si3 0.285459 0.392151 0.600524
Si Si4 0.993541 0.091777 0.220970
Si Si5 0.388361 0.174587 0.084297
Si Si6 0.027860 0.133533 0.625020
Si Si7 0.505334 0.819691 0.360610
Si Si8 0.676661 0.512884 0.575286
O O1 0.270910 0.141233 0.046704
O O2 0.062215 0.132881 0.129054
O O3 0.096299 0.137837 0.909452
O O4 0.130534 0.036839 0.017254
O O5 0.645686 0.559694 0.320128
O O6 0.584237 0.451587 0.213202
O O7 0.516567 0.561677 0.137555
O O8 0.730631 0.530463 0.134767
O O9 0.164183 0.365914 0.638227
O O10 0.371773 0.333884 0.583483
O O11 0.266278 0.427136 0.484000
O O12 0.929207 0.140750 0.301948
O O13 0.911364 0.039249 0.165667
O O14 0.371297 0.250000 0.104507
O O15 0.484100 0.164502 0.989453
O O16 0.981278 0.174438 0.727750
O O17 0.470243 0.750000 0.394642
#
# Coordination Sequence:
#
# PCOD8255086 Si02
#       8
#     8   8   8   8   8   8   8   8
#     4  12  24  48  73 102 141 189 237 298 361 426
#     4  11  22  38  69 104 139 174 223 284 363 424
#     4  11  23  42  65 104 138 171 225 293 355 415
#     4  12  25  43  71 105 141 189 233 296 360 428
#     4  12  29  49  70 102 147 198 246 288 355 442
#     4  11  25  44  70 104 140 180 233 296 358 420
#     4  11  25  44  69  98 132 187 240 288 351 419
#     4  12  22  41  68 104 139 175 230 291 359 426
#
# _framework density 21.514855000000001
#
# number of rings (size 3 to 8) (size 9 to 14) (size 15 to 20)
#    0.000    0.500    3.750    5.625    3.500    3.000 
#    0.000    0.000    0.000    0.000    0.000    0.000 
#    0.000    0.000    0.000    0.000    0.000    0.000 
#
# Total GULP energy -793517.613473 kJ/mol
# GULP energy per Si atom -12398.712711 kJ/mol
# Density = 2.146589 g / cm^3
# Si number density = 21.514855 Si / 1000 Ang^3
#
#
#
# Elastic Constant Matrix: (Units=GPa)
#
#
# Indices 1 2 3 4 5 6 
#
# 1 117.4909 36.2726 32.8417 0.0000 0.0000 0.0000
# 2 36.2726 111.8716 36.4763 0.0000 0.0000 0.0000
# 3 32.8417 36.4763 84.7087 0.0000 0.0000 0.0000
# 4 0.0000 0.0000 0.0000 22.7530 0.0000 0.0000
# 5 0.0000 0.0000 0.0000 0.0000 38.1131 0.0000
# 6 0.0000 0.0000 0.0000 0.0000 0.0000 19.5687
#
#
#
# Elastic Compliance Matrix: (Units=1/GPa)
#
#
# Indices 1 2 3 4 5 6 
#
# 1 0.010034 -0.002309 -0.002896 0.000000 0.000000 0.000000
# 2 -0.002309 0.010930 -0.003811 0.000000 0.000000 0.000000
# 3 -0.002896 -0.003811 0.014569 0.000000 0.000000 0.000000
# 4 0.000000 0.000000 0.000000 0.043950 0.000000 0.000000
# 5 0.000000 0.000000 0.000000 0.000000 0.026238 0.000000
# 6 0.000000 0.000000 0.000000 0.000000 0.000000 0.051102
#
#
# Mechanical properties :
#
#
# Convention : Reuss Voigt Hill
#
# Bulk Modulus (GPa) = 57.14140 58.36140 57.75140
# Shear Modulus (GPa) = 27.67186 29.98566 28.82876
#
# Velocity S-wave (km/s) = 3.59022 3.73730 3.66450
# Velocity P-wave (km/s) = 6.61838 6.76818 6.69370
#
# Compressibility (1/GPa) = 0.01750045
#
# Stress axis : x y z
#
# Youngs Moduli (GPa) = 99.66515 91.48930 68.63856
#
# Poissons Ratio (x) = 0.21126 0.19876
# Poissons Ratio (y) = 0.23013 0.26161
# Poissons Ratio (z) = 0.28860 0.34870
#
# Static dielectric constant tensor:
#      x y z
#    x 3.836220 0.000000 0.000000 
#    y 0.000000 3.763710 0.000000 
#    z 0.000000 0.000000 3.892080 
# 
# 
# High freq. dielectric constant tensor:
#      x y z
#    x 1.853580 0.000000 0.000000 
#    y 0.000000 1.833600 0.000000 
#    z 0.000000 0.000000 1.849880 
# 
# From -- ./inp_files/12548.got.cif
#   From: 2010.03.12/outbox.cif.g09.slc.cpg/sg62_7_cif.got.tgz:12548.got - 2010.04.10 19:12:36.
