data_PCOD8255923
_publ_section_title
;
Structure prediction by ZEFSAII (Michael W. Deem and Ramdas Pophale) SiO2 
 PCOD8255923
Probable space group: C M C M
;
_chemical_formula_sum "Si O2"
_cell_formula_units_Z 96
_cell_length_a 8.855519
_cell_length_b 23.282217
_cell_length_c 26.634002
_cell_angle_alpha 90.000000
_cell_angle_beta 90.000000
_cell_angle_gamma 90.000000
_cell_volume 5491.295059
_symmetry_space_group_name_H-M "C M C M"
_symmetry_group_IT_number 63
_symmetry_cell_setting 'orthorhombic'
loop_
_space_group_symop_operation_xyz
x,y,z
-x,-y,1/2+z
x,-y,-z
-x,y,1/2-z
-x,-y,-z
x,y,1/2-z
-x,y,z
x,-y,1/2+z
1/2+x,1/2+y,z
1/2-x,1/2-y,1/2+z
1/2+x,1/2-y,-z
1/2-x,1/2+y,1/2-z
1/2-x,1/2-y,-z
1/2+x,1/2+y,1/2-z
1/2-x,1/2+y,z
1/2+x,1/2-y,1/2+z
loop_
_atom_site_type_symbol
_atom_site_label
_atom_site_fract_x
_atom_site_fract_y
_atom_site_fract_z
Si Si1 0.167580 0.010895 0.750000
Si Si2 0.168313 0.724155 0.571856
Si Si3 0.179281 0.139685 0.644026
Si Si4 0.178886 0.541057 0.043953
Si Si5 0.321303 0.982196 0.353294
Si Si6 0.335184 0.352857 0.250000
Si Si7 0.669830 0.830099 0.962748
O O1 0.000000 0.982971 0.750000
O O2 0.253429 0.992241 0.698671
O O3 0.153413 0.078626 0.750000
O O4 0.285657 0.687338 0.603504
O O5 0.225397 0.789851 0.571779
O O6 0.166968 0.696363 0.517584
O O7 0.000000 0.722686 0.595071
O O8 0.261677 0.080504 0.631579
O O9 0.244507 0.164138 0.697665
O O10 0.000000 0.128305 0.647432
O O11 0.227809 0.521737 0.099753
O O12 0.239487 0.605862 0.035838
O O13 0.000000 0.540123 0.038481
O O14 0.247604 0.500000 0.000000
O O15 0.500000 0.979285 0.346879
O O16 0.500000 0.324190 0.250000
O O17 0.500000 0.831307 0.940393
#
# Coordination Sequence:
#
# PCOD8255923 Si02
#       7
#     8  16  16  16  16   8  16
#     4   9  17  31  47  66  97 132 163 198 246 292
#     4  10  19  31  49  71  94 122 160 202 238 281
#     4  10  18  30  48  70  98 129 158 191 241 293
#     4   9  17  30  49  73 101 130 158 194 242 294
#     4  10  18  29  49  75  99 126 165 206 239 281
#     4   7  14  27  43  64  89 118 151 186 224 276
#     4   9  18  33  50  68  94 128 161 193 237 290
#
# _framework density 17.482216000000001
#
# number of rings (size 3 to 8) (size 9 to 14) (size 15 to 20)
#    0.000    2.667    0.000    3.750    0.000    3.333 
#    0.000    2.917    0.000    4.500    0.000    3.500 
#    0.000    0.000    0.000    0.000    0.000    0.000 
#
# Total GULP energy -594810.765667 kJ/mol
# GULP energy per Si atom -12391.890951 kJ/mol
# Density = 1.744243 g / cm^3
# Si number density = 17.482216 Si / 1000 Ang^3
#
#
#
# Elastic Constant Matrix: (Units=GPa)
#
#
# Indices 1 2 3 4 5 6 
#
# 1 68.6421 25.7415 32.8150 0.0000 0.0000 0.0000
# 2 25.7415 107.1441 36.7716 0.0000 0.0000 0.0000
# 3 32.8150 36.7716 70.2681 0.0000 0.0000 0.0000
# 4 0.0000 0.0000 0.0000 15.5052 0.0000 0.0000
# 5 0.0000 0.0000 0.0000 0.0000 22.0138 0.0000
# 6 0.0000 0.0000 0.0000 0.0000 0.0000 21.5193
#
#
#
# Elastic Compliance Matrix: (Units=1/GPa)
#
#
# Indices 1 2 3 4 5 6 
#
# 1 0.019054 -0.001858 -0.007926 0.000000 0.000000 0.000000
# 2 -0.001858 0.011557 -0.005181 0.000000 0.000000 0.000000
# 3 -0.007926 -0.005181 0.020644 0.000000 0.000000 0.000000
# 4 0.000000 0.000000 0.000000 0.064495 0.000000 0.000000
# 5 0.000000 0.000000 0.000000 0.000000 0.045426 0.000000
# 6 0.000000 0.000000 0.000000 0.000000 0.000000 0.046470
#
#
# Mechanical properties :
#
#
# Convention : Reuss Voigt Hill
#
# Bulk Modulus (GPa) = 46.88959 48.52341 47.70650
# Shear Modulus (GPa) = 20.43458 21.85608 21.14533
#
# Velocity S-wave (km/s) = 3.42260 3.53964 3.48161
# Velocity P-wave (km/s) = 6.51908 6.67244 6.59621
#
# Compressibility (1/GPa) = 0.02132670
#
# Stress axis : x y z
#
# Youngs Moduli (GPa) = 52.48220 86.52413 48.44087
#
# Poissons Ratio (x) = 0.16072 0.38395
# Poissons Ratio (y) = 0.09749 0.25095
# Poissons Ratio (z) = 0.41598 0.44825
#
# Static dielectric constant tensor:
#      x y z
#    x 3.233840 0.000000 0.000000 
#    y 0.000000 3.122020 0.000000 
#    z 0.000000 0.000000 3.566600 
# 
# 
# High freq. dielectric constant tensor:
#      x y z
#    x 1.663650 0.000000 0.000000 
#    y 0.000000 1.648590 0.000000 
#    z 0.000000 0.000000 1.678380 
# 
# From -- ./inp_files/67293.got.cif
#   From: 2010.03.12/outbox.cif.g09.slc.cpg/sg63_34_cif.got.tgz:67293.got - 2010.04.10 19:34:48.
