data_PCOD8255784
_publ_section_title
;
Structure prediction by ZEFSAII (Michael W. Deem and Ramdas Pophale) SiO2 
 PCOD8255784
Probable space group: C M C M
;
_chemical_formula_sum "Si O2"
_cell_formula_units_Z 96
_cell_length_a 9.363439
_cell_length_b 24.573073
_cell_length_c 23.659135
_cell_angle_alpha 90.000000
_cell_angle_beta 90.000000
_cell_angle_gamma 90.000000
_cell_volume 5443.694176
_symmetry_space_group_name_H-M "C M C M"
_symmetry_group_IT_number 63
_symmetry_cell_setting 'orthorhombic'
loop_
_space_group_symop_operation_xyz
x,y,z
-x,-y,1/2+z
x,-y,-z
-x,y,1/2-z
-x,-y,-z
x,y,1/2-z
-x,y,z
x,-y,1/2+z
1/2+x,1/2+y,z
1/2-x,1/2-y,1/2+z
1/2+x,1/2-y,-z
1/2-x,1/2+y,1/2-z
1/2-x,1/2-y,-z
1/2+x,1/2+y,1/2-z
1/2-x,1/2+y,z
1/2+x,1/2-y,1/2+z
loop_
_atom_site_type_symbol
_atom_site_label
_atom_site_fract_x
_atom_site_fract_y
_atom_site_fract_z
Si Si1 0.649117 0.949409 0.250000
Si Si2 0.158269 0.600117 0.631190
Si Si3 0.838135 0.203644 0.185754
Si Si4 0.166608 0.493177 0.565562
Si Si5 0.333107 0.592059 0.134562
Si Si6 0.332558 0.688330 0.684766
Si Si7 0.666579 0.454142 0.750000
O O1 0.500000 0.984998 0.250000
O O2 0.644285 0.911553 0.303448
O O3 0.795126 0.982639 0.250000
O O4 0.221548 0.547944 0.597339
O O5 0.266571 0.651028 0.634083
O O6 0.000000 0.615378 0.606573
O O7 0.820366 0.180172 0.250000
O O8 0.808658 0.157045 0.138412
O O9 0.728387 0.251663 0.174438
O O10 0.000000 0.225454 0.178605
O O11 0.199175 0.500000 0.500000
O O12 0.248048 0.438421 0.584926
O O13 0.000000 0.484867 0.578463
O O14 0.500000 0.577993 0.127249
O O15 0.267462 0.570336 0.193264
O O16 0.299959 0.669861 0.750000
O O17 0.500000 0.689793 0.674041
O O18 0.500000 0.443887 0.750000
#
# Coordination Sequence:
#
# PCOD8255784 Si02
#       7
#     8  16  16  16  16  16   8
#     4  10  18  28  45  72  99 131 172 202 244 311
#     4  10  19  32  50  71  99 134 169 205 249 304
#     4   9  17  31  50  73 105 141 170 198 242 305
#     4  10  22  38  54  74 101 135 175 218 261 302
#     4  10  19  32  52  77 105 136 169 206 251 305
#     4  10  20  31  46  74 108 137 166 203 248 297
#     4  10  18  28  45  74 107 133 160 200 252 303
#
# _framework density 17.635083000000002
#
# number of rings (size 3 to 8) (size 9 to 14) (size 15 to 20)
#    0.000    2.167    3.333    0.500    0.000    3.000 
#    0.000    0.000    0.000    1.000    0.000    0.000 
#    0.000    0.000    0.000    0.000    0.000    0.000 
#
# Total GULP energy -594671.488511 kJ/mol
# GULP energy per Si atom -12388.989344 kJ/mol
# Density = 1.759495 g / cm^3
# Si number density = 17.635083 Si / 1000 Ang^3
#
#
#
# Elastic Constant Matrix: (Units=GPa)
#
#
# Indices 1 2 3 4 5 6 
#
# 1 70.4218 53.7235 30.3476 0.0000 0.0000 0.0000
# 2 53.7235 96.8389 36.4974 0.0000 0.0000 0.0000
# 3 30.3476 36.4974 70.7686 0.0000 0.0000 0.0000
# 4 0.0000 0.0000 0.0000 13.7773 0.0000 0.0000
# 5 0.0000 0.0000 0.0000 0.0000 22.3447 0.0000
# 6 0.0000 0.0000 0.0000 0.0000 0.0000 30.9960
#
#
#
# Elastic Compliance Matrix: (Units=1/GPa)
#
#
# Indices 1 2 3 4 5 6 
#
# 1 0.025754 -0.012568 -0.004562 0.000000 0.000000 0.000000
# 2 -0.012568 0.018951 -0.004384 0.000000 0.000000 0.000000
# 3 -0.004562 -0.004384 0.018348 0.000000 0.000000 0.000000
# 4 0.000000 0.000000 0.000000 0.072583 0.000000 0.000000
# 5 0.000000 0.000000 0.000000 0.000000 0.044753 0.000000
# 6 0.000000 0.000000 0.000000 0.000000 0.000000 0.032262
#
#
# Mechanical properties :
#
#
# Convention : Reuss Voigt Hill
#
# Bulk Modulus (GPa) = 49.93962 53.24069 51.59015
# Shear Modulus (GPa) = 19.05802 21.25431 20.15616
#
# Velocity S-wave (km/s) = 3.29095 3.47541 3.38443
# Velocity P-wave (km/s) = 6.54372 6.80884 6.67760
#
# Compressibility (1/GPa) = 0.02002418
#
# Stress axis : x y z
#
# Youngs Moduli (GPa) = 38.82832 52.76702 54.50176
#
# Poissons Ratio (x) = 0.66319 0.24866
# Poissons Ratio (y) = 0.48801 0.23894
# Poissons Ratio (z) = 0.17715 0.23133
#
# Static dielectric constant tensor:
#      x y z
#    x 3.415880 0.000000 0.000000 
#    y 0.000000 3.182700 0.000000 
#    z 0.000000 0.000000 3.070690 
# 
# 
# High freq. dielectric constant tensor:
#      x y z
#    x 1.679710 0.000000 0.000000 
#    y 0.000000 1.677930 0.000000 
#    z 0.000000 0.000000 1.644120 
# 
# From -- ./inp_files/60084.got.cif
#   From: 2010.03.12/outbox.cif.g09.slc.cpg/sg63_31_cif.got.tgz:60084.got - 2010.04.10 19:34:48.
