data_PCOD8255788
_publ_section_title
;
Structure prediction by ZEFSAII (Michael W. Deem and Ramdas Pophale) SiO2 
 PCOD8255788
Probable space group: C M C M
;
_chemical_formula_sum "Si O2"
_cell_formula_units_Z 88
_cell_length_a 16.925679
_cell_length_b 28.484884
_cell_length_c 9.012378
_cell_angle_alpha 90.000000
_cell_angle_beta 90.000000
_cell_angle_gamma 90.000000
_cell_volume 4345.101782
_symmetry_space_group_name_H-M "C M C M"
_symmetry_group_IT_number 63
_symmetry_cell_setting 'orthorhombic'
loop_
_space_group_symop_operation_xyz
x,y,z
-x,-y,1/2+z
x,-y,-z
-x,y,1/2-z
-x,-y,-z
x,y,1/2-z
-x,y,z
x,-y,1/2+z
1/2+x,1/2+y,z
1/2-x,1/2-y,1/2+z
1/2+x,1/2-y,-z
1/2-x,1/2+y,1/2-z
1/2-x,1/2-y,-z
1/2+x,1/2+y,1/2-z
1/2-x,1/2+y,z
1/2+x,1/2-y,1/2+z
loop_
_atom_site_type_symbol
_atom_site_label
_atom_site_fract_x
_atom_site_fract_y
_atom_site_fract_z
Si Si1 0.182983 0.548960 0.423535
Si Si2 0.585523 0.687562 0.422395
Si Si3 0.678586 0.776740 0.422044
Si Si4 0.500000 0.548919 0.076054
Si Si5 0.660827 0.597516 0.425022
Si Si6 0.409903 0.140681 0.076667
O O1 0.160656 0.500000 0.500000
O O2 0.191903 0.538842 0.250000
O O3 0.264440 0.570062 0.494099
O O4 0.114039 0.586771 0.454816
O O5 0.577695 0.674808 0.250000
O O6 0.500000 0.678473 0.498156
O O7 0.605128 0.741832 0.444427
O O8 0.653560 0.651810 0.483761
O O9 0.699388 0.784956 0.250000
O O10 0.750000 0.750000 0.500000
O O11 0.652674 0.825793 0.494269
O O12 0.500000 0.542076 0.250000
O O13 0.421322 0.575084 0.023213
O O14 0.500000 0.500000 0.000000
O O15 0.674208 0.596014 0.250000
O O16 0.402774 0.152148 0.250000
O O17 0.500000 0.147967 0.020502
#
# Coordination Sequence:
#
# PCOD8255788 Si02
#       6
#    16  16  16   8  16  16
#     4  10  21  37  57  81 110 148 192 243 302 360
#     4   9  16  29  51  79 108 141 186 232 270 323
#     4  11  22  36  58  88 120 154 194 239 289 350
#     4  10  18  28  46  70  98 136 178 224 273 322
#     4   9  16  29  49  75 106 140 182 228 279 336
#     4  10  22  41  62  85 117 154 194 245 304 360
#
# _framework density 20.252689
#
# number of rings (size 3 to 8) (size 9 to 14) (size 15 to 20)
#    0.000    2.182    0.909    2.727    0.000    5.091 
#    0.000    0.000    0.000    2.182    0.000    0.000 
#    0.000    0.000    0.000    0.000    0.000    0.000 
#
# Total GULP energy -545268.449231 kJ/mol
# GULP energy per Si atom -12392.464755 kJ/mol
# Density = 2.020659 g / cm^3
# Si number density = 20.252689 Si / 1000 Ang^3
#
#
#
# Elastic Constant Matrix: (Units=GPa)
#
#
# Indices 1 2 3 4 5 6 
#
# 1 107.7792 33.3239 36.4446 0.0000 0.0000 0.0000
# 2 33.3239 130.8026 45.2551 0.0000 0.0000 0.0000
# 3 36.4446 45.2551 51.1086 0.0000 0.0000 0.0000
# 4 0.0000 0.0000 0.0000 31.1502 0.0000 0.0000
# 5 0.0000 0.0000 0.0000 0.0000 19.1485 0.0000
# 6 0.0000 0.0000 0.0000 0.0000 0.0000 20.4327
#
#
#
# Elastic Compliance Matrix: (Units=1/GPa)
#
#
# Indices 1 2 3 4 5 6 
#
# 1 0.012228 -0.000142 -0.008594 0.000000 0.000000 0.000000
# 2 -0.000142 0.011023 -0.009660 0.000000 0.000000 0.000000
# 3 -0.008594 -0.009660 0.034248 0.000000 0.000000 0.000000
# 4 0.000000 0.000000 0.000000 0.032103 0.000000 0.000000
# 5 0.000000 0.000000 0.000000 0.000000 0.052224 0.000000
# 6 0.000000 0.000000 0.000000 0.000000 0.000000 0.048941
#
#
# Mechanical properties :
#
#
# Convention : Reuss Voigt Hill
#
# Bulk Modulus (GPa) = 48.29033 57.74861 53.01947
# Shear Modulus (GPa) = 21.32565 25.79074 23.55820
#
# Velocity S-wave (km/s) = 3.24848 3.57241 3.41429
# Velocity P-wave (km/s) = 6.16165 6.75219 6.46367
#
# Compressibility (1/GPa) = 0.02070808
#
# Stress axis : x y z
#
# Youngs Moduli (GPa) = 81.77901 90.71709 29.19921
#
# Poissons Ratio (x) = 0.01288 0.25093
# Poissons Ratio (y) = 0.01161 0.28205
# Poissons Ratio (z) = 0.70280 0.87628
#
# Static dielectric constant tensor:
#      x y z
#    x 3.845000 0.000000 0.000000 
#    y 0.000000 3.885560 0.000000 
#    z 0.000000 0.000000 3.237070 
# 
# 
# High freq. dielectric constant tensor:
#      x y z
#    x 1.801760 0.000000 0.000000 
#    y 0.000000 1.806650 0.000000 
#    z 0.000000 0.000000 1.738840 
# 
# From -- ./inp_files/6801.got.cif
#   From: 2010.03.12/outbox.cif.g09.slc.cpg/sg63_4_cif.got.tgz:6801.got - 2010.04.10 19:34:48.
