data_PCOD8255795
_publ_section_title
;
Structure prediction by ZEFSAII (Michael W. Deem and Ramdas Pophale) SiO2 
 PCOD8255795
Probable space group: C M C M
;
_chemical_formula_sum "Si O2"
_cell_formula_units_Z 112
_cell_length_a 14.209166
_cell_length_b 30.653051
_cell_length_c 14.033940
_cell_angle_alpha 90.000000
_cell_angle_beta 90.000000
_cell_angle_gamma 90.000000
_cell_volume 6112.542774
_symmetry_space_group_name_H-M "C M C M"
_symmetry_group_IT_number 63
_symmetry_cell_setting 'orthorhombic'
loop_
_space_group_symop_operation_xyz
x,y,z
-x,-y,1/2+z
x,-y,-z
-x,y,1/2-z
-x,-y,-z
x,y,1/2-z
-x,y,z
x,-y,1/2+z
1/2+x,1/2+y,z
1/2-x,1/2-y,1/2+z
1/2+x,1/2-y,-z
1/2-x,1/2+y,1/2-z
1/2-x,1/2-y,-z
1/2+x,1/2+y,1/2-z
1/2-x,1/2+y,z
1/2+x,1/2-y,1/2+z
loop_
_atom_site_type_symbol
_atom_site_label
_atom_site_fract_x
_atom_site_fract_y
_atom_site_fract_z
Si Si1 0.206216 0.464700 0.137614
Si Si2 0.390450 0.949191 0.643527
Si Si3 0.101785 0.067304 0.636991
Si Si4 0.268888 0.742515 0.863519
Si Si5 0.112573 0.289633 0.010080
Si Si6 0.396416 0.663968 0.862723
Si Si7 0.891767 0.609349 0.973626
O O1 0.192110 0.464833 0.250000
O O2 0.159103 0.508423 0.096093
O O3 0.316121 0.465843 0.106378
O O4 0.163450 0.419184 0.102911
O O5 0.352842 0.939464 0.750000
O O6 0.500000 0.959987 0.645147
O O7 0.366378 0.907087 0.580207
O O8 0.097832 0.071024 0.750000
O O9 0.124450 0.115711 0.596035
O O10 0.000000 0.050916 0.598418
O O11 0.263086 0.749588 0.750000
O O12 0.163419 0.740350 0.908528
O O13 0.317611 0.697461 0.897408
O O14 0.335151 0.780218 0.909079
O O15 0.000000 0.279825 0.005299
O O16 0.131712 0.339910 0.036017
O O17 0.395305 0.662908 0.750000
O O18 0.500000 0.679446 0.898022
O O19 0.000000 0.600575 0.951922
#
# Coordination Sequence:
#
# PCOD8255795 Si02
#       7
#    16  16  16  16  16  16  16
#     4  10  18  28  46  71  98 131 169 207 250 300
#     4   9  18  32  49  69  93 126 170 210 242 286
#     4   8  14  24  39  63  93 121 152 193 239 283
#     4  10  20  35  54  75 102 135 168 205 252 306
#     4  10  22  36  51  77 106 132 169 212 256 310
#     4   8  13  23  42  66  90 119 155 194 239 292
#     4  10  20  33  49  71 102 134 160 197 250 301
#
# _framework density 18.322979
#
# number of rings (size 3 to 8) (size 9 to 14) (size 15 to 20)
#    0.000    2.714    0.000    3.000    0.000    5.429 
#    0.000    2.857    0.000    1.714    0.000    0.000 
#    0.000    4.571    0.000    0.000    0.000    0.000 
#
# Total GULP energy -693887.587122 kJ/mol
# GULP energy per Si atom -12390.849770 kJ/mol
# Density = 1.828128 g / cm^3
# Si number density = 18.322979 Si / 1000 Ang^3
#
#
#
# Elastic Constant Matrix: (Units=GPa)
#
#
# Indices 1 2 3 4 5 6 
#
# 1 87.4855 28.5589 26.2445 0.0000 0.0000 0.0000
# 2 28.5589 41.8281 7.1103 0.0000 0.0000 0.0000
# 3 26.2445 7.1103 53.3224 0.0000 0.0000 0.0000
# 4 0.0000 0.0000 0.0000 21.4243 0.0000 0.0000
# 5 0.0000 0.0000 0.0000 0.0000 16.1433 0.0000
# 6 0.0000 0.0000 0.0000 0.0000 0.0000 26.2872
#
#
#
# Elastic Compliance Matrix: (Units=1/GPa)
#
#
# Indices 1 2 3 4 5 6 
#
# 1 0.016890 -0.010353 -0.006932 0.000000 0.000000 0.000000
# 2 -0.010353 0.030808 0.000988 0.000000 0.000000 0.000000
# 3 -0.006932 0.000988 0.022034 0.000000 0.000000 0.000000
# 4 0.000000 0.000000 0.000000 0.046676 0.000000 0.000000
# 5 0.000000 0.000000 0.000000 0.000000 0.061945 0.000000
# 6 0.000000 0.000000 0.000000 0.000000 0.000000 0.038041
#
#
# Mechanical properties :
#
#
# Convention : Reuss Voigt Hill
#
# Bulk Modulus (GPa) = 26.92793 34.05149 30.48971
# Shear Modulus (GPa) = 19.12995 20.81910 19.97452
#
# Velocity S-wave (km/s) = 3.23467 3.37446 3.30530
# Velocity P-wave (km/s) = 5.35527 5.81438 5.58954
#
# Compressibility (1/GPa) = 0.03713616
#
# Stress axis : x y z
#
# Youngs Moduli (GPa) = 59.20714 32.45860 45.38409
#
# Poissons Ratio (x) = 0.33606 0.31462
# Poissons Ratio (y) = 0.61300 -0.04482
# Poissons Ratio (z) = 0.41044 -0.03206
#
# Static dielectric constant tensor:
#      x y z
#    x 3.714170 0.000000 0.000000 
#    y 0.000000 3.443140 0.000000 
#    z 0.000000 0.000000 3.130600 
# 
# 
# High freq. dielectric constant tensor:
#      x y z
#    x 1.718350 0.000000 0.000000 
#    y 0.000000 1.697400 0.000000 
#    z 0.000000 0.000000 1.682500 
# 
# From -- ./inp_files/32747.got.cif
#   From: 2010.03.12/outbox.cif.g09.slc.cpg/sg63_17_cif.got.tgz:32747.got - 2010.04.10 19:34:48.
