data_PCOD8255522
_publ_section_title
;
Structure prediction by ZEFSAII (Michael W. Deem and Ramdas Pophale) SiO2 
 PCOD8255522
Probable space group: C M C M
;
_chemical_formula_sum "Si O2"
_cell_formula_units_Z 96
_cell_length_a 9.133713
_cell_length_b 25.285224
_cell_length_c 23.895110
_cell_angle_alpha 90.000000
_cell_angle_beta 90.000000
_cell_angle_gamma 90.000000
_cell_volume 5518.527366
_symmetry_space_group_name_H-M "C M C M"
_symmetry_group_IT_number 63
_symmetry_cell_setting 'orthorhombic'
loop_
_space_group_symop_operation_xyz
x,y,z
-x,-y,1/2+z
x,-y,-z
-x,y,1/2-z
-x,-y,-z
x,y,1/2-z
-x,y,z
x,-y,1/2+z
1/2+x,1/2+y,z
1/2-x,1/2-y,1/2+z
1/2+x,1/2-y,-z
1/2-x,1/2+y,1/2-z
1/2-x,1/2-y,-z
1/2+x,1/2+y,1/2-z
1/2-x,1/2+y,z
1/2+x,1/2-y,1/2+z
loop_
_atom_site_type_symbol
_atom_site_label
_atom_site_fract_x
_atom_site_fract_y
_atom_site_fract_z
Si Si1 0.173700 0.329324 0.063301
Si Si2 0.170375 0.221835 0.750000
Si Si3 0.328964 0.762139 0.629944
Si Si4 0.673909 0.110254 0.750000
Si Si5 0.672636 0.140957 0.058658
Si Si6 0.674641 0.976651 0.558691
Si Si7 0.826289 0.570273 0.867259
O O1 0.242913 0.278491 0.091612
O O2 0.231239 0.381312 0.095291
O O3 0.000000 0.323833 0.067482
O O4 0.229464 0.333642 0.999410
O O5 0.211986 0.256111 0.804723
O O6 0.262095 0.168649 0.750000
O O7 0.000000 0.206714 0.750000
O O8 0.500000 0.752304 0.619710
O O9 0.283507 0.821218 0.610380
O O10 0.500000 0.116713 0.750000
O O11 0.730039 0.077840 0.696097
O O12 0.500000 0.134574 0.053554
O O13 0.739453 0.082292 0.068191
O O14 0.500000 0.975502 0.558611
O O15 0.731580 0.000000 0.500000
O O16 0.733630 0.014842 0.608210
O O17 0.000000 0.570046 0.869137
#
# Coordination Sequence:
#
# PCOD8255522 Si02
#       7
#    16   8  16   8  16  16  16
#     4  10  17  28  48  72  93 117 149 189 232 273
#     4  10  20  32  45  61  89 129 160 181 218 274
#     4  10  20  32  44  65  95 124 155 189 225 270
#     4  10  18  30  47  69  95 115 144 195 236 262
#     4   9  17  28  44  67  95 124 152 184 228 277
#     4   9  14  24  42  65  92 118 144 179 223 271
#     4   9  16  25  42  69  94 113 142 186 230 266
#
# _framework density 17.395945000000001
#
# number of rings (size 3 to 8) (size 9 to 14) (size 15 to 20)
#    0.000    2.500    3.333    0.500    0.000    0.000 
#    0.000    0.833    0.000    5.000    0.000    5.833 
#    0.000    1.333    0.000    0.000    0.000    0.000 
#
# Total GULP energy -594997.107153 kJ/mol
# GULP energy per Si atom -12395.773066 kJ/mol
# Density = 1.735635 g / cm^3
# Si number density = 17.395945 Si / 1000 Ang^3
#
#
#
# Elastic Constant Matrix: (Units=GPa)
#
#
# Indices 1 2 3 4 5 6 
#
# 1 13.1177 21.4978 19.1333 0.0000 0.0000 0.0000
# 2 21.4978 163.2767 92.9361 0.0000 0.0000 0.0000
# 3 19.1333 92.9361 162.1136 0.0000 0.0000 0.0000
# 4 0.0000 0.0000 0.0000 35.2130 0.0000 0.0000
# 5 0.0000 0.0000 0.0000 0.0000 12.9629 0.0000
# 6 0.0000 0.0000 0.0000 0.0000 0.0000 17.1221
#
#
#
# Elastic Compliance Matrix: (Units=1/GPa)
#
#
# Indices 1 2 3 4 5 6 
#
# 1 0.101506 -0.009716 -0.006410 0.000000 0.000000 0.000000
# 2 -0.009716 0.010021 -0.004598 0.000000 0.000000 0.000000
# 3 -0.006410 -0.004598 0.009561 0.000000 0.000000 0.000000
# 4 0.000000 0.000000 0.000000 0.028399 0.000000 0.000000
# 5 0.000000 0.000000 0.000000 0.000000 0.077143 0.000000
# 6 0.000000 0.000000 0.000000 0.000000 0.000000 0.058404
#
#
# Mechanical properties :
#
#
# Convention : Reuss Voigt Hill
#
# Bulk Modulus (GPa) = 12.55663 67.29358 39.92511
# Shear Modulus (GPa) = 14.16315 26.72232 20.44274
#
# Velocity S-wave (km/s) = 2.85645 3.92359 3.43176
# Velocity P-wave (km/s) = 4.25592 7.70023 6.22119
#
# Compressibility (1/GPa) = 0.07963918
#
# Stress axis : x y z
#
# Youngs Moduli (GPa) = 9.85166 99.78983 104.59099
#
# Poissons Ratio (x) = 0.96957 0.67044
# Poissons Ratio (y) = 0.09572 0.48092
# Poissons Ratio (z) = 0.06315 0.45884
#
# Static dielectric constant tensor:
#      x y z
#    x 2.736860 0.000000 0.000000 
#    y 0.000000 3.481550 0.000000 
#    z 0.000000 0.000000 3.589660 
# 
# 
# High freq. dielectric constant tensor:
#      x y z
#    x 1.612750 0.000000 0.000000 
#    y 0.000000 1.676140 0.000000 
#    z 0.000000 0.000000 1.680270 
# 
# From -- ./inp_files/60032.got.cif
#   From: 2010.03.12/outbox.cif.g09.slc.cpg/sg63_31_cif.got.tgz:60032.got - 2010.04.10 19:34:48.
