data_PCOD8255896
_publ_section_title
;
Structure prediction by ZEFSAII (Michael W. Deem and Ramdas Pophale) SiO2 
 PCOD8255896
Probable space group: C M C M
;
_chemical_formula_sum "Si O2"
_cell_formula_units_Z 96
_cell_length_a 9.876708
_cell_length_b 24.867646
_cell_length_c 21.576599
_cell_angle_alpha 90.000000
_cell_angle_beta 90.000000
_cell_angle_gamma 90.000000
_cell_volume 5299.438798
_symmetry_space_group_name_H-M "C M C M"
_symmetry_group_IT_number 63
_symmetry_cell_setting 'orthorhombic'
loop_
_space_group_symop_operation_xyz
x,y,z
-x,-y,1/2+z
x,-y,-z
-x,y,1/2-z
-x,-y,-z
x,y,1/2-z
-x,y,z
x,-y,1/2+z
1/2+x,1/2+y,z
1/2-x,1/2-y,1/2+z
1/2+x,1/2-y,-z
1/2-x,1/2+y,1/2-z
1/2-x,1/2-y,-z
1/2+x,1/2+y,1/2-z
1/2-x,1/2+y,z
1/2+x,1/2-y,1/2+z
loop_
_atom_site_type_symbol
_atom_site_label
_atom_site_fract_x
_atom_site_fract_y
_atom_site_fract_z
Si Si1 0.150394 0.201201 0.007933
Si Si2 0.151523 0.701156 0.678329
Si Si3 0.346269 0.316994 0.646757
Si Si4 0.343805 0.373514 0.104586
Si Si5 0.840018 0.993032 0.070451
Si Si6 0.161368 0.068659 0.181160
O O1 0.183101 0.154047 0.960884
O O2 0.000000 0.224579 0.998020
O O3 0.250000 0.250000 0.000000
O O4 0.165321 0.173245 0.073888
O O5 0.137779 0.691279 0.750000
O O6 0.221239 0.759626 0.664852
O O7 0.247737 0.654153 0.654415
O O8 0.000000 0.698047 0.647773
O O9 0.500000 0.312322 0.670325
O O10 0.280256 0.370025 0.677627
O O11 0.500000 0.368288 0.125975
O O12 0.300451 0.434965 0.096747
O O13 0.000000 0.000550 0.066010
O O14 0.780359 0.034064 0.122955
O O15 0.780251 0.000000 0.000000
O O16 0.201506 0.045722 0.250000
O O17 0.000000 0.070071 0.174535
#
# Coordination Sequence:
#
# PCOD8255896 Si02
#       6
#    16  16  16  16  16  16
#     4  10  18  29  47  71  98 128 159 195 243 296
#     4  10  20  33  49  70  98 134 170 202 243 296
#     4   9  16  28  46  68  96 126 161 206 247 289
#     4  10  20  32  49  75 103 129 161 202 252 302
#     4   9  17  30  47  69 100 134 165 202 251 305
#     4   9  16  26  43  67  93 125 167 211 251 290
#
# _framework density 18.115126
#
# number of rings (size 3 to 8) (size 9 to 14) (size 15 to 20)
#    0.000    2.500    1.667    1.500    0.000    7.000 
#    0.000    1.667    0.000    0.500    0.000    2.333 
#    0.000    2.667    0.000    0.000    0.000    0.000 
#
# Total GULP energy -594768.757167 kJ/mol
# GULP energy per Si atom -12391.015774 kJ/mol
# Density = 1.807390 g / cm^3
# Si number density = 18.115126 Si / 1000 Ang^3
#
#
#
# Elastic Constant Matrix: (Units=GPa)
#
#
# Indices 1 2 3 4 5 6 
#
# 1 32.3252 31.6161 17.2550 0.0000 0.0000 0.0000
# 2 31.6161 132.7660 48.0411 0.0000 0.0000 0.0000
# 3 17.2550 48.0411 97.9642 0.0000 0.0000 0.0000
# 4 0.0000 0.0000 0.0000 27.9197 0.0000 0.0000
# 5 0.0000 0.0000 0.0000 0.0000 17.4059 0.0000
# 6 0.0000 0.0000 0.0000 0.0000 0.0000 4.8488
#
#
#
# Elastic Compliance Matrix: (Units=1/GPa)
#
#
# Indices 1 2 3 4 5 6 
#
# 1 0.041023 -0.008698 -0.002960 0.000000 0.000000 0.000000
# 2 -0.008698 0.011001 -0.003863 0.000000 0.000000 0.000000
# 3 -0.002960 -0.003863 0.012624 0.000000 0.000000 0.000000
# 4 0.000000 0.000000 0.000000 0.035817 0.000000 0.000000
# 5 0.000000 0.000000 0.000000 0.000000 0.057452 0.000000
# 6 0.000000 0.000000 0.000000 0.000000 0.000000 0.206237
#
#
# Mechanical properties :
#
#
# Convention : Reuss Voigt Hill
#
# Bulk Modulus (GPa) = 29.75697 50.76441 40.26069
# Shear Modulus (GPa) = 12.30324 21.11109 16.70717
#
# Velocity S-wave (km/s) = 2.60892 3.41748 3.04020
# Velocity P-wave (km/s) = 5.05346 6.60729 5.88191
#
# Compressibility (1/GPa) = 0.03360557
#
# Stress axis : x y z
#
# Youngs Moduli (GPa) = 24.37676 90.90056 79.21704
#
# Poissons Ratio (x) = 0.79063 0.23450
# Poissons Ratio (y) = 0.21202 0.30600
# Poissons Ratio (z) = 0.07216 0.35114
#
# Static dielectric constant tensor:
#      x y z
#    x 2.857780 0.000000 0.000000 
#    y 0.000000 3.430390 0.000000 
#    z 0.000000 0.000000 3.547670 
# 
# 
# High freq. dielectric constant tensor:
#      x y z
#    x 1.628840 0.000000 0.000000 
#    y 0.000000 1.708990 0.000000 
#    z 0.000000 0.000000 1.717590 
# 
# From -- ./inp_files/51307.got.cif
#   From: 2010.03.12/outbox.cif.g09.slc.cpg/sg63_26_cif.got.tgz:51307.got - 2010.04.10 19:34:48.
