data_PCOD8255747
_publ_section_title
;
Structure prediction by ZEFSAII (Michael W. Deem and Ramdas Pophale) SiO2 
 PCOD8255747
Probable space group: C M C M
;
_chemical_formula_sum "Si O2"
_cell_formula_units_Z 112
_cell_length_a 18.390984
_cell_length_b 17.786133
_cell_length_c 20.560126
_cell_angle_alpha 90.000000
_cell_angle_beta 90.000000
_cell_angle_gamma 90.000000
_cell_volume 6725.309477
_symmetry_space_group_name_H-M "C M C M"
_symmetry_group_IT_number 63
_symmetry_cell_setting 'orthorhombic'
loop_
_space_group_symop_operation_xyz
x,y,z
-x,-y,1/2+z
x,-y,-z
-x,y,1/2-z
-x,-y,-z
x,y,1/2-z
-x,y,z
x,-y,1/2+z
1/2+x,1/2+y,z
1/2-x,1/2-y,1/2+z
1/2+x,1/2-y,-z
1/2-x,1/2+y,1/2-z
1/2-x,1/2-y,-z
1/2+x,1/2+y,1/2-z
1/2-x,1/2+y,z
1/2+x,1/2-y,1/2+z
loop_
_atom_site_type_symbol
_atom_site_label
_atom_site_fract_x
_atom_site_fract_y
_atom_site_fract_z
Si Si1 0.584644 0.042992 0.175493
Si Si2 0.858188 0.449403 0.059861
Si Si3 0.278130 0.717731 0.095505
Si Si4 0.779694 0.866611 0.471970
Si Si5 0.418307 0.308250 0.066899
Si Si6 0.418660 0.215392 0.937534
Si Si7 0.143595 0.707138 0.324329
O O1 0.603089 0.021405 0.250000
O O2 0.500000 0.031203 0.160446
O O3 0.604933 0.128576 0.161245
O O4 0.631265 0.989767 0.128707
O O5 0.771700 0.434206 0.051358
O O6 0.903611 0.372976 0.059477
O O7 0.886669 0.500000 0.000000
O O8 0.243310 0.788155 0.059338
O O9 0.362343 0.740572 0.110370
O O10 0.229925 0.701220 0.159133
O O11 0.274495 0.643294 0.050075
O O12 0.863666 0.878214 0.448826
O O13 0.500000 0.340352 0.069484
O O14 0.398593 0.270109 0.135112
O O15 0.408707 0.245797 0.010631
O O16 0.500000 0.229512 0.911002
O O17 0.136219 0.731200 0.250000
#
# Coordination Sequence:
#
# PCOD8255747 Si02
#       7
#    16  16  16  16  16  16  16
#     4  10  21  33  42  59  91 122 143 172 216 256
#     4  11  19  28  45  65  87 118 155 181 198 243
#     4   8  14  28  44  60  86 111 136 176 222 256
#     4   8  15  27  43  63  84 108 139 178 219 251
#     4   9  16  28  46  66  87 108 134 178 231 267
#     4   9  17  28  45  68  90 112 141 180 223 258
#     4  10  18  28  44  64  86 114 145 175 211 259
#
# _framework density 16.653509
#
# number of rings (size 3 to 8) (size 9 to 14) (size 15 to 20)
#    0.000    2.714    0.000    5.143    0.000    3.143 
#    0.000    6.429    0.000    1.714    0.000    1.000 
#    0.000    1.143    0.000    0.000    0.000    0.000 
#
# Total GULP energy -694056.067069 kJ/mol
# GULP energy per Si atom -12393.858341 kJ/mol
# Density = 1.661560 g / cm^3
# Si number density = 16.653509 Si / 1000 Ang^3
#
#
#
# Elastic Constant Matrix: (Units=GPa)
#
#
# Indices 1 2 3 4 5 6 
#
# 1 116.1343 12.0172 16.1647 0.0000 0.0000 0.0000
# 2 12.0172 26.8919 12.1352 0.0000 0.0000 0.0000
# 3 16.1647 12.1352 43.7529 0.0000 0.0000 0.0000
# 4 0.0000 0.0000 0.0000 18.1636 0.0000 0.0000
# 5 0.0000 0.0000 0.0000 0.0000 19.2399 0.0000
# 6 0.0000 0.0000 0.0000 0.0000 0.0000 21.1084
#
#
#
# Elastic Compliance Matrix: (Units=1/GPa)
#
#
# Indices 1 2 3 4 5 6 
#
# 1 0.009281 -0.002972 -0.002605 0.000000 0.000000 0.000000
# 2 -0.002972 0.043458 -0.010955 0.000000 0.000000 0.000000
# 3 -0.002605 -0.010955 0.026856 0.000000 0.000000 0.000000
# 4 0.000000 0.000000 0.000000 0.055055 0.000000 0.000000
# 5 0.000000 0.000000 0.000000 0.000000 0.051975 0.000000
# 6 0.000000 0.000000 0.000000 0.000000 0.000000 0.047375
#
#
# Mechanical properties :
#
#
# Convention : Reuss Voigt Hill
#
# Bulk Modulus (GPa) = 21.49091 29.71258 25.60174
# Shear Modulus (GPa) = 17.69449 21.46652 19.58050
#
# Velocity S-wave (km/s) = 3.26315 3.59417 3.43265
# Velocity P-wave (km/s) = 5.20867 5.92490 5.57829
#
# Compressibility (1/GPa) = 0.04653130
#
# Stress axis : x y z
#
# Youngs Moduli (GPa) = 107.74961 23.01087 37.23507
#
# Poissons Ratio (x) = 0.06839 0.09698
# Poissons Ratio (y) = 0.32023 0.40792
# Poissons Ratio (z) = 0.28064 0.25209
#
# Static dielectric constant tensor:
#      x y z
#    x 3.737730 0.000000 0.000000 
#    y 0.000000 2.846230 0.000000 
#    z 0.000000 0.000000 3.005290 
# 
# 
# High freq. dielectric constant tensor:
#      x y z
#    x 1.655180 0.000000 0.000000 
#    y 0.000000 1.605010 0.000000 
#    z 0.000000 0.000000 1.619640 
# 
# From -- ./inp_files/55826.got.cif
#   From: 2010.03.12/outbox.cif.g09.slc.cpg/sg63_28_cif.got.tgz:55826.got - 2010.04.10 19:34:48.
