data_PCOD8255460
_publ_section_title
;
Structure prediction by ZEFSAII (Michael W. Deem and Ramdas Pophale) SiO2 
 PCOD8255460
Probable space group: C M C M
;
_chemical_formula_sum "Si O2"
_cell_formula_units_Z 112
_cell_length_a 12.470604
_cell_length_b 25.736486
_cell_length_c 22.272857
_cell_angle_alpha 90.000000
_cell_angle_beta 90.000000
_cell_angle_gamma 90.000000
_cell_volume 7148.462880
_symmetry_space_group_name_H-M "C M C M"
_symmetry_group_IT_number 63
_symmetry_cell_setting 'orthorhombic'
loop_
_space_group_symop_operation_xyz
x,y,z
-x,-y,1/2+z
x,-y,-z
-x,y,1/2-z
-x,-y,-z
x,y,1/2-z
-x,y,z
x,-y,1/2+z
1/2+x,1/2+y,z
1/2-x,1/2-y,1/2+z
1/2+x,1/2-y,-z
1/2-x,1/2+y,1/2-z
1/2-x,1/2-y,-z
1/2+x,1/2+y,1/2-z
1/2-x,1/2+y,z
1/2+x,1/2-y,1/2+z
loop_
_atom_site_type_symbol
_atom_site_label
_atom_site_fract_x
_atom_site_fract_y
_atom_site_fract_z
Si Si1 0.375224 0.387553 0.577252
Si Si2 0.735245 0.280553 0.585063
Si Si3 0.622096 0.992124 0.908829
Si Si4 0.803188 0.578483 0.991959
Si Si5 0.880376 0.318190 0.681943
Si Si6 0.266149 0.074347 0.180949
Si Si7 0.875318 0.691509 0.525571
O O1 0.500000 0.398167 0.568715
O O2 0.352747 0.326026 0.579198
O O3 0.315427 0.412683 0.519521
O O4 0.337571 0.413843 0.639835
O O5 0.794840 0.281792 0.648727
O O6 0.828831 0.288240 0.536820
O O7 0.678540 0.224815 0.579138
O O8 0.500000 0.011541 0.900713
O O9 0.672354 0.976440 0.844602
O O10 0.696615 0.037191 0.937608
O O11 0.622620 0.942325 0.953463
O O12 0.851566 0.631050 0.964920
O O13 0.877314 0.299474 0.750000
O O14 0.849159 0.378374 0.675713
O O15 0.000000 0.311889 0.655226
O O16 0.230888 0.064583 0.250000
O O17 0.000000 0.702629 0.526293
#
# Coordination Sequence:
#
# PCOD8255460 Si02
#       7
#    16  16  16  16  16  16  16
#     4   9  17  30  45  61  88 120 147 179 215 253
#     4   9  18  27  41  67  90 112 145 177 211 258
#     4  10  17  28  46  66  91 115 138 175 222 266
#     4   9  18  29  43  66  88 113 148 177 211 261
#     4   9  16  28  46  66  89 114 140 175 218 260
#     4   9  18  29  43  67  91 112 144 180 216 261
#     4  10  17  27  43  62  90 119 141 173 215 257
#
# _framework density 15.667704000000001
#
# number of rings (size 3 to 8) (size 9 to 14) (size 15 to 20)
#    0.000    2.714    0.000    3.857    0.000    1.143 
#    0.000    6.429    0.000    2.143    0.000    0.000 
#    0.000    0.000    0.000    0.000    0.000    0.000 
#
# Total GULP energy -694239.765820 kJ/mol
# GULP energy per Si atom -12397.138675 kJ/mol
# Density = 1.563204 g / cm^3
# Si number density = 15.667704 Si / 1000 Ang^3
#
#
#
# Elastic Constant Matrix: (Units=GPa)
#
#
# Indices 1 2 3 4 5 6 
#
# 1 117.1300 39.3728 40.0948 0.0000 0.0000 0.0000
# 2 39.3728 86.3521 40.9187 0.0000 0.0000 0.0000
# 3 40.0948 40.9187 74.5585 0.0000 0.0000 0.0000
# 4 0.0000 0.0000 0.0000 23.4281 0.0000 0.0000
# 5 0.0000 0.0000 0.0000 0.0000 17.4909 0.0000
# 6 0.0000 0.0000 0.0000 0.0000 0.0000 14.3379
#
#
#
# Elastic Compliance Matrix: (Units=1/GPa)
#
#
# Indices 1 2 3 4 5 6 
#
# 1 0.011007 -0.002992 -0.004277 0.000000 0.000000 0.000000
# 2 -0.002992 0.016464 -0.007427 0.000000 0.000000 0.000000
# 3 -0.004277 -0.007427 0.019788 0.000000 0.000000 0.000000
# 4 0.000000 0.000000 0.000000 0.042684 0.000000 0.000000
# 5 0.000000 0.000000 0.000000 0.000000 0.057172 0.000000
# 6 0.000000 0.000000 0.000000 0.000000 0.000000 0.069745
#
#
# Mechanical properties :
#
#
# Convention : Reuss Voigt Hill
#
# Bulk Modulus (GPa) = 55.96694 57.64592 56.80643
# Shear Modulus (GPa) = 19.82482 21.56167 20.69325
#
# Velocity S-wave (km/s) = 3.56101 3.71372 3.63817
# Velocity P-wave (km/s) = 7.25992 7.43382 7.34739
#
# Compressibility (1/GPa) = 0.01786769
#
# Stress axis : x y z
#
# Youngs Moduli (GPa) = 90.84739 60.73899 50.53502
#
# Poissons Ratio (x) = 0.18174 0.21615
# Poissons Ratio (y) = 0.27182 0.37530
# Poissons Ratio (z) = 0.38858 0.45108
#
# Static dielectric constant tensor:
#      x y z
#    x 2.893270 0.000000 0.000000 
#    y 0.000000 2.958430 0.000000 
#    z 0.000000 0.000000 3.013670 
# 
# 
# High freq. dielectric constant tensor:
#      x y z
#    x 1.597900 0.000000 0.000000 
#    y 0.000000 1.584120 0.000000 
#    z 0.000000 0.000000 1.584180 
# 
# From -- ./inp_files/53357.got.cif
#   From: 2010.03.12/outbox.cif.g09.slc.cpg/sg63_27_cif.got.tgz:53357.got - 2010.04.10 19:34:48.
