data_PCOD8255694
_publ_section_title
;
Structure prediction by ZEFSAII (Michael W. Deem and Ramdas Pophale) SiO2 
 PCOD8255694
Probable space group: C M C M
;
_chemical_formula_sum "Si O2"
_cell_formula_units_Z 128
_cell_length_a 22.388199
_cell_length_b 16.784184
_cell_length_c 20.454124
_cell_angle_alpha 90.000000
_cell_angle_beta 90.000000
_cell_angle_gamma 90.000000
_cell_volume 7685.998138
_symmetry_space_group_name_H-M "C M C M"
_symmetry_group_IT_number 63
_symmetry_cell_setting 'orthorhombic'
loop_
_space_group_symop_operation_xyz
x,y,z
-x,-y,1/2+z
x,-y,-z
-x,y,1/2-z
-x,-y,-z
x,y,1/2-z
-x,y,z
x,-y,1/2+z
1/2+x,1/2+y,z
1/2-x,1/2-y,1/2+z
1/2+x,1/2-y,-z
1/2-x,1/2+y,1/2-z
1/2-x,1/2-y,-z
1/2+x,1/2+y,1/2-z
1/2-x,1/2+y,z
1/2+x,1/2-y,1/2+z
loop_
_atom_site_type_symbol
_atom_site_label
_atom_site_fract_x
_atom_site_fract_y
_atom_site_fract_z
Si Si1 0.788769 0.455278 0.433309
Si Si2 0.216284 0.415974 0.826308
Si Si3 0.830793 0.718342 0.949395
Si Si4 0.433307 0.324876 0.594925
Si Si5 0.435287 0.420713 0.469967
Si Si6 0.351554 0.436610 0.678137
Si Si7 0.330826 0.402028 0.382538
Si Si8 0.704052 0.765077 0.595462
O O1 0.804942 0.500000 0.500000
O O2 0.804085 0.506962 0.368466
O O3 0.827073 0.374717 0.431388
O O4 0.718197 0.435171 0.434081
O O5 0.197888 0.427711 0.750000
O O6 0.286711 0.398768 0.833598
O O7 0.185352 0.338719 0.858417
O O8 0.889449 0.748777 0.909916
O O9 0.773967 0.767858 0.923226
O O10 0.834319 0.731668 0.028000
O O11 0.500000 0.304879 0.624746
O O12 0.443723 0.351836 0.521798
O O13 0.401387 0.398817 0.631525
O O14 0.405024 0.500000 0.500000
O O15 0.500000 0.444107 0.439968
O O16 0.394003 0.385482 0.414833
O O17 0.374961 0.417194 0.750000
O O18 0.342521 0.532633 0.673303
O O19 0.308918 0.314253 0.360721
#
# Coordination Sequence:
#
# PCOD8255694 Si02
#       8
#    16  16  16  16  16  16  16  16
#     4  10  19  30  52  78 100 136 171 214 265 323
#     4  10  20  34  50  75 108 138 170 212 268 323
#     4  10  19  31  50  79 105 126 176 218 264 311
#     4  11  21  33  51  73 103 136 174 217 261 305
#     4  10  18  27  43  69  97 130 166 204 245 289
#     4  10  21  34  47  66 101 142 178 210 248 308
#     4  10  19  28  48  74 103 131 168 214 250 301
#     4  10  18  29  51  78 103 137 164 211 264 325
#
# _framework density 16.653659999999999
#
# number of rings (size 3 to 8) (size 9 to 14) (size 15 to 20)
#    0.000    1.875    5.000    0.375    1.750    0.750 
#    0.000    2.500    0.000    0.375    0.000    0.000 
#    0.000    2.500    0.000    0.000    0.000    0.000 
#
# Total GULP energy -792939.830218 kJ/mol
# GULP energy per Si atom -12389.684847 kJ/mol
# Density = 1.661576 g / cm^3
# Si number density = 16.653660 Si / 1000 Ang^3
#
#
#
# Elastic Constant Matrix: (Units=GPa)
#
#
# Indices 1 2 3 4 5 6 
#
# 1 60.8125 29.3622 14.3768 0.0000 0.0000 0.0000
# 2 29.3622 108.3398 35.5624 0.0000 0.0000 0.0000
# 3 14.3768 35.5624 69.6937 0.0000 0.0000 0.0000
# 4 0.0000 0.0000 0.0000 18.8804 0.0000 0.0000
# 5 0.0000 0.0000 0.0000 0.0000 8.0934 0.0000
# 6 0.0000 0.0000 0.0000 0.0000 0.0000 20.1953
#
#
#
# Elastic Compliance Matrix: (Units=1/GPa)
#
#
# Indices 1 2 3 4 5 6 
#
# 1 0.019059 -0.004654 -0.001557 0.000000 0.000000 0.000000
# 2 -0.004654 0.012224 -0.005277 0.000000 0.000000 0.000000
# 3 -0.001557 -0.005277 0.017362 0.000000 0.000000 0.000000
# 4 0.000000 0.000000 0.000000 0.052965 0.000000 0.000000
# 5 0.000000 0.000000 0.000000 0.000000 0.123558 0.000000
# 6 0.000000 0.000000 0.000000 0.000000 0.000000 0.049516
#
#
# Mechanical properties :
#
#
# Convention : Reuss Voigt Hill
#
# Bulk Modulus (GPa) = 38.95774 44.16099 41.55936
# Shear Modulus (GPa) = 16.32824 20.07012 18.19918
#
# Velocity S-wave (km/s) = 3.13463 3.47529 3.30934
# Velocity P-wave (km/s) = 6.04523 6.53287 6.29378
#
# Compressibility (1/GPa) = 0.02566884
#
# Stress axis : x y z
#
# Youngs Moduli (GPa) = 52.46768 81.80655 57.59551
#
# Poissons Ratio (x) = 0.38077 0.08966
# Poissons Ratio (y) = 0.24421 0.30395
# Poissons Ratio (z) = 0.08167 0.43172
#
# Static dielectric constant tensor:
#      x y z
#    x 3.130690 0.000000 0.000000 
#    y 0.000000 3.202710 0.000000 
#    z 0.000000 0.000000 2.955310 
# 
# 
# High freq. dielectric constant tensor:
#      x y z
#    x 1.608830 0.000000 0.000000 
#    y 0.000000 1.644830 0.000000 
#    z 0.000000 0.000000 1.619860 
# 
# From -- ./inp_files/56955.got.cif
#   From: 2010.03.12/outbox.cif.g09.slc.cpg/sg63_29_cif.got.tgz:56955.got - 2010.04.10 19:34:48.
