data_PCOD8255749
_publ_section_title
;
Structure prediction by ZEFSAII (Michael W. Deem and Ramdas Pophale) SiO2 
 PCOD8255749
Probable space group: C M C M
;
_chemical_formula_sum "Si O2"
_cell_formula_units_Z 112
_cell_length_a 9.574147
_cell_length_b 30.119104
_cell_length_c 22.701425
_cell_angle_alpha 90.000000
_cell_angle_beta 90.000000
_cell_angle_gamma 90.000000
_cell_volume 6546.290273
_symmetry_space_group_name_H-M "C M C M"
_symmetry_group_IT_number 63
_symmetry_cell_setting 'orthorhombic'
loop_
_space_group_symop_operation_xyz
x,y,z
-x,-y,1/2+z
x,-y,-z
-x,y,1/2-z
-x,-y,-z
x,y,1/2-z
-x,y,z
x,-y,1/2+z
1/2+x,1/2+y,z
1/2-x,1/2-y,1/2+z
1/2+x,1/2-y,-z
1/2-x,1/2+y,1/2-z
1/2-x,1/2-y,-z
1/2+x,1/2+y,1/2-z
1/2-x,1/2+y,z
1/2+x,1/2-y,1/2+z
loop_
_atom_site_type_symbol
_atom_site_label
_atom_site_fract_x
_atom_site_fract_y
_atom_site_fract_z
Si Si1 0.662498 0.648837 0.408262
Si Si2 0.837761 0.196030 0.849898
Si Si3 0.333494 0.556932 0.448140
Si Si4 0.165662 0.099232 0.684823
Si Si5 0.341776 0.708576 0.984167
Si Si6 0.166180 0.960091 0.078727
Si Si7 0.339182 0.280474 0.683324
O O1 0.500000 0.645583 0.393911
O O2 0.726266 0.598872 0.410588
O O3 0.693271 0.668410 0.472509
O O4 0.727706 0.680785 0.357930
O O5 0.783705 0.149980 0.822281
O O6 0.811771 0.191359 0.919168
O O7 0.747943 0.235653 0.823154
O O8 0.000000 0.205007 0.834972
O O9 0.500000 0.559377 0.450332
O O10 0.279789 0.558953 0.516018
O O11 0.284873 0.511548 0.416364
O O12 0.211834 0.082398 0.750000
O O13 0.230487 0.067575 0.633791
O O14 0.000000 0.098469 0.678582
O O15 0.500000 0.724509 0.991928
O O16 0.250000 0.750000 0.000000
O O17 0.000000 0.957535 0.080766
O O18 0.329034 0.297659 0.750000
O O19 0.500000 0.270513 0.665441
#
# Coordination Sequence:
#
# PCOD8255749 Si02
#       7
#    16  16  16  16  16  16  16
#     4   9  16  27  41  58  83 114 145 178 216 257
#     4  10  19  30  46  66  87 115 150 183 219 262
#     4   8  13  22  38  56  76 105 141 177 212 256
#     4   9  16  25  37  56  84 113 139 173 219 264
#     4  10  18  28  44  65  87 113 144 180 220 257
#     4   8  13  22  36  56  79 105 138 173 213 261
#     4  10  20  32  44  59  85 121 154 182 214 255
#
# _framework density 17.108926
#
# number of rings (size 3 to 8) (size 9 to 14) (size 15 to 20)
#    0.000    2.857    1.429    2.143    0.000    4.286 
#    0.000    0.714    0.000    4.286    0.000    0.000 
#    0.000    2.286    0.000   12.143    0.000   12.429 
#
# Total GULP energy -693967.304605 kJ/mol
# GULP energy per Si atom -12392.273297 kJ/mol
# Density = 1.706998 g / cm^3
# Si number density = 17.108926 Si / 1000 Ang^3
#
#
#
# Elastic Constant Matrix: (Units=GPa)
#
#
# Indices 1 2 3 4 5 6 
#
# 1 18.2955 19.7064 14.7112 0.0000 0.0000 0.0000
# 2 19.7064 137.4860 64.1456 0.0000 0.0000 0.0000
# 3 14.7112 64.1456 112.1121 0.0000 0.0000 0.0000
# 4 0.0000 0.0000 0.0000 25.5645 0.0000 0.0000
# 5 0.0000 0.0000 0.0000 0.0000 12.2727 0.0000
# 6 0.0000 0.0000 0.0000 0.0000 0.0000 14.4196
#
#
#
# Elastic Compliance Matrix: (Units=1/GPa)
#
#
# Indices 1 2 3 4 5 6 
#
# 1 0.066222 -0.007418 -0.004445 0.000000 0.000000 0.000000
# 2 -0.007418 0.010753 -0.005179 0.000000 0.000000 0.000000
# 3 -0.004445 -0.005179 0.012466 0.000000 0.000000 0.000000
# 4 0.000000 0.000000 0.000000 0.039117 0.000000 0.000000
# 5 0.000000 0.000000 0.000000 0.000000 0.081482 0.000000
# 6 0.000000 0.000000 0.000000 0.000000 0.000000 0.069350
#
#
# Mechanical properties :
#
#
# Convention : Reuss Voigt Hill
#
# Bulk Modulus (GPa) = 18.06455 51.66889 34.86672
# Shear Modulus (GPa) = 15.06354 21.74006 18.40180
#
# Velocity S-wave (km/s) = 2.97046 3.56853 3.28314
# Velocity P-wave (km/s) = 4.72719 6.87348 5.89877
#
# Compressibility (1/GPa) = 0.05535702
#
# Stress axis : x y z
#
# Youngs Moduli (GPa) = 15.10061 92.99700 80.21697
#
# Poissons Ratio (x) = 0.68984 0.35660
# Poissons Ratio (y) = 0.11201 0.41545
# Poissons Ratio (z) = 0.06713 0.48164
#
# Static dielectric constant tensor:
#      x y z
#    x 2.641850 0.000000 0.000000 
#    y 0.000000 4.843250 0.000000 
#    z 0.000000 0.000000 3.430810 
# 
# 
# High freq. dielectric constant tensor:
#      x y z
#    x 1.586840 0.000000 0.000000 
#    y 0.000000 1.666250 0.000000 
#    z 0.000000 0.000000 1.668370 
# 
# From -- ./inp_files/62123.got.cif
#   From: 2010.03.12/outbox.cif.g09.slc.cpg/sg63_32_cif.got.tgz:62123.got - 2010.04.10 19:34:48.
