data_PCOD8255004
_publ_section_title
;
Structure prediction by ZEFSAII (Michael W. Deem and Ramdas Pophale) SiO2 
 PCOD8255004
Probable space group: P N M A
;
_chemical_formula_sum "Si O2"
_cell_formula_units_Z 40
_cell_length_a 13.403114
_cell_length_b 9.228763
_cell_length_c 17.848996
_cell_angle_alpha 90.000000
_cell_angle_beta 90.000000
_cell_angle_gamma 90.000000
_cell_volume 2207.816613
_symmetry_space_group_name_H-M "P N M A"
_symmetry_group_IT_number 62
_symmetry_cell_setting 'orthorhombic'
loop_
_space_group_symop_operation_xyz
x,y,z
1/2-x,-y,1/2+z
1/2+x,1/2-y,1/2-z
-x,1/2+y,-z
-x,-y,-z
1/2+x,y,1/2-z
1/2-x,1/2+y,1/2+z
x,1/2-y,z
loop_
_atom_site_type_symbol
_atom_site_label
_atom_site_fract_x
_atom_site_fract_y
_atom_site_fract_z
Si Si1 0.609632 0.583422 0.131232
Si Si2 0.172423 0.413991 0.808373
Si Si3 0.903720 0.581263 0.028552
Si Si4 0.193038 0.922124 0.523717
Si Si5 0.916678 0.421901 0.327760
O O1 0.574049 0.750000 0.130328
O O2 0.710328 0.566637 0.178450
O O3 0.527233 0.486277 0.171449
O O4 0.627130 0.523989 0.046799
O O5 0.149535 0.250000 0.781944
O O6 0.140111 0.527266 0.745897
O O7 0.111101 0.448545 0.883526
O O8 0.918722 0.750000 0.012684
O O9 0.806830 0.521313 0.983585
O O10 0.000000 0.500000 0.000000
O O11 0.196677 0.750000 0.519212
O O12 0.144427 0.979724 0.600080
O O13 0.923598 0.250000 0.327695
#
# Coordination Sequence:
#
# PCOD8255004 Si02
#       5
#     8   8   8   8   8
#     4   9  18  36  57  72  97 137 175 211 251 302
#     4   9  20  37  53  72 102 140 176 207 247 304
#     4   9  18  35  56  75 100 135 173 211 252 299
#     4   8  17  34  53  74 101 134 169 207 255 307
#     4  11  21  32  52  81 108 132 164 212 265 308
#
# _framework density 18.117446999999999
#
# number of rings (size 3 to 8) (size 9 to 14) (size 15 to 20)
#    0.000    2.800    0.000    3.600    0.000    3.200 
#    0.000   10.000    0.000    0.000    0.000    0.000 
#    0.000    0.000    0.000    0.000    0.000    0.000 
#
# Total GULP energy -495984.189283 kJ/mol
# GULP energy per Si atom -12399.604732 kJ/mol
# Density = 1.807621 g / cm^3
# Si number density = 18.117447 Si / 1000 Ang^3
#
#
#
# Elastic Constant Matrix: (Units=GPa)
#
#
# Indices 1 2 3 4 5 6 
#
# 1 107.1148 48.8015 62.3343 0.0000 0.0000 0.0000
# 2 48.8015 66.4247 49.2778 0.0000 0.0000 0.0000
# 3 62.3343 49.2778 101.3239 0.0000 0.0000 0.0000
# 4 0.0000 0.0000 0.0000 30.7360 0.0000 0.0000
# 5 0.0000 0.0000 0.0000 0.0000 25.3775 0.0000
# 6 0.0000 0.0000 0.0000 0.0000 0.0000 32.1119
#
#
#
# Elastic Compliance Matrix: (Units=1/GPa)
#
#
# Indices 1 2 3 4 5 6 
#
# 1 0.016469 -0.007170 -0.006645 0.000000 0.000000 0.000000
# 2 -0.007170 0.026674 -0.008561 0.000000 0.000000 0.000000
# 3 -0.006645 -0.008561 0.018121 0.000000 0.000000 0.000000
# 4 0.000000 0.000000 0.000000 0.032535 0.000000 0.000000
# 5 0.000000 0.000000 0.000000 0.000000 0.039405 0.000000
# 6 0.000000 0.000000 0.000000 0.000000 0.000000 0.031141
#
#
# Mechanical properties :
#
#
# Convention : Reuss Voigt Hill
#
# Bulk Modulus (GPa) = 60.56464 66.18784 63.37624
# Shear Modulus (GPa) = 23.29890 25.27507 24.28698
#
# Velocity S-wave (km/s) = 3.58996 3.73911 3.66530
# Velocity P-wave (km/s) = 7.11936 7.43325 7.27800
#
# Compressibility (1/GPa) = 0.01651128
#
# Stress axis : x y z
#
# Youngs Moduli (GPa) = 60.71845 37.48963 55.18500
#
# Poissons Ratio (x) = 0.26882 0.36669
# Poissons Ratio (y) = 0.43538 0.47246
# Poissons Ratio (z) = 0.40346 0.32096
#
# Static dielectric constant tensor:
#      x y z
#    x 3.374130 0.000000 0.000000 
#    y 0.000000 3.092700 0.000000 
#    z 0.000000 0.000000 3.394390 
# 
# 
# High freq. dielectric constant tensor:
#      x y z
#    x 1.710150 0.000000 0.000000 
#    y 0.000000 1.681000 0.000000 
#    z 0.000000 0.000000 1.702630 
# 
# From -- ./inp_files/18646.got.cif
#   From: 2010.03.12/outbox.cif.g09.slc.cpg/sg62_10_cif.got.tgz:18646.got - 2010.04.10 19:12:36.
