data_PCOD8255927
_publ_section_title
;
Structure prediction by ZEFSAII (Michael W. Deem and Ramdas Pophale) SiO2 
 PCOD8255927
Probable space group: C M C M
;
_chemical_formula_sum "Si O2"
_cell_formula_units_Z 96
_cell_length_a 9.161217
_cell_length_b 23.469848
_cell_length_c 25.525655
_cell_angle_alpha 90.000000
_cell_angle_beta 90.000000
_cell_angle_gamma 90.000000
_cell_volume 5488.331590
_symmetry_space_group_name_H-M "C M C M"
_symmetry_group_IT_number 63
_symmetry_cell_setting 'orthorhombic'
loop_
_space_group_symop_operation_xyz
x,y,z
-x,-y,1/2+z
x,-y,-z
-x,y,1/2-z
-x,-y,-z
x,y,1/2-z
-x,y,z
x,-y,1/2+z
1/2+x,1/2+y,z
1/2-x,1/2-y,1/2+z
1/2+x,1/2-y,-z
1/2-x,1/2+y,1/2-z
1/2-x,1/2-y,-z
1/2+x,1/2+y,1/2-z
1/2-x,1/2+y,z
1/2+x,1/2-y,1/2+z
loop_
_atom_site_type_symbol
_atom_site_label
_atom_site_fract_x
_atom_site_fract_y
_atom_site_fract_z
Si Si1 0.330653 0.121912 0.147460
Si Si2 0.170739 0.814934 0.944702
Si Si3 0.173521 0.502577 0.190916
Si Si4 0.173307 0.688605 0.750000
Si Si5 0.826468 0.617805 0.848035
Si Si6 0.329018 0.183791 0.949281
Si Si7 0.834425 0.695139 0.250000
O O1 0.500000 0.123294 0.131017
O O2 0.235094 0.146954 0.101125
O O3 0.275472 0.057713 0.158472
O O4 0.302488 0.157401 0.199586
O O5 0.205665 0.748810 0.933093
O O6 0.000000 0.826327 0.948652
O O7 0.242999 0.834267 0.998987
O O8 0.238052 0.503187 0.250000
O O9 0.230186 0.446696 0.160014
O O10 0.000000 0.502239 0.195173
O O11 0.235430 0.656694 0.698875
O O12 0.224270 0.753022 0.750000
O O13 0.000000 0.688042 0.750000
O O14 0.770401 0.642967 0.903063
O O15 0.000000 0.619802 0.846849
O O16 0.500000 0.175512 0.960034
O O17 0.000000 0.717855 0.250000
#
# Coordination Sequence:
#
# PCOD8255927 Si02
#       7
#    16  16  16   8  16  16   8
#     4  10  19  32  51  74 101 132 167 204 244 294
#     4  10  20  34  52  74 101 133 168 206 251 301
#     4   9  15  28  50  76 101 129 166 207 248 289
#     4  10  18  29  49  77 105 130 159 202 252 298
#     4   9  16  28  50  78 102 125 162 211 254 290
#     4   9  18  33  52  75 101 130 167 208 251 299
#     4  10  20  31  45  71 105 134 159 194 244 300
#
# _framework density 17.491655000000002
#
# number of rings (size 3 to 8) (size 9 to 14) (size 15 to 20)
#    0.000    2.500    1.667    1.500    0.000    2.667 
#    0.000    1.667    0.000    7.000    0.000    0.000 
#    0.000    0.000    0.000    0.000    0.000    0.000 
#
# Total GULP energy -595191.942550 kJ/mol
# GULP energy per Si atom -12399.832136 kJ/mol
# Density = 1.745184 g / cm^3
# Si number density = 17.491655 Si / 1000 Ang^3
#
#
#
# Elastic Constant Matrix: (Units=GPa)
#
#
# Indices 1 2 3 4 5 6 
#
# 1 37.7209 34.2732 48.4683 0.0000 0.0000 0.0000
# 2 34.2732 125.5805 81.4529 0.0000 0.0000 0.0000
# 3 48.4683 81.4529 161.7068 0.0000 0.0000 0.0000
# 4 0.0000 0.0000 0.0000 38.2221 0.0000 0.0000
# 5 0.0000 0.0000 0.0000 0.0000 30.0697 0.0000
# 6 0.0000 0.0000 0.0000 0.0000 0.0000 20.4265
#
#
#
# Elastic Compliance Matrix: (Units=1/GPa)
#
#
# Indices 1 2 3 4 5 6 
#
# 1 0.045364 -0.005290 -0.010932 0.000000 0.000000 0.000000
# 2 -0.005290 0.012444 -0.004683 0.000000 0.000000 0.000000
# 3 -0.010932 -0.004683 0.011819 0.000000 0.000000 0.000000
# 4 0.000000 0.000000 0.000000 0.026163 0.000000 0.000000
# 5 0.000000 0.000000 0.000000 0.000000 0.033256 0.000000
# 6 0.000000 0.000000 0.000000 0.000000 0.000000 0.048956
#
#
# Mechanical properties :
#
#
# Convention : Reuss Voigt Hill
#
# Bulk Modulus (GPa) = 35.94818 72.59966 54.27392
# Shear Modulus (GPa) = 21.82600 28.46458 25.14529
#
# Velocity S-wave (km/s) = 3.53625 4.03839 3.79563
# Velocity P-wave (km/s) = 6.10488 7.95865 7.09259
#
# Compressibility (1/GPa) = 0.02781782
#
# Stress axis : x y z
#
# Youngs Moduli (GPa) = 22.04386 80.36095 84.60633
#
# Poissons Ratio (x) = 0.42509 0.92495
# Poissons Ratio (y) = 0.11661 0.39617
# Poissons Ratio (z) = 0.24099 0.37629
#
# Static dielectric constant tensor:
#      x y z
#    x 2.899730 0.000000 0.000000 
#    y 0.000000 3.408720 0.000000 
#    z 0.000000 0.000000 3.376460 
# 
# 
# High freq. dielectric constant tensor:
#      x y z
#    x 1.637810 0.000000 0.000000 
#    y 0.000000 1.679020 0.000000 
#    z 0.000000 0.000000 1.683010 
# 
# From -- ./inp_files/60045.got.cif
#   From: 2010.03.12/outbox.cif.g09.slc.cpg/sg63_31_cif.got.tgz:60045.got - 2010.04.10 19:34:48.
