data_PCOD8255315
_publ_section_title
;
Structure prediction by ZEFSAII (Michael W. Deem and Ramdas Pophale) SiO2 
 PCOD8255315
Probable space group: P N M A
;
_chemical_formula_sum "Si O2"
_cell_formula_units_Z 48
_cell_length_a 30.000000
_cell_length_b 9.000000
_cell_length_c 9.000000
_cell_angle_alpha 90.000000
_cell_angle_beta 90.000000
_cell_angle_gamma 90.000000
_cell_volume 2430.000000
_symmetry_space_group_name_H-M "P N M A"
_symmetry_group_IT_number 62
_symmetry_cell_setting 'orthorhombic'
loop_
_space_group_symop_operation_xyz
x,y,z
1/2-x,-y,1/2+z
1/2+x,1/2-y,1/2-z
-x,1/2+y,-z
-x,-y,-z
1/2+x,y,1/2-z
1/2-x,1/2+y,1/2+z
x,1/2-y,z
loop_
_atom_site_type_symbol
_atom_site_label
_atom_site_fract_x
_atom_site_fract_y
_atom_site_fract_z
Si Si1 0.863638 0.425363 0.831573
Si Si2 0.715286 0.075603 0.155706
Si Si3 0.958821 0.076662 0.309959
Si Si4 0.548941 0.577500 0.150551
Si Si5 0.881686 0.578332 0.139466
Si Si6 0.793511 0.579598 0.312905
O O1 0.859068 0.250000 0.849217
O O2 0.820766 0.485480 0.747880
O O3 0.907089 0.470060 0.738065
O O4 0.865283 0.497241 0.992461
O O5 0.708128 0.250000 0.181271
O O6 0.763898 0.027821 0.211434
O O7 0.711132 0.032108 0.983642
O O8 0.956780 0.250000 0.273638
O O9 0.943263 0.041018 0.477444
O O10 0.927412 0.992412 0.195274
O O11 0.008895 0.019872 0.283834
O O12 0.536976 0.750000 0.172406
O O13 0.890073 0.750000 0.102854
O O14 0.844677 0.557329 0.266592
O O15 0.778291 0.750000 0.289003
#
# Coordination Sequence:
#
# PCOD8255315 Si02
#       6
#     8   8   8   8   8   8
#     4  11  23  39  59  84 116 151 190 235 283 338
#     4  11  23  39  61  87 115 148 187 232 282 335
#     4  10  20  36  60  87 114 148 191 238 289 343
#     4   9  20  38  59  84 114 150 191 236 287 342
#     4  11  23  39  59  84 117 154 193 237 285 338
#     4  10  23  41  60  85 116 151 190 232 280 335
#
# _framework density 19.753086
#
# number of rings (size 3 to 8) (size 9 to 14) (size 15 to 20)
#    0.000    1.667    0.000    4.000    0.000    8.000 
#    0.000    0.000    0.000    0.000    0.000    0.000 
#    0.000    0.000    0.000    0.000    0.000    0.000 
#
# Total GULP energy -595534.764621 kJ/mol
# GULP energy per Si atom -12406.974263 kJ/mol
# Density = 1.970813 g / cm^3
# Si number density = 19.753086 Si / 1000 Ang^3
#
#
#
# Elastic Constant Matrix: (Units=GPa)
#
#
# Indices 1 2 3 4 5 6 
#
# 1 61.7766 21.0517 -1.5333 0.0000 0.0000 0.0000
# 2 21.0517 75.4640 12.8869 0.0000 0.0000 0.0000
# 3 -1.5333 12.8869 56.1918 0.0000 0.0000 0.0000
# 4 0.0000 0.0000 0.0000 32.5554 0.0000 0.0000
# 5 0.0000 0.0000 0.0000 0.0000 38.1840 0.0000
# 6 0.0000 0.0000 0.0000 0.0000 0.0000 38.2472
#
#
#
# Elastic Compliance Matrix: (Units=1/GPa)
#
#
# Indices 1 2 3 4 5 6 
#
# 1 0.018045 -0.005327 0.001714 0.000000 0.000000 0.000000
# 2 -0.005327 0.015364 -0.003669 0.000000 0.000000 0.000000
# 3 0.001714 -0.003669 0.018684 0.000000 0.000000 0.000000
# 4 0.000000 0.000000 0.000000 0.030717 0.000000 0.000000
# 5 0.000000 0.000000 0.000000 0.000000 0.026189 0.000000
# 6 0.000000 0.000000 0.000000 0.000000 0.000000 0.026146
#
#
# Mechanical properties :
#
#
# Convention : Reuss Voigt Hill
#
# Bulk Modulus (GPa) = 26.64514 28.69366 27.66940
# Shear Modulus (GPa) = 30.82275 32.53245 31.67760
#
# Velocity S-wave (km/s) = 3.95448 4.06267 4.00894
# Velocity P-wave (km/s) = 5.86250 6.04688 5.95540
#
# Compressibility (1/GPa) = 0.03753029
#
# Stress axis : x y z
#
# Youngs Moduli (GPa) = 55.41683 65.08805 53.52072
#
# Poissons Ratio (x) = 0.34670 -0.09173
# Poissons Ratio (y) = 0.29518 0.19636
# Poissons Ratio (z) = -0.09498 0.23880
#
# Static dielectric constant tensor:
#      x y z
#    x 3.596340 0.000000 0.000000 
#    y 0.000000 3.685250 0.000000 
#    z 0.000000 0.000000 3.771590 
# 
# 
# High freq. dielectric constant tensor:
#      x y z
#    x 1.780640 0.000000 0.000000 
#    y 0.000000 1.780910 0.000000 
#    z 0.000000 0.000000 1.778460 
# 
# From -- ./inp_files/10251.got.cif
#   From: 2010.03.12/outbox.ucp.g09.slc.cvg/sg62_6_cif.got.tgz:10251.got - 2010.05.04 19:35:18.
