data_PCOD8255099
_publ_section_title
;
Structure prediction by ZEFSAII (Michael W. Deem and Ramdas Pophale) SiO2 
 PCOD8255099
Probable space group: P N M A
;
_chemical_formula_sum "Si O2"
_cell_formula_units_Z 48
_cell_length_a 8.933233
_cell_length_b 18.849512
_cell_length_c 13.923019
_cell_angle_alpha 90.000000
_cell_angle_beta 90.000000
_cell_angle_gamma 90.000000
_cell_volume 2344.456551
_symmetry_space_group_name_H-M "P N M A"
_symmetry_group_IT_number 62
_symmetry_cell_setting 'orthorhombic'
loop_
_space_group_symop_operation_xyz
x,y,z
1/2-x,-y,1/2+z
1/2+x,1/2-y,1/2-z
-x,1/2+y,-z
-x,-y,-z
1/2+x,y,1/2-z
1/2-x,1/2+y,1/2+z
x,1/2-y,z
loop_
_atom_site_type_symbol
_atom_site_label
_atom_site_fract_x
_atom_site_fract_y
_atom_site_fract_z
Si Si1 0.729895 0.050860 0.463925
Si Si2 0.348769 0.400039 0.743588
Si Si3 0.104311 0.499459 0.721724
Si Si4 0.920103 0.169026 0.569476
Si Si5 0.265166 0.332655 0.552403
Si Si6 0.896732 0.072891 0.093408
O O1 0.575175 0.074563 0.416973
O O2 0.810217 0.118227 0.511021
O O3 0.844608 0.019470 0.385111
O O4 0.690938 0.990945 0.541049
O O5 0.178679 0.425490 0.757131
O O6 0.432906 0.474481 0.767744
O O7 0.385606 0.337001 0.816987
O O8 0.364445 0.373052 0.633501
O O9 0.135922 0.565684 0.793008
O O10 0.893352 0.250000 0.536667
O O11 0.091260 0.145418 0.554349
O O12 0.284937 0.250000 0.569796
O O13 0.330799 0.353919 0.448398
#
# Coordination Sequence:
#
# PCOD8255099 Si02
#       6
#     8   8   8   8   8   8
#     4  11  23  40  64  93 125 163 212 263 309 374
#     4  12  21  40  62  94 128 160 202 258 319 375
#     4  12  23  38  65  96 123 161 209 261 314 369
#     4  11  25  41  61  92 129 169 210 256 318 384
#     4  11  25  42  61  92 131 170 209 258 317 379
#     4  11  22  40  62  93 127 160 212 262 311 373
#
# _framework density 20.473827
#
# number of rings (size 3 to 8) (size 9 to 14) (size 15 to 20)
#    0.000    0.667    6.667    1.500    2.333    2.000 
#    0.000    0.833    0.000    0.000    0.000    0.000 
#    0.000    0.000    0.000    0.000    0.000    0.000 
#
# Total GULP energy -594988.192036 kJ/mol
# GULP energy per Si atom -12395.587334 kJ/mol
# Density = 2.042723 g / cm^3
# Si number density = 20.473827 Si / 1000 Ang^3
#
#
#
# Elastic Constant Matrix: (Units=GPa)
#
#
# Indices 1 2 3 4 5 6 
#
# 1 61.0757 45.9226 33.7099 0.0000 0.0000 0.0000
# 2 45.9226 77.0454 40.7444 0.0000 0.0000 0.0000
# 3 33.7099 40.7444 82.5688 0.0000 0.0000 0.0000
# 4 0.0000 0.0000 0.0000 37.0497 0.0000 0.0000
# 5 0.0000 0.0000 0.0000 0.0000 29.1585 0.0000
# 6 0.0000 0.0000 0.0000 0.0000 0.0000 28.0089
#
#
#
# Elastic Compliance Matrix: (Units=1/GPa)
#
#
# Indices 1 2 3 4 5 6 
#
# 1 0.031010 -0.015950 -0.004789 0.000000 0.000000 0.000000
# 2 -0.015950 0.025767 -0.006203 0.000000 0.000000 0.000000
# 3 -0.004789 -0.006203 0.017127 0.000000 0.000000 0.000000
# 4 0.000000 0.000000 0.000000 0.026991 0.000000 0.000000
# 5 0.000000 0.000000 0.000000 0.000000 0.034295 0.000000
# 6 0.000000 0.000000 0.000000 0.000000 0.000000 0.035703
#
#
# Mechanical properties :
#
#
# Convention : Reuss Voigt Hill
#
# Bulk Modulus (GPa) = 49.95359 51.27155 50.61257
# Shear Modulus (GPa) = 21.60286 25.53094 23.56690
#
# Velocity S-wave (km/s) = 3.25182 3.53512 3.39643
# Velocity P-wave (km/s) = 6.20893 6.46217 6.33682
#
# Compressibility (1/GPa) = 0.02001858
#
# Stress axis : x y z
#
# Youngs Moduli (GPa) = 32.24812 38.80952 58.38641
#
# Poissons Ratio (x) = 0.61903 0.27962
# Poissons Ratio (y) = 0.51437 0.36217
# Poissons Ratio (z) = 0.15444 0.24073
#
# Static dielectric constant tensor:
#      x y z
#    x 3.859290 0.000000 0.000000 
#    y 0.000000 3.498760 0.000000 
#    z 0.000000 0.000000 3.721230 
# 
# 
# High freq. dielectric constant tensor:
#      x y z
#    x 1.818070 0.000000 0.000000 
#    y 0.000000 1.777220 0.000000 
#    z 0.000000 0.000000 1.795300 
# 
# From -- ./inp_files/16980.got.cif
#   From: 2010.03.12/outbox.cif.g09.slc.cpg/sg62_9_cif.got.tgz:16980.got - 2010.04.10 19:12:36.
