data_PCOD8255514
_publ_section_title
;
Structure prediction by ZEFSAII (Michael W. Deem and Ramdas Pophale) SiO2 
 PCOD8255514
Probable space group: C M C M
;
_chemical_formula_sum "Si O2"
_cell_formula_units_Z 128
_cell_length_a 17.339116
_cell_length_b 17.992171
_cell_length_c 23.959097
_cell_angle_alpha 90.000000
_cell_angle_beta 90.000000
_cell_angle_gamma 90.000000
_cell_volume 7474.479720
_symmetry_space_group_name_H-M "C M C M"
_symmetry_group_IT_number 63
_symmetry_cell_setting 'orthorhombic'
loop_
_space_group_symop_operation_xyz
x,y,z
-x,-y,1/2+z
x,-y,-z
-x,y,1/2-z
-x,-y,-z
x,y,1/2-z
-x,y,z
x,-y,1/2+z
1/2+x,1/2+y,z
1/2-x,1/2-y,1/2+z
1/2+x,1/2-y,-z
1/2-x,1/2+y,1/2-z
1/2-x,1/2-y,-z
1/2+x,1/2+y,1/2-z
1/2-x,1/2+y,z
1/2+x,1/2-y,1/2+z
loop_
_atom_site_type_symbol
_atom_site_label
_atom_site_fract_x
_atom_site_fract_y
_atom_site_fract_z
Si Si1 0.584080 0.125070 0.684959
Si Si2 0.783670 0.364706 0.874529
Si Si3 0.411564 0.748588 0.603141
Si Si4 0.780708 0.480757 0.316227
Si Si5 0.668508 0.755096 0.375579
Si Si6 0.288051 0.915170 0.000218
Si Si7 0.298659 0.374637 0.104525
Si Si8 0.412684 0.797976 0.021026
O O1 0.575822 0.118853 0.750000
O O2 0.500000 0.112796 0.656943
O O3 0.641683 0.061195 0.663672
O O4 0.614949 0.207558 0.671266
O O5 0.860441 0.313628 0.867963
O O6 0.791704 0.434224 0.833530
O O7 0.706122 0.321820 0.854691
O O8 0.768353 0.387661 0.938332
O O9 0.500000 0.756481 0.624001
O O10 0.381736 0.664448 0.615036
O O11 0.404500 0.756179 0.536953
O O12 0.765618 0.473969 0.250000
O O13 0.711084 0.440718 0.349873
O O14 0.739443 0.808177 0.388414
O O15 0.618109 0.741973 0.431387
O O16 0.214101 0.905476 0.041451
O O17 0.362309 0.872606 0.024168
O O18 0.313325 0.000000 0.000000
O O19 0.500000 0.821756 0.033271
#
# Coordination Sequence:
#
# PCOD8255514 Si02
#       8
#    16  16  16  16  16  16  16  16
#     4   9  18  32  49  69  94 126 161 195 237 289
#     4  10  19  31  48  75 101 125 160 198 243 288
#     4   9  18  32  51  73  99 128 159 199 241 284
#     4  10  20  33  50  73  99 127 160 201 243 283
#     4   9  17  29  47  69  95 129 163 196 232 281
#     4  10  17  28  47  73 102 129 158 194 237 290
#     4   9  17  32  51  70  95 129 168 198 232 282
#     4   9  17  28  44  71 103 130 156 190 238 290
#
# _framework density 17.124938
#
# number of rings (size 3 to 8) (size 9 to 14) (size 15 to 20)
#    0.000    2.625    1.250    1.125    0.000    4.250 
#    0.000    1.875    0.000    3.000    0.000    0.000 
#    0.000    0.000    0.000    0.000    0.000    0.000 
#
# Total GULP energy -793164.071039 kJ/mol
# GULP energy per Si atom -12393.188610 kJ/mol
# Density = 1.708596 g / cm^3
# Si number density = 17.124938 Si / 1000 Ang^3
#
#
#
# Elastic Constant Matrix: (Units=GPa)
#
#
# Indices 1 2 3 4 5 6 
#
# 1 69.4691 69.4112 20.0304 0.0000 0.0000 0.0000
# 2 69.4112 104.9453 28.9324 0.0000 0.0000 0.0000
# 3 20.0304 28.9324 48.0067 0.0000 0.0000 0.0000
# 4 0.0000 0.0000 0.0000 22.1912 0.0000 0.0000
# 5 0.0000 0.0000 0.0000 0.0000 15.6175 0.0000
# 6 0.0000 0.0000 0.0000 0.0000 0.0000 19.8835
#
#
#
# Elastic Compliance Matrix: (Units=1/GPa)
#
#
# Indices 1 2 3 4 5 6 
#
# 1 0.042480 -0.027835 -0.000949 0.000000 0.000000 0.000000
# 2 -0.027835 0.029666 -0.006265 0.000000 0.000000 0.000000
# 3 -0.000949 -0.006265 0.025002 0.000000 0.000000 0.000000
# 4 0.000000 0.000000 0.000000 0.045063 0.000000 0.000000
# 5 0.000000 0.000000 0.000000 0.000000 0.064031 0.000000
# 6 0.000000 0.000000 0.000000 0.000000 0.000000 0.050293
#
#
# Mechanical properties :
#
#
# Convention : Reuss Voigt Hill
#
# Bulk Modulus (GPa) = 36.96819 51.01878 43.99349
# Shear Modulus (GPa) = 14.89643 18.47491 16.68567
#
# Velocity S-wave (km/s) = 2.95255 3.28812 3.12484
# Velocity P-wave (km/s) = 5.76694 6.65375 6.22616
#
# Compressibility (1/GPa) = 0.02705028
#
# Stress axis : x y z
#
# Youngs Moduli (GPa) = 23.54026 33.70843 39.99640
#
# Poissons Ratio (x) = 0.93827 0.03796
# Poissons Ratio (y) = 0.65524 0.25058
# Poissons Ratio (z) = 0.02234 0.21119
#
# Static dielectric constant tensor:
#      x y z
#    x 3.494660 0.000000 0.000000 
#    y 0.000000 3.231250 0.000000 
#    z 0.000000 0.000000 3.119950 
# 
# 
# High freq. dielectric constant tensor:
#      x y z
#    x 1.644200 0.000000 0.000000 
#    y 0.000000 1.650020 0.000000 
#    z 0.000000 0.000000 1.652890 
# 
# From -- ./inp_files/64073.got.cif
#   From: 2010.03.12/outbox.cif.g09.slc.cpg/sg63_33_cif.got.tgz:64073.got - 2010.04.10 19:34:48.
