data_PCOD8255650
_publ_section_title
;
Structure prediction by ZEFSAII (Michael W. Deem and Ramdas Pophale) SiO2 
 PCOD8255650
Probable space group: C M C M
;
_chemical_formula_sum "Si O2"
_cell_formula_units_Z 80
_cell_length_a 25.500410
_cell_length_b 20.681509
_cell_length_c 8.602551
_cell_angle_alpha 90.000000
_cell_angle_beta 90.000000
_cell_angle_gamma 90.000000
_cell_volume 4536.873211
_symmetry_space_group_name_H-M "C M C M"
_symmetry_group_IT_number 63
_symmetry_cell_setting 'orthorhombic'
loop_
_space_group_symop_operation_xyz
x,y,z
-x,-y,1/2+z
x,-y,-z
-x,y,1/2-z
-x,-y,-z
x,y,1/2-z
-x,y,z
x,-y,1/2+z
1/2+x,1/2+y,z
1/2-x,1/2-y,1/2+z
1/2+x,1/2-y,-z
1/2-x,1/2+y,1/2-z
1/2-x,1/2-y,-z
1/2+x,1/2+y,1/2-z
1/2-x,1/2+y,z
1/2+x,1/2-y,1/2+z
loop_
_atom_site_type_symbol
_atom_site_label
_atom_site_fract_x
_atom_site_fract_y
_atom_site_fract_z
Si Si1 0.722111 0.687071 0.565581
Si Si2 0.388560 0.270577 0.434536
Si Si3 0.395034 0.123243 0.433022
Si Si4 0.500000 0.273122 0.431756
Si Si5 0.500000 0.866617 0.431374
Si Si6 0.785055 0.431582 0.933428
O O1 0.725891 0.689203 0.750000
O O2 0.750000 0.750000 0.500000
O O3 0.661289 0.688438 0.507466
O O4 0.747043 0.622136 0.502619
O O5 0.390238 0.270970 0.250000
O O6 0.382955 0.196349 0.489638
O O7 0.444379 0.300469 0.499923
O O8 0.404773 0.119199 0.250000
O O9 0.446597 0.095249 0.522054
O O10 0.345058 0.080950 0.484148
O O11 0.500000 0.285981 0.250000
O O12 0.500000 0.196725 0.461353
O O13 0.500000 0.849991 0.250000
O O14 0.778951 0.430057 0.750000
O O15 0.766576 0.500000 0.000000
#
# Coordination Sequence:
#
# PCOD8255650 Si02
#       6
#    16  16  16   8   8  16
#     4  11  20  33  53  80 108 138 176 217 260 311
#     4   8  14  27  49  74  99 131 170 206 248 305
#     4   9  17  33  51  67  96 136 174 208 255 312
#     4   8  14  28  46  67 100 137 166 201 252 305
#     4  10  18  26  43  73 100 125 168 217 258 295
#     4  11  23  39  55  75 102 138 178 219 268 318
#
# _framework density 17.633289999999999
#
# number of rings (size 3 to 8) (size 9 to 14) (size 15 to 20)
#    0.000    2.400    2.000    3.300    0.000    1.600 
#    0.000    1.500    0.000    0.000    0.000    0.700 
#    0.000    0.000    0.000    0.000    0.000    0.000 
#
# Total GULP energy -495593.572460 kJ/mol
# GULP energy per Si atom -12389.839312 kJ/mol
# Density = 1.759316 g / cm^3
# Si number density = 17.633290 Si / 1000 Ang^3
#
#
#
# Elastic Constant Matrix: (Units=GPa)
#
#
# Indices 1 2 3 4 5 6 
#
# 1 178.1034 68.6597 42.6000 0.0000 0.0000 0.0000
# 2 68.6597 90.8419 26.3258 0.0000 0.0000 0.0000
# 3 42.6000 26.3258 44.1456 0.0000 0.0000 0.0000
# 4 0.0000 0.0000 0.0000 19.6052 0.0000 0.0000
# 5 0.0000 0.0000 0.0000 0.0000 22.6397 0.0000
# 6 0.0000 0.0000 0.0000 0.0000 0.0000 20.3429
#
#
#
# Elastic Compliance Matrix: (Units=1/GPa)
#
#
# Indices 1 2 3 4 5 6 
#
# 1 0.008921 -0.005135 -0.005546 0.000000 0.000000 0.000000
# 2 -0.005135 0.016264 -0.004743 0.000000 0.000000 0.000000
# 3 -0.005546 -0.004743 0.030833 0.000000 0.000000 0.000000
# 4 0.000000 0.000000 0.000000 0.051007 0.000000 0.000000
# 5 0.000000 0.000000 0.000000 0.000000 0.044170 0.000000
# 6 0.000000 0.000000 0.000000 0.000000 0.000000 0.049157
#
#
# Mechanical properties :
#
#
# Convention : Reuss Voigt Hill
#
# Bulk Modulus (GPa) = 39.73266 65.36241 52.54754
# Shear Modulus (GPa) = 20.86882 24.21792 22.54337
#
# Velocity S-wave (km/s) = 3.44392 3.70999 3.57943
# Velocity P-wave (km/s) = 6.19643 7.44984 6.85186
#
# Compressibility (1/GPa) = 0.02516821
#
# Stress axis : x y z
#
# Youngs Moduli (GPa) = 112.09495 61.48495 32.43268
#
# Poissons Ratio (x) = 0.31575 0.17988
# Poissons Ratio (y) = 0.57565 0.15384
# Poissons Ratio (z) = 0.62171 0.29165
#
# Static dielectric constant tensor:
#      x y z
#    x 4.134950 0.000000 0.000000 
#    y 0.000000 2.900230 0.000000 
#    z 0.000000 0.000000 3.082480 
# 
# 
# High freq. dielectric constant tensor:
#      x y z
#    x 1.708410 0.000000 0.000000 
#    y 0.000000 1.624870 0.000000 
#    z 0.000000 0.000000 1.667750 
# 
# From -- ./inp_files/10091.got.cif
#   From: 2010.03.12/outbox.cif.g09.slc.cpg/sg63_6_cif.got.tgz:10091.got - 2010.04.10 19:34:48.
