data_PCOD8255700
_publ_section_title
;
Structure prediction by ZEFSAII (Michael W. Deem and Ramdas Pophale) SiO2 
 PCOD8255700
Probable space group: C M C M
;
_chemical_formula_sum "Si O2"
_cell_formula_units_Z 80
_cell_length_a 9.022786
_cell_length_b 25.755268
_cell_length_c 19.948093
_cell_angle_alpha 90.000000
_cell_angle_beta 90.000000
_cell_angle_gamma 90.000000
_cell_volume 4635.623060
_symmetry_space_group_name_H-M "C M C M"
_symmetry_group_IT_number 63
_symmetry_cell_setting 'orthorhombic'
loop_
_space_group_symop_operation_xyz
x,y,z
-x,-y,1/2+z
x,-y,-z
-x,y,1/2-z
-x,-y,-z
x,y,1/2-z
-x,y,z
x,-y,1/2+z
1/2+x,1/2+y,z
1/2-x,1/2-y,1/2+z
1/2+x,1/2-y,-z
1/2-x,1/2+y,1/2-z
1/2-x,1/2-y,-z
1/2+x,1/2+y,1/2-z
1/2-x,1/2+y,z
1/2+x,1/2-y,1/2+z
loop_
_atom_site_type_symbol
_atom_site_label
_atom_site_fract_x
_atom_site_fract_y
_atom_site_fract_z
Si Si1 0.823921 0.194092 0.175225
Si Si2 0.163110 0.003939 0.920612
Si Si3 0.676011 0.190080 0.824665
Si Si4 0.176070 0.109436 0.428476
Si Si5 0.324459 0.105491 0.570875
O O1 0.765761 0.180581 0.250000
O O2 0.770674 0.251990 0.154812
O O3 0.760404 0.152797 0.122113
O O4 0.000000 0.191314 0.174836
O O5 0.216453 0.946896 0.896059
O O6 0.000000 0.017187 0.891291
O O7 0.276725 0.049185 0.899964
O O8 0.152883 0.000000 0.000000
O O9 0.735048 0.176468 0.750000
O O10 0.500000 0.188290 0.824235
O O11 0.737682 0.148668 0.877787
O O12 0.254047 0.118041 0.499397
O O13 0.000000 0.113455 0.439823
O O14 0.500000 0.106572 0.564172
#
# Coordination Sequence:
#
# PCOD8255700 Si02
#       5
#    16  16  16  16  16
#     4   8  14  27  47  66  84 112 148 179 210 254
#     4   8  15  28  43  61  88 117 141 172 216 256
#     4   8  15  28  44  63  88 115 144 179 214 250
#     4   9  17  29  46  67  89 112 141 180 220 253
#     4  10  18  27  44  68  89 113 146 178 210 254
#
# _framework density 17.257657999999999
#
# number of rings (size 3 to 8) (size 9 to 14) (size 15 to 20)
#    0.000    3.400    0.000    3.000    0.000    4.400 
#    0.000    1.000    0.000    5.400    0.000    5.600 
#    0.000    0.000    0.000    0.000    0.000    0.000 
#
# Total GULP energy -495653.567283 kJ/mol
# GULP energy per Si atom -12391.339182 kJ/mol
# Density = 1.721838 g / cm^3
# Si number density = 17.257658 Si / 1000 Ang^3
#
#
#
# Elastic Constant Matrix: (Units=GPa)
#
#
# Indices 1 2 3 4 5 6 
#
# 1 34.0536 35.8524 28.8543 0.0000 0.0000 0.0000
# 2 35.8524 172.7125 93.9235 0.0000 0.0000 0.0000
# 3 28.8543 93.9235 95.5306 0.0000 0.0000 0.0000
# 4 0.0000 0.0000 0.0000 18.0063 0.0000 0.0000
# 5 0.0000 0.0000 0.0000 0.0000 12.9671 0.0000
# 6 0.0000 0.0000 0.0000 0.0000 0.0000 19.3283
#
#
#
# Elastic Compliance Matrix: (Units=1/GPa)
#
#
# Indices 1 2 3 4 5 6 
#
# 1 0.040582 -0.003779 -0.008542 0.000000 0.000000 0.000000
# 2 -0.003779 0.012794 -0.011438 0.000000 0.000000 0.000000
# 3 -0.008542 -0.011438 0.024293 0.000000 0.000000 0.000000
# 4 0.000000 0.000000 0.000000 0.055536 0.000000 0.000000
# 5 0.000000 0.000000 0.000000 0.000000 0.077118 0.000000
# 6 0.000000 0.000000 0.000000 0.000000 0.000000 0.051738
#
#
# Mechanical properties :
#
#
# Convention : Reuss Voigt Hill
#
# Bulk Modulus (GPa) = 33.16538 68.83966 51.00252
# Shear Modulus (GPa) = 15.64308 19.63811 17.64060
#
# Velocity S-wave (km/s) = 3.01399 3.37699 3.20064
# Velocity P-wave (km/s) = 5.60104 7.42842 6.57849
#
# Compressibility (1/GPa) = 0.03015193
#
# Stress axis : x y z
#
# Youngs Moduli (GPa) = 24.64161 78.15890 41.16339
#
# Poissons Ratio (x) = 0.29534 0.35163
# Poissons Ratio (y) = 0.09311 0.47082
# Poissons Ratio (z) = 0.21050 0.89397
#
# Static dielectric constant tensor:
#      x y z
#    x 2.833390 0.000000 0.000000 
#    y 0.000000 3.842730 0.000000 
#    z 0.000000 0.000000 3.206300 
# 
# 
# High freq. dielectric constant tensor:
#      x y z
#    x 1.625260 0.000000 0.000000 
#    y 0.000000 1.682600 0.000000 
#    z 0.000000 0.000000 1.643110 
# 
# From -- ./inp_files/40507.got.cif
#   From: 2010.03.12/outbox.cif.g09.slc.cpg/sg63_21_cif.got.tgz:40507.got - 2010.04.10 19:34:48.
