data_PCOD8255901
_publ_section_title
;
Structure prediction by ZEFSAII (Michael W. Deem and Ramdas Pophale) SiO2 
 PCOD8255901
Probable space group: C M C M
;
_chemical_formula_sum "Si O2"
_cell_formula_units_Z 72
_cell_length_a 29.104547
_cell_length_b 14.730724
_cell_length_c 9.880177
_cell_angle_alpha 90.000000
_cell_angle_beta 90.000000
_cell_angle_gamma 90.000000
_cell_volume 4235.938650
_symmetry_space_group_name_H-M "C M C M"
_symmetry_group_IT_number 63
_symmetry_cell_setting 'orthorhombic'
loop_
_space_group_symop_operation_xyz
x,y,z
-x,-y,1/2+z
x,-y,-z
-x,y,1/2-z
-x,-y,-z
x,y,1/2-z
-x,y,z
x,-y,1/2+z
1/2+x,1/2+y,z
1/2-x,1/2-y,1/2+z
1/2+x,1/2-y,-z
1/2-x,1/2+y,1/2-z
1/2-x,1/2-y,-z
1/2+x,1/2+y,1/2-z
1/2-x,1/2+y,z
1/2+x,1/2-y,1/2+z
loop_
_atom_site_type_symbol
_atom_site_label
_atom_site_fract_x
_atom_site_fract_y
_atom_site_fract_z
Si Si1 0.407367 0.136401 0.250000
Si Si2 0.252761 0.356656 0.750000
Si Si3 0.883554 0.574785 0.750000
Si Si4 0.327182 0.719654 0.750000
Si Si5 0.721715 0.056682 0.750000
Si Si6 0.449991 0.106068 0.520952
Si Si7 0.793668 0.099937 0.527384
O O1 0.366182 0.206406 0.250000
O O2 0.438453 0.155550 0.380612
O O3 0.388869 0.033622 0.250000
O O4 0.222128 0.267643 0.750000
O O5 0.221548 0.447177 0.750000
O O6 0.284246 0.351832 0.615844
O O7 0.829640 0.596946 0.750000
O O8 0.908053 0.623144 0.623127
O O9 0.330409 0.657550 0.614742
O O10 0.746651 0.091127 0.614250
O O11 0.500000 0.142184 0.573099
O O12 0.454890 0.000000 0.500000
O O13 0.814584 0.000000 0.500000
#
# Coordination Sequence:
#
# PCOD8255901 Si02
#       7
#     8   8   8   8   8  16  16
#     4  10  20  29  48  71  96 121 160 209 233 272
#     4  10  18  30  48  65  91 124 162 212 240 271
#     4  10  18  29  48  67  93 130 167 196 221 269
#     4  11  20  32  46  71  92 117 163 210 248 281
#     4   9  18  30  46  68  93 128 169 197 230 273
#     4   9  18  31  46  66  96 133 162 185 225 279
#     4   9  20  34  48  62  92 132 165 198 244 292
#
# _framework density 16.997413999999999
#
# number of rings (size 3 to 8) (size 9 to 14) (size 15 to 20)
#    0.000    2.444    1.111    2.000    3.111    5.333 
#    0.000    0.000    0.000    0.000    0.000    0.000 
#    0.000    3.556    0.000    0.000    0.000    0.000 
#
# Total GULP energy -446227.569395 kJ/mol
# GULP energy per Si atom -12395.210261 kJ/mol
# Density = 1.695873 g / cm^3
# Si number density = 16.997414 Si / 1000 Ang^3
#
#
#
# Elastic Constant Matrix: (Units=GPa)
#
#
# Indices 1 2 3 4 5 6 
#
# 1 62.6675 15.6793 33.9181 0.0000 0.0000 0.0000
# 2 15.6793 54.7857 29.8868 0.0000 0.0000 0.0000
# 3 33.9181 29.8868 133.8792 0.0000 0.0000 0.0000
# 4 0.0000 0.0000 0.0000 18.1884 0.0000 0.0000
# 5 0.0000 0.0000 0.0000 0.0000 35.1139 0.0000
# 6 0.0000 0.0000 0.0000 0.0000 0.0000 6.7220
#
#
#
# Elastic Compliance Matrix: (Units=1/GPa)
#
#
# Indices 1 2 3 4 5 6 
#
# 1 0.018972 -0.003197 -0.004093 0.000000 0.000000 0.000000
# 2 -0.003197 0.021323 -0.003950 0.000000 0.000000 0.000000
# 3 -0.004093 -0.003950 0.009388 0.000000 0.000000 0.000000
# 4 0.000000 0.000000 0.000000 0.054980 0.000000 0.000000
# 5 0.000000 0.000000 0.000000 0.000000 0.028479 0.000000
# 6 0.000000 0.000000 0.000000 0.000000 0.000000 0.148764
#
#
# Mechanical properties :
#
#
# Convention : Reuss Voigt Hill
#
# Bulk Modulus (GPa) = 36.76027 45.58899 41.17463
# Shear Modulus (GPa) = 15.95130 23.46142 19.70636
#
# Velocity S-wave (km/s) = 3.06674 3.71926 3.40865
# Velocity P-wave (km/s) = 5.84926 6.73225 6.30623
#
# Compressibility (1/GPa) = 0.02720328
#
# Stress axis : x y z
#
# Youngs Moduli (GPa) = 52.70826 46.89827 106.51707
#
# Poissons Ratio (x) = 0.14993 0.43597
# Poissons Ratio (y) = 0.16851 0.42075
# Poissons Ratio (z) = 0.21573 0.18525
#
# Static dielectric constant tensor:
#      x y z
#    x 2.969100 0.000000 0.000000 
#    y 0.000000 2.966140 0.000000 
#    z 0.000000 0.000000 3.566950 
# 
# 
# High freq. dielectric constant tensor:
#      x y z
#    x 1.620590 0.000000 0.000000 
#    y 0.000000 1.617700 0.000000 
#    z 0.000000 0.000000 1.677030 
# 
# From -- ./inp_files/11816.got.cif
#   From: 2010.03.12/outbox.cif.g09.slc.cpg/sg63_6_cif.got.tgz:11816.got - 2010.04.10 19:34:48.
