data_PCOD8255775
_publ_section_title
;
Structure prediction by ZEFSAII (Michael W. Deem and Ramdas Pophale) SiO2 
 PCOD8255775
Probable space group: C M C M
;
_chemical_formula_sum "Si O2"
_cell_formula_units_Z 104
_cell_length_a 18.452666
_cell_length_b 12.657267
_cell_length_c 27.156665
_cell_angle_alpha 90.000000
_cell_angle_beta 90.000000
_cell_angle_gamma 90.000000
_cell_volume 6342.719379
_symmetry_space_group_name_H-M "C M C M"
_symmetry_group_IT_number 63
_symmetry_cell_setting 'orthorhombic'
loop_
_space_group_symop_operation_xyz
x,y,z
-x,-y,1/2+z
x,-y,-z
-x,y,1/2-z
-x,-y,-z
x,y,1/2-z
-x,y,z
x,-y,1/2+z
1/2+x,1/2+y,z
1/2-x,1/2-y,1/2+z
1/2+x,1/2-y,-z
1/2-x,1/2+y,1/2-z
1/2-x,1/2-y,-z
1/2+x,1/2+y,1/2-z
1/2-x,1/2+y,z
1/2+x,1/2-y,1/2+z
loop_
_atom_site_type_symbol
_atom_site_label
_atom_site_fract_x
_atom_site_fract_y
_atom_site_fract_z
Si Si1 0.736732 0.633295 0.373282
Si Si2 0.718218 0.555585 0.693205
Si Si3 0.158374 0.472924 0.556996
Si Si4 0.645533 0.766762 0.694057
Si Si5 0.844387 0.656323 0.635085
Si Si6 0.500000 0.973389 0.555790
Si Si7 0.000000 0.624762 0.193060
Si Si8 0.000000 0.397722 0.142881
O O1 0.697163 0.537073 0.344901
O O2 0.775115 0.600644 0.424805
O O3 0.800230 0.665442 0.337379
O O4 0.679718 0.726964 0.382265
O O5 0.722954 0.516732 0.750000
O O6 0.654446 0.641375 0.686397
O O7 0.794499 0.610731 0.678818
O O8 0.171492 0.500000 0.500000
O O9 0.160530 0.581455 0.587774
O O10 0.078564 0.416544 0.566239
O O11 0.661696 0.798165 0.750000
O O12 0.566270 0.801423 0.677787
O O13 0.926358 0.663748 0.657493
O O14 0.500000 0.000000 0.500000
O O15 0.500000 0.085963 0.584001
O O16 0.000000 0.593250 0.250000
O O17 0.000000 0.517102 0.163083
#
# Coordination Sequence:
#
# PCOD8255775 Si02
#       8
#    16  16  16  16  16   8   8   8
#     4  10  18  29  45  65  90 119 150 179 218 267
#     4   9  17  30  46  63  87 118 150 183 214 252
#     4   9  17  29  46  67  91 117 145 184 226 265
#     4   9  17  28  44  66  89 115 148 182 216 256
#     4   9  19  31  45  67  89 114 149 184 221 270
#     4   8  14  26  44  65  86 108 136 171 218 263
#     4  10  18  28  45  68  91 115 144 181 224 261
#     4  10  18  30  45  63  90 113 135 180 229 262
#
# _framework density 16.396751999999999
#
# number of rings (size 3 to 8) (size 9 to 14) (size 15 to 20)
#    0.000    2.769    0.000    3.231    0.000    3.077 
#    0.000    0.769    0.000    0.000    0.000    0.538 
#    0.000    0.000    0.000    0.000    0.000    0.000 
#
# Total GULP energy -644218.245808 kJ/mol
# GULP energy per Si atom -12388.812419 kJ/mol
# Density = 1.635943 g / cm^3
# Si number density = 16.396752 Si / 1000 Ang^3
#
#
#
# Elastic Constant Matrix: (Units=GPa)
#
#
# Indices 1 2 3 4 5 6 
#
# 1 110.3676 54.9835 30.4695 0.0000 0.0000 0.0000
# 2 54.9835 84.0215 30.2387 0.0000 0.0000 0.0000
# 3 30.4695 30.2387 67.7498 0.0000 0.0000 0.0000
# 4 0.0000 0.0000 0.0000 14.8017 0.0000 0.0000
# 5 0.0000 0.0000 0.0000 0.0000 18.4626 0.0000
# 6 0.0000 0.0000 0.0000 0.0000 0.0000 16.2953
#
#
#
# Elastic Compliance Matrix: (Units=1/GPa)
#
#
# Indices 1 2 3 4 5 6 
#
# 1 0.013816 -0.008107 -0.002595 0.000000 0.000000 0.000000
# 2 -0.008107 0.018937 -0.004806 0.000000 0.000000 0.000000
# 3 -0.002595 -0.004806 0.018072 0.000000 0.000000 0.000000
# 4 0.000000 0.000000 0.000000 0.067560 0.000000 0.000000
# 5 0.000000 0.000000 0.000000 0.000000 0.054164 0.000000
# 6 0.000000 0.000000 0.000000 0.000000 0.000000 0.061367
#
#
# Mechanical properties :
#
#
# Convention : Reuss Voigt Hill
#
# Bulk Modulus (GPa) = 50.48305 54.83581 52.65943
# Shear Modulus (GPa) = 18.41387 19.67508 19.04447
#
# Velocity S-wave (km/s) = 3.35478 3.46777 3.41174
# Velocity P-wave (km/s) = 6.77210 7.03915 6.90692
#
# Compressibility (1/GPa) = 0.01980863
#
# Stress axis : x y z
#
# Youngs Moduli (GPa) = 72.38023 52.80768 55.33343
#
# Poissons Ratio (x) = 0.42812 0.14359
# Poissons Ratio (y) = 0.58680 0.26593
# Poissons Ratio (z) = 0.18783 0.25379
#
# Static dielectric constant tensor:
#      x y z
#    x 3.442080 0.000000 0.000000 
#    y 0.000000 3.070930 0.000000 
#    z 0.000000 0.000000 3.159520 
# 
# 
# High freq. dielectric constant tensor:
#      x y z
#    x 1.628830 0.000000 0.000000 
#    y 0.000000 1.606640 0.000000 
#    z 0.000000 0.000000 1.632130 
# 
# From -- ./inp_files/69985.got.cif
#   From: 2010.03.12/outbox.cif.g09.slc.cpg/sg63_35_cif.got.tgz:69985.got - 2010.04.10 19:34:48.
