data_PCOD8255622
_publ_section_title
;
Structure prediction by ZEFSAII (Michael W. Deem and Ramdas Pophale) SiO2 
 PCOD8255622
Probable space group: C M C M
;
_chemical_formula_sum "Si O2"
_cell_formula_units_Z 96
_cell_length_a 14.515785
_cell_length_b 29.060962
_cell_length_c 14.029968
_cell_angle_alpha 90.000000
_cell_angle_beta 90.000000
_cell_angle_gamma 90.000000
_cell_volume 5918.439249
_symmetry_space_group_name_H-M "C M C M"
_symmetry_group_IT_number 63
_symmetry_cell_setting 'orthorhombic'
loop_
_space_group_symop_operation_xyz
x,y,z
-x,-y,1/2+z
x,-y,-z
-x,y,1/2-z
-x,-y,-z
x,y,1/2-z
-x,y,z
x,-y,1/2+z
1/2+x,1/2+y,z
1/2-x,1/2-y,1/2+z
1/2+x,1/2-y,-z
1/2-x,1/2+y,1/2-z
1/2-x,1/2-y,-z
1/2+x,1/2+y,1/2-z
1/2-x,1/2+y,z
1/2+x,1/2-y,1/2+z
loop_
_atom_site_type_symbol
_atom_site_label
_atom_site_fract_x
_atom_site_fract_y
_atom_site_fract_z
Si Si1 0.109388 0.340858 0.519423
Si Si2 0.608330 0.757109 0.855936
Si Si3 0.102497 0.473818 0.136706
Si Si4 0.399377 0.655193 0.637365
Si Si5 0.891192 0.425520 0.644416
Si Si6 0.288080 0.114777 0.862026
O O1 0.147901 0.295167 0.571237
O O2 0.146728 0.384883 0.578481
O O3 0.154371 0.345174 0.414849
O O4 0.000000 0.340088 0.508338
O O5 0.652149 0.763706 0.750000
O O6 0.500000 0.764776 0.846720
O O7 0.628924 0.706338 0.898461
O O8 0.098023 0.478311 0.250000
O O9 0.132502 0.524335 0.097591
O O10 0.175559 0.435262 0.105113
O O11 0.000000 0.460072 0.098517
O O12 0.408712 0.658866 0.750000
O O13 0.500000 0.640232 0.595388
O O14 0.320033 0.618799 0.609040
O O15 0.846948 0.420564 0.750000
O O16 0.000000 0.420941 0.653977
O O17 0.303002 0.122800 0.750000
#
# Coordination Sequence:
#
# PCOD8255622 Si02
#       6
#    16  16  16  16  16  16
#     4  10  18  25  38  61  85 110 134 153 183 230
#     4   8  14  26  43  61  80  99 124 165 207 232
#     4   8  14  25  39  55  80 111 134 154 184 222
#     4   8  15  29  46  59  72  95 129 171 213 238
#     4   8  14  25  40  58  81 107 134 163 190 218
#     4  10  19  28  38  55  80 109 137 161 187 227
#
# _framework density 16.220492
#
# number of rings (size 3 to 8) (size 9 to 14) (size 15 to 20)
#    0.000    3.333    0.000    3.000    0.000    4.333 
#    0.000    2.500    0.000    0.000    0.000    2.333 
#    0.000    4.000    0.000    0.000    0.000    2.333 
#
# Total GULP energy -594744.871107 kJ/mol
# GULP energy per Si atom -12390.518148 kJ/mol
# Density = 1.618357 g / cm^3
# Si number density = 16.220492 Si / 1000 Ang^3
#
#
#
# Elastic Constant Matrix: (Units=GPa)
#
#
# Indices 1 2 3 4 5 6 
#
# 1 70.8167 52.7107 19.2794 0.0000 0.0000 0.0000
# 2 52.7107 93.3354 16.4093 0.0000 0.0000 0.0000
# 3 19.2794 16.4093 30.7095 0.0000 0.0000 0.0000
# 4 0.0000 0.0000 0.0000 13.6038 0.0000 0.0000
# 5 0.0000 0.0000 0.0000 0.0000 11.1339 0.0000
# 6 0.0000 0.0000 0.0000 0.0000 0.0000 10.8878
#
#
#
# Elastic Compliance Matrix: (Units=1/GPa)
#
#
# Indices 1 2 3 4 5 6 
#
# 1 0.026705 -0.013392 -0.009610 0.000000 0.000000 0.000000
# 2 -0.013392 0.018541 -0.001499 0.000000 0.000000 0.000000
# 3 -0.009610 -0.001499 0.039397 0.000000 0.000000 0.000000
# 4 0.000000 0.000000 0.000000 0.073509 0.000000 0.000000
# 5 0.000000 0.000000 0.000000 0.000000 0.089816 0.000000
# 6 0.000000 0.000000 0.000000 0.000000 0.000000 0.091846
#
#
# Mechanical properties :
#
#
# Convention : Reuss Voigt Hill
#
# Bulk Modulus (GPa) = 28.05761 41.29559 34.67660
# Shear Modulus (GPa) = 12.47826 14.22258 13.35042
#
# Velocity S-wave (km/s) = 2.77662 2.96434 2.87201
# Velocity P-wave (km/s) = 5.25496 6.10169 5.69409
#
# Compressibility (1/GPa) = 0.03564095
#
# Stress axis : x y z
#
# Youngs Moduli (GPa) = 37.44578 53.93492 25.38243
#
# Poissons Ratio (x) = 0.72231 0.24391
# Poissons Ratio (y) = 0.50148 0.03806
# Poissons Ratio (z) = 0.35984 0.08087
#
# Static dielectric constant tensor:
#      x y z
#    x 2.857560 0.000000 0.000000 
#    y 0.000000 3.314620 0.000000 
#    z 0.000000 0.000000 3.062150 
# 
# 
# High freq. dielectric constant tensor:
#      x y z
#    x 1.571250 0.000000 0.000000 
#    y 0.000000 1.624400 0.000000 
#    z 0.000000 0.000000 1.611370 
# 
# From -- ./inp_files/32648.got.cif
#   From: 2010.03.12/outbox.cif.g09.slc.cpg/sg63_17_cif.got.tgz:32648.got - 2010.04.10 19:34:48.
