data_PCOD8255081
_publ_section_title
;
Structure prediction by ZEFSAII (Michael W. Deem and Ramdas Pophale) SiO2 
 PCOD8255081
Probable space group: P N M A
;
_chemical_formula_sum "Si O2"
_cell_formula_units_Z 48
_cell_length_a 19.673627
_cell_length_b 8.399298
_cell_length_c 14.220959
_cell_angle_alpha 90.000000
_cell_angle_beta 90.000000
_cell_angle_gamma 90.000000
_cell_volume 2349.937477
_symmetry_space_group_name_H-M "P N M A"
_symmetry_group_IT_number 62
_symmetry_cell_setting 'orthorhombic'
loop_
_space_group_symop_operation_xyz
x,y,z
1/2-x,-y,1/2+z
1/2+x,1/2-y,1/2-z
-x,1/2+y,-z
-x,-y,-z
1/2+x,y,1/2-z
1/2-x,1/2+y,1/2+z
x,1/2-y,z
loop_
_atom_site_type_symbol
_atom_site_label
_atom_site_fract_x
_atom_site_fract_y
_atom_site_fract_z
Si Si1 0.440435 0.934056 0.710161
Si Si2 0.666642 0.935022 0.154123
Si Si3 0.289339 0.432189 0.234396
Si Si4 0.581779 0.433786 0.668176
Si Si5 0.723353 0.432509 0.967291
Si Si6 0.880422 0.433188 0.976038
O O1 0.460581 0.750000 0.707866
O O2 0.396946 0.971863 0.802435
O O3 0.508545 0.038123 0.714130
O O4 0.394841 0.975675 0.620079
O O5 0.649052 0.750000 0.149816
O O6 0.733694 0.956054 0.217304
O O7 0.676315 0.002882 0.050133
O O8 0.268541 0.250000 0.253516
O O9 0.363171 0.461926 0.277430
O O10 0.292170 0.463350 0.123760
O O11 0.602085 0.250000 0.675659
O O12 0.576913 0.486944 0.559550
O O13 0.705314 0.250000 0.945122
O O14 0.801096 0.449971 0.000250
O O15 0.902604 0.250000 0.964828
#
# Coordination Sequence:
#
# PCOD8255081 Si02
#       6
#     8   8   8   8   8   8
#     4  12  25  42  64  92 129 169 211 259 317 377
#     4  12  24  41  65  94 127 166 211 259 312 371
#     4  12  24  41  65  94 127 166 211 259 312 371
#     4  12  25  42  64  92 129 169 211 259 317 377
#     4  11  23  40  65  96 128 164 210 260 312 369
#     4  11  22  38  63  94 130 166 208 259 315 376
#
# _framework density 20.426075000000001
#
# number of rings (size 3 to 8) (size 9 to 14) (size 15 to 20)
#    0.000    0.333    3.333    7.500    0.000    1.333 
#    0.000    0.833    0.000    0.000    0.000    0.000 
#    0.000    0.000    0.000    0.000    0.000    0.000 
#
# Total GULP energy -595704.128962 kJ/mol
# GULP energy per Si atom -12410.502687 kJ/mol
# Density = 2.037958 g / cm^3
# Si number density = 20.426075 Si / 1000 Ang^3
#
#
#
# Elastic Constant Matrix: (Units=GPa)
#
#
# Indices 1 2 3 4 5 6 
#
# 1 52.4322 6.9914 7.1355 0.0000 0.0000 0.0000
# 2 6.9914 111.1219 9.4988 0.0000 0.0000 0.0000
# 3 7.1355 9.4988 70.0887 0.0000 0.0000 0.0000
# 4 0.0000 0.0000 0.0000 33.7553 0.0000 0.0000
# 5 0.0000 0.0000 0.0000 0.0000 31.9600 0.0000
# 6 0.0000 0.0000 0.0000 0.0000 0.0000 31.1943
#
#
#
# Elastic Compliance Matrix: (Units=1/GPa)
#
#
# Indices 1 2 3 4 5 6 
#
# 1 0.019465 -0.001068 -0.001837 0.000000 0.000000 0.000000
# 2 -0.001068 0.009163 -0.001133 0.000000 0.000000 0.000000
# 3 -0.001837 -0.001133 0.014608 0.000000 0.000000 0.000000
# 4 0.000000 0.000000 0.000000 0.029625 0.000000 0.000000
# 5 0.000000 0.000000 0.000000 0.000000 0.031289 0.000000
# 6 0.000000 0.000000 0.000000 0.000000 0.000000 0.032057
#
#
# Mechanical properties :
#
#
# Convention : Reuss Voigt Hill
#
# Bulk Modulus (GPa) = 28.44096 31.21046 29.82571
# Shear Modulus (GPa) = 32.05070 33.38305 32.71687
#
# Velocity S-wave (km/s) = 3.96549 4.04708 4.00649
# Velocity P-wave (km/s) = 5.90939 6.09519 6.00301
#
# Compressibility (1/GPa) = 0.03516056
#
# Stress axis : x y z
#
# Youngs Moduli (GPa) = 51.37531 109.13264 68.45459
#
# Poissons Ratio (x) = 0.11651 0.12575
# Poissons Ratio (y) = 0.05485 0.07757
# Poissons Ratio (z) = 0.09437 0.12366
#
# Static dielectric constant tensor:
#      x y z
#    x 3.595000 0.000000 0.000000 
#    y 0.000000 3.784090 0.000000 
#    z 0.000000 0.000000 3.698850 
# 
# 
# High freq. dielectric constant tensor:
#      x y z
#    x 1.791590 0.000000 0.000000 
#    y 0.000000 1.815330 0.000000 
#    z 0.000000 0.000000 1.800280 
# 
# From -- ./inp_files/19613.got.cif
#   From: 2010.03.12/outbox.cif.g09.slc.cpg/sg62_10_cif.got.tgz:19613.got - 2010.04.10 19:12:36.
