data_PCOD8255310
_publ_section_title
;
Structure prediction by ZEFSAII (Michael W. Deem and Ramdas Pophale) SiO2 
 PCOD8255310
Probable space group: P N M A
;
_chemical_formula_sum "Si O2"
_cell_formula_units_Z 48
_cell_length_a 18.000000
_cell_length_b 9.000000
_cell_length_c 15.000000
_cell_angle_alpha 90.000000
_cell_angle_beta 90.000000
_cell_angle_gamma 90.000000
_cell_volume 2430.000000
_symmetry_space_group_name_H-M "P N M A"
_symmetry_group_IT_number 62
_symmetry_cell_setting 'orthorhombic'
loop_
_space_group_symop_operation_xyz
x,y,z
1/2-x,-y,1/2+z
1/2+x,1/2-y,1/2-z
-x,1/2+y,-z
-x,-y,-z
1/2+x,y,1/2-z
1/2-x,1/2+y,1/2+z
x,1/2-y,z
loop_
_atom_site_type_symbol
_atom_site_label
_atom_site_fract_x
_atom_site_fract_y
_atom_site_fract_z
Si Si1 0.350071 0.420801 0.585912
Si Si2 0.856574 0.926473 0.087475
Si Si3 0.928357 0.074436 0.255516
Si Si4 0.715026 0.083763 0.149826
Si Si5 0.420011 0.076453 0.777408
Si Si6 0.281516 0.087092 0.155172
O O1 0.352695 0.250000 0.556952
O O2 0.387779 0.520984 0.508759
O O3 0.395301 0.450615 0.675772
O O4 0.263477 0.466764 0.598076
O O5 0.856433 0.750000 0.096003
O O6 0.909243 0.992211 0.163480
O O7 0.773017 0.990788 0.090999
O O8 0.933627 0.250000 0.236696
O O9 0.867213 0.039339 0.331962
O O10 0.004012 0.009918 0.294322
O O11 0.703178 0.250000 0.110006
O O12 0.747259 0.098454 0.247566
O O13 0.638169 0.993076 0.152788
O O14 0.429071 0.250000 0.798105
O O15 0.275403 0.250000 0.109115
#
# Coordination Sequence:
#
# PCOD8255310 Si02
#       6
#     8   8   8   8   8   8
#     4  10  20  33  50  73 101 132 165 203 247 295
#     4  11  21  33  51  74 101 132 167 207 248 294
#     4  10  20  34  52  74 102 134 167 204 249 298
#     4   9  17  32  52  72  97 129 166 205 245 292
#     4  10  20  33  51  76 103 132 168 206 246 294
#     4   8  16  31  50  71  94 125 165 204 241 287
#
# _framework density 19.753086
#
# number of rings (size 3 to 8) (size 9 to 14) (size 15 to 20)
#    0.000    2.333    0.000    4.500    0.000    7.333 
#    0.000    0.000    0.000    1.000    0.000    0.000 
#    0.000    0.000    0.000    0.000    0.000    0.000 
#
# Total GULP energy -595107.262759 kJ/mol
# GULP energy per Si atom -12398.067974 kJ/mol
# Density = 1.970813 g / cm^3
# Si number density = 19.753086 Si / 1000 Ang^3
#
#
#
# Elastic Constant Matrix: (Units=GPa)
#
#
# Indices 1 2 3 4 5 6 
#
# 1 96.1438 27.5533 -12.9095 0.0000 0.0000 0.0000
# 2 27.5533 127.4206 1.0406 0.0000 0.0000 0.0000
# 3 -12.9095 1.0406 7.3649 0.0000 0.0000 0.0000
# 4 0.0000 0.0000 0.0000 26.9776 0.0000 0.0000
# 5 0.0000 0.0000 0.0000 0.0000 13.6231 0.0000
# 6 0.0000 0.0000 0.0000 0.0000 0.0000 34.9243
#
#
#
# Elastic Compliance Matrix: (Units=1/GPa)
#
#
# Indices 1 2 3 4 5 6 
#
# 1 0.014985 -0.003459 0.026755 0.000000 0.000000 0.000000
# 2 -0.003459 0.008655 -0.007286 0.000000 0.000000 0.000000
# 3 0.026755 -0.007286 0.183707 0.000000 0.000000 0.000000
# 4 0.000000 0.000000 0.000000 0.037068 0.000000 0.000000
# 5 0.000000 0.000000 0.000000 0.000000 0.073405 0.000000
# 6 0.000000 0.000000 0.000000 0.000000 0.000000 0.028633
#
#
# Mechanical properties :
#
#
# Convention : Reuss Voigt Hill
#
# Bulk Modulus (GPa) = 4.17768 29.14423 16.66095
# Shear Modulus (GPa) = 12.68322 29.45465 21.06893
#
# Velocity S-wave (km/s) = 2.53669 3.86572 3.26945
# Velocity P-wave (km/s) = 3.27098 5.89163 4.76501
#
# Compressibility (1/GPa) = 0.23936750
#
# Stress axis : x y z
#
# Youngs Moduli (GPa) = 66.73443 115.53411 5.44346
#
# Poissons Ratio (x) = 0.39961 -0.14564
# Poissons Ratio (y) = 0.23082 0.03966
# Poissons Ratio (z) = -1.78547 0.84175
#
# Static dielectric constant tensor:
#      x y z
#    x 3.693840 0.000000 0.000000 
#    y 0.000000 3.775860 0.000000 
#    z 0.000000 0.000000 3.362010 
# 
# 
# High freq. dielectric constant tensor:
#      x y z
#    x 1.761890 0.000000 0.000000 
#    y 0.000000 1.786550 0.000000 
#    z 0.000000 0.000000 1.736890 
# 
# From -- ./inp_files/19524.got.cif
#   From: 2010.03.12/outbox.ucp.g09.slc.cvg/sg62_10_cif.got.tgz:19524.got - 2010.05.04 19:35:18.
