data_PCOD8255947
_publ_section_title
;
Structure prediction by ZEFSAII (Michael W. Deem and Ramdas Pophale) SiO2 
 PCOD8255947
Probable space group: C M C M
;
_chemical_formula_sum "Si O2"
_cell_formula_units_Z 72
_cell_length_a 17.838262
_cell_length_b 28.011387
_cell_length_c 8.826524
_cell_angle_alpha 90.000000
_cell_angle_beta 90.000000
_cell_angle_gamma 90.000000
_cell_volume 4410.388616
_symmetry_space_group_name_H-M "C M C M"
_symmetry_group_IT_number 63
_symmetry_cell_setting 'orthorhombic'
loop_
_space_group_symop_operation_xyz
x,y,z
-x,-y,1/2+z
x,-y,-z
-x,y,1/2-z
-x,-y,-z
x,y,1/2-z
-x,y,z
x,-y,1/2+z
1/2+x,1/2+y,z
1/2-x,1/2-y,1/2+z
1/2+x,1/2-y,-z
1/2-x,1/2+y,1/2-z
1/2-x,1/2-y,-z
1/2+x,1/2+y,1/2-z
1/2-x,1/2+y,z
1/2+x,1/2-y,1/2+z
loop_
_atom_site_type_symbol
_atom_site_label
_atom_site_fract_x
_atom_site_fract_y
_atom_site_fract_z
Si Si1 0.349378 0.948464 0.929054
Si Si2 0.000000 0.552444 0.568602
Si Si3 0.211286 0.362178 0.425429
Si Si4 0.314664 0.280162 0.074888
Si Si5 0.415539 0.787795 0.427926
O O1 0.357984 0.954428 0.750000
O O2 0.424240 0.924372 0.003225
O O3 0.285274 0.910413 0.973739
O O4 0.330773 0.000000 0.000000
O O5 0.000000 0.500000 0.500000
O O6 0.000000 0.553681 0.750000
O O7 0.199729 0.375902 0.250000
O O8 0.291638 0.335729 0.449312
O O9 0.142278 0.328692 0.481600
O O10 0.317965 0.267451 0.250000
O O11 0.250000 0.250000 0.000000
O O12 0.393189 0.263784 0.000245
O O13 0.410220 0.781221 0.250000
O O14 0.500000 0.801513 0.478399
#
# Coordination Sequence:
#
# PCOD8255947 Si02
#       5
#    16   8  16  16  16
#     4  11  21  32  45  63  85 113 150 188 226 263
#     4  10  18  30  44  56  78 110 142 180 222 258
#     4   9  18  31  46  64  88 121 154 185 226 266
#     4   9  17  30  47  65  88 118 148 183 226 268
#     4   9  18  31  47  68  93 121 150 184 226 266
#
# _framework density 16.325092000000001
#
# number of rings (size 3 to 8) (size 9 to 14) (size 15 to 20)
#    0.000    2.444    0.000    6.333    1.556    4.889 
#    0.000    0.000    0.000    0.000    0.000    0.000 
#    0.000    0.889    0.000    2.889    0.000    4.222 
#
# Total GULP energy -446057.587363 kJ/mol
# GULP energy per Si atom -12390.488538 kJ/mol
# Density = 1.628794 g / cm^3
# Si number density = 16.325092 Si / 1000 Ang^3
#
#
#
# Elastic Constant Matrix: (Units=GPa)
#
#
# Indices 1 2 3 4 5 6 
#
# 1 34.4911 27.2600 15.5444 0.0000 0.0000 0.0000
# 2 27.2600 85.8322 38.4493 0.0000 0.0000 0.0000
# 3 15.5444 38.4493 86.0439 0.0000 0.0000 0.0000
# 4 0.0000 0.0000 0.0000 27.5779 0.0000 0.0000
# 5 0.0000 0.0000 0.0000 0.0000 22.8143 0.0000
# 6 0.0000 0.0000 0.0000 0.0000 0.0000 22.9949
#
#
#
# Elastic Compliance Matrix: (Units=1/GPa)
#
#
# Indices 1 2 3 4 5 6 
#
# 1 0.038953 -0.011526 -0.001887 0.000000 0.000000 0.000000
# 2 -0.011526 0.017977 -0.005951 0.000000 0.000000 0.000000
# 3 -0.001887 -0.005951 0.014622 0.000000 0.000000 0.000000
# 4 0.000000 0.000000 0.000000 0.036261 0.000000 0.000000
# 5 0.000000 0.000000 0.000000 0.000000 0.043832 0.000000
# 6 0.000000 0.000000 0.000000 0.000000 0.000000 0.043488
#
#
# Mechanical properties :
#
#
# Convention : Reuss Voigt Hill
#
# Bulk Modulus (GPa) = 30.46485 40.98606 35.72545
# Shear Modulus (GPa) = 20.42467 23.01832 21.72149
#
# Velocity S-wave (km/s) = 3.54096 3.75907 3.65164
# Velocity P-wave (km/s) = 5.95145 6.63336 6.30163
#
# Compressibility (1/GPa) = 0.03282472
#
# Stress axis : x y z
#
# Youngs Moduli (GPa) = 25.67195 55.62638 68.39019
#
# Poissons Ratio (x) = 0.64116 0.12902
# Poissons Ratio (y) = 0.29590 0.40698
# Poissons Ratio (z) = 0.04843 0.33103
#
# Static dielectric constant tensor:
#      x y z
#    x 3.406910 0.000000 0.000000 
#    y 0.000000 3.182970 0.000000 
#    z 0.000000 0.000000 3.188610 
# 
# 
# High freq. dielectric constant tensor:
#      x y z
#    x 1.585980 0.000000 0.000000 
#    y 0.000000 1.615130 0.000000 
#    z 0.000000 0.000000 1.637960 
# 
# From -- ./inp_files/6312.got.cif
#   From: 2010.03.12/outbox.cif.g09.slc.cpg/sg63_4_cif.got.tgz:6312.got - 2010.04.10 19:34:48.
