data_PCOD8255487
_publ_section_title
;
Structure prediction by ZEFSAII (Michael W. Deem and Ramdas Pophale) SiO2 
 PCOD8255487
Probable space group: C M C M
;
_chemical_formula_sum "Si O2"
_cell_formula_units_Z 128
_cell_length_a 16.991408
_cell_length_b 23.832990
_cell_length_c 17.947866
_cell_angle_alpha 90.000000
_cell_angle_beta 90.000000
_cell_angle_gamma 90.000000
_cell_volume 7268.097046
_symmetry_space_group_name_H-M "C M C M"
_symmetry_group_IT_number 63
_symmetry_cell_setting 'orthorhombic'
loop_
_space_group_symop_operation_xyz
x,y,z
-x,-y,1/2+z
x,-y,-z
-x,y,1/2-z
-x,-y,-z
x,y,1/2-z
-x,y,z
x,-y,1/2+z
1/2+x,1/2+y,z
1/2-x,1/2-y,1/2+z
1/2+x,1/2-y,-z
1/2-x,1/2+y,1/2-z
1/2-x,1/2-y,-z
1/2+x,1/2+y,1/2-z
1/2-x,1/2+y,z
1/2+x,1/2-y,1/2+z
loop_
_atom_site_type_symbol
_atom_site_label
_atom_site_fract_x
_atom_site_fract_y
_atom_site_fract_z
Si Si1 0.733886 0.305416 0.163255
Si Si2 0.088365 0.435385 0.014678
Si Si3 0.280475 0.503866 0.168846
Si Si4 0.364756 0.446955 0.043713
Si Si5 0.700246 0.281511 0.939180
Si Si6 0.911585 0.823578 0.445365
Si Si7 0.657906 0.910592 0.167920
Si Si8 0.263826 0.902053 0.562084
O O1 0.715720 0.294657 0.250000
O O2 0.795669 0.257697 0.134225
O O3 0.650509 0.306308 0.119099
O O4 0.776257 0.364256 0.149018
O O5 0.095276 0.415537 0.101086
O O6 0.000000 0.422940 0.988933
O O7 0.110535 0.500000 0.000000
O O8 0.144644 0.399954 0.960555
O O9 0.316271 0.515047 0.250000
O O10 0.347998 0.469408 0.126231
O O11 0.199907 0.469981 0.172950
O O12 0.257276 0.563347 0.134973
O O13 0.417948 0.391319 0.045165
O O14 0.404225 0.500000 0.000000
O O15 0.280974 0.430209 0.007598
O O16 0.740139 0.339608 0.918211
O O17 0.750000 0.250000 0.000000
O O18 0.614512 0.294899 0.975651
O O19 0.000000 0.802475 0.425892
O O20 0.619040 0.897659 0.250000
#
# Coordination Sequence:
#
# PCOD8255487 Si02
#       8
#    16  16  16  16  16  16  16  16
#     4  10  20  36  56  76 100 134 175 214 252 299
#     4  11  19  29  46  70  99 129 162 203 257 304
#     4  10  17  27  49  73  95 125 165 204 243 294
#     4   9  16  29  50  72 102 133 165 199 238 300
#     4   9  19  35  54  73  98 134 177 215 249 295
#     4  10  19  32  52  80 108 132 164 208 263 307
#     4  10  18  32  51  70  95 125 163 206 247 297
#     4  10  17  32  49  70  97 126 170 210 247 296
#
# _framework density 17.611212999999999
#
# number of rings (size 3 to 8) (size 9 to 14) (size 15 to 20)
#    0.000    2.125    3.750    1.875    0.000    1.250 
#    0.000    5.625    0.000    1.500    0.000    0.000 
#    0.000    0.000    0.000    0.000    0.000    0.000 
#
# Total GULP energy -793054.160487 kJ/mol
# GULP energy per Si atom -12391.471258 kJ/mol
# Density = 1.757113 g / cm^3
# Si number density = 17.611213 Si / 1000 Ang^3
#
#
#
# Elastic Constant Matrix: (Units=GPa)
#
#
# Indices 1 2 3 4 5 6 
#
# 1 71.1901 20.8968 33.2283 0.0000 0.0000 0.0000
# 2 20.8968 93.7474 41.4309 0.0000 0.0000 0.0000
# 3 33.2283 41.4309 112.8690 0.0000 0.0000 0.0000
# 4 0.0000 0.0000 0.0000 21.8752 0.0000 0.0000
# 5 0.0000 0.0000 0.0000 0.0000 15.0342 0.0000
# 6 0.0000 0.0000 0.0000 0.0000 0.0000 8.0818
#
#
#
# Elastic Compliance Matrix: (Units=1/GPa)
#
#
# Indices 1 2 3 4 5 6 
#
# 1 0.016544 -0.001833 -0.004198 0.000000 0.000000 0.000000
# 2 -0.001833 0.012935 -0.004209 0.000000 0.000000 0.000000
# 3 -0.004198 -0.004209 0.011641 0.000000 0.000000 0.000000
# 4 0.000000 0.000000 0.000000 0.045714 0.000000 0.000000
# 5 0.000000 0.000000 0.000000 0.000000 0.066515 0.000000
# 6 0.000000 0.000000 0.000000 0.000000 0.000000 0.123734
#
#
# Mechanical properties :
#
#
# Convention : Reuss Voigt Hill
#
# Bulk Modulus (GPa) = 48.44520 52.10206 50.27363
# Shear Modulus (GPa) = 16.42347 21.14828 18.78587
#
# Velocity S-wave (km/s) = 3.05709 3.46908 3.26958
# Velocity P-wave (km/s) = 6.32685 6.75979 6.54690
#
# Compressibility (1/GPa) = 0.02064188
#
# Stress axis : x y z
#
# Youngs Moduli (GPa) = 60.44416 77.30688 85.90652
#
# Poissons Ratio (x) = 0.14167 0.36062
# Poissons Ratio (y) = 0.11077 0.36156
# Poissons Ratio (z) = 0.25374 0.32536
#
# Static dielectric constant tensor:
#      x y z
#    x 2.924860 0.000000 0.000000 
#    y 0.000000 3.378520 0.000000 
#    z 0.000000 0.000000 3.592370 
# 
# 
# High freq. dielectric constant tensor:
#      x y z
#    x 1.645060 0.000000 0.000000 
#    y 0.000000 1.684540 0.000000 
#    z 0.000000 0.000000 1.677360 
# 
# From -- ./inp_files/46343.got.cif
#   From: 2010.03.12/outbox.cif.g09.slc.cpg/sg63_24_cif.got.tgz:46343.got - 2010.04.10 19:34:48.
