data_PCOD8255547
_publ_section_title
;
Structure prediction by ZEFSAII (Michael W. Deem and Ramdas Pophale) SiO2 
 PCOD8255547
Probable space group: C M C M
;
_chemical_formula_sum "Si O2"
_cell_formula_units_Z 80
_cell_length_a 14.034159
_cell_length_b 20.192778
_cell_length_c 16.083009
_cell_angle_alpha 90.000000
_cell_angle_beta 90.000000
_cell_angle_gamma 90.000000
_cell_volume 4557.742323
_symmetry_space_group_name_H-M "C M C M"
_symmetry_group_IT_number 63
_symmetry_cell_setting 'orthorhombic'
loop_
_space_group_symop_operation_xyz
x,y,z
-x,-y,1/2+z
x,-y,-z
-x,y,1/2-z
-x,-y,-z
x,y,1/2-z
-x,y,z
x,-y,1/2+z
1/2+x,1/2+y,z
1/2-x,1/2-y,1/2+z
1/2+x,1/2-y,-z
1/2-x,1/2+y,1/2-z
1/2-x,1/2-y,-z
1/2+x,1/2+y,1/2-z
1/2-x,1/2+y,z
1/2+x,1/2-y,1/2+z
loop_
_atom_site_type_symbol
_atom_site_label
_atom_site_fract_x
_atom_site_fract_y
_atom_site_fract_z
Si Si1 0.000000 0.621848 0.565442
Si Si2 0.287376 0.500000 0.000000
Si Si3 0.178244 0.166689 0.344108
Si Si4 0.610553 0.517897 0.339751
Si Si5 0.154685 0.609243 0.064707
Si Si6 0.500000 0.253089 0.846868
Si Si7 0.500000 0.022249 0.347655
O O1 0.910961 0.639405 0.506715
O O2 0.000000 0.674014 0.640324
O O3 0.000000 0.546273 0.599202
O O4 0.347434 0.520828 0.918401
O O5 0.226003 0.436473 0.984294
O O6 0.200399 0.188541 0.250000
O O7 0.131961 0.094879 0.349340
O O8 0.281514 0.166276 0.390709
O O9 0.098249 0.215641 0.384461
O O10 0.652672 0.493234 0.250000
O O11 0.500000 0.504720 0.340012
O O12 0.093552 0.565387 0.130477
O O13 0.500000 0.270413 0.750000
O O14 0.500000 0.005436 0.250000
#
# Coordination Sequence:
#
# PCOD8255547 Si02
#       7
#     8   8  16  16  16   8   8
#     4  11  21  35  48  72 106 137 163 203 256 309
#     4  10  17  29  46  70 102 130 158 208 258 296
#     4   9  17  31  51  73  95 127 169 212 248 290
#     4   9  16  27  45  71  99 130 167 207 255 304
#     4  10  19  34  50  72 103 130 166 213 251 300
#     4  10  20  35  52  73 101 129 166 211 253 301
#     4  11  20  34  53  74 101 138 172 205 258 309
#
# _framework density 17.55255
#
# number of rings (size 3 to 8) (size 9 to 14) (size 15 to 20)
#    0.000    2.200    3.000    1.800    0.000    1.600 
#    0.000    0.000    0.000    0.000    0.000    0.000 
#    0.000    1.600    0.000    0.000    0.000    0.000 
#
# Total GULP energy -495554.198054 kJ/mol
# GULP energy per Si atom -12388.854951 kJ/mol
# Density = 1.751260 g / cm^3
# Si number density = 17.552550 Si / 1000 Ang^3
#
#
#
# Elastic Constant Matrix: (Units=GPa)
#
#
# Indices 1 2 3 4 5 6 
#
# 1 109.6766 32.1563 49.6687 0.0000 0.0000 0.0000
# 2 32.1563 41.4698 18.8636 0.0000 0.0000 0.0000
# 3 49.6687 18.8636 105.8485 0.0000 0.0000 0.0000
# 4 0.0000 0.0000 0.0000 22.4245 0.0000 0.0000
# 5 0.0000 0.0000 0.0000 0.0000 14.4361 0.0000
# 6 0.0000 0.0000 0.0000 0.0000 0.0000 7.7302
#
#
#
# Elastic Compliance Matrix: (Units=1/GPa)
#
#
# Indices 1 2 3 4 5 6 
#
# 1 0.013866 -0.008480 -0.004995 0.000000 0.000000 0.000000
# 2 -0.008480 0.031427 -0.001622 0.000000 0.000000 0.000000
# 3 -0.004995 -0.001622 0.012081 0.000000 0.000000 0.000000
# 4 0.000000 0.000000 0.000000 0.044594 0.000000 0.000000
# 5 0.000000 0.000000 0.000000 0.000000 0.069271 0.000000
# 6 0.000000 0.000000 0.000000 0.000000 0.000000 0.129362
#
#
# Mechanical properties :
#
#
# Convention : Reuss Voigt Hill
#
# Bulk Modulus (GPa) = 36.79171 50.93023 43.86097
# Shear Modulus (GPa) = 14.71220 19.33860 17.02540
#
# Velocity S-wave (km/s) = 2.89828 3.32287 3.11781
# Velocity P-wave (km/s) = 5.67507 6.61822 6.16471
#
# Compressibility (1/GPa) = 0.02718004
#
# Stress axis : x y z
#
# Youngs Moduli (GPa) = 72.11814 31.81992 82.77790
#
# Poissons Ratio (x) = 0.26982 0.41351
# Poissons Ratio (y) = 0.61154 0.13423
# Poissons Ratio (z) = 0.36026 0.05160
#
# Static dielectric constant tensor:
#      x y z
#    x 3.768070 0.000000 0.000000 
#    y 0.000000 2.929960 0.000000 
#    z 0.000000 0.000000 4.407590 
# 
# 
# High freq. dielectric constant tensor:
#      x y z
#    x 1.694140 0.000000 0.000000 
#    y 0.000000 1.629330 0.000000 
#    z 0.000000 0.000000 1.682830 
# 
# From -- ./inp_files/44281.got.cif
#   From: 2010.03.12/outbox.cif.g09.slc.cpg/sg63_23_cif.got.tgz:44281.got - 2010.04.10 19:34:48.
