data_PCOD8255110
_publ_section_title
;
Structure prediction by ZEFSAII (Michael W. Deem and Ramdas Pophale) SiO2 
 PCOD8255110
Probable space group: P N M A
;
_chemical_formula_sum "Si O2"
_cell_formula_units_Z 56
_cell_length_a 10.971271
_cell_length_b 16.501692
_cell_length_c 14.789932
_cell_angle_alpha 90.000000
_cell_angle_beta 90.000000
_cell_angle_gamma 90.000000
_cell_volume 2677.636360
_symmetry_space_group_name_H-M "P N M A"
_symmetry_group_IT_number 62
_symmetry_cell_setting 'orthorhombic'
loop_
_space_group_symop_operation_xyz
x,y,z
1/2-x,-y,1/2+z
1/2+x,1/2-y,1/2-z
-x,1/2+y,-z
-x,-y,-z
1/2+x,y,1/2-z
1/2-x,1/2+y,1/2+z
x,1/2-y,z
loop_
_atom_site_type_symbol
_atom_site_label
_atom_site_fract_x
_atom_site_fract_y
_atom_site_fract_z
Si Si1 0.046949 0.344440 0.415168
Si Si2 0.536948 0.548364 0.589172
Si Si3 0.740567 0.589353 0.473341
Si Si4 0.166674 0.944271 0.624799
Si Si5 0.064201 0.071301 0.752495
Si Si6 0.134739 0.153864 0.212140
Si Si7 0.187112 0.842643 0.214904
O O1 0.041697 0.250000 0.431892
O O2 0.127823 0.382486 0.493925
O O3 0.086565 0.364798 0.312322
O O4 0.913704 0.381811 0.432823
O O5 0.500000 0.500000 0.500000
O O6 0.655278 0.600030 0.560697
O O7 0.571058 0.477636 0.656180
O O8 0.447968 0.614583 0.633685
O O9 0.741498 0.495071 0.439308
O O10 0.689689 0.645138 0.392979
O O11 0.236109 0.891958 0.701692
O O12 0.076663 0.010322 0.668778
O O13 0.182835 0.129349 0.755517
O O14 0.931970 0.113609 0.742660
O O15 0.147958 0.250000 0.195133
O O16 0.170017 0.750000 0.239704
#
# Coordination Sequence:
#
# PCOD8255110 Si02
#       7
#     8   8   8   8   8   8   8
#     4  11  24  40  63  96 131 168 213 270 334 394
#     4  12  21  43  67  94 125 166 223 263 320 389
#     4  11  24  40  69  95 128 173 217 270 325 397
#     4  11  22  42  66  92 133 171 219 266 325 404
#     4  11  23  41  71  95 129 178 224 270 326 404
#     4  11  24  42  67 100 133 170 213 276 339 394
#     4  11  24  44  66  98 134 173 223 280 336 387
#
# _framework density 20.913967
#
# number of rings (size 3 to 8) (size 9 to 14) (size 15 to 20)
#    0.000    0.857    4.286    3.429    2.000    1.143 
#    0.000    0.000    0.000    0.000    0.000    0.000 
#    0.000    0.000    0.000    0.000    0.000    0.000 
#
# Total GULP energy -694150.729236 kJ/mol
# GULP energy per Si atom -12395.548736 kJ/mol
# Density = 2.086637 g / cm^3
# Si number density = 20.913967 Si / 1000 Ang^3
#
#
#
# Elastic Constant Matrix: (Units=GPa)
#
#
# Indices 1 2 3 4 5 6 
#
# 1 97.4829 32.3886 12.2934 0.0000 0.0000 0.0000
# 2 32.3886 113.7384 29.9115 0.0000 0.0000 0.0000
# 3 12.2934 29.9115 58.0672 0.0000 0.0000 0.0000
# 4 0.0000 0.0000 0.0000 24.2769 0.0000 0.0000
# 5 0.0000 0.0000 0.0000 0.0000 41.4390 0.0000
# 6 0.0000 0.0000 0.0000 0.0000 0.0000 31.5019
#
#
#
# Elastic Compliance Matrix: (Units=1/GPa)
#
#
# Indices 1 2 3 4 5 6 
#
# 1 0.011367 -0.003012 -0.000855 0.000000 0.000000 0.000000
# 2 -0.003012 0.010968 -0.005012 0.000000 0.000000 0.000000
# 3 -0.000855 -0.005012 0.019984 0.000000 0.000000 0.000000
# 4 0.000000 0.000000 0.000000 0.041191 0.000000 0.000000
# 5 0.000000 0.000000 0.000000 0.000000 0.024132 0.000000
# 6 0.000000 0.000000 0.000000 0.000000 0.000000 0.031744
#
#
# Mechanical properties :
#
#
# Convention : Reuss Voigt Hill
#
# Bulk Modulus (GPa) = 40.71517 46.49727 43.60622
# Shear Modulus (GPa) = 30.24230 32.42323 31.33276
#
# Velocity S-wave (km/s) = 3.80680 3.94167 3.87482
# Velocity P-wave (km/s) = 6.23157 6.55718 6.39645
#
# Compressibility (1/GPa) = 0.02456087
#
# Stress axis : x y z
#
# Youngs Moduli (GPa) = 87.97580 91.17489 50.03942
#
# Poissons Ratio (x) = 0.27462 0.04278
# Poissons Ratio (y) = 0.26498 0.25080
# Poissons Ratio (z) = 0.07521 0.45698
#
# Static dielectric constant tensor:
#      x y z
#    x 4.196600 0.000000 0.000000 
#    y 0.000000 3.873830 0.000000 
#    z 0.000000 0.000000 3.497740 
# 
# 
# High freq. dielectric constant tensor:
#      x y z
#    x 1.833100 0.000000 0.000000 
#    y 0.000000 1.823630 0.000000 
#    z 0.000000 0.000000 1.813180 
# 
# From -- ./inp_files/18124.got.cif
#   From: 2010.03.12/outbox.cif.g09.slc.cpg/sg62_10_cif.got.tgz:18124.got - 2010.04.10 19:12:36.
