data_PCOD8255023
_publ_section_title
;
Structure prediction by ZEFSAII (Michael W. Deem and Ramdas Pophale) SiO2 
 PCOD8255023
Probable space group: P N M A
;
_chemical_formula_sum "Si O2"
_cell_formula_units_Z 48
_cell_length_a 10.142729
_cell_length_b 9.070452
_cell_length_c 29.133069
_cell_angle_alpha 90.000000
_cell_angle_beta 90.000000
_cell_angle_gamma 90.000000
_cell_volume 2680.217193
_symmetry_space_group_name_H-M "P N M A"
_symmetry_group_IT_number 62
_symmetry_cell_setting 'orthorhombic'
loop_
_space_group_symop_operation_xyz
x,y,z
1/2-x,-y,1/2+z
1/2+x,1/2-y,1/2-z
-x,1/2+y,-z
-x,-y,-z
1/2+x,y,1/2-z
1/2-x,1/2+y,1/2+z
x,1/2-y,z
loop_
_atom_site_type_symbol
_atom_site_label
_atom_site_fract_x
_atom_site_fract_y
_atom_site_fract_z
Si Si1 0.780959 0.919101 0.381904
Si Si2 0.129262 0.424332 0.518452
Si Si3 0.378742 0.576933 0.475598
Si Si4 0.011048 0.575697 0.786548
Si Si5 0.979983 0.582283 0.122483
Si Si6 0.788503 0.424539 0.290252
O O1 0.799636 0.750000 0.367853
O O2 0.862799 0.958061 0.427347
O O3 0.628859 0.955594 0.392756
O O4 0.833802 0.016087 0.339749
O O5 0.129890 0.250000 0.509013
O O6 0.247544 0.498581 0.491517
O O7 0.000000 0.500000 0.500000
O O8 0.500000 0.500000 0.500000
O O9 0.378342 0.750000 0.487963
O O10 0.386706 0.552821 0.420864
O O11 0.016503 0.750000 0.787532
O O12 0.107917 0.513713 0.747109
O O13 0.065279 0.518798 0.835257
O O14 0.860342 0.520675 0.778189
O O15 0.969741 0.750000 0.139287
O O16 0.793032 0.250000 0.292128
#
# Coordination Sequence:
#
# PCOD8255023 Si02
#       6
#     8   8   8   8   8   8
#     4   9  18  35  56  77 106 141 180 221 266 323
#     4  11  23  40  57  81 115 150 187 231 280 333
#     4  11  21  36  59  85 113 146 186 231 274 326
#     4   9  18  33  52  75 104 136 173 219 266 317
#     4   9  18  34  55  80 107 137 178 225 268 318
#     4   9  18  33  53  76 103 135 174 218 266 318
#
# _framework density 17.908996999999999
#
# number of rings (size 3 to 8) (size 9 to 14) (size 15 to 20)
#    0.000    2.333    1.667    1.000    0.000    3.333 
#    3.000    0.000    0.000    0.000    0.000    0.000 
#    0.000    0.000    0.000    0.000    0.000    0.000 
#
# Total GULP energy -595206.131488 kJ/mol
# GULP energy per Si atom -12400.127739 kJ/mol
# Density = 1.786823 g / cm^3
# Si number density = 17.908997 Si / 1000 Ang^3
#
#
#
# Elastic Constant Matrix: (Units=GPa)
#
#
# Indices 1 2 3 4 5 6 
#
# 1 118.1645 51.3114 77.4505 0.0000 0.0000 0.0000
# 2 51.3114 62.1598 54.9496 0.0000 0.0000 0.0000
# 3 77.4505 54.9496 135.6982 0.0000 0.0000 0.0000
# 4 0.0000 0.0000 0.0000 36.9481 0.0000 0.0000
# 5 0.0000 0.0000 0.0000 0.0000 35.7317 0.0000
# 6 0.0000 0.0000 0.0000 0.0000 0.0000 27.3178
#
#
#
# Elastic Compliance Matrix: (Units=1/GPa)
#
#
# Indices 1 2 3 4 5 6 
#
# 1 0.015628 -0.007812 -0.005756 0.000000 0.000000 0.000000
# 2 -0.007812 0.028962 -0.007269 0.000000 0.000000 0.000000
# 3 -0.005756 -0.007269 0.013598 0.000000 0.000000 0.000000
# 4 0.000000 0.000000 0.000000 0.027065 0.000000 0.000000
# 5 0.000000 0.000000 0.000000 0.000000 0.027986 0.000000
# 6 0.000000 0.000000 0.000000 0.000000 0.000000 0.036606
#
#
# Mechanical properties :
#
#
# Convention : Reuss Voigt Hill
#
# Bulk Modulus (GPa) = 60.55664 75.93840 68.24752
# Shear Modulus (GPa) = 25.37743 28.82026 27.09884
#
# Velocity S-wave (km/s) = 3.76842 4.01591 3.89413
# Velocity P-wave (km/s) = 7.26784 7.99986 7.64262
#
# Compressibility (1/GPa) = 0.01651347
#
# Stress axis : x y z
#
# Youngs Moduli (GPa) = 63.98779 34.52792 73.53777
#
# Poissons Ratio (x) = 0.26972 0.42332
# Poissons Ratio (y) = 0.49986 0.53457
# Poissons Ratio (z) = 0.36834 0.25099
#
# Static dielectric constant tensor:
#      x y z
#    x 3.239060 0.000000 0.000000 
#    y 0.000000 3.316040 0.000000 
#    z 0.000000 0.000000 3.447880 
# 
# 
# High freq. dielectric constant tensor:
#      x y z
#    x 1.680290 0.000000 0.000000 
#    y 0.000000 1.694110 0.000000 
#    z 0.000000 0.000000 1.700330 
# 
# From -- ./inp_files/31946.got.cif
#   From: 2010.03.12/outbox.cif.g09.slc.cpg/sg62_16_cif.got.tgz:31946.got - 2010.04.10 19:12:36.
