data_PCOD8255994
_publ_section_title
;
Structure prediction by ZEFSAII (Michael W. Deem and Ramdas Pophale) SiO2 
 PCOD8255994
Probable space group: C M C M
;
_chemical_formula_sum "Si O2"
_cell_formula_units_Z 96
_cell_length_a 8.794459
_cell_length_b 20.873583
_cell_length_c 28.725705
_cell_angle_alpha 90.000000
_cell_angle_beta 90.000000
_cell_angle_gamma 90.000000
_cell_volume 5273.231380
_symmetry_space_group_name_H-M "C M C M"
_symmetry_group_IT_number 63
_symmetry_cell_setting 'orthorhombic'
loop_
_space_group_symop_operation_xyz
x,y,z
-x,-y,1/2+z
x,-y,-z
-x,y,1/2-z
-x,-y,-z
x,y,1/2-z
-x,y,z
x,-y,1/2+z
1/2+x,1/2+y,z
1/2-x,1/2-y,1/2+z
1/2+x,1/2-y,-z
1/2-x,1/2+y,1/2-z
1/2-x,1/2-y,-z
1/2+x,1/2+y,1/2-z
1/2-x,1/2+y,z
1/2+x,1/2-y,1/2+z
loop_
_atom_site_type_symbol
_atom_site_label
_atom_site_fract_x
_atom_site_fract_y
_atom_site_fract_z
Si Si1 0.181255 0.005699 0.102686
Si Si2 0.180796 0.052995 0.300689
Si Si3 0.180684 0.870701 0.547848
Si Si4 0.819512 0.746882 0.895752
Si Si5 0.180294 0.802940 0.699244
Si Si6 0.319261 0.375413 0.442661
O O1 0.244821 0.940851 0.079862
O O2 0.000000 0.006143 0.100793
O O3 0.239868 0.009632 0.156381
O O4 0.245091 0.066703 0.074189
O O5 0.236082 0.026286 0.250000
O O6 0.243379 0.125097 0.307664
O O7 0.000000 0.054821 0.301663
O O8 0.238080 0.806468 0.573173
O O9 0.243249 0.870452 0.495214
O O10 0.000000 0.873093 0.548448
O O11 0.762276 0.757972 0.842644
O O12 0.741136 0.682898 0.912659
O O13 0.000000 0.739495 0.899080
O O14 0.233318 0.776140 0.750000
O O15 0.000000 0.806311 0.697047
O O16 0.500000 0.374477 0.442097
#
# Coordination Sequence:
#
# PCOD8255994 Si02
#       6
#    16  16  16  16  16  16
#     4   9  15  26  43  64  88 115 148 185 224 263
#     4   8  12  20  38  64  88 107 138 188 231 256
#     4   9  16  28  46  66  85 115 158 191 214 250
#     4  10  18  30  48  67  89 117 150 187 221 259
#     4   8  13  23  42  67  88 107 141 189 228 254
#     4  10  20  30  43  66  97 124 145 177 223 271
#
# _framework density 18.205157
#
# number of rings (size 3 to 8) (size 9 to 14) (size 15 to 20)
#    0.000    3.000    1.667    2.000    0.000    2.000 
#    0.000    0.833    0.000    4.500    0.000    0.000 
#    0.000    0.000    0.000    0.000    0.000    0.000 
#
# Total GULP energy -594825.945716 kJ/mol
# GULP energy per Si atom -12392.207202 kJ/mol
# Density = 1.816372 g / cm^3
# Si number density = 18.205157 Si / 1000 Ang^3
#
#
#
# Elastic Constant Matrix: (Units=GPa)
#
#
# Indices 1 2 3 4 5 6 
#
# 1 4.6932 8.4459 9.2737 0.0000 0.0000 0.0000
# 2 8.4459 127.6659 76.5138 0.0000 0.0000 0.0000
# 3 9.2737 76.5138 189.3452 0.0000 0.0000 0.0000
# 4 0.0000 0.0000 0.0000 17.0741 0.0000 0.0000
# 5 0.0000 0.0000 0.0000 0.0000 11.2565 0.0000
# 6 0.0000 0.0000 0.0000 0.0000 0.0000 17.9702
#
#
#
# Elastic Compliance Matrix: (Units=1/GPa)
#
#
# Indices 1 2 3 4 5 6 
#
# 1 0.249323 -0.012108 -0.007318 0.000000 0.000000 0.000000
# 2 -0.012108 0.010924 -0.003821 0.000000 0.000000 0.000000
# 3 -0.007318 -0.003821 0.007184 0.000000 0.000000 0.000000
# 4 0.000000 0.000000 0.000000 0.058568 0.000000 0.000000
# 5 0.000000 0.000000 0.000000 0.000000 0.088837 0.000000
# 6 0.000000 0.000000 0.000000 0.000000 0.000000 0.055648
#
#
# Mechanical properties :
#
#
# Convention : Reuss Voigt Hill
#
# Bulk Modulus (GPa) = 4.52622 56.68567 30.60594
# Shear Modulus (GPa) = 8.46561 24.42490 16.44525
#
# Velocity S-wave (km/s) = 2.15875 3.66682 3.00880
# Velocity P-wave (km/s) = 2.95046 7.00944 5.37761
#
# Compressibility (1/GPa) = 0.22093505
#
# Stress axis : x y z
#
# Youngs Moduli (GPa) = 4.01087 91.53945 139.19777
#
# Poissons Ratio (x) = 1.10836 1.01871
# Poissons Ratio (y) = 0.04856 0.53193
# Poissons Ratio (z) = 0.02935 0.34981
#
# Static dielectric constant tensor:
#      x y z
#    x 2.619560 0.000000 0.000000 
#    y 0.000000 3.333290 0.000000 
#    z 0.000000 0.000000 3.986850 
# 
# 
# High freq. dielectric constant tensor:
#      x y z
#    x 1.627800 0.000000 0.000000 
#    y 0.000000 1.692690 0.000000 
#    z 0.000000 0.000000 1.731820 
# 
# From -- ./inp_files/68314.got.cif
#   From: 2010.03.12/outbox.cif.g09.slc.cpg/sg63_35_cif.got.tgz:68314.got - 2010.04.10 19:34:48.
