data_PCOD8255166
_publ_section_title
;
Structure prediction by ZEFSAII (Michael W. Deem and Ramdas Pophale) SiO2 
 PCOD8255166
Probable space group: P N M A
;
_chemical_formula_sum "Si O2"
_cell_formula_units_Z 48
_cell_length_a 10.024537
_cell_length_b 8.652722
_cell_length_c 26.760624
_cell_angle_alpha 90.000000
_cell_angle_beta 90.000000
_cell_angle_gamma 90.000000
_cell_volume 2321.203997
_symmetry_space_group_name_H-M "P N M A"
_symmetry_group_IT_number 62
_symmetry_cell_setting 'orthorhombic'
loop_
_space_group_symop_operation_xyz
x,y,z
1/2-x,-y,1/2+z
1/2+x,1/2-y,1/2-z
-x,1/2+y,-z
-x,-y,-z
1/2+x,y,1/2-z
1/2-x,1/2+y,1/2+z
x,1/2-y,z
loop_
_atom_site_type_symbol
_atom_site_label
_atom_site_fract_x
_atom_site_fract_y
_atom_site_fract_z
Si Si1 0.893119 0.068043 0.462697
Si Si2 0.114863 0.929524 0.033231
Si Si3 0.971442 0.429857 0.854089
Si Si4 0.022668 0.068015 0.641369
Si Si5 0.760151 0.430683 0.290387
Si Si6 0.251930 0.068634 0.325909
O O1 0.905045 0.250000 0.462938
O O2 0.748879 0.017240 0.482276
O O3 0.913117 0.006931 0.407145
O O4 0.000000 0.000000 0.500000
O O5 0.130926 0.750000 0.020930
O O6 0.085844 0.958080 0.091178
O O7 0.000000 0.000000 0.000000
O O8 0.976625 0.250000 0.840214
O O9 0.877780 0.516461 0.814781
O O10 0.117483 0.502096 0.852075
O O11 0.025665 0.250000 0.634636
O O12 0.112411 0.021058 0.688571
O O13 0.872497 0.012317 0.647971
O O14 0.781685 0.250000 0.299958
O O15 0.752222 0.471229 0.232339
O O16 0.242833 0.250000 0.335742
#
# Coordination Sequence:
#
# PCOD8255166 Si02
#       6
#     8   8   8   8   8   8
#     4  12  26  46  72  99 132 172 215 268 327 387
#     4  11  25  45  69  99 133 171 216 267 323 388
#     4  11  24  42  66  96 132 171 217 269 324 388
#     4  12  25  43  67  97 134 173 219 270 325 389
#     4  11  23  42  67  95 130 174 222 269 325 388
#     4  11  25  42  64  96 133 175 222 269 322 388
#
# _framework density 20.678922
#
# number of rings (size 3 to 8) (size 9 to 14) (size 15 to 20)
#    0.000    0.667    1.667    6.000    2.333    8.667 
#    0.000    0.000    0.000    0.000    0.000    0.000 
#    0.000    0.000    0.000    0.000    0.000    0.000 
#
# Total GULP energy -595631.195275 kJ/mol
# GULP energy per Si atom -12408.983235 kJ/mol
# Density = 2.063186 g / cm^3
# Si number density = 20.678922 Si / 1000 Ang^3
#
#
#
# Elastic Constant Matrix: (Units=GPa)
#
#
# Indices 1 2 3 4 5 6 
#
# 1 157.2625 57.6090 23.5924 0.0000 0.0000 0.0000
# 2 57.6090 161.9434 52.0385 0.0000 0.0000 0.0000
# 3 23.5924 52.0385 58.2914 0.0000 0.0000 0.0000
# 4 0.0000 0.0000 0.0000 36.2577 0.0000 0.0000
# 5 0.0000 0.0000 0.0000 0.0000 41.2540 0.0000
# 6 0.0000 0.0000 0.0000 0.0000 0.0000 46.1343
#
#
#
# Elastic Compliance Matrix: (Units=1/GPa)
#
#
# Indices 1 2 3 4 5 6 
#
# 1 0.007345 -0.002324 -0.000898 0.000000 0.000000 0.000000
# 2 -0.002324 0.009395 -0.007446 0.000000 0.000000 0.000000
# 3 -0.000898 -0.007446 0.024166 0.000000 0.000000 0.000000
# 4 0.000000 0.000000 0.000000 0.027580 0.000000 0.000000
# 5 0.000000 0.000000 0.000000 0.000000 0.024240 0.000000
# 6 0.000000 0.000000 0.000000 0.000000 0.000000 0.021676
#
#
# Mechanical properties :
#
#
# Convention : Reuss Voigt Hill
#
# Bulk Modulus (GPa) = 51.10102 71.55301 61.32702
# Shear Modulus (GPa) = 35.14670 41.01304 38.07987
#
# Velocity S-wave (km/s) = 4.12714 4.45829 4.29590
# Velocity P-wave (km/s) = 6.89031 7.82169 7.37072
#
# Compressibility (1/GPa) = 0.01956908
#
# Stress axis : x y z
#
# Youngs Moduli (GPa) = 136.14804 106.44448 41.38076
#
# Poissons Ratio (x) = 0.24742 0.03715
# Poissons Ratio (y) = 0.31646 0.30812
# Poissons Ratio (z) = 0.12222 0.79259
#
# Static dielectric constant tensor:
#      x y z
#    x 3.864680 0.000000 0.000000 
#    y 0.000000 3.659970 0.000000 
#    z 0.000000 0.000000 3.837230 
# 
# 
# High freq. dielectric constant tensor:
#      x y z
#    x 1.831570 0.000000 0.000000 
#    y 0.000000 1.828130 0.000000 
#    z 0.000000 0.000000 1.816740 
# 
# From -- ./inp_files/32044.got.cif
#   From: 2010.03.12/outbox.cif.g09.slc.cpg/sg62_17_cif.got.tgz:32044.got - 2010.04.10 19:12:36.
