data_PCOD8255624
_publ_section_title
;
Structure prediction by ZEFSAII (Michael W. Deem and Ramdas Pophale) SiO2 
 PCOD8255624
Probable space group: C M C M
;
_chemical_formula_sum "Si O2"
_cell_formula_units_Z 88
_cell_length_a 34.388595
_cell_length_b 22.967771
_cell_length_c 9.073138
_cell_angle_alpha 90.000000
_cell_angle_beta 90.000000
_cell_angle_gamma 90.000000
_cell_volume 7166.230916
_symmetry_space_group_name_H-M "C M C M"
_symmetry_group_IT_number 63
_symmetry_cell_setting 'orthorhombic'
loop_
_space_group_symop_operation_xyz
x,y,z
-x,-y,1/2+z
x,-y,-z
-x,y,1/2-z
-x,-y,-z
x,y,1/2-z
-x,y,z
x,-y,1/2+z
1/2+x,1/2+y,z
1/2-x,1/2-y,1/2+z
1/2+x,1/2-y,-z
1/2-x,1/2+y,1/2-z
1/2-x,1/2-y,-z
1/2+x,1/2+y,1/2-z
1/2-x,1/2+y,z
1/2+x,1/2-y,1/2+z
loop_
_atom_site_type_symbol
_atom_site_label
_atom_site_fract_x
_atom_site_fract_y
_atom_site_fract_z
Si Si1 0.500000 0.060400 0.920733
Si Si2 0.308156 0.232606 0.086025
Si Si3 0.839929 0.627398 0.924279
Si Si4 0.416181 0.061492 0.578143
Si Si5 0.770835 0.560414 0.074518
Si Si6 0.274434 0.670334 0.412624
O O1 0.500000 0.046575 0.750000
O O2 0.541376 0.090943 0.962105
O O3 0.500000 0.000000 0.000000
O O4 0.326014 0.236295 0.250000
O O5 0.265844 0.204788 0.091275
O O6 0.335617 0.193232 0.983124
O O7 0.304831 0.298193 0.021551
O O8 0.831823 0.626200 0.750000
O O9 0.883269 0.607418 0.967559
O O10 0.810699 0.583406 0.004505
O O11 0.413095 0.047856 0.750000
O O12 0.409452 0.000000 0.500000
O O13 0.776734 0.554267 0.250000
O O14 0.735335 0.604495 0.037064
O O15 0.759174 0.500000 0.000000
O O16 0.293153 0.670419 0.250000
#
# Coordination Sequence:
#
# PCOD8255624 Si02
#       6
#     8  16  16  16  16  16
#     4   8  14  26  38  48  62  80 106 134 161 196
#     4   9  16  25  37  51  64  81 105 132 163 195
#     4  10  18  26  36  50  67  86 107 134 169 203
#     4   9  17  26  37  50  64  84 107 134 167 201
#     4  10  19  28  37  50  67  87 109 134 166 199
#     4   8  15  26  37  48  63  83 106 131 159 193
#
# _framework density 12.279816
#
# number of rings (size 3 to 8) (size 9 to 14) (size 15 to 20)
#    0.000    2.909    0.000    3.273    0.000    8.000 
#    0.000    0.000    0.000    0.000    0.000    0.000 
#    0.000    0.000    0.000    0.000    0.000    0.000 
#
# Total GULP energy -545138.768893 kJ/mol
# GULP energy per Si atom -12389.517475 kJ/mol
# Density = 1.225187 g / cm^3
# Si number density = 12.279816 Si / 1000 Ang^3
#
#
#
# Elastic Constant Matrix: (Units=GPa)
#
#
# Indices 1 2 3 4 5 6 
#
# 1 55.1616 43.5075 30.7406 0.0000 0.0000 0.0000
# 2 43.5075 83.8296 42.7839 0.0000 0.0000 0.0000
# 3 30.7406 42.7839 67.1116 0.0000 0.0000 0.0000
# 4 0.0000 0.0000 0.0000 20.5251 0.0000 0.0000
# 5 0.0000 0.0000 0.0000 0.0000 11.3447 0.0000
# 6 0.0000 0.0000 0.0000 0.0000 0.0000 12.1584
#
#
#
# Elastic Compliance Matrix: (Units=1/GPa)
#
#
# Indices 1 2 3 4 5 6 
#
# 1 0.032287 -0.013650 -0.006087 0.000000 0.000000 0.000000
# 2 -0.013650 0.023453 -0.008699 0.000000 0.000000 0.000000
# 3 -0.006087 -0.008699 0.023234 0.000000 0.000000 0.000000
# 4 0.000000 0.000000 0.000000 0.048721 0.000000 0.000000
# 5 0.000000 0.000000 0.000000 0.000000 0.088147 0.000000
# 6 0.000000 0.000000 0.000000 0.000000 0.000000 0.082248
#
#
# Mechanical properties :
#
#
# Convention : Reuss Voigt Hill
#
# Bulk Modulus (GPa) = 45.24476 48.90742 47.07609
# Shear Modulus (GPa) = 13.79958 14.74370 14.27164
#
# Velocity S-wave (km/s) = 3.35589 3.46879 3.41281
# Velocity P-wave (km/s) = 7.20700 7.48046 7.34500
#
# Compressibility (1/GPa) = 0.02210201
#
# Stress axis : x y z
#
# Youngs Moduli (GPa) = 30.97205 42.63832 43.03980
#
# Poissons Ratio (x) = 0.58203 0.26199
# Poissons Ratio (y) = 0.42278 0.37440
# Poissons Ratio (z) = 0.18853 0.37090
#
# Static dielectric constant tensor:
#      x y z
#    x 2.569550 0.000000 0.000000 
#    y 0.000000 2.522590 0.000000 
#    z 0.000000 0.000000 2.705430 
# 
# 
# High freq. dielectric constant tensor:
#      x y z
#    x 1.427300 0.000000 0.000000 
#    y 0.000000 1.442760 0.000000 
#    z 0.000000 0.000000 1.482730 
# 
# From -- ./inp_files/14624.got.cif
#   From: 2010.03.12/outbox.cif.g09.slc.cpg/sg63_8_cif.got.tgz:14624.got - 2010.04.10 19:34:48.
