data_PCOD8255476
_publ_section_title
;
Structure prediction by ZEFSAII (Michael W. Deem and Ramdas Pophale) SiO2 
 PCOD8255476
Probable space group: C M C M
;
_chemical_formula_sum "Si O2"
_cell_formula_units_Z 96
_cell_length_a 9.093957
_cell_length_b 30.352099
_cell_length_c 20.389198
_cell_angle_alpha 90.000000
_cell_angle_beta 90.000000
_cell_angle_gamma 90.000000
_cell_volume 5627.840361
_symmetry_space_group_name_H-M "C M C M"
_symmetry_group_IT_number 63
_symmetry_cell_setting 'orthorhombic'
loop_
_space_group_symop_operation_xyz
x,y,z
-x,-y,1/2+z
x,-y,-z
-x,y,1/2-z
-x,-y,-z
x,y,1/2-z
-x,y,z
x,-y,1/2+z
1/2+x,1/2+y,z
1/2-x,1/2-y,1/2+z
1/2+x,1/2-y,-z
1/2-x,1/2+y,1/2-z
1/2-x,1/2-y,-z
1/2+x,1/2+y,1/2-z
1/2-x,1/2+y,z
1/2+x,1/2-y,1/2+z
loop_
_atom_site_type_symbol
_atom_site_label
_atom_site_fract_x
_atom_site_fract_y
_atom_site_fract_z
Si Si1 0.671768 0.951481 0.324717
Si Si2 0.162893 0.780743 0.412774
Si Si3 0.325611 0.622744 0.897966
Si Si4 0.164024 0.801045 0.933817
Si Si5 0.672313 0.018469 0.432525
Si Si6 0.672817 0.885175 0.535837
O O1 0.701238 0.965330 0.250000
O O2 0.500000 0.941762 0.337210
O O3 0.763841 0.907497 0.340045
O O4 0.732727 0.991281 0.370161
O O5 0.211988 0.826490 0.378621
O O6 0.163734 0.789575 0.490051
O O7 0.269889 0.740494 0.393815
O O8 0.000000 0.767076 0.389854
O O9 0.500000 0.616958 0.907319
O O10 0.246459 0.609284 0.965120
O O11 0.260648 0.844799 0.922416
O O12 0.000000 0.809764 0.907652
O O13 0.500000 0.010357 0.436383
O O14 0.706736 0.070231 0.423736
O O15 0.744080 0.000000 0.500000
O O16 0.500000 0.877274 0.525721
#
# Coordination Sequence:
#
# PCOD8255476 Si02
#       6
#    16  16  16  16  16  16
#     4  10  20  34  51  70  93 124 162 199 236 286
#     4   8  15  26  39  58  87 123 154 181 223 278
#     4  10  19  30  45  67  95 123 155 195 238 283
#     4   9  16  25  38  62  94 120 150 192 234 276
#     4   9  16  29  48  70  93 121 160 201 238 280
#     4  10  17  27  46  66  92 126 159 194 238 287
#
# _framework density 17.058052
#
# number of rings (size 3 to 8) (size 9 to 14) (size 15 to 20)
#    0.000    2.667    1.667    2.500    0.000    5.000 
#    0.000    2.500    0.000    0.000    0.000    1.167 
#    0.000    6.667    0.000    0.000    0.000    0.000 
#
# Total GULP energy -594976.359180 kJ/mol
# GULP energy per Si atom -12395.340816 kJ/mol
# Density = 1.701923 g / cm^3
# Si number density = 17.058052 Si / 1000 Ang^3
#
#
#
# Elastic Constant Matrix: (Units=GPa)
#
#
# Indices 1 2 3 4 5 6 
#
# 1 88.7159 61.6523 29.1409 0.0000 0.0000 0.0000
# 2 61.6523 147.3812 55.2071 0.0000 0.0000 0.0000
# 3 29.1409 55.2071 61.4546 0.0000 0.0000 0.0000
# 4 0.0000 0.0000 0.0000 16.2790 0.0000 0.0000
# 5 0.0000 0.0000 0.0000 0.0000 10.4716 0.0000
# 6 0.0000 0.0000 0.0000 0.0000 0.0000 27.9848
#
#
#
# Elastic Compliance Matrix: (Units=1/GPa)
#
#
# Indices 1 2 3 4 5 6 
#
# 1 0.016122 -0.005848 -0.002391 0.000000 0.000000 0.000000
# 2 -0.005848 0.012348 -0.008319 0.000000 0.000000 0.000000
# 3 -0.002391 -0.008319 0.024880 0.000000 0.000000 0.000000
# 4 0.000000 0.000000 0.000000 0.061429 0.000000 0.000000
# 5 0.000000 0.000000 0.000000 0.000000 0.095497 0.000000
# 6 0.000000 0.000000 0.000000 0.000000 0.000000 0.035734
#
#
# Mechanical properties :
#
#
# Convention : Reuss Voigt Hill
#
# Bulk Modulus (GPa) = 49.42702 65.50581 57.46641
# Shear Modulus (GPa) = 17.49049 21.05048 19.27048
#
# Velocity S-wave (km/s) = 3.20558 3.51671 3.36475
# Velocity P-wave (km/s) = 6.53756 7.41450 6.98979
#
# Compressibility (1/GPa) = 0.02023185
#
# Stress axis : x y z
#
# Youngs Moduli (GPa) = 62.02887 80.98483 40.19361
#
# Poissons Ratio (x) = 0.47363 0.09609
# Poissons Ratio (y) = 0.36277 0.33439
# Poissons Ratio (z) = 0.14830 0.67375
#
# Static dielectric constant tensor:
#      x y z
#    x 3.195530 0.000000 0.000000 
#    y 0.000000 3.513090 0.000000 
#    z 0.000000 0.000000 2.734790 
# 
# 
# High freq. dielectric constant tensor:
#      x y z
#    x 1.652410 0.000000 0.000000 
#    y 0.000000 1.674880 0.000000 
#    z 0.000000 0.000000 1.591660 
# 
# From -- ./inp_files/60204.got.cif
#   From: 2010.03.12/outbox.cif.g09.slc.cpg/sg63_31_cif.got.tgz:60204.got - 2010.04.10 19:34:48.
