data_PCOD8255645
_publ_section_title
;
Structure prediction by ZEFSAII (Michael W. Deem and Ramdas Pophale) SiO2 
 PCOD8255645
Probable space group: C M C M
;
_chemical_formula_sum "Si O2"
_cell_formula_units_Z 80
_cell_length_a 9.296701
_cell_length_b 20.664565
_cell_length_c 24.438395
_cell_angle_alpha 90.000000
_cell_angle_beta 90.000000
_cell_angle_gamma 90.000000
_cell_volume 4694.915834
_symmetry_space_group_name_H-M "C M C M"
_symmetry_group_IT_number 63
_symmetry_cell_setting 'orthorhombic'
loop_
_space_group_symop_operation_xyz
x,y,z
-x,-y,1/2+z
x,-y,-z
-x,y,1/2-z
-x,-y,-z
x,y,1/2-z
-x,y,z
x,-y,1/2+z
1/2+x,1/2+y,z
1/2-x,1/2-y,1/2+z
1/2+x,1/2-y,-z
1/2-x,1/2+y,1/2-z
1/2-x,1/2-y,-z
1/2+x,1/2+y,1/2-z
1/2-x,1/2+y,z
1/2+x,1/2-y,1/2+z
loop_
_atom_site_type_symbol
_atom_site_label
_atom_site_fract_x
_atom_site_fract_y
_atom_site_fract_z
Si Si1 0.834278 0.241490 0.145627
Si Si2 0.830197 0.935904 0.030142
Si Si3 0.163440 0.608671 0.868822
Si Si4 0.835931 0.621049 0.750000
Si Si5 0.333101 0.693410 0.029373
Si Si6 0.829365 0.748129 0.250000
O O1 0.794907 0.315449 0.129924
O O2 0.802192 0.195414 0.094126
O O3 0.735339 0.215309 0.195214
O O4 0.000000 0.237489 0.163879
O O5 0.763633 0.931663 0.090629
O O6 0.000000 0.938338 0.037600
O O7 0.780008 0.875323 0.993470
O O8 0.773084 0.000000 0.000000
O O9 0.185482 0.580985 0.806480
O O10 0.000000 0.599243 0.888321
O O11 0.719850 0.677747 0.750000
O O12 0.000000 0.649906 0.750000
O O13 0.500000 0.704507 0.016932
O O14 0.250000 0.750000 0.000000
O O15 0.000000 0.741725 0.250000
#
# Coordination Sequence:
#
# PCOD8255645 Si02
#       6
#    16  16  16   8  16   8
#     4   9  17  30  47  68  96 129 162 198 243 293
#     4  10  21  34  48  71 104 134 160 200 251 295
#     4   9  16  29  49  71  95 126 164 201 237 287
#     4   8  16  30  46  67  98 127 157 199 245 291
#     4  10  19  32  51  72  97 129 164 201 242 289
#     4  10  18  26  42  71 100 125 155 199 249 291
#
# _framework density 17.039708999999998
#
# number of rings (size 3 to 8) (size 9 to 14) (size 15 to 20)
#    0.000    2.600    2.000    2.100    0.000    4.400 
#    0.000    0.000    0.000    1.200    0.000    5.600 
#    0.000    0.000    0.000    0.000    0.000    0.000 
#
# Total GULP energy -495816.978448 kJ/mol
# GULP energy per Si atom -12395.424461 kJ/mol
# Density = 1.700093 g / cm^3
# Si number density = 17.039709 Si / 1000 Ang^3
#
#
#
# Elastic Constant Matrix: (Units=GPa)
#
#
# Indices 1 2 3 4 5 6 
#
# 1 61.7778 30.3727 55.3190 0.0000 0.0000 0.0000
# 2 30.3727 80.0830 57.3662 0.0000 0.0000 0.0000
# 3 55.3190 57.3662 155.5410 0.0000 0.0000 0.0000
# 4 0.0000 0.0000 0.0000 19.8387 0.0000 0.0000
# 5 0.0000 0.0000 0.0000 0.0000 32.9742 0.0000
# 6 0.0000 0.0000 0.0000 0.0000 0.0000 14.8092
#
#
#
# Elastic Compliance Matrix: (Units=1/GPa)
#
#
# Indices 1 2 3 4 5 6 
#
# 1 0.024742 -0.004186 -0.007256 0.000000 0.000000 0.000000
# 2 -0.004186 0.017679 -0.005031 0.000000 0.000000 0.000000
# 3 -0.007256 -0.005031 0.010865 0.000000 0.000000 0.000000
# 4 0.000000 0.000000 0.000000 0.050406 0.000000 0.000000
# 5 0.000000 0.000000 0.000000 0.000000 0.030327 0.000000
# 6 0.000000 0.000000 0.000000 0.000000 0.000000 0.067525
#
#
# Mechanical properties :
#
#
# Convention : Reuss Voigt Hill
#
# Bulk Modulus (GPa) = 49.16497 64.83528 57.00013
# Shear Modulus (GPa) = 20.72347 23.81403 22.26875
#
# Velocity S-wave (km/s) = 3.49117 3.74245 3.61899
# Velocity P-wave (km/s) = 6.72063 7.53702 7.14050
#
# Compressibility (1/GPa) = 0.02033968
#
# Stress axis : x y z
#
# Youngs Moduli (GPa) = 40.41645 56.56449 92.03544
#
# Poissons Ratio (x) = 0.23680 0.66779
# Poissons Ratio (y) = 0.16920 0.46307
# Poissons Ratio (z) = 0.29325 0.28460
#
# Static dielectric constant tensor:
#      x y z
#    x 3.070800 0.000000 0.000000 
#    y 0.000000 2.876770 0.000000 
#    z 0.000000 0.000000 3.693480 
# 
# 
# High freq. dielectric constant tensor:
#      x y z
#    x 1.651660 0.000000 0.000000 
#    y 0.000000 1.600760 0.000000 
#    z 0.000000 0.000000 1.679100 
# 
# From -- ./inp_files/59547.got.cif
#   From: 2010.03.12/outbox.cif.g09.slc.cpg/sg63_30_cif.got.tgz:59547.got - 2010.04.10 19:34:48.
