data_PCOD8255886
_publ_section_title
;
Structure prediction by ZEFSAII (Michael W. Deem and Ramdas Pophale) SiO2 
 PCOD8255886
Probable space group: C M C M
;
_chemical_formula_sum "Si O2"
_cell_formula_units_Z 96
_cell_length_a 9.715697
_cell_length_b 24.813546
_cell_length_c 21.811011
_cell_angle_alpha 90.000000
_cell_angle_beta 90.000000
_cell_angle_gamma 90.000000
_cell_volume 5258.218040
_symmetry_space_group_name_H-M "C M C M"
_symmetry_group_IT_number 63
_symmetry_cell_setting 'orthorhombic'
loop_
_space_group_symop_operation_xyz
x,y,z
-x,-y,1/2+z
x,-y,-z
-x,y,1/2-z
-x,-y,-z
x,y,1/2-z
-x,y,z
x,-y,1/2+z
1/2+x,1/2+y,z
1/2-x,1/2-y,1/2+z
1/2+x,1/2-y,-z
1/2-x,1/2+y,1/2-z
1/2-x,1/2-y,-z
1/2+x,1/2+y,1/2-z
1/2-x,1/2+y,z
1/2+x,1/2-y,1/2+z
loop_
_atom_site_type_symbol
_atom_site_label
_atom_site_fract_x
_atom_site_fract_y
_atom_site_fract_z
Si Si1 0.658250 0.816615 0.343657
Si Si2 0.655727 0.783576 0.681980
Si Si3 0.153836 0.298722 0.016624
Si Si4 0.340738 0.127376 0.091894
Si Si5 0.662941 0.936181 0.182227
Si Si6 0.664750 0.009597 0.070255
O O1 0.500000 0.805480 0.324429
O O2 0.753223 0.769979 0.316928
O O3 0.676452 0.819367 0.415812
O O4 0.710831 0.873988 0.318866
O O5 0.651440 0.807620 0.750000
O O6 0.500000 0.769457 0.659323
O O7 0.725626 0.829834 0.639628
O O8 0.000000 0.277482 0.005080
O O9 0.250000 0.250000 0.000000
O O10 0.185349 0.350896 0.976133
O O11 0.500000 0.123187 0.109328
O O12 0.277661 0.067524 0.093558
O O13 0.707872 0.959484 0.250000
O O14 0.500000 0.938697 0.176331
O O15 0.722466 0.968219 0.122519
O O16 0.500000 0.008622 0.068399
O O17 0.718673 0.000000 0.000000
#
# Coordination Sequence:
#
# PCOD8255886 Si02
#       6
#    16  16  16  16  16  16
#     4  10  19  31  49  72  98 127 160 200 242 287
#     4  10  20  32  46  67  97 131 162 193 235 287
#     4  10  18  29  47  70  96 125 156 192 237 286
#     4   9  17  29  44  65  95 125 156 195 237 284
#     4   9  17  28  43  66  95 125 159 201 246 288
#     4   9  16  27  44  65  91 124 159 197 242 290
#
# _framework density 18.257135999999999
#
# number of rings (size 3 to 8) (size 9 to 14) (size 15 to 20)
#    0.000    2.500    1.667    1.500    0.000    5.667 
#    0.000    3.333    0.000    0.000    0.000    2.333 
#    0.000    6.000    0.000    0.000    0.000    0.000 
#
# Total GULP energy -594730.574706 kJ/mol
# GULP energy per Si atom -12390.220306 kJ/mol
# Density = 1.821558 g / cm^3
# Si number density = 18.257136 Si / 1000 Ang^3
#
#
#
# Elastic Constant Matrix: (Units=GPa)
#
#
# Indices 1 2 3 4 5 6 
#
# 1 28.5213 24.0403 16.6604 0.0000 0.0000 0.0000
# 2 24.0403 121.6127 57.2393 0.0000 0.0000 0.0000
# 3 16.6604 57.2393 138.5073 0.0000 0.0000 0.0000
# 4 0.0000 0.0000 0.0000 23.3448 0.0000 0.0000
# 5 0.0000 0.0000 0.0000 0.0000 13.2940 0.0000
# 6 0.0000 0.0000 0.0000 0.0000 0.0000 18.1445
#
#
#
# Elastic Compliance Matrix: (Units=1/GPa)
#
#
# Indices 1 2 3 4 5 6 
#
# 1 0.042530 -0.007448 -0.002038 0.000000 0.000000 0.000000
# 2 -0.007448 0.011513 -0.003862 0.000000 0.000000 0.000000
# 3 -0.002038 -0.003862 0.009061 0.000000 0.000000 0.000000
# 4 0.000000 0.000000 0.000000 0.042836 0.000000 0.000000
# 5 0.000000 0.000000 0.000000 0.000000 0.075222 0.000000
# 6 0.000000 0.000000 0.000000 0.000000 0.000000 0.055113
#
#
# Mechanical properties :
#
#
# Convention : Reuss Voigt Hill
#
# Bulk Modulus (GPa) = 27.46647 53.83570 40.65108
# Shear Modulus (GPa) = 18.17481 23.67008 20.92245
#
# Velocity S-wave (km/s) = 3.15856 3.60458 3.38892
# Velocity P-wave (km/s) = 5.32719 6.84657 6.13410
#
# Compressibility (1/GPa) = 0.03640803
#
# Stress axis : x y z
#
# Youngs Moduli (GPa) = 23.51294 86.85955 110.36450
#
# Poissons Ratio (x) = 0.64695 0.22489
# Poissons Ratio (y) = 0.17513 0.42621
# Poissons Ratio (z) = 0.04791 0.33544
#
# Static dielectric constant tensor:
#      x y z
#    x 2.837670 0.000000 0.000000 
#    y 0.000000 3.579900 0.000000 
#    z 0.000000 0.000000 3.754130 
# 
# 
# High freq. dielectric constant tensor:
#      x y z
#    x 1.633890 0.000000 0.000000 
#    y 0.000000 1.708370 0.000000 
#    z 0.000000 0.000000 1.733850 
# 
# From -- ./inp_files/51419.got.cif
#   From: 2010.03.12/outbox.cif.g09.slc.cpg/sg63_26_cif.got.tgz:51419.got - 2010.04.10 19:34:48.
