data_PCOD8255792
_publ_section_title
;
Structure prediction by ZEFSAII (Michael W. Deem and Ramdas Pophale) SiO2 
 PCOD8255792
Probable space group: C M C M
;
_chemical_formula_sum "Si O2"
_cell_formula_units_Z 96
_cell_length_a 9.137688
_cell_length_b 22.849681
_cell_length_c 27.137528
_cell_angle_alpha 90.000000
_cell_angle_beta 90.000000
_cell_angle_gamma 90.000000
_cell_volume 5666.132828
_symmetry_space_group_name_H-M "C M C M"
_symmetry_group_IT_number 63
_symmetry_cell_setting 'orthorhombic'
loop_
_space_group_symop_operation_xyz
x,y,z
-x,-y,1/2+z
x,-y,-z
-x,y,1/2-z
-x,-y,-z
x,y,1/2-z
-x,y,z
x,-y,1/2+z
1/2+x,1/2+y,z
1/2-x,1/2-y,1/2+z
1/2+x,1/2-y,-z
1/2-x,1/2+y,1/2-z
1/2-x,1/2-y,-z
1/2+x,1/2+y,1/2-z
1/2-x,1/2+y,z
1/2+x,1/2-y,1/2+z
loop_
_atom_site_type_symbol
_atom_site_label
_atom_site_fract_x
_atom_site_fract_y
_atom_site_fract_z
Si Si1 0.333174 0.907681 0.972924
Si Si2 0.160571 0.874935 0.250000
Si Si3 0.831258 0.262647 0.250000
Si Si4 0.165790 0.528171 0.574342
Si Si5 0.327266 0.288754 0.958405
Si Si6 0.173531 0.728418 0.643008
Si Si7 0.664846 0.606342 0.643720
O O1 0.500000 0.887757 0.962321
O O2 0.222100 0.855483 0.962894
O O3 0.287897 0.962164 0.938706
O O4 0.318170 0.927778 0.028926
O O5 0.297299 0.831299 0.250000
O O6 0.170847 0.913575 0.299108
O O7 0.000000 0.842146 0.250000
O O8 0.770762 0.241566 0.195624
O O9 0.000000 0.248394 0.250000
O O10 0.271339 0.550322 0.616612
O O11 0.000000 0.528731 0.593461
O O12 0.500000 0.283792 0.966754
O O13 0.282979 0.268530 0.903285
O O14 0.250000 0.250000 0.000000
O O15 0.246060 0.665557 0.634023
O O16 0.000000 0.718354 0.645727
O O17 0.500000 0.617722 0.625543
#
# Coordination Sequence:
#
# PCOD8255792 Si02
#       7
#    16   8   8  16  16  16  16
#     4   9  19  35  51  67  90 121 154 188 229 274
#     4   8  16  28  40  63  98 123 143 182 232 272
#     4   8  14  28  48  65  84 117 159 194 224 264
#     4   9  18  33  51  68  89 119 153 189 229 273
#     4  11  22  33  47  70  99 127 155 189 230 278
#     4   9  18  31  47  68  94 123 155 191 230 273
#     4  10  18  28  46  71  96 122 152 187 228 271
#
# _framework density 16.942772999999999
#
# number of rings (size 3 to 8) (size 9 to 14) (size 15 to 20)
#    0.000    2.667    0.000    3.000    0.000    7.333 
#    0.000    1.667    0.000    1.000    0.000    4.667 
#    0.000    0.000    0.000    0.000    0.000    0.000 
#
# Total GULP energy -594649.324926 kJ/mol
# GULP energy per Si atom -12388.527603 kJ/mol
# Density = 1.690421 g / cm^3
# Si number density = 16.942773 Si / 1000 Ang^3
#
#
#
# Elastic Constant Matrix: (Units=GPa)
#
#
# Indices 1 2 3 4 5 6 
#
# 1 56.2316 36.6647 43.5820 0.0000 0.0000 0.0000
# 2 36.6647 83.1895 53.2592 0.0000 0.0000 0.0000
# 3 43.5820 53.2592 119.7770 0.0000 0.0000 0.0000
# 4 0.0000 0.0000 0.0000 24.1719 0.0000 0.0000
# 5 0.0000 0.0000 0.0000 0.0000 24.6493 0.0000
# 6 0.0000 0.0000 0.0000 0.0000 0.0000 28.3337
#
#
#
# Elastic Compliance Matrix: (Units=1/GPa)
#
#
# Indices 1 2 3 4 5 6 
#
# 1 0.028286 -0.008217 -0.006639 0.000000 0.000000 0.000000
# 2 -0.008217 0.019191 -0.005544 0.000000 0.000000 0.000000
# 3 -0.006639 -0.005544 0.013229 0.000000 0.000000 0.000000
# 4 0.000000 0.000000 0.000000 0.041370 0.000000 0.000000
# 5 0.000000 0.000000 0.000000 0.000000 0.040569 0.000000
# 6 0.000000 0.000000 0.000000 0.000000 0.000000 0.035294
#
#
# Mechanical properties :
#
#
# Convention : Reuss Voigt Hill
#
# Bulk Modulus (GPa) = 50.22875 58.46775 54.34825
# Shear Modulus (GPa) = 22.18525 23.81047 22.99786
#
# Velocity S-wave (km/s) = 3.62252 3.75286 3.68827
# Velocity P-wave (km/s) = 6.87076 7.30497 7.09119
#
# Compressibility (1/GPa) = 0.01990892
#
# Stress axis : x y z
#
# Youngs Moduli (GPa) = 35.35261 52.10678 75.58886
#
# Poissons Ratio (x) = 0.42815 0.50181
# Poissons Ratio (y) = 0.29048 0.41905
# Poissons Ratio (z) = 0.23470 0.28887
#
# Static dielectric constant tensor:
#      x y z
#    x 3.211490 0.000000 0.000000 
#    y 0.000000 2.866340 0.000000 
#    z 0.000000 0.000000 3.600520 
# 
# 
# High freq. dielectric constant tensor:
#      x y z
#    x 1.656720 0.000000 0.000000 
#    y 0.000000 1.616180 0.000000 
#    z 0.000000 0.000000 1.667800 
# 
# From -- ./inp_files/67291.got.cif
#   From: 2010.03.12/outbox.cif.g09.slc.cpg/sg63_34_cif.got.tgz:67291.got - 2010.04.10 19:34:48.
