data_PCOD8255289
_publ_section_title
;
Structure prediction by ZEFSAII (Michael W. Deem and Ramdas Pophale) SiO2 
 PCOD8255289
Probable space group: P N M A
;
_chemical_formula_sum "Si O2"
_cell_formula_units_Z 40
_cell_length_a 15.723668
_cell_length_b 9.235219
_cell_length_c 15.887411
_cell_angle_alpha 90.000000
_cell_angle_beta 90.000000
_cell_angle_gamma 90.000000
_cell_volume 2307.035060
_symmetry_space_group_name_H-M "P N M A"
_symmetry_group_IT_number 62
_symmetry_cell_setting 'orthorhombic'
loop_
_space_group_symop_operation_xyz
x,y,z
1/2-x,-y,1/2+z
1/2+x,1/2-y,1/2-z
-x,1/2+y,-z
-x,-y,-z
1/2+x,y,1/2-z
1/2-x,1/2+y,1/2+z
x,1/2-y,z
loop_
_atom_site_type_symbol
_atom_site_label
_atom_site_fract_x
_atom_site_fract_y
_atom_site_fract_z
Si Si1 0.442140 0.417766 0.808326
Si Si2 0.313091 0.080772 0.948345
Si Si3 0.955603 0.421163 0.877991
Si Si4 0.931166 0.918763 0.444850
Si Si5 0.122434 0.417248 0.974664
O O1 0.422619 0.250000 0.797102
O O2 0.366830 0.480481 0.868271
O O3 0.441586 0.488022 0.715403
O O4 0.536589 0.439803 0.848677
O O5 0.332618 0.250000 0.962383
O O6 0.213766 0.050734 0.932758
O O7 0.341321 0.995263 0.033649
O O8 0.942304 0.250000 0.879567
O O9 0.050875 0.463251 0.907409
O O10 0.886741 0.491853 0.939772
O O11 0.926373 0.750000 0.468415
O O12 0.000000 0.000000 0.500000
O O13 0.113278 0.250000 0.999534
#
# Coordination Sequence:
#
# PCOD8255289 Si02
#       5
#     8   8   8   8   8
#     4   8  15  29  48  71  94 118 154 195 233 274
#     4   9  17  31  48  68  97 128 156 192 239 283
#     4   9  17  32  51  69  91 123 161 197 232 276
#     4   9  16  28  47  71  96 124 154 189 234 280
#     4   9  18  32  49  67  93 128 158 190 238 285
#
# _framework density 17.338270000000001
#
# number of rings (size 3 to 8) (size 9 to 14) (size 15 to 20)
#    0.000    3.200    0.000    1.800    0.000    0.800 
#    3.600    5.000    0.000    0.000    0.000    0.000 
#    0.000    0.000    0.000    0.000    0.000    0.000 
#
# Total GULP energy -495639.389889 kJ/mol
# GULP energy per Si atom -12390.984747 kJ/mol
# Density = 1.729881 g / cm^3
# Si number density = 17.338270 Si / 1000 Ang^3
#
#
#
# Elastic Constant Matrix: (Units=GPa)
#
#
# Indices 1 2 3 4 5 6 
#
# 1 99.5863 27.0509 52.8198 0.0000 0.0000 0.0000
# 2 27.0509 43.4186 31.2076 0.0000 0.0000 0.0000
# 3 52.8198 31.2076 130.5799 0.0000 0.0000 0.0000
# 4 0.0000 0.0000 0.0000 21.3580 0.0000 0.0000
# 5 0.0000 0.0000 0.0000 0.0000 17.1503 0.0000
# 6 0.0000 0.0000 0.0000 0.0000 0.0000 25.5376
#
#
#
# Elastic Compliance Matrix: (Units=1/GPa)
#
#
# Indices 1 2 3 4 5 6 
#
# 1 0.013806 -0.005539 -0.004261 0.000000 0.000000 0.000000
# 2 -0.005539 0.030031 -0.004937 0.000000 0.000000 0.000000
# 3 -0.004261 -0.004937 0.010561 0.000000 0.000000 0.000000
# 4 0.000000 0.000000 0.000000 0.046821 0.000000 0.000000
# 5 0.000000 0.000000 0.000000 0.000000 0.058308 0.000000
# 6 0.000000 0.000000 0.000000 0.000000 0.000000 0.039158
#
#
# Mechanical properties :
#
#
# Convention : Reuss Voigt Hill
#
# Bulk Modulus (GPa) = 40.11956 55.08236 47.60096
# Shear Modulus (GPa) = 21.14465 23.64294 22.39380
#
# Velocity S-wave (km/s) = 3.49597 3.69674 3.59776
# Velocity P-wave (km/s) = 6.28374 7.07527 6.69121
#
# Compressibility (1/GPa) = 0.02492549
#
# Stress axis : x y z
#
# Youngs Moduli (GPa) = 72.43234 33.29916 94.68406
#
# Poissons Ratio (x) = 0.18444 0.40343
# Poissons Ratio (y) = 0.40120 0.46742
# Poissons Ratio (z) = 0.30862 0.16438
#
# Static dielectric constant tensor:
#      x y z
#    x 3.560360 0.000000 0.000000 
#    y 0.000000 3.194350 0.000000 
#    z 0.000000 0.000000 3.517030 
# 
# 
# High freq. dielectric constant tensor:
#      x y z
#    x 1.663390 0.000000 0.000000 
#    y 0.000000 1.650290 0.000000 
#    z 0.000000 0.000000 1.658650 
# 
# From -- ./inp_files/18608.got.cif
#   From: 2010.03.12/outbox.cif.g09.slc.cpg/sg62_10_cif.got.tgz:18608.got - 2010.04.10 19:12:36.
