data_PCOD8255285
_publ_section_title
;
Structure prediction by ZEFSAII (Michael W. Deem and Ramdas Pophale) SiO2 
 PCOD8255285
Probable space group: P N M A
;
_chemical_formula_sum "Si O2"
_cell_formula_units_Z 40
_cell_length_a 9.409250
_cell_length_b 9.258355
_cell_length_c 26.099665
_cell_angle_alpha 90.000000
_cell_angle_beta 90.000000
_cell_angle_gamma 90.000000
_cell_volume 2273.650831
_symmetry_space_group_name_H-M "P N M A"
_symmetry_group_IT_number 62
_symmetry_cell_setting 'orthorhombic'
loop_
_space_group_symop_operation_xyz
x,y,z
1/2-x,-y,1/2+z
1/2+x,1/2-y,1/2-z
-x,1/2+y,-z
-x,-y,-z
1/2+x,y,1/2-z
1/2-x,1/2+y,1/2+z
x,1/2-y,z
loop_
_atom_site_type_symbol
_atom_site_label
_atom_site_fract_x
_atom_site_fract_y
_atom_site_fract_z
Si Si1 0.350798 0.420513 0.998842
Si Si2 0.791181 0.419706 0.696067
Si Si3 0.119408 0.417564 0.706181
Si Si4 0.694117 0.414652 0.096616
Si Si5 0.642585 0.909748 0.889795
O O1 0.371240 0.250000 0.987148
O O2 0.280822 0.443254 0.055466
O O3 0.500000 0.500000 0.000000
O O4 0.256998 0.496476 0.954293
O O5 0.770655 0.250000 0.685400
O O6 0.695813 0.476542 0.743007
O O7 0.739142 0.507338 0.646239
O O8 0.953820 0.456166 0.709843
O O9 0.148395 0.250000 0.701241
O O10 0.191538 0.484254 0.655303
O O11 0.749409 0.250000 0.093081
O O12 0.525178 0.421515 0.100980
O O13 0.683302 0.750000 0.871309
#
# Coordination Sequence:
#
# PCOD8255285 Si02
#       5
#     8   8   8   8   8
#     4   9  15  23  36  56  82 110 137 169 209 252
#     4   9  17  29  43  61  84 111 140 171 205 245
#     4   9  17  28  43  61  83 110 140 170 203 242
#     4   9  16  25  38  58  82 109 138 170 208 250
#     4   8  15  25  37  56  82 108 135 166 204 245
#
# _framework density 17.592852000000001
#
# number of rings (size 3 to 8) (size 9 to 14) (size 15 to 20)
#    0.000    3.200    0.000    2.400    0.000    6.400 
#    0.000    0.000    0.000    0.000    0.000    1.400 
#    0.000    0.000    0.000    0.000    0.000    0.000 
#
# Total GULP energy -495659.287122 kJ/mol
# GULP energy per Si atom -12391.482178 kJ/mol
# Density = 1.755281 g / cm^3
# Si number density = 17.592852 Si / 1000 Ang^3
#
#
#
# Elastic Constant Matrix: (Units=GPa)
#
#
# Indices 1 2 3 4 5 6 
#
# 1 9.6486 5.9956 0.0220 0.0000 0.0000 0.0000
# 2 5.9956 72.2396 27.3089 0.0000 0.0000 0.0000
# 3 0.0220 27.3089 57.2982 0.0000 0.0000 0.0000
# 4 0.0000 0.0000 0.0000 39.6508 0.0000 0.0000
# 5 0.0000 0.0000 0.0000 0.0000 20.5028 0.0000
# 6 0.0000 0.0000 0.0000 0.0000 0.0000 8.6642
#
#
#
# Elastic Compliance Matrix: (Units=1/GPa)
#
#
# Indices 1 2 3 4 5 6 
#
# 1 0.110574 -0.011174 0.005283 0.000000 0.000000 0.000000
# 2 -0.011174 0.018014 -0.008582 0.000000 0.000000 0.000000
# 3 0.005283 -0.008582 0.021541 0.000000 0.000000 0.000000
# 4 0.000000 0.000000 0.000000 0.025220 0.000000 0.000000
# 5 0.000000 0.000000 0.000000 0.000000 0.048774 0.000000
# 6 0.000000 0.000000 0.000000 0.000000 0.000000 0.115418
#
#
# Mechanical properties :
#
#
# Convention : Reuss Voigt Hill
#
# Bulk Modulus (GPa) = 8.25191 22.87104 15.56148
# Shear Modulus (GPa) = 12.22850 20.82089 16.52469
#
# Velocity S-wave (km/s) = 2.63930 3.44391 3.06810
# Velocity P-wave (km/s) = 3.74013 5.37052 4.62769
#
# Compressibility (1/GPa) = 0.12118399
#
# Stress axis : x y z
#
# Youngs Moduli (GPa) = 9.04370 55.51128 46.42404
#
# Poissons Ratio (x) = 0.62031 -0.24528
# Poissons Ratio (y) = 0.10106 0.39839
# Poissons Ratio (z) = -0.04778 0.47637
#
# Static dielectric constant tensor:
#      x y z
#    x 2.615940 0.000000 0.000000 
#    y 0.000000 3.353870 0.000000 
#    z 0.000000 0.000000 4.017000 
# 
# 
# High freq. dielectric constant tensor:
#      x y z
#    x 1.595420 0.000000 0.000000 
#    y 0.000000 1.685530 0.000000 
#    z 0.000000 0.000000 1.705260 
# 
# From -- ./inp_files/26440.got.cif
#   From: 2010.03.12/outbox.cif.g09.slc.cpg/sg62_14_cif.got.tgz:26440.got - 2010.04.10 19:12:36.
