data_PCOD8255969
_publ_section_title
;
Structure prediction by ZEFSAII (Michael W. Deem and Ramdas Pophale) SiO2 
 PCOD8255969
Probable space group: C M C M
;
_chemical_formula_sum "Si O2"
_cell_formula_units_Z 88
_cell_length_a 20.724032
_cell_length_b 25.089584
_cell_length_c 8.726690
_cell_angle_alpha 90.000000
_cell_angle_beta 90.000000
_cell_angle_gamma 90.000000
_cell_volume 4537.506534
_symmetry_space_group_name_H-M "C M C M"
_symmetry_group_IT_number 63
_symmetry_cell_setting 'orthorhombic'
loop_
_space_group_symop_operation_xyz
x,y,z
-x,-y,1/2+z
x,-y,-z
-x,y,1/2-z
-x,-y,-z
x,y,1/2-z
-x,y,z
x,-y,1/2+z
1/2+x,1/2+y,z
1/2-x,1/2-y,1/2+z
1/2+x,1/2-y,-z
1/2-x,1/2+y,1/2-z
1/2-x,1/2-y,-z
1/2+x,1/2+y,1/2-z
1/2-x,1/2+y,z
1/2+x,1/2-y,1/2+z
loop_
_atom_site_type_symbol
_atom_site_label
_atom_site_fract_x
_atom_site_fract_y
_atom_site_fract_z
Si Si1 0.500000 0.940873 0.068242
Si Si2 0.627697 0.941898 0.930327
Si Si3 0.199068 0.212541 0.917921
Si Si4 0.621150 0.554717 0.067945
Si Si5 0.752048 0.093837 0.578405
Si Si6 0.927571 0.161599 0.930293
O O1 0.500000 0.941455 0.250000
O O2 0.564706 0.913055 0.004141
O O3 0.500000 0.000000 0.000000
O O4 0.618720 0.945829 0.750000
O O5 0.688442 0.906479 0.975079
O O6 0.638657 0.000000 0.000000
O O7 0.190910 0.237567 0.750000
O O8 0.228420 0.154492 0.910966
O O9 0.126445 0.204664 0.990792
O O10 0.250000 0.250000 0.000000
O O11 0.621609 0.552234 0.250000
O O12 0.590944 0.500000 0.000000
O O13 0.693656 0.558964 0.004075
O O14 0.578734 0.605005 0.014779
O O15 0.739978 0.070877 0.750000
O O16 0.914765 0.151562 0.750000
O O17 0.000000 0.183852 0.960174
#
# Coordination Sequence:
#
# PCOD8255969 Si02
#       6
#     8  16  16  16  16  16
#     4  10  18  30  46  66  94 132 172 210 252 306
#     4  11  20  31  48  72 101 135 174 215 260 312
#     4   9  19  35  58  82 104 133 171 218 270 322
#     4  11  21  33  50  76 110 146 182 220 262 310
#     4  10  20  35  52  74 102 136 176 218 267 315
#     4   9  19  37  58  80 108 143 182 222 267 319
#
# _framework density 19.393910000000002
#
# number of rings (size 3 to 8) (size 9 to 14) (size 15 to 20)
#    0.000    2.000    0.000    7.364    0.000    4.364 
#    0.000    0.000    2.000    0.000    0.000    0.000 
#    0.000    0.000    0.000    0.000    0.000    0.000 
#
# Total GULP energy -545319.889171 kJ/mol
# GULP energy per Si atom -12393.633845 kJ/mol
# Density = 1.934977 g / cm^3
# Si number density = 19.393910 Si / 1000 Ang^3
#
#
#
# Elastic Constant Matrix: (Units=GPa)
#
#
# Indices 1 2 3 4 5 6 
#
# 1 159.9033 34.3305 44.9262 0.0000 0.0000 0.0000
# 2 34.3305 53.8100 24.6015 0.0000 0.0000 0.0000
# 3 44.9262 24.6015 139.8124 0.0000 0.0000 0.0000
# 4 0.0000 0.0000 0.0000 25.7325 0.0000 0.0000
# 5 0.0000 0.0000 0.0000 0.0000 32.2712 0.0000
# 6 0.0000 0.0000 0.0000 0.0000 0.0000 16.9054
#
#
#
# Elastic Compliance Matrix: (Units=1/GPa)
#
#
# Indices 1 2 3 4 5 6 
#
# 1 0.007613 -0.004066 -0.001731 0.000000 0.000000 0.000000
# 2 -0.004066 0.022381 -0.002632 0.000000 0.000000 0.000000
# 3 -0.001731 -0.002632 0.008172 0.000000 0.000000 0.000000
# 4 0.000000 0.000000 0.000000 0.038861 0.000000 0.000000
# 5 0.000000 0.000000 0.000000 0.000000 0.030987 0.000000
# 6 0.000000 0.000000 0.000000 0.000000 0.000000 0.059153
#
#
# Mechanical properties :
#
#
# Convention : Reuss Voigt Hill
#
# Bulk Modulus (GPa) = 46.92842 62.36025 54.64433
# Shear Modulus (GPa) = 26.16064 31.62631 28.89348
#
# Velocity S-wave (km/s) = 3.67674 4.04262 3.86401
# Velocity P-wave (km/s) = 6.50189 7.34947 6.93863
#
# Compressibility (1/GPa) = 0.02130905
#
# Stress axis : x y z
#
# Youngs Moduli (GPa) = 131.35473 44.68070 122.37333
#
# Poissons Ratio (x) = 0.18166 0.21181
# Poissons Ratio (y) = 0.53405 0.32206
# Poissons Ratio (z) = 0.22736 0.11759
#
# Static dielectric constant tensor:
#      x y z
#    x 4.304850 0.000000 0.000000 
#    y 0.000000 3.440740 0.000000 
#    z 0.000000 0.000000 2.330090 
# 
# 
# High freq. dielectric constant tensor:
#      x y z
#    x 1.773120 0.000000 0.000000 
#    y 0.000000 1.709630 0.000000 
#    z 0.000000 0.000000 1.761420 
# 
# From -- ./inp_files/8181.got.cif
#   From: 2010.03.12/outbox.cif.g09.slc.cpg/sg63_5_cif.got.tgz:8181.got - 2010.04.10 19:34:48.
