data_PCOD8255908
_publ_section_title
;
Structure prediction by ZEFSAII (Michael W. Deem and Ramdas Pophale) SiO2 
 PCOD8255908
Probable space group: C M C M
;
_chemical_formula_sum "Si O2"
_cell_formula_units_Z 96
_cell_length_a 9.067726
_cell_length_b 30.167982
_cell_length_c 19.841644
_cell_angle_alpha 90.000000
_cell_angle_beta 90.000000
_cell_angle_gamma 90.000000
_cell_volume 5427.780820
_symmetry_space_group_name_H-M "C M C M"
_symmetry_group_IT_number 63
_symmetry_cell_setting 'orthorhombic'
loop_
_space_group_symop_operation_xyz
x,y,z
-x,-y,1/2+z
x,-y,-z
-x,y,1/2-z
-x,-y,-z
x,y,1/2-z
-x,y,z
x,-y,1/2+z
1/2+x,1/2+y,z
1/2-x,1/2-y,1/2+z
1/2+x,1/2-y,-z
1/2-x,1/2+y,1/2-z
1/2-x,1/2-y,-z
1/2+x,1/2+y,1/2-z
1/2-x,1/2+y,z
1/2+x,1/2-y,1/2+z
loop_
_atom_site_type_symbol
_atom_site_label
_atom_site_fract_x
_atom_site_fract_y
_atom_site_fract_z
Si Si1 0.326853 0.611978 0.548375
Si Si2 0.168821 0.040084 0.171902
Si Si3 0.669421 0.630283 0.104807
Si Si4 0.165922 0.715977 0.410700
Si Si5 0.833245 0.300846 0.430742
Si Si6 0.673714 0.022084 0.929894
O O1 0.500000 0.611831 0.562354
O O2 0.288654 0.612531 0.469239
O O3 0.257034 0.654579 0.585290
O O4 0.255566 0.568484 0.580495
O O5 0.194491 0.030413 0.250000
O O6 0.204726 0.091547 0.157638
O O7 0.000000 0.030037 0.150186
O O8 0.280042 0.009528 0.130966
O O9 0.500000 0.645250 0.106344
O O10 0.764424 0.673100 0.125558
O O11 0.170143 0.708598 0.490236
O O12 0.257650 0.759914 0.391577
O O13 0.000000 0.722161 0.384429
O O14 0.000000 0.306183 0.404535
O O15 0.500000 0.030262 0.927939
O O16 0.723623 0.000000 0.000000
#
# Coordination Sequence:
#
# PCOD8255908 Si02
#       6
#    16  16  16  16  16  16
#     4  10  18  29  48  71  98 131 169 210 255 306
#     4  10  21  37  55  75 101 135 175 217 261 311
#     4   9  17  29  46  69  96 129 165 205 252 301
#     4   9  16  25  40  63  93 129 164 197 239 294
#     4   9  16  26  40  63  97 129 160 201 247 295
#     4  11  22  34  51  75 103 135 173 216 263 314
#
# _framework density 17.686786999999999
#
# number of rings (size 3 to 8) (size 9 to 14) (size 15 to 20)
#    0.000    2.333    1.667    2.000    0.000    6.333 
#    0.000    0.000    0.000    0.000    0.000    1.167 
#    0.000    6.667    0.000    0.000    0.000    0.000 
#
# Total GULP energy -595296.184274 kJ/mol
# GULP energy per Si atom -12402.003839 kJ/mol
# Density = 1.764653 g / cm^3
# Si number density = 17.686787 Si / 1000 Ang^3
#
#
#
# Elastic Constant Matrix: (Units=GPa)
#
#
# Indices 1 2 3 4 5 6 
#
# 1 112.8505 70.0084 24.3127 0.0000 0.0000 0.0000
# 2 70.0084 135.2616 28.2292 0.0000 0.0000 0.0000
# 3 24.3127 28.2292 40.0311 0.0000 0.0000 0.0000
# 4 0.0000 0.0000 0.0000 15.7172 0.0000 0.0000
# 5 0.0000 0.0000 0.0000 0.0000 12.5229 0.0000
# 6 0.0000 0.0000 0.0000 0.0000 0.0000 40.1242
#
#
#
# Elastic Compliance Matrix: (Units=1/GPa)
#
#
# Indices 1 2 3 4 5 6 
#
# 1 0.013539 -0.006205 -0.003848 0.000000 0.000000 0.000000
# 2 -0.006205 0.011512 -0.004350 0.000000 0.000000 0.000000
# 3 -0.003848 -0.004350 0.030385 0.000000 0.000000 0.000000
# 4 0.000000 0.000000 0.000000 0.063625 0.000000 0.000000
# 5 0.000000 0.000000 0.000000 0.000000 0.079854 0.000000
# 6 0.000000 0.000000 0.000000 0.000000 0.000000 0.024923
#
#
# Mechanical properties :
#
#
# Convention : Reuss Voigt Hill
#
# Bulk Modulus (GPa) = 37.54858 59.24930 48.39894
# Shear Modulus (GPa) = 19.11905 24.71239 21.91572
#
# Velocity S-wave (km/s) = 3.29139 3.74200 3.52391
# Velocity P-wave (km/s) = 5.97664 7.22786 6.63182
#
# Compressibility (1/GPa) = 0.02663216
#
# Stress axis : x y z
#
# Youngs Moduli (GPa) = 73.85862 86.86358 32.91105
#
# Poissons Ratio (x) = 0.53896 0.12663
# Poissons Ratio (y) = 0.45827 0.14316
# Poissons Ratio (z) = 0.28418 0.37785
#
# Static dielectric constant tensor:
#      x y z
#    x 3.380610 0.000000 0.000000 
#    y 0.000000 3.408330 0.000000 
#    z 0.000000 0.000000 2.713590 
# 
# 
# High freq. dielectric constant tensor:
#      x y z
#    x 1.695410 0.000000 0.000000 
#    y 0.000000 1.698910 0.000000 
#    z 0.000000 0.000000 1.615940 
# 
# From -- ./inp_files/51408.got.cif
#   From: 2010.03.12/outbox.cif.g09.slc.cpg/sg63_26_cif.got.tgz:51408.got - 2010.04.10 19:34:48.
