data_PCOD8255451
_publ_section_title
;
Structure prediction by ZEFSAII (Michael W. Deem and Ramdas Pophale) SiO2 
 PCOD8255451
Probable space group: C M C M
;
_chemical_formula_sum "Si O2"
_cell_formula_units_Z 128
_cell_length_a 21.321619
_cell_length_b 12.961272
_cell_length_c 30.156422
_cell_angle_alpha 90.000000
_cell_angle_beta 90.000000
_cell_angle_gamma 90.000000
_cell_volume 8333.887149
_symmetry_space_group_name_H-M "C M C M"
_symmetry_group_IT_number 63
_symmetry_cell_setting 'orthorhombic'
loop_
_space_group_symop_operation_xyz
x,y,z
-x,-y,1/2+z
x,-y,-z
-x,y,1/2-z
-x,-y,-z
x,y,1/2-z
-x,y,z
x,-y,1/2+z
1/2+x,1/2+y,z
1/2-x,1/2-y,1/2+z
1/2+x,1/2-y,-z
1/2-x,1/2+y,1/2-z
1/2-x,1/2-y,-z
1/2+x,1/2+y,1/2-z
1/2-x,1/2+y,z
1/2+x,1/2-y,1/2+z
loop_
_atom_site_type_symbol
_atom_site_label
_atom_site_fract_x
_atom_site_fract_y
_atom_site_fract_z
Si Si1 0.834894 0.214089 0.149194
Si Si2 0.836220 0.799634 0.418736
Si Si3 0.733363 0.895291 0.912466
Si Si4 0.331460 0.610570 0.487062
Si Si5 0.428737 0.653746 0.417292
Si Si6 0.337610 0.484746 0.698935
Si Si7 0.070740 0.934887 0.373688
Si Si8 0.238061 0.586793 0.642746
O O1 0.786835 0.155251 0.117479
O O2 0.901754 0.220743 0.123843
O O3 0.840903 0.139946 0.192208
O O4 0.813228 0.330752 0.160685
O O5 0.828329 0.676417 0.414751
O O6 0.817536 0.825509 0.468877
O O7 0.904575 0.837545 0.402785
O O8 0.789279 0.854510 0.385499
O O9 0.766283 0.908116 0.960413
O O10 0.708894 0.001908 0.890853
O O11 0.359731 0.500000 0.500000
O O12 0.385143 0.672420 0.460116
O O13 0.500000 0.688681 0.426930
O O14 0.424444 0.533283 0.405464
O O15 0.349195 0.509709 0.750000
O O16 0.390875 0.544110 0.671159
O O17 0.269681 0.529914 0.684718
O O18 0.000000 0.910155 0.359521
#
# Coordination Sequence:
#
# PCOD8255451 Si02
#       8
#    16  16  16  16  16  16  16  16
#     4   8  16  29  44  60  84 112 139 170 206 251
#     4  10  17  27  41  60  86 115 146 180 216 254
#     4   9  17  27  41  60  85 114 145 179 214 254
#     4  11  16  25  39  63  88 111 144 185 227 258
#     4   9  17  28  41  59  83 113 147 181 216 250
#     4   9  17  28  43  67  91 106 127 163 208 256
#     4   9  17  29  43  59  84 115 142 170 207 254
#     4   9  16  29  44  61  85 113 140 169 207 256
#
# _framework density 15.358979
#
# number of rings (size 3 to 8) (size 9 to 14) (size 15 to 20)
#    0.000    2.750    2.500    1.875    0.000    1.500 
#    0.000    0.000    0.000    0.750    0.000    0.875 
#    0.000    0.000    0.000    1.125    0.000    0.000 
#
# Total GULP energy -793125.571635 kJ/mol
# GULP energy per Si atom -12392.587057 kJ/mol
# Density = 1.532402 g / cm^3
# Si number density = 15.358979 Si / 1000 Ang^3
#
#
#
# Elastic Constant Matrix: (Units=GPa)
#
#
# Indices 1 2 3 4 5 6 
#
# 1 65.7983 34.1271 18.4168 0.0000 0.0000 0.0000
# 2 34.1271 76.2342 19.4050 0.0000 0.0000 0.0000
# 3 18.4168 19.4050 78.0908 0.0000 0.0000 0.0000
# 4 0.0000 0.0000 0.0000 13.7633 0.0000 0.0000
# 5 0.0000 0.0000 0.0000 0.0000 3.2854 0.0000
# 6 0.0000 0.0000 0.0000 0.0000 0.0000 18.0025
#
#
#
# Elastic Compliance Matrix: (Units=1/GPa)
#
#
# Indices 1 2 3 4 5 6 
#
# 1 0.020314 -0.008406 -0.002702 0.000000 0.000000 0.000000
# 2 -0.008406 0.017482 -0.002362 0.000000 0.000000 0.000000
# 3 -0.002702 -0.002362 0.014030 0.000000 0.000000 0.000000
# 4 0.000000 0.000000 0.000000 0.072657 0.000000 0.000000
# 5 0.000000 0.000000 0.000000 0.000000 0.304373 0.000000
# 6 0.000000 0.000000 0.000000 0.000000 0.000000 0.055548
#
#
# Mechanical properties :
#
#
# Convention : Reuss Voigt Hill
#
# Bulk Modulus (GPa) = 40.18297 40.44678 40.31487
# Shear Modulus (GPa) = 9.62209 16.88856 13.25532
#
# Velocity S-wave (km/s) = 2.50567 3.31960 2.94093
# Velocity P-wave (km/s) = 5.88137 6.40972 6.15122
#
# Compressibility (1/GPa) = 0.02488616
#
# Stress axis : x y z
#
# Youngs Moduli (GPa) = 49.22673 57.20280 71.27751
#
# Poissons Ratio (x) = 0.48085 0.19259
# Poissons Ratio (y) = 0.41380 0.16833
# Poissons Ratio (z) = 0.13301 0.13509
#
# Static dielectric constant tensor:
#      x y z
#    x 2.930980 0.000000 0.000000 
#    y 0.000000 3.091560 0.000000 
#    z 0.000000 0.000000 2.817610 
# 
# 
# High freq. dielectric constant tensor:
#      x y z
#    x 1.560650 0.000000 0.000000 
#    y 0.000000 1.570100 0.000000 
#    z 0.000000 0.000000 1.580780 
# 
# From -- ./inp_files/70835.got.cif
#   From: 2010.03.12/outbox.cif.g09.slc.cpg/sg63_36_cif.got.tgz:70835.got - 2010.04.10 19:34:48.
