data_PCOD8255954
_publ_section_title
;
Structure prediction by ZEFSAII (Michael W. Deem and Ramdas Pophale) SiO2 
 PCOD8255954
Probable space group: C M C M
;
_chemical_formula_sum "Si O2"
_cell_formula_units_Z 104
_cell_length_a 31.456728
_cell_length_b 20.619408
_cell_length_c 8.737333
_cell_angle_alpha 90.000000
_cell_angle_beta 90.000000
_cell_angle_gamma 90.000000
_cell_volume 5667.201145
_symmetry_space_group_name_H-M "C M C M"
_symmetry_group_IT_number 63
_symmetry_cell_setting 'orthorhombic'
loop_
_space_group_symop_operation_xyz
x,y,z
-x,-y,1/2+z
x,-y,-z
-x,y,1/2-z
-x,-y,-z
x,y,1/2-z
-x,y,z
x,-y,1/2+z
1/2+x,1/2+y,z
1/2-x,1/2-y,1/2+z
1/2+x,1/2-y,-z
1/2-x,1/2+y,1/2-z
1/2-x,1/2-y,-z
1/2+x,1/2+y,1/2-z
1/2-x,1/2+y,z
1/2+x,1/2-y,1/2+z
loop_
_atom_site_type_symbol
_atom_site_label
_atom_site_fract_x
_atom_site_fract_y
_atom_site_fract_z
Si Si1 0.686355 0.566861 0.073668
Si Si2 0.500000 0.931656 0.069194
Si Si3 0.452298 0.302984 0.568049
Si Si4 0.838361 0.682141 0.573059
Si Si5 0.786896 0.567537 0.424856
Si Si6 0.364695 0.318435 0.430438
Si Si7 0.432118 0.837662 0.074224
O O1 0.671729 0.570631 0.250000
O O2 0.736699 0.572166 0.058478
O O3 0.670035 0.500000 0.000000
O O4 0.666722 0.624546 0.976275
O O5 0.500000 0.937032 0.250000
O O6 0.458667 0.895713 0.001137
O O7 0.500000 0.000000 0.000000
O O8 0.446854 0.307348 0.750000
O O9 0.500000 0.328595 0.521264
O O10 0.411802 0.339149 0.493079
O O11 0.446598 0.230398 0.501582
O O12 0.826577 0.693675 0.750000
O O13 0.804131 0.633829 0.500256
O O14 0.843544 0.752641 0.496437
O O15 0.883001 0.645509 0.552388
O O16 0.803456 0.500000 0.500000
O O17 0.801878 0.566049 0.250000
O O18 0.367285 0.311096 0.250000
O O19 0.445086 0.831380 0.250000
#
# Coordination Sequence:
#
# PCOD8255954 Si02
#       7
#    16   8  16  16  16  16  16
#     4  10  21  39  61  83 109 143 182 222 269 332
#     4  10  18  30  44  62  90 126 171 216 259 308
#     4   9  16  31  56  79 101 137 180 221 266 320
#     4  10  20  35  55  79 107 142 185 232 279 326
#     4  10  21  37  57  80 107 143 185 228 277 331
#     4  11  22  35  54  84 117 146 180 226 277 328
#     4   8  15  29  49  68  91 129 173 217 263 309
#
# _framework density 18.351210999999999
#
# number of rings (size 3 to 8) (size 9 to 14) (size 15 to 20)
#    0.000    2.308    0.769    3.692    0.000    3.385 
#    0.000    5.385    0.000    0.462    0.000    0.000 
#    0.000    0.000    0.000    0.000    0.000    0.000 
#
# Total GULP energy -644353.315075 kJ/mol
# GULP energy per Si atom -12391.409905 kJ/mol
# Density = 1.830944 g / cm^3
# Si number density = 18.351211 Si / 1000 Ang^3
#
#
#
# Elastic Constant Matrix: (Units=GPa)
#
#
# Indices 1 2 3 4 5 6 
#
# 1 49.5945 35.7732 37.1884 0.0000 0.0000 0.0000
# 2 35.7732 98.7603 44.3878 0.0000 0.0000 0.0000
# 3 37.1884 44.3878 107.7751 0.0000 0.0000 0.0000
# 4 0.0000 0.0000 0.0000 32.1053 0.0000 0.0000
# 5 0.0000 0.0000 0.0000 0.0000 24.9990 0.0000
# 6 0.0000 0.0000 0.0000 0.0000 0.0000 18.2948
#
#
#
# Elastic Compliance Matrix: (Units=1/GPa)
#
#
# Indices 1 2 3 4 5 6 
#
# 1 0.031683 -0.008054 -0.007616 0.000000 0.000000 0.000000
# 2 -0.008054 0.014473 -0.003182 0.000000 0.000000 0.000000
# 3 -0.007616 -0.003182 0.013217 0.000000 0.000000 0.000000
# 4 0.000000 0.000000 0.000000 0.031148 0.000000 0.000000
# 5 0.000000 0.000000 0.000000 0.000000 0.040002 0.000000
# 6 0.000000 0.000000 0.000000 0.000000 0.000000 0.054660
#
#
# Mechanical properties :
#
#
# Convention : Reuss Voigt Hill
#
# Bulk Modulus (GPa) = 46.14464 54.53652 50.34058
# Shear Modulus (GPa) = 21.72895 24.33183 23.03039
#
# Velocity S-wave (km/s) = 3.44475 3.64524 3.54641
# Velocity P-wave (km/s) = 6.40481 6.89201 6.65287
#
# Compressibility (1/GPa) = 0.02167099
#
# Stress axis : x y z
#
# Youngs Moduli (GPa) = 31.56245 69.09537 75.66119
#
# Poissons Ratio (x) = 0.55646 0.57620
# Poissons Ratio (y) = 0.25419 0.24074
# Poissons Ratio (z) = 0.24037 0.21984
#
# Static dielectric constant tensor:
#      x y z
#    x 3.155880 0.000000 0.000000 
#    y 0.000000 3.235150 0.000000 
#    z 0.000000 0.000000 3.267490 
# 
# 
# High freq. dielectric constant tensor:
#      x y z
#    x 1.714820 0.000000 0.000000 
#    y 0.000000 1.698010 0.000000 
#    z 0.000000 0.000000 1.704540 
# 
# From -- ./inp_files/14499.got.cif
#   From: 2010.03.12/outbox.cif.g09.slc.cpg/sg63_8_cif.got.tgz:14499.got - 2010.04.10 19:34:48.
