data_PCOD8255977
_publ_section_title
;
Structure prediction by ZEFSAII (Michael W. Deem and Ramdas Pophale) SiO2 
 PCOD8255977
Probable space group: C M C M
;
_chemical_formula_sum "Si O2"
_cell_formula_units_Z 128
_cell_length_a 23.619007
_cell_length_b 20.306003
_cell_length_c 17.573663
_cell_angle_alpha 90.000000
_cell_angle_beta 90.000000
_cell_angle_gamma 90.000000
_cell_volume 8428.462809
_symmetry_space_group_name_H-M "C M C M"
_symmetry_group_IT_number 63
_symmetry_cell_setting 'orthorhombic'
loop_
_space_group_symop_operation_xyz
x,y,z
-x,-y,1/2+z
x,-y,-z
-x,y,1/2-z
-x,-y,-z
x,y,1/2-z
-x,y,z
x,-y,1/2+z
1/2+x,1/2+y,z
1/2-x,1/2-y,1/2+z
1/2+x,1/2-y,-z
1/2-x,1/2+y,1/2-z
1/2-x,1/2-y,-z
1/2+x,1/2+y,1/2-z
1/2-x,1/2+y,z
1/2+x,1/2-y,1/2+z
loop_
_atom_site_type_symbol
_atom_site_label
_atom_site_fract_x
_atom_site_fract_y
_atom_site_fract_z
Si Si1 0.793352 0.360768 0.332778
Si Si2 0.673670 0.712031 0.665037
Si Si3 0.237873 0.302197 0.932985
Si Si4 0.627117 0.603406 0.565979
Si Si5 0.065127 0.996485 0.663100
Si Si6 0.755229 0.573005 0.526295
Si Si7 0.155365 0.226614 0.161034
Si Si8 0.434691 0.640593 0.413586
O O1 0.804747 0.393123 0.250000
O O2 0.733960 0.323182 0.331809
O O3 0.790580 0.417762 0.395534
O O4 0.840811 0.305640 0.351183
O O5 0.651785 0.728791 0.750000
O O6 0.683384 0.778443 0.615975
O O7 0.628420 0.664936 0.623935
O O8 0.292774 0.310555 0.879857
O O9 0.250000 0.250000 0.000000
O O10 0.222056 0.373513 0.966096
O O11 0.603387 0.540042 0.608576
O O12 0.688718 0.584600 0.535765
O O13 0.586800 0.622771 0.497183
O O14 0.084209 0.007355 0.750000
O O15 0.000000 0.016746 0.651190
O O16 0.074818 0.920706 0.642404
O O17 0.769124 0.500000 0.500000
O O18 0.157114 0.208577 0.250000
O O19 0.097513 0.202804 0.122271
O O20 0.500000 0.660448 0.419494
#
# Coordination Sequence:
#
# PCOD8255977 Si02
#       8
#    16  16  16  16  16  16  16  16
#     4   8  16  30  46  63  88 119 149 181 229 279
#     4   9  17  29  48  68  86 115 154 193 226 268
#     4  11  16  31  47  66  91 119 152 189 227 275
#     4  11  19  31  47  64  89 122 163 194 228 273
#     4  10  21  34  44  58  88 128 164 201 241 274
#     4  11  20  29  45  70  96 120 154 189 225 271
#     4  10  18  30  47  64  83 120 158 187 230 278
#     4  11  21  32  45  65  90 119 160 207 243 269
#
# _framework density 15.186636999999999
#
# number of rings (size 3 to 8) (size 9 to 14) (size 15 to 20)
#    0.000    1.875    5.000    3.375    0.000    2.250 
#    0.000    1.250    0.000    0.000    0.000    0.000 
#    0.000    0.500    0.000    0.000    0.000    0.000 
#
# Total GULP energy -793514.912187 kJ/mol
# GULP energy per Si atom -12398.670503 kJ/mol
# Density = 1.515207 g / cm^3
# Si number density = 15.186637 Si / 1000 Ang^3
#
#
#
# Elastic Constant Matrix: (Units=GPa)
#
#
# Indices 1 2 3 4 5 6 
#
# 1 47.8487 24.0269 23.8735 0.0000 0.0000 0.0000
# 2 24.0269 82.9340 43.8298 0.0000 0.0000 0.0000
# 3 23.8735 43.8298 104.4384 0.0000 0.0000 0.0000
# 4 0.0000 0.0000 0.0000 27.6918 0.0000 0.0000
# 5 0.0000 0.0000 0.0000 0.0000 15.7843 0.0000
# 6 0.0000 0.0000 0.0000 0.0000 0.0000 18.7041
#
#
#
# Elastic Compliance Matrix: (Units=1/GPa)
#
#
# Indices 1 2 3 4 5 6 
#
# 1 0.025412 -0.005516 -0.003494 0.000000 0.000000 0.000000
# 2 -0.005516 0.016691 -0.005744 0.000000 0.000000 0.000000
# 3 -0.003494 -0.005744 0.012784 0.000000 0.000000 0.000000
# 4 0.000000 0.000000 0.000000 0.036112 0.000000 0.000000
# 5 0.000000 0.000000 0.000000 0.000000 0.063354 0.000000
# 6 0.000000 0.000000 0.000000 0.000000 0.000000 0.053464
#
#
# Mechanical properties :
#
#
# Convention : Reuss Voigt Hill
#
# Bulk Modulus (GPa) = 39.40071 46.52017 42.96044
# Shear Modulus (GPa) = 20.34290 22.00210 21.17250
#
# Velocity S-wave (km/s) = 3.66392 3.81041 3.73789
# Velocity P-wave (km/s) = 6.62569 7.07515 6.85411
#
# Compressibility (1/GPa) = 0.02538025
#
# Stress axis : x y z
#
# Youngs Moduli (GPa) = 39.35114 59.91105 78.22024
#
# Poissons Ratio (x) = 0.33044 0.27332
# Poissons Ratio (y) = 0.21704 0.44931
# Poissons Ratio (z) = 0.13750 0.34414
#
# Static dielectric constant tensor:
#      x y z
#    x 2.718080 0.000000 0.000000 
#    y 0.000000 2.866480 0.000000 
#    z 0.000000 0.000000 3.395520 
# 
# 
# High freq. dielectric constant tensor:
#      x y z
#    x 1.541050 0.000000 0.000000 
#    y 0.000000 1.560140 0.000000 
#    z 0.000000 0.000000 1.607800 
# 
# From -- ./inp_files/47556.got.cif
#   From: 2010.03.12/outbox.cif.g09.slc.cpg/sg63_24_cif.got.tgz:47556.got - 2010.04.10 19:34:48.
