data_PCOD8255721
_publ_section_title
;
Structure prediction by ZEFSAII (Michael W. Deem and Ramdas Pophale) SiO2 
 PCOD8255721
Probable space group: C M C M
;
_chemical_formula_sum "Si O2"
_cell_formula_units_Z 96
_cell_length_a 30.278961
_cell_length_b 23.471195
_cell_length_c 9.115389
_cell_angle_alpha 90.000000
_cell_angle_beta 90.000000
_cell_angle_gamma 90.000000
_cell_volume 6478.155629
_symmetry_space_group_name_H-M "C M C M"
_symmetry_group_IT_number 63
_symmetry_cell_setting 'orthorhombic'
loop_
_space_group_symop_operation_xyz
x,y,z
-x,-y,1/2+z
x,-y,-z
-x,y,1/2-z
-x,-y,-z
x,y,1/2-z
-x,y,z
x,-y,1/2+z
1/2+x,1/2+y,z
1/2-x,1/2-y,1/2+z
1/2+x,1/2-y,-z
1/2-x,1/2+y,1/2-z
1/2-x,1/2-y,-z
1/2+x,1/2+y,1/2-z
1/2-x,1/2+y,z
1/2+x,1/2-y,1/2+z
loop_
_atom_site_type_symbol
_atom_site_label
_atom_site_fract_x
_atom_site_fract_y
_atom_site_fract_z
Si Si1 0.311742 0.451826 0.408633
Si Si2 0.449263 0.441693 0.421767
Si Si3 0.686963 0.280146 0.578871
Si Si4 0.878518 0.147677 0.913458
Si Si5 0.287207 0.056400 0.575263
Si Si6 0.780658 0.330758 0.921522
O O1 0.337887 0.500000 0.500000
O O2 0.304993 0.479190 0.250000
O O3 0.337808 0.394311 0.399476
O O4 0.263651 0.441455 0.475749
O O5 0.434568 0.500000 0.500000
O O6 0.440386 0.450882 0.250000
O O7 0.500000 0.427445 0.457204
O O8 0.420705 0.387277 0.476785
O O9 0.683291 0.264743 0.750000
O O10 0.639254 0.304670 0.525509
O O11 0.727715 0.323947 0.551631
O O12 0.694696 0.224035 0.484674
O O13 0.889023 0.172611 0.750000
O O14 0.295543 0.056104 0.750000
O O15 0.303666 0.115559 0.503996
O O16 0.309221 0.000000 0.500000
O O17 0.791029 0.336077 0.750000
#
# Coordination Sequence:
#
# PCOD8255721 Si02
#       6
#    16  16  16  16  16  16
#     4   9  17  25  35  51  72  97 125 162 205 243
#     4   9  18  31  46  63  83 109 140 176 221 268
#     4  10  20  30  43  60  78 103 135 170 208 252
#     4  10  18  29  42  58  79 103 133 171 212 255
#     4  10  18  28  41  57  78 102 133 168 204 244
#     4  10  19  31  44  58  79 106 134 167 209 252
#
# _framework density 14.819032
#
# number of rings (size 3 to 8) (size 9 to 14) (size 15 to 20)
#    0.000    2.333    1.667    2.000    0.000    3.333 
#    0.000    0.000    0.000    0.000    0.000    0.000 
#    0.000    0.000    0.000    0.000    0.000    0.833 
#
# Total GULP energy -594698.716958 kJ/mol
# GULP energy per Si atom -12389.556603 kJ/mol
# Density = 1.478530 g / cm^3
# Si number density = 14.819032 Si / 1000 Ang^3
#
#
#
# Elastic Constant Matrix: (Units=GPa)
#
#
# Indices 1 2 3 4 5 6 
#
# 1 47.4897 19.3058 16.9129 0.0000 0.0000 0.0000
# 2 19.3058 84.3270 48.2496 0.0000 0.0000 0.0000
# 3 16.9129 48.2496 78.1742 0.0000 0.0000 0.0000
# 4 0.0000 0.0000 0.0000 29.9131 0.0000 0.0000
# 5 0.0000 0.0000 0.0000 0.0000 13.1138 0.0000
# 6 0.0000 0.0000 0.0000 0.0000 0.0000 21.9369
#
#
#
# Elastic Compliance Matrix: (Units=1/GPa)
#
#
# Indices 1 2 3 4 5 6 
#
# 1 0.023591 -0.003835 -0.002737 0.000000 0.000000 0.000000
# 2 -0.003835 0.018956 -0.010870 0.000000 0.000000 0.000000
# 3 -0.002737 -0.010870 0.020093 0.000000 0.000000 0.000000
# 4 0.000000 0.000000 0.000000 0.033430 0.000000 0.000000
# 5 0.000000 0.000000 0.000000 0.000000 0.076255 0.000000
# 6 0.000000 0.000000 0.000000 0.000000 0.000000 0.045585
#
#
# Mechanical properties :
#
#
# Convention : Reuss Voigt Hill
#
# Bulk Modulus (GPa) = 36.02795 42.10307 39.06551
# Shear Modulus (GPa) = 19.08052 21.36094 20.22073
#
# Velocity S-wave (km/s) = 3.59216 3.80077 3.69794
# Velocity P-wave (km/s) = 6.44745 6.90900 6.68221
#
# Compressibility (1/GPa) = 0.02775623
#
# Stress axis : x y z
#
# Youngs Moduli (GPa) = 42.38923 52.75326 49.76802
#
# Poissons Ratio (x) = 0.20230 0.13621
# Poissons Ratio (y) = 0.16256 0.54099
# Poissons Ratio (z) = 0.11602 0.57344
#
# Static dielectric constant tensor:
#      x y z
#    x 2.535800 0.000000 0.000000 
#    y 0.000000 2.904250 0.000000 
#    z 0.000000 0.000000 3.073280 
# 
# 
# High freq. dielectric constant tensor:
#      x y z
#    x 1.506710 0.000000 0.000000 
#    y 0.000000 1.558350 0.000000 
#    z 0.000000 0.000000 1.579790 
# 
# From -- ./inp_files/12743.got.cif
#   From: 2010.03.12/outbox.cif.g09.slc.cpg/sg63_7_cif.got.tgz:12743.got - 2010.04.10 19:34:48.
