data_PCOD8255703
_publ_section_title
;
Structure prediction by ZEFSAII (Michael W. Deem and Ramdas Pophale) SiO2 
 PCOD8255703
Probable space group: C M C M
;
_chemical_formula_sum "Si O2"
_cell_formula_units_Z 112
_cell_length_a 17.900948
_cell_length_b 17.998260
_cell_length_c 21.000084
_cell_angle_alpha 90.000000
_cell_angle_beta 90.000000
_cell_angle_gamma 90.000000
_cell_volume 6765.931307
_symmetry_space_group_name_H-M "C M C M"
_symmetry_group_IT_number 63
_symmetry_cell_setting 'orthorhombic'
loop_
_space_group_symop_operation_xyz
x,y,z
-x,-y,1/2+z
x,-y,-z
-x,y,1/2-z
-x,-y,-z
x,y,1/2-z
-x,y,z
x,-y,1/2+z
1/2+x,1/2+y,z
1/2-x,1/2-y,1/2+z
1/2+x,1/2-y,-z
1/2-x,1/2+y,1/2-z
1/2-x,1/2-y,-z
1/2+x,1/2+y,1/2-z
1/2-x,1/2+y,z
1/2+x,1/2-y,1/2+z
loop_
_atom_site_type_symbol
_atom_site_label
_atom_site_fract_x
_atom_site_fract_y
_atom_site_fract_z
Si Si1 0.288153 0.330256 0.575600
Si Si2 0.677987 0.201144 0.177804
Si Si3 0.915086 0.784747 0.082188
Si Si4 0.587890 0.042212 0.564008
Si Si5 0.913899 0.914232 0.513126
Si Si6 0.087396 0.446181 0.820313
Si Si7 0.158926 0.316197 0.016330
O O1 0.254664 0.330215 0.646865
O O2 0.359254 0.385271 0.569453
O O3 0.224741 0.354292 0.524860
O O4 0.308994 0.245286 0.563153
O O5 0.694868 0.225410 0.250000
O O6 0.643033 0.271954 0.140138
O O7 0.617471 0.136515 0.173371
O O8 0.000000 0.781362 0.107140
O O9 0.898378 0.865084 0.050222
O O10 0.902918 0.719713 0.030332
O O11 0.500000 0.049672 0.570724
O O12 0.621988 0.123862 0.562338
O O13 0.611120 0.000000 0.500000
O O14 0.621896 0.999429 0.625333
O O15 0.000000 0.904353 0.535231
O O16 0.895530 0.000000 0.500000
O O17 0.106181 0.478819 0.750000
O O18 0.000000 0.439194 0.831505
#
# Coordination Sequence:
#
# PCOD8255703 Si02
#       7
#    16  16  16  16  16  16  16
#     4   9  18  31  47  65  91 121 151 190 236 280
#     4  10  19  31  47  68  96 129 161 189 220 270
#     4   9  16  28  48  73  98 122 151 188 235 286
#     4  10  18  27  44  70  96 121 153 189 220 263
#     4   9  18  32  51  73  93 115 149 200 257 299
#     4   9  18  31  45  65  97 132 158 184 227 279
#     4   9  17  29  44  67  94 120 149 188 234 274
#
# _framework density 16.553522999999998
#
# number of rings (size 3 to 8) (size 9 to 14) (size 15 to 20)
#    0.000    2.714    0.000    3.429    0.000    4.286 
#    0.000    0.714    0.000    3.000    0.000    2.000 
#    0.000    0.000    0.000    0.000    0.000    0.000 
#
# Total GULP energy -694216.374872 kJ/mol
# GULP energy per Si atom -12396.720980 kJ/mol
# Density = 1.651585 g / cm^3
# Si number density = 16.553523 Si / 1000 Ang^3
#
#
#
# Elastic Constant Matrix: (Units=GPa)
#
#
# Indices 1 2 3 4 5 6 
#
# 1 59.2302 39.2435 44.9391 0.0000 0.0000 0.0000
# 2 39.2435 76.2517 42.9885 0.0000 0.0000 0.0000
# 3 44.9391 42.9885 112.9814 0.0000 0.0000 0.0000
# 4 0.0000 0.0000 0.0000 18.3285 0.0000 0.0000
# 5 0.0000 0.0000 0.0000 0.0000 16.0871 0.0000
# 6 0.0000 0.0000 0.0000 0.0000 0.0000 25.0637
#
#
#
# Elastic Compliance Matrix: (Units=1/GPa)
#
#
# Indices 1 2 3 4 5 6 
#
# 1 0.030149 -0.011147 -0.007751 0.000000 0.000000 0.000000
# 2 -0.011147 0.020817 -0.003487 0.000000 0.000000 0.000000
# 3 -0.007751 -0.003487 0.013261 0.000000 0.000000 0.000000
# 4 0.000000 0.000000 0.000000 0.054560 0.000000 0.000000
# 5 0.000000 0.000000 0.000000 0.000000 0.062162 0.000000
# 6 0.000000 0.000000 0.000000 0.000000 0.000000 0.039898
#
#
# Mechanical properties :
#
#
# Convention : Reuss Voigt Hill
#
# Bulk Modulus (GPa) = 51.39315 55.86728 53.63021
# Shear Modulus (GPa) = 18.37541 19.98200 19.17870
#
# Velocity S-wave (km/s) = 3.33537 3.47812 3.40750
# Velocity P-wave (km/s) = 6.77842 7.06771 6.92458
#
# Compressibility (1/GPa) = 0.01945785
#
# Stress axis : x y z
#
# Youngs Moduli (GPa) = 33.16806 48.03728 75.41062
#
# Poissons Ratio (x) = 0.53547 0.58450
# Poissons Ratio (y) = 0.36972 0.26296
# Poissons Ratio (z) = 0.25708 0.16751
#
# Static dielectric constant tensor:
#      x y z
#    x 3.152900 0.000000 0.000000 
#    y 0.000000 3.053660 0.000000 
#    z 0.000000 0.000000 3.137540 
# 
# 
# High freq. dielectric constant tensor:
#      x y z
#    x 1.636100 0.000000 0.000000 
#    y 0.000000 1.627300 0.000000 
#    z 0.000000 0.000000 1.614550 
# 
# From -- ./inp_files/55838.got.cif
#   From: 2010.03.12/outbox.cif.g09.slc.cpg/sg63_28_cif.got.tgz:55838.got - 2010.04.10 19:34:48.
