data_PCOD8255606
_publ_section_title
;
Structure prediction by ZEFSAII (Michael W. Deem and Ramdas Pophale) SiO2 
 PCOD8255606
Probable space group: C M C M
;
_chemical_formula_sum "Si O2"
_cell_formula_units_Z 56
_cell_length_a 19.406441
_cell_length_b 13.376671
_cell_length_c 13.225478
_cell_angle_alpha 90.000000
_cell_angle_beta 90.000000
_cell_angle_gamma 90.000000
_cell_volume 3433.249135
_symmetry_space_group_name_H-M "C M C M"
_symmetry_group_IT_number 63
_symmetry_cell_setting 'orthorhombic'
loop_
_space_group_symop_operation_xyz
x,y,z
-x,-y,1/2+z
x,-y,-z
-x,y,1/2-z
-x,-y,-z
x,y,1/2-z
-x,y,z
x,-y,1/2+z
1/2+x,1/2+y,z
1/2-x,1/2-y,1/2+z
1/2+x,1/2-y,-z
1/2-x,1/2+y,1/2-z
1/2-x,1/2-y,-z
1/2+x,1/2+y,1/2-z
1/2-x,1/2+y,z
1/2+x,1/2-y,1/2+z
loop_
_atom_site_type_symbol
_atom_site_label
_atom_site_fract_x
_atom_site_fract_y
_atom_site_fract_z
Si Si1 0.276420 0.570869 0.250000
Si Si2 0.784064 0.632001 0.750000
Si Si3 0.694440 0.724105 0.417519
Si Si4 0.131225 0.104810 0.750000
Si Si5 0.420961 0.611014 0.530722
O O1 0.213500 0.489372 0.250000
O O2 0.272213 0.636795 0.149867
O O3 0.349941 0.513336 0.250000
O O4 0.820693 0.677706 0.849332
O O5 0.703200 0.666983 0.750000
O O6 0.750000 0.750000 0.500000
O O7 0.623349 0.691037 0.468659
O O8 0.087412 0.129912 0.849561
O O9 0.396062 0.500000 0.500000
O O10 0.500000 0.627439 0.500001
#
# Coordination Sequence:
#
# PCOD8255606 Si02
#       5
#     8   8  16   8  16
#     4   9  19  33  49  79 110 131 182 225 264 307
#     4   9  19  31  52  73 105 135 180 229 256 303
#     4  11  19  32  53  77 106 139 181 216 264 320
#     4  10  17  34  48  72 111 134 174 212 255 322
#     4  11  21  33  50  76 112 144 165 210 274 327
#
# _framework density 16.311078999999999
#
# number of rings (size 3 to 8) (size 9 to 14) (size 15 to 20)
#    0.857    0.857    5.714    0.429    0.000    0.000 
#    0.000    2.857    0.000    0.000    0.000    6.000 
#    0.000    0.000    0.000    0.000    0.000    0.000 
#
# Total GULP energy -347066.370170 kJ/mol
# GULP energy per Si atom -12395.227506 kJ/mol
# Density = 1.627395 g / cm^3
# Si number density = 16.311079 Si / 1000 Ang^3
#
#
#
# Elastic Constant Matrix: (Units=GPa)
#
#
# Indices 1 2 3 4 5 6 
#
# 1 73.8400 30.6794 35.0203 0.0000 0.0000 0.0000
# 2 30.6794 84.3640 47.1454 0.0000 0.0000 0.0000
# 3 35.0203 47.1454 130.3787 0.0000 0.0000 0.0000
# 4 0.0000 0.0000 0.0000 30.6412 0.0000 0.0000
# 5 0.0000 0.0000 0.0000 0.0000 22.7711 0.0000
# 6 0.0000 0.0000 0.0000 0.0000 0.0000 26.7552
#
#
#
# Elastic Compliance Matrix: (Units=1/GPa)
#
#
# Indices 1 2 3 4 5 6 
#
# 1 0.016775 -0.004490 -0.002882 0.000000 0.000000 0.000000
# 2 -0.004490 0.016057 -0.004600 0.000000 0.000000 0.000000
# 3 -0.002882 -0.004600 0.010108 0.000000 0.000000 0.000000
# 4 0.000000 0.000000 0.000000 0.032636 0.000000 0.000000
# 5 0.000000 0.000000 0.000000 0.000000 0.043915 0.000000
# 6 0.000000 0.000000 0.000000 0.000000 0.000000 0.037376
#
#
# Mechanical properties :
#
#
# Convention : Reuss Voigt Hill
#
# Bulk Modulus (GPa) = 52.64514 57.14144 54.89329
# Shear Modulus (GPa) = 26.71752 27.74934 27.23343
#
# Velocity S-wave (km/s) = 4.05161 4.12910 4.09054
# Velocity P-wave (km/s) = 7.36432 7.60533 7.48579
#
# Compressibility (1/GPa) = 0.01899511
#
# Stress axis : x y z
#
# Youngs Moduli (GPa) = 59.61169 62.27869 98.93461
#
# Poissons Ratio (x) = 0.27961 0.28517
# Poissons Ratio (y) = 0.26763 0.45513
# Poissons Ratio (z) = 0.17183 0.28650
#
# Static dielectric constant tensor:
#      x y z
#    x 2.772460 0.000000 0.000000 
#    y 0.000000 3.044390 0.000000 
#    z 0.000000 0.000000 3.201010 
# 
# 
# High freq. dielectric constant tensor:
#      x y z
#    x 1.592870 0.000000 0.000000 
#    y 0.000000 1.611800 0.000000 
#    z 0.000000 0.000000 1.649270 
# 
# From -- ./inp_files/20488.got.cif
#   From: 2010.03.12/outbox.cif.g09.slc.cpg/sg63_11_cif.got.tgz:20488.got - 2010.04.10 19:34:48.
