data_PCOD8255958
_publ_section_title
;
Structure prediction by ZEFSAII (Michael W. Deem and Ramdas Pophale) SiO2 
 PCOD8255958
Probable space group: C M C M
;
_chemical_formula_sum "Si O2"
_cell_formula_units_Z 80
_cell_length_a 12.406469
_cell_length_b 27.408757
_cell_length_c 12.623269
_cell_angle_alpha 90.000000
_cell_angle_beta 90.000000
_cell_angle_gamma 90.000000
_cell_volume 4292.490793
_symmetry_space_group_name_H-M "C M C M"
_symmetry_group_IT_number 63
_symmetry_cell_setting 'orthorhombic'
loop_
_space_group_symop_operation_xyz
x,y,z
-x,-y,1/2+z
x,-y,-z
-x,y,1/2-z
-x,-y,-z
x,y,1/2-z
-x,y,z
x,-y,1/2+z
1/2+x,1/2+y,z
1/2-x,1/2-y,1/2+z
1/2+x,1/2-y,-z
1/2-x,1/2+y,1/2-z
1/2-x,1/2-y,-z
1/2+x,1/2+y,1/2-z
1/2-x,1/2+y,z
1/2+x,1/2-y,1/2+z
loop_
_atom_site_type_symbol
_atom_site_label
_atom_site_fract_x
_atom_site_fract_y
_atom_site_fract_z
Si Si1 0.000000 0.528598 0.628349
Si Si2 0.338101 0.740400 0.866795
Si Si3 0.120891 0.128972 0.626283
Si Si4 0.615645 0.211417 0.576334
Si Si5 0.161622 0.603716 0.957530
Si Si6 0.000000 0.418739 0.624781
O O1 0.108273 0.558802 0.604286
O O2 0.000000 0.474206 0.576759
O O3 0.000000 0.514805 0.750000
O O4 0.381069 0.754081 0.750000
O O5 0.376071 0.686433 0.900294
O O6 0.383255 0.779417 0.949382
O O7 0.207668 0.742634 0.866470
O O8 0.149341 0.120453 0.750000
O O9 0.207454 0.100075 0.551552
O O10 0.000000 0.109670 0.600794
O O11 0.500000 0.227682 0.622455
O O12 0.630857 0.154251 0.599752
O O13 0.110292 0.604882 0.076547
O O14 0.000000 0.412142 0.750000
#
# Coordination Sequence:
#
# PCOD8255958 Si02
#       6
#     8  16  16  16  16   8
#     4  10  19  33  54  77 101 126 155 205 270 321
#     4   9  19  31  44  64  95 134 167 201 244 283
#     4   9  17  30  49  74 101 132 171 208 244 290
#     4  10  18  30  45  69  95 123 165 207 244 287
#     4  10  18  32  50  75 100 127 162 207 253 301
#     4  10  21  35  52  75 103 132 163 203 258 321
#
# _framework density 18.637198000000001
#
# number of rings (size 3 to 8) (size 9 to 14) (size 15 to 20)
#    0.000    2.400    2.000    2.400    0.000    3.200 
#    0.000    0.000    0.000    3.000    0.000    2.800 
#    0.000    0.000    0.000    0.000    0.000    0.000 
#
# Total GULP energy -495611.111959 kJ/mol
# GULP energy per Si atom -12390.277799 kJ/mol
# Density = 1.859478 g / cm^3
# Si number density = 18.637198 Si / 1000 Ang^3
#
#
#
# Elastic Constant Matrix: (Units=GPa)
#
#
# Indices 1 2 3 4 5 6 
#
# 1 167.8564 20.1398 28.4168 0.0000 0.0000 0.0000
# 2 20.1398 45.4970 5.0166 0.0000 0.0000 0.0000
# 3 28.4168 5.0166 61.1118 0.0000 0.0000 0.0000
# 4 0.0000 0.0000 0.0000 21.2132 0.0000 0.0000
# 5 0.0000 0.0000 0.0000 0.0000 13.9347 0.0000
# 6 0.0000 0.0000 0.0000 0.0000 0.0000 17.9110
#
#
#
# Elastic Compliance Matrix: (Units=1/GPa)
#
#
# Indices 1 2 3 4 5 6 
#
# 1 0.006775 -0.002676 -0.002931 0.000000 0.000000 0.000000
# 2 -0.002676 0.023237 -0.000663 0.000000 0.000000 0.000000
# 3 -0.002931 -0.000663 0.017781 0.000000 0.000000 0.000000
# 4 0.000000 0.000000 0.000000 0.047140 0.000000 0.000000
# 5 0.000000 0.000000 0.000000 0.000000 0.071763 0.000000
# 6 0.000000 0.000000 0.000000 0.000000 0.000000 0.055832
#
#
# Mechanical properties :
#
#
# Convention : Reuss Voigt Hill
#
# Bulk Modulus (GPa) = 28.36624 42.40127 35.38375
# Shear Modulus (GPa) = 20.25785 25.33792 22.79788
#
# Velocity S-wave (km/s) = 3.30048 3.69119 3.50129
# Velocity P-wave (km/s) = 5.45688 6.40053 5.94745
#
# Compressibility (1/GPa) = 0.03525317
#
# Stress axis : x y z
#
# Youngs Moduli (GPa) = 147.60953 43.03467 56.24114
#
# Poissons Ratio (x) = 0.11515 0.16482
# Poissons Ratio (y) = 0.39497 0.03730
# Poissons Ratio (z) = 0.43257 0.02854
#
# Static dielectric constant tensor:
#      x y z
#    x 3.772220 0.000000 0.000000 
#    y 0.000000 3.186190 0.000000 
#    z 0.000000 0.000000 3.338600 
# 
# 
# High freq. dielectric constant tensor:
#      x y z
#    x 1.729990 0.000000 0.000000 
#    y 0.000000 1.691190 0.000000 
#    z 0.000000 0.000000 1.710690 
# 
# From -- ./inp_files/30069.got.cif
#   From: 2010.03.12/outbox.cif.g09.slc.cpg/sg63_16_cif.got.tgz:30069.got - 2010.04.10 19:34:48.
