data_PCOD8255526
_publ_section_title
;
Structure prediction by ZEFSAII (Michael W. Deem and Ramdas Pophale) SiO2 
 PCOD8255526
Probable space group: C M C M
;
_chemical_formula_sum "Si O2"
_cell_formula_units_Z 96
_cell_length_a 19.438871
_cell_length_b 11.813627
_cell_length_c 24.321927
_cell_angle_alpha 90.000000
_cell_angle_beta 90.000000
_cell_angle_gamma 90.000000
_cell_volume 5585.374177
_symmetry_space_group_name_H-M "C M C M"
_symmetry_group_IT_number 63
_symmetry_cell_setting 'orthorhombic'
loop_
_space_group_symop_operation_xyz
x,y,z
-x,-y,1/2+z
x,-y,-z
-x,y,1/2-z
-x,-y,-z
x,y,1/2-z
-x,y,z
x,-y,1/2+z
1/2+x,1/2+y,z
1/2-x,1/2-y,1/2+z
1/2+x,1/2-y,-z
1/2-x,1/2+y,1/2-z
1/2-x,1/2-y,-z
1/2+x,1/2+y,1/2-z
1/2-x,1/2+y,z
1/2+x,1/2-y,1/2+z
loop_
_atom_site_type_symbol
_atom_site_label
_atom_site_fract_x
_atom_site_fract_y
_atom_site_fract_z
Si Si1 0.578483 0.190298 0.313783
Si Si2 0.826862 0.366055 0.966201
Si Si3 0.319878 0.323384 0.115542
Si Si4 0.169618 0.707212 0.588694
Si Si5 0.079040 0.507270 0.896941
Si Si6 0.821052 0.048741 0.058692
O O1 0.590907 0.167464 0.250000
O O2 0.500000 0.231333 0.325280
O O3 0.632919 0.284904 0.333448
O O4 0.593006 0.072639 0.344715
O O5 0.842276 0.244633 0.939200
O O6 0.889224 0.450593 0.951945
O O7 0.759497 0.423656 0.941153
O O8 0.812616 0.349847 0.030161
O O9 0.238719 0.298039 0.126036
O O10 0.334647 0.455481 0.105554
O O11 0.111235 0.630427 0.616865
O O12 0.141337 0.834869 0.578044
O O13 0.000000 0.526884 0.909375
O O14 0.847202 0.000000 0.000000
#
# Coordination Sequence:
#
# PCOD8255526 Si02
#       6
#    16  16  16  16  16  16
#     4   9  20  40  62  77  93 126 174 229 279 313
#     4  10  17  28  48  76 107 144 183 210 249 298
#     4  10  18  30  53  78 102 136 181 216 249 310
#     4  11  19  28  48  78 113 146 174 207 255 309
#     4  10  20  33  51  77 106 137 181 226 264 307
#     4  11  16  28  47  74 107 148 176 205 244 311
#
# _framework density 17.187747000000002
#
# number of rings (size 3 to 8) (size 9 to 14) (size 15 to 20)
#    0.000    1.833    5.000    1.500    0.000    1.333 
#    0.000    1.667    0.000    2.000    0.000    2.333 
#    0.000    0.000    0.000    0.000    0.000    0.000 
#
# Total GULP energy -594963.851940 kJ/mol
# GULP energy per Si atom -12395.080249 kJ/mol
# Density = 1.714863 g / cm^3
# Si number density = 17.187747 Si / 1000 Ang^3
#
#
#
# Elastic Constant Matrix: (Units=GPa)
#
#
# Indices 1 2 3 4 5 6 
#
# 1 74.5666 45.1987 23.6736 0.0000 0.0000 0.0000
# 2 45.1987 144.7153 28.3386 0.0000 0.0000 0.0000
# 3 23.6736 28.3386 58.7621 0.0000 0.0000 0.0000
# 4 0.0000 0.0000 0.0000 12.1180 0.0000 0.0000
# 5 0.0000 0.0000 0.0000 0.0000 23.2527 0.0000
# 6 0.0000 0.0000 0.0000 0.0000 0.0000 31.6137
#
#
#
# Elastic Compliance Matrix: (Units=1/GPa)
#
#
# Indices 1 2 3 4 5 6 
#
# 1 0.017755 -0.004577 -0.004946 0.000000 0.000000 0.000000
# 2 -0.004577 0.008811 -0.002405 0.000000 0.000000 0.000000
# 3 -0.004946 -0.002405 0.020170 0.000000 0.000000 0.000000
# 4 0.000000 0.000000 0.000000 0.082522 0.000000 0.000000
# 5 0.000000 0.000000 0.000000 0.000000 0.043006 0.000000
# 6 0.000000 0.000000 0.000000 0.000000 0.000000 0.031632
#
#
# Mechanical properties :
#
#
# Convention : Reuss Voigt Hill
#
# Bulk Modulus (GPa) = 43.70557 52.49620 48.10089
# Shear Modulus (GPa) = 21.24239 25.45240 23.34739
#
# Velocity S-wave (km/s) = 3.51935 3.85235 3.68961
# Velocity P-wave (km/s) = 6.48059 7.09906 6.79686
#
# Compressibility (1/GPa) = 0.02288038
#
# Stress axis : x y z
#
# Youngs Moduli (GPa) = 56.32081 113.49940 49.57808
#
# Poissons Ratio (x) = 0.51949 0.24521
# Poissons Ratio (y) = 0.25778 0.11924
# Poissons Ratio (z) = 0.27855 0.27297
#
# Static dielectric constant tensor:
#      x y z
#    x 3.116920 0.000000 0.000000 
#    y 0.000000 3.593870 0.000000 
#    z 0.000000 0.000000 2.874940 
# 
# 
# High freq. dielectric constant tensor:
#      x y z
#    x 1.643390 0.000000 0.000000 
#    y 0.000000 1.680010 0.000000 
#    z 0.000000 0.000000 1.621310 
# 
# From -- ./inp_files/63683.got.cif
#   From: 2010.03.12/outbox.cif.g09.slc.cpg/sg63_32_cif.got.tgz:63683.got - 2010.04.10 19:34:48.
