data_PCOD8255563
_publ_section_title
;
Structure prediction by ZEFSAII (Michael W. Deem and Ramdas Pophale) SiO2 
 PCOD8255563
Probable space group: C M C M
;
_chemical_formula_sum "Si O2"
_cell_formula_units_Z 112
_cell_length_a 22.419041
_cell_length_b 18.155905
_cell_length_c 18.433551
_cell_angle_alpha 90.000000
_cell_angle_beta 90.000000
_cell_angle_gamma 90.000000
_cell_volume 7503.155337
_symmetry_space_group_name_H-M "C M C M"
_symmetry_group_IT_number 63
_symmetry_cell_setting 'orthorhombic'
loop_
_space_group_symop_operation_xyz
x,y,z
-x,-y,1/2+z
x,-y,-z
-x,y,1/2-z
-x,-y,-z
x,y,1/2-z
-x,y,z
x,-y,1/2+z
1/2+x,1/2+y,z
1/2-x,1/2-y,1/2+z
1/2+x,1/2-y,-z
1/2-x,1/2+y,1/2-z
1/2-x,1/2-y,-z
1/2+x,1/2+y,1/2-z
1/2-x,1/2+y,z
1/2+x,1/2-y,1/2+z
loop_
_atom_site_type_symbol
_atom_site_label
_atom_site_fract_x
_atom_site_fract_y
_atom_site_fract_z
Si Si1 0.135218 0.462110 0.331809
Si Si2 0.069114 0.408566 0.601263
Si Si3 0.184083 0.770380 0.474217
Si Si4 0.348937 0.121788 0.972404
Si Si5 0.716044 0.420159 0.522140
Si Si6 0.147475 0.294924 0.830805
Si Si7 0.761259 0.427986 0.672062
O O1 0.125732 0.431458 0.250000
O O2 0.083696 0.521872 0.347468
O O3 0.133336 0.395380 0.389502
O O4 0.200342 0.498368 0.339624
O O5 0.106059 0.419300 0.526816
O O6 0.085799 0.331894 0.641919
O O7 0.000000 0.406950 0.581996
O O8 0.250000 0.750000 0.500000
O O9 0.143218 0.710011 0.515492
O O10 0.171498 0.855447 0.495060
O O11 0.172362 0.765659 0.387426
O O12 0.282733 0.093103 0.991940
O O13 0.691286 0.500000 0.500000
O O14 0.713093 0.418751 0.609326
O O15 0.139673 0.260283 0.750000
O O16 0.194841 0.359633 0.829844
O O17 0.728146 0.431132 0.750000
#
# Coordination Sequence:
#
# PCOD8255563 Si02
#       7
#    16  16  16  16  16  16  16
#     4  10  18  27  38  55  81 111 141 174 207 240
#     4  10  18  28  44  63  83 112 148 175 202 246
#     4   9  17  28  41  59  77 104 142 174 202 253
#     4  10  17  30  41  57  82 110 141 178 213 246
#     4  11  16  28  45  58  78 108 140 176 214 256
#     4   9  16  28  42  57  84 111 134 171 212 242
#     4   9  15  24  38  56  77 105 134 165 208 246
#
# _framework density 14.927053000000001
#
# number of rings (size 3 to 8) (size 9 to 14) (size 15 to 20)
#    0.000    2.286    7.143    1.714    0.000    2.286 
#    0.000    4.286    0.000    0.000    0.000    0.000 
#    0.000    9.143    0.000    0.000    0.000    9.143 
#
# Total GULP energy -693884.424799 kJ/mol
# GULP energy per Si atom -12390.793300 kJ/mol
# Density = 1.489308 g / cm^3
# Si number density = 14.927053 Si / 1000 Ang^3
#
#
#
# Elastic Constant Matrix: (Units=GPa)
#
#
# Indices 1 2 3 4 5 6 
#
# 1 25.0592 12.5937 23.8799 0.0000 0.0000 0.0000
# 2 12.5937 85.9665 46.1047 0.0000 0.0000 0.0000
# 3 23.8799 46.1047 143.6070 0.0000 0.0000 0.0000
# 4 0.0000 0.0000 0.0000 21.1026 0.0000 0.0000
# 5 0.0000 0.0000 0.0000 0.0000 9.1672 0.0000
# 6 0.0000 0.0000 0.0000 0.0000 0.0000 6.1283
#
#
#
# Elastic Compliance Matrix: (Units=1/GPa)
#
#
# Indices 1 2 3 4 5 6 
#
# 1 0.048199 -0.003337 -0.006944 0.000000 0.000000 0.000000
# 2 -0.003337 0.014283 -0.004031 0.000000 0.000000 0.000000
# 3 -0.006944 -0.004031 0.009412 0.000000 0.000000 0.000000
# 4 0.000000 0.000000 0.000000 0.047387 0.000000 0.000000
# 5 0.000000 0.000000 0.000000 0.000000 0.109085 0.000000
# 6 0.000000 0.000000 0.000000 0.000000 0.000000 0.163177
#
#
# Mechanical properties :
#
#
# Convention : Reuss Voigt Hill
#
# Bulk Modulus (GPa) = 23.10966 46.64327 34.87646
# Shear Modulus (GPa) = 11.50508 18.74991 15.12750
#
# Velocity S-wave (km/s) = 2.77926 3.54800 3.18689
# Velocity P-wave (km/s) = 5.08078 6.93539 6.07923
#
# Compressibility (1/GPa) = 0.04327196
#
# Stress axis : x y z
#
# Youngs Moduli (GPa) = 20.74713 70.01352 106.24645
#
# Poissons Ratio (x) = 0.23364 0.73773
# Poissons Ratio (y) = 0.06924 0.42824
# Poissons Ratio (z) = 0.14406 0.28220
#
# Static dielectric constant tensor:
#      x y z
#    x 2.427300 0.000000 0.000000 
#    y 0.000000 3.077820 0.000000 
#    z 0.000000 0.000000 2.337520 
# 
# 
# High freq. dielectric constant tensor:
#      x y z
#    x 1.502750 0.000000 0.000000 
#    y 0.000000 1.548430 0.000000 
#    z 0.000000 0.000000 1.589140 
# 
# From -- ./inp_files/47339.got.cif
#   From: 2010.03.12/outbox.cif.g09.slc.cpg/sg63_24_cif.got.tgz:47339.got - 2010.04.10 19:34:48.
