data_PCOD8255618
_publ_section_title
;
Structure prediction by ZEFSAII (Michael W. Deem and Ramdas Pophale) SiO2 
 PCOD8255618
Probable space group: C M C M
;
_chemical_formula_sum "Si O2"
_cell_formula_units_Z 96
_cell_length_a 32.312997
_cell_length_b 26.667763
_cell_length_c 9.230074
_cell_angle_alpha 90.000000
_cell_angle_beta 90.000000
_cell_angle_gamma 90.000000
_cell_volume 7953.696409
_symmetry_space_group_name_H-M "C M C M"
_symmetry_group_IT_number 63
_symmetry_cell_setting 'orthorhombic'
loop_
_space_group_symop_operation_xyz
x,y,z
-x,-y,1/2+z
x,-y,-z
-x,y,1/2-z
-x,-y,-z
x,y,1/2-z
-x,y,z
x,-y,1/2+z
1/2+x,1/2+y,z
1/2-x,1/2-y,1/2+z
1/2+x,1/2-y,-z
1/2-x,1/2+y,1/2-z
1/2-x,1/2-y,-z
1/2+x,1/2+y,1/2-z
1/2-x,1/2+y,z
1/2+x,1/2-y,1/2+z
loop_
_atom_site_type_symbol
_atom_site_label
_atom_site_fract_x
_atom_site_fract_y
_atom_site_fract_z
Si Si1 0.662501 0.298209 0.414008
Si Si2 0.453100 0.450017 0.581288
Si Si3 0.620245 0.619821 0.082252
Si Si4 0.788183 0.725080 0.919988
Si Si5 0.301022 0.447985 0.917989
Si Si6 0.242149 0.131259 0.589502
O O1 0.649880 0.284494 0.250000
O O2 0.625721 0.329969 0.487923
O O3 0.670149 0.246692 0.504774
O O4 0.703630 0.331186 0.419310
O O5 0.438817 0.500000 0.500000
O O6 0.448420 0.461806 0.750000
O O7 0.500000 0.435069 0.539529
O O8 0.423518 0.404241 0.536201
O O9 0.621197 0.635407 0.250000
O O10 0.655735 0.579191 0.049238
O O11 0.787614 0.739399 0.750000
O O12 0.783530 0.664612 0.940693
O O13 0.750000 0.750000 0.000000
O O14 0.293948 0.458171 0.750000
O O15 0.300995 0.500000 0.000000
O O16 0.263072 0.413394 0.974448
O O17 0.244427 0.107389 0.750000
#
# Coordination Sequence:
#
# PCOD8255618 Si02
#       6
#    16  16  16  16  16  16
#     4   9  16  24  35  50  65  81 100 124 154 189
#     4   9  17  28  40  52  65  82 105 133 166 204
#     4   9  17  27  37  49  64  82 103 129 163 201
#     4   9  15  23  35  49  65  83 101 123 150 183
#     4  10  18  25  34  46  61  81 104 131 161 192
#     4   8  15  25  34  45  61  80 101 123 149 182
#
# _framework density 12.06986
#
# number of rings (size 3 to 8) (size 9 to 14) (size 15 to 20)
#    0.000    3.000    0.000    3.000    0.000    6.000 
#    0.000    0.000    0.000    0.000    0.000    0.000 
#    0.000    0.000    0.000    0.000    0.000    0.000 
#
# Total GULP energy -594886.438264 kJ/mol
# GULP energy per Si atom -12393.467464 kJ/mol
# Density = 1.204239 g / cm^3
# Si number density = 12.069860 Si / 1000 Ang^3
#
#
#
# Elastic Constant Matrix: (Units=GPa)
#
#
# Indices 1 2 3 4 5 6 
#
# 1 43.7499 34.9418 29.5461 0.0000 0.0000 0.0000
# 2 34.9418 47.6490 40.0215 0.0000 0.0000 0.0000
# 3 29.5461 40.0215 78.7929 0.0000 0.0000 0.0000
# 4 0.0000 0.0000 0.0000 22.9547 0.0000 0.0000
# 5 0.0000 0.0000 0.0000 0.0000 11.8795 0.0000
# 6 0.0000 0.0000 0.0000 0.0000 0.0000 18.7815
#
#
#
# Elastic Compliance Matrix: (Units=1/GPa)
#
#
# Indices 1 2 3 4 5 6 
#
# 1 0.055170 -0.040255 -0.000241 0.000000 0.000000 0.000000
# 2 -0.040255 0.065974 -0.018415 0.000000 0.000000 0.000000
# 3 -0.000241 -0.018415 0.022136 0.000000 0.000000 0.000000
# 4 0.000000 0.000000 0.000000 0.043564 0.000000 0.000000
# 5 0.000000 0.000000 0.000000 0.000000 0.084179 0.000000
# 6 0.000000 0.000000 0.000000 0.000000 0.000000 0.053244
#
#
# Mechanical properties :
#
#
# Convention : Reuss Voigt Hill
#
# Bulk Modulus (GPa) = 39.28172 42.13451 40.70811
# Shear Modulus (GPa) = 11.09694 15.10198 13.09946
#
# Velocity S-wave (km/s) = 3.03544 3.54109 3.29797
# Velocity P-wave (km/s) = 6.70083 7.19053 6.94999
#
# Compressibility (1/GPa) = 0.02545713
#
# Stress axis : x y z
#
# Youngs Moduli (GPa) = 18.12570 15.15757 45.17576
#
# Poissons Ratio (x) = 0.61016 0.01090
# Poissons Ratio (y) = 0.72964 0.83193
# Poissons Ratio (z) = 0.00437 0.27913
#
# Static dielectric constant tensor:
#      x y z
#    x 2.378560 0.000000 0.000000 
#    y 0.000000 2.593660 0.000000 
#    z 0.000000 0.000000 2.657370 
# 
# 
# High freq. dielectric constant tensor:
#      x y z
#    x 1.407570 0.000000 0.000000 
#    y 0.000000 1.439140 0.000000 
#    z 0.000000 0.000000 1.473820 
# 
# From -- ./inp_files/12991.got.cif
#   From: 2010.03.12/outbox.cif.g09.slc.cpg/sg63_7_cif.got.tgz:12991.got - 2010.04.10 19:34:48.
