data_PCOD8255968
_publ_section_title
;
Structure prediction by ZEFSAII (Michael W. Deem and Ramdas Pophale) SiO2 
 PCOD8255968
Probable space group: C M C M
;
_chemical_formula_sum "Si O2"
_cell_formula_units_Z 56
_cell_length_a 29.128091
_cell_length_b 13.453921
_cell_length_c 8.626457
_cell_angle_alpha 90.000000
_cell_angle_beta 90.000000
_cell_angle_gamma 90.000000
_cell_volume 3380.596658
_symmetry_space_group_name_H-M "C M C M"
_symmetry_group_IT_number 63
_symmetry_cell_setting 'orthorhombic'
loop_
_space_group_symop_operation_xyz
x,y,z
-x,-y,1/2+z
x,-y,-z
-x,y,1/2-z
-x,-y,-z
x,y,1/2-z
-x,y,z
x,-y,1/2+z
1/2+x,1/2+y,z
1/2-x,1/2-y,1/2+z
1/2+x,1/2-y,-z
1/2-x,1/2+y,1/2-z
1/2-x,1/2-y,-z
1/2+x,1/2+y,1/2-z
1/2-x,1/2+y,z
1/2+x,1/2-y,1/2+z
loop_
_atom_site_type_symbol
_atom_site_label
_atom_site_fract_x
_atom_site_fract_y
_atom_site_fract_z
Si Si1 0.000000 0.110284 0.566404
Si Si2 0.680229 0.700472 0.929845
Si Si3 0.407133 0.609091 0.431960
Si Si4 0.732932 0.102069 0.068969
O O1 0.046807 0.160101 0.503098
O O2 0.000000 0.111532 0.750000
O O3 0.000000 0.000000 0.500000
O O4 0.669789 0.682295 0.750000
O O5 0.695477 0.813157 0.964375
O O6 0.634683 0.681529 0.028177
O O7 0.719774 0.624948 0.981464
O O8 0.397520 0.500000 0.500000
O O9 0.413231 0.598836 0.250000
O O10 0.743518 0.092703 0.250000
O O11 0.712710 0.000000 0.000000
#
# Coordination Sequence:
#
# PCOD8255968 Si02
#       4
#     8  16  16  16
#     4  10  18  30  46  66  93 122 153 188 228 274
#     4  10  20  33  48  68  93 123 158 191 228 273
#     4  11  20  31  47  68  95 125 156 190 229 273
#     4  10  20  33  49  68  93 123 155 193 232 272
#
# _framework density 16.565124000000001
#
# number of rings (size 3 to 8) (size 9 to 14) (size 15 to 20)
#    0.000    1.714    0.000    8.143    0.000    3.429 
#    0.000    0.000    0.000    0.000    0.000    1.000 
#    0.000    0.000    0.000    0.000    0.000    0.000 
#
# Total GULP energy -347256.285272 kJ/mol
# GULP energy per Si atom -12402.010188 kJ/mol
# Density = 1.652742 g / cm^3
# Si number density = 16.565124 Si / 1000 Ang^3
#
#
#
# Elastic Constant Matrix: (Units=GPa)
#
#
# Indices 1 2 3 4 5 6 
#
# 1 118.9485 36.4935 50.4060 0.0000 0.0000 0.0000
# 2 36.4935 79.0175 35.0065 0.0000 0.0000 0.0000
# 3 50.4060 35.0065 129.0349 0.0000 0.0000 0.0000
# 4 0.0000 0.0000 0.0000 24.5706 0.0000 0.0000
# 5 0.0000 0.0000 0.0000 0.0000 32.6590 0.0000
# 6 0.0000 0.0000 0.0000 0.0000 0.0000 18.2432
#
#
#
# Elastic Compliance Matrix: (Units=1/GPa)
#
#
# Indices 1 2 3 4 5 6 
#
# 1 0.010897 -0.003577 -0.003286 0.000000 0.000000 0.000000
# 2 -0.003577 0.015558 -0.002824 0.000000 0.000000 0.000000
# 3 -0.003286 -0.002824 0.009800 0.000000 0.000000 0.000000
# 4 0.000000 0.000000 0.000000 0.040699 0.000000 0.000000
# 5 0.000000 0.000000 0.000000 0.000000 0.030619 0.000000
# 6 0.000000 0.000000 0.000000 0.000000 0.000000 0.054815
#
#
# Mechanical properties :
#
#
# Convention : Reuss Voigt Hill
#
# Bulk Modulus (GPa) = 59.23716 63.42366 61.33041
# Shear Modulus (GPa) = 26.68244 28.76754 27.72499
#
# Velocity S-wave (km/s) = 4.01778 4.17181 4.09552
# Velocity P-wave (km/s) = 7.57372 7.84703 7.71159
#
# Compressibility (1/GPa) = 0.01688129
#
# Stress axis : x y z
#
# Youngs Moduli (GPa) = 91.76818 64.27462 102.04396
#
# Poissons Ratio (x) = 0.22989 0.33536
# Poissons Ratio (y) = 0.32823 0.28814
# Poissons Ratio (z) = 0.30159 0.18149
#
# Static dielectric constant tensor:
#      x y z
#    x 3.498760 0.000000 0.000000 
#    y 0.000000 2.921040 0.000000 
#    z 0.000000 0.000000 3.279290 
# 
# 
# High freq. dielectric constant tensor:
#      x y z
#    x 1.638410 0.000000 0.000000 
#    y 0.000000 1.601280 0.000000 
#    z 0.000000 0.000000 1.663230 
# 
# From -- ./inp_files/9526.got.cif
#   From: 2010.03.12/outbox.cif.g09.slc.cpg/sg63_5_cif.got.tgz:9526.got - 2010.04.10 19:34:48.
