data_PCOD8255428
_publ_section_title
;
Structure prediction by ZEFSAII (Michael W. Deem and Ramdas Pophale) SiO2 
 PCOD8255428
Probable space group: C M C M
;
_chemical_formula_sum "Si O2"
_cell_formula_units_Z 128
_cell_length_a 23.117390
_cell_length_b 16.398733
_cell_length_c 21.638427
_cell_angle_alpha 90.000000
_cell_angle_beta 90.000000
_cell_angle_gamma 90.000000
_cell_volume 8203.039094
_symmetry_space_group_name_H-M "C M C M"
_symmetry_group_IT_number 63
_symmetry_cell_setting 'orthorhombic'
loop_
_space_group_symop_operation_xyz
x,y,z
-x,-y,1/2+z
x,-y,-z
-x,y,1/2-z
-x,-y,-z
x,y,1/2-z
-x,y,z
x,-y,1/2+z
1/2+x,1/2+y,z
1/2-x,1/2-y,1/2+z
1/2+x,1/2-y,-z
1/2-x,1/2+y,1/2-z
1/2-x,1/2-y,-z
1/2+x,1/2+y,1/2-z
1/2-x,1/2+y,z
1/2+x,1/2-y,1/2+z
loop_
_atom_site_type_symbol
_atom_site_label
_atom_site_fract_x
_atom_site_fract_y
_atom_site_fract_z
Si Si1 0.741050 0.276766 0.177914
Si Si2 0.759149 0.611771 0.125564
Si Si3 0.803472 0.807744 0.516900
Si Si4 0.689042 0.593691 0.597973
Si Si5 0.641960 0.194696 0.891993
Si Si6 0.850245 0.044962 0.320842
Si Si7 0.934200 0.192627 0.321773
Si Si8 0.313891 0.971531 0.067742
O O1 0.742021 0.271217 0.250000
O O2 0.712689 0.195361 0.149181
O O3 0.702428 0.352330 0.157881
O O4 0.806115 0.284146 0.154117
O O5 0.720366 0.623637 0.063698
O O6 0.715804 0.577024 0.177923
O O7 0.812796 0.550306 0.112968
O O8 0.750000 0.750000 0.500000
O O9 0.835327 0.851144 0.458332
O O10 0.851511 0.748348 0.546048
O O11 0.645234 0.526082 0.626158
O O12 0.748178 0.560281 0.568061
O O13 0.583647 0.224858 0.858409
O O14 0.641744 0.098046 0.907925
O O15 0.863284 0.015812 0.250000
O O16 0.894757 0.115562 0.341121
O O17 0.926525 0.211922 0.250000
O O18 0.000000 0.170797 0.338549
O O19 0.333545 0.000000 0.000000
#
# Coordination Sequence:
#
# PCOD8255428 Si02
#       8
#    16  16  16  16  16  16  16  16
#     4  10  17  27  41  62  96 130 156 184 226 281
#     4  10  17  25  43  63  95 127 152 187 218 284
#     4  11  15  28  42  67  93 127 163 181 223 276
#     4  10  19  26  43  65  95 128 156 187 222 284
#     4  10  19  29  47  67  92 123 154 206 231 278
#     4  10  19  31  44  65  90 119 156 196 242 278
#     4  10  20  36  55  70  88 121 166 207 243 280
#     4  10  17  26  41  65  95 122 154 182 224 279
#
# _framework density 15.603973
#
# number of rings (size 3 to 8) (size 9 to 14) (size 15 to 20)
#    0.000    1.875    7.500    1.125    0.000    0.000 
#    0.000    1.875    0.000    1.875    0.000    0.000 
#    0.000    0.000    0.000    3.625    0.000    0.000 
#
# Total GULP energy -793083.444984 kJ/mol
# GULP energy per Si atom -12391.928828 kJ/mol
# Density = 1.556846 g / cm^3
# Si number density = 15.603973 Si / 1000 Ang^3
#
#
#
# Elastic Constant Matrix: (Units=GPa)
#
#
# Indices 1 2 3 4 5 6 
#
# 1 38.5174 26.8552 22.7496 0.0000 0.0000 0.0000
# 2 26.8552 104.8131 46.6899 0.0000 0.0000 0.0000
# 3 22.7496 46.6899 87.8728 0.0000 0.0000 0.0000
# 4 0.0000 0.0000 0.0000 29.8575 0.0000 0.0000
# 5 0.0000 0.0000 0.0000 0.0000 12.7952 0.0000
# 6 0.0000 0.0000 0.0000 0.0000 0.0000 11.3764
#
#
#
# Elastic Compliance Matrix: (Units=1/GPa)
#
#
# Indices 1 2 3 4 5 6 
#
# 1 0.033443 -0.006173 -0.005378 0.000000 0.000000 0.000000
# 2 -0.006173 0.013639 -0.005649 0.000000 0.000000 0.000000
# 3 -0.005378 -0.005649 0.015774 0.000000 0.000000 0.000000
# 4 0.000000 0.000000 0.000000 0.033492 0.000000 0.000000
# 5 0.000000 0.000000 0.000000 0.000000 0.078154 0.000000
# 6 0.000000 0.000000 0.000000 0.000000 0.000000 0.087902
#
#
# Mechanical properties :
#
#
# Convention : Reuss Voigt Hill
#
# Bulk Modulus (GPa) = 35.14230 47.08808 41.11519
# Shear Modulus (GPa) = 16.32451 19.79971 18.06211
#
# Velocity S-wave (km/s) = 3.23797 3.56601 3.40594
# Velocity P-wave (km/s) = 6.04562 6.87006 6.47099
#
# Compressibility (1/GPa) = 0.02845573
#
# Stress axis : x y z
#
# Youngs Moduli (GPa) = 29.90190 73.32124 63.39653
#
# Poissons Ratio (x) = 0.45261 0.34096
# Poissons Ratio (y) = 0.18458 0.35810
# Poissons Ratio (z) = 0.16082 0.41416
#
# Static dielectric constant tensor:
#      x y z
#    x 2.440990 0.000000 0.000000 
#    y 0.000000 3.407410 0.000000 
#    z 0.000000 0.000000 3.174820 
# 
# 
# High freq. dielectric constant tensor:
#      x y z
#    x 1.513500 0.000000 0.000000 
#    y 0.000000 1.615460 0.000000 
#    z 0.000000 0.000000 1.610320 
# 
# From -- ./inp_files/57768.got.cif
#   From: 2010.03.12/outbox.cif.g09.slc.cpg/sg63_29_cif.got.tgz:57768.got - 2010.04.10 19:34:48.
