data_PCOD8255049
_publ_section_title
;
Structure prediction by ZEFSAII (Michael W. Deem and Ramdas Pophale) SiO2 
 PCOD8255049
Probable space group: P N M A
;
_chemical_formula_sum "Si O2"
_cell_formula_units_Z 48
_cell_length_a 14.404875
_cell_length_b 16.294187
_cell_length_c 9.699985
_cell_angle_alpha 90.000000
_cell_angle_beta 90.000000
_cell_angle_gamma 90.000000
_cell_volume 2276.739031
_symmetry_space_group_name_H-M "P N M A"
_symmetry_group_IT_number 62
_symmetry_cell_setting 'orthorhombic'
loop_
_space_group_symop_operation_xyz
x,y,z
1/2-x,-y,1/2+z
1/2+x,1/2-y,1/2-z
-x,1/2+y,-z
-x,-y,-z
1/2+x,y,1/2-z
1/2-x,1/2+y,1/2+z
x,1/2-y,z
loop_
_atom_site_type_symbol
_atom_site_label
_atom_site_fract_x
_atom_site_fract_y
_atom_site_fract_z
Si Si1 0.996777 0.513301 0.337227
Si Si2 0.853293 0.339627 0.037055
Si Si3 0.964145 0.580343 0.919284
Si Si4 0.198731 0.963095 0.740249
Si Si5 0.230785 0.156716 0.025116
Si Si6 0.833719 0.392518 0.737641
O O1 0.889844 0.522239 0.287655
O O2 0.000000 0.500000 0.500000
O O3 0.039649 0.438259 0.245711
O O4 0.057761 0.594554 0.303591
O O5 0.822273 0.250000 0.093306
O O6 0.825624 0.342395 0.877480
O O7 0.804729 0.415451 0.114342
O O8 0.964132 0.346237 0.054421
O O9 0.866137 0.608661 0.979053
O O10 0.000000 0.500000 0.000000
O O11 0.199906 0.892684 0.624226
O O12 0.290999 0.016792 0.742266
O O13 0.217586 0.250000 0.076739
O O14 0.277157 0.158198 0.875238
#
# Coordination Sequence:
#
# PCOD8255049 Si02
#       6
#     8   8   8   8   8   8
#     4  11  22  38  65  95 119 162 222 271 311 376
#     4  11  24  41  62  92 130 168 211 275 332 379
#     4  11  21  42  65  92 123 172 226 264 319 402
#     4  11  23  41  66  91 126 170 224 261 317 402
#     4  12  24  40  63  97 133 169 213 281 338 380
#     4  12  23  41  67  92 127 170 222 269 314 399
#
# _framework density 21.082785000000001
#
# number of rings (size 3 to 8) (size 9 to 14) (size 15 to 20)
#    0.000    0.667    5.000    4.500    0.000    0.000 
#    0.000    0.000    0.000    2.000    0.000    0.000 
#    0.000    0.000    0.000    0.000    0.000    0.000 
#
# Total GULP energy -595096.606669 kJ/mol
# GULP energy per Si atom -12397.845972 kJ/mol
# Density = 2.103480 g / cm^3
# Si number density = 21.082785 Si / 1000 Ang^3
#
#
#
# Elastic Constant Matrix: (Units=GPa)
#
#
# Indices 1 2 3 4 5 6 
#
# 1 102.4979 33.4655 22.2207 0.0000 0.0000 0.0000
# 2 33.4655 97.6548 17.8627 0.0000 0.0000 0.0000
# 3 22.2207 17.8627 125.4844 0.0000 0.0000 0.0000
# 4 0.0000 0.0000 0.0000 26.3274 0.0000 0.0000
# 5 0.0000 0.0000 0.0000 0.0000 29.7944 0.0000
# 6 0.0000 0.0000 0.0000 0.0000 0.0000 17.8007
#
#
#
# Elastic Compliance Matrix: (Units=1/GPa)
#
#
# Indices 1 2 3 4 5 6 
#
# 1 0.011247 -0.003583 -0.001482 0.000000 0.000000 0.000000
# 2 -0.003583 0.011656 -0.001025 0.000000 0.000000 0.000000
# 3 -0.001482 -0.001025 0.008377 0.000000 0.000000 0.000000
# 4 0.000000 0.000000 0.000000 0.037983 0.000000 0.000000
# 5 0.000000 0.000000 0.000000 0.000000 0.033563 0.000000
# 6 0.000000 0.000000 0.000000 0.000000 0.000000 0.056178
#
#
# Mechanical properties :
#
#
# Convention : Reuss Voigt Hill
#
# Bulk Modulus (GPa) = 52.35295 52.52612 52.43953
# Shear Modulus (GPa) = 28.16093 31.59036 29.87565
#
# Velocity S-wave (km/s) = 3.65873 3.87511 3.76847
# Velocity P-wave (km/s) = 6.53716 6.70748 6.62287
#
# Compressibility (1/GPa) = 0.01910112
#
# Stress axis : x y z
#
# Youngs Moduli (GPa) = 88.90878 85.79584 119.36971
#
# Poissons Ratio (x) = 0.30744 0.17686
# Poissons Ratio (y) = 0.31860 0.12231
# Poissons Ratio (z) = 0.13173 0.08791
#
# Static dielectric constant tensor:
#      x y z
#    x 3.925780 0.000000 0.000000 
#    y 0.000000 3.567960 0.000000 
#    z 0.000000 0.000000 3.983730 
# 
# 
# High freq. dielectric constant tensor:
#      x y z
#    x 1.830990 0.000000 0.000000 
#    y 0.000000 1.801420 0.000000 
#    z 0.000000 0.000000 1.840990 
# 
# From -- ./inp_files/6479.got.cif
#   From: 2010.03.12/outbox.cif.g09.slc.cpg/sg62_4_cif.got.tgz:6479.got - 2010.04.10 19:12:36.
