data_PCOD8255442
_publ_section_title
;
Structure prediction by ZEFSAII (Michael W. Deem and Ramdas Pophale) SiO2 
 PCOD8255442
Probable space group: C M C M
;
_chemical_formula_sum "Si O2"
_cell_formula_units_Z 120
_cell_length_a 22.244558
_cell_length_b 23.555786
_cell_length_c 14.088722
_cell_angle_alpha 90.000000
_cell_angle_beta 90.000000
_cell_angle_gamma 90.000000
_cell_volume 7382.321938
_symmetry_space_group_name_H-M "C M C M"
_symmetry_group_IT_number 63
_symmetry_cell_setting 'orthorhombic'
loop_
_space_group_symop_operation_xyz
x,y,z
-x,-y,1/2+z
x,-y,-z
-x,y,1/2-z
-x,-y,-z
x,y,1/2-z
-x,y,z
x,-y,1/2+z
1/2+x,1/2+y,z
1/2-x,1/2-y,1/2+z
1/2+x,1/2-y,-z
1/2-x,1/2+y,1/2-z
1/2-x,1/2-y,-z
1/2+x,1/2+y,1/2-z
1/2-x,1/2+y,z
1/2+x,1/2-y,1/2+z
loop_
_atom_site_type_symbol
_atom_site_label
_atom_site_fract_x
_atom_site_fract_y
_atom_site_fract_z
Si Si1 0.929021 0.137695 0.972825
Si Si2 0.771285 0.579160 0.356825
Si Si3 0.068735 0.973517 0.359748
Si Si4 0.931422 0.514927 0.361150
Si Si5 0.928936 0.755295 0.142764
Si Si6 0.888015 0.362671 0.856367
Si Si7 0.837680 0.500000 0.000000
Si Si8 0.132814 0.089044 0.141428
O O1 0.909101 0.081447 0.916337
O O2 0.902961 0.192804 0.919172
O O3 0.000000 0.141370 0.982425
O O4 0.900430 0.135661 0.077466
O O5 0.776438 0.551025 0.250000
O O6 0.815280 0.633757 0.359060
O O7 0.792653 0.540699 0.444125
O O8 0.703402 0.596794 0.376145
O O9 0.074604 0.957771 0.250000
O O10 0.000000 0.989953 0.385588
O O11 0.111210 0.025958 0.387954
O O12 0.917501 0.508810 0.250000
O O13 0.917492 0.579494 0.397894
O O14 0.884615 0.474842 0.419699
O O15 0.000000 0.498499 0.384695
O O16 0.903258 0.761003 0.250000
O O17 0.908497 0.695783 0.093085
O O18 0.000000 0.758663 0.144454
O O19 0.913387 0.357699 0.750000
O O20 0.114945 0.101207 0.250000
#
# Coordination Sequence:
#
# PCOD8255442 Si02
#       8
#    16  16  16  16  16  16   8  16
#     4  10  19  29  44  68  94 114 141 186 233 272
#     4   9  19  32  45  65  90 119 155 193 224 259
#     4   9  17  29  45  65  91 118 142 177 227 278
#     4   9  16  26  42  67  96 121 149 183 223 272
#     4   9  16  27  46  70  92 113 138 174 227 283
#     4   8  14  27  45  64  89 118 146 180 224 265
#     4  10  17  26  44  64  89 118 146 186 228 266
#     4  10  20  32  45  61  83 119 160 187 218 264
#
# _framework density 16.255047999999999
#
# number of rings (size 3 to 8) (size 9 to 14) (size 15 to 20)
#    0.000    2.800    0.000    3.000    1.867    5.067 
#    0.000    0.667    0.000    0.000    0.000    7.467 
#    0.000    8.533    0.000    0.000    0.000    0.000 
#
# Total GULP energy -743303.323282 kJ/mol
# GULP energy per Si atom -12388.388721 kJ/mol
# Density = 1.621805 g / cm^3
# Si number density = 16.255048 Si / 1000 Ang^3
#
#
#
# Elastic Constant Matrix: (Units=GPa)
#
#
# Indices 1 2 3 4 5 6 
#
# 1 45.0990 13.6869 23.3113 0.0000 0.0000 0.0000
# 2 13.6869 56.4054 44.0274 0.0000 0.0000 0.0000
# 3 23.3113 44.0274 87.2274 0.0000 0.0000 0.0000
# 4 0.0000 0.0000 0.0000 19.8083 0.0000 0.0000
# 5 0.0000 0.0000 0.0000 0.0000 27.2169 0.0000
# 6 0.0000 0.0000 0.0000 0.0000 0.0000 9.7985
#
#
#
# Elastic Compliance Matrix: (Units=1/GPa)
#
#
# Indices 1 2 3 4 5 6 
#
# 1 0.025799 -0.001450 -0.006163 0.000000 0.000000 0.000000
# 2 -0.001450 0.029336 -0.014420 0.000000 0.000000 0.000000
# 3 -0.006163 -0.014420 0.020390 0.000000 0.000000 0.000000
# 4 0.000000 0.000000 0.000000 0.050484 0.000000 0.000000
# 5 0.000000 0.000000 0.000000 0.000000 0.036742 0.000000
# 6 0.000000 0.000000 0.000000 0.000000 0.000000 0.102056
#
#
# Mechanical properties :
#
#
# Convention : Reuss Voigt Hill
#
# Bulk Modulus (GPa) = 31.78661 38.97589 35.38125
# Shear Modulus (GPa) = 15.65642 18.54515 17.10078
#
# Velocity S-wave (km/s) = 3.10687 3.38136 3.24702
# Velocity P-wave (km/s) = 5.69803 6.26695 5.98925
#
# Compressibility (1/GPa) = 0.03145979
#
# Stress axis : x y z
#
# Youngs Moduli (GPa) = 38.76120 34.08796 49.04475
#
# Poissons Ratio (x) = 0.04942 0.30226
# Poissons Ratio (y) = 0.05619 0.70721
# Poissons Ratio (z) = 0.23889 0.49154
#
# Static dielectric constant tensor:
#      x y z
#    x 3.099100 0.000000 0.000000 
#    y 0.000000 2.975590 0.000000 
#    z 0.000000 0.000000 3.224500 
# 
# 
# High freq. dielectric constant tensor:
#      x y z
#    x 1.622740 0.000000 0.000000 
#    y 0.000000 1.587470 0.000000 
#    z 0.000000 0.000000 1.624140 
# 
# From -- ./inp_files/35924.got.cif
#   From: 2010.03.12/outbox.cif.g09.slc.cpg/sg63_18_cif.got.tgz:35924.got - 2010.04.10 19:34:48.
