data_PCOD8255057
_publ_section_title
;
Structure prediction by ZEFSAII (Michael W. Deem and Ramdas Pophale) SiO2 
 PCOD8255057
Probable space group: P N M A
;
_chemical_formula_sum "Si O2"
_cell_formula_units_Z 40
_cell_length_a 18.841993
_cell_length_b 10.163527
_cell_length_c 10.204689
_cell_angle_alpha 90.000000
_cell_angle_beta 90.000000
_cell_angle_gamma 90.000000
_cell_volume 1954.209215
_symmetry_space_group_name_H-M "P N M A"
_symmetry_group_IT_number 62
_symmetry_cell_setting 'orthorhombic'
loop_
_space_group_symop_operation_xyz
x,y,z
1/2-x,-y,1/2+z
1/2+x,1/2-y,1/2-z
-x,1/2+y,-z
-x,-y,-z
1/2+x,y,1/2-z
1/2-x,1/2+y,1/2+z
x,1/2-y,z
loop_
_atom_site_type_symbol
_atom_site_label
_atom_site_fract_x
_atom_site_fract_y
_atom_site_fract_z
Si Si1 0.376933 0.250000 0.979112
Si Si2 0.108696 0.250000 0.511126
Si Si3 0.706258 0.488269 0.064221
Si Si4 0.307000 0.595153 0.647566
Si Si5 0.002189 0.750000 0.286424
Si Si6 0.970262 0.517169 0.857328
Si Si7 0.979909 0.250000 0.306119
O O1 0.400471 0.250000 0.131203
O O2 0.335111 0.375979 0.931964
O O3 0.454044 0.250000 0.918128
O O4 0.156389 0.121672 0.497580
O O5 0.078656 0.250000 0.660294
O O6 0.048311 0.250000 0.400704
O O7 0.727273 0.448789 0.213029
O O8 0.774487 0.508658 0.970818
O O9 0.290589 0.750000 0.625482
O O10 0.390443 0.570362 0.646162
O O11 0.023166 0.875678 0.204949
O O12 0.019305 0.619652 0.781252
O O13 0.000000 0.500000 0.000000
#
# Coordination Sequence:
#
# PCOD8255057 Si02
#       7
#     4   4   8   8   4   8   4
#     4  11  22  39  71 103 123 175 228 288 324 407
#     4  11  22  43  73  97 131 177 224 294 338 401
#     4  12  24  45  71  98 140 180 232 286 348 417
#     4  12  26  49  70 100 141 187 230 290 351 409
#     4  11  23  39  69 105 127 166 236 269 338 413
#     4  12  24  43  67  97 141 182 218 283 350 411
#     4  11  21  43  71  93 139 176 224 277 350 401
#
# _framework density 20.468637999999999
#
# number of rings (size 3 to 8) (size 9 to 14) (size 15 to 20)
#    0.000    0.400    7.000    1.800    0.000    8.000 
#    0.000    0.000    0.000    0.000    0.000    0.000 
#    0.000    0.000    0.000    0.000    0.000    0.000 
#
# Total GULP energy -495965.303762 kJ/mol
# GULP energy per Si atom -12399.132594 kJ/mol
# Density = 2.042205 g / cm^3
# Si number density = 20.468638 Si / 1000 Ang^3
#
#
#
# Elastic Constant Matrix: (Units=GPa)
#
#
# Indices 1 2 3 4 5 6 
#
# 1 30.8910 14.8304 35.7092 0.0000 0.0000 0.0000
# 2 14.8304 142.2337 22.0392 0.0000 0.0000 0.0000
# 3 35.7092 22.0392 113.2828 0.0000 0.0000 0.0000
# 4 0.0000 0.0000 0.0000 31.6916 0.0000 0.0000
# 5 0.0000 0.0000 0.0000 0.0000 41.7767 0.0000
# 6 0.0000 0.0000 0.0000 0.0000 0.0000 15.9946
#
#
#
# Elastic Compliance Matrix: (Units=1/GPa)
#
#
# Indices 1 2 3 4 5 6 
#
# 1 0.052126 -0.002979 -0.015852 0.000000 0.000000 0.000000
# 2 -0.002979 0.007419 -0.000504 0.000000 0.000000 0.000000
# 3 -0.015852 -0.000504 0.013922 0.000000 0.000000 0.000000
# 4 0.000000 0.000000 0.000000 0.031554 0.000000 0.000000
# 5 0.000000 0.000000 0.000000 0.000000 0.023937 0.000000
# 6 0.000000 0.000000 0.000000 0.000000 0.000000 0.062521
#
#
# Mechanical properties :
#
#
# Convention : Reuss Voigt Hill
#
# Bulk Modulus (GPa) = 28.73733 47.95169 38.34451
# Shear Modulus (GPa) = 20.68254 32.14781 26.41517
#
# Velocity S-wave (km/s) = 3.18221 3.96736 3.59628
# Velocity P-wave (km/s) = 5.25091 6.66816 6.00152
#
# Compressibility (1/GPa) = 0.03479794
#
# Stress axis : x y z
#
# Youngs Moduli (GPa) = 19.18419 134.78094 71.82652
#
# Poissons Ratio (x) = 0.40149 1.13858
# Poissons Ratio (y) = 0.05715 0.03623
# Poissons Ratio (z) = 0.30410 0.06799
#
# Static dielectric constant tensor:
#      x y z
#    x 3.709500 0.000000 0.000000 
#    y 0.000000 3.971550 0.000000 
#    z 0.000000 0.000000 3.993820 
# 
# 
# High freq. dielectric constant tensor:
#      x y z
#    x 1.793600 0.000000 0.000000 
#    y 0.000000 1.821650 0.000000 
#    z 0.000000 0.000000 1.811250 
# 
# From -- ./inp_files/9164.got.cif
#   From: 2010.03.12/outbox.cif.g09.slc.cpg/sg62_5_cif.got.tgz:9164.got - 2010.04.10 19:12:36.
