data_PCOD8255016
_publ_section_title
;
Structure prediction by ZEFSAII (Michael W. Deem and Ramdas Pophale) SiO2 
 PCOD8255016
Probable space group: P N M A
;
_chemical_formula_sum "Si O2"
_cell_formula_units_Z 48
_cell_length_a 10.254283
_cell_length_b 8.607031
_cell_length_c 29.218511
_cell_angle_alpha 90.000000
_cell_angle_beta 90.000000
_cell_angle_gamma 90.000000
_cell_volume 2578.794566
_symmetry_space_group_name_H-M "P N M A"
_symmetry_group_IT_number 62
_symmetry_cell_setting 'orthorhombic'
loop_
_space_group_symop_operation_xyz
x,y,z
1/2-x,-y,1/2+z
1/2+x,1/2-y,1/2-z
-x,1/2+y,-z
-x,-y,-z
1/2+x,y,1/2-z
1/2-x,1/2+y,1/2+z
x,1/2-y,z
loop_
_atom_site_type_symbol
_atom_site_label
_atom_site_fract_x
_atom_site_fract_y
_atom_site_fract_z
Si Si1 0.988195 0.432682 0.216734
Si Si2 0.274148 0.931501 0.114554
Si Si3 0.720058 0.565297 0.787776
Si Si4 0.627138 0.570011 0.522831
Si Si5 0.874269 0.432772 0.475992
Si Si6 0.999705 0.571924 0.884977
O O1 0.987379 0.250000 0.224421
O O2 0.134953 0.496793 0.225288
O O3 0.944799 0.475391 0.164877
O O4 0.884488 0.507215 0.252045
O O5 0.294102 0.750000 0.119839
O O6 0.318275 0.011981 0.161533
O O7 0.365622 0.993653 0.074262
O O8 0.124328 0.967767 0.101688
O O9 0.719061 0.750000 0.786453
O O10 0.500000 0.500000 0.500000
O O11 0.643633 0.750000 0.508762
O O12 0.750768 0.473253 0.507175
O O13 0.613509 0.551016 0.577776
O O14 0.886378 0.250000 0.470873
O O15 0.000000 0.500000 0.500000
O O16 0.949301 0.750000 0.883752
#
# Coordination Sequence:
#
# PCOD8255016 Si02
#       6
#     8   8   8   8   8   8
#     4   8  15  30  53  78 105 137 183 228 269 325
#     4  11  21  35  57  82 111 148 190 229 281 343
#     4   9  17  33  55  79 106 141 182 228 277 330
#     4  11  21  35  59  89 118 150 191 234 278 331
#     4  12  25  42  60  82 116 152 191 238 290 345
#     4   9  18  34  57  84 112 145 189 233 273 328
#
# _framework density 18.613348999999999
#
# number of rings (size 3 to 8) (size 9 to 14) (size 15 to 20)
#    0.000    2.000    1.667    4.500    0.000    0.667 
#    3.000    3.333    0.000    0.000    0.000    0.000 
#    0.000    0.000    0.000    0.000    0.000    0.000 
#
# Total GULP energy -595174.913490 kJ/mol
# GULP energy per Si atom -12399.477364 kJ/mol
# Density = 1.857098 g / cm^3
# Si number density = 18.613349 Si / 1000 Ang^3
#
#
#
# Elastic Constant Matrix: (Units=GPa)
#
#
# Indices 1 2 3 4 5 6 
#
# 1 108.3709 12.9641 71.6014 0.0000 0.0000 0.0000
# 2 12.9641 41.9241 11.9614 0.0000 0.0000 0.0000
# 3 71.6014 11.9614 136.0355 0.0000 0.0000 0.0000
# 4 0.0000 0.0000 0.0000 24.4604 0.0000 0.0000
# 5 0.0000 0.0000 0.0000 0.0000 38.5423 0.0000
# 6 0.0000 0.0000 0.0000 0.0000 0.0000 24.9905
#
#
#
# Elastic Compliance Matrix: (Units=1/GPa)
#
#
# Indices 1 2 3 4 5 6 
#
# 1 0.014369 -0.002344 -0.007357 0.000000 0.000000 0.000000
# 2 -0.002344 0.024849 -0.000951 0.000000 0.000000 0.000000
# 3 -0.007357 -0.000951 0.011307 0.000000 0.000000 0.000000
# 4 0.000000 0.000000 0.000000 0.040882 0.000000 0.000000
# 5 0.000000 0.000000 0.000000 0.000000 0.025945 0.000000
# 6 0.000000 0.000000 0.000000 0.000000 0.000000 0.040015
#
#
# Mechanical properties :
#
#
# Convention : Reuss Voigt Hill
#
# Bulk Modulus (GPa) = 34.22276 53.26492 43.74384
# Shear Modulus (GPa) = 26.53766 30.25222 28.39494
#
# Velocity S-wave (km/s) = 3.77998 4.03587 3.91002
# Velocity P-wave (km/s) = 6.12185 7.09904 6.62848
#
# Compressibility (1/GPa) = 0.02922032
#
# Stress axis : x y z
#
# Youngs Moduli (GPa) = 69.59610 40.24324 88.44235
#
# Poissons Ratio (x) = 0.09434 0.65064
# Poissons Ratio (y) = 0.16315 0.08411
# Poissons Ratio (z) = 0.51200 0.03827
#
# Static dielectric constant tensor:
#      x y z
#    x 3.419680 0.000000 0.000000 
#    y 0.000000 3.290610 0.000000 
#    z 0.000000 0.000000 3.832270 
# 
# 
# High freq. dielectric constant tensor:
#      x y z
#    x 1.704690 0.000000 0.000000 
#    y 0.000000 1.709220 0.000000 
#    z 0.000000 0.000000 1.737740 
# 
# From -- ./inp_files/32046.got.cif
#   From: 2010.03.12/outbox.cif.g09.slc.cpg/sg62_17_cif.got.tgz:32046.got - 2010.04.10 19:12:36.
