data_PCOD8255924
_publ_section_title
;
Structure prediction by ZEFSAII (Michael W. Deem and Ramdas Pophale) SiO2 
 PCOD8255924
Probable space group: C M C M
;
_chemical_formula_sum "Si O2"
_cell_formula_units_Z 128
_cell_length_a 12.390625
_cell_length_b 25.085144
_cell_length_c 23.383484
_cell_angle_alpha 90.000000
_cell_angle_beta 90.000000
_cell_angle_gamma 90.000000
_cell_volume 7268.068816
_symmetry_space_group_name_H-M "C M C M"
_symmetry_group_IT_number 63
_symmetry_cell_setting 'orthorhombic'
loop_
_space_group_symop_operation_xyz
x,y,z
-x,-y,1/2+z
x,-y,-z
-x,y,1/2-z
-x,-y,-z
x,y,1/2-z
-x,y,z
x,-y,1/2+z
1/2+x,1/2+y,z
1/2-x,1/2-y,1/2+z
1/2+x,1/2-y,-z
1/2-x,1/2+y,1/2-z
1/2-x,1/2-y,-z
1/2+x,1/2+y,1/2-z
1/2-x,1/2+y,z
1/2+x,1/2-y,1/2+z
loop_
_atom_site_type_symbol
_atom_site_label
_atom_site_fract_x
_atom_site_fract_y
_atom_site_fract_z
Si Si1 0.620829 0.441244 0.452799
Si Si2 0.125598 0.897120 0.684711
Si Si3 0.297120 0.551391 0.072707
Si Si4 0.258109 0.289404 0.686277
Si Si5 0.755604 0.847163 0.081169
Si Si6 0.124809 0.259692 0.584529
Si Si7 0.122959 0.683647 0.685550
Si Si8 0.873877 0.371706 0.527570
O O1 0.500000 0.460889 0.438621
O O2 0.627841 0.426908 0.520692
O O3 0.707302 0.487274 0.435691
O O4 0.644877 0.388322 0.416295
O O5 0.155263 0.915842 0.750000
O O6 0.155407 0.940327 0.636463
O O7 0.191471 0.844943 0.666349
O O8 0.000000 0.883590 0.681871
O O9 0.182319 0.581772 0.065553
O O10 0.212989 0.293572 0.750000
O O11 0.154061 0.272711 0.649902
O O12 0.353958 0.246516 0.681067
O O13 0.800774 0.789132 0.062663
O O14 0.701289 0.848024 0.143315
O O15 0.668925 0.871166 0.037021
O O16 0.152413 0.312500 0.549451
O O17 0.000000 0.243459 0.579679
O O18 0.144029 0.662937 0.750000
O O19 0.000000 0.674099 0.666985
O O20 0.000000 0.384508 0.529128
#
# Coordination Sequence:
#
# PCOD8255924 Si02
#       8
#    16  16  16  16  16  16  16  16
#     4  10  20  35  55  77 103 136 174 214 253 306
#     4  10  18  29  49  76 103 130 164 209 258 306
#     4  10  19  35  54  75 102 134 171 212 260 306
#     4   9  17  29  46  72 102 132 168 208 250 306
#     4  10  20  33  51  74 102 134 173 211 255 300
#     4  10  19  32  49  71 104 139 168 207 254 306
#     4   9  17  31  50  71  99 134 169 208 255 304
#     4  10  20  34  52  75 104 132 168 214 260 311
#
# _framework density 17.611281000000002
#
# number of rings (size 3 to 8) (size 9 to 14) (size 15 to 20)
#    0.000    2.250    1.250    3.000    0.000    1.750 
#    0.000    6.250    0.000    2.250    0.000    0.000 
#    0.000    0.000    0.000    0.000    0.000    0.000 
#
# Total GULP energy -793206.094594 kJ/mol
# GULP energy per Si atom -12393.845228 kJ/mol
# Density = 1.757120 g / cm^3
# Si number density = 17.611281 Si / 1000 Ang^3
#
#
#
# Elastic Constant Matrix: (Units=GPa)
#
#
# Indices 1 2 3 4 5 6 
#
# 1 78.6724 36.4146 29.4419 0.0000 0.0000 0.0000
# 2 36.4146 85.4923 33.7582 0.0000 0.0000 0.0000
# 3 29.4419 33.7582 91.3472 0.0000 0.0000 0.0000
# 4 0.0000 0.0000 0.0000 24.6986 0.0000 0.0000
# 5 0.0000 0.0000 0.0000 0.0000 22.3762 0.0000
# 6 0.0000 0.0000 0.0000 0.0000 0.0000 22.8737
#
#
#
# Elastic Compliance Matrix: (Units=1/GPa)
#
#
# Indices 1 2 3 4 5 6 
#
# 1 0.016596 -0.005804 -0.003204 0.000000 0.000000 0.000000
# 2 -0.005804 0.015725 -0.003941 0.000000 0.000000 0.000000
# 3 -0.003204 -0.003941 0.013436 0.000000 0.000000 0.000000
# 4 0.000000 0.000000 0.000000 0.040488 0.000000 0.000000
# 5 0.000000 0.000000 0.000000 0.000000 0.044690 0.000000
# 6 0.000000 0.000000 0.000000 0.000000 0.000000 0.043718
#
#
# Mechanical properties :
#
#
# Convention : Reuss Voigt Hill
#
# Bulk Modulus (GPa) = 50.35198 50.52679 50.43939
# Shear Modulus (GPa) = 24.13445 24.38283 24.25864
#
# Velocity S-wave (km/s) = 3.70590 3.72492 3.71543
# Velocity P-wave (km/s) = 6.85306 6.87404 6.86356
#
# Compressibility (1/GPa) = 0.01986019
#
# Stress axis : x y z
#
# Youngs Moduli (GPa) = 60.25374 63.59257 74.42495
#
# Poissons Ratio (x) = 0.36908 0.23848
# Poissons Ratio (y) = 0.34970 0.29329
# Poissons Ratio (z) = 0.19307 0.25060
#
# Static dielectric constant tensor:
#      x y z
#    x 3.143980 0.000000 0.000000 
#    y 0.000000 3.192300 0.000000 
#    z 0.000000 0.000000 3.325860 
# 
# 
# High freq. dielectric constant tensor:
#      x y z
#    x 1.670860 0.000000 0.000000 
#    y 0.000000 1.669440 0.000000 
#    z 0.000000 0.000000 1.679820 
# 
# From -- ./inp_files/62137.got.cif
#   From: 2010.03.12/outbox.cif.g09.slc.cpg/sg63_32_cif.got.tgz:62137.got - 2010.04.10 19:34:48.
