data_PCOD8255920
_publ_section_title
;
Structure prediction by ZEFSAII (Michael W. Deem and Ramdas Pophale) SiO2 
 PCOD8255920
Probable space group: C M C M
;
_chemical_formula_sum "Si O2"
_cell_formula_units_Z 112
_cell_length_a 21.253941
_cell_length_b 18.667140
_cell_length_c 17.860055
_cell_angle_alpha 90.000000
_cell_angle_beta 90.000000
_cell_angle_gamma 90.000000
_cell_volume 7085.982040
_symmetry_space_group_name_H-M "C M C M"
_symmetry_group_IT_number 63
_symmetry_cell_setting 'orthorhombic'
loop_
_space_group_symop_operation_xyz
x,y,z
-x,-y,1/2+z
x,-y,-z
-x,y,1/2-z
-x,-y,-z
x,y,1/2-z
-x,y,z
x,-y,1/2+z
1/2+x,1/2+y,z
1/2-x,1/2-y,1/2+z
1/2+x,1/2-y,-z
1/2-x,1/2+y,1/2-z
1/2-x,1/2-y,-z
1/2+x,1/2+y,1/2-z
1/2-x,1/2+y,z
1/2+x,1/2-y,1/2+z
loop_
_atom_site_type_symbol
_atom_site_label
_atom_site_fract_x
_atom_site_fract_y
_atom_site_fract_z
Si Si1 0.568490 0.064202 0.556633
Si Si2 0.572323 0.784844 0.520045
Si Si3 0.149397 0.732076 0.334749
Si Si4 0.760824 0.829453 0.410103
Si Si5 0.743970 0.613505 0.334842
Si Si6 0.824235 0.206599 0.062169
Si Si7 0.800263 0.522274 0.913391
O O1 0.500000 0.074217 0.598505
O O2 0.586353 0.136289 0.511718
O O3 0.627579 0.043764 0.610132
O O4 0.559072 0.000000 0.500000
O O5 0.500000 0.764236 0.517114
O O6 0.593831 0.783276 0.606627
O O7 0.606546 0.723972 0.469630
O O8 0.122475 0.733647 0.250000
O O9 0.182458 0.807897 0.354163
O O10 0.201659 0.671630 0.345303
O O11 0.778921 0.818213 0.495925
O O12 0.700295 0.778742 0.396872
O O13 0.744788 0.911426 0.395910
O O14 0.722859 0.603302 0.250000
O O15 0.681046 0.640421 0.378997
O O16 0.772993 0.539929 0.363051
O O17 0.799289 0.500000 0.000000
#
# Coordination Sequence:
#
# PCOD8255920 Si02
#       7
#    16  16  16  16  16  16  16
#     4   9  17  26  41  68 100 131 163 196 227 270
#     4  10  18  29  49  73  94 128 173 202 229 280
#     4   9  18  31  44  65  99 131 157 197 248 292
#     4   9  16  26  47  67  90 126 159 195 246 288
#     4  10  20  31  47  70  97 127 162 199 249 295
#     4   9  16  31  45  67  95 124 157 204 243 281
#     4  11  17  27  47  72  94 127 160 201 238 284
#
# _framework density 15.805854
#
# number of rings (size 3 to 8) (size 9 to 14) (size 15 to 20)
#    0.000    2.429    2.857    2.571    0.000    0.857 
#    0.000    0.000    0.000    1.714    0.000   10.000 
#    0.000    0.000    0.000    0.000    0.000    0.000 
#
# Total GULP energy -693854.896818 kJ/mol
# GULP energy per Si atom -12390.266015 kJ/mol
# Density = 1.576988 g / cm^3
# Si number density = 15.805854 Si / 1000 Ang^3
#
#
#
# Elastic Constant Matrix: (Units=GPa)
#
#
# Indices 1 2 3 4 5 6 
#
# 1 73.8825 51.0017 40.7217 0.0000 0.0000 0.0000
# 2 51.0017 100.0191 41.7462 0.0000 0.0000 0.0000
# 3 40.7217 41.7462 85.4311 0.0000 0.0000 0.0000
# 4 0.0000 0.0000 0.0000 19.7395 0.0000 0.0000
# 5 0.0000 0.0000 0.0000 0.0000 14.7167 0.0000
# 6 0.0000 0.0000 0.0000 0.0000 0.0000 34.2148
#
#
#
# Elastic Compliance Matrix: (Units=1/GPa)
#
#
# Indices 1 2 3 4 5 6 
#
# 1 0.023628 -0.009230 -0.006752 0.000000 0.000000 0.000000
# 2 -0.009230 0.016165 -0.003500 0.000000 0.000000 0.000000
# 3 -0.006752 -0.003500 0.016634 0.000000 0.000000 0.000000
# 4 0.000000 0.000000 0.000000 0.050660 0.000000 0.000000
# 5 0.000000 0.000000 0.000000 0.000000 0.067950 0.000000
# 6 0.000000 0.000000 0.000000 0.000000 0.000000 0.029227
#
#
# Mechanical properties :
#
#
# Convention : Reuss Voigt Hill
#
# Bulk Modulus (GPa) = 57.26244 58.47465 57.86855
# Shear Modulus (GPa) = 20.07626 22.12508 21.10067
#
# Velocity S-wave (km/s) = 3.56782 3.74545 3.65772
# Velocity P-wave (km/s) = 7.29930 7.46863 7.38445
#
# Compressibility (1/GPa) = 0.01746345
#
# Stress axis : x y z
#
# Youngs Moduli (GPa) = 42.32186 61.86029 60.11783
#
# Poissons Ratio (x) = 0.57099 0.40594
# Poissons Ratio (y) = 0.39064 0.21039
# Poissons Ratio (z) = 0.28577 0.21648
#
# Static dielectric constant tensor:
#      x y z
#    x 3.021920 0.000000 0.000000 
#    y 0.000000 3.057850 0.000000 
#    z 0.000000 0.000000 2.901170 
# 
# 
# High freq. dielectric constant tensor:
#      x y z
#    x 1.586560 0.000000 0.000000 
#    y 0.000000 1.606280 0.000000 
#    z 0.000000 0.000000 1.583500 
# 
# From -- ./inp_files/47349.got.cif
#   From: 2010.03.12/outbox.cif.g09.slc.cpg/sg63_24_cif.got.tgz:47349.got - 2010.04.10 19:34:48.
