data_PCOD8255283
_publ_section_title
;
Structure prediction by ZEFSAII (Michael W. Deem and Ramdas Pophale) SiO2 
 PCOD8255283
Probable space group: P N M A
;
_chemical_formula_sum "Si O2"
_cell_formula_units_Z 56
_cell_length_a 29.089134
_cell_length_b 9.299707
_cell_length_c 13.726002
_cell_angle_alpha 90.000000
_cell_angle_beta 90.000000
_cell_angle_gamma 90.000000
_cell_volume 3713.163868
_symmetry_space_group_name_H-M "P N M A"
_symmetry_group_IT_number 62
_symmetry_cell_setting 'orthorhombic'
loop_
_space_group_symop_operation_xyz
x,y,z
1/2-x,-y,1/2+z
1/2+x,1/2-y,1/2-z
-x,1/2+y,-z
-x,-y,-z
1/2+x,y,1/2-z
1/2-x,1/2+y,1/2+z
x,1/2-y,z
loop_
_atom_site_type_symbol
_atom_site_label
_atom_site_fract_x
_atom_site_fract_y
_atom_site_fract_z
Si Si1 0.181485 0.082521 0.728867
Si Si2 0.681646 0.418252 0.221593
Si Si3 0.596798 0.415778 0.102717
Si Si4 0.273493 0.082864 0.392719
Si Si5 0.909991 0.579838 0.382529
Si Si6 0.504160 0.917904 0.899117
Si Si7 0.771984 0.418661 0.885627
O O1 0.182613 0.250000 0.752426
O O2 0.133010 0.036232 0.683443
O O3 0.221232 0.040431 0.652423
O O4 0.188158 0.999885 0.830310
O O5 0.677386 0.250000 0.245064
O O6 0.635398 0.484533 0.172844
O O7 0.722828 0.451288 0.147111
O O8 0.689467 0.499669 0.323179
O O9 0.610197 0.250000 0.092528
O O10 0.546122 0.435834 0.151259
O O11 0.598946 0.477728 0.992591
O O12 0.284866 0.250000 0.385179
O O13 0.275966 0.028445 0.503492
O O14 0.919821 0.750000 0.381110
O O15 0.954736 0.495542 0.339392
O O16 0.515427 0.750000 0.915147
O O17 0.500000 0.000000 0.000000
O O18 0.780925 0.250000 0.876292
#
# Coordination Sequence:
#
# PCOD8255283 Si02
#       7
#     8   8   8   8   8   8   8
#     4   9  17  28  43  61  82 109 140 168 199 240
#     4   9  16  27  43  61  79 106 141 168 192 234
#     4   8  14  25  41  59  81 108 136 162 195 239
#     4   9  17  28  42  59  82 109 136 166 200 236
#     4   9  16  27  42  60  83 111 138 166 201 243
#     4   9  16  26  40  59  83 110 137 167 202 243
#     4   9  17  29  42  59  84 111 136 167 205 241
#
# _framework density 15.081479
#
# number of rings (size 3 to 8) (size 9 to 14) (size 15 to 20)
#    0.000    3.143    0.000    2.143    0.000    4.571 
#    0.000    3.571    0.000    5.143    0.000    1.000 
#    0.000    0.000    0.000    0.000    0.000    0.000 
#
# Total GULP energy -694084.884947 kJ/mol
# GULP energy per Si atom -12394.372945 kJ/mol
# Density = 1.504715 g / cm^3
# Si number density = 15.081479 Si / 1000 Ang^3
#
#
#
# Elastic Constant Matrix: (Units=GPa)
#
#
# Indices 1 2 3 4 5 6 
#
# 1 119.7169 42.6107 56.4445 0.0000 0.0000 0.0000
# 2 42.6107 42.5540 35.1217 0.0000 0.0000 0.0000
# 3 56.4445 35.1217 104.5967 0.0000 0.0000 0.0000
# 4 0.0000 0.0000 0.0000 22.8221 0.0000 0.0000
# 5 0.0000 0.0000 0.0000 0.0000 23.7759 0.0000
# 6 0.0000 0.0000 0.0000 0.0000 0.0000 24.9873
#
#
#
# Elastic Compliance Matrix: (Units=1/GPa)
#
#
# Indices 1 2 3 4 5 6 
#
# 1 0.014072 -0.010823 -0.003960 0.000000 0.000000 0.000000
# 2 -0.010823 0.040833 -0.007870 0.000000 0.000000 0.000000
# 3 -0.003960 -0.007870 0.014340 0.000000 0.000000 0.000000
# 4 0.000000 0.000000 0.000000 0.043817 0.000000 0.000000
# 5 0.000000 0.000000 0.000000 0.000000 0.042059 0.000000
# 6 0.000000 0.000000 0.000000 0.000000 0.000000 0.040020
#
#
# Mechanical properties :
#
#
# Convention : Reuss Voigt Hill
#
# Bulk Modulus (GPa) = 41.77306 59.46906 50.62106
# Shear Modulus (GPa) = 20.12661 23.16310 21.64486
#
# Velocity S-wave (km/s) = 3.65708 3.92326 3.79251
# Velocity P-wave (km/s) = 6.75209 7.74855 7.26742
#
# Compressibility (1/GPa) = 0.02393887
#
# Stress axis : x y z
#
# Youngs Moduli (GPa) = 71.06239 24.49027 69.73420
#
# Poissons Ratio (x) = 0.26505 0.27613
# Poissons Ratio (y) = 0.76909 0.54884
# Poissons Ratio (z) = 0.28139 0.19275
#
# Static dielectric constant tensor:
#      x y z
#    x 3.238260 0.000000 0.000000 
#    y 0.000000 2.854840 0.000000 
#    z 0.000000 0.000000 2.787220 
# 
# 
# High freq. dielectric constant tensor:
#      x y z
#    x 1.577890 0.000000 0.000000 
#    y 0.000000 1.567960 0.000000 
#    z 0.000000 0.000000 1.546800 
# 
# From -- ./inp_files/21167.got.cif
#   From: 2010.03.12/outbox.cif.g09.slc.cpg/sg62_11_cif.got.tgz:21167.got - 2010.04.10 19:12:36.
