data_PCOD8255804
_publ_section_title
;
Structure prediction by ZEFSAII (Michael W. Deem and Ramdas Pophale) SiO2 
 PCOD8255804
Probable space group: C M C M
;
_chemical_formula_sum "Si O2"
_cell_formula_units_Z 80
_cell_length_a 8.799632
_cell_length_b 20.223400
_cell_length_c 24.566193
_cell_angle_alpha 90.000000
_cell_angle_beta 90.000000
_cell_angle_gamma 90.000000
_cell_volume 4371.762311
_symmetry_space_group_name_H-M "C M C M"
_symmetry_group_IT_number 63
_symmetry_cell_setting 'orthorhombic'
loop_
_space_group_symop_operation_xyz
x,y,z
-x,-y,1/2+z
x,-y,-z
-x,y,1/2-z
-x,-y,-z
x,y,1/2-z
-x,y,z
x,-y,1/2+z
1/2+x,1/2+y,z
1/2-x,1/2-y,1/2+z
1/2+x,1/2-y,-z
1/2-x,1/2+y,1/2-z
1/2-x,1/2-y,-z
1/2+x,1/2+y,1/2-z
1/2-x,1/2+y,z
1/2+x,1/2-y,1/2+z
loop_
_atom_site_type_symbol
_atom_site_label
_atom_site_fract_x
_atom_site_fract_y
_atom_site_fract_z
Si Si1 0.321352 0.190630 0.533123
Si Si2 0.324697 0.429480 0.526161
Si Si3 0.822731 0.740436 0.750000
Si Si4 0.827077 0.609404 0.368464
Si Si5 0.822740 0.764932 0.139538
Si Si6 0.674376 0.122819 0.250000
O O1 0.500000 0.200028 0.533477
O O2 0.250000 0.250000 0.500000
O O3 0.280632 0.121972 0.505003
O O4 0.258394 0.191099 0.594078
O O5 0.291411 0.500000 0.500000
O O6 0.500000 0.409258 0.519956
O O7 0.281733 0.429902 0.590295
O O8 0.745338 0.709595 0.696519
O O9 0.795550 0.818762 0.750000
O O10 0.000000 0.724419 0.750000
O O11 0.788735 0.687403 0.370004
O O12 0.801818 0.581952 0.306285
O O13 0.000000 0.597415 0.386891
O O14 0.000000 0.779962 0.138191
O O15 0.500000 0.152015 0.250000
#
# Coordination Sequence:
#
# PCOD8255804 Si02
#       6
#    16  16   8  16  16   8
#     4  12  23  36  57  83 110 144 183 228 278 334
#     4  11  24  39  55  78 112 150 187 231 280 332
#     4  10  18  28  46  77 112 145 180 223 273 329
#     4   9  17  31  53  78 106 141 179 224 274 327
#     4  10  19  33  53  79 111 145 181 228 278 328
#     4   8  16  30  48  73 106 139 176 221 275 325
#
# _framework density 18.299257000000001
#
# number of rings (size 3 to 8) (size 9 to 14) (size 15 to 20)
#    0.000    1.800    2.000    5.100    0.000    4.800 
#    0.000    0.000    0.000    1.200    0.000    2.800 
#    0.000    0.000    0.000    0.000    0.000    0.000 
#
# Total GULP energy -495963.788523 kJ/mol
# GULP energy per Si atom -12399.094713 kJ/mol
# Density = 1.825761 g / cm^3
# Si number density = 18.299257 Si / 1000 Ang^3
#
#
#
# Elastic Constant Matrix: (Units=GPa)
#
#
# Indices 1 2 3 4 5 6 
#
# 1 128.4011 35.5482 65.9335 0.0000 0.0000 0.0000
# 2 35.5482 47.7942 41.6482 0.0000 0.0000 0.0000
# 3 65.9335 41.6482 173.1242 0.0000 0.0000 0.0000
# 4 0.0000 0.0000 0.0000 20.3854 0.0000 0.0000
# 5 0.0000 0.0000 0.0000 0.0000 37.0623 0.0000
# 6 0.0000 0.0000 0.0000 0.0000 0.0000 21.7247
#
#
#
# Elastic Compliance Matrix: (Units=1/GPa)
#
#
# Indices 1 2 3 4 5 6 
#
# 1 0.010749 -0.005602 -0.002746 0.000000 0.000000 0.000000
# 2 -0.005602 0.029392 -0.004937 0.000000 0.000000 0.000000
# 3 -0.002746 -0.004937 0.008010 0.000000 0.000000 0.000000
# 4 0.000000 0.000000 0.000000 0.049055 0.000000 0.000000
# 5 0.000000 0.000000 0.000000 0.000000 0.026982 0.000000
# 6 0.000000 0.000000 0.000000 0.000000 0.000000 0.046031
#
#
# Mechanical properties :
#
#
# Convention : Reuss Voigt Hill
#
# Bulk Modulus (GPa) = 46.33876 70.61993 58.47934
# Shear Modulus (GPa) = 24.51199 29.58047 27.04623
#
# Velocity S-wave (km/s) = 3.66390 4.02492 3.84864
# Velocity P-wave (km/s) = 6.57850 7.76372 7.19555
#
# Compressibility (1/GPa) = 0.02158021
#
# Stress axis : x y z
#
# Youngs Moduli (GPa) = 93.03085 34.02282 124.84709
#
# Poissons Ratio (x) = 0.19059 0.34284
# Poissons Ratio (y) = 0.52116 0.61641
# Poissons Ratio (z) = 0.25547 0.16798
#
# Static dielectric constant tensor:
#      x y z
#    x 3.413520 0.000000 0.000000 
#    y 0.000000 2.421600 0.000000 
#    z 0.000000 0.000000 3.881200 
# 
# 
# High freq. dielectric constant tensor:
#      x y z
#    x 1.720370 0.000000 0.000000 
#    y 0.000000 1.644470 0.000000 
#    z 0.000000 0.000000 1.736990 
# 
# From -- ./inp_files/59493.got.cif
#   From: 2010.03.12/outbox.cif.g09.slc.cpg/sg63_30_cif.got.tgz:59493.got - 2010.04.10 19:34:48.
