data_PCOD8255135
_publ_section_title
;
Structure prediction by ZEFSAII (Michael W. Deem and Ramdas Pophale) SiO2 
 PCOD8255135
Probable space group: P N M A
;
_chemical_formula_sum "Si O2"
_cell_formula_units_Z 32
_cell_length_a 12.968529
_cell_length_b 8.950420
_cell_length_c 15.372081
_cell_angle_alpha 90.000000
_cell_angle_beta 90.000000
_cell_angle_gamma 90.000000
_cell_volume 1784.295569
_symmetry_space_group_name_H-M "P N M A"
_symmetry_group_IT_number 62
_symmetry_cell_setting 'orthorhombic'
loop_
_space_group_symop_operation_xyz
x,y,z
1/2-x,-y,1/2+z
1/2+x,1/2-y,1/2-z
-x,1/2+y,-z
-x,-y,-z
1/2+x,y,1/2-z
1/2-x,1/2+y,1/2+z
x,1/2-y,z
loop_
_atom_site_type_symbol
_atom_site_label
_atom_site_fract_x
_atom_site_fract_y
_atom_site_fract_z
Si Si1 0.904806 0.425249 0.254735
Si Si2 0.047514 0.081616 0.581734
Si Si3 0.739499 0.918620 0.349505
Si Si4 0.965033 0.925107 0.911758
O O1 0.894385 0.250000 0.270708
O O2 0.981671 0.493882 0.328804
O O3 0.791642 0.502458 0.264491
O O4 0.949365 0.462985 0.160385
O O5 0.003801 0.250000 0.586648
O O6 0.172884 0.083135 0.574469
O O7 0.000000 0.000000 0.500000
O O8 0.705243 0.750000 0.325874
O O9 0.644138 0.012830 0.382248
O O10 0.954070 0.750000 0.926649
O O11 0.000000 0.000000 0.000000
#
# Coordination Sequence:
#
# PCOD8255135 Si02
#       4
#     8   8   8   8
#     4   9  19  37  58  83 114 150 192 238 286 341
#     4   9  18  33  56  84 113 149 189 236 287 341
#     4   9  20  37  57  82 113 147 190 237 285 342
#     4  11  23  39  61  86 118 157 195 241 292 347
#
# _framework density 17.934248
#
# number of rings (size 3 to 8) (size 9 to 14) (size 15 to 20)
#    1.500    1.000    0.000    2.250    0.000    4.000 
#    4.500    0.000    0.000    0.000    0.000    0.000 
#    0.000    0.000    0.000    0.000    0.000    0.000 
#
# Total GULP energy -396485.293213 kJ/mol
# GULP energy per Si atom -12390.165413 kJ/mol
# Density = 1.789343 g / cm^3
# Si number density = 17.934248 Si / 1000 Ang^3
#
#
#
# Elastic Constant Matrix: (Units=GPa)
#
#
# Indices 1 2 3 4 5 6 
#
# 1 93.8123 59.5824 59.0228 0.0000 0.0000 0.0000
# 2 59.5824 142.7511 91.6328 0.0000 0.0000 0.0000
# 3 59.0228 91.6328 139.1360 0.0000 0.0000 0.0000
# 4 0.0000 0.0000 0.0000 33.6171 0.0000 0.0000
# 5 0.0000 0.0000 0.0000 0.0000 26.3954 0.0000
# 6 0.0000 0.0000 0.0000 0.0000 0.0000 33.9868
#
#
#
# Elastic Compliance Matrix: (Units=1/GPa)
#
#
# Indices 1 2 3 4 5 6 
#
# 1 0.015731 -0.003954 -0.004069 0.000000 0.000000 0.000000
# 2 -0.003954 0.013129 -0.006969 0.000000 0.000000 0.000000
# 3 -0.004069 -0.006969 0.013503 0.000000 0.000000 0.000000
# 4 0.000000 0.000000 0.000000 0.029747 0.000000 0.000000
# 5 0.000000 0.000000 0.000000 0.000000 0.037885 0.000000
# 6 0.000000 0.000000 0.000000 0.000000 0.000000 0.029423
#
#
# Mechanical properties :
#
#
# Convention : Reuss Voigt Hill
#
# Bulk Modulus (GPa) = 80.78539 88.46395 84.62467
# Shear Modulus (GPa) = 28.81343 29.83062 29.32203
#
# Velocity S-wave (km/s) = 4.01261 4.08282 4.04787
# Velocity P-wave (km/s) = 8.16156 8.46521 8.31478
#
# Compressibility (1/GPa) = 0.01237848
#
# Stress axis : x y z
#
# Youngs Moduli (GPa) = 63.56887 76.16624 74.05523
#
# Poissons Ratio (x) = 0.30114 0.30136
# Poissons Ratio (y) = 0.25134 0.51612
# Poissons Ratio (z) = 0.25868 0.53084
#
# Static dielectric constant tensor:
#      x y z
#    x 3.114930 0.000000 0.000000 
#    y 0.000000 3.718740 0.000000 
#    z 0.000000 0.000000 3.116720 
# 
# 
# High freq. dielectric constant tensor:
#      x y z
#    x 1.676510 0.000000 0.000000 
#    y 0.000000 1.718580 0.000000 
#    z 0.000000 0.000000 1.677200 
# 
# From -- ./inp_files/12764.got.cif
#   From: 2010.03.12/outbox.cif.g09.slc.cpg/sg62_7_cif.got.tgz:12764.got - 2010.04.10 19:12:36.
