data_PCOD8255385
_publ_section_title
;
Structure prediction by ZEFSAII (Michael W. Deem and Ramdas Pophale) SiO2 
 PCOD8255385
Probable space group: C M C M
;
_chemical_formula_sum "Si O2"
_cell_formula_units_Z 80
_cell_length_a 20.120411
_cell_length_b 15.088787
_cell_length_c 17.501381
_cell_angle_alpha 90.000000
_cell_angle_beta 90.000000
_cell_angle_gamma 90.000000
_cell_volume 5313.289690
_symmetry_space_group_name_H-M "C M C M"
_symmetry_group_IT_number 63
_symmetry_cell_setting 'orthorhombic'
loop_
_space_group_symop_operation_xyz
x,y,z
-x,-y,1/2+z
x,-y,-z
-x,y,1/2-z
-x,-y,-z
x,y,1/2-z
-x,y,z
x,-y,1/2+z
1/2+x,1/2+y,z
1/2-x,1/2-y,1/2+z
1/2+x,1/2-y,-z
1/2-x,1/2+y,1/2-z
1/2-x,1/2-y,-z
1/2+x,1/2+y,1/2-z
1/2-x,1/2+y,z
1/2+x,1/2-y,1/2+z
loop_
_atom_site_type_symbol
_atom_site_label
_atom_site_fract_x
_atom_site_fract_y
_atom_site_fract_z
Si Si1 0.251653 0.990551 0.838380
Si Si2 0.075550 0.796897 0.161771
Si Si3 0.692696 0.814533 0.902272
Si Si4 0.637033 0.446504 0.430187
Si Si5 0.734427 0.851695 0.436379
O O1 0.248407 0.012399 0.750000
O O2 0.176387 0.987747 0.871913
O O3 0.292254 0.072434 0.878543
O O4 0.289306 0.899008 0.851673
O O5 0.094537 0.813571 0.250000
O O6 0.122303 0.720934 0.127374
O O7 0.083293 0.889537 0.116302
O O8 0.000000 0.764213 0.153260
O O9 0.751764 0.741542 0.893057
O O10 0.685278 0.841161 0.991782
O O11 0.602355 0.500000 0.500000
O O12 0.692713 0.381861 0.468229
#
# Coordination Sequence:
#
# PCOD8255385 Si02
#       5
#    16  16  16  16  16
#     4  10  17  26  45  73  99 123 152 197 245 289
#     4  10  21  33  46  68  99 130 161 200 237 279
#     4  10  16  29  49  66  93 129 155 191 241 290
#     4   9  16  30  47  67  95 123 153 191 241 286
#     4   8  17  28  44  69  96 122 149 200 244 282
#
# _framework density 15.056585999999999
#
# number of rings (size 3 to 8) (size 9 to 14) (size 15 to 20)
#    1.200    1.400    2.000    1.800    0.000    1.200 
#    0.000    0.000    0.000    2.400    0.000    0.000 
#    0.000    0.000    0.000    0.000    0.000    0.000 
#
# Total GULP energy -495521.897448 kJ/mol
# GULP energy per Si atom -12388.047436 kJ/mol
# Density = 1.502232 g / cm^3
# Si number density = 15.056586 Si / 1000 Ang^3
#
#
#
# Elastic Constant Matrix: (Units=GPa)
#
#
# Indices 1 2 3 4 5 6 
#
# 1 54.2173 21.9244 35.3120 0.0000 0.0000 0.0000
# 2 21.9244 93.8379 49.9447 0.0000 0.0000 0.0000
# 3 35.3120 49.9447 115.2084 0.0000 0.0000 0.0000
# 4 0.0000 0.0000 0.0000 23.1384 0.0000 0.0000
# 5 0.0000 0.0000 0.0000 0.0000 18.2490 0.0000
# 6 0.0000 0.0000 0.0000 0.0000 0.0000 15.6151
#
#
#
# Elastic Compliance Matrix: (Units=1/GPa)
#
#
# Indices 1 2 3 4 5 6 
#
# 1 0.023371 -0.002142 -0.006235 0.000000 0.000000 0.000000
# 2 -0.002142 0.014049 -0.005434 0.000000 0.000000 0.000000
# 3 -0.006235 -0.005434 0.012947 0.000000 0.000000 0.000000
# 4 0.000000 0.000000 0.000000 0.043218 0.000000 0.000000
# 5 0.000000 0.000000 0.000000 0.000000 0.054798 0.000000
# 6 0.000000 0.000000 0.000000 0.000000 0.000000 0.064040
#
#
# Mechanical properties :
#
#
# Convention : Reuss Voigt Hill
#
# Bulk Modulus (GPa) = 43.96480 53.06953 48.51716
# Shear Modulus (GPa) = 20.19163 21.80600 20.99882
#
# Velocity S-wave (km/s) = 3.66601 3.80974 3.73857
# Velocity P-wave (km/s) = 6.86896 7.39428 7.13646
#
# Compressibility (1/GPa) = 0.02274547
#
# Stress axis : x y z
#
# Youngs Moduli (GPa) = 42.78762 71.17730 77.23983
#
# Poissons Ratio (x) = 0.15247 0.48157
# Poissons Ratio (y) = 0.09165 0.41973
# Poissons Ratio (z) = 0.26677 0.38678
#
# Static dielectric constant tensor:
#      x y z
#    x 2.449720 0.000000 0.000000 
#    y 0.000000 2.986060 0.000000 
#    z 0.000000 0.000000 2.863320 
# 
# 
# High freq. dielectric constant tensor:
#      x y z
#    x 1.521140 0.000000 0.000000 
#    y 0.000000 1.582940 0.000000 
#    z 0.000000 0.000000 1.582150 
# 
# From -- ./inp_files/48116.got.cif
#   From: 2010.03.12/outbox.cif.g09.slc.cpg/sg63_25_cif.got.tgz:48116.got - 2010.04.10 19:34:48.
