data_PCOD8255777
_publ_section_title
;
Structure prediction by ZEFSAII (Michael W. Deem and Ramdas Pophale) SiO2 
 PCOD8255777
Probable space group: C M C M
;
_chemical_formula_sum "Si O2"
_cell_formula_units_Z 112
_cell_length_a 14.525294
_cell_length_b 27.296400
_cell_length_c 14.204733
_cell_angle_alpha 90.000000
_cell_angle_beta 90.000000
_cell_angle_gamma 90.000000
_cell_volume 5632.009518
_symmetry_space_group_name_H-M "C M C M"
_symmetry_group_IT_number 63
_symmetry_cell_setting 'orthorhombic'
loop_
_space_group_symop_operation_xyz
x,y,z
-x,-y,1/2+z
x,-y,-z
-x,y,1/2-z
-x,-y,-z
x,y,1/2-z
-x,y,z
x,-y,1/2+z
1/2+x,1/2+y,z
1/2-x,1/2-y,1/2+z
1/2+x,1/2-y,-z
1/2-x,1/2+y,1/2-z
1/2-x,1/2-y,-z
1/2+x,1/2+y,1/2-z
1/2-x,1/2+y,z
1/2+x,1/2-y,1/2+z
loop_
_atom_site_type_symbol
_atom_site_label
_atom_site_fract_x
_atom_site_fract_y
_atom_site_fract_z
Si Si1 0.206497 0.334057 0.360591
Si Si2 0.391110 0.075801 0.541699
Si Si3 0.110144 0.132074 0.145961
Si Si4 0.599844 0.368876 0.357842
Si Si5 0.109070 0.522651 0.355748
Si Si6 0.602280 0.261289 0.862000
Si Si7 0.105817 0.053063 0.495135
O O1 0.183622 0.343041 0.250000
O O2 0.161383 0.376132 0.423531
O O3 0.316679 0.331796 0.378502
O O4 0.169310 0.281806 0.396269
O O5 0.500000 0.085304 0.547882
O O6 0.360361 0.063161 0.433790
O O7 0.360484 0.031260 0.609517
O O8 0.150562 0.124165 0.250000
O O9 0.139279 0.185361 0.103590
O O10 0.000000 0.130800 0.147032
O O11 0.152248 0.088786 0.082138
O O12 0.594707 0.382137 0.250000
O O13 0.500000 0.347052 0.392490
O O14 0.617679 0.421426 0.404640
O O15 0.149017 0.533250 0.250000
O O16 0.000000 0.523494 0.351807
O O17 0.598012 0.263832 0.750000
O O18 0.500000 0.250481 0.901807
O O19 0.000000 0.045033 0.466268
O O20 0.155749 0.000000 0.500000
#
# Coordination Sequence:
#
# PCOD8255777 Si02
#       7
#    16  16  16  16  16  16  16
#     4  10  18  28  45  68  94 127 166 206 252 304
#     4   9  16  25  41  67  94 122 161 206 250 303
#     4   8  14  26  46  73 103 129 152 188 249 315
#     4   9  19  35  50  65  91 126 166 213 259 300
#     4   8  14  25  39  58  90 127 160 201 253 302
#     4   8  14  25  43  71 105 133 154 188 246 308
#     4   9  17  30  49  71  93 122 162 205 247 291
#
# _framework density 19.886330000000001
#
# number of rings (size 3 to 8) (size 9 to 14) (size 15 to 20)
#    0.000    3.286    0.000    2.571    0.000    2.000 
#    2.571    3.571    0.000    0.857    0.000    1.000 
#    0.000    5.714    0.000    0.286    0.000   31.571 
#
# Total GULP energy -693781.358533 kJ/mol
# GULP energy per Si atom -12388.952831 kJ/mol
# Density = 1.984107 g / cm^3
# Si number density = 19.886330 Si / 1000 Ang^3
#
#
#
# Elastic Constant Matrix: (Units=GPa)
#
#
# Indices 1 2 3 4 5 6 
#
# 1 72.3879 55.1605 26.7815 0.0000 0.0000 0.0000
# 2 55.1605 173.6474 58.6524 0.0000 0.0000 0.0000
# 3 26.7815 58.6524 100.2901 0.0000 0.0000 0.0000
# 4 0.0000 0.0000 0.0000 28.4212 0.0000 0.0000
# 5 0.0000 0.0000 0.0000 0.0000 10.5694 0.0000
# 6 0.0000 0.0000 0.0000 0.0000 0.0000 -3.9346
#
#
#
# Elastic Compliance Matrix: (Units=1/GPa)
#
#
# Indices 1 2 3 4 5 6 
#
# 1 0.018505 -0.005245 -0.001874 0.000000 0.000000 0.000000
# 2 -0.005245 0.008663 -0.003666 0.000000 0.000000 0.000000
# 3 -0.001874 -0.003666 0.012615 0.000000 0.000000 0.000000
# 4 0.000000 0.000000 0.000000 0.035185 0.000000 0.000000
# 5 0.000000 0.000000 0.000000 0.000000 0.094612 0.000000
# 6 0.000000 0.000000 0.000000 0.000000 0.000000 -0.254156
#
#
# Mechanical properties :
#
#
# Convention : Reuss Voigt Hill
#
# Bulk Modulus (GPa) = 54.90487 69.72381 62.31434
# Shear Modulus (GPa) = -87.82066 20.72661 -33.54702
#
# Velocity S-wave (km/s) = -6.65261 3.23190 -4.11169
# Velocity P-wave (km/s) = 5.59824 7.00458 2.97690
#
# Compressibility (1/GPa) = 0.01821332
#
# Stress axis : x y z
#
# Youngs Moduli (GPa) = 54.04039 115.43136 79.26858
#
# Poissons Ratio (x) = 0.60546 0.14854
# Poissons Ratio (y) = 0.28345 0.29058
# Poissons Ratio (z) = 0.10127 0.42315
#
# Static dielectric constant tensor:
#      x y z
#    x 3.530070 0.000000 0.000000 
#    y 0.000000 3.724480 0.000000 
#    z 0.000000 0.000000 3.826790 
# 
# 
# High freq. dielectric constant tensor:
#      x y z
#    x 1.752050 0.000000 0.000000 
#    y 0.000000 1.760570 0.000000 
#    z 0.000000 0.000000 1.768310 
# 
# From -- ./inp_files/32548.got.cif
#   From: 2010.03.12/outbox.cif.g09.slc.cpg/sg63_17_cif.got.tgz:32548.got - 2010.04.10 19:34:48.
