data_PCOD8255508
_publ_section_title
;
Structure prediction by ZEFSAII (Michael W. Deem and Ramdas Pophale) SiO2 
 PCOD8255508
Probable space group: C M C M
;
_chemical_formula_sum "Si O2"
_cell_formula_units_Z 96
_cell_length_a 29.875827
_cell_length_b 8.280453
_cell_length_c 20.878190
_cell_angle_alpha 90.000000
_cell_angle_beta 90.000000
_cell_angle_gamma 90.000000
_cell_volume 5164.958994
_symmetry_space_group_name_H-M "C M C M"
_symmetry_group_IT_number 63
_symmetry_cell_setting 'orthorhombic'
loop_
_space_group_symop_operation_xyz
x,y,z
-x,-y,1/2+z
x,-y,-z
-x,y,1/2-z
-x,-y,-z
x,y,1/2-z
-x,y,z
x,-y,1/2+z
1/2+x,1/2+y,z
1/2-x,1/2-y,1/2+z
1/2+x,1/2-y,-z
1/2-x,1/2+y,1/2-z
1/2-x,1/2-y,-z
1/2+x,1/2+y,1/2-z
1/2-x,1/2+y,z
1/2+x,1/2-y,1/2+z
loop_
_atom_site_type_symbol
_atom_site_label
_atom_site_fract_x
_atom_site_fract_y
_atom_site_fract_z
Si Si1 0.448351 0.916051 0.678083
Si Si2 0.621858 0.647419 0.679413
Si Si3 0.311547 0.148893 0.109970
Si Si4 0.139685 0.086918 0.433469
Si Si5 0.265957 0.470287 0.430557
Si Si6 0.106345 0.448040 0.066432
O O1 0.442266 0.988433 0.750000
O O2 0.500000 0.889265 0.661404
O O3 0.426906 0.036520 0.626453
O O4 0.424409 0.743470 0.673783
O O5 0.626669 0.569392 0.750000
O O6 0.664761 0.769434 0.671516
O O7 0.618927 0.510534 0.625981
O O8 0.285791 0.290510 0.071909
O O9 0.272624 0.013608 0.122589
O O10 0.351102 0.067874 0.069354
O O11 0.120350 0.263854 0.434157
O O12 0.127119 0.000000 0.500000
O O13 0.193046 0.096007 0.423150
O O14 0.243340 0.500000 0.500000
O O15 0.081961 0.500000 0.000000
#
# Coordination Sequence:
#
# PCOD8255508 Si02
#       6
#    16  16  16  16  16  16
#     4   9  19  37  59  80 103 135 174 214 260 319
#     4   9  19  36  55  75 103 137 174 216 266 318
#     4  10  19  30  48  74 102 136 174 214 256 299
#     4  10  20  34  53  79 109 143 180 218 259 308
#     4  10  17  28  46  72 104 137 176 213 249 297
#     4  11  20  33  54  80 110 139 173 218 267 313
#
# _framework density 18.586789
#
# number of rings (size 3 to 8) (size 9 to 14) (size 15 to 20)
#    0.000    2.167    0.000    6.000    0.000    1.000 
#    0.000    4.167    0.000    8.000    0.000    0.000 
#    0.000    0.000    0.000    0.000    0.000    0.000 
#
# Total GULP energy -594749.568311 kJ/mol
# GULP energy per Si atom -12390.616006 kJ/mol
# Density = 1.854448 g / cm^3
# Si number density = 18.586789 Si / 1000 Ang^3
#
#
#
# Elastic Constant Matrix: (Units=GPa)
#
#
# Indices 1 2 3 4 5 6 
#
# 1 110.3374 47.6954 50.7266 0.0000 0.0000 0.0000
# 2 47.6954 98.4637 56.0356 0.0000 0.0000 0.0000
# 3 50.7266 56.0356 127.5973 0.0000 0.0000 0.0000
# 4 0.0000 0.0000 0.0000 28.1340 0.0000 0.0000
# 5 0.0000 0.0000 0.0000 0.0000 19.9770 0.0000
# 6 0.0000 0.0000 0.0000 0.0000 0.0000 14.1677
#
#
#
# Elastic Compliance Matrix: (Units=1/GPa)
#
#
# Indices 1 2 3 4 5 6 
#
# 1 0.012282 -0.004227 -0.003026 0.000000 0.000000 0.000000
# 2 -0.004227 0.014995 -0.004905 0.000000 0.000000 0.000000
# 3 -0.003026 -0.004905 0.011194 0.000000 0.000000 0.000000
# 4 0.000000 0.000000 0.000000 0.035544 0.000000 0.000000
# 5 0.000000 0.000000 0.000000 0.000000 0.050058 0.000000
# 6 0.000000 0.000000 0.000000 0.000000 0.000000 0.070583
#
#
# Mechanical properties :
#
#
# Convention : Reuss Voigt Hill
#
# Bulk Modulus (GPa) = 70.64734 71.70152 71.17443
# Shear Modulus (GPa) = 22.35240 24.58511 23.46876
#
# Velocity S-wave (km/s) = 3.47161 3.64087 3.55724
# Velocity P-wave (km/s) = 7.35944 7.50566 7.43291
#
# Compressibility (1/GPa) = 0.01415482
#
# Stress axis : x y z
#
# Youngs Moduli (GPa) = 81.42281 66.68991 89.33185
#
# Poissons Ratio (x) = 0.28189 0.27034
# Poissons Ratio (y) = 0.34416 0.43815
# Poissons Ratio (z) = 0.24641 0.32709
#
# Static dielectric constant tensor:
#      x y z
#    x 3.471520 0.000000 0.000000 
#    y 0.000000 3.360400 0.000000 
#    z 0.000000 0.000000 3.503530 
# 
# 
# High freq. dielectric constant tensor:
#      x y z
#    x 1.711240 0.000000 0.000000 
#    y 0.000000 1.716910 0.000000 
#    z 0.000000 0.000000 1.711240 
# 
# From -- ./inp_files/58074.got.cif
#   From: 2010.03.12/outbox.cif.g09.slc.cpg/sg63_30_cif.got.tgz:58074.got - 2010.04.10 19:34:48.
