data_PCOD8255601
_publ_section_title
;
Structure prediction by ZEFSAII (Michael W. Deem and Ramdas Pophale) SiO2 
 PCOD8255601
Probable space group: C M C M
;
_chemical_formula_sum "Si O2"
_cell_formula_units_Z 96
_cell_length_a 25.428322
_cell_length_b 8.678568
_cell_length_c 21.747486
_cell_angle_alpha 90.000000
_cell_angle_beta 90.000000
_cell_angle_gamma 90.000000
_cell_volume 4799.266127
_symmetry_space_group_name_H-M "C M C M"
_symmetry_group_IT_number 63
_symmetry_cell_setting 'orthorhombic'
loop_
_space_group_symop_operation_xyz
x,y,z
-x,-y,1/2+z
x,-y,-z
-x,y,1/2-z
-x,-y,-z
x,y,1/2-z
-x,y,z
x,-y,1/2+z
1/2+x,1/2+y,z
1/2-x,1/2-y,1/2+z
1/2+x,1/2-y,-z
1/2-x,1/2+y,1/2-z
1/2-x,1/2-y,-z
1/2+x,1/2+y,1/2-z
1/2-x,1/2+y,z
1/2+x,1/2-y,1/2+z
loop_
_atom_site_type_symbol
_atom_site_label
_atom_site_fract_x
_atom_site_fract_y
_atom_site_fract_z
Si Si1 0.893730 0.118755 0.320794
Si Si2 0.500000 0.528583 0.821604
Si Si3 0.107174 0.472796 0.352285
Si Si4 0.500000 0.889007 0.676595
Si Si5 0.262475 0.810746 0.250000
Si Si6 0.298368 0.940457 0.432630
Si Si7 0.289312 0.636399 0.126988
Si Si8 0.826367 0.390449 0.750000
O O1 0.886489 0.066359 0.250000
O O2 0.947439 0.049061 0.349513
O O3 0.895474 0.303872 0.323265
O O4 0.846169 0.053388 0.364153
O O5 0.500000 0.491301 0.750000
O O6 0.500000 0.708474 0.835523
O O7 0.140833 0.475988 0.415425
O O8 0.137139 0.591841 0.308486
O O9 0.048856 0.537476 0.359685
O O10 0.500000 0.928009 0.750000
O O11 0.286395 0.735013 0.189326
O O12 0.199293 0.780883 0.250000
O O13 0.276326 0.991396 0.250000
O O14 0.257569 0.016237 0.383522
O O15 0.285462 0.000000 0.500000
O O16 0.289477 0.756575 0.429950
#
# Coordination Sequence:
#
# PCOD8255601 Si02
#       8
#    16   8  16   8   8  16  16   8
#     4  10  17  33  53  79 112 147 182 221 282 353
#     4   9  21  33  47  83 122 144 170 221 283 358
#     4  11  20  36  58  79 111 156 187 232 282 345
#     4  11  21  35  54  85 115 140 182 234 299 350
#     4  12  18  36  54  89 117 139 187 231 295 344
#     4  11  24  39  55  81 115 156 199 234 279 341
#     4  11  20  35  58  82 114 147 188 239 285 344
#     4  12  20  35  54  87 125 148 187 235 293 350
#
# _framework density 20.003057999999999
#
# number of rings (size 3 to 8) (size 9 to 14) (size 15 to 20)
#    0.000    1.167    7.500    1.000    0.000    2.000 
#    3.000    0.417    0.000    0.000    0.000    5.250 
#    0.000    0.000    0.000    0.000    0.000    0.000 
#
# Total GULP energy -594989.805019 kJ/mol
# GULP energy per Si atom -12395.620938 kJ/mol
# Density = 1.995753 g / cm^3
# Si number density = 20.003058 Si / 1000 Ang^3
#
#
#
# Elastic Constant Matrix: (Units=GPa)
#
#
# Indices 1 2 3 4 5 6 
#
# 1 174.1209 51.9434 20.3623 0.0000 0.0000 0.0000
# 2 51.9434 40.6872 8.2543 0.0000 0.0000 0.0000
# 3 20.3623 8.2543 44.6826 0.0000 0.0000 0.0000
# 4 0.0000 0.0000 0.0000 17.0096 0.0000 0.0000
# 5 0.0000 0.0000 0.0000 0.0000 17.0892 0.0000
# 6 0.0000 0.0000 0.0000 0.0000 0.0000 35.3986
#
#
#
# Elastic Compliance Matrix: (Units=1/GPa)
#
#
# Indices 1 2 3 4 5 6 
#
# 1 0.009473 -0.011655 -0.002164 0.000000 0.000000 0.000000
# 2 -0.011655 0.039874 -0.002055 0.000000 0.000000 0.000000
# 3 -0.002164 -0.002055 0.023746 0.000000 0.000000 0.000000
# 4 0.000000 0.000000 0.000000 0.058790 0.000000 0.000000
# 5 0.000000 0.000000 0.000000 0.000000 0.058517 0.000000
# 6 0.000000 0.000000 0.000000 0.000000 0.000000 0.028250
#
#
# Mechanical properties :
#
#
# Convention : Reuss Voigt Hill
#
# Bulk Modulus (GPa) = 24.18638 46.73451 35.46045
# Shear Modulus (GPa) = 18.92666 25.82819 22.37742
#
# Velocity S-wave (km/s) = 3.07935 3.59724 3.34833
# Velocity P-wave (km/s) = 4.97602 6.37714 5.71965
#
# Compressibility (1/GPa) = 0.04134558
#
# Stress axis : x y z
#
# Youngs Moduli (GPa) = 105.56313 25.07924 42.11272
#
# Poissons Ratio (x) = 0.29229 0.09113
# Poissons Ratio (y) = 1.23031 0.08653
# Poissons Ratio (z) = 0.22843 0.05153
#
# Static dielectric constant tensor:
#      x y z
#    x 4.105930 0.000000 0.000000 
#    y 0.000000 3.527540 0.000000 
#    z 0.000000 0.000000 3.177540 
# 
# 
# High freq. dielectric constant tensor:
#      x y z
#    x 1.798520 0.000000 0.000000 
#    y 0.000000 1.775250 0.000000 
#    z 0.000000 0.000000 1.729310 
# 
# From -- ./inp_files/65407.got.cif
#   From: 2010.03.12/outbox.cif.g09.slc.cpg/sg63_33_cif.got.tgz:65407.got - 2010.04.10 19:34:48.
