data_PCOD8255729
_publ_section_title
;
Structure prediction by ZEFSAII (Michael W. Deem and Ramdas Pophale) SiO2 
 PCOD8255729
Probable space group: C M C M
;
_chemical_formula_sum "Si O2"
_cell_formula_units_Z 96
_cell_length_a 24.481792
_cell_length_b 12.043254
_cell_length_c 19.016231
_cell_angle_alpha 90.000000
_cell_angle_beta 90.000000
_cell_angle_gamma 90.000000
_cell_volume 5606.753904
_symmetry_space_group_name_H-M "C M C M"
_symmetry_group_IT_number 63
_symmetry_cell_setting 'orthorhombic'
loop_
_space_group_symop_operation_xyz
x,y,z
-x,-y,1/2+z
x,-y,-z
-x,y,1/2-z
-x,-y,-z
x,y,1/2-z
-x,y,z
x,-y,1/2+z
1/2+x,1/2+y,z
1/2-x,1/2-y,1/2+z
1/2+x,1/2-y,-z
1/2-x,1/2+y,1/2-z
1/2-x,1/2-y,-z
1/2+x,1/2+y,1/2-z
1/2-x,1/2+y,z
1/2+x,1/2-y,1/2+z
loop_
_atom_site_type_symbol
_atom_site_label
_atom_site_fract_x
_atom_site_fract_y
_atom_site_fract_z
Si Si1 0.139161 0.192845 0.827808
Si Si2 0.302555 0.772006 0.424476
Si Si3 0.149635 0.447387 0.332267
Si Si4 0.807352 0.886372 0.459115
Si Si5 0.765726 0.628814 0.326412
Si Si6 0.060708 0.619625 0.166802
O O1 0.132037 0.136582 0.750000
O O2 0.156612 0.104394 0.887485
O O3 0.186164 0.283176 0.822310
O O4 0.084283 0.258091 0.851264
O O5 0.347967 0.833839 0.377236
O O6 0.256133 0.861497 0.443989
O O7 0.329575 0.718544 0.494289
O O8 0.278355 0.664514 0.383784
O O9 0.142365 0.418530 0.250000
O O10 0.207359 0.510328 0.344668
O O11 0.099302 0.520598 0.362054
O O12 0.814634 0.000000 0.500000
O O13 0.736864 0.622170 0.250000
O O14 0.059340 0.606979 0.250000
O O15 0.000000 0.608386 0.134222
#
# Coordination Sequence:
#
# PCOD8255729 Si02
#       6
#    16  16  16  16  16  16
#     4   8  15  29  47  64  83 111 147 184 219 257
#     4  10  18  28  42  61  89 124 154 180 219 272
#     4   9  16  26  43  68  96 122 148 183 224 263
#     4  10  20  31  43  62  89 120 152 186 224 264
#     4   8  14  25  40  60  87 118 151 181 208 250
#     4   8  14  27  49  74  94 114 148 191 227 261
#
# _framework density 17.122207
#
# number of rings (size 3 to 8) (size 9 to 14) (size 15 to 20)
#    0.000    3.167    0.000    3.500    0.000    2.000 
#    0.000    1.667    0.000    3.500    0.000    0.000 
#    0.000    5.333    0.000    0.000    0.000    0.000 
#
# Total GULP energy -594739.724471 kJ/mol
# GULP energy per Si atom -12390.410926 kJ/mol
# Density = 1.708324 g / cm^3
# Si number density = 17.122207 Si / 1000 Ang^3
#
#
#
# Elastic Constant Matrix: (Units=GPa)
#
#
# Indices 1 2 3 4 5 6 
#
# 1 56.9071 28.1775 32.3893 0.0000 0.0000 0.0000
# 2 28.1775 61.9053 45.9980 0.0000 0.0000 0.0000
# 3 32.3893 45.9980 93.3161 0.0000 0.0000 0.0000
# 4 0.0000 0.0000 0.0000 32.3882 0.0000 0.0000
# 5 0.0000 0.0000 0.0000 0.0000 10.0087 0.0000
# 6 0.0000 0.0000 0.0000 0.0000 0.0000 13.5233
#
#
#
# Elastic Compliance Matrix: (Units=1/GPa)
#
#
# Indices 1 2 3 4 5 6 
#
# 1 0.023887 -0.007436 -0.004626 0.000000 0.000000 0.000000
# 2 -0.007436 0.027804 -0.011125 0.000000 0.000000 0.000000
# 3 -0.004626 -0.011125 0.017805 0.000000 0.000000 0.000000
# 4 0.000000 0.000000 0.000000 0.030875 0.000000 0.000000
# 5 0.000000 0.000000 0.000000 0.000000 0.099913 0.000000
# 6 0.000000 0.000000 0.000000 0.000000 0.000000 0.073946
#
#
# Mechanical properties :
#
#
# Convention : Reuss Voigt Hill
#
# Bulk Modulus (GPa) = 43.24373 47.25091 45.24732
# Shear Modulus (GPa) = 15.22945 18.22163 16.72554
#
# Velocity S-wave (km/s) = 2.98561 3.26576 3.12882
# Velocity P-wave (km/s) = 6.09885 6.47120 6.28778
#
# Compressibility (1/GPa) = 0.02312474
#
# Stress axis : x y z
#
# Youngs Moduli (GPa) = 41.86369 35.96588 56.16254
#
# Poissons Ratio (x) = 0.26742 0.25980
# Poissons Ratio (y) = 0.31128 0.62478
# Poissons Ratio (z) = 0.19365 0.40011
#
# Static dielectric constant tensor:
#      x y z
#    x 3.115290 0.000000 0.000000 
#    y 0.000000 2.996360 0.000000 
#    z 0.000000 0.000000 3.775320 
# 
# 
# High freq. dielectric constant tensor:
#      x y z
#    x 1.604010 0.000000 0.000000 
#    y 0.000000 1.642340 0.000000 
#    z 0.000000 0.000000 1.664020 
# 
# From -- ./inp_files/48943.got.cif
#   From: 2010.03.12/outbox.cif.g09.slc.cpg/sg63_25_cif.got.tgz:48943.got - 2010.04.10 19:34:48.
