data_PCOD8255115
_publ_section_title
;
Structure prediction by ZEFSAII (Michael W. Deem and Ramdas Pophale) SiO2 
 PCOD8255115
Probable space group: P N M A
;
_chemical_formula_sum "Si O2"
_cell_formula_units_Z 40
_cell_length_a 16.135433
_cell_length_b 9.653245
_cell_length_c 10.842555
_cell_angle_alpha 90.000000
_cell_angle_beta 90.000000
_cell_angle_gamma 90.000000
_cell_volume 1688.828646
_symmetry_space_group_name_H-M "P N M A"
_symmetry_group_IT_number 62
_symmetry_cell_setting 'orthorhombic'
loop_
_space_group_symop_operation_xyz
x,y,z
1/2-x,-y,1/2+z
1/2+x,1/2-y,1/2-z
-x,1/2+y,-z
-x,-y,-z
1/2+x,y,1/2-z
1/2-x,1/2+y,1/2+z
x,1/2-y,z
loop_
_atom_site_type_symbol
_atom_site_label
_atom_site_fract_x
_atom_site_fract_y
_atom_site_fract_z
Si Si1 0.835929 0.250000 0.100049
Si Si2 0.963666 0.750000 0.908559
Si Si3 0.512305 0.750000 0.919320
Si Si4 0.483382 0.250000 0.798759
Si Si5 0.590448 0.465739 0.219110
Si Si6 0.367873 0.750000 0.346436
Si Si7 0.747230 0.477460 0.565906
Si Si8 0.695572 0.750000 0.873665
O O1 0.804129 0.385566 0.025077
O O2 0.781494 0.250000 0.228735
O O3 0.936828 0.250000 0.111273
O O4 0.915714 0.620728 0.845638
O O5 0.940955 0.750000 0.051121
O O6 0.464319 0.889741 0.884798
O O7 0.598291 0.750000 0.849797
O O8 0.538016 0.750000 0.059404
O O9 0.443395 0.385642 0.739632
O O10 0.582781 0.250000 0.782251
O O11 0.679608 0.480619 0.157680
O O12 0.313344 0.886585 0.350246
O O13 0.774382 0.388665 0.445486
#
# Coordination Sequence:
#
# PCOD8255115 Si02
#       8
#     4   4   4   4   8   4   8   4
#     4  12  25  48  75 103 143 202 241 292 376 435
#     4  11  26  50  74  96 146 203 237 287 370 450
#     4  11  22  43  71 103 134 182 230 297 365 414
#     4  12  23  41  70 105 140 174 242 291 348 432
#     4  11  23  43  73 101 135 186 238 298 358 428
#     4  11  28  48  66 102 153 190 232 299 357 445
#     4  11  26  44  69 108 141 186 242 295 374 420
#     4  11  24  48  72 103 154 181 240 320 348 434
#
# _framework density 23.685055999999999
#
# number of rings (size 3 to 8) (size 9 to 14) (size 15 to 20)
#    0.000    0.800    4.000    3.600    5.600    3.200 
#    0.000    2.000    0.000    0.000    0.000    0.000 
#    0.000    0.000    0.000    0.000    0.000    0.000 
#
# Total GULP energy -495806.495679 kJ/mol
# GULP energy per Si atom -12395.162392 kJ/mol
# Density = 2.363115 g / cm^3
# Si number density = 23.685056 Si / 1000 Ang^3
#
#
#
# Elastic Constant Matrix: (Units=GPa)
#
#
# Indices 1 2 3 4 5 6 
#
# 1 111.5103 51.2183 15.4531 0.0000 0.0000 0.0000
# 2 51.2183 192.1407 12.8448 0.0000 0.0000 0.0000
# 3 15.4531 12.8448 44.6256 0.0000 0.0000 0.0000
# 4 0.0000 0.0000 0.0000 -24.2156 0.0000 0.0000
# 5 0.0000 0.0000 0.0000 0.0000 -10.5201 0.0000
# 6 0.0000 0.0000 0.0000 0.0000 0.0000 46.9430
#
#
#
# Elastic Compliance Matrix: (Units=1/GPa)
#
#
# Indices 1 2 3 4 5 6 
#
# 1 0.010576 -0.002625 -0.002907 0.000000 0.000000 0.000000
# 2 -0.002625 0.005958 -0.000806 0.000000 0.000000 0.000000
# 3 -0.002907 -0.000806 0.023647 0.000000 0.000000 0.000000
# 4 0.000000 0.000000 0.000000 -0.041296 0.000000 0.000000
# 5 0.000000 0.000000 0.000000 0.000000 -0.095056 0.000000
# 6 0.000000 0.000000 0.000000 0.000000 0.000000 0.021302
#
#
# Mechanical properties :
#
#
# Convention : Reuss Voigt Hill
#
# Bulk Modulus (GPa) = 36.35558 56.36768 46.36163
# Shear Modulus (GPa) = -94.29810 20.35881 -36.96964
#
# Velocity S-wave (km/s) = -6.31663 2.93501 -3.95509
# Velocity P-wave (km/s) = 6.14953 5.94443 1.11368
#
# Compressibility (1/GPa) = 0.02750610
#
# Stress axis : x y z
#
# Youngs Moduli (GPa) = 94.55107 167.83797 42.28825
#
# Poissons Ratio (x) = 0.44057 0.12293
# Poissons Ratio (y) = 0.24819 0.03408
# Poissons Ratio (z) = 0.27485 0.13527
#
# Static dielectric constant tensor:
#      x y z
#    x 4.353340 0.000000 0.000000 
#    y 0.000000 4.596680 0.000000 
#    z 0.000000 0.000000 3.916460 
# 
# 
# High freq. dielectric constant tensor:
#      x y z
#    x 1.955220 0.000000 0.000000 
#    y 0.000000 1.953950 0.000000 
#    z 0.000000 0.000000 1.924370 
# 
# From -- ./inp_files/13946.got.cif
#   From: 2010.03.12/outbox.cif.g09.slc.cpg/sg62_7_cif.got.tgz:13946.got - 2010.04.10 19:12:36.
