data_PCOD8255702
_publ_section_title
;
Structure prediction by ZEFSAII (Michael W. Deem and Ramdas Pophale) SiO2 
 PCOD8255702
Probable space group: C M C M
;
_chemical_formula_sum "Si O2"
_cell_formula_units_Z 80
_cell_length_a 9.319396
_cell_length_b 33.608858
_cell_length_c 14.641171
_cell_angle_alpha 90.000000
_cell_angle_beta 90.000000
_cell_angle_gamma 90.000000
_cell_volume 4585.823494
_symmetry_space_group_name_H-M "C M C M"
_symmetry_group_IT_number 63
_symmetry_cell_setting 'orthorhombic'
loop_
_space_group_symop_operation_xyz
x,y,z
-x,-y,1/2+z
x,-y,-z
-x,y,1/2-z
-x,-y,-z
x,y,1/2-z
-x,y,z
x,-y,1/2+z
1/2+x,1/2+y,z
1/2-x,1/2-y,1/2+z
1/2+x,1/2-y,-z
1/2-x,1/2+y,1/2-z
1/2-x,1/2-y,-z
1/2+x,1/2+y,1/2-z
1/2-x,1/2+y,z
1/2+x,1/2-y,1/2+z
loop_
_atom_site_type_symbol
_atom_site_label
_atom_site_fract_x
_atom_site_fract_y
_atom_site_fract_z
Si Si1 0.329404 0.289936 0.850778
Si Si2 0.329267 0.498437 0.352619
Si Si3 0.837779 0.701235 0.857256
Si Si4 0.329565 0.438282 0.996401
Si Si5 0.329089 0.651189 0.505543
O O1 0.268184 0.300105 0.750000
O O2 0.500000 0.290711 0.847027
O O3 0.280859 0.245676 0.880985
O O4 0.270255 0.322591 0.921138
O O5 0.263488 0.497464 0.250000
O O6 0.500000 0.498563 0.346712
O O7 0.276562 0.460028 0.410577
O O8 0.275819 0.537935 0.406423
O O9 0.832306 0.694135 0.750000
O O10 0.733725 0.669000 0.901818
O O11 0.000000 0.695549 0.893604
O O12 0.500000 0.437957 0.996093
O O13 0.269546 0.393515 0.993141
O O14 0.500000 0.652048 0.511690
#
# Coordination Sequence:
#
# PCOD8255702 Si02
#       5
#    16  16  16  16  16
#     4   8  15  28  44  62  86 116 147 177 212 254
#     4   8  13  23  37  51  77 116 142 159 197 253
#     4   9  18  32  46  59  82 119 153 175 206 259
#     4   8  15  24  34  57  86 106 133 170 207 249
#     4  10  18  27  44  69  91 109 137 184 226 247
#
# _framework density 17.445067999999999
#
# number of rings (size 3 to 8) (size 9 to 14) (size 15 to 20)
#    0.000    3.400    0.000    3.000    0.000    2.000 
#    0.000    6.000    0.000    1.800    0.000    2.800 
#    0.000    1.600    0.000    0.000    0.000    0.000 
#
# Total GULP energy -495727.929865 kJ/mol
# GULP energy per Si atom -12393.198247 kJ/mol
# Density = 1.740536 g / cm^3
# Si number density = 17.445068 Si / 1000 Ang^3
#
#
#
# Elastic Constant Matrix: (Units=GPa)
#
#
# Indices 1 2 3 4 5 6 
#
# 1 12.4759 18.9144 15.4778 0.0000 0.0000 0.0000
# 2 18.9144 153.7209 73.4765 0.0000 0.0000 0.0000
# 3 15.4778 73.4765 121.9251 0.0000 0.0000 0.0000
# 4 0.0000 0.0000 0.0000 17.9821 0.0000 0.0000
# 5 0.0000 0.0000 0.0000 0.0000 15.8310 0.0000
# 6 0.0000 0.0000 0.0000 0.0000 0.0000 14.5214
#
#
#
# Elastic Compliance Matrix: (Units=1/GPa)
#
#
# Indices 1 2 3 4 5 6 
#
# 1 0.103399 -0.009058 -0.007668 0.000000 0.000000 0.000000
# 2 -0.009058 0.009931 -0.004835 0.000000 0.000000 0.000000
# 3 -0.007668 -0.004835 0.012089 0.000000 0.000000 0.000000
# 4 0.000000 0.000000 0.000000 0.055611 0.000000 0.000000
# 5 0.000000 0.000000 0.000000 0.000000 0.063167 0.000000
# 6 0.000000 0.000000 0.000000 0.000000 0.000000 0.068864
#
#
# Mechanical properties :
#
#
# Convention : Reuss Voigt Hill
#
# Bulk Modulus (GPa) = 12.15083 55.98434 34.06758
# Shear Modulus (GPa) = 13.03393 21.68377 17.35885
#
# Velocity S-wave (km/s) = 2.73635 3.52941 3.15788
# Velocity P-wave (km/s) = 4.11872 6.98358 5.73299
#
# Compressibility (1/GPa) = 0.08229891
#
# Stress axis : x y z
#
# Youngs Moduli (GPa) = 9.67123 100.69727 82.72154
#
# Poissons Ratio (x) = 0.91208 0.63427
# Poissons Ratio (y) = 0.08760 0.39994
# Poissons Ratio (z) = 0.07415 0.48685
#
# Static dielectric constant tensor:
#      x y z
#    x 2.597810 0.000000 0.000000 
#    y 0.000000 3.539510 0.000000 
#    z 0.000000 0.000000 3.491710 
# 
# 
# High freq. dielectric constant tensor:
#      x y z
#    x 1.602270 0.000000 0.000000 
#    y 0.000000 1.679340 0.000000 
#    z 0.000000 0.000000 1.682320 
# 
# From -- ./inp_files/29998.got.cif
#   From: 2010.03.12/outbox.cif.g09.slc.cpg/sg63_15_cif.got.tgz:29998.got - 2010.04.10 19:34:48.
