data_PCOD8255249
_publ_section_title
;
Structure prediction by ZEFSAII (Michael W. Deem and Ramdas Pophale) SiO2 
 PCOD8255249
Probable space group: P N M A
;
_chemical_formula_sum "Si O2"
_cell_formula_units_Z 36
_cell_length_a 14.578184
_cell_length_b 14.416337
_cell_length_c 7.755913
_cell_angle_alpha 90.000000
_cell_angle_beta 90.000000
_cell_angle_gamma 90.000000
_cell_volume 1630.013804
_symmetry_space_group_name_H-M "P N M A"
_symmetry_group_IT_number 62
_symmetry_cell_setting 'orthorhombic'
loop_
_space_group_symop_operation_xyz
x,y,z
1/2-x,-y,1/2+z
1/2+x,1/2-y,1/2-z
-x,1/2+y,-z
-x,-y,-z
1/2+x,y,1/2-z
1/2-x,1/2+y,1/2+z
x,1/2-y,z
loop_
_atom_site_type_symbol
_atom_site_label
_atom_site_fract_x
_atom_site_fract_y
_atom_site_fract_z
Si Si1 0.267834 0.250000 0.677556
Si Si2 0.354264 0.068707 0.794405
Si Si3 0.797740 0.440889 0.315122
Si Si4 0.238489 0.250000 0.298295
Si Si5 0.881253 0.750000 0.032792
Si Si6 0.457899 0.941198 0.349174
O O1 0.330936 0.159397 0.682883
O O2 0.207625 0.250000 0.500013
O O3 0.205865 0.250000 0.845059
O O4 0.464434 0.059947 0.799441
O O5 0.305637 0.981021 0.700992
O O6 0.318488 0.075045 0.986887
O O7 0.802424 0.340297 0.227007
O O8 0.866209 0.514125 0.228034
O O9 0.151891 0.250000 0.167636
O O10 0.940650 0.660099 0.074119
O O11 0.500000 0.000000 0.500000
#
# Coordination Sequence:
#
# PCOD8255249 Si02
#       6
#     4   8   8   4   4   8
#     4  12  23  45  74  99 137 188 232 291 360 422
#     4  12  24  45  71 102 144 188 237 298 361 433
#     4  12  24  45  70 104 141 189 241 294 366 430
#     4  12  24  43  74 100 136 194 234 293 360 427
#     4  12  25  50  70 107 145 184 244 292 360 429
#     4  12  26  44  71 107 144 189 241 302 356 431
#
# _framework density 22.085702999999999
#
# number of rings (size 3 to 8) (size 9 to 14) (size 15 to 20)
#    0.000    0.000    4.444    6.667    0.000    0.889 
#    4.000    1.111    0.000    0.000    0.000    0.000 
#    0.000    0.000    0.000    0.000    0.000    0.000 
#
# Total GULP energy -446497.657694 kJ/mol
# GULP energy per Si atom -12402.712714 kJ/mol
# Density = 2.203543 g / cm^3
# Si number density = 22.085703 Si / 1000 Ang^3
#
#
#
# Elastic Constant Matrix: (Units=GPa)
#
#
# Indices 1 2 3 4 5 6 
#
# 1 102.4410 43.6222 12.5033 0.0000 0.0000 0.0000
# 2 43.6222 177.4514 30.6142 0.0000 0.0000 0.0000
# 3 12.5033 30.6142 102.9603 0.0000 0.0000 0.0000
# 4 0.0000 0.0000 0.0000 30.7248 0.0000 0.0000
# 5 0.0000 0.0000 0.0000 0.0000 22.0505 0.0000
# 6 0.0000 0.0000 0.0000 0.0000 0.0000 37.4264
#
#
#
# Elastic Compliance Matrix: (Units=1/GPa)
#
#
# Indices 1 2 3 4 5 6 
#
# 1 0.010933 -0.002592 -0.000557 0.000000 0.000000 0.000000
# 2 -0.002592 0.006554 -0.001634 0.000000 0.000000 0.000000
# 3 -0.000557 -0.001634 0.010266 0.000000 0.000000 0.000000
# 4 0.000000 0.000000 0.000000 0.032547 0.000000 0.000000
# 5 0.000000 0.000000 0.000000 0.000000 0.045350 0.000000
# 6 0.000000 0.000000 0.000000 0.000000 0.000000 0.026719
#
#
# Mechanical properties :
#
#
# Convention : Reuss Voigt Hill
#
# Bulk Modulus (GPa) = 54.98146 61.81467 58.39806
# Shear Modulus (GPa) = 33.78412 37.78122 35.78267
#
# Velocity S-wave (km/s) = 3.91536 4.14050 4.02950
# Velocity P-wave (km/s) = 6.73711 7.13496 6.93889
#
# Compressibility (1/GPa) = 0.01818795
#
# Stress axis : x y z
#
# Youngs Moduli (GPa) = 91.46388 152.57049 97.40854
#
# Poissons Ratio (x) = 0.39540 0.05427
# Poissons Ratio (y) = 0.23703 0.15918
# Poissons Ratio (z) = 0.05096 0.24932
#
# Static dielectric constant tensor:
#      x y z
#    x 5.016270 0.000000 0.000000 
#    y 0.000000 4.076320 0.000000 
#    z 0.000000 0.000000 4.074250 
# 
# 
# High freq. dielectric constant tensor:
#      x y z
#    x 1.858410 0.000000 0.000000 
#    y 0.000000 1.893250 0.000000 
#    z 0.000000 0.000000 1.881060 
# 
# From -- ./inp_files/6049.got.cif
#   From: 2010.03.12/outbox.cif.g09.slc.cpg/sg62_4_cif.got.tgz:6049.got - 2010.04.10 19:12:36.
