data_PCOD8255195
_publ_section_title
;
Structure prediction by ZEFSAII (Michael W. Deem and Ramdas Pophale) SiO2 
 PCOD8255195
Probable space group: P N M A
;
_chemical_formula_sum "Si O2"
_cell_formula_units_Z 56
_cell_length_a 33.996027
_cell_length_b 13.723526
_cell_length_c 5.587013
_cell_angle_alpha 90.000000
_cell_angle_beta 90.000000
_cell_angle_gamma 90.000000
_cell_volume 2606.594994
_symmetry_space_group_name_H-M "P N M A"
_symmetry_group_IT_number 62
_symmetry_cell_setting 'orthorhombic'
loop_
_space_group_symop_operation_xyz
x,y,z
1/2-x,-y,1/2+z
1/2+x,1/2-y,1/2-z
-x,1/2+y,-z
-x,-y,-z
1/2+x,y,1/2-z
1/2-x,1/2+y,1/2+z
x,1/2-y,z
loop_
_atom_site_type_symbol
_atom_site_label
_atom_site_fract_x
_atom_site_fract_y
_atom_site_fract_z
Si Si1 0.023707 0.500000 0.750000
Si Si2 0.585637 0.358072 0.599547
Si Si3 0.664064 0.141862 0.900648
Si Si4 0.375388 1.000000 0.750001
Si Si5 0.273727 0.500000 0.250001
Si Si6 0.335936 0.358138 0.400650
Si Si7 0.914362 0.358072 0.400452
O O1 0.050510 0.402498 0.741328
O O2 0.050510 0.597502 0.758672
O O3 0.000000 0.500000 0.500000
O O4 0.000000 0.500000 0.000000
O O5 0.573697 0.250000 0.507152
O O6 0.625098 0.350615 0.747742
O O7 0.593816 0.432004 0.386079
O O8 0.675746 0.250000 0.994217
O O9 0.699558 0.097605 0.744546
O O10 0.655335 0.067901 0.113194
O O11 0.344665 0.067901 0.613195
O O12 0.406184 0.067996 0.886081
O O13 0.250000 0.501228 0.500001
O O14 0.300442 0.402394 0.244548
O O15 0.324254 0.250000 0.494220
O O16 0.374902 0.350615 0.247744
O O17 0.926302 0.250000 0.492847
#
# Coordination Sequence:
#
# PCOD8255195 Si02
#       7
#     8   8   8   8   8   8   8
#     4  12  26  46  69 101 150 188 222 286 354 424
#     4  11  24  43  71 102 135 186 246 298 350 419
#     4  11  24  43  71 101 132 184 244 296 350 421
#     4  12  18  44  72 104 134 178 238 314 346 412
#     4  12  26  46  69 101 152 190 226 294 364 434
#     4  11  24  43  71 101 132 184 244 296 350 421
#     4  11  24  43  71 102 135 186 246 298 350 419
#
# _framework density 21.483968000000001
#
# number of rings (size 3 to 8) (size 9 to 14) (size 15 to 20)
#    0.000    0.571    5.714    2.571    0.000    2.286 
#    0.000    0.000    0.000    0.000    0.000    0.000 
#    0.000    0.000    0.000    0.000    0.000    0.000 
#
# Total GULP energy -694072.699969 kJ/mol
# GULP energy per Si atom -12394.155357 kJ/mol
# Density = 2.143507 g / cm^3
# Si number density = 21.483968 Si / 1000 Ang^3
#
#
#
# Elastic Constant Matrix: (Units=GPa)
#
#
# Indices 1 2 3 4 5 6 
#
# 1 118.4447 67.5629 51.8617 0.0000 0.0000 0.0000
# 2 67.5629 227.3410 68.6865 0.0000 0.0000 0.0000
# 3 51.8617 68.6865 125.4280 0.0000 0.0000 0.0000
# 4 0.0000 0.0000 0.0000 116.3827 0.0000 0.0000
# 5 0.0000 0.0000 0.0000 0.0000 35.0931 0.0000
# 6 0.0000 0.0000 0.0000 0.0000 0.0000 -50.3733
#
#
#
# Elastic Compliance Matrix: (Units=1/GPa)
#
#
# Indices 1 2 3 4 5 6 
#
# 1 0.011246 -0.002321 -0.003379 0.000000 0.000000 0.000000
# 2 -0.002321 0.005750 -0.002189 0.000000 0.000000 0.000000
# 3 -0.003379 -0.002189 0.010568 0.000000 0.000000 0.000000
# 4 0.000000 0.000000 0.000000 0.008592 0.000000 0.000000
# 5 0.000000 0.000000 0.000000 0.000000 0.028496 0.000000
# 6 0.000000 0.000000 0.000000 0.000000 0.000000 -0.019852
#
#
# Mechanical properties :
#
#
# Convention : Reuss Voigt Hill
#
# Bulk Modulus (GPa) = 84.84370 94.15952 89.50161
# Shear Modulus (GPa) = 77.50953 39.09400 58.30176
#
# Velocity S-wave (km/s) = 6.01300 4.27040 5.21500
# Velocity P-wave (km/s) = 9.36940 8.26063 8.83243
#
# Compressibility (1/GPa) = 0.01178638
#
# Stress axis : x y z
#
# Youngs Moduli (GPa) = 88.91724 173.91587 94.62109
#
# Poissons Ratio (x) = 0.40373 0.31971
# Poissons Ratio (y) = 0.20642 0.20711
# Poissons Ratio (z) = 0.30044 0.38068
#
# Static dielectric constant tensor:
#      x y z
#    x 4.134620 0.000000 0.000000 
#    y 0.000000 5.206530 0.000000 
#    z 0.000000 0.000000 3.897270 
# 
# 
# High freq. dielectric constant tensor:
#      x y z
#    x 1.846990 0.000000 0.000000 
#    y 0.000000 1.861060 0.000000 
#    z 0.000000 0.000000 1.837790 
# 
# From -- ./inp_files/3604.got.cif
#   From: 2010.03.12/outbox.cif.g09.slc.cpg/sg62_2_cif.got.tgz:3604.got - 2010.04.10 19:12:36.
