data_PCOD8255362
_publ_section_title
;
Structure prediction by ZEFSAII (Michael W. Deem and Ramdas Pophale) SiO2 
 PCOD8255362
Probable space group: C M C M
;
_chemical_formula_sum "Si O2"
_cell_formula_units_Z 104
_cell_length_a 13.492689
_cell_length_b 18.164011
_cell_length_c 25.288215
_cell_angle_alpha 90.000000
_cell_angle_beta 90.000000
_cell_angle_gamma 90.000000
_cell_volume 6197.669907
_symmetry_space_group_name_H-M "C M C M"
_symmetry_group_IT_number 63
_symmetry_cell_setting 'orthorhombic'
loop_
_space_group_symop_operation_xyz
x,y,z
-x,-y,1/2+z
x,-y,-z
-x,y,1/2-z
-x,-y,-z
x,y,1/2-z
-x,y,z
x,-y,1/2+z
1/2+x,1/2+y,z
1/2-x,1/2-y,1/2+z
1/2+x,1/2-y,-z
1/2-x,1/2+y,1/2-z
1/2-x,1/2-y,-z
1/2+x,1/2+y,1/2-z
1/2-x,1/2+y,z
1/2+x,1/2-y,1/2+z
loop_
_atom_site_type_symbol
_atom_site_label
_atom_site_fract_x
_atom_site_fract_y
_atom_site_fract_z
Si Si1 0.882075 0.250242 0.750000
Si Si2 0.107419 0.338090 0.190125
Si Si3 0.617416 0.411331 0.947312
Si Si4 0.611970 0.315468 0.647477
Si Si5 0.182652 0.127072 0.828375
Si Si6 0.611625 0.488401 0.250000
Si Si7 0.777673 0.867337 0.750000
Si Si8 0.117136 0.923116 0.436149
O O1 0.846080 0.205587 0.697803
O O2 0.833657 0.332584 0.750000
O O3 0.000000 0.259654 0.750000
O O4 0.113008 0.305476 0.250000
O O5 0.115353 0.272894 0.146940
O O6 0.200540 0.391415 0.180823
O O7 0.000000 0.378288 0.182535
O O8 0.500000 0.409387 0.950848
O O9 0.657805 0.349470 0.906584
O O10 0.651125 0.492181 0.927616
O O11 0.657703 0.395604 0.006675
O O12 0.500000 0.344733 0.653652
O O13 0.672321 0.341454 0.697006
O O14 0.119146 0.062382 0.801936
O O15 0.162779 0.128816 0.890847
O O16 0.500000 0.523758 0.250000
O O17 0.704613 0.544643 0.250000
O O18 0.000000 0.916300 0.433332
#
# Coordination Sequence:
#
# PCOD8255362 Si02
#       8
#     8  16  16  16  16   8   8  16
#     4  11  22  35  50  71 105 141 168 195 244 308
#     4  10  18  31  49  70  97 131 166 202 251 303
#     4   8  16  28  44  71 102 129 160 203 256 301
#     4  10  16  27  47  70  96 123 160 205 245 292
#     4  11  18  34  51  77 101 131 168 206 252 303
#     4  11  22  31  49  81 104 120 160 217 252 287
#     4  12  20  32  47  74 101 133 164 198 256 297
#     4   9  16  28  46  69 101 136 162 196 253 310
#
# _framework density 16.7805
#
# number of rings (size 3 to 8) (size 9 to 14) (size 15 to 20)
#    0.000    2.000    3.846    4.385    0.000    1.231 
#    0.000    1.538    0.000    0.000    0.000    2.154 
#    0.000    0.000    0.000    0.000    0.000    0.000 
#
# Total GULP energy -644225.555272 kJ/mol
# GULP energy per Si atom -12388.952986 kJ/mol
# Density = 1.674231 g / cm^3
# Si number density = 16.780500 Si / 1000 Ang^3
#
#
#
# Elastic Constant Matrix: (Units=GPa)
#
#
# Indices 1 2 3 4 5 6 
#
# 1 88.2676 24.6123 34.2281 0.0000 0.0000 0.0000
# 2 24.6123 48.6475 25.1754 0.0000 0.0000 0.0000
# 3 34.2281 25.1754 121.1896 0.0000 0.0000 0.0000
# 4 0.0000 0.0000 0.0000 19.8436 0.0000 0.0000
# 5 0.0000 0.0000 0.0000 0.0000 -0.3495 0.0000
# 6 0.0000 0.0000 0.0000 0.0000 0.0000 20.0020
#
#
#
# Elastic Compliance Matrix: (Units=1/GPa)
#
#
# Indices 1 2 3 4 5 6 
#
# 1 0.013977 -0.005634 -0.002777 0.000000 0.000000 0.000000
# 2 -0.005634 0.025303 -0.003665 0.000000 0.000000 0.000000
# 3 -0.002777 -0.003665 0.009797 0.000000 0.000000 0.000000
# 4 0.000000 0.000000 0.000000 0.050394 0.000000 0.000000
# 5 0.000000 0.000000 0.000000 0.000000 -2.861307 0.000000
# 6 0.000000 0.000000 0.000000 0.000000 0.000000 0.049995
#
#
# Mechanical properties :
#
#
# Convention : Reuss Voigt Hill
#
# Bulk Modulus (GPa) = 40.12096 47.34850 43.73473
# Shear Modulus (GPa) = -1.86610 19.50514 8.81952
#
# Velocity S-wave (km/s) = -1.05569 3.41305 2.29504
# Velocity P-wave (km/s) = 4.74080 6.61888 5.75694
#
# Compressibility (1/GPa) = 0.02492463
#
# Stress axis : x y z
#
# Youngs Moduli (GPa) = 71.54523 39.52052 102.06911
#
# Poissons Ratio (x) = 0.22267 0.28347
# Poissons Ratio (y) = 0.40311 0.37409
# Poissons Ratio (z) = 0.19869 0.14485
#
# Static dielectric constant tensor:
#      x y z
#    x 3.054360 0.000000 0.000000 
#    y 0.000000 3.109490 0.000000 
#    z 0.000000 0.000000 4.049460 
# 
# 
# High freq. dielectric constant tensor:
#      x y z
#    x 1.620430 0.000000 0.000000 
#    y 0.000000 1.615270 0.000000 
#    z 0.000000 0.000000 1.648930 
# 
# From -- ./inp_files/69506.got.cif
#   From: 2010.03.12/outbox.cif.g09.slc.cpg/sg63_35_cif.got.tgz:69506.got - 2010.04.10 19:34:48.
