data_PCOD8255082
_publ_section_title
;
Structure prediction by ZEFSAII (Michael W. Deem and Ramdas Pophale) SiO2 
 PCOD8255082
Probable space group: P N M A
;
_chemical_formula_sum "Si O2"
_cell_formula_units_Z 32
_cell_length_a 10.958110
_cell_length_b 12.970355
_cell_length_c 11.886104
_cell_angle_alpha 90.000000
_cell_angle_beta 90.000000
_cell_angle_gamma 90.000000
_cell_volume 1689.378818
_symmetry_space_group_name_H-M "P N M A"
_symmetry_group_IT_number 62
_symmetry_cell_setting 'orthorhombic'
loop_
_space_group_symop_operation_xyz
x,y,z
1/2-x,-y,1/2+z
1/2+x,1/2-y,1/2-z
-x,1/2+y,-z
-x,-y,-z
1/2+x,y,1/2-z
1/2-x,1/2+y,1/2+z
x,1/2-y,z
loop_
_atom_site_type_symbol
_atom_site_label
_atom_site_fract_x
_atom_site_fract_y
_atom_site_fract_z
Si Si1 0.950806 0.631608 0.101876
Si Si2 0.917089 0.868613 0.572832
Si Si3 0.805115 0.462995 0.975160
Si Si4 0.424334 0.538533 0.155771
O O1 0.916223 0.750000 0.085906
O O2 0.859397 0.568112 0.023512
O O3 0.933902 0.601562 0.230811
O O4 0.089861 0.613861 0.065499
O O5 0.928666 0.750000 0.607152
O O6 0.774685 0.904117 0.571208
O O7 0.973727 0.889903 0.447706
O O8 0.993394 0.935136 0.663701
O O9 0.717383 0.490816 0.869281
#
# Coordination Sequence:
#
# PCOD8255082 Si02
#       4
#     8   8   8   8
#     4  11  22  38  64  87 116 158 195 243 299 341
#     4   9  18  37  57  82 122 156 186 241 293 332
#     4   9  22  39  55  89 126 142 198 248 282 353
#     4   9  21  36  60  91 113 151 205 240 277 362
#
# _framework density 18.941873000000001
#
# number of rings (size 3 to 8) (size 9 to 14) (size 15 to 20)
#    1.500    1.000    0.000    1.500    3.500    1.000 
#    0.000    6.250    0.000    0.000    0.000    0.000 
#    0.000    0.000    0.000    0.000    0.000    0.000 
#
# Total GULP energy -396599.723983 kJ/mol
# GULP energy per Si atom -12393.741374 kJ/mol
# Density = 1.889876 g / cm^3
# Si number density = 18.941873 Si / 1000 Ang^3
#
#
#
# Elastic Constant Matrix: (Units=GPa)
#
#
# Indices 1 2 3 4 5 6 
#
# 1 73.4423 57.8069 -0.6707 0.0000 0.0000 0.0000
# 2 57.8069 150.4296 30.1977 0.0000 0.0000 0.0000
# 3 -0.6707 30.1977 39.6275 0.0000 0.0000 0.0000
# 4 0.0000 0.0000 0.0000 26.6095 0.0000 0.0000
# 5 0.0000 0.0000 0.0000 0.0000 -2.5440 0.0000
# 6 0.0000 0.0000 0.0000 0.0000 0.0000 19.6295
#
#
#
# Elastic Compliance Matrix: (Units=1/GPa)
#
#
# Indices 1 2 3 4 5 6 
#
# 1 0.021395 -0.009792 0.007824 0.000000 0.000000 0.000000
# 2 -0.009792 0.012330 -0.009562 0.000000 0.000000 0.000000
# 3 0.007824 -0.009562 0.032654 0.000000 0.000000 0.000000
# 4 0.000000 0.000000 0.000000 0.037581 0.000000 0.000000
# 5 0.000000 0.000000 0.000000 0.000000 -0.393088 0.000000
# 6 0.000000 0.000000 0.000000 0.000000 0.000000 0.050944
#
#
# Mechanical properties :
#
#
# Convention : Reuss Voigt Hill
#
# Bulk Modulus (GPa) = 23.08429 48.68524 35.88476
# Shear Modulus (GPa) = -24.91462 20.48337 -2.21562
#
# Velocity S-wave (km/s) = -3.63067 3.29200 -1.08270
# Velocity P-wave (km/s) = 2.31566 6.34097 4.17407
#
# Compressibility (1/GPa) = 0.04331951
#
# Stress axis : x y z
#
# Youngs Moduli (GPa) = 46.73933 81.10239 30.62427
#
# Poissons Ratio (x) = 0.79419 -0.23961
# Poissons Ratio (y) = 0.45769 0.29282
# Poissons Ratio (z) = -0.36570 0.77548
#
# Static dielectric constant tensor:
#      x y z
#    x 3.523680 0.000000 0.000000 
#    y 0.000000 3.223050 0.000000 
#    z 0.000000 0.000000 3.151610 
# 
# 
# High freq. dielectric constant tensor:
#      x y z
#    x 1.741420 0.000000 0.000000 
#    y 0.000000 1.727480 0.000000 
#    z 0.000000 0.000000 1.712290 
# 
# From -- ./inp_files/11951.got.cif
#   From: 2010.03.12/outbox.cif.g09.slc.cpg/sg62_6_cif.got.tgz:11951.got - 2010.04.10 19:12:36.
