data_PCOD8255143
_publ_section_title
;
Structure prediction by ZEFSAII (Michael W. Deem and Ramdas Pophale) SiO2 
 PCOD8255143
Probable space group: P N M A
;
_chemical_formula_sum "Si O2"
_cell_formula_units_Z 56
_cell_length_a 10.077616
_cell_length_b 14.301959
_cell_length_c 18.638459
_cell_angle_alpha 90.000000
_cell_angle_beta 90.000000
_cell_angle_gamma 90.000000
_cell_volume 2686.354588
_symmetry_space_group_name_H-M "P N M A"
_symmetry_group_IT_number 62
_symmetry_cell_setting 'orthorhombic'
loop_
_space_group_symop_operation_xyz
x,y,z
1/2-x,-y,1/2+z
1/2+x,1/2-y,1/2-z
-x,1/2+y,-z
-x,-y,-z
1/2+x,y,1/2-z
1/2-x,1/2+y,1/2+z
x,1/2-y,z
loop_
_atom_site_type_symbol
_atom_site_label
_atom_site_fract_x
_atom_site_fract_y
_atom_site_fract_z
Si Si1 0.823801 0.642339 0.064767
Si Si2 0.040188 0.535558 0.695205
Si Si3 0.692040 0.354932 0.127693
Si Si4 0.724477 0.041331 0.416892
Si Si5 0.329158 0.852398 0.031203
Si Si6 0.558991 0.973035 0.641157
Si Si7 0.447156 0.351409 0.859315
O O1 0.874611 0.750000 0.059398
O O2 0.931924 0.575147 0.102942
O O3 0.703902 0.633882 0.120081
O O4 0.777343 0.608723 0.985965
O O5 0.152952 0.562927 0.637045
O O6 0.094799 0.542091 0.775252
O O7 0.907958 0.596850 0.683464
O O8 0.995244 0.427958 0.696189
O O9 0.719675 0.250000 0.155456
O O10 0.830525 0.405464 0.108098
O O11 0.622740 0.358259 0.050574
O O12 0.589780 0.061422 0.373439
O O13 0.729526 0.933601 0.443068
O O14 0.263182 0.750000 0.047154
O O15 0.469911 0.862897 0.068647
O O16 0.469153 0.250000 0.823121
#
# Coordination Sequence:
#
# PCOD8255143 Si02
#       7
#     8   8   8   8   8   8   8
#     4  11  23  40  66  96 129 166 214 267 320 377
#     4  11  23  42  67  90 128 170 216 262 314 383
#     4  11  23  41  65  90 123 164 212 264 316 374
#     4  11  23  40  65  95 129 169 212 264 316 377
#     4   9  18  35  63  95 124 160 213 266 314 368
#     4  12  25  42  61  95 134 172 208 257 326 385
#     4   9  18  36  64  95 122 158 210 264 310 368
#
# _framework density 20.846094000000001
#
# number of rings (size 3 to 8) (size 9 to 14) (size 15 to 20)
#    0.000    1.429    2.857    2.143    0.000    6.286 
#    0.000    1.429    0.000    0.000    0.000    0.000 
#    0.000    0.000    0.000    0.000    0.000    0.000 
#
# Total GULP energy -693962.575494 kJ/mol
# GULP energy per Si atom -12392.188848 kJ/mol
# Density = 2.079865 g / cm^3
# Si number density = 20.846094 Si / 1000 Ang^3
#
#
#
# Elastic Constant Matrix: (Units=GPa)
#
#
# Indices 1 2 3 4 5 6 
#
# 1 88.5029 32.7760 0.2197 0.0000 0.0000 0.0000
# 2 32.7760 102.6988 11.6938 0.0000 0.0000 0.0000
# 3 0.2197 11.6938 60.5505 0.0000 0.0000 0.0000
# 4 0.0000 0.0000 0.0000 10.6352 0.0000 0.0000
# 5 0.0000 0.0000 0.0000 0.0000 25.0760 0.0000
# 6 0.0000 0.0000 0.0000 0.0000 0.0000 13.8333
#
#
#
# Elastic Compliance Matrix: (Units=1/GPa)
#
#
# Indices 1 2 3 4 5 6 
#
# 1 0.012848 -0.004187 0.000762 0.000000 0.000000 0.000000
# 2 -0.004187 0.011321 -0.002171 0.000000 0.000000 0.000000
# 3 0.000762 -0.002171 0.016932 0.000000 0.000000 0.000000
# 4 0.000000 0.000000 0.000000 0.094027 0.000000 0.000000
# 5 0.000000 0.000000 0.000000 0.000000 0.039879 0.000000
# 6 0.000000 0.000000 0.000000 0.000000 0.000000 0.072289
#
#
# Mechanical properties :
#
#
# Convention : Reuss Voigt Hill
#
# Bulk Modulus (GPa) = 33.43610 37.90347 35.66978
# Shear Modulus (GPa) = 18.62493 23.71309 21.16901
#
# Velocity S-wave (km/s) = 2.99231 3.37639 3.19013
# Velocity P-wave (km/s) = 5.29272 5.78118 5.54233
#
# Compressibility (1/GPa) = 0.02990779
#
# Stress axis : x y z
#
# Youngs Moduli (GPa) = 77.83424 88.33352 59.06096
#
# Poissons Ratio (x) = 0.36986 -0.04501
# Poissons Ratio (y) = 0.32590 0.12823
# Poissons Ratio (z) = -0.05931 0.19178
#
# Static dielectric constant tensor:
#      x y z
#    x 3.581440 0.000000 0.000000 
#    y 0.000000 4.135780 0.000000 
#    z 0.000000 0.000000 3.603180 
# 
# 
# High freq. dielectric constant tensor:
#      x y z
#    x 1.811690 0.000000 0.000000 
#    y 0.000000 1.821660 0.000000 
#    z 0.000000 0.000000 1.808480 
# 
# From -- ./inp_files/26000.got.cif
#   From: 2010.03.12/outbox.cif.g09.slc.cpg/sg62_13_cif.got.tgz:26000.got - 2010.04.10 19:12:36.
