data_PCOD8255228
_publ_section_title
;
Structure prediction by ZEFSAII (Michael W. Deem and Ramdas Pophale) SiO2 
 PCOD8255228
Probable space group: P N M A
;
_chemical_formula_sum "Si O2"
_cell_formula_units_Z 40
_cell_length_a 11.389181
_cell_length_b 17.538074
_cell_length_c 8.876728
_cell_angle_alpha 90.000000
_cell_angle_beta 90.000000
_cell_angle_gamma 90.000000
_cell_volume 1773.075813
_symmetry_space_group_name_H-M "P N M A"
_symmetry_group_IT_number 62
_symmetry_cell_setting 'orthorhombic'
loop_
_space_group_symop_operation_xyz
x,y,z
1/2-x,-y,1/2+z
1/2+x,1/2-y,1/2-z
-x,1/2+y,-z
-x,-y,-z
1/2+x,y,1/2-z
1/2-x,1/2+y,1/2+z
x,1/2-y,z
loop_
_atom_site_type_symbol
_atom_site_label
_atom_site_fract_x
_atom_site_fract_y
_atom_site_fract_z
Si Si1 0.111272 0.956459 0.063616
Si Si2 0.514795 0.089539 0.971853
Si Si3 0.223648 0.838330 0.541898
Si Si4 0.555201 0.160345 0.667196
Si Si5 0.700546 0.066103 0.188979
O O1 0.067371 0.869677 0.094504
O O2 0.151252 0.992648 0.222423
O O3 0.216414 0.962819 0.945466
O O4 0.000000 0.000000 0.000000
O O5 0.594893 0.115360 0.113586
O O6 0.392299 0.133094 0.958939
O O7 0.582775 0.111447 0.817961
O O8 0.500000 0.000000 0.000000
O O9 0.212171 0.750000 0.572387
O O10 0.338017 0.858145 0.444880
O O11 0.228058 0.878834 0.702660
O O12 0.543572 0.250000 0.701657
#
# Coordination Sequence:
#
# PCOD8255228 Si02
#       5
#     8   8   8   8   8
#     4  12  26  47  75 111 150 192 252 307 367 442
#     4  12  26  45  76 106 145 194 250 306 368 447
#     4  11  27  49  70 107 154 193 245 315 377 444
#     4  11  27  49  75 107 149 198 250 309 378 443
#     4  12  27  44  76 109 145 194 250 301 370 444
#
# _framework density 22.559667000000001
#
# number of rings (size 3 to 8) (size 9 to 14) (size 15 to 20)
#    0.000    0.400    4.000    3.000    5.600    2.400 
#    0.000    0.000    0.000    0.000    0.000    0.000 
#    0.000    0.000    0.000    0.000    0.000    0.000 
#
# Total GULP energy -496086.789061 kJ/mol
# GULP energy per Si atom -12402.169727 kJ/mol
# Density = 2.250832 g / cm^3
# Si number density = 22.559667 Si / 1000 Ang^3
#
#
#
# Elastic Constant Matrix: (Units=GPa)
#
#
# Indices 1 2 3 4 5 6 
#
# 1 118.9552 37.6542 48.0255 0.0000 0.0000 0.0000
# 2 37.6542 88.2212 34.0200 0.0000 0.0000 0.0000
# 3 48.0255 34.0200 132.7685 0.0000 0.0000 0.0000
# 4 0.0000 0.0000 0.0000 35.2646 0.0000 0.0000
# 5 0.0000 0.0000 0.0000 0.0000 43.6778 0.0000
# 6 0.0000 0.0000 0.0000 0.0000 0.0000 39.5508
#
#
#
# Elastic Compliance Matrix: (Units=1/GPa)
#
#
# Indices 1 2 3 4 5 6 
#
# 1 0.010695 -0.003410 -0.002995 0.000000 0.000000 0.000000
# 2 -0.003410 0.013665 -0.002268 0.000000 0.000000 0.000000
# 3 -0.002995 -0.002268 0.009196 0.000000 0.000000 0.000000
# 4 0.000000 0.000000 0.000000 0.028357 0.000000 0.000000
# 5 0.000000 0.000000 0.000000 0.000000 0.022895 0.000000
# 6 0.000000 0.000000 0.000000 0.000000 0.000000 0.025284
#
#
# Mechanical properties :
#
#
# Convention : Reuss Voigt Hill
#
# Bulk Modulus (GPa) = 61.68711 64.37159 63.02935
# Shear Modulus (GPa) = 37.63874 38.38165 38.01020
#
# Velocity S-wave (km/s) = 4.08905 4.12920 4.10917
# Velocity P-wave (km/s) = 7.04962 7.16447 7.10728
#
# Compressibility (1/GPa) = 0.01621084
#
# Stress axis : x y z
#
# Youngs Moduli (GPa) = 93.50134 73.17884 108.73835
#
# Poissons Ratio (x) = 0.24953 0.32566
# Poissons Ratio (y) = 0.31883 0.24662
# Poissons Ratio (z) = 0.28003 0.16597
#
# Static dielectric constant tensor:
#      x y z
#    x 4.445430 0.000000 0.000000 
#    y 0.000000 4.111050 0.000000 
#    z 0.000000 0.000000 4.325240 
# 
# 
# High freq. dielectric constant tensor:
#      x y z
#    x 1.903360 0.000000 0.000000 
#    y 0.000000 1.883860 0.000000 
#    z 0.000000 0.000000 1.908110 
# 
# From -- ./inp_files/5030.got.cif
#   From: 2010.03.12/outbox.cif.g09.slc.cpg/sg62_3_cif.got.tgz:5030.got - 2010.04.10 19:12:36.
