data_PCOD8255945
_publ_section_title
;
Structure prediction by ZEFSAII (Michael W. Deem and Ramdas Pophale) SiO2 
 PCOD8255945
Probable space group: C M C M
;
_chemical_formula_sum "Si O2"
_cell_formula_units_Z 88
_cell_length_a 33.807926
_cell_length_b 17.459270
_cell_length_c 8.843870
_cell_angle_alpha 90.000000
_cell_angle_beta 90.000000
_cell_angle_gamma 90.000000
_cell_volume 5220.197813
_symmetry_space_group_name_H-M "C M C M"
_symmetry_group_IT_number 63
_symmetry_cell_setting 'orthorhombic'
loop_
_space_group_symop_operation_xyz
x,y,z
-x,-y,1/2+z
x,-y,-z
-x,y,1/2-z
-x,-y,-z
x,y,1/2-z
-x,y,z
x,-y,1/2+z
1/2+x,1/2+y,z
1/2-x,1/2-y,1/2+z
1/2+x,1/2-y,-z
1/2-x,1/2+y,1/2-z
1/2-x,1/2-y,-z
1/2+x,1/2+y,1/2-z
1/2-x,1/2+y,z
1/2+x,1/2-y,1/2+z
loop_
_atom_site_type_symbol
_atom_site_label
_atom_site_fract_x
_atom_site_fract_y
_atom_site_fract_z
Si Si1 0.543103 0.290010 0.575723
Si Si2 0.842521 0.920788 0.570947
Si Si3 0.267916 0.362020 0.417329
Si Si4 0.302596 0.193062 0.083003
Si Si5 0.500000 0.417275 0.070088
Si Si6 0.120743 0.228357 0.929616
O O1 0.554679 0.302500 0.750000
O O2 0.500000 0.247147 0.562476
O O3 0.538871 0.372589 0.492346
O O4 0.577905 0.243740 0.490529
O O5 0.846768 0.922846 0.750000
O O6 0.796428 0.909828 0.526934
O O7 0.869204 0.852739 0.505278
O O8 0.858153 0.000000 0.500000
O O9 0.269027 0.398901 0.250000
O O10 0.281996 0.275181 0.409511
O O11 0.222582 0.363913 0.477102
O O12 0.303706 0.156441 0.250000
O O13 0.347301 0.206699 0.021704
O O14 0.500000 0.420421 0.250000
O O15 0.500000 0.500000 0.000000
O O16 0.121185 0.218133 0.750000
#
# Coordination Sequence:
#
# PCOD8255945 Si02
#       6
#    16  16  16  16   8  16
#     4   9  19  32  44  59  77  98 127 162 202 246
#     4  11  21  32  44  58  80 106 134 168 205 243
#     4   9  16  27  42  60  80 102 130 159 194 238
#     4   8  15  26  41  61  81 101 126 159 197 236
#     4  10  18  30  44  56  70  92 124 160 197 236
#     4  10  19  31  46  63  81 102 133 169 206 245
#
# _framework density 16.857599
#
# number of rings (size 3 to 8) (size 9 to 14) (size 15 to 20)
#    0.545    2.000    0.000    4.909    0.000    5.818 
#    0.000    3.636    0.000    0.000    0.000    0.000 
#    0.000    0.000    0.000    0.000    0.000    0.909 
#
# Total GULP energy -545189.643587 kJ/mol
# GULP energy per Si atom -12390.673718 kJ/mol
# Density = 1.681923 g / cm^3
# Si number density = 16.857599 Si / 1000 Ang^3
#
#
#
# Elastic Constant Matrix: (Units=GPa)
#
#
# Indices 1 2 3 4 5 6 
#
# 1 116.5768 4.1519 38.9332 0.0000 0.0000 0.0000
# 2 4.1519 4.6063 4.5895 0.0000 0.0000 0.0000
# 3 38.9332 4.5895 112.7300 0.0000 0.0000 0.0000
# 4 0.0000 0.0000 0.0000 13.9565 0.0000 0.0000
# 5 0.0000 0.0000 0.0000 0.0000 31.2023 0.0000
# 6 0.0000 0.0000 0.0000 0.0000 0.0000 14.7373
#
#
#
# Elastic Compliance Matrix: (Units=1/GPa)
#
#
# Indices 1 2 3 4 5 6 
#
# 1 0.009839 -0.005714 -0.003165 0.000000 0.000000 0.000000
# 2 -0.005714 0.229592 -0.007374 0.000000 0.000000 0.000000
# 3 -0.003165 -0.007374 0.010264 0.000000 0.000000 0.000000
# 4 0.000000 0.000000 0.000000 0.071651 0.000000 0.000000
# 5 0.000000 0.000000 0.000000 0.000000 0.032049 0.000000
# 6 0.000000 0.000000 0.000000 0.000000 0.000000 0.067855
#
#
# Mechanical properties :
#
#
# Convention : Reuss Voigt Hill
#
# Bulk Modulus (GPa) = 4.60430 36.58471 20.59451
# Shear Modulus (GPa) = 9.50295 24.39513 16.94904
#
# Velocity S-wave (km/s) = 2.37685 3.80824 3.17428
# Velocity P-wave (km/s) = 3.20465 6.40986 5.06735
#
# Compressibility (1/GPa) = 0.21718814
#
# Stress axis : x y z
#
# Youngs Moduli (GPa) = 101.63981 4.35555 97.42648
#
# Poissons Ratio (x) = 0.02489 0.30838
# Poissons Ratio (y) = 0.58080 0.71840
# Poissons Ratio (z) = 0.32172 0.03212
#
# Static dielectric constant tensor:
#      x y z
#    x 3.439830 0.000000 0.000000 
#    y 0.000000 2.606400 0.000000 
#    z 0.000000 0.000000 3.340240 
# 
# 
# High freq. dielectric constant tensor:
#      x y z
#    x 1.652450 0.000000 0.000000 
#    y 0.000000 1.568130 0.000000 
#    z 0.000000 0.000000 1.668230 
# 
# From -- ./inp_files/14181.got.cif
#   From: 2010.03.12/outbox.cif.g09.slc.cpg/sg63_8_cif.got.tgz:14181.got - 2010.04.10 19:34:48.
