data_PCOD8255084
_publ_section_title
;
Structure prediction by ZEFSAII (Michael W. Deem and Ramdas Pophale) SiO2 
 PCOD8255084
Probable space group: P N M A
;
_chemical_formula_sum "Si O2"
_cell_formula_units_Z 56
_cell_length_a 9.398401
_cell_length_b 20.321991
_cell_length_c 13.547883
_cell_angle_alpha 90.000000
_cell_angle_beta 90.000000
_cell_angle_gamma 90.000000
_cell_volume 2587.567354
_symmetry_space_group_name_H-M "P N M A"
_symmetry_group_IT_number 62
_symmetry_cell_setting 'orthorhombic'
loop_
_space_group_symop_operation_xyz
x,y,z
1/2-x,-y,1/2+z
1/2+x,1/2-y,1/2-z
-x,1/2+y,-z
-x,-y,-z
1/2+x,y,1/2-z
1/2-x,1/2+y,1/2+z
x,1/2-y,z
loop_
_atom_site_type_symbol
_atom_site_label
_atom_site_fract_x
_atom_site_fract_y
_atom_site_fract_z
Si Si1 0.147200 0.415943 0.216520
Si Si2 0.532416 0.135853 0.471583
Si Si3 0.716874 0.459417 0.570327
Si Si4 0.720116 0.391441 0.066668
Si Si5 0.094077 0.250000 0.881077
Si Si6 0.389918 0.991910 0.222821
Si Si7 0.405068 0.250000 0.802503
Si Si8 0.511514 0.620138 0.084984
O O1 0.098663 0.359826 0.138959
O O2 0.194059 0.380141 0.317276
O O3 0.279944 0.457231 0.171239
O O4 0.021559 0.467314 0.235619
O O5 0.575048 0.063240 0.511930
O O6 0.363393 0.145775 0.465869
O O7 0.598400 0.187864 0.546673
O O8 0.764647 0.531915 0.539397
O O9 0.690058 0.456338 0.687279
O O10 0.840195 0.407229 0.543997
O O11 0.588003 0.361280 0.007502
O O12 0.233762 0.250000 0.811323
O O13 0.953559 0.250000 0.812248
O O14 0.435790 0.936519 0.147528
O O15 0.469957 0.185320 0.851533
#
# Coordination Sequence:
#
# PCOD8255084 Si02
#       8
#     8   8   8   8   4   8   4   8
#     4  11  23  42  67 103 141 173 229 285 353 414
#     4  12  25  46  69  99 142 184 236 286 344 416
#     4  11  22  40  65 104 139 179 232 282 360 408
#     4  11  25  40  70 108 133 186 225 295 357 408
#     4  12  30  52  77  99 136 190 235 283 343 414
#     4  11  22  38  65 105 140 179 222 289 354 413
#     4  12  30  52  69 103 136 186 233 285 337 422
#     4  12  25  42  69  99 144 184 233 285 343 418
#
# _framework density 21.641949
#
# number of rings (size 3 to 8) (size 9 to 14) (size 15 to 20)
#    0.000    0.571    7.143    2.571    6.000    0.000 
#    0.000    1.429    0.000    0.000    0.000    0.000 
#    0.000    0.000    0.000    0.000    0.000    0.000 
#
# Total GULP energy -694536.290575 kJ/mol
# GULP energy per Si atom -12402.433760 kJ/mol
# Density = 2.159269 g / cm^3
# Si number density = 21.641949 Si / 1000 Ang^3
#
#
#
# Elastic Constant Matrix: (Units=GPa)
#
#
# Indices 1 2 3 4 5 6 
#
# 1 125.9879 20.9056 48.4815 0.0000 0.0000 0.0000
# 2 20.9056 59.4152 33.2690 0.0000 0.0000 0.0000
# 3 48.4815 33.2690 90.1920 0.0000 0.0000 0.0000
# 4 0.0000 0.0000 0.0000 30.4109 0.0000 0.0000
# 5 0.0000 0.0000 0.0000 0.0000 38.5143 0.0000
# 6 0.0000 0.0000 0.0000 0.0000 0.0000 19.5905
#
#
#
# Elastic Compliance Matrix: (Units=1/GPa)
#
#
# Indices 1 2 3 4 5 6 
#
# 1 0.010027 -0.000643 -0.005153 0.000000 0.000000 0.000000
# 2 -0.000643 0.021253 -0.007494 0.000000 0.000000 0.000000
# 3 -0.005153 -0.007494 0.016622 0.000000 0.000000 0.000000
# 4 0.000000 0.000000 0.000000 0.032883 0.000000 0.000000
# 5 0.000000 0.000000 0.000000 0.000000 0.025964 0.000000
# 6 0.000000 0.000000 0.000000 0.000000 0.000000 0.051045
#
#
# Mechanical properties :
#
#
# Convention : Reuss Voigt Hill
#
# Bulk Modulus (GPa) = 46.89914 53.43415 50.16664
# Shear Modulus (GPa) = 26.11233 29.23240 27.67237
#
# Velocity S-wave (km/s) = 3.47733 3.67921 3.57969
# Velocity P-wave (km/s) = 6.15142 6.54160 6.34950
#
# Compressibility (1/GPa) = 0.02132235
#
# Stress axis : x y z
#
# Youngs Moduli (GPa) = 99.73355 47.05188 60.16296
#
# Poissons Ratio (x) = 0.03024 0.31000
# Poissons Ratio (y) = 0.06411 0.45087
# Poissons Ratio (z) = 0.51389 0.35261
#
# Static dielectric constant tensor:
#      x y z
#    x 4.188790 0.000000 0.000000 
#    y 0.000000 3.599550 0.000000 
#    z 0.000000 0.000000 4.066120 
# 
# 
# High freq. dielectric constant tensor:
#      x y z
#    x 1.870730 0.000000 0.000000 
#    y 0.000000 1.815580 0.000000 
#    z 0.000000 0.000000 1.859120 
# 
# From -- ./inp_files/17241.got.cif
#   From: 2010.03.12/outbox.cif.g09.slc.cpg/sg62_9_cif.got.tgz:17241.got - 2010.04.10 19:12:36.
