data_PCOD8255656
_publ_section_title
;
Structure prediction by ZEFSAII (Michael W. Deem and Ramdas Pophale) SiO2 
 PCOD8255656
Probable space group: C M C M
;
_chemical_formula_sum "Si O2"
_cell_formula_units_Z 80
_cell_length_a 23.030596
_cell_length_b 28.410074
_cell_length_c 9.243600
_cell_angle_alpha 90.000000
_cell_angle_beta 90.000000
_cell_angle_gamma 90.000000
_cell_volume 6048.096138
_symmetry_space_group_name_H-M "C M C M"
_symmetry_group_IT_number 63
_symmetry_cell_setting 'orthorhombic'
loop_
_space_group_symop_operation_xyz
x,y,z
-x,-y,1/2+z
x,-y,-z
-x,y,1/2-z
-x,-y,-z
x,y,1/2-z
-x,y,z
x,-y,1/2+z
1/2+x,1/2+y,z
1/2-x,1/2-y,1/2+z
1/2+x,1/2-y,-z
1/2-x,1/2+y,1/2-z
1/2-x,1/2-y,-z
1/2+x,1/2+y,1/2-z
1/2-x,1/2+y,z
1/2+x,1/2-y,1/2+z
loop_
_atom_site_type_symbol
_atom_site_label
_atom_site_fract_x
_atom_site_fract_y
_atom_site_fract_z
Si Si1 0.066213 0.277165 0.418465
Si Si2 0.066101 0.545858 0.418387
Si Si3 0.733001 0.179744 0.588246
Si Si4 0.328254 0.280229 0.910065
Si Si5 0.870700 0.358815 0.578999
O O1 0.076219 0.290548 0.250000
O O2 0.105601 0.231504 0.458460
O O3 0.083880 0.321514 0.515024
O O4 0.000000 0.263549 0.451112
O O5 0.090167 0.500000 0.500000
O O6 0.069514 0.534987 0.250000
O O7 0.106029 0.589746 0.460705
O O8 0.000000 0.557020 0.465978
O O9 0.738819 0.159077 0.750000
O O10 0.705236 0.230978 0.591499
O O11 0.797486 0.183294 0.518941
O O12 0.692863 0.145749 0.491917
O O13 0.326944 0.302781 0.750000
O O14 0.865921 0.350416 0.750000
#
# Coordination Sequence:
#
# PCOD8255656 Si02
#       5
#    16  16  16  16  16
#     4   9  17  27  38  53  72  94 120 148 178 212
#     4   9  18  30  41  53  69  90 116 146 181 219
#     4   9  16  25  37  52  68  88 115 145 177 211
#     4   8  14  24  36  50  69  91 114 142 175 208
#     4  10  18  27  39  54  71  90 116 150 184 216
#
# _framework density 13.227302
#
# number of rings (size 3 to 8) (size 9 to 14) (size 15 to 20)
#    0.000    3.000    0.000    3.000    0.000    7.600 
#    0.000    2.000    0.000    0.000    0.000    0.000 
#    0.000    0.000    0.000    0.000    0.000    1.000 
#
# Total GULP energy -495835.413429 kJ/mol
# GULP energy per Si atom -12395.885336 kJ/mol
# Density = 1.319720 g / cm^3
# Si number density = 13.227302 Si / 1000 Ang^3
#
#
#
# Elastic Constant Matrix: (Units=GPa)
#
#
# Indices 1 2 3 4 5 6 
#
# 1 103.2136 48.1527 52.4997 0.0000 0.0000 0.0000
# 2 48.1527 49.0795 38.0072 0.0000 0.0000 0.0000
# 3 52.4997 38.0072 78.0047 0.0000 0.0000 0.0000
# 4 0.0000 0.0000 0.0000 18.1885 0.0000 0.0000
# 5 0.0000 0.0000 0.0000 0.0000 20.1018 0.0000
# 6 0.0000 0.0000 0.0000 0.0000 0.0000 16.9471
#
#
#
# Elastic Compliance Matrix: (Units=1/GPa)
#
#
# Indices 1 2 3 4 5 6 
#
# 1 0.019529 -0.014424 -0.006115 0.000000 0.000000 0.000000
# 2 -0.014424 0.043376 -0.011427 0.000000 0.000000 0.000000
# 3 -0.006115 -0.011427 0.022503 0.000000 0.000000 0.000000
# 4 0.000000 0.000000 0.000000 0.054980 0.000000 0.000000
# 5 0.000000 0.000000 0.000000 0.000000 0.049747 0.000000
# 6 0.000000 0.000000 0.000000 0.000000 0.000000 0.059007
#
#
# Mechanical properties :
#
#
# Convention : Reuss Voigt Hill
#
# Bulk Modulus (GPa) = 46.56519 56.40188 51.48354
# Shear Modulus (GPa) = 15.61371 17.15668 16.38519
#
# Velocity S-wave (km/s) = 3.43944 3.60539 3.52339
# Velocity P-wave (km/s) = 7.14516 7.75015 7.45380
#
# Compressibility (1/GPa) = 0.02147527
#
# Stress axis : x y z
#
# Youngs Moduli (GPa) = 51.20711 23.05443 44.43836
#
# Poissons Ratio (x) = 0.33254 0.27175
# Poissons Ratio (y) = 0.73862 0.50778
# Poissons Ratio (z) = 0.31315 0.26343
#
# Static dielectric constant tensor:
#      x y z
#    x 2.811360 0.000000 0.000000 
#    y 0.000000 2.330860 0.000000 
#    z 0.000000 0.000000 2.815360 
# 
# 
# High freq. dielectric constant tensor:
#      x y z
#    x 1.495570 0.000000 0.000000 
#    y 0.000000 1.450060 0.000000 
#    z 0.000000 0.000000 1.516470 
# 
# From -- ./inp_files/8886.got.cif
#   From: 2010.03.12/outbox.cif.g09.slc.cpg/sg63_5_cif.got.tgz:8886.got - 2010.04.10 19:34:48.
