data_PCOD8255813
_publ_section_title
;
Structure prediction by ZEFSAII (Michael W. Deem and Ramdas Pophale) SiO2 
 PCOD8255813
Probable space group: C M C M
;
_chemical_formula_sum "Si O2"
_cell_formula_units_Z 64
_cell_length_a 8.888141
_cell_length_b 18.788704
_cell_length_c 20.993843
_cell_angle_alpha 90.000000
_cell_angle_beta 90.000000
_cell_angle_gamma 90.000000
_cell_volume 3505.901459
_symmetry_space_group_name_H-M "C M C M"
_symmetry_group_IT_number 63
_symmetry_cell_setting 'orthorhombic'
loop_
_space_group_symop_operation_xyz
x,y,z
-x,-y,1/2+z
x,-y,-z
-x,y,1/2-z
-x,-y,-z
x,y,1/2-z
-x,y,z
x,-y,1/2+z
1/2+x,1/2+y,z
1/2-x,1/2-y,1/2+z
1/2+x,1/2-y,-z
1/2-x,1/2+y,1/2-z
1/2-x,1/2-y,-z
1/2+x,1/2+y,1/2-z
1/2-x,1/2+y,z
1/2+x,1/2-y,1/2+z
loop_
_atom_site_type_symbol
_atom_site_label
_atom_site_fract_x
_atom_site_fract_y
_atom_site_fract_z
Si Si1 0.177804 0.583805 0.122000
Si Si2 0.327481 0.934596 0.250000
Si Si3 0.326184 0.922879 0.112349
Si Si4 0.821717 0.326742 0.499745
Si Si5 0.175984 0.917435 0.750000
O O1 0.238174 0.503362 0.108977
O O2 0.252973 0.616291 0.185844
O O3 0.000000 0.583250 0.132006
O O4 0.227650 0.632585 0.063448
O O5 0.500000 0.964526 0.250000
O O6 0.301390 0.890733 0.184295
O O7 0.211809 0.999125 0.250000
O O8 0.500000 0.927352 0.094127
O O9 0.252194 0.870661 0.060353
O O10 0.750000 0.250000 0.500000
O O11 0.000000 0.318780 0.494916
O O12 0.000000 0.902766 0.750000
#
# Coordination Sequence:
#
# PCOD8255813 Si02
#       5
#    16   8  16  16   8
#     4   9  17  32  53  72  93 127 167 201 235 283
#     4   8  14  28  51  74  95 121 157 199 237 280
#     4   8  14  28  52  76  93 119 163 202 230 273
#     4  10  20  33  49  70  99 132 165 202 241 283
#     4  10  18  28  47  76 103 121 147 199 255 294
#
# _framework density 18.254933000000001
#
# number of rings (size 3 to 8) (size 9 to 14) (size 15 to 20)
#    0.000    3.000    0.000    3.375    0.000    4.000 
#    0.000    6.250    0.000    9.000    0.000    0.000 
#    0.000    0.000    0.000    0.000    0.000    0.000 
#
# Total GULP energy -396494.818877 kJ/mol
# GULP energy per Si atom -12390.463090 kJ/mol
# Density = 1.821338 g / cm^3
# Si number density = 18.254933 Si / 1000 Ang^3
#
#
#
# Elastic Constant Matrix: (Units=GPa)
#
#
# Indices 1 2 3 4 5 6 
#
# 1 36.3151 21.6293 43.2612 0.0000 0.0000 0.0000
# 2 21.6293 97.9052 88.4409 0.0000 0.0000 0.0000
# 3 43.2612 88.4409 216.1345 0.0000 0.0000 0.0000
# 4 0.0000 0.0000 0.0000 7.5992 0.0000 0.0000
# 5 0.0000 0.0000 0.0000 0.0000 16.0664 0.0000
# 6 0.0000 0.0000 0.0000 0.0000 0.0000 22.6768
#
#
#
# Elastic Compliance Matrix: (Units=1/GPa)
#
#
# Indices 1 2 3 4 5 6 
#
# 1 0.036488 -0.002322 -0.006353 0.000000 0.000000 0.000000
# 2 -0.002322 0.016351 -0.006226 0.000000 0.000000 0.000000
# 3 -0.006353 -0.006226 0.008446 0.000000 0.000000 0.000000
# 4 0.000000 0.000000 0.000000 0.131593 0.000000 0.000000
# 5 0.000000 0.000000 0.000000 0.000000 0.062242 0.000000
# 6 0.000000 0.000000 0.000000 0.000000 0.000000 0.044098
#
#
# Mechanical properties :
#
#
# Convention : Reuss Voigt Hill
#
# Bulk Modulus (GPa) = 31.76316 73.00195 52.38256
# Shear Modulus (GPa) = 14.72690 22.40337 18.56514
#
# Velocity S-wave (km/s) = 2.84339 3.50701 3.19249
# Velocity P-wave (km/s) = 5.31200 7.51505 6.50743
#
# Compressibility (1/GPa) = 0.03148301
#
# Stress axis : x y z
#
# Youngs Moduli (GPa) = 27.40607 61.15809 118.39802
#
# Poissons Ratio (x) = 0.14200 0.75223
# Poissons Ratio (y) = 0.06363 0.73715
# Poissons Ratio (z) = 0.17412 0.38077
#
# Static dielectric constant tensor:
#      x y z
#    x 2.963010 0.000000 0.000000 
#    y 0.000000 3.081380 0.000000 
#    z 0.000000 0.000000 3.991230 
# 
# 
# High freq. dielectric constant tensor:
#      x y z
#    x 1.667770 0.000000 0.000000 
#    y 0.000000 1.664730 0.000000 
#    z 0.000000 0.000000 1.738620 
# 
# From -- ./inp_files/50365.got.cif
#   From: 2010.03.12/outbox.cif.g09.slc.cpg/sg63_26_cif.got.tgz:50365.got - 2010.04.10 19:34:48.
