data_PCOD8255939
_publ_section_title
;
Structure prediction by ZEFSAII (Michael W. Deem and Ramdas Pophale) SiO2 
 PCOD8255939
Probable space group: C M C M
;
_chemical_formula_sum "Si O2"
_cell_formula_units_Z 96
_cell_length_a 8.884455
_cell_length_b 20.617792
_cell_length_c 28.413256
_cell_angle_alpha 90.000000
_cell_angle_beta 90.000000
_cell_angle_gamma 90.000000
_cell_volume 5204.679010
_symmetry_space_group_name_H-M "C M C M"
_symmetry_group_IT_number 63
_symmetry_cell_setting 'orthorhombic'
loop_
_space_group_symop_operation_xyz
x,y,z
-x,-y,1/2+z
x,-y,-z
-x,y,1/2-z
-x,-y,-z
x,y,1/2-z
-x,y,z
x,-y,1/2+z
1/2+x,1/2+y,z
1/2-x,1/2-y,1/2+z
1/2+x,1/2-y,-z
1/2-x,1/2+y,1/2-z
1/2-x,1/2-y,-z
1/2+x,1/2+y,1/2-z
1/2-x,1/2+y,z
1/2+x,1/2-y,1/2+z
loop_
_atom_site_type_symbol
_atom_site_label
_atom_site_fract_x
_atom_site_fract_y
_atom_site_fract_z
Si Si1 0.821899 0.630180 0.093142
Si Si2 0.179442 0.381170 0.395043
Si Si3 0.821734 0.426777 0.495316
Si Si4 0.821123 0.247414 0.148110
Si Si5 0.822263 0.509243 0.152453
Si Si6 0.178013 0.203305 0.250000
Si Si7 0.176849 0.436229 0.750000
O O1 0.741798 0.692895 0.113628
O O2 0.759803 0.567903 0.121101
O O3 0.000000 0.638731 0.099297
O O4 0.774814 0.618846 0.038947
O O5 0.238710 0.391126 0.448386
O O6 0.242209 0.315305 0.371984
O O7 0.244842 0.440851 0.364464
O O8 0.000000 0.380027 0.394036
O O9 0.754871 0.500000 0.500000
O O10 0.000000 0.433589 0.492874
O O11 0.764956 0.239096 0.202319
O O12 0.000000 0.244546 0.146157
O O13 0.773340 0.520749 0.205897
O O14 0.000000 0.507190 0.146377
O O15 0.238139 0.131022 0.250000
O O16 0.000000 0.200530 0.250000
O O17 0.000000 0.420651 0.750000
#
# Coordination Sequence:
#
# PCOD8255939 Si02
#       7
#    16  16  16  16  16   8   8
#     4  10  18  30  52  77  98 124 163 205 241 285
#     4   9  17  30  47  72 103 129 159 202 247 288
#     4   9  15  26  48  76 100 124 160 205 248 286
#     4  10  21  34  49  70 101 135 162 195 244 297
#     4   9  16  27  47  75  98 119 157 207 246 276
#     4  10  20  33  47  67  97 135 166 188 234 302
#     4  10  18  29  51  79  97 117 160 214 252 278
#
# _framework density 18.444942999999999
#
# number of rings (size 3 to 8) (size 9 to 14) (size 15 to 20)
#    0.000    2.500    3.333    0.000    0.000    1.333 
#    0.000    3.333    0.000    2.500    0.000    1.167 
#    0.000    0.000    0.000    0.000    0.000    0.000 
#
# Total GULP energy -594993.650146 kJ/mol
# GULP energy per Si atom -12395.701045 kJ/mol
# Density = 1.840296 g / cm^3
# Si number density = 18.444943 Si / 1000 Ang^3
#
#
#
# Elastic Constant Matrix: (Units=GPa)
#
#
# Indices 1 2 3 4 5 6 
#
# 1 -34.3782 -27.0163 -49.2741 0.0000 0.0000 0.0000
# 2 -27.0163 138.3909 40.9194 0.0000 0.0000 0.0000
# 3 -49.2741 40.9194 95.3538 0.0000 0.0000 0.0000
# 4 0.0000 0.0000 0.0000 50.6506 0.0000 0.0000
# 5 0.0000 0.0000 0.0000 0.0000 12.4945 0.0000
# 6 0.0000 0.0000 0.0000 0.0000 0.0000 20.3698
#
#
#
# Elastic Compliance Matrix: (Units=1/GPa)
#
#
# Indices 1 2 3 4 5 6 
#
# 1 -0.016632 -0.000808 -0.008248 0.000000 0.000000 0.000000
# 2 -0.000808 0.008237 -0.003952 0.000000 0.000000 0.000000
# 3 -0.008248 -0.003952 0.007921 0.000000 0.000000 0.000000
# 4 0.000000 0.000000 0.000000 0.019743 0.000000 0.000000
# 5 0.000000 0.000000 0.000000 0.000000 0.080035 0.000000
# 6 0.000000 0.000000 0.000000 0.000000 0.000000 0.049092
#
#
# Mechanical properties :
#
#
# Convention : Reuss Voigt Hill
#
# Bulk Modulus (GPa) = -37.75027 14.29161 -11.72933
# Shear Modulus (GPa) = 30.19632 32.35216 31.27424
#
# Velocity S-wave (km/s) = 4.05051 4.19260 4.12217
# Velocity P-wave (km/s) = 1.16815 5.58590 4.03528
#
# Compressibility (1/GPa) = -0.02648988
#
# Stress axis : x y z
#
# Youngs Moduli (GPa) = -60.12584 121.40714 126.24157
#
# Poissons Ratio (x) = 0.09811 1.04120
# Poissons Ratio (y) = -0.04859 0.49894
# Poissons Ratio (z) = -0.49590 0.47983
#
# Static dielectric constant tensor:
#      x y z
#    x 2.813920 0.000000 0.000000 
#    y 0.000000 4.007170 0.000000 
#    z 0.000000 0.000000 3.873330 
# 
# 
# High freq. dielectric constant tensor:
#      x y z
#    x 1.651010 0.000000 0.000000 
#    y 0.000000 1.718490 0.000000 
#    z 0.000000 0.000000 1.736830 
# 
# From -- ./inp_files/68372.got.cif
#   From: 2010.03.12/outbox.cif.g09.slc.cpg/sg63_35_cif.got.tgz:68372.got - 2010.04.10 19:34:48.
