data_PCOD8255243
_publ_section_title
;
Structure prediction by ZEFSAII (Michael W. Deem and Ramdas Pophale) SiO2 
 PCOD8255243
Probable space group: P N M A
;
_chemical_formula_sum "Si O2"
_cell_formula_units_Z 40
_cell_length_a 9.320621
_cell_length_b 10.702206
_cell_length_c 18.225911
_cell_angle_alpha 90.000000
_cell_angle_beta 90.000000
_cell_angle_gamma 90.000000
_cell_volume 1818.056603
_symmetry_space_group_name_H-M "P N M A"
_symmetry_group_IT_number 62
_symmetry_cell_setting 'orthorhombic'
loop_
_space_group_symop_operation_xyz
x,y,z
1/2-x,-y,1/2+z
1/2+x,1/2-y,1/2-z
-x,1/2+y,-z
-x,-y,-z
1/2+x,y,1/2-z
1/2-x,1/2+y,1/2+z
x,1/2-y,z
loop_
_atom_site_type_symbol
_atom_site_label
_atom_site_fract_x
_atom_site_fract_y
_atom_site_fract_z
Si Si1 0.591393 0.250000 0.659448
Si Si2 0.027665 0.516823 0.684723
Si Si3 0.125981 0.464876 0.946641
Si Si4 0.285093 0.108155 0.312019
Si Si5 0.901629 0.391640 0.467804
Si Si6 0.923843 0.250000 0.696671
O O1 0.560946 0.130326 0.610963
O O2 0.752423 0.250000 0.691742
O O3 0.466319 0.250000 0.718833
O O4 0.126395 0.517151 0.757422
O O5 0.112616 0.585154 0.619312
O O6 0.882350 0.589727 0.703617
O O7 0.989220 0.374757 0.659281
O O8 0.184849 0.580544 0.898119
O O9 0.247976 0.400277 0.994763
O O10 0.000000 0.500000 0.000000
O O11 0.329100 0.250000 0.295073
O O12 0.960725 0.250000 0.481585
O O13 0.000000 0.500000 0.500000
#
# Coordination Sequence:
#
# PCOD8255243 Si02
#       6
#     4   8   8   8   8   4
#     4  12  24  50  72 108 142 182 249 303 369 433
#     4  12  26  45  74 105 141 191 243 302 369 437
#     4  12  28  47  71 104 148 194 242 303 368 446
#     4  12  26  47  69 104 142 184 241 295 360 438
#     4  12  26  47  75 107 151 196 243 307 373 446
#     4  12  22  46  80 104 144 184 249 321 361 437
#
# _framework density 22.001515999999999
#
# number of rings (size 3 to 8) (size 9 to 14) (size 15 to 20)
#    0.000    0.000    7.000    1.800    5.600    1.600 
#    0.000    0.000    0.000    0.000    0.000    0.000 
#    0.000    0.000    0.000    0.000    0.000    0.000 
#
# Total GULP energy -496129.096443 kJ/mol
# GULP energy per Si atom -12403.227411 kJ/mol
# Density = 2.195144 g / cm^3
# Si number density = 22.001516 Si / 1000 Ang^3
#
#
#
# Elastic Constant Matrix: (Units=GPa)
#
#
# Indices 1 2 3 4 5 6 
#
# 1 59.7135 25.0388 58.2907 0.0000 0.0000 0.0000
# 2 25.0388 149.1853 35.1540 0.0000 0.0000 0.0000
# 3 58.2907 35.1540 127.5974 0.0000 0.0000 0.0000
# 4 0.0000 0.0000 0.0000 -13.1481 0.0000 0.0000
# 5 0.0000 0.0000 0.0000 0.0000 51.2103 0.0000
# 6 0.0000 0.0000 0.0000 0.0000 0.0000 31.8076
#
#
#
# Elastic Compliance Matrix: (Units=1/GPa)
#
#
# Indices 1 2 3 4 5 6 
#
# 1 0.030763 -0.001980 -0.013508 0.000000 0.000000 0.000000
# 2 -0.001980 0.007296 -0.001105 0.000000 0.000000 0.000000
# 3 -0.013508 -0.001105 0.014313 0.000000 0.000000 0.000000
# 4 0.000000 0.000000 0.000000 -0.076056 0.000000 0.000000
# 5 0.000000 0.000000 0.000000 0.000000 0.019527 0.000000
# 6 0.000000 0.000000 0.000000 0.000000 0.000000 0.031439
#
#
# Mechanical properties :
#
#
# Convention : Reuss Voigt Hill
#
# Bulk Modulus (GPa) = 52.12591 63.71812 57.92202
# Shear Modulus (GPa) = 74.77865 28.50812 51.64339
#
# Velocity S-wave (km/s) = 5.83624 3.60354 4.85011
# Velocity P-wave (km/s) = 8.31619 6.80717 7.59923
#
# Compressibility (1/GPa) = 0.01918432
#
# Stress axis : x y z
#
# Youngs Moduli (GPa) = 32.50632 137.06308 69.86810
#
# Poissons Ratio (x) = 0.27141 0.94379
# Poissons Ratio (y) = 0.06437 0.07724
# Poissons Ratio (z) = 0.43910 0.15152
#
# Static dielectric constant tensor:
#      x y z
#    x 3.637320 0.000000 0.000000 
#    y 0.000000 4.196270 0.000000 
#    z 0.000000 0.000000 4.169850 
# 
# 
# High freq. dielectric constant tensor:
#      x y z
#    x 1.854210 0.000000 0.000000 
#    y 0.000000 1.883980 0.000000 
#    z 0.000000 0.000000 1.878170 
# 
# From -- ./inp_files/21945.got.cif
#   From: 2010.03.12/outbox.cif.g09.slc.cpg/sg62_11_cif.got.tgz:21945.got - 2010.04.10 19:12:36.
