data_PCOD8255383
_publ_section_title
;
Structure prediction by ZEFSAII (Michael W. Deem and Ramdas Pophale) SiO2 
 PCOD8255383
Probable space group: C M C M
;
_chemical_formula_sum "Si O2"
_cell_formula_units_Z 80
_cell_length_a 23.936834
_cell_length_b 26.292337
_cell_length_c 8.767235
_cell_angle_alpha 90.000000
_cell_angle_beta 90.000000
_cell_angle_gamma 90.000000
_cell_volume 5517.705868
_symmetry_space_group_name_H-M "C M C M"
_symmetry_group_IT_number 63
_symmetry_cell_setting 'orthorhombic'
loop_
_space_group_symop_operation_xyz
x,y,z
-x,-y,1/2+z
x,-y,-z
-x,y,1/2-z
-x,-y,-z
x,y,1/2-z
-x,y,z
x,-y,1/2+z
1/2+x,1/2+y,z
1/2-x,1/2-y,1/2+z
1/2+x,1/2-y,-z
1/2-x,1/2+y,1/2-z
1/2-x,1/2-y,-z
1/2+x,1/2+y,1/2-z
1/2-x,1/2+y,z
1/2+x,1/2-y,1/2+z
loop_
_atom_site_type_symbol
_atom_site_label
_atom_site_fract_x
_atom_site_fract_y
_atom_site_fract_z
Si Si1 0.381442 0.741005 0.070468
Si Si2 0.778988 0.701211 0.929133
Si Si3 0.500000 0.286563 0.568203
Si Si4 0.687644 0.645276 0.428572
Si Si5 0.890044 0.946417 0.569311
Si Si6 0.000000 0.898365 0.431463
O O1 0.383915 0.733794 0.250000
O O2 0.345354 0.791915 0.029747
O O3 0.445186 0.744246 0.009376
O O4 0.352049 0.690041 0.004366
O O5 0.770026 0.701095 0.750000
O O6 0.750000 0.750000 0.000000
O O7 0.749954 0.650640 0.997941
O O8 0.500000 0.292987 0.750000
O O9 0.500000 0.342150 0.497672
O O10 0.695385 0.651376 0.250000
O O11 0.660624 0.591546 0.471892
O O12 0.899944 0.949586 0.750000
O O13 0.946383 0.928473 0.489719
O O14 0.871618 0.000000 0.500000
O O15 0.000000 0.896861 0.250000
#
# Coordination Sequence:
#
# PCOD8255383 Si02
#       6
#    16  16   8  16  16   8
#     4   8  14  25  42  61  79 105 138 167 203 246
#     4   9  16  26  40  61  83 104 134 169 207 248
#     4  10  16  29  47  60  82 116 144 173 212 247
#     4   9  17  30  45  60  78 105 138 171 211 253
#     4  11  22  36  49  61  80 107 143 182 222 258
#     4  12  23  33  44  62  83 108 146 181 219 253
#
# _framework density 14.49878
#
# number of rings (size 3 to 8) (size 9 to 14) (size 15 to 20)
#    0.000    2.400    2.000    3.600    0.000    1.600 
#    0.000    1.000    0.000    0.000    0.000    0.000 
#    0.000    0.000    0.000    0.900    0.000    9.400 
#
# Total GULP energy -495575.740499 kJ/mol
# GULP energy per Si atom -12389.393512 kJ/mol
# Density = 1.446578 g / cm^3
# Si number density = 14.498780 Si / 1000 Ang^3
#
#
#
# Elastic Constant Matrix: (Units=GPa)
#
#
# Indices 1 2 3 4 5 6 
#
# 1 127.9970 68.5087 34.0468 0.0000 0.0000 0.0000
# 2 68.5087 65.2693 27.7958 0.0000 0.0000 0.0000
# 3 34.0468 27.7958 47.5803 0.0000 0.0000 0.0000
# 4 0.0000 0.0000 0.0000 20.0912 0.0000 0.0000
# 5 0.0000 0.0000 0.0000 0.0000 19.1003 0.0000
# 6 0.0000 0.0000 0.0000 0.0000 0.0000 -167.8036
#
#
#
# Elastic Compliance Matrix: (Units=1/GPa)
#
#
# Indices 1 2 3 4 5 6 
#
# 1 0.018043 -0.017891 -0.002459 0.000000 0.000000 0.000000
# 2 -0.017891 0.038136 -0.009476 0.000000 0.000000 0.000000
# 3 -0.002459 -0.009476 0.028313 0.000000 0.000000 0.000000
# 4 0.000000 0.000000 0.000000 0.049773 0.000000 0.000000
# 5 0.000000 0.000000 0.000000 0.000000 0.052355 0.000000
# 6 0.000000 0.000000 0.000000 0.000000 0.000000 -0.005959
#
#
# Mechanical properties :
#
#
# Convention : Reuss Voigt Hill
#
# Bulk Modulus (GPa) = 40.26015 55.72769 47.99392
# Shear Modulus (GPa) = 20.11333 -18.35604 0.87865
#
# Velocity S-wave (km/s) = 3.72861 -3.56201 0.77931
# Velocity P-wave (km/s) = 6.80918 4.64784 5.82955
#
# Compressibility (1/GPa) = 0.02483846
#
# Stress axis : x y z
#
# Youngs Moduli (GPa) = 55.42422 26.22222 35.32001
#
# Poissons Ratio (x) = 0.46914 0.08685
# Poissons Ratio (y) = 0.99159 0.33470
# Poissons Ratio (z) = 0.13629 0.24849
#
# Static dielectric constant tensor:
#      x y z
#    x 3.411620 0.000000 0.000000 
#    y 0.000000 2.747930 0.000000 
#    z 0.000000 0.000000 2.850100 
# 
# 
# High freq. dielectric constant tensor:
#      x y z
#    x 1.552660 0.000000 0.000000 
#    y 0.000000 1.511930 0.000000 
#    z 0.000000 0.000000 1.551780 
# 
# From -- ./inp_files/8934.got.cif
#   From: 2010.03.12/outbox.cif.g09.slc.cpg/sg63_5_cif.got.tgz:8934.got - 2010.04.10 19:34:48.
