data_PCOD8255064
_publ_section_title
;
Structure prediction by ZEFSAII (Michael W. Deem and Ramdas Pophale) SiO2 
 PCOD8255064
Probable space group: P N M A
;
_chemical_formula_sum "Si O2"
_cell_formula_units_Z 48
_cell_length_a 23.803984
_cell_length_b 8.854273
_cell_length_c 11.950489
_cell_angle_alpha 90.000000
_cell_angle_beta 90.000000
_cell_angle_gamma 90.000000
_cell_volume 2518.768390
_symmetry_space_group_name_H-M "P N M A"
_symmetry_group_IT_number 62
_symmetry_cell_setting 'orthorhombic'
loop_
_space_group_symop_operation_xyz
x,y,z
1/2-x,-y,1/2+z
1/2+x,1/2-y,1/2-z
-x,1/2+y,-z
-x,-y,-z
1/2+x,y,1/2-z
1/2-x,1/2+y,1/2+z
x,1/2-y,z
loop_
_atom_site_type_symbol
_atom_site_label
_atom_site_fract_x
_atom_site_fract_y
_atom_site_fract_z
Si Si1 0.387835 0.929683 0.486455
Si Si2 0.078491 0.071631 0.229075
Si Si3 0.337732 0.428053 0.902350
Si Si4 0.037936 0.423390 0.783375
Si Si5 0.854306 0.576661 0.365048
Si Si6 0.285353 0.570906 0.346821
O O1 0.386353 0.750000 0.486378
O O2 0.400281 0.994014 0.609716
O O3 0.436884 0.981669 0.401473
O O4 0.327796 0.992675 0.442325
O O5 0.084085 0.250000 0.232698
O O6 0.115435 0.003528 0.326843
O O7 0.014324 0.026599 0.249654
O O8 0.340401 0.250000 0.885552
O O9 0.276807 0.494071 0.866890
O O10 0.349460 0.466829 0.030404
O O11 0.018285 0.250000 0.792734
O O12 0.084087 0.441405 0.686927
O O13 0.844097 0.750000 0.401316
O O14 0.807444 0.523206 0.275542
O O15 0.285397 0.750000 0.355562
#
# Coordination Sequence:
#
# PCOD8255064 Si02
#       6
#     8   8   8   8   8   8
#     4   8  16  33  57  83 108 142 179 221 275 324
#     4  11  22  34  54  83 115 145 180 224 271 324
#     4  11  23  36  54  81 112 147 183 223 267 320
#     4   9  18  36  60  81 107 142 182 226 273 323
#     4   9  19  38  60  79 104 142 183 223 270 324
#     4   8  17  35  57  79 107 141 178 220 273 325
#
# _framework density 19.056933000000001
#
# number of rings (size 3 to 8) (size 9 to 14) (size 15 to 20)
#    0.000    2.667    0.000    3.500    2.333    1.333 
#    0.000    1.667    0.000    4.000    0.000    0.000 
#    0.000    0.000    0.000    0.000    0.000    0.000 
#
# Total GULP energy -595174.220234 kJ/mol
# GULP energy per Si atom -12399.462922 kJ/mol
# Density = 1.901356 g / cm^3
# Si number density = 19.056933 Si / 1000 Ang^3
#
#
#
# Elastic Constant Matrix: (Units=GPa)
#
#
# Indices 1 2 3 4 5 6 
#
# 1 96.5570 27.9881 61.3557 0.0000 0.0000 0.0000
# 2 27.9881 45.4512 29.8764 0.0000 0.0000 0.0000
# 3 61.3557 29.8764 120.8471 0.0000 0.0000 0.0000
# 4 0.0000 0.0000 0.0000 21.0061 0.0000 0.0000
# 5 0.0000 0.0000 0.0000 0.0000 22.9403 0.0000
# 6 0.0000 0.0000 0.0000 0.0000 0.0000 12.5854
#
#
#
# Elastic Compliance Matrix: (Units=1/GPa)
#
#
# Indices 1 2 3 4 5 6 
#
# 1 0.016370 -0.005513 -0.006948 0.000000 0.000000 0.000000
# 2 -0.005513 0.028127 -0.004155 0.000000 0.000000 0.000000
# 3 -0.006948 -0.004155 0.012830 0.000000 0.000000 0.000000
# 4 0.000000 0.000000 0.000000 0.047605 0.000000 0.000000
# 5 0.000000 0.000000 0.000000 0.000000 0.043591 0.000000
# 6 0.000000 0.000000 0.000000 0.000000 0.000000 0.079457
#
#
# Mechanical properties :
#
#
# Convention : Reuss Voigt Hill
#
# Bulk Modulus (GPa) = 41.50226 55.69951 48.60089
# Shear Modulus (GPa) = 18.57049 20.88203 19.72626
#
# Velocity S-wave (km/s) = 3.12504 3.31383 3.22082
# Velocity P-wave (km/s) = 5.90309 6.62823 6.27614
#
# Compressibility (1/GPa) = 0.02409507
#
# Stress axis : x y z
#
# Youngs Moduli (GPa) = 61.08853 35.55246 77.94372
#
# Poissons Ratio (x) = 0.19600 0.54157
# Poissons Ratio (y) = 0.33678 0.32384
# Poissons Ratio (z) = 0.42445 0.14771
#
# Static dielectric constant tensor:
#      x y z
#    x 3.711310 0.000000 0.000000 
#    y 0.000000 3.117510 0.000000 
#    z 0.000000 0.000000 3.572380 
# 
# 
# High freq. dielectric constant tensor:
#      x y z
#    x 1.751030 0.000000 0.000000 
#    y 0.000000 1.707970 0.000000 
#    z 0.000000 0.000000 1.745990 
# 
# From -- ./inp_files/14734.got.cif
#   From: 2010.03.12/outbox.cif.g09.slc.cpg/sg62_8_cif.got.tgz:14734.got - 2010.04.10 19:12:36.
