data_PCOD8255619
_publ_section_title
;
Structure prediction by ZEFSAII (Michael W. Deem and Ramdas Pophale) SiO2 
 PCOD8255619
Probable space group: C M C M
;
_chemical_formula_sum "Si O2"
_cell_formula_units_Z 96
_cell_length_a 30.186973
_cell_length_b 23.902017
_cell_length_c 9.162342
_cell_angle_alpha 90.000000
_cell_angle_beta 90.000000
_cell_angle_gamma 90.000000
_cell_volume 6610.900425
_symmetry_space_group_name_H-M "C M C M"
_symmetry_group_IT_number 63
_symmetry_cell_setting 'orthorhombic'
loop_
_space_group_symop_operation_xyz
x,y,z
-x,-y,1/2+z
x,-y,-z
-x,y,1/2-z
-x,-y,-z
x,y,1/2-z
-x,y,z
x,-y,1/2+z
1/2+x,1/2+y,z
1/2-x,1/2-y,1/2+z
1/2+x,1/2-y,-z
1/2-x,1/2+y,1/2-z
1/2-x,1/2-y,-z
1/2+x,1/2+y,1/2-z
1/2-x,1/2+y,z
1/2+x,1/2-y,1/2+z
loop_
_atom_site_type_symbol
_atom_site_label
_atom_site_fract_x
_atom_site_fract_y
_atom_site_fract_z
Si Si1 0.780735 0.177127 0.419049
Si Si2 0.621732 0.855493 0.088055
Si Si3 0.780714 0.947393 0.920646
Si Si4 0.550971 0.942779 0.420559
Si Si5 0.689691 0.047684 0.587336
Si Si6 0.184659 0.280616 0.920722
O O1 0.786618 0.193341 0.250000
O O2 0.800041 0.114750 0.450660
O O3 0.809984 0.218525 0.515486
O O4 0.728411 0.182783 0.460240
O O5 0.610107 0.832114 0.250000
O O6 0.579768 0.889771 0.022238
O O7 0.662802 0.896469 0.100686
O O8 0.638837 0.805756 0.985101
O O9 0.780336 0.959978 0.750000
O O10 0.731726 0.943759 0.984400
O O11 0.806058 0.000000 0.000000
O O12 0.561120 0.951909 0.250000
O O13 0.500000 0.927887 0.451215
O O14 0.564567 0.000000 0.500000
O O15 0.703613 0.027695 0.750000
O O16 0.661340 0.000000 0.500000
O O17 0.177559 0.275980 0.750000
#
# Coordination Sequence:
#
# PCOD8255619 Si02
#       6
#    16  16  16  16  16  16
#     4   9  18  31  42  55  78 104 131 164 203 243
#     4  10  19  29  41  58  78 101 130 166 208 251
#     4  10  18  28  40  55  75  99 128 161 197 235
#     4   9  18  32  47  62  81 107 138 173 216 262
#     4  10  18  25  35  51  72  96 123 159 201 239
#     4  10  19  29  43  59  76 101 133 167 202 244
#
# _framework density 14.521471
#
# number of rings (size 3 to 8) (size 9 to 14) (size 15 to 20)
#    0.000    2.333    1.667    3.000    0.000    3.333 
#    0.000    0.000    0.000    0.000    0.000    0.000 
#    0.000    0.000    0.000    0.000    0.000    0.833 
#
# Total GULP energy -594631.377998 kJ/mol
# GULP energy per Si atom -12388.153708 kJ/mol
# Density = 1.448842 g / cm^3
# Si number density = 14.521471 Si / 1000 Ang^3
#
#
#
# Elastic Constant Matrix: (Units=GPa)
#
#
# Indices 1 2 3 4 5 6 
#
# 1 50.5855 34.1094 27.3356 0.0000 0.0000 0.0000
# 2 34.1094 101.3458 55.0379 0.0000 0.0000 0.0000
# 3 27.3356 55.0379 79.5300 0.0000 0.0000 0.0000
# 4 0.0000 0.0000 0.0000 25.7246 0.0000 0.0000
# 5 0.0000 0.0000 0.0000 0.0000 13.4003 0.0000
# 6 0.0000 0.0000 0.0000 0.0000 0.0000 25.3210
#
#
#
# Elastic Compliance Matrix: (Units=1/GPa)
#
#
# Indices 1 2 3 4 5 6 
#
# 1 0.026637 -0.006397 -0.004728 0.000000 0.000000 0.000000
# 2 -0.006397 0.017345 -0.009804 0.000000 0.000000 0.000000
# 3 -0.004728 -0.009804 0.020984 0.000000 0.000000 0.000000
# 4 0.000000 0.000000 0.000000 0.038873 0.000000 0.000000
# 5 0.000000 0.000000 0.000000 0.000000 0.074625 0.000000
# 6 0.000000 0.000000 0.000000 0.000000 0.000000 0.039493
#
#
# Mechanical properties :
#
#
# Convention : Reuss Voigt Hill
#
# Bulk Modulus (GPa) = 43.27895 51.60302 47.44098
# Shear Modulus (GPa) = 18.69017 20.55441 19.62229
#
# Velocity S-wave (km/s) = 3.59147 3.76633 3.67994
# Velocity P-wave (km/s) = 6.86049 7.38420 7.12716
#
# Compressibility (1/GPa) = 0.02310592
#
# Stress axis : x y z
#
# Youngs Moduli (GPa) = 37.54130 57.65412 47.65491
#
# Poissons Ratio (x) = 0.36883 0.22533
# Poissons Ratio (y) = 0.24016 0.46723
# Poissons Ratio (z) = 0.17751 0.56527
#
# Static dielectric constant tensor:
#      x y z
#    x 2.465670 0.000000 0.000000 
#    y 0.000000 3.175600 0.000000 
#    z 0.000000 0.000000 3.065960 
# 
# 
# High freq. dielectric constant tensor:
#      x y z
#    x 1.491650 0.000000 0.000000 
#    y 0.000000 1.552130 0.000000 
#    z 0.000000 0.000000 1.568440 
# 
# From -- ./inp_files/12981.got.cif
#   From: 2010.03.12/outbox.cif.g09.slc.cpg/sg63_7_cif.got.tgz:12981.got - 2010.04.10 19:34:48.
