data_PCOD8255194
_publ_section_title
;
Structure prediction by ZEFSAII (Michael W. Deem and Ramdas Pophale) SiO2 
 PCOD8255194
Probable space group: P N M A
;
_chemical_formula_sum "Si O2"
_cell_formula_units_Z 32
_cell_length_a 9.995556
_cell_length_b 26.601870
_cell_length_c 4.763206
_cell_angle_alpha 90.000000
_cell_angle_beta 90.000000
_cell_angle_gamma 90.000000
_cell_volume 1266.538768
_symmetry_space_group_name_H-M "P N M A"
_symmetry_group_IT_number 62
_symmetry_cell_setting 'orthorhombic'
loop_
_space_group_symop_operation_xyz
x,y,z
1/2-x,-y,1/2+z
1/2+x,1/2-y,1/2-z
-x,1/2+y,-z
-x,-y,-z
1/2+x,y,1/2-z
1/2-x,1/2+y,1/2+z
x,1/2-y,z
loop_
_atom_site_type_symbol
_atom_site_label
_atom_site_fract_x
_atom_site_fract_y
_atom_site_fract_z
Si Si1 0.022231 0.594577 0.418806
Si Si2 0.169545 0.750000 0.226542
Si Si3 0.992235 0.336513 0.060490
Si Si4 0.824804 0.750000 0.755226
Si Si5 0.764303 0.533397 0.347975
O O1 0.064167 0.628369 0.688189
O O2 0.902252 0.555587 0.480123
O O3 0.159318 0.571458 0.295523
O O4 0.951249 0.627836 0.179996
O O5 0.317300 0.750000 0.083785
O O6 0.114524 0.801030 0.093411
O O7 0.181429 0.750000 0.566175
O O8 0.109622 0.302067 0.170411
O O9 0.691774 0.507613 0.614849
#
# Coordination Sequence:
#
# PCOD8255194 Si02
#       5
#     8   4   8   4   8
#     4  12  26  44  76 103 143 182 244 290 351 435
#     4  11  24  43  70  95 149 183 230 284 347 418
#     4  11  26  43  66 109 137 188 234 292 351 411
#     4  11  24  43  70  95 149 183 230 284 347 418
#     4  12  26  48  72 103 142 187 236 300 372 424
#
# _framework density 25.265712000000001
#
# number of rings (size 3 to 8) (size 9 to 14) (size 15 to 20)
#    0.000    0.500    0.000    7.500   10.500    4.000 
#    0.000    0.000    0.000    0.000    0.000    0.000 
#    0.000    0.000    0.000    0.000    0.000    0.000 
#
# Total GULP energy -396467.442109 kJ/mol
# GULP energy per Si atom -12389.607566 kJ/mol
# Density = 2.520821 g / cm^3
# Si number density = 25.265712 Si / 1000 Ang^3
#
#
#
# Elastic Constant Matrix: (Units=GPa)
#
#
# Indices 1 2 3 4 5 6 
#
# 1 68.1925 16.0088 -18.9452 0.0000 0.0000 0.0000
# 2 16.0088 101.4801 16.8883 0.0000 0.0000 0.0000
# 3 -18.9452 16.8883 94.9411 0.0000 0.0000 0.0000
# 4 0.0000 0.0000 0.0000 25.2791 0.0000 0.0000
# 5 0.0000 0.0000 0.0000 0.0000 42.4477 0.0000
# 6 0.0000 0.0000 0.0000 0.0000 0.0000 26.5162
#
#
#
# Elastic Compliance Matrix: (Units=1/GPa)
#
#
# Indices 1 2 3 4 5 6 
#
# 1 0.016502 -0.003247 0.003871 0.000000 0.000000 0.000000
# 2 -0.003247 0.010794 -0.002568 0.000000 0.000000 0.000000
# 3 0.003871 -0.002568 0.011762 0.000000 0.000000 0.000000
# 4 0.000000 0.000000 0.000000 0.039558 0.000000 0.000000
# 5 0.000000 0.000000 0.000000 0.000000 0.023558 0.000000
# 6 0.000000 0.000000 0.000000 0.000000 0.000000 0.037713
#
#
# Mechanical properties :
#
#
# Convention : Reuss Voigt Hill
#
# Bulk Modulus (GPa) = 28.43477 32.50193 30.46835
# Shear Modulus (GPa) = 32.15438 35.55939 33.85688
#
# Velocity S-wave (km/s) = 3.57129 3.75563 3.66462
# Velocity P-wave (km/s) = 5.31829 5.63012 5.47643
#
# Compressibility (1/GPa) = 0.03516821
#
# Stress axis : x y z
#
# Youngs Moduli (GPa) = 60.59853 92.64570 85.01946
#
# Poissons Ratio (x) = 0.30086 -0.32908
# Poissons Ratio (y) = 0.19679 0.21833
# Poissons Ratio (z) = -0.23455 0.23792
#
# Static dielectric constant tensor:
#      x y z
#    x 4.120330 0.000000 0.000000 
#    y 0.000000 5.006530 0.000000 
#    z 0.000000 0.000000 5.025610 
# 
# 
# High freq. dielectric constant tensor:
#      x y z
#    x 1.989050 0.000000 0.000000 
#    y 0.000000 2.030810 0.000000 
#    z 0.000000 0.000000 2.032250 
# 
# From -- ./inp_files/503.got.cif
#   From: 2010.03.12/outbox.cif.g09.slc.cpg/sg62_1_cif.got.tgz:503.got - 2010.04.10 19:12:36.
