data_PCOD8255461
_publ_section_title
;
Structure prediction by ZEFSAII (Michael W. Deem and Ramdas Pophale) SiO2 
 PCOD8255461
Probable space group: C M C M
;
_chemical_formula_sum "Si O2"
_cell_formula_units_Z 112
_cell_length_a 22.093302
_cell_length_b 16.444672
_cell_length_c 19.449621
_cell_angle_alpha 90.000000
_cell_angle_beta 90.000000
_cell_angle_gamma 90.000000
_cell_volume 7066.379991
_symmetry_space_group_name_H-M "C M C M"
_symmetry_group_IT_number 63
_symmetry_cell_setting 'orthorhombic'
loop_
_space_group_symop_operation_xyz
x,y,z
-x,-y,1/2+z
x,-y,-z
-x,y,1/2-z
-x,-y,-z
x,y,1/2-z
-x,y,z
x,-y,1/2+z
1/2+x,1/2+y,z
1/2-x,1/2-y,1/2+z
1/2+x,1/2-y,-z
1/2-x,1/2+y,1/2-z
1/2-x,1/2-y,-z
1/2+x,1/2+y,1/2-z
1/2-x,1/2+y,z
1/2+x,1/2-y,1/2+z
loop_
_atom_site_type_symbol
_atom_site_label
_atom_site_fract_x
_atom_site_fract_y
_atom_site_fract_z
Si Si1 0.794863 0.637294 0.670703
Si Si2 0.677445 0.733066 0.431465
Si Si3 0.156791 0.814473 0.327289
Si Si4 0.930114 0.959437 0.170799
Si Si5 0.816796 0.313179 0.567830
Si Si6 0.353324 0.448273 0.569785
Si Si7 0.280986 0.014582 0.419198
O O1 0.814714 0.625899 0.750000
O O2 0.830660 0.715685 0.639629
O O3 0.723143 0.648073 0.663564
O O4 0.810472 0.557393 0.625694
O O5 0.747060 0.710138 0.437084
O O6 0.655993 0.793151 0.492742
O O7 0.640034 0.649307 0.439140
O O8 0.146176 0.784541 0.250000
O O9 0.107234 0.879704 0.349762
O O10 0.146997 0.737459 0.375610
O O11 0.919108 0.983349 0.250000
O O12 0.000000 0.942441 0.155325
O O13 0.906280 0.032125 0.123535
O O14 0.823163 0.406530 0.591275
O O15 0.363224 0.500000 0.500000
O O16 0.288421 0.469785 0.603838
O O17 0.279976 0.000000 0.500000
#
# Coordination Sequence:
#
# PCOD8255461 Si02
#       7
#    16  16  16  16  16  16  16
#     4  10  18  28  42  63  91 121 150 184 220 261
#     4   9  17  27  41  62  85 117 149 182 216 266
#     4   9  17  29  42  60  86 114 149 190 225 261
#     4  10  20  33  47  62  86 121 155 190 232 269
#     4   9  16  26  43  60  85 115 150 175 218 268
#     4  10  19  29  46  66  88 118 156 190 225 262
#     4  10  17  27  43  65  91 120 150 179 217 270
#
# _framework density 15.8497
#
# number of rings (size 3 to 8) (size 9 to 14) (size 15 to 20)
#    0.000    2.429    2.857    0.857    4.000    1.429 
#    0.000    2.857    0.000    0.000    0.000    0.000 
#    0.000    1.714    0.000    4.429    0.000    0.571 
#
# Total GULP energy -694056.149903 kJ/mol
# GULP energy per Si atom -12393.859820 kJ/mol
# Density = 1.581363 g / cm^3
# Si number density = 15.849700 Si / 1000 Ang^3
#
#
#
# Elastic Constant Matrix: (Units=GPa)
#
#
# Indices 1 2 3 4 5 6 
#
# 1 34.5051 27.2159 23.4290 0.0000 0.0000 0.0000
# 2 27.2159 120.4850 61.5633 0.0000 0.0000 0.0000
# 3 23.4290 61.5633 95.8711 0.0000 0.0000 0.0000
# 4 0.0000 0.0000 0.0000 30.7979 0.0000 0.0000
# 5 0.0000 0.0000 0.0000 0.0000 13.5345 0.0000
# 6 0.0000 0.0000 0.0000 0.0000 0.0000 10.8760
#
#
#
# Elastic Compliance Matrix: (Units=1/GPa)
#
#
# Indices 1 2 3 4 5 6 
#
# 1 0.037106 -0.005579 -0.005486 0.000000 0.000000 0.000000
# 2 -0.005579 0.013192 -0.007108 0.000000 0.000000 0.000000
# 3 -0.005486 -0.007108 0.016335 0.000000 0.000000 0.000000
# 4 0.000000 0.000000 0.000000 0.032470 0.000000 0.000000
# 5 0.000000 0.000000 0.000000 0.000000 0.073885 0.000000
# 6 0.000000 0.000000 0.000000 0.000000 0.000000 0.091946
#
#
# Mechanical properties :
#
#
# Convention : Reuss Voigt Hill
#
# Bulk Modulus (GPa) = 33.01509 52.80862 42.91185
# Shear Modulus (GPa) = 16.05782 20.28521 18.17152
#
# Velocity S-wave (km/s) = 3.18642 3.58138 3.38966
# Velocity P-wave (km/s) = 5.86626 7.10580 6.51558
#
# Compressibility (1/GPa) = 0.03028918
#
# Stress axis : x y z
#
# Youngs Moduli (GPa) = 26.94962 75.80505 61.21679
#
# Poissons Ratio (x) = 0.42291 0.33581
# Poissons Ratio (y) = 0.15035 0.43511
# Poissons Ratio (z) = 0.14783 0.53880
#
# Static dielectric constant tensor:
#      x y z
#    x 2.527020 0.000000 0.000000 
#    y 0.000000 3.273370 0.000000 
#    z 0.000000 0.000000 3.131210 
# 
# 
# High freq. dielectric constant tensor:
#      x y z
#    x 1.535710 0.000000 0.000000 
#    y 0.000000 1.614780 0.000000 
#    z 0.000000 0.000000 1.619010 
# 
# From -- ./inp_files/47314.got.cif
#   From: 2010.03.12/outbox.cif.g09.slc.cpg/sg63_24_cif.got.tgz:47314.got - 2010.04.10 19:34:48.
