data_PCOD8255502
_publ_section_title
;
Structure prediction by ZEFSAII (Michael W. Deem and Ramdas Pophale) SiO2 
 PCOD8255502
Probable space group: C M C M
;
_chemical_formula_sum "Si O2"
_cell_formula_units_Z 96
_cell_length_a 29.345968
_cell_length_b 23.407674
_cell_length_c 8.881341
_cell_angle_alpha 90.000000
_cell_angle_beta 90.000000
_cell_angle_gamma 90.000000
_cell_volume 6100.778328
_symmetry_space_group_name_H-M "C M C M"
_symmetry_group_IT_number 63
_symmetry_cell_setting 'orthorhombic'
loop_
_space_group_symop_operation_xyz
x,y,z
-x,-y,1/2+z
x,-y,-z
-x,y,1/2-z
-x,-y,-z
x,y,1/2-z
-x,y,z
x,-y,1/2+z
1/2+x,1/2+y,z
1/2-x,1/2-y,1/2+z
1/2+x,1/2-y,-z
1/2-x,1/2+y,1/2-z
1/2-x,1/2-y,-z
1/2+x,1/2+y,1/2-z
1/2-x,1/2+y,z
1/2+x,1/2-y,1/2+z
loop_
_atom_site_type_symbol
_atom_site_label
_atom_site_fract_x
_atom_site_fract_y
_atom_site_fract_z
Si Si1 0.909499 0.111649 0.573982
Si Si2 0.685442 0.560142 0.571269
Si Si3 0.261977 0.661624 0.426317
Si Si4 0.908069 0.243600 0.927786
Si Si5 0.000000 0.108286 0.080844
Si Si6 0.182692 0.274788 0.073499
Si Si7 0.000000 0.244216 0.421821
O O1 0.917121 0.106272 0.750000
O O2 0.865433 0.077042 0.518192
O O3 0.902513 0.177370 0.527283
O O4 0.954236 0.084541 0.496924
O O5 0.698649 0.500000 0.500000
O O6 0.688679 0.557433 0.750000
O O7 0.721544 0.605588 0.511636
O O8 0.258259 0.649223 0.250000
O O9 0.212464 0.677300 0.490481
O O10 0.297102 0.712428 0.462067
O O11 0.906363 0.252986 0.750000
O O12 0.867833 0.278803 0.006364
O O13 0.955525 0.267950 0.992651
O O14 0.000000 0.176209 0.069107
O O15 0.000000 0.085764 0.250000
O O16 0.182051 0.287772 0.250000
O O17 0.000000 0.265760 0.250000
#
# Coordination Sequence:
#
# PCOD8255502 Si02
#       7
#    16  16  16  16   8  16   8
#     4   9  18  31  46  62  85 114 148 188 233 280
#     4  11  22  36  51  68  89 118 153 193 237 283
#     4  10  20  33  49  69  92 119 151 189 232 279
#     4  10  17  28  45  66  91 121 154 189 229 275
#     4   9  17  27  44  64  83 107 144 191 234 276
#     4  10  19  30  48  71  95 120 149 189 232 275
#     4   9  17  27  39  62  92 121 152 185 227 275
#
# _framework density 15.735697
#
# number of rings (size 3 to 8) (size 9 to 14) (size 15 to 20)
#    0.000    2.167    1.667    2.500    0.000    5.333 
#    0.000    0.417    0.000    0.000    0.000    0.000 
#    0.000    0.000    0.000    0.750    0.000   10.500 
#
# Total GULP energy -595325.530379 kJ/mol
# GULP energy per Si atom -12402.615216 kJ/mol
# Density = 1.569988 g / cm^3
# Si number density = 15.735697 Si / 1000 Ang^3
#
#
#
# Elastic Constant Matrix: (Units=GPa)
#
#
# Indices 1 2 3 4 5 6 
#
# 1 121.8332 46.3977 49.0723 0.0000 0.0000 0.0000
# 2 46.3977 57.0542 30.6554 0.0000 0.0000 0.0000
# 3 49.0723 30.6554 73.1911 0.0000 0.0000 0.0000
# 4 0.0000 0.0000 0.0000 19.2314 0.0000 0.0000
# 5 0.0000 0.0000 0.0000 0.0000 32.7387 0.0000
# 6 0.0000 0.0000 0.0000 0.0000 0.0000 -22.6438
#
#
#
# Elastic Compliance Matrix: (Units=1/GPa)
#
#
# Indices 1 2 3 4 5 6 
#
# 1 0.013545 -0.007918 -0.005766 0.000000 0.000000 0.000000
# 2 -0.007918 0.027245 -0.006103 0.000000 0.000000 0.000000
# 3 -0.005766 -0.006103 0.020085 0.000000 0.000000 0.000000
# 4 0.000000 0.000000 0.000000 0.051998 0.000000 0.000000
# 5 0.000000 0.000000 0.000000 0.000000 0.030545 0.000000
# 6 0.000000 0.000000 0.000000 0.000000 0.000000 -0.044162
#
#
# Mechanical properties :
#
#
# Convention : Reuss Voigt Hill
#
# Bulk Modulus (GPa) = 46.94157 56.03659 51.48908
# Shear Modulus (GPa) = 34.26321 14.26214 24.26268
#
# Velocity S-wave (km/s) = 4.67134 3.01384 3.93095
# Velocity P-wave (km/s) = 7.68058 6.91371 7.30721
#
# Compressibility (1/GPa) = 0.02130308
#
# Stress axis : x y z
#
# Youngs Moduli (GPa) = 73.82543 36.70396 49.78935
#
# Poissons Ratio (x) = 0.29061 0.28707
# Poissons Ratio (y) = 0.58452 0.30386
# Poissons Ratio (z) = 0.42565 0.22400
#
# Static dielectric constant tensor:
#      x y z
#    x 3.116470 0.000000 0.000000 
#    y 0.000000 2.576230 0.000000 
#    z 0.000000 0.000000 3.063160 
# 
# 
# High freq. dielectric constant tensor:
#      x y z
#    x 1.609470 0.000000 0.000000 
#    y 0.000000 1.544200 0.000000 
#    z 0.000000 0.000000 1.621640 
# 
# From -- ./inp_files/12797.got.cif
#   From: 2010.03.12/outbox.cif.g09.slc.cpg/sg63_7_cif.got.tgz:12797.got - 2010.04.10 19:34:48.
