data_PCOD8255455
_publ_section_title
;
Structure prediction by ZEFSAII (Michael W. Deem and Ramdas Pophale) SiO2 
 PCOD8255455
Probable space group: C M C M
;
_chemical_formula_sum "Si O2"
_cell_formula_units_Z 88
_cell_length_a 25.027726
_cell_length_b 15.938286
_cell_length_c 13.738104
_cell_angle_alpha 90.000000
_cell_angle_beta 90.000000
_cell_angle_gamma 90.000000
_cell_volume 5480.116702
_symmetry_space_group_name_H-M "C M C M"
_symmetry_group_IT_number 63
_symmetry_cell_setting 'orthorhombic'
loop_
_space_group_symop_operation_xyz
x,y,z
-x,-y,1/2+z
x,-y,-z
-x,y,1/2-z
-x,-y,-z
x,y,1/2-z
-x,y,z
x,-y,1/2+z
1/2+x,1/2+y,z
1/2-x,1/2-y,1/2+z
1/2+x,1/2-y,-z
1/2-x,1/2+y,1/2-z
1/2-x,1/2-y,-z
1/2+x,1/2+y,1/2-z
1/2-x,1/2+y,z
1/2+x,1/2-y,1/2+z
loop_
_atom_site_type_symbol
_atom_site_label
_atom_site_fract_x
_atom_site_fract_y
_atom_site_fract_z
Si Si1 0.700491 0.958407 0.859975
Si Si2 0.614374 0.000000 0.500000
Si Si3 0.062008 0.367856 0.362116
Si Si4 0.195456 0.908031 0.971709
Si Si5 0.144482 0.230142 0.362074
Si Si6 0.761453 0.644757 0.857979
O O1 0.689657 0.926542 0.750000
O O2 0.754085 0.914838 0.898913
O O3 0.650971 0.938711 0.931876
O O4 0.705143 0.058886 0.863931
O O5 0.576704 0.054779 0.569154
O O6 0.077079 0.390736 0.250000
O O7 0.093758 0.284714 0.395585
O O8 0.000000 0.347140 0.372933
O O9 0.147428 0.856933 0.921617
O O10 0.212258 0.856701 0.067872
O O11 0.173811 0.000000 0.000000
O O12 0.138915 0.206077 0.250000
O O13 0.198861 0.280208 0.383876
O O14 0.737382 0.656208 0.750000
#
# Coordination Sequence:
#
# PCOD8255455 Si02
#       6
#    16   8  16  16  16  16
#     4  10  17  27  42  67 101 132 158 185 230 287
#     4  12  17  30  48  74  96 134 157 192 242 292
#     4  10  21  35  51  72  96 125 165 209 246 281
#     4  10  18  29  43  70  99 130 159 193 238 284
#     4  10  18  30  48  67  91 125 162 200 239 282
#     4   9  16  27  43  64  95 128 156 187 228 283
#
# _framework density 16.058053000000001
#
# number of rings (size 3 to 8) (size 9 to 14) (size 15 to 20)
#    0.000    2.000    4.545    1.909    0.000    0.727 
#    0.000    0.000    0.000    1.636    0.000    0.000 
#    0.000    0.000    0.000    0.000    0.000    0.000 
#
# Total GULP energy -545559.430339 kJ/mol
# GULP energy per Si atom -12399.077962 kJ/mol
# Density = 1.602150 g / cm^3
# Si number density = 16.058053 Si / 1000 Ang^3
#
#
#
# Elastic Constant Matrix: (Units=GPa)
#
#
# Indices 1 2 3 4 5 6 
#
# 1 61.7223 43.3086 40.9042 0.0000 0.0000 0.0000
# 2 43.3086 75.8147 44.4684 0.0000 0.0000 0.0000
# 3 40.9042 44.4684 99.1978 0.0000 0.0000 0.0000
# 4 0.0000 0.0000 0.0000 26.0493 0.0000 0.0000
# 5 0.0000 0.0000 0.0000 0.0000 20.1739 0.0000
# 6 0.0000 0.0000 0.0000 0.0000 0.0000 20.7276
#
#
#
# Elastic Compliance Matrix: (Units=1/GPa)
#
#
# Indices 1 2 3 4 5 6 
#
# 1 0.029677 -0.013262 -0.006292 0.000000 0.000000 0.000000
# 2 -0.013262 0.023822 -0.005210 0.000000 0.000000 0.000000
# 3 -0.006292 -0.005210 0.015011 0.000000 0.000000 0.000000
# 4 0.000000 0.000000 0.000000 0.038389 0.000000 0.000000
# 5 0.000000 0.000000 0.000000 0.000000 0.049569 0.000000
# 6 0.000000 0.000000 0.000000 0.000000 0.000000 0.048245
#
#
# Mechanical properties :
#
#
# Convention : Reuss Voigt Hill
#
# Bulk Modulus (GPa) = 52.68438 54.89967 53.79203
# Shear Modulus (GPa) = 19.18876 20.59375 19.89125
#
# Velocity S-wave (km/s) = 3.46057 3.58502 3.52335
# Velocity P-wave (km/s) = 6.98909 7.16931 7.07977
#
# Compressibility (1/GPa) = 0.01898096
#
# Stress axis : x y z
#
# Youngs Moduli (GPa) = 33.69594 41.97796 66.61745
#
# Poissons Ratio (x) = 0.55672 0.41917
# Poissons Ratio (y) = 0.44688 0.34709
# Poissons Ratio (z) = 0.21202 0.21872
#
# Static dielectric constant tensor:
#      x y z
#    x 2.734450 0.000000 0.000000 
#    y 0.000000 2.887070 0.000000 
#    z 0.000000 0.000000 3.359330 
# 
# 
# High freq. dielectric constant tensor:
#      x y z
#    x 1.573620 0.000000 0.000000 
#    y 0.000000 1.599820 0.000000 
#    z 0.000000 0.000000 1.633990 
# 
# From -- ./inp_files/36725.got.cif
#   From: 2010.03.12/outbox.cif.g09.slc.cpg/sg63_19_cif.got.tgz:36725.got - 2010.04.10 19:34:48.
