data_PCOD8255758
_publ_section_title
;
Structure prediction by ZEFSAII (Michael W. Deem and Ramdas Pophale) SiO2 
 PCOD8255758
Probable space group: C M C M
;
_chemical_formula_sum "Si O2"
_cell_formula_units_Z 112
_cell_length_a 9.294220
_cell_length_b 25.149828
_cell_length_c 29.377370
_cell_angle_alpha 90.000000
_cell_angle_beta 90.000000
_cell_angle_gamma 90.000000
_cell_volume 6866.902493
_symmetry_space_group_name_H-M "C M C M"
_symmetry_group_IT_number 63
_symmetry_cell_setting 'orthorhombic'
loop_
_space_group_symop_operation_xyz
x,y,z
-x,-y,1/2+z
x,-y,-z
-x,y,1/2-z
-x,-y,-z
x,y,1/2-z
-x,y,z
x,-y,1/2+z
1/2+x,1/2+y,z
1/2-x,1/2-y,1/2+z
1/2+x,1/2-y,-z
1/2-x,1/2+y,1/2-z
1/2-x,1/2-y,-z
1/2+x,1/2+y,1/2-z
1/2-x,1/2+y,z
1/2+x,1/2-y,1/2+z
loop_
_atom_site_type_symbol
_atom_site_label
_atom_site_fract_x
_atom_site_fract_y
_atom_site_fract_z
Si Si1 0.831004 0.856458 0.541186
Si Si2 0.670340 0.735079 0.106641
Si Si3 0.169268 0.559548 0.892360
Si Si4 0.830627 0.663572 0.550497
Si Si5 0.829419 0.606468 0.799794
Si Si6 0.671372 0.773708 0.200502
Si Si7 0.668579 0.478192 0.548697
O O1 0.780595 0.819984 0.583571
O O2 0.748785 0.835977 0.497295
O O3 0.789393 0.916638 0.553008
O O4 0.000000 0.850921 0.531452
O O5 0.500000 0.738815 0.108133
O O6 0.727390 0.785596 0.078249
O O7 0.730674 0.737836 0.158655
O O8 0.210836 0.610706 0.922114
O O9 0.226008 0.568995 0.840677
O O10 0.249853 0.508104 0.911055
O O11 0.000000 0.548548 0.893982
O O12 0.000000 0.666914 0.541644
O O13 0.781068 0.584205 0.750000
O O14 0.770379 0.666282 0.806279
O O15 0.000000 0.609079 0.802908
O O16 0.724203 0.751704 0.250000
O O17 0.500000 0.774569 0.199726
O O18 0.721964 0.500000 0.500000
O O19 0.500000 0.488258 0.554665
#
# Coordination Sequence:
#
# PCOD8255758 Si02
#       7
#    16  16  16  16  16  16  16
#     4  10  20  32  45  60  86 125 158 180 210 258
#     4   9  16  27  42  63  91 117 141 176 223 268
#     4  10  18  28  47  71  91 113 142 183 228 260
#     4  10  18  28  44  68  94 113 138 181 226 263
#     4   8  13  23  41  67  95 115 134 169 223 277
#     4   8  12  20  38  64  91 113 133 168 221 271
#     4  10  20  33  45  59  85 123 161 187 212 256
#
# _framework density 16.310120000000001
#
# number of rings (size 3 to 8) (size 9 to 14) (size 15 to 20)
#    0.000    2.714    2.857    1.286    0.000    0.857 
#    0.000    0.000    0.000    1.286    0.000    2.000 
#    0.000    2.286    0.000    0.000    0.000    0.000 
#
# Total GULP energy -694070.546398 kJ/mol
# GULP energy per Si atom -12394.116900 kJ/mol
# Density = 1.627300 g / cm^3
# Si number density = 16.310120 Si / 1000 Ang^3
#
#
#
# Elastic Constant Matrix: (Units=GPa)
#
#
# Indices 1 2 3 4 5 6 
#
# 1 13.9264 20.5308 27.1397 0.0000 0.0000 0.0000
# 2 20.5308 109.5770 79.2462 0.0000 0.0000 0.0000
# 3 27.1397 79.2462 179.2211 0.0000 0.0000 0.0000
# 4 0.0000 0.0000 0.0000 25.0051 0.0000 0.0000
# 5 0.0000 0.0000 0.0000 0.0000 13.6130 0.0000
# 6 0.0000 0.0000 0.0000 0.0000 0.0000 6.7384
#
#
#
# Elastic Compliance Matrix: (Units=1/GPa)
#
#
# Indices 1 2 3 4 5 6 
#
# 1 0.113119 -0.012946 -0.011405 0.000000 0.000000 0.000000
# 2 -0.012946 0.014898 -0.004627 0.000000 0.000000 0.000000
# 3 -0.011405 -0.004627 0.009353 0.000000 0.000000 0.000000
# 4 0.000000 0.000000 0.000000 0.039992 0.000000 0.000000
# 5 0.000000 0.000000 0.000000 0.000000 0.073459 0.000000
# 6 0.000000 0.000000 0.000000 0.000000 0.000000 0.148404
#
#
# Mechanical properties :
#
#
# Convention : Reuss Voigt Hill
#
# Bulk Modulus (GPa) = 12.59246 61.83978 37.21612
# Shear Modulus (GPa) = 10.33801 20.79179 15.56490
#
# Velocity S-wave (km/s) = 2.52035 3.57428 3.09254
# Velocity P-wave (km/s) = 4.02579 7.41830 5.96817
#
# Compressibility (1/GPa) = 0.07941259
#
# Stress axis : x y z
#
# Youngs Moduli (GPa) = 8.84027 67.12387 106.92057
#
# Poissons Ratio (x) = 0.86898 1.21947
# Poissons Ratio (y) = 0.11445 0.49472
# Poissons Ratio (z) = 0.10083 0.31058
#
# Static dielectric constant tensor:
#      x y z
#    x 2.637660 0.000000 0.000000 
#    y 0.000000 3.053720 0.000000 
#    z 0.000000 0.000000 3.507590 
# 
# 
# High freq. dielectric constant tensor:
#      x y z
#    x 1.580060 0.000000 0.000000 
#    y 0.000000 1.611910 0.000000 
#    z 0.000000 0.000000 1.639020 
# 
# From -- ./inp_files/68737.got.cif
#   From: 2010.03.12/outbox.cif.g09.slc.cpg/sg63_35_cif.got.tgz:68737.got - 2010.04.10 19:34:48.
