data_PCOD8255675
_publ_section_title
;
Structure prediction by ZEFSAII (Michael W. Deem and Ramdas Pophale) SiO2 
 PCOD8255675
Probable space group: C M C M
;
_chemical_formula_sum "Si O2"
_cell_formula_units_Z 112
_cell_length_a 21.491672
_cell_length_b 21.068492
_cell_length_c 14.918790
_cell_angle_alpha 90.000000
_cell_angle_beta 90.000000
_cell_angle_gamma 90.000000
_cell_volume 6755.185140
_symmetry_space_group_name_H-M "C M C M"
_symmetry_group_IT_number 63
_symmetry_cell_setting 'orthorhombic'
loop_
_space_group_symop_operation_xyz
x,y,z
-x,-y,1/2+z
x,-y,-z
-x,y,1/2-z
-x,-y,-z
x,y,1/2-z
-x,y,z
x,-y,1/2+z
1/2+x,1/2+y,z
1/2-x,1/2-y,1/2+z
1/2+x,1/2-y,-z
1/2-x,1/2+y,1/2-z
1/2-x,1/2-y,-z
1/2+x,1/2+y,1/2-z
1/2-x,1/2+y,z
1/2+x,1/2-y,1/2+z
loop_
_atom_site_type_symbol
_atom_site_label
_atom_site_fract_x
_atom_site_fract_y
_atom_site_fract_z
Si Si1 0.227908 0.555044 0.353901
Si Si2 0.428449 0.657148 0.146409
Si Si3 0.142569 0.106204 0.649958
Si Si4 0.702706 0.838464 0.518051
Si Si5 0.289320 0.086911 0.652125
Si Si6 0.864476 0.030481 0.145027
Si Si7 0.843201 0.204181 0.996472
O O1 0.227949 0.574149 0.250000
O O2 0.189362 0.608834 0.406379
O O3 0.195810 0.486709 0.369859
O O4 0.298127 0.553388 0.394903
O O5 0.411016 0.670435 0.250000
O O6 0.500000 0.672407 0.126981
O O7 0.416320 0.582933 0.123259
O O8 0.385935 0.701684 0.084869
O O9 0.116619 0.122004 0.750000
O O10 0.215880 0.096410 0.654849
O O11 0.125074 0.163114 0.582809
O O12 0.114669 0.039557 0.609882
O O13 0.681647 0.867008 0.422134
O O14 0.775098 0.820442 0.521233
O O15 0.660520 0.776920 0.536777
O O16 0.317193 0.104702 0.750000
O O17 0.853003 0.020378 0.250000
#
# Coordination Sequence:
#
# PCOD8255675 Si02
#       7
#    16  16  16  16  16  16  16
#     4   9  15  25  43  64  87 114 144 180 223 270
#     4  10  20  34  49  64  86 116 156 203 237 264
#     4   8  15  28  43  59  84 115 146 184 227 271
#     4  10  18  27  41  63  92 120 145 181 223 275
#     4   8  15  26  40  60  85 117 150 177 217 270
#     4   8  14  27  45  61  79 110 149 187 229 266
#     4  10  20  29  41  64  89 118 152 181 225 278
#
# _framework density 16.579855999999999
#
# number of rings (size 3 to 8) (size 9 to 14) (size 15 to 20)
#    0.000    3.000    1.429    2.143    0.000    1.714 
#    0.000    4.286    0.000    1.286    0.000    0.000 
#    0.000    2.286    0.000    3.143    0.000    0.286 
#
# Total GULP energy -694061.386021 kJ/mol
# GULP energy per Si atom -12393.953322 kJ/mol
# Density = 1.654212 g / cm^3
# Si number density = 16.579856 Si / 1000 Ang^3
#
#
#
# Elastic Constant Matrix: (Units=GPa)
#
#
# Indices 1 2 3 4 5 6 
#
# 1 29.6674 26.3111 25.1118 0.0000 0.0000 0.0000
# 2 26.3111 108.2785 56.8507 0.0000 0.0000 0.0000
# 3 25.1118 56.8507 84.3376 0.0000 0.0000 0.0000
# 4 0.0000 0.0000 0.0000 25.9050 0.0000 0.0000
# 5 0.0000 0.0000 0.0000 0.0000 14.1181 0.0000
# 6 0.0000 0.0000 0.0000 0.0000 0.0000 10.8240
#
#
#
# Elastic Compliance Matrix: (Units=1/GPa)
#
#
# Indices 1 2 3 4 5 6 
#
# 1 0.047775 -0.006408 -0.009905 0.000000 0.000000 0.000000
# 2 -0.006408 0.015154 -0.008307 0.000000 0.000000 0.000000
# 3 -0.009905 -0.008307 0.020406 0.000000 0.000000 0.000000
# 4 0.000000 0.000000 0.000000 0.038603 0.000000 0.000000
# 5 0.000000 0.000000 0.000000 0.000000 0.070831 0.000000
# 6 0.000000 0.000000 0.000000 0.000000 0.000000 0.092387
#
#
# Mechanical properties :
#
#
# Convention : Reuss Voigt Hill
#
# Bulk Modulus (GPa) = 29.33106 48.75897 39.04501
# Shear Modulus (GPa) = 14.46081 17.77008 16.11544
#
# Velocity S-wave (km/s) = 2.95649 3.27737 3.12106
# Velocity P-wave (km/s) = 5.42067 6.61770 6.04887
#
# Compressibility (1/GPa) = 0.03409356
#
# Stress axis : x y z
#
# Youngs Moduli (GPa) = 20.93158 65.98822 49.00472
#
# Poissons Ratio (x) = 0.42287 0.48541
# Poissons Ratio (y) = 0.13413 0.40709
# Poissons Ratio (z) = 0.20734 0.54817
#
# Static dielectric constant tensor:
#      x y z
#    x 2.459610 0.000000 0.000000 
#    y 0.000000 3.251440 0.000000 
#    z 0.000000 0.000000 3.292240 
# 
# 
# High freq. dielectric constant tensor:
#      x y z
#    x 1.552700 0.000000 0.000000 
#    y 0.000000 1.639850 0.000000 
#    z 0.000000 0.000000 1.646870 
# 
# From -- ./inp_files/48331.got.cif
#   From: 2010.03.12/outbox.cif.g09.slc.cpg/sg63_25_cif.got.tgz:48331.got - 2010.04.10 19:34:48.
