data_PCOD8255735
_publ_section_title
;
Structure prediction by ZEFSAII (Michael W. Deem and Ramdas Pophale) SiO2 
 PCOD8255735
Probable space group: C M C M
;
_chemical_formula_sum "Si O2"
_cell_formula_units_Z 56
_cell_length_a 14.356402
_cell_length_b 24.108580
_cell_length_c 8.863055
_cell_angle_alpha 90.000000
_cell_angle_beta 90.000000
_cell_angle_gamma 90.000000
_cell_volume 3067.613823
_symmetry_space_group_name_H-M "C M C M"
_symmetry_group_IT_number 63
_symmetry_cell_setting 'orthorhombic'
loop_
_space_group_symop_operation_xyz
x,y,z
-x,-y,1/2+z
x,-y,-z
-x,y,1/2-z
-x,-y,-z
x,y,1/2-z
-x,y,z
x,-y,1/2+z
1/2+x,1/2+y,z
1/2-x,1/2-y,1/2+z
1/2+x,1/2-y,-z
1/2-x,1/2+y,1/2-z
1/2-x,1/2-y,-z
1/2+x,1/2+y,1/2-z
1/2-x,1/2+y,z
1/2+x,1/2-y,1/2+z
loop_
_atom_site_type_symbol
_atom_site_label
_atom_site_fract_x
_atom_site_fract_y
_atom_site_fract_z
Si Si1 0.815569 0.941634 0.074575
Si Si2 0.603806 0.253195 0.071983
Si Si3 0.000000 0.939232 0.570221
Si Si4 0.729367 0.829623 0.075798
O O1 0.837766 0.952309 0.250000
O O2 0.734205 0.896234 0.052912
O O3 0.905526 0.912754 0.995283
O O4 0.785657 0.000000 0.000000
O O5 0.598251 0.251004 0.250000
O O6 0.500000 0.264451 0.005745
O O7 0.674786 0.300996 0.016449
O O8 0.640904 0.193513 0.014545
O O9 0.000000 0.938625 0.750000
O O10 0.000000 0.000000 0.500000
O O11 0.715621 0.814418 0.250000
#
# Coordination Sequence:
#
# PCOD8255735 Si02
#       4
#    16  16   8  16
#     4  10  19  31  48  69  98 133 164 200 244 291
#     4   9  18  33  53  74  98 129 163 202 247 292
#     4  10  18  28  42  64  94 128 164 198 235 282
#     4   9  19  33  51  74 100 131 164 199 245 294
#
# _framework density 18.255230999999998
#
# number of rings (size 3 to 8) (size 9 to 14) (size 15 to 20)
#    0.000    2.571    0.000    3.857    2.000    2.857 
#    0.000    0.000    0.000    0.857    0.000    0.000 
#    0.000    0.000    0.000    0.000    0.000    0.000 
#
# Total GULP energy -346999.370656 kJ/mol
# GULP energy per Si atom -12392.834666 kJ/mol
# Density = 1.821368 g / cm^3
# Si number density = 18.255231 Si / 1000 Ang^3
#
#
#
# Elastic Constant Matrix: (Units=GPa)
#
#
# Indices 1 2 3 4 5 6 
#
# 1 77.6293 24.4502 14.8561 0.0000 0.0000 0.0000
# 2 24.4502 82.9714 24.1129 0.0000 0.0000 0.0000
# 3 14.8561 24.1129 69.2920 0.0000 0.0000 0.0000
# 4 0.0000 0.0000 0.0000 26.8283 0.0000 0.0000
# 5 0.0000 0.0000 0.0000 0.0000 25.8473 0.0000
# 6 0.0000 0.0000 0.0000 0.0000 0.0000 22.6149
#
#
#
# Elastic Compliance Matrix: (Units=1/GPa)
#
#
# Indices 1 2 3 4 5 6 
#
# 1 0.014397 -0.003722 -0.001791 0.000000 0.000000 0.000000
# 2 -0.003722 0.014371 -0.004203 0.000000 0.000000 0.000000
# 3 -0.001791 -0.004203 0.016278 0.000000 0.000000 0.000000
# 4 0.000000 0.000000 0.000000 0.037274 0.000000 0.000000
# 5 0.000000 0.000000 0.000000 0.000000 0.038689 0.000000
# 6 0.000000 0.000000 0.000000 0.000000 0.000000 0.044219
#
#
# Mechanical properties :
#
#
# Convention : Reuss Voigt Hill
#
# Bulk Modulus (GPa) = 39.04221 39.63679 39.33950
# Shear Modulus (GPa) = 25.88028 26.15633 26.01830
#
# Velocity S-wave (km/s) = 3.76931 3.78936 3.77935
# Velocity P-wave (km/s) = 6.35428 6.39573 6.37504
#
# Compressibility (1/GPa) = 0.02561331
#
# Stress axis : x y z
#
# Youngs Moduli (GPa) = 69.45985 69.58683 61.43135
#
# Poissons Ratio (x) = 0.25899 0.11005
# Poissons Ratio (y) = 0.25852 0.25819
# Poissons Ratio (z) = 0.12444 0.29246
#
# Static dielectric constant tensor:
#      x y z
#    x 3.755590 0.000000 0.000000 
#    y 0.000000 3.266880 0.000000 
#    z 0.000000 0.000000 3.319570 
# 
# 
# High freq. dielectric constant tensor:
#      x y z
#    x 1.679580 0.000000 0.000000 
#    y 0.000000 1.699030 0.000000 
#    z 0.000000 0.000000 1.707530 
# 
# From -- ./inp_files/4153.got.cif
#   From: 2010.03.12/outbox.cif.g09.slc.cpg/sg63_3_cif.got.tgz:4153.got - 2010.04.10 19:34:48.
