data_PCOD8255739
_publ_section_title
;
Structure prediction by ZEFSAII (Michael W. Deem and Ramdas Pophale) SiO2 
 PCOD8255739
Probable space group: C M C M
;
_chemical_formula_sum "Si O2"
_cell_formula_units_Z 128
_cell_length_a 25.133473
_cell_length_b 12.764452
_cell_length_c 25.165811
_cell_angle_alpha 90.000000
_cell_angle_beta 90.000000
_cell_angle_gamma 90.000000
_cell_volume 8073.569900
_symmetry_space_group_name_H-M "C M C M"
_symmetry_group_IT_number 63
_symmetry_cell_setting 'orthorhombic'
loop_
_space_group_symop_operation_xyz
x,y,z
-x,-y,1/2+z
x,-y,-z
-x,y,1/2-z
-x,-y,-z
x,y,1/2-z
-x,y,z
x,-y,1/2+z
1/2+x,1/2+y,z
1/2-x,1/2-y,1/2+z
1/2+x,1/2-y,-z
1/2-x,1/2+y,1/2-z
1/2-x,1/2-y,-z
1/2+x,1/2+y,1/2-z
1/2-x,1/2+y,z
1/2+x,1/2-y,1/2+z
loop_
_atom_site_type_symbol
_atom_site_label
_atom_site_fract_x
_atom_site_fract_y
_atom_site_fract_z
Si Si1 0.099645 0.076113 0.951816
Si Si2 0.441484 0.398832 0.619780
Si Si3 0.341115 0.394781 0.687528
Si Si4 0.334652 0.133778 0.543344
Si Si5 0.232313 0.757656 0.877627
Si Si6 0.785370 0.433334 0.936021
Si Si7 0.699231 0.566815 0.888528
Si Si8 0.940500 0.254606 0.477399
O O1 0.151988 0.119538 0.922203
O O2 0.065719 0.011035 0.908870
O O3 0.067588 0.176802 0.972657
O O4 0.115648 0.000000 0.000000
O O5 0.500000 0.397558 0.645485
O O6 0.400488 0.373420 0.666653
O O7 0.435437 0.307689 0.576987
O O8 0.342201 0.407564 0.750000
O O9 0.301244 0.300430 0.672083
O O10 0.321480 0.501719 0.661342
O O11 0.310411 0.232613 0.575326
O O12 0.295183 0.116611 0.493543
O O13 0.395062 0.155568 0.524243
O O14 0.331446 0.022239 0.576025
O O15 0.279417 0.838535 0.894220
O O16 0.262245 0.651899 0.861819
O O17 0.728980 0.493458 0.931427
O O18 0.000000 0.303980 0.482788
#
# Coordination Sequence:
#
# PCOD8255739 Si02
#       8
#    16  16  16  16  16  16  16  16
#     4   9  17  25  43  68  93 119 147 181 221 272
#     4   9  17  31  45  63  89 117 151 188 227 269
#     4  10  20  33  46  67  91 115 151 189 229 274
#     4  10  18  28  44  66  92 121 152 185 217 259
#     4  10  18  31  46  65  89 121 150 182 222 268
#     4   9  19  28  43  68  92 118 150 186 215 262
#     4   9  19  30  47  68  92 119 150 185 226 270
#     4  10  18  28  43  63  91 125 154 182 220 264
#
# _framework density 15.854201
#
# number of rings (size 3 to 8) (size 9 to 14) (size 15 to 20)
#    0.000    2.500    1.250    1.500    5.250    2.250 
#    0.000    1.250    0.000    0.000    0.000    0.000 
#    0.000    0.000    0.000    0.000    3.000    0.000 
#
# Total GULP energy -792933.760293 kJ/mol
# GULP energy per Si atom -12389.590005 kJ/mol
# Density = 1.581812 g / cm^3
# Si number density = 15.854201 Si / 1000 Ang^3
#
#
#
# Elastic Constant Matrix: (Units=GPa)
#
#
# Indices 1 2 3 4 5 6 
#
# 1 104.2678 34.3781 52.2240 0.0000 0.0000 0.0000
# 2 34.3781 52.8117 21.2743 0.0000 0.0000 0.0000
# 3 52.2240 21.2743 80.1354 0.0000 0.0000 0.0000
# 4 0.0000 0.0000 0.0000 13.0697 0.0000 0.0000
# 5 0.0000 0.0000 0.0000 0.0000 15.0147 0.0000
# 6 0.0000 0.0000 0.0000 0.0000 0.0000 21.7866
#
#
#
# Elastic Compliance Matrix: (Units=1/GPa)
#
#
# Indices 1 2 3 4 5 6 
#
# 1 0.016310 -0.007094 -0.008746 0.000000 0.000000 0.000000
# 2 -0.007094 0.024288 -0.001825 0.000000 0.000000 0.000000
# 3 -0.008746 -0.001825 0.018663 0.000000 0.000000 0.000000
# 4 0.000000 0.000000 0.000000 0.076513 0.000000 0.000000
# 5 0.000000 0.000000 0.000000 0.000000 0.066601 0.000000
# 6 0.000000 0.000000 0.000000 0.000000 0.000000 0.045900
#
#
# Mechanical properties :
#
#
# Convention : Reuss Voigt Hill
#
# Bulk Modulus (GPa) = 41.78553 50.32975 46.05764
# Shear Modulus (GPa) = 17.14780 18.59677 17.87228
#
# Velocity S-wave (km/s) = 3.29233 3.42860 3.36116
# Velocity P-wave (km/s) = 6.39264 6.89116 6.64658
#
# Compressibility (1/GPa) = 0.02393173
#
# Stress axis : x y z
#
# Youngs Moduli (GPa) = 61.31115 41.17219 53.58174
#
# Poissons Ratio (x) = 0.29208 0.46863
# Poissons Ratio (y) = 0.43495 0.09778
# Poissons Ratio (z) = 0.53623 0.07513
#
# Static dielectric constant tensor:
#      x y z
#    x 3.142840 0.000000 0.000000 
#    y 0.000000 3.100730 0.000000 
#    z 0.000000 0.000000 2.632750 
# 
# 
# High freq. dielectric constant tensor:
#      x y z
#    x 1.610520 0.000000 0.000000 
#    y 0.000000 1.602290 0.000000 
#    z 0.000000 0.000000 1.568020 
# 
# From -- ./inp_files/65582.got.cif
#   From: 2010.03.12/outbox.cif.g09.slc.cpg/sg63_33_cif.got.tgz:65582.got - 2010.04.10 19:34:48.
