data_PCOD8255641
_publ_section_title
;
Structure prediction by ZEFSAII (Michael W. Deem and Ramdas Pophale) SiO2 
 PCOD8255641
Probable space group: C M C M
;
_chemical_formula_sum "Si O2"
_cell_formula_units_Z 80
_cell_length_a 23.541837
_cell_length_b 12.434008
_cell_length_c 14.564279
_cell_angle_alpha 90.000000
_cell_angle_beta 90.000000
_cell_angle_gamma 90.000000
_cell_volume 4263.246859
_symmetry_space_group_name_H-M "C M C M"
_symmetry_group_IT_number 63
_symmetry_cell_setting 'orthorhombic'
loop_
_space_group_symop_operation_xyz
x,y,z
-x,-y,1/2+z
x,-y,-z
-x,y,1/2-z
-x,-y,-z
x,y,1/2-z
-x,y,z
x,-y,1/2+z
1/2+x,1/2+y,z
1/2-x,1/2-y,1/2+z
1/2+x,1/2-y,-z
1/2-x,1/2+y,1/2-z
1/2-x,1/2-y,-z
1/2+x,1/2+y,1/2-z
1/2-x,1/2+y,z
1/2+x,1/2-y,1/2+z
loop_
_atom_site_type_symbol
_atom_site_label
_atom_site_fract_x
_atom_site_fract_y
_atom_site_fract_z
Si Si1 0.154263 0.378824 0.858544
Si Si2 0.756221 0.551337 0.647949
Si Si3 0.145983 0.270436 0.148357
Si Si4 0.063217 0.452676 0.358648
Si Si5 0.692403 0.308809 0.023191
O O1 0.149383 0.360031 0.750000
O O2 0.213410 0.440610 0.881987
O O3 0.101607 0.449425 0.897569
O O4 0.154489 0.265348 0.909465
O O5 0.730005 0.539122 0.750000
O O6 0.802410 0.645737 0.649916
O O7 0.705974 0.579114 0.575480
O O8 0.139062 0.218456 0.250000
O O9 0.089938 0.336347 0.118120
O O10 0.157807 0.176584 0.072972
O O11 0.061988 0.465675 0.250000
O O12 0.000000 0.459868 0.400996
O O13 0.750000 0.250000 0.000000
#
# Coordination Sequence:
#
# PCOD8255641 Si02
#       5
#    16  16  16  16  16
#     4   9  17  29  44  63  87 113 143 175 209 252
#     4   8  15  27  41  58  80 106 137 173 209 247
#     4   8  15  26  37  53  78 106 139 173 200 234
#     4   8  14  26  43  60  82 114 145 173 206 246
#     4  10  18  26  41  58  78 111 147 175 207 249
#
# _framework density 18.765041
#
# number of rings (size 3 to 8) (size 9 to 14) (size 15 to 20)
#    0.000    3.400    0.000    3.000    0.000    8.000 
#    0.000    2.000    0.000    1.200    0.000    0.000 
#    0.000    0.000    0.000   64.800    0.000  574.800 
#
# Total GULP energy -495606.836077 kJ/mol
# GULP energy per Si atom -12390.170902 kJ/mol
# Density = 1.872233 g / cm^3
# Si number density = 18.765041 Si / 1000 Ang^3
#
#
#
# Elastic Constant Matrix: (Units=GPa)
#
#
# Indices 1 2 3 4 5 6 
#
# 1 77.8077 21.0937 39.0993 0.0000 0.0000 0.0000
# 2 21.0937 24.0142 31.0899 0.0000 0.0000 0.0000
# 3 39.0993 31.0899 92.8455 0.0000 0.0000 0.0000
# 4 0.0000 0.0000 0.0000 19.4217 0.0000 0.0000
# 5 0.0000 0.0000 0.0000 0.0000 11.8809 0.0000
# 6 0.0000 0.0000 0.0000 0.0000 0.0000 14.8860
#
#
#
# Elastic Compliance Matrix: (Units=1/GPa)
#
#
# Indices 1 2 3 4 5 6 
#
# 1 0.017657 -0.010385 -0.003958 0.000000 0.000000 0.000000
# 2 -0.010385 0.079618 -0.022287 0.000000 0.000000 0.000000
# 3 -0.003958 -0.022287 0.019901 0.000000 0.000000 0.000000
# 4 0.000000 0.000000 0.000000 0.051489 0.000000 0.000000
# 5 0.000000 0.000000 0.000000 0.000000 0.084169 0.000000
# 6 0.000000 0.000000 0.000000 0.000000 0.000000 0.067177
#
#
# Mechanical properties :
#
#
# Convention : Reuss Voigt Hill
#
# Bulk Modulus (GPa) = 22.77148 41.91481 32.34315
# Shear Modulus (GPa) = 12.25764 16.13001 14.19382
#
# Velocity S-wave (km/s) = 2.55858 2.93504 2.75325
# Velocity P-wave (km/s) = 4.57054 5.81988 5.23263
#
# Compressibility (1/GPa) = 0.04391458
#
# Stress axis : x y z
#
# Youngs Moduli (GPa) = 56.63624 12.55993 50.24990
#
# Poissons Ratio (x) = 0.13043 0.19890
# Poissons Ratio (y) = 0.58816 1.11994
# Poissons Ratio (z) = 0.22417 0.27993
#
# Static dielectric constant tensor:
#      x y z
#    x 3.583820 0.000000 0.000000 
#    y 0.000000 3.216380 0.000000 
#    z 0.000000 0.000000 4.034540 
# 
# 
# High freq. dielectric constant tensor:
#      x y z
#    x 1.679240 0.000000 0.000000 
#    y 0.000000 1.678540 0.000000 
#    z 0.000000 0.000000 1.749190 
# 
# From -- ./inp_files/35093.got.cif
#   From: 2010.03.12/outbox.cif.g09.slc.cpg/sg63_18_cif.got.tgz:35093.got - 2010.04.10 19:34:48.
