data_PCOD8255158
_publ_section_title
;
Structure prediction by ZEFSAII (Michael W. Deem and Ramdas Pophale) SiO2 
 PCOD8255158
Probable space group: P N M A
;
_chemical_formula_sum "Si O2"
_cell_formula_units_Z 64
_cell_length_a 17.216647
_cell_length_b 15.504260
_cell_length_c 10.857382
_cell_angle_alpha 90.000000
_cell_angle_beta 90.000000
_cell_angle_gamma 90.000000
_cell_volume 2898.175867
_symmetry_space_group_name_H-M "P N M A"
_symmetry_group_IT_number 62
_symmetry_cell_setting 'orthorhombic'
loop_
_space_group_symop_operation_xyz
x,y,z
1/2-x,-y,1/2+z
1/2+x,1/2-y,1/2-z
-x,1/2+y,-z
-x,-y,-z
1/2+x,y,1/2-z
1/2-x,1/2+y,1/2+z
x,1/2-y,z
loop_
_atom_site_type_symbol
_atom_site_label
_atom_site_fract_x
_atom_site_fract_y
_atom_site_fract_z
Si Si1 0.267176 0.553297 0.445059
Si Si2 0.363015 0.560310 0.872320
Si Si3 0.370988 0.848487 0.630169
Si Si4 0.851098 0.345759 0.433688
Si Si5 0.540988 0.850656 0.522908
Si Si6 0.020693 0.344402 0.531646
Si Si7 0.877156 0.040166 0.212907
Si Si8 0.472819 0.435806 0.741215
O O1 0.218761 0.462647 0.439752
O O2 0.319247 0.578381 0.563292
O O3 0.199681 0.627096 0.445342
O O4 0.325782 0.543591 0.329411
O O5 0.357493 0.639735 0.776534
O O6 0.420548 0.583368 0.983778
O O7 0.394448 0.477631 0.795886
O O8 0.347457 0.750000 0.594537
O O9 0.460212 0.865143 0.594728
O O10 0.826480 0.250000 0.393489
O O11 0.831823 0.412748 0.323991
O O12 0.941992 0.350891 0.454939
O O13 0.557669 0.750000 0.500776
O O14 0.611369 0.891023 0.601979
O O15 0.539790 0.901620 0.395281
O O16 0.058088 0.250000 0.515386
O O17 0.001097 0.356672 0.674866
O O18 0.961897 0.008978 0.250324
#
# Coordination Sequence:
#
# PCOD8255158 Si02
#       8
#     8   8   8   8   8   8   8   8
#     4  12  25  40  61  98 132 172 208 268 341 396
#     4  12  23  41  69  98 127 169 227 272 324 387
#     4  11  23  43  67  95 130 170 217 273 329 391
#     4  11  23  43  67  95 130 170 217 273 329 391
#     4  11  23  41  67  97 128 170 219 272 329 388
#     4  11  23  41  67  97 128 170 219 272 329 388
#     4  12  23  41  69  98 127 169 227 272 324 387
#     4  12  21  40  65  98 134 172 216 274 321 392
#
# _framework density 22.082854999999999
#
# number of rings (size 3 to 8) (size 9 to 14) (size 15 to 20)
#    0.000    0.500    5.000    4.500    0.000    2.000 
#    0.000    1.875    0.000    0.000    0.000    0.000 
#    0.000    0.000    0.000    0.000    0.000    0.000 
#
# Total GULP energy -793083.633406 kJ/mol
# GULP energy per Si atom -12391.931772 kJ/mol
# Density = 2.203259 g / cm^3
# Si number density = 22.082855 Si / 1000 Ang^3
#
#
#
# Elastic Constant Matrix: (Units=GPa)
#
#
# Indices 1 2 3 4 5 6 
#
# 1 78.4711 32.8553 22.6715 0.0000 0.0000 0.0000
# 2 32.8553 102.2495 52.9515 0.0000 0.0000 0.0000
# 3 22.6715 52.9515 94.9485 0.0000 0.0000 0.0000
# 4 0.0000 0.0000 0.0000 40.8070 0.0000 0.0000
# 5 0.0000 0.0000 0.0000 0.0000 26.6236 0.0000
# 6 0.0000 0.0000 0.0000 0.0000 0.0000 22.5601
#
#
#
# Elastic Compliance Matrix: (Units=1/GPa)
#
#
# Indices 1 2 3 4 5 6 
#
# 1 0.014828 -0.004121 -0.001242 0.000000 0.000000 0.000000
# 2 -0.004121 0.014897 -0.007324 0.000000 0.000000 0.000000
# 3 -0.001242 -0.007324 0.014913 0.000000 0.000000 0.000000
# 4 0.000000 0.000000 0.000000 0.024506 0.000000 0.000000
# 5 0.000000 0.000000 0.000000 0.000000 0.037561 0.000000
# 6 0.000000 0.000000 0.000000 0.000000 0.000000 0.044326
#
#
# Mechanical properties :
#
#
# Convention : Reuss Voigt Hill
#
# Bulk Modulus (GPa) = 51.91178 54.73619 53.32399
# Shear Modulus (GPa) = 27.34839 29.14419 28.24629
#
# Velocity S-wave (km/s) = 3.52297 3.63680 3.58034
# Velocity P-wave (km/s) = 6.33303 6.51733 6.42584
#
# Compressibility (1/GPa) = 0.01926345
#
# Stress axis : x y z
#
# Youngs Moduli (GPa) = 67.43998 67.12744 67.05550
#
# Poissons Ratio (x) = 0.27665 0.08329
# Poissons Ratio (y) = 0.27794 0.49110
# Poissons Ratio (z) = 0.08377 0.49163
#
# Static dielectric constant tensor:
#      x y z
#    x 4.079840 0.000000 0.000000 
#    y 0.000000 4.062040 0.000000 
#    z 0.000000 0.000000 3.954510 
# 
# 
# High freq. dielectric constant tensor:
#      x y z
#    x 1.874590 0.000000 0.000000 
#    y 0.000000 1.865060 0.000000 
#    z 0.000000 0.000000 1.860870 
# 
# From -- ./inp_files/14336.got.cif
#   From: 2010.03.12/outbox.cif.g09.slc.cpg/sg62_8_cif.got.tgz:14336.got - 2010.04.10 19:12:36.
