data_PCOD8255331
_publ_section_title
;
Structure prediction by ZEFSAII (Michael W. Deem and Ramdas Pophale) SiO2 
 PCOD8255331
Probable space group: C M C M
;
_chemical_formula_sum "Si O2"
_cell_formula_units_Z 112
_cell_length_a 17.774729
_cell_length_b 23.188507
_cell_length_c 18.083724
_cell_angle_alpha 90.000000
_cell_angle_beta 90.000000
_cell_angle_gamma 90.000000
_cell_volume 7453.558174
_symmetry_space_group_name_H-M "C M C M"
_symmetry_group_IT_number 63
_symmetry_cell_setting 'orthorhombic'
loop_
_space_group_symop_operation_xyz
x,y,z
-x,-y,1/2+z
x,-y,-z
-x,y,1/2-z
-x,-y,-z
x,y,1/2-z
-x,y,z
x,-y,1/2+z
1/2+x,1/2+y,z
1/2-x,1/2-y,1/2+z
1/2+x,1/2-y,-z
1/2-x,1/2+y,1/2-z
1/2-x,1/2-y,-z
1/2+x,1/2+y,1/2-z
1/2-x,1/2+y,z
1/2+x,1/2-y,1/2+z
loop_
_atom_site_type_symbol
_atom_site_label
_atom_site_fract_x
_atom_site_fract_y
_atom_site_fract_z
Si Si1 0.771659 0.684174 0.094818
Si Si2 0.913044 0.936038 0.528460
Si Si3 0.083197 0.750711 0.870824
Si Si4 0.583680 0.230983 0.455895
Si Si5 0.850649 0.123258 0.335962
Si Si6 0.823763 0.837911 0.046278
Si Si7 0.770696 0.301646 0.331880
O O1 0.859794 0.679537 0.071594
O O2 0.738503 0.630035 0.142171
O O3 0.763088 0.740290 0.145006
O O4 0.720738 0.691178 0.021669
O O5 0.887640 0.927189 0.614044
O O6 0.863089 0.897166 0.474642
O O7 0.000000 0.918490 0.521233
O O8 0.898585 0.000000 0.500000
O O9 0.109288 0.816330 0.855907
O O10 0.138581 0.704212 0.833156
O O11 0.000000 0.743388 0.836620
O O12 0.081629 0.735934 0.956519
O O13 0.500000 0.218328 0.424647
O O14 0.613493 0.292456 0.425780
O O15 0.860120 0.106941 0.250000
O O16 0.763536 0.849518 0.112279
O O17 0.744519 0.318576 0.250000
#
# Coordination Sequence:
#
# PCOD8255331 Si02
#       7
#    16  16  16  16  16  16  16
#     4   9  15  27  41  59  85 118 149 176 210 253
#     4  10  20  33  49  66  83 109 145 186 227 260
#     4  10  16  23  38  65  94 118 142 174 216 256
#     4  10  15  22  40  63  88 117 145 173 203 250
#     4  10  19  29  46  67  88 113 144 185 228 262
#     4  10  16  29  43  57  82 117 153 181 208 255
#     4  10  17  25  38  58  85 118 147 174 206 250
#
# _framework density 15.026381000000001
#
# number of rings (size 3 to 8) (size 9 to 14) (size 15 to 20)
#    0.000    2.143    5.714    3.429    0.000    2.000 
#    0.000    0.714    0.000   15.429    0.000    0.000 
#    0.000   14.286    0.000    1.143    0.000    0.000 
#
# Total GULP energy -693739.056026 kJ/mol
# GULP energy per Si atom -12388.197429 kJ/mol
# Density = 1.499218 g / cm^3
# Si number density = 15.026381 Si / 1000 Ang^3
#
#
#
# Elastic Constant Matrix: (Units=GPa)
#
#
# Indices 1 2 3 4 5 6 
#
# 1 118.2916 34.7758 42.7923 0.0000 0.0000 0.0000
# 2 34.7758 47.1064 31.4445 0.0000 0.0000 0.0000
# 3 42.7923 31.4445 101.5986 0.0000 0.0000 0.0000
# 4 0.0000 0.0000 0.0000 8.5602 0.0000 0.0000
# 5 0.0000 0.0000 0.0000 0.0000 14.3439 0.0000
# 6 0.0000 0.0000 0.0000 0.0000 0.0000 18.7805
#
#
#
# Elastic Compliance Matrix: (Units=1/GPa)
#
#
# Indices 1 2 3 4 5 6 
#
# 1 0.011381 -0.006557 -0.002764 0.000000 0.000000 0.000000
# 2 -0.006557 0.030534 -0.006688 0.000000 0.000000 0.000000
# 3 -0.002764 -0.006688 0.013077 0.000000 0.000000 0.000000
# 4 0.000000 0.000000 0.000000 0.116820 0.000000 0.000000
# 5 0.000000 0.000000 0.000000 0.000000 0.069716 0.000000
# 6 0.000000 0.000000 0.000000 0.000000 0.000000 0.053247
#
#
# Mechanical properties :
#
#
# Convention : Reuss Voigt Hill
#
# Bulk Modulus (GPa) = 43.52979 53.89129 48.71054
# Shear Modulus (GPa) = 14.94985 18.86919 16.90952
#
# Velocity S-wave (km/s) = 3.15764 3.54748 3.35822
# Velocity P-wave (km/s) = 6.50585 7.26098 6.89376
#
# Compressibility (1/GPa) = 0.02297277
#
# Stress axis : x y z
#
# Youngs Moduli (GPa) = 87.86339 32.75071 76.46997
#
# Poissons Ratio (x) = 0.21474 0.21139
# Poissons Ratio (y) = 0.57611 0.51146
# Poissons Ratio (z) = 0.24289 0.21905
#
# Static dielectric constant tensor:
#      x y z
#    x 3.402040 0.000000 0.000000 
#    y 0.000000 2.450060 0.000000 
#    z 0.000000 0.000000 2.974580 
# 
# 
# High freq. dielectric constant tensor:
#      x y z
#    x 1.584190 0.000000 0.000000 
#    y 0.000000 1.508450 0.000000 
#    z 0.000000 0.000000 1.574490 
# 
# From -- ./inp_files/46055.got.cif
#   From: 2010.03.12/outbox.cif.g09.slc.cpg/sg63_24_cif.got.tgz:46055.got - 2010.04.10 19:34:48.
