data_PCOD8255594
_publ_section_title
;
Structure prediction by ZEFSAII (Michael W. Deem and Ramdas Pophale) SiO2 
 PCOD8255594
Probable space group: C M C M
;
_chemical_formula_sum "Si O2"
_cell_formula_units_Z 72
_cell_length_a 25.178917
_cell_length_b 16.301102
_cell_length_c 9.093432
_cell_angle_alpha 90.000000
_cell_angle_beta 90.000000
_cell_angle_gamma 90.000000
_cell_volume 3732.345461
_symmetry_space_group_name_H-M "C M C M"
_symmetry_group_IT_number 63
_symmetry_cell_setting 'orthorhombic'
loop_
_space_group_symop_operation_xyz
x,y,z
-x,-y,1/2+z
x,-y,-z
-x,y,1/2-z
-x,-y,-z
x,y,1/2-z
-x,y,z
x,-y,1/2+z
1/2+x,1/2+y,z
1/2-x,1/2-y,1/2+z
1/2+x,1/2-y,-z
1/2-x,1/2+y,1/2-z
1/2-x,1/2-y,-z
1/2+x,1/2+y,1/2-z
1/2-x,1/2+y,z
1/2+x,1/2-y,1/2+z
loop_
_atom_site_type_symbol
_atom_site_label
_atom_site_fract_x
_atom_site_fract_y
_atom_site_fract_z
Si Si1 0.131877 0.000000 0.500000
Si Si2 0.672503 0.916250 0.073588
Si Si3 0.366293 0.760380 0.925535
Si Si4 0.786859 0.872223 0.088015
Si Si5 0.439911 0.356253 0.586526
O O1 0.170953 0.053624 0.601739
O O2 0.094505 0.060485 0.407745
O O3 0.669430 0.922907 0.250000
O O4 0.732048 0.898148 0.009054
O O5 0.633841 0.845817 0.012287
O O6 0.652486 0.000000 0.000000
O O7 0.365875 0.773084 0.750000
O O8 0.315368 0.707240 0.983746
O O9 0.418952 0.710495 0.970085
O O10 0.769517 0.846174 0.250000
O O11 0.437568 0.317977 0.750000
O O12 0.500000 0.378357 0.540967
#
# Coordination Sequence:
#
# PCOD8255594 Si02
#       5
#     8  16  16  16  16
#     4  10  17  32  52  82 116 154 185 222 264 324
#     4  11  21  35  54  80 110 145 184 228 276 328
#     4  10  21  37  55  78 107 145 188 232 279 328
#     4   9  18  31  49  76 111 148 185 221 265 320
#     4  10  21  36  56  82 112 148 189 234 281 328
#
# _framework density 19.290818999999999
#
# number of rings (size 3 to 8) (size 9 to 14) (size 15 to 20)
#    0.000    2.000    1.111    3.000    0.000    1.333 
#    0.000    2.222    0.000    0.667    0.000    0.000 
#    0.000    0.000    0.000    0.000    0.000    0.000 
#
# Total GULP energy -446161.655559 kJ/mol
# GULP energy per Si atom -12393.379321 kJ/mol
# Density = 1.924691 g / cm^3
# Si number density = 19.290819 Si / 1000 Ang^3
#
#
#
# Elastic Constant Matrix: (Units=GPa)
#
#
# Indices 1 2 3 4 5 6 
#
# 1 60.9100 24.3619 17.6323 0.0000 0.0000 0.0000
# 2 24.3619 126.5462 37.4688 0.0000 0.0000 0.0000
# 3 17.6323 37.4688 88.3784 0.0000 0.0000 0.0000
# 4 0.0000 0.0000 0.0000 29.7863 0.0000 0.0000
# 5 0.0000 0.0000 0.0000 0.0000 23.3568 0.0000
# 6 0.0000 0.0000 0.0000 0.0000 0.0000 17.3186
#
#
#
# Elastic Compliance Matrix: (Units=1/GPa)
#
#
# Indices 1 2 3 4 5 6 
#
# 1 0.018243 -0.002784 -0.002459 0.000000 0.000000 0.000000
# 2 -0.002784 0.009461 -0.003456 0.000000 0.000000 0.000000
# 3 -0.002459 -0.003456 0.013271 0.000000 0.000000 0.000000
# 4 0.000000 0.000000 0.000000 0.033573 0.000000 0.000000
# 5 0.000000 0.000000 0.000000 0.000000 0.042814 0.000000
# 6 0.000000 0.000000 0.000000 0.000000 0.000000 0.057741
#
#
# Mechanical properties :
#
#
# Convention : Reuss Voigt Hill
#
# Bulk Modulus (GPa) = 42.41411 48.30672 45.36041
# Shear Modulus (GPa) = 24.95501 27.18377 26.06939
#
# Velocity S-wave (km/s) = 3.60060 3.75794 3.68011
# Velocity P-wave (km/s) = 6.27058 6.62761 6.45156
#
# Compressibility (1/GPa) = 0.02357706
#
# Stress axis : x y z
#
# Youngs Moduli (GPa) = 54.81536 105.69240 75.35340
#
# Poissons Ratio (x) = 0.29423 0.18533
# Poissons Ratio (y) = 0.15260 0.26041
# Poissons Ratio (z) = 0.13481 0.36526
#
# Static dielectric constant tensor:
#      x y z
#    x 3.418770 0.000000 0.000000 
#    y 0.000000 3.486390 0.000000 
#    z 0.000000 0.000000 3.260540 
# 
# 
# High freq. dielectric constant tensor:
#      x y z
#    x 1.729350 0.000000 0.000000 
#    y 0.000000 1.748290 0.000000 
#    z 0.000000 0.000000 1.738640 
# 
# From -- ./inp_files/9828.got.cif
#   From: 2010.03.12/outbox.cif.g09.slc.cpg/sg63_5_cif.got.tgz:9828.got - 2010.04.10 19:34:48.
