data_PCOD8255340
_publ_section_title
;
Structure prediction by ZEFSAII (Michael W. Deem and Ramdas Pophale) SiO2 
 PCOD8255340
Probable space group: C M C M
;
_chemical_formula_sum "Si O2"
_cell_formula_units_Z 80
_cell_length_a 9.119396
_cell_length_b 18.801385
_cell_length_c 26.183127
_cell_angle_alpha 90.000000
_cell_angle_beta 90.000000
_cell_angle_gamma 90.000000
_cell_volume 4489.287611
_symmetry_space_group_name_H-M "C M C M"
_symmetry_group_IT_number 63
_symmetry_cell_setting 'orthorhombic'
loop_
_space_group_symop_operation_xyz
x,y,z
-x,-y,1/2+z
x,-y,-z
-x,y,1/2-z
-x,-y,-z
x,y,1/2-z
-x,y,z
x,-y,1/2+z
1/2+x,1/2+y,z
1/2-x,1/2-y,1/2+z
1/2+x,1/2-y,-z
1/2-x,1/2+y,1/2-z
1/2-x,1/2-y,-z
1/2+x,1/2+y,1/2-z
1/2-x,1/2+y,z
1/2+x,1/2-y,1/2+z
loop_
_atom_site_type_symbol
_atom_site_label
_atom_site_fract_x
_atom_site_fract_y
_atom_site_fract_z
Si Si1 0.833898 0.458284 0.649831
Si Si2 0.830227 0.791348 0.955761
Si Si3 0.329786 0.195542 0.250000
Si Si4 0.174182 0.049010 0.250000
Si Si5 0.338192 0.789065 0.858496
Si Si6 0.671043 0.456469 0.549356
O O1 0.743937 0.486688 0.699093
O O2 0.830114 0.373411 0.649076
O O3 0.758455 0.486830 0.598043
O O4 0.000000 0.487118 0.652453
O O5 0.776703 0.762305 0.900586
O O6 0.792085 0.874218 0.960979
O O7 0.000000 0.775119 0.960391
O O8 0.750000 0.750000 0.000000
O O9 0.500000 0.166499 0.250000
O O10 0.213000 0.132101 0.250000
O O11 0.304390 0.242613 0.198396
O O12 0.000000 0.038140 0.250000
O O13 0.500000 0.765996 0.877206
O O14 0.723015 0.500000 0.500000
O O15 0.500000 0.467327 0.560563
#
# Coordination Sequence:
#
# PCOD8255340 Si02
#       6
#    16  16   8   8  16  16
#     4   9  16  26  40  60  87 116 146 181 223 268
#     4  10  19  30  45  65  90 120 151 184 221 262
#     4   8  14  24  38  58  85 114 141 176 223 269
#     4  10  16  22  36  58  85 116 147 180 221 265
#     4   8  14  25  40  59  85 114 143 177 218 264
#     4   9  18  32  48  67  91 118 150 187 226 267
#
# _framework density 17.8202
#
# number of rings (size 3 to 8) (size 9 to 14) (size 15 to 20)
#    0.000    3.000    0.000    3.300    0.000    6.000 
#    0.000    0.000    0.000    0.000    0.000    1.400 
#    0.000    4.800    0.000    0.000    0.000    0.000 
#
# Total GULP energy -495724.051490 kJ/mol
# GULP energy per Si atom -12393.101287 kJ/mol
# Density = 1.777964 g / cm^3
# Si number density = 17.820200 Si / 1000 Ang^3
#
#
#
# Elastic Constant Matrix: (Units=GPa)
#
#
# Indices 1 2 3 4 5 6 
#
# 1 121.1268 25.0315 94.8647 0.0000 0.0000 0.0000
# 2 25.0315 16.2075 33.6610 0.0000 0.0000 0.0000
# 3 94.8647 33.6610 206.9320 0.0000 0.0000 0.0000
# 4 0.0000 0.0000 0.0000 20.5252 0.0000 0.0000
# 5 0.0000 0.0000 0.0000 0.0000 40.6727 0.0000
# 6 0.0000 0.0000 0.0000 0.0000 0.0000 12.4301
#
#
#
# Elastic Compliance Matrix: (Units=1/GPa)
#
#
# Indices 1 2 3 4 5 6 
#
# 1 0.014482 -0.012955 -0.004532 0.000000 0.000000 0.000000
# 2 -0.012955 0.104769 -0.011103 0.000000 0.000000 0.000000
# 3 -0.004532 -0.011103 0.008716 0.000000 0.000000 0.000000
# 4 0.000000 0.000000 0.000000 0.048721 0.000000 0.000000
# 5 0.000000 0.000000 0.000000 0.000000 0.024587 0.000000
# 6 0.000000 0.000000 0.000000 0.000000 0.000000 0.080450
#
#
# Mechanical properties :
#
#
# Convention : Reuss Voigt Hill
#
# Bulk Modulus (GPa) = 14.12694 72.37565 43.25129
# Shear Modulus (GPa) = 13.79310 27.43954 20.61632
#
# Velocity S-wave (km/s) = 2.78513 3.92829 3.40502
# Velocity P-wave (km/s) = 4.27636 7.82801 6.30734
#
# Compressibility (1/GPa) = 0.07078676
#
# Stress axis : x y z
#
# Youngs Moduli (GPa) = 69.04987 9.54483 114.72876
#
# Poissons Ratio (x) = 0.12365 0.51993
# Poissons Ratio (y) = 0.89454 1.27388
# Poissons Ratio (z) = 0.31292 0.10598
#
# Static dielectric constant tensor:
#      x y z
#    x 3.379720 0.000000 0.000000 
#    y 0.000000 2.634850 0.000000 
#    z 0.000000 0.000000 3.886350 
# 
# 
# High freq. dielectric constant tensor:
#      x y z
#    x 1.696010 0.000000 0.000000 
#    y 0.000000 1.600690 0.000000 
#    z 0.000000 0.000000 1.719420 
# 
# From -- ./inp_files/59782.got.cif
#   From: 2010.03.12/outbox.cif.g09.slc.cpg/sg63_30_cif.got.tgz:59782.got - 2010.04.10 19:34:48.
