data_PCOD8255306
_publ_section_title
;
Structure prediction by ZEFSAII (Michael W. Deem and Ramdas Pophale) SiO2 
 PCOD8255306
Probable space group: P N M A
;
_chemical_formula_sum "Si O2"
_cell_formula_units_Z 64
_cell_length_a 12.000000
_cell_length_b 9.000000
_cell_length_c 30.000000
_cell_angle_alpha 90.000000
_cell_angle_beta 90.000000
_cell_angle_gamma 90.000000
_cell_volume 3240.000000
_symmetry_space_group_name_H-M "P N M A"
_symmetry_group_IT_number 62
_symmetry_cell_setting 'orthorhombic'
loop_
_space_group_symop_operation_xyz
x,y,z
1/2-x,-y,1/2+z
1/2+x,1/2-y,1/2-z
-x,1/2+y,-z
-x,-y,-z
1/2+x,y,1/2-z
1/2-x,1/2+y,1/2+z
x,1/2-y,z
loop_
_atom_site_type_symbol
_atom_site_label
_atom_site_fract_x
_atom_site_fract_y
_atom_site_fract_z
Si Si1 0.065863 0.080253 0.418334
Si Si2 0.398160 0.419784 0.308568
Si Si3 0.332430 0.573539 0.566743
Si Si4 0.749280 0.922906 0.031393
Si Si5 0.552329 0.425450 0.598816
Si Si6 0.450905 0.922083 0.216848
Si Si7 0.355507 0.926276 0.122302
Si Si8 0.143953 0.413430 0.322431
O O1 0.033825 0.250000 0.429884
O O2 0.145910 0.068583 0.375580
O O3 0.134407 0.010732 0.459423
O O4 0.953580 0.990039 0.408645
O O5 0.440394 0.250000 0.314003
O O6 0.440494 0.514642 0.350605
O O7 0.436920 0.483981 0.261433
O O8 0.266818 0.427930 0.304560
O O9 0.333200 0.750000 0.573033
O O10 0.292409 0.528000 0.517251
O O11 0.455056 0.508787 0.572608
O O12 0.257698 0.500337 0.605402
O O13 0.720649 0.750000 0.031889
O O14 0.837939 0.961409 0.070020
O O15 0.528712 0.250000 0.600799
O O16 0.437115 0.750000 0.228686
O O17 0.370909 0.967308 0.174989
O O18 0.575729 0.954555 0.200371
O O19 0.351505 0.750000 0.116249
O O20 0.093828 0.250000 0.310355
#
# Coordination Sequence:
#
# PCOD8255306 Si02
#       8
#     8   8   8   8   8   8   8   8
#     4  10  19  35  62  90 117 152 199 250 298 354
#     4  11  22  38  61  89 118 152 196 244 296 357
#     4  11  24  41  61  87 123 164 204 248 302 362
#     4  10  22  39  61  90 121 158 202 249 304 362
#     4  11  23  40  62  88 121 158 200 250 302 358
#     4  10  22  38  59  87 117 153 195 243 298 357
#     4  10  22  41  61  85 121 162 202 249 306 362
#     4   9  19  36  57  83 114 150 191 240 295 350
#
# _framework density 19.753086
#
# number of rings (size 3 to 8) (size 9 to 14) (size 15 to 20)
#    0.000    1.750    1.250    2.625    0.000    6.000 
#    0.000    2.500    0.000    0.000    0.000    0.000 
#    0.000    0.000    0.000    0.000    0.000    0.000 
#
# Total GULP energy -793599.794115 kJ/mol
# GULP energy per Si atom -12399.996783 kJ/mol
# Density = 1.970813 g / cm^3
# Si number density = 19.753086 Si / 1000 Ang^3
#
#
#
# Elastic Constant Matrix: (Units=GPa)
#
#
# Indices 1 2 3 4 5 6 
#
# 1 43.5388 23.0218 13.1827 0.0000 0.0000 0.0000
# 2 23.0218 97.5978 36.5149 0.0000 0.0000 0.0000
# 3 13.1827 36.5149 104.1027 0.0000 0.0000 0.0000
# 4 0.0000 0.0000 0.0000 37.3891 0.0000 0.0000
# 5 0.0000 0.0000 0.0000 0.0000 28.1298 0.0000
# 6 0.0000 0.0000 0.0000 0.0000 0.0000 34.5135
#
#
#
# Elastic Compliance Matrix: (Units=1/GPa)
#
#
# Indices 1 2 3 4 5 6 
#
# 1 0.026401 -0.005729 -0.001334 0.000000 0.000000 0.000000
# 2 -0.005729 0.013037 -0.003847 0.000000 0.000000 0.000000
# 3 -0.001334 -0.003847 0.011124 0.000000 0.000000 0.000000
# 4 0.000000 0.000000 0.000000 0.026746 0.000000 0.000000
# 5 0.000000 0.000000 0.000000 0.000000 0.035549 0.000000
# 6 0.000000 0.000000 0.000000 0.000000 0.000000 0.028974
#
#
# Mechanical properties :
#
#
# Convention : Reuss Voigt Hill
#
# Bulk Modulus (GPa) = 34.79160 43.40867 39.10014
# Shear Modulus (GPa) = 28.86305 31.50781 30.18543
#
# Velocity S-wave (km/s) = 3.82670 3.99818 3.91338
# Velocity P-wave (km/s) = 6.09724 6.58311 6.34483
#
# Compressibility (1/GPa) = 0.02874257
#
# Stress axis : x y z
#
# Youngs Moduli (GPa) = 37.87746 76.70569 89.89327
#
# Poissons Ratio (x) = 0.43941 0.11991
# Poissons Ratio (y) = 0.21698 0.34585
# Poissons Ratio (z) = 0.05052 0.29512
#
# Static dielectric constant tensor:
#      x y z
#    x 3.460090 0.000000 0.000000 
#    y 0.000000 3.786290 0.000000 
#    z 0.000000 0.000000 3.737360 
# 
# 
# High freq. dielectric constant tensor:
#      x y z
#    x 1.764700 0.000000 0.000000 
#    y 0.000000 1.784910 0.000000 
#    z 0.000000 0.000000 1.784130 
# 
# From -- ./inp_files/32435.got.cif
#   From: 2010.03.12/outbox.ucp.g09.slc.cvg/sg62_17_cif.got.tgz:32435.got - 2010.05.04 19:35:18.
