data_PCOD8255942
_publ_section_title
;
Structure prediction by ZEFSAII (Michael W. Deem and Ramdas Pophale) SiO2 
 PCOD8255942
Probable space group: C M C M
;
_chemical_formula_sum "Si O2"
_cell_formula_units_Z 104
_cell_length_a 9.839866
_cell_length_b 28.500065
_cell_length_c 23.081923
_cell_angle_alpha 90.000000
_cell_angle_beta 90.000000
_cell_angle_gamma 90.000000
_cell_volume 6473.021099
_symmetry_space_group_name_H-M "C M C M"
_symmetry_group_IT_number 63
_symmetry_cell_setting 'orthorhombic'
loop_
_space_group_symop_operation_xyz
x,y,z
-x,-y,1/2+z
x,-y,-z
-x,y,1/2-z
-x,-y,-z
x,y,1/2-z
-x,y,z
x,-y,1/2+z
1/2+x,1/2+y,z
1/2-x,1/2-y,1/2+z
1/2+x,1/2-y,-z
1/2-x,1/2+y,1/2-z
1/2-x,1/2-y,-z
1/2+x,1/2+y,1/2-z
1/2-x,1/2+y,z
1/2+x,1/2-y,1/2+z
loop_
_atom_site_type_symbol
_atom_site_label
_atom_site_fract_x
_atom_site_fract_y
_atom_site_fract_z
Si Si1 0.652174 0.559437 0.394501
Si Si2 0.150069 0.845865 0.066707
Si Si3 0.839593 0.743712 0.057295
Si Si4 0.345801 0.663152 0.430209
Si Si5 0.343956 0.002508 0.316141
Si Si6 0.256062 0.500000 0.000000
Si Si7 0.848695 0.572454 0.909476
O O1 0.500000 0.554588 0.370483
O O2 0.691528 0.613463 0.402747
O O3 0.754190 0.542412 0.345457
O O4 0.655975 0.530169 0.454639
O O5 0.170683 0.793069 0.092319
O O6 0.253581 0.882598 0.092870
O O7 0.000000 0.864429 0.082343
O O8 0.168264 0.843051 0.998381
O O9 0.765543 0.701396 0.092430
O O10 0.000000 0.732445 0.044258
O O11 0.750000 0.750000 0.000000
O O12 0.500000 0.678903 0.414158
O O13 0.298985 0.995366 0.250000
O O14 0.500000 0.018619 0.321239
O O15 0.320175 0.953834 0.349306
O O16 0.167334 0.462827 0.036248
O O17 0.000000 0.592434 0.912408
#
# Coordination Sequence:
#
# PCOD8255942 Si02
#       7
#    16  16  16  16  16   8  16
#     4  10  19  30  48  70  93 122 155 189 228 274
#     4   9  17  29  42  62  94 124 151 183 226 272
#     4   9  17  28  41  60  88 125 157 185 220 267
#     4   9  17  29  42  64  94 123 152 184 223 270
#     4   9  20  37  50  64  91 123 156 195 234 271
#     4  10  18  30  42  66  98 124 148 182 234 272
#     4  10  19  29  46  68  90 120 157 191 226 272
#
# _framework density 16.066686000000001
#
# number of rings (size 3 to 8) (size 9 to 14) (size 15 to 20)
#    0.000    2.615    1.538    1.846    0.000    7.077 
#    0.000    0.000    0.000    0.000    0.000    1.077 
#    0.000    3.692    0.000    0.000    0.000    0.000 
#
# Total GULP energy -644346.600863 kJ/mol
# GULP energy per Si atom -12391.280786 kJ/mol
# Density = 1.603012 g / cm^3
# Si number density = 16.066686 Si / 1000 Ang^3
#
#
#
# Elastic Constant Matrix: (Units=GPa)
#
#
# Indices 1 2 3 4 5 6 
#
# 1 124.4460 90.0742 35.7109 0.0000 0.0000 0.0000
# 2 90.0742 124.5764 41.7381 0.0000 0.0000 0.0000
# 3 35.7109 41.7381 65.4065 0.0000 0.0000 0.0000
# 4 0.0000 0.0000 0.0000 10.1795 0.0000 0.0000
# 5 0.0000 0.0000 0.0000 0.0000 15.6285 0.0000
# 6 0.0000 0.0000 0.0000 0.0000 0.0000 36.5119
#
#
#
# Elastic Compliance Matrix: (Units=1/GPa)
#
#
# Indices 1 2 3 4 5 6 
#
# 1 0.017029 -0.011699 -0.001832 0.000000 0.000000 0.000000
# 2 -0.011699 0.018247 -0.005257 0.000000 0.000000 0.000000
# 3 -0.001832 -0.005257 0.019644 0.000000 0.000000 0.000000
# 4 0.000000 0.000000 0.000000 0.098237 0.000000 0.000000
# 5 0.000000 0.000000 0.000000 0.000000 0.063986 0.000000
# 6 0.000000 0.000000 0.000000 0.000000 0.000000 0.027388
#
#
# Mechanical properties :
#
#
# Convention : Reuss Voigt Hill
#
# Bulk Modulus (GPa) = 57.65507 72.16393 64.90950
# Shear Modulus (GPa) = 17.36783 22.25768 19.81276
#
# Velocity S-wave (km/s) = 3.29140 3.72604 3.51544
# Velocity P-wave (km/s) = 7.09980 7.97019 7.54755
#
# Compressibility (1/GPa) = 0.01734453
#
# Stress axis : x y z
#
# Youngs Moduli (GPa) = 58.72314 54.80275 50.90656
#
# Poissons Ratio (x) = 0.64113 0.09327
# Poissons Ratio (y) = 0.68700 0.26760
# Poissons Ratio (z) = 0.10759 0.28809
#
# Static dielectric constant tensor:
#      x y z
#    x 3.227960 0.000000 0.000000 
#    y 0.000000 4.690000 0.000000 
#    z 0.000000 0.000000 2.736330 
# 
# 
# High freq. dielectric constant tensor:
#      x y z
#    x 1.630500 0.000000 0.000000 
#    y 0.000000 1.627360 0.000000 
#    z 0.000000 0.000000 1.559500 
# 
# From -- ./inp_files/60555.got.cif
#   From: 2010.03.12/outbox.cif.g09.slc.cpg/sg63_31_cif.got.tgz:60555.got - 2010.04.10 19:34:48.
