data_PCOD8255684
_publ_section_title
;
Structure prediction by ZEFSAII (Michael W. Deem and Ramdas Pophale) SiO2 
 PCOD8255684
Probable space group: C M C M
;
_chemical_formula_sum "Si O2"
_cell_formula_units_Z 96
_cell_length_a 9.437608
_cell_length_b 23.824596
_cell_length_c 26.062198
_cell_angle_alpha 90.000000
_cell_angle_beta 90.000000
_cell_angle_gamma 90.000000
_cell_volume 5860.012189
_symmetry_space_group_name_H-M "C M C M"
_symmetry_group_IT_number 63
_symmetry_cell_setting 'orthorhombic'
loop_
_space_group_symop_operation_xyz
x,y,z
-x,-y,1/2+z
x,-y,-z
-x,y,1/2-z
-x,-y,-z
x,y,1/2-z
-x,y,z
x,-y,1/2+z
1/2+x,1/2+y,z
1/2-x,1/2-y,1/2+z
1/2+x,1/2-y,-z
1/2-x,1/2+y,1/2-z
1/2-x,1/2-y,-z
1/2+x,1/2+y,1/2-z
1/2-x,1/2+y,z
1/2+x,1/2-y,1/2+z
loop_
_atom_site_type_symbol
_atom_site_label
_atom_site_fract_x
_atom_site_fract_y
_atom_site_fract_z
Si Si1 0.336927 0.086887 0.394628
Si Si2 0.658396 0.633562 0.930267
Si Si3 0.333998 0.166009 0.306303
Si Si4 0.161864 0.828581 0.543463
Si Si5 0.166074 0.247801 0.890460
Si Si6 0.162871 0.525008 0.553675
O O1 0.500000 0.103793 0.406314
O O2 0.293586 0.109411 0.338026
O O3 0.236937 0.115165 0.436531
O O4 0.317269 0.020031 0.400352
O O5 0.500000 0.610000 0.922264
O O6 0.696034 0.680712 0.887020
O O7 0.761268 0.581004 0.927573
O O8 0.669038 0.668832 0.982434
O O9 0.259846 0.164748 0.250000
O O10 0.500000 0.168502 0.297983
O O11 0.285208 0.221386 0.337847
O O12 0.244806 0.773945 0.562825
O O13 0.000000 0.826577 0.563081
O O14 0.000000 0.259056 0.901165
O O15 0.224257 0.500000 0.500000
O O16 0.000000 0.540932 0.544817
#
# Coordination Sequence:
#
# PCOD8255684 Si02
#       6
#    16  16  16  16  16  16
#     4   9  17  30  46  66  91 117 149 187 223 261
#     4  10  20  30  42  63  92 125 153 181 217 260
#     4   8  14  27  50  72  85 105 144 192 232 264
#     4  10  18  27  42  65  91 119 151 181 217 261
#     4   9  18  31  45  64  91 118 148 184 225 267
#     4  10  19  30  45  64  89 124 157 182 216 261
#
# _framework density 16.382218999999999
#
# number of rings (size 3 to 8) (size 9 to 14) (size 15 to 20)
#    0.000    2.667    1.667    2.000    0.000    2.333 
#    0.000    0.000    0.000    9.000    0.000    0.000 
#    0.000    0.000    0.000    0.000    0.000    0.000 
#
# Total GULP energy -594846.448883 kJ/mol
# GULP energy per Si atom -12392.634352 kJ/mol
# Density = 1.634493 g / cm^3
# Si number density = 16.382219 Si / 1000 Ang^3
#
#
#
# Elastic Constant Matrix: (Units=GPa)
#
#
# Indices 1 2 3 4 5 6 
#
# 1 59.1269 44.7449 18.4927 0.0000 0.0000 0.0000
# 2 44.7449 131.4961 50.4593 0.0000 0.0000 0.0000
# 3 18.4927 50.4593 83.5996 0.0000 0.0000 0.0000
# 4 0.0000 0.0000 0.0000 15.4272 0.0000 0.0000
# 5 0.0000 0.0000 0.0000 0.0000 9.2199 0.0000
# 6 0.0000 0.0000 0.0000 0.0000 0.0000 28.7428
#
#
#
# Elastic Compliance Matrix: (Units=1/GPa)
#
#
# Indices 1 2 3 4 5 6 
#
# 1 0.022793 -0.007576 -0.000469 0.000000 0.000000 0.000000
# 2 -0.007576 0.012415 -0.005818 0.000000 0.000000 0.000000
# 3 -0.000469 -0.005818 0.015577 0.000000 0.000000 0.000000
# 4 0.000000 0.000000 0.000000 0.064821 0.000000 0.000000
# 5 0.000000 0.000000 0.000000 0.000000 0.108461 0.000000
# 6 0.000000 0.000000 0.000000 0.000000 0.000000 0.034791
#
#
# Mechanical properties :
#
#
# Convention : Reuss Voigt Hill
#
# Bulk Modulus (GPa) = 43.36652 55.73515 49.55083
# Shear Modulus (GPa) = 16.99124 21.37969 19.18546
#
# Velocity S-wave (km/s) = 3.22401 3.61647 3.42587
# Velocity P-wave (km/s) = 6.35517 7.17873 6.77947
#
# Compressibility (1/GPa) = 0.02305927
#
# Stress axis : x y z
#
# Youngs Moduli (GPa) = 43.87405 80.54739 64.19688
#
# Poissons Ratio (x) = 0.61020 0.03013
# Poissons Ratio (y) = 0.33237 0.37348
# Poissons Ratio (z) = 0.02059 0.46860
#
# Static dielectric constant tensor:
#      x y z
#    x 2.985020 0.000000 0.000000 
#    y 0.000000 3.105550 0.000000 
#    z 0.000000 0.000000 3.114180 
# 
# 
# High freq. dielectric constant tensor:
#      x y z
#    x 1.615680 0.000000 0.000000 
#    y 0.000000 1.630920 0.000000 
#    z 0.000000 0.000000 1.598300 
# 
# From -- ./inp_files/67178.got.cif
#   From: 2010.03.12/outbox.cif.g09.slc.cpg/sg63_34_cif.got.tgz:67178.got - 2010.04.10 19:34:48.
