data_PCOD8255100
_publ_section_title
;
Structure prediction by ZEFSAII (Michael W. Deem and Ramdas Pophale) SiO2 
 PCOD8255100
Probable space group: P N M A
;
_chemical_formula_sum "Si O2"
_cell_formula_units_Z 48
_cell_length_a 9.192295
_cell_length_b 18.764263
_cell_length_c 14.156779
_cell_angle_alpha 90.000000
_cell_angle_beta 90.000000
_cell_angle_gamma 90.000000
_cell_volume 2441.855256
_symmetry_space_group_name_H-M "P N M A"
_symmetry_group_IT_number 62
_symmetry_cell_setting 'orthorhombic'
loop_
_space_group_symop_operation_xyz
x,y,z
1/2-x,-y,1/2+z
1/2+x,1/2-y,1/2-z
-x,1/2+y,-z
-x,-y,-z
1/2+x,y,1/2-z
1/2-x,1/2+y,1/2+z
x,1/2-y,z
loop_
_atom_site_type_symbol
_atom_site_label
_atom_site_fract_x
_atom_site_fract_y
_atom_site_fract_z
Si Si1 0.785561 0.581175 0.980297
Si Si2 0.568945 0.831256 0.507198
Si Si3 0.350674 0.056146 0.639838
Si Si4 0.673516 0.031386 0.683940
Si Si5 0.086282 0.669709 0.642616
Si Si6 0.760866 0.631160 0.678231
O O1 0.800974 0.503099 0.935392
O O2 0.641368 0.619480 0.942207
O O3 0.926707 0.628084 0.954216
O O4 0.769559 0.574284 0.092831
O O5 0.529147 0.750000 0.481615
O O6 0.630506 0.869126 0.413610
O O7 0.691535 0.831828 0.587229
O O8 0.499682 0.030928 0.688394
O O9 0.231827 0.068674 0.721124
O O10 0.731459 0.951984 0.680441
O O11 0.074003 0.750000 0.604269
O O12 0.200093 0.667851 0.728106
O O13 0.932736 0.641780 0.678735
#
# Coordination Sequence:
#
# PCOD8255100 Si02
#       6
#     8   8   8   8   8   8
#     4  11  22  41  64  87 120 159 203 249 297 358
#     4  11  22  41  64  88 121 162 201 247 305 359
#     4  11  22  41  62  91 120 158 205 250 295 361
#     4  11  22  40  63  91 118 155 206 248 295 354
#     4  12  25  37  56  91 125 158 196 244 306 364
#     4  12  22  39  61  88 125 157 195 250 301 362
#
# _framework density 19.657187
#
# number of rings (size 3 to 8) (size 9 to 14) (size 15 to 20)
#    0.000    0.667    5.000    5.000    0.000    2.000 
#    0.000    4.167    0.000    0.000    0.000    0.000 
#    0.000    0.000    0.000    0.000    0.000    0.000 
#
# Total GULP energy -595526.275693 kJ/mol
# GULP energy per Si atom -12406.797410 kJ/mol
# Density = 1.961245 g / cm^3
# Si number density = 19.657187 Si / 1000 Ang^3
#
#
#
# Elastic Constant Matrix: (Units=GPa)
#
#
# Indices 1 2 3 4 5 6 
#
# 1 39.0649 3.6294 6.0171 0.0000 0.0000 0.0000
# 2 3.6294 70.8169 22.6188 0.0000 0.0000 0.0000
# 3 6.0171 22.6188 83.4032 0.0000 0.0000 0.0000
# 4 0.0000 0.0000 0.0000 37.2768 0.0000 0.0000
# 5 0.0000 0.0000 0.0000 0.0000 39.1406 0.0000
# 6 0.0000 0.0000 0.0000 0.0000 0.0000 16.9272
#
#
#
# Elastic Compliance Matrix: (Units=1/GPa)
#
#
# Indices 1 2 3 4 5 6 
#
# 1 0.025927 -0.000801 -0.001653 0.000000 0.000000 0.000000
# 2 -0.000801 0.015485 -0.004142 0.000000 0.000000 0.000000
# 3 -0.001653 -0.004142 0.013232 0.000000 0.000000 0.000000
# 4 0.000000 0.000000 0.000000 0.026826 0.000000 0.000000
# 5 0.000000 0.000000 0.000000 0.000000 0.025549 0.000000
# 6 0.000000 0.000000 0.000000 0.000000 0.000000 0.059076
#
#
# Mechanical properties :
#
#
# Convention : Reuss Voigt Hill
#
# Bulk Modulus (GPa) = 24.12359 28.64618 26.38489
# Shear Modulus (GPa) = 25.89256 29.40359 27.64807
#
# Velocity S-wave (km/s) = 3.63327 3.87178 3.75442
# Velocity P-wave (km/s) = 5.46806 5.88150 5.67854
#
# Compressibility (1/GPa) = 0.04145320
#
# Stress axis : x y z
#
# Youngs Moduli (GPa) = 38.56912 64.57938 75.57183
#
# Poissons Ratio (x) = 0.05171 0.12495
# Poissons Ratio (y) = 0.03088 0.31300
# Poissons Ratio (z) = 0.06377 0.26747
#
# Static dielectric constant tensor:
#      x y z
#    x 3.684540 0.000000 0.000000 
#    y 0.000000 3.587880 0.000000 
#    z 0.000000 0.000000 3.676120 
# 
# 
# High freq. dielectric constant tensor:
#      x y z
#    x 1.770080 0.000000 0.000000 
#    y 0.000000 1.765340 0.000000 
#    z 0.000000 0.000000 1.765560 
# 
# From -- ./inp_files/16930.got.cif
#   From: 2010.03.12/outbox.cif.g09.slc.cpg/sg62_9_cif.got.tgz:16930.got - 2010.04.10 19:12:36.
