data_PCOD8255918
_publ_section_title
;
Structure prediction by ZEFSAII (Michael W. Deem and Ramdas Pophale) SiO2 
 PCOD8255918
Probable space group: C M C M
;
_chemical_formula_sum "Si O2"
_cell_formula_units_Z 96
_cell_length_a 13.549052
_cell_length_b 12.742436
_cell_length_c 32.258402
_cell_angle_alpha 90.000000
_cell_angle_beta 90.000000
_cell_angle_gamma 90.000000
_cell_volume 5569.346265
_symmetry_space_group_name_H-M "C M C M"
_symmetry_group_IT_number 63
_symmetry_cell_setting 'orthorhombic'
loop_
_space_group_symop_operation_xyz
x,y,z
-x,-y,1/2+z
x,-y,-z
-x,y,1/2-z
-x,-y,-z
x,y,1/2-z
-x,y,z
x,-y,1/2+z
1/2+x,1/2+y,z
1/2-x,1/2-y,1/2+z
1/2+x,1/2-y,-z
1/2-x,1/2+y,1/2-z
1/2-x,1/2-y,-z
1/2+x,1/2+y,1/2-z
1/2-x,1/2+y,z
1/2+x,1/2-y,1/2+z
loop_
_atom_site_type_symbol
_atom_site_label
_atom_site_fract_x
_atom_site_fract_y
_atom_site_fract_z
Si Si1 0.885283 0.890240 0.702107
Si Si2 0.288972 0.457360 0.139171
Si Si3 0.614084 0.198722 0.645660
Si Si4 0.789129 0.847353 0.916939
Si Si5 0.887222 0.210569 0.911564
Si Si6 0.390687 0.623120 0.999892
O O1 0.856199 0.890716 0.750000
O O2 0.860465 0.774399 0.684605
O O3 0.000000 0.915829 0.694564
O O4 0.821603 0.981483 0.680405
O O5 0.180963 0.406311 0.146684
O O6 0.295380 0.535162 0.100061
O O7 0.365402 0.365430 0.127328
O O8 0.500000 0.162884 0.646230
O O9 0.634442 0.267649 0.604771
O O10 0.677050 0.814963 0.907317
O O11 0.812900 0.840443 0.965591
O O12 0.000000 0.244655 0.910525
O O13 0.854502 0.158036 0.954746
O O14 0.500000 0.669551 0.009460
O O15 0.397702 0.500000 0.000000
#
# Coordination Sequence:
#
# PCOD8255918 Si02
#       6
#    16  16  16  16  16  16
#     4   9  18  33  53  75  97 122 154 193 235 281
#     4  10  19  32  51  74  97 126 158 196 239 284
#     4   9  19  33  50  72  98 127 160 196 237 284
#     4  10  19  32  49  69  97 128 163 202 241 283
#     4  10  20  32  48  71  97 128 163 200 242 285
#     4  10  18  29  49  71  92 125 167 205 241 281
#
# _framework density 17.237210000000001
#
# number of rings (size 3 to 8) (size 9 to 14) (size 15 to 20)
#    0.000    2.333    1.667    1.500    0.000    2.667 
#    0.000    0.000    0.000    0.500    0.000    0.000 
#    0.000    0.000    0.000    0.000    0.000    0.000 
#
# Total GULP energy -595064.082871 kJ/mol
# GULP energy per Si atom -12397.168393 kJ/mol
# Density = 1.719798 g / cm^3
# Si number density = 17.237210 Si / 1000 Ang^3
#
#
#
# Elastic Constant Matrix: (Units=GPa)
#
#
# Indices 1 2 3 4 5 6 
#
# 1 78.1858 16.7763 16.4152 0.0000 0.0000 0.0000
# 2 16.7763 34.6034 -1.7646 0.0000 0.0000 0.0000
# 3 16.4152 -1.7646 73.0553 0.0000 0.0000 0.0000
# 4 0.0000 0.0000 0.0000 13.0807 0.0000 0.0000
# 5 0.0000 0.0000 0.0000 0.0000 31.0680 0.0000
# 6 0.0000 0.0000 0.0000 0.0000 0.0000 25.8882
#
#
#
# Elastic Compliance Matrix: (Units=1/GPa)
#
#
# Indices 1 2 3 4 5 6 
#
# 1 0.015160 -0.007533 -0.003588 0.000000 0.000000 0.000000
# 2 -0.007533 0.032677 0.002482 0.000000 0.000000 0.000000
# 3 -0.003588 0.002482 0.014554 0.000000 0.000000 0.000000
# 4 0.000000 0.000000 0.000000 0.076448 0.000000 0.000000
# 5 0.000000 0.000000 0.000000 0.000000 0.032187 0.000000
# 6 0.000000 0.000000 0.000000 0.000000 0.000000 0.038628
#
#
# Mechanical properties :
#
#
# Convention : Reuss Voigt Hill
#
# Bulk Modulus (GPa) = 22.16632 27.63314 24.89973
# Shear Modulus (GPa) = 20.66363 24.30189 22.48276
#
# Velocity S-wave (km/s) = 3.46610 3.75887 3.61545
# Velocity P-wave (km/s) = 5.37642 5.90802 5.64848
#
# Compressibility (1/GPa) = 0.04511348
#
# Stress axis : x y z
#
# Youngs Moduli (GPa) = 65.96437 30.60212 68.70737
#
# Poissons Ratio (x) = 0.23052 0.24654
# Poissons Ratio (y) = 0.49689 -0.17052
# Poissons Ratio (z) = 0.23670 -0.07595
#
# Static dielectric constant tensor:
#      x y z
#    x 3.175170 0.000000 0.000000 
#    y 0.000000 3.092560 0.000000 
#    z 0.000000 0.000000 3.287270 
# 
# 
# High freq. dielectric constant tensor:
#      x y z
#    x 1.661060 0.000000 0.000000 
#    y 0.000000 1.655950 0.000000 
#    z 0.000000 0.000000 1.661960 
# 
# From -- ./inp_files/73485.got.cif
#   From: 2010.03.12/outbox.cif.g09.slc.cpg/sg63_37_cif.got.tgz:73485.got - 2010.04.10 19:34:48.
