data_PCOD8255305
_publ_section_title
;
Structure prediction by ZEFSAII (Michael W. Deem and Ramdas Pophale) SiO2 
 PCOD8255305
Probable space group: P N M A
;
_chemical_formula_sum "Si O2"
_cell_formula_units_Z 64
_cell_length_a 15.000000
_cell_length_b 9.000000
_cell_length_c 24.000000
_cell_angle_alpha 90.000000
_cell_angle_beta 90.000000
_cell_angle_gamma 90.000000
_cell_volume 3240.000000
_symmetry_space_group_name_H-M "P N M A"
_symmetry_group_IT_number 62
_symmetry_cell_setting 'orthorhombic'
loop_
_space_group_symop_operation_xyz
x,y,z
1/2-x,-y,1/2+z
1/2+x,1/2-y,1/2-z
-x,1/2+y,-z
-x,-y,-z
1/2+x,y,1/2-z
1/2-x,1/2+y,1/2+z
x,1/2-y,z
loop_
_atom_site_type_symbol
_atom_site_label
_atom_site_fract_x
_atom_site_fract_y
_atom_site_fract_z
Si Si1 0.316233 0.423021 0.441649
Si Si2 0.158963 0.422785 0.360292
Si Si3 0.725147 0.923932 0.843863
Si Si4 0.485464 0.927133 0.391284
Si Si5 0.450192 0.078071 0.284954
Si Si6 0.853158 0.923509 0.946656
Si Si7 0.030239 0.580920 0.659135
Si Si8 0.736369 0.425704 0.732752
O O1 0.343227 0.250000 0.446032
O O2 0.219292 0.443478 0.414474
O O3 0.387587 0.512073 0.405093
O O4 0.307306 0.498671 0.501305
O O5 0.159542 0.250000 0.340402
O O6 0.188164 0.530910 0.310876
O O7 0.056931 0.475136 0.374630
O O8 0.720284 0.750000 0.826640
O O9 0.786001 0.950009 0.896582
O O10 0.625698 0.992898 0.855965
O O11 0.767379 0.017385 0.793401
O O12 0.487908 0.750000 0.393737
O O13 0.509982 0.987208 0.329544
O O14 0.553588 0.994820 0.435830
O O15 0.445707 0.250000 0.303459
O O16 0.493369 0.059087 0.224437
O O17 0.351618 0.012173 0.285726
O O18 0.871103 0.750000 0.958271
O O19 0.045746 0.750000 0.643606
O O20 0.719673 0.250000 0.732980
#
# Coordination Sequence:
#
# PCOD8255305 Si02
#       8
#     8   8   8   8   8   8   8   8
#     4  11  23  40  61  85 118 156 198 245 294 355
#     4  10  20  36  60  86 115 155 197 239 290 350
#     4   9  20  40  62  83 113 155 200 244 294 353
#     4  12  24  38  58  86 121 155 193 244 297 355
#     4  10  19  35  57  84 118 156 195 233 283 350
#     4  11  24  41  62  84 113 156 203 249 299 356
#     4   8  17  35  60  86 113 150 197 241 280 343
#     4  11  21  33  54  85 120 154 189 240 295 344
#
# _framework density 19.753086
#
# number of rings (size 3 to 8) (size 9 to 14) (size 15 to 20)
#    0.000    1.750    1.250    4.500    1.750    1.500 
#    0.000    3.125    0.000    0.000    0.000    0.000 
#    0.000    0.000    0.000    0.000    0.000    0.000 
#
# Total GULP energy -793430.652511 kJ/mol
# GULP energy per Si atom -12397.353945 kJ/mol
# Density = 1.970813 g / cm^3
# Si number density = 19.753086 Si / 1000 Ang^3
#
#
#
# Elastic Constant Matrix: (Units=GPa)
#
#
# Indices 1 2 3 4 5 6 
#
# 1 41.0928 16.0522 15.8462 0.0000 0.0000 0.0000
# 2 16.0522 111.3396 36.7959 0.0000 0.0000 0.0000
# 3 15.8462 36.7959 54.4625 0.0000 0.0000 0.0000
# 4 0.0000 0.0000 0.0000 32.0178 0.0000 0.0000
# 5 0.0000 0.0000 0.0000 0.0000 22.4465 0.0000
# 6 0.0000 0.0000 0.0000 0.0000 0.0000 15.2797
#
#
#
# Elastic Compliance Matrix: (Units=1/GPa)
#
#
# Indices 1 2 3 4 5 6 
#
# 1 0.027661 -0.001710 -0.006893 0.000000 0.000000 0.000000
# 2 -0.001710 0.011669 -0.007386 0.000000 0.000000 0.000000
# 3 -0.006893 -0.007386 0.025357 0.000000 0.000000 0.000000
# 4 0.000000 0.000000 0.000000 0.031233 0.000000 0.000000
# 5 0.000000 0.000000 0.000000 0.000000 0.044550 0.000000
# 6 0.000000 0.000000 0.000000 0.000000 0.000000 0.065446
#
#
# Mechanical properties :
#
#
# Convention : Reuss Voigt Hill
#
# Bulk Modulus (GPa) = 30.57263 38.25371 34.41317
# Shear Modulus (GPa) = 20.09660 23.16217 21.62938
#
# Velocity S-wave (km/s) = 3.19312 3.42802 3.31265
# Velocity P-wave (km/s) = 5.39496 5.92253 5.66489
#
# Compressibility (1/GPa) = 0.03270900
#
# Stress axis : x y z
#
# Youngs Moduli (GPa) = 36.15172 85.69607 39.43663
#
# Poissons Ratio (x) = 0.14654 0.27183
# Poissons Ratio (y) = 0.06182 0.29129
# Poissons Ratio (z) = 0.24919 0.63298
#
# Static dielectric constant tensor:
#      x y z
#    x 3.721160 0.000000 0.000000 
#    y 0.000000 3.597980 0.000000 
#    z 0.000000 0.000000 3.625550 
# 
# 
# High freq. dielectric constant tensor:
#      x y z
#    x 1.772330 0.000000 0.000000 
#    y 0.000000 1.763910 0.000000 
#    z 0.000000 0.000000 1.756980 
# 
# From -- ./inp_files/29734.got.cif
#   From: 2010.03.12/outbox.ucp.g09.slc.cvg/sg62_15_cif.got.tgz:29734.got - 2010.05.04 19:35:18.
