data_PCOD8255159
_publ_section_title
;
Structure prediction by ZEFSAII (Michael W. Deem and Ramdas Pophale) SiO2 
 PCOD8255159
Probable space group: P N M A
;
_chemical_formula_sum "Si O2"
_cell_formula_units_Z 40
_cell_length_a 22.550268
_cell_length_b 8.408938
_cell_length_c 9.976476
_cell_angle_alpha 90.000000
_cell_angle_beta 90.000000
_cell_angle_gamma 90.000000
_cell_volume 1891.777345
_symmetry_space_group_name_H-M "P N M A"
_symmetry_group_IT_number 62
_symmetry_cell_setting 'orthorhombic'
loop_
_space_group_symop_operation_xyz
x,y,z
1/2-x,-y,1/2+z
1/2+x,1/2-y,1/2-z
-x,1/2+y,-z
-x,-y,-z
1/2+x,y,1/2-z
1/2-x,1/2+y,1/2+z
x,1/2-y,z
loop_
_atom_site_type_symbol
_atom_site_label
_atom_site_fract_x
_atom_site_fract_y
_atom_site_fract_z
Si Si1 0.316251 0.934187 0.019517
Si Si2 0.501641 0.436879 0.649753
Si Si3 0.188403 0.433912 0.018740
Si Si4 0.874994 0.437146 0.732446
Si Si5 0.122712 0.933275 0.772043
O O1 0.301432 0.750000 0.999486
O O2 0.257229 0.034546 0.992298
O O3 0.340435 0.960824 0.168533
O O4 0.365911 0.992535 0.915353
O O5 0.500000 0.500000 0.500000
O O6 0.512957 0.250000 0.647424
O O7 0.441029 0.482836 0.723271
O O8 0.553740 0.520798 0.732903
O O9 0.174305 0.250000 0.993830
O O10 0.172981 0.482354 0.170105
O O11 0.147543 0.537576 0.920696
O O12 0.864456 0.250000 0.733287
O O13 0.130228 0.750000 0.732727
#
# Coordination Sequence:
#
# PCOD8255159 Si02
#       5
#     8   8   8   8   8
#     4  12  26  44  65  94 132 171 215 266 325 384
#     4  11  23  41  68  97 129 167 214 266 321 383
#     4  12  24  42  68  96 130 171 217 264 319 384
#     4  11  24  43  67  97 131 169 214 264 320 382
#     4  12  25  43  67  96 131 171 217 267 320 381
#
# _framework density 21.144138000000002
#
# number of rings (size 3 to 8) (size 9 to 14) (size 15 to 20)
#    0.000    0.400    2.000    7.800    0.000    3.200 
#    0.000    0.000    0.000    0.000    0.000    0.000 
#    0.000    0.000    0.000    0.000    0.000    0.000 
#
# Total GULP energy -496441.938147 kJ/mol
# GULP energy per Si atom -12411.048454 kJ/mol
# Density = 2.109601 g / cm^3
# Si number density = 21.144138 Si / 1000 Ang^3
#
#
#
# Elastic Constant Matrix: (Units=GPa)
#
#
# Indices 1 2 3 4 5 6 
#
# 1 99.7268 29.9184 25.3115 0.0000 0.0000 0.0000
# 2 29.9184 97.4090 22.6532 0.0000 0.0000 0.0000
# 3 25.3115 22.6532 71.5642 0.0000 0.0000 0.0000
# 4 0.0000 0.0000 0.0000 39.7724 0.0000 0.0000
# 5 0.0000 0.0000 0.0000 0.0000 33.3658 0.0000
# 6 0.0000 0.0000 0.0000 0.0000 0.0000 35.5446
#
#
#
# Elastic Compliance Matrix: (Units=1/GPa)
#
#
# Indices 1 2 3 4 5 6 
#
# 1 0.011702 -0.002841 -0.003240 0.000000 0.000000 0.000000
# 2 -0.002841 0.011771 -0.002721 0.000000 0.000000 0.000000
# 3 -0.003240 -0.002721 0.015981 0.000000 0.000000 0.000000
# 4 0.000000 0.000000 0.000000 0.025143 0.000000 0.000000
# 5 0.000000 0.000000 0.000000 0.000000 0.029971 0.000000
# 6 0.000000 0.000000 0.000000 0.000000 0.000000 0.028134
#
#
# Mechanical properties :
#
#
# Convention : Reuss Voigt Hill
#
# Bulk Modulus (GPa) = 45.76565 47.16292 46.46429
# Shear Modulus (GPa) = 33.87797 34.45769 34.16783
#
# Velocity S-wave (km/s) = 4.00714 4.04128 4.02425
# Velocity P-wave (km/s) = 6.56515 6.64303 6.60420
#
# Compressibility (1/GPa) = 0.02185045
#
# Stress axis : x y z
#
# Youngs Moduli (GPa) = 85.45641 84.95171 62.57531
#
# Poissons Ratio (x) = 0.24133 0.20272
# Poissons Ratio (y) = 0.24276 0.17029
# Poissons Ratio (z) = 0.27685 0.23119
#
# Static dielectric constant tensor:
#      x y z
#    x 4.038210 0.000000 0.000000 
#    y 0.000000 3.863230 0.000000 
#    z 0.000000 0.000000 3.774650 
# 
# 
# High freq. dielectric constant tensor:
#      x y z
#    x 1.840980 0.000000 0.000000 
#    y 0.000000 1.844100 0.000000 
#    z 0.000000 0.000000 1.830720 
# 
# From -- ./inp_files/9105.got.cif
#   From: 2010.03.12/outbox.cif.g09.slc.cpg/sg62_5_cif.got.tgz:9105.got - 2010.04.10 19:12:36.
