data_PCOD8255210
_publ_section_title
;
Structure prediction by ZEFSAII (Michael W. Deem and Ramdas Pophale) SiO2 
 PCOD8255210
Probable space group: P N M A
;
_chemical_formula_sum "Si O2"
_cell_formula_units_Z 40
_cell_length_a 22.654500
_cell_length_b 14.020927
_cell_length_c 5.044056
_cell_angle_alpha 90.000000
_cell_angle_beta 90.000000
_cell_angle_gamma 90.000000
_cell_volume 1602.179273
_symmetry_space_group_name_H-M "P N M A"
_symmetry_group_IT_number 62
_symmetry_cell_setting 'orthorhombic'
loop_
_space_group_symop_operation_xyz
x,y,z
1/2-x,-y,1/2+z
1/2+x,1/2-y,1/2-z
-x,1/2+y,-z
-x,-y,-z
1/2+x,y,1/2-z
1/2-x,1/2+y,1/2+z
x,1/2-y,z
loop_
_atom_site_type_symbol
_atom_site_label
_atom_site_fract_x
_atom_site_fract_y
_atom_site_fract_z
Si Si1 0.064250 0.571792 0.548189
Si Si2 0.106840 0.073408 0.186908
Si Si3 0.496102 0.356118 0.545847
Si Si4 0.322247 0.456815 0.308005
Si Si5 0.789796 0.856853 0.497270
O O1 0.034372 0.570550 0.839428
O O2 0.134245 0.593157 0.592811
O O3 0.062786 0.464488 0.423262
O O4 0.031517 0.640650 0.340212
O O5 0.140706 0.979687 0.074016
O O6 0.154683 0.146529 0.302608
O O7 0.066889 0.124207 0.960594
O O8 0.484450 0.250000 0.436902
O O9 0.269818 0.382555 0.345290
O O10 0.298414 0.561627 0.222799
O O11 0.783481 0.750000 0.375189
#
# Coordination Sequence:
#
# PCOD8255210 Si02
#       5
#     8   8   8   8   8
#     4  11  25  46  72 101 143 194 235 297 378 436
#     4  11  24  46  74 100 144 191 246 305 371 437
#     4  12  26  43  69 108 145 189 248 302 365 446
#     4  11  24  47  73 105 150 193 248 311 374 442
#     4  11  25  45  72 106 144 197 253 308 376 446
#
# _framework density 24.965994999999999
#
# number of rings (size 3 to 8) (size 9 to 14) (size 15 to 20)
#    0.000    0.800    4.000    2.400    5.600    3.200 
#    0.000    0.000    0.000    0.000    0.000    0.000 
#    0.000    0.000    0.000    0.000    0.000    0.000 
#
# Total GULP energy -495696.949173 kJ/mol
# GULP energy per Si atom -12392.423729 kJ/mol
# Density = 2.490917 g / cm^3
# Si number density = 24.965995 Si / 1000 Ang^3
#
#
#
# Elastic Constant Matrix: (Units=GPa)
#
#
# Indices 1 2 3 4 5 6 
#
# 1 83.5575 46.6982 23.5076 0.0000 0.0000 0.0000
# 2 46.6982 88.1718 12.4491 0.0000 0.0000 0.0000
# 3 23.5076 12.4491 99.1809 0.0000 0.0000 0.0000
# 4 0.0000 0.0000 0.0000 7.8245 0.0000 0.0000
# 5 0.0000 0.0000 0.0000 0.0000 33.6082 0.0000
# 6 0.0000 0.0000 0.0000 0.0000 0.0000 17.7334
#
#
#
# Elastic Compliance Matrix: (Units=1/GPa)
#
#
# Indices 1 2 3 4 5 6 
#
# 1 0.017893 -0.009038 -0.003106 0.000000 0.000000 0.000000
# 2 -0.009038 0.016111 0.000120 0.000000 0.000000 0.000000
# 3 -0.003106 0.000120 0.010804 0.000000 0.000000 0.000000
# 4 0.000000 0.000000 0.000000 0.127804 0.000000 0.000000
# 5 0.000000 0.000000 0.000000 0.000000 0.029755 0.000000
# 6 0.000000 0.000000 0.000000 0.000000 0.000000 0.056391
#
#
# Mechanical properties :
#
#
# Convention : Reuss Voigt Hill
#
# Bulk Modulus (GPa) = 48.17212 48.46888 48.32050
# Shear Modulus (GPa) = 17.25771 24.38359 20.82065
#
# Velocity S-wave (km/s) = 2.63201 3.12857 2.89097
# Velocity P-wave (km/s) = 5.34543 5.70146 5.52631
#
# Compressibility (1/GPa) = 0.02075890
#
# Stress axis : x y z
#
# Youngs Moduli (GPa) = 55.88832 62.06827 92.55979
#
# Poissons Ratio (x) = 0.56097 0.28753
# Poissons Ratio (y) = 0.50511 -0.01109
# Poissons Ratio (z) = 0.17362 -0.00744
#
# Static dielectric constant tensor:
#      x y z
#    x 4.951830 0.000000 0.000000 
#    y 0.000000 4.006860 0.000000 
#    z 0.000000 0.000000 4.353850 
# 
# 
# High freq. dielectric constant tensor:
#      x y z
#    x 2.022940 0.000000 0.000000 
#    y 0.000000 1.956710 0.000000 
#    z 0.000000 0.000000 1.993850 
# 
# From -- ./inp_files/2662.got.cif
#   From: 2010.03.12/outbox.cif.g09.slc.cpg/sg62_2_cif.got.tgz:2662.got - 2010.04.10 19:12:36.
