data_PCOD8255532
_publ_section_title
;
Structure prediction by ZEFSAII (Michael W. Deem and Ramdas Pophale) SiO2 
 PCOD8255532
Probable space group: C M C M
;
_chemical_formula_sum "Si O2"
_cell_formula_units_Z 80
_cell_length_a 27.858127
_cell_length_b 9.178569
_cell_length_c 17.244291
_cell_angle_alpha 90.000000
_cell_angle_beta 90.000000
_cell_angle_gamma 90.000000
_cell_volume 4409.326252
_symmetry_space_group_name_H-M "C M C M"
_symmetry_group_IT_number 63
_symmetry_cell_setting 'orthorhombic'
loop_
_space_group_symop_operation_xyz
x,y,z
-x,-y,1/2+z
x,-y,-z
-x,y,1/2-z
-x,-y,-z
x,y,1/2-z
-x,y,z
x,-y,1/2+z
1/2+x,1/2+y,z
1/2-x,1/2-y,1/2+z
1/2+x,1/2-y,-z
1/2-x,1/2+y,1/2-z
1/2-x,1/2-y,-z
1/2+x,1/2+y,1/2-z
1/2-x,1/2+y,z
1/2+x,1/2-y,1/2+z
loop_
_atom_site_type_symbol
_atom_site_label
_atom_site_fract_x
_atom_site_fract_y
_atom_site_fract_z
Si Si1 0.552796 0.148198 0.453512
Si Si2 0.359695 0.232343 0.543508
Si Si3 0.291063 0.464105 0.914119
Si Si4 0.699683 0.786745 0.608850
Si Si5 0.379796 0.977139 0.836468
O O1 0.500000 0.221487 0.445239
O O2 0.589213 0.255277 0.499811
O O3 0.573478 0.107082 0.369002
O O4 0.548280 0.000000 0.500000
O O5 0.342865 0.382056 0.584343
O O6 0.319405 0.189257 0.479548
O O7 0.363599 0.108047 0.607888
O O8 0.296913 0.615887 0.868301
O O9 0.251597 0.358380 0.876760
O O10 0.273008 0.500000 0.000000
O O11 0.663457 0.862086 0.668402
O O12 0.391185 0.035037 0.750000
#
# Coordination Sequence:
#
# PCOD8255532 Si02
#       5
#    16  16  16  16  16
#     4   8  15  29  50  74  96 118 151 197 241 279
#     4   9  17  30  49  71  94 121 155 198 241 281
#     4  10  17  28  50  72  91 121 163 201 237 281
#     4  10  18  30  48  68  93 125 161 200 236 279
#     4  10  19  31  46  67  97 129 161 194 233 281
#
# _framework density 18.143362
#
# number of rings (size 3 to 8) (size 9 to 14) (size 15 to 20)
#    0.000    2.600    0.000    6.600    0.000    0.400 
#    0.000    5.000    0.000   15.000    0.000    0.000 
#    0.000   22.400    0.000    0.000    0.000    0.000 
#
# Total GULP energy -495709.076143 kJ/mol
# GULP energy per Si atom -12392.726904 kJ/mol
# Density = 1.810207 g / cm^3
# Si number density = 18.143362 Si / 1000 Ang^3
#
#
#
# Elastic Constant Matrix: (Units=GPa)
#
#
# Indices 1 2 3 4 5 6 
#
# 1 143.1414 59.1255 30.3707 0.0000 0.0000 0.0000
# 2 59.1255 101.5377 24.7727 0.0000 0.0000 0.0000
# 3 30.3707 24.7727 73.0013 0.0000 0.0000 0.0000
# 4 0.0000 0.0000 0.0000 10.7098 0.0000 0.0000
# 5 0.0000 0.0000 0.0000 0.0000 7.2596 0.0000
# 6 0.0000 0.0000 0.0000 0.0000 0.0000 19.8809
#
#
#
# Elastic Compliance Matrix: (Units=1/GPa)
#
#
# Indices 1 2 3 4 5 6 
#
# 1 0.009532 -0.004996 -0.002270 0.000000 0.000000 0.000000
# 2 -0.004996 0.013357 -0.002454 0.000000 0.000000 0.000000
# 3 -0.002270 -0.002454 0.015475 0.000000 0.000000 0.000000
# 4 0.000000 0.000000 0.000000 0.093372 0.000000 0.000000
# 5 0.000000 0.000000 0.000000 0.000000 0.137749 0.000000
# 6 0.000000 0.000000 0.000000 0.000000 0.000000 0.050300
#
#
# Mechanical properties :
#
#
# Convention : Reuss Voigt Hill
#
# Bulk Modulus (GPa) = 52.84496 60.69090 56.76793
# Shear Modulus (GPa) = 14.47041 21.13081 17.80061
#
# Velocity S-wave (km/s) = 2.82717 3.41641 3.13566
# Velocity P-wave (km/s) = 6.31243 7.00613 6.66831
#
# Compressibility (1/GPa) = 0.01892328
#
# Stress axis : x y z
#
# Youngs Moduli (GPa) = 104.91519 74.86894 64.61850
#
# Poissons Ratio (x) = 0.37408 0.14668
# Poissons Ratio (y) = 0.52420 0.15857
# Poissons Ratio (z) = 0.23814 0.18372
#
# Static dielectric constant tensor:
#      x y z
#    x 3.694200 0.000000 0.000000 
#    y 0.000000 3.405780 0.000000 
#    z 0.000000 0.000000 2.993600 
# 
# 
# High freq. dielectric constant tensor:
#      x y z
#    x 1.700180 0.000000 0.000000 
#    y 0.000000 1.686890 0.000000 
#    z 0.000000 0.000000 1.664530 
# 
# From -- ./inp_files/49409.got.cif
#   From: 2010.03.12/outbox.cif.g09.slc.cpg/sg63_25_cif.got.tgz:49409.got - 2010.04.10 19:34:48.
