data_PCOD8255126
_publ_section_title
;
Structure prediction by ZEFSAII (Michael W. Deem and Ramdas Pophale) SiO2 
 PCOD8255126
Probable space group: P N M A
;
_chemical_formula_sum "Si O2"
_cell_formula_units_Z 48
_cell_length_a 11.842109
_cell_length_b 8.898132
_cell_length_c 23.377910
_cell_angle_alpha 90.000000
_cell_angle_beta 90.000000
_cell_angle_gamma 90.000000
_cell_volume 2463.392306
_symmetry_space_group_name_H-M "P N M A"
_symmetry_group_IT_number 62
_symmetry_cell_setting 'orthorhombic'
loop_
_space_group_symop_operation_xyz
x,y,z
1/2-x,-y,1/2+z
1/2+x,1/2-y,1/2-z
-x,1/2+y,-z
-x,-y,-z
1/2+x,y,1/2-z
1/2-x,1/2+y,1/2+z
x,1/2-y,z
loop_
_atom_site_type_symbol
_atom_site_label
_atom_site_fract_x
_atom_site_fract_y
_atom_site_fract_z
Si Si1 0.346328 0.427106 0.357526
Si Si2 0.087483 0.926676 0.155900
Si Si3 0.493120 0.577951 0.122617
Si Si4 0.725324 0.574065 0.916577
Si Si5 0.704181 0.924983 0.047966
Si Si6 0.666240 0.923173 0.219055
O O1 0.354153 0.250000 0.359045
O O2 0.468869 0.492798 0.347621
O O3 0.299119 0.483544 0.418196
O O4 0.266827 0.476134 0.305200
O O5 0.068746 0.750000 0.150051
O O6 0.146205 0.969057 0.215748
O O7 0.166213 0.984561 0.105056
O O8 0.452513 0.750000 0.116924
O O9 0.385264 0.470995 0.119072
O O10 0.580546 0.535696 0.072296
O O11 0.551107 0.549016 0.183850
O O12 0.746994 0.750000 0.909279
O O13 0.707227 0.527337 0.982217
O O14 0.730397 0.750000 0.057344
O O15 0.703407 0.750000 0.212672
#
# Coordination Sequence:
#
# PCOD8255126 Si02
#       6
#     8   8   8   8   8   8
#     4  11  23  39  62  90 118 148 192 249 301 343
#     4  11  24  41  61  84 117 162 202 236 286 357
#     4   9  18  36  61  88 115 152 199 242 291 352
#     4  11  23  37  57  90 124 153 195 250 297 338
#     4   9  20  40  62  84 118 161 200 237 287 357
#     4   9  21  41  63  84 113 157 202 236 283 356
#
# _framework density 19.485325
#
# number of rings (size 3 to 8) (size 9 to 14) (size 15 to 20)
#    0.000    2.000    0.000    4.000    2.333    6.000 
#    0.000    0.000    0.000    0.000    0.000    0.000 
#    0.000    0.000    0.000    0.000    0.000    0.000 
#
# Total GULP energy -595443.229692 kJ/mol
# GULP energy per Si atom -12405.067285 kJ/mol
# Density = 1.944098 g / cm^3
# Si number density = 19.485325 Si / 1000 Ang^3
#
#
#
# Elastic Constant Matrix: (Units=GPa)
#
#
# Indices 1 2 3 4 5 6 
#
# 1 94.3779 53.4029 17.0062 0.0000 0.0000 0.0000
# 2 53.4029 93.6061 31.0683 0.0000 0.0000 0.0000
# 3 17.0062 31.0683 53.7671 0.0000 0.0000 0.0000
# 4 0.0000 0.0000 0.0000 25.6272 0.0000 0.0000
# 5 0.0000 0.0000 0.0000 0.0000 15.7815 0.0000
# 6 0.0000 0.0000 0.0000 0.0000 0.0000 38.1406
#
#
#
# Elastic Compliance Matrix: (Units=1/GPa)
#
#
# Indices 1 2 3 4 5 6 
#
# 1 0.015650 -0.009014 0.000259 0.000000 0.000000 0.000000
# 2 -0.009014 0.018410 -0.007787 0.000000 0.000000 0.000000
# 3 0.000259 -0.007787 0.023016 0.000000 0.000000 0.000000
# 4 0.000000 0.000000 0.000000 0.039021 0.000000 0.000000
# 5 0.000000 0.000000 0.000000 0.000000 0.063365 0.000000
# 6 0.000000 0.000000 0.000000 0.000000 0.000000 0.026219
#
#
# Mechanical properties :
#
#
# Convention : Reuss Voigt Hill
#
# Bulk Modulus (GPa) = 41.68100 49.41175 45.54638
# Shear Modulus (GPa) = 22.04947 25.26144 23.65545
#
# Velocity S-wave (km/s) = 3.36757 3.60451 3.48805
# Velocity P-wave (km/s) = 6.04633 6.53734 6.29662
#
# Compressibility (1/GPa) = 0.02399175
#
# Stress axis : x y z
#
# Youngs Moduli (GPa) = 63.89932 54.31793 43.44736
#
# Poissons Ratio (x) = 0.48963 -0.01124
# Poissons Ratio (y) = 0.57599 0.33832
# Poissons Ratio (z) = -0.01653 0.42296
#
# Static dielectric constant tensor:
#      x y z
#    x 3.535380 0.000000 0.000000 
#    y 0.000000 4.717750 0.000000 
#    z 0.000000 0.000000 3.836800 
# 
# 
# High freq. dielectric constant tensor:
#      x y z
#    x 1.761840 0.000000 0.000000 
#    y 0.000000 1.758070 0.000000 
#    z 0.000000 0.000000 1.765520 
# 
# From -- ./inp_files/29213.got.cif
#   From: 2010.03.12/outbox.cif.g09.slc.cpg/sg62_15_cif.got.tgz:29213.got - 2010.04.10 19:12:36.
