data_PCOD8255584
_publ_section_title
;
Structure prediction by ZEFSAII (Michael W. Deem and Ramdas Pophale) SiO2 
 PCOD8255584
Probable space group: C M C M
;
_chemical_formula_sum "Si O2"
_cell_formula_units_Z 112
_cell_length_a 28.664863
_cell_length_b 10.815641
_cell_length_c 21.636348
_cell_angle_alpha 90.000000
_cell_angle_beta 90.000000
_cell_angle_gamma 90.000000
_cell_volume 6707.892468
_symmetry_space_group_name_H-M "C M C M"
_symmetry_group_IT_number 63
_symmetry_cell_setting 'orthorhombic'
loop_
_space_group_symop_operation_xyz
x,y,z
-x,-y,1/2+z
x,-y,-z
-x,y,1/2-z
-x,-y,-z
x,y,1/2-z
-x,y,z
x,-y,1/2+z
1/2+x,1/2+y,z
1/2-x,1/2-y,1/2+z
1/2+x,1/2-y,-z
1/2-x,1/2+y,1/2-z
1/2-x,1/2-y,-z
1/2+x,1/2+y,1/2-z
1/2-x,1/2+y,z
1/2+x,1/2-y,1/2+z
loop_
_atom_site_type_symbol
_atom_site_label
_atom_site_fract_x
_atom_site_fract_y
_atom_site_fract_z
Si Si1 0.552021 0.170474 0.320644
Si Si2 0.055286 0.048358 0.682155
Si Si3 0.220821 0.243703 0.061749
Si Si4 0.382957 0.197971 0.530633
Si Si5 0.377222 0.063017 0.090115
Si Si6 0.944603 0.079952 0.441428
Si Si7 0.275775 0.012186 0.425534
O O1 0.549507 0.130185 0.250000
O O2 0.500000 0.155260 0.350124
O O3 0.569979 0.310239 0.327748
O O4 0.589909 0.082065 0.351423
O O5 0.074049 0.001866 0.750000
O O6 0.000000 0.038915 0.683037
O O7 0.075324 0.971874 0.623949
O O8 0.165831 0.238096 0.049298
O O9 0.235632 0.111963 0.093103
O O10 0.234464 0.371323 0.098797
O O11 0.250000 0.250000 0.000000
O O12 0.385659 0.175576 0.457375
O O13 0.425372 0.283151 0.551217
O O14 0.391134 0.068949 0.563631
O O15 0.322502 0.061857 0.107458
O O16 0.000000 0.085187 0.440529
O O17 0.926844 0.000000 0.500000
O O18 0.285405 0.000000 0.500000
#
# Coordination Sequence:
#
# PCOD8255584 Si02
#       7
#    16  16  16  16  16  16  16
#     4   9  18  32  50  69  87 117 167 208 230 273
#     4   8  15  31  50  64  86 123 160 197 239 276
#     4   9  15  28  44  65  96 123 155 193 225 280
#     4  10  19  30  45  70 101 126 154 184 242 300
#     4  10  17  31  47  65  97 127 147 192 245 290
#     4  10  20  31  43  67  99 126 158 199 239 287
#     4   9  15  28  45  66  97 125 154 189 233 287
#
# _framework density 16.696750000000002
#
# number of rings (size 3 to 8) (size 9 to 14) (size 15 to 20)
#    0.000    2.714    4.286    1.714    0.000    4.000 
#    2.571    2.143    0.000    1.714    0.000    5.000 
#    0.000    0.000    0.000    0.000    0.000    0.000 
#
# Total GULP energy -693793.106921 kJ/mol
# GULP energy per Si atom -12389.162624 kJ/mol
# Density = 1.665875 g / cm^3
# Si number density = 16.696750 Si / 1000 Ang^3
#
#
#
# Elastic Constant Matrix: (Units=GPa)
#
#
# Indices 1 2 3 4 5 6 
#
# 1 54.6718 41.3912 31.1245 0.0000 0.0000 0.0000
# 2 41.3912 86.0540 36.6156 0.0000 0.0000 0.0000
# 3 31.1245 36.6156 68.6129 0.0000 0.0000 0.0000
# 4 0.0000 0.0000 0.0000 18.0368 0.0000 0.0000
# 5 0.0000 0.0000 0.0000 0.0000 13.4090 0.0000
# 6 0.0000 0.0000 0.0000 0.0000 0.0000 35.5127
#
#
#
# Elastic Compliance Matrix: (Units=1/GPa)
#
#
# Indices 1 2 3 4 5 6 
#
# 1 0.031929 -0.011896 -0.008135 0.000000 0.000000 0.000000
# 2 -0.011896 0.019467 -0.004992 0.000000 0.000000 0.000000
# 3 -0.008135 -0.004992 0.020929 0.000000 0.000000 0.000000
# 4 0.000000 0.000000 0.000000 0.055442 0.000000 0.000000
# 5 0.000000 0.000000 0.000000 0.000000 0.074577 0.000000
# 6 0.000000 0.000000 0.000000 0.000000 0.000000 0.028159
#
#
# Mechanical properties :
#
#
# Convention : Reuss Voigt Hill
#
# Bulk Modulus (GPa) = 44.88842 47.51126 46.19984
# Shear Modulus (GPa) = 17.36265 20.07218 18.71742
#
# Velocity S-wave (km/s) = 3.22822 3.47098 3.35180
# Velocity P-wave (km/s) = 6.39047 6.67688 6.53525
#
# Compressibility (1/GPa) = 0.02227746
#
# Stress axis : x y z
#
# Youngs Moduli (GPa) = 31.31996 51.37021 47.78051
#
# Poissons Ratio (x) = 0.61109 0.38871
# Poissons Ratio (y) = 0.37257 0.23853
# Poissons Ratio (z) = 0.25480 0.25645
#
# Static dielectric constant tensor:
#      x y z
#    x 2.172800 0.000000 0.000000 
#    y 0.000000 3.283060 0.000000 
#    z 0.000000 0.000000 3.000400 
# 
# 
# High freq. dielectric constant tensor:
#      x y z
#    x 1.629620 0.000000 0.000000 
#    y 0.000000 1.649500 0.000000 
#    z 0.000000 0.000000 1.600140 
# 
# From -- ./inp_files/58339.got.cif
#   From: 2010.03.12/outbox.cif.g09.slc.cpg/sg63_30_cif.got.tgz:58339.got - 2010.04.10 19:34:48.
