data_PCOD8255951
_publ_section_title
;
Structure prediction by ZEFSAII (Michael W. Deem and Ramdas Pophale) SiO2 
 PCOD8255951
Probable space group: C M C M
;
_chemical_formula_sum "Si O2"
_cell_formula_units_Z 72
_cell_length_a 17.536119
_cell_length_b 28.418463
_cell_length_c 8.633143
_cell_angle_alpha 90.000000
_cell_angle_beta 90.000000
_cell_angle_gamma 90.000000
_cell_volume 4302.322920
_symmetry_space_group_name_H-M "C M C M"
_symmetry_group_IT_number 63
_symmetry_cell_setting 'orthorhombic'
loop_
_space_group_symop_operation_xyz
x,y,z
-x,-y,1/2+z
x,-y,-z
-x,y,1/2-z
-x,-y,-z
x,y,1/2-z
-x,y,z
x,-y,1/2+z
1/2+x,1/2+y,z
1/2-x,1/2-y,1/2+z
1/2+x,1/2-y,-z
1/2-x,1/2+y,1/2-z
1/2-x,1/2-y,-z
1/2+x,1/2+y,1/2-z
1/2-x,1/2+y,z
1/2+x,1/2-y,1/2+z
loop_
_atom_site_type_symbol
_atom_site_label
_atom_site_fract_x
_atom_site_fract_y
_atom_site_fract_z
Si Si1 0.084158 0.204807 0.431946
Si Si2 0.000000 0.052023 0.066043
Si Si3 0.688893 0.215002 0.931190
Si Si4 0.655126 0.448422 0.067372
Si Si5 0.220676 0.861390 0.567052
O O1 0.080012 0.196116 0.250000
O O2 0.107578 0.259587 0.464161
O O3 0.147965 0.168758 0.496736
O O4 0.000000 0.195626 0.505475
O O5 0.000000 0.053569 0.250000
O O6 0.077361 0.075144 0.001749
O O7 0.000000 0.000000 0.000000
O O8 0.702631 0.207762 0.750000
O O9 0.750000 0.250000 0.000000
O O10 0.700698 0.164845 0.016732
O O11 0.649025 0.452990 0.250000
O O12 0.672075 0.500000 0.000000
O O13 0.721147 0.412493 0.015003
O O14 0.219347 0.868004 0.750000
#
# Coordination Sequence:
#
# PCOD8255951 Si02
#       5
#    16   8  16  16  16
#     4   8  15  27  44  66  88 114 149 186 223 265
#     4  10  18  30  44  58  80 112 146 182 224 260
#     4   9  16  28  45  63  87 116 147 185 228 272
#     4  11  21  33  46  63  87 115 152 191 229 265
#     4  10  19  30  46  65  88 120 154 187 227 271
#
# _framework density 16.735146
#
# number of rings (size 3 to 8) (size 9 to 14) (size 15 to 20)
#    0.000    2.444    0.000    7.000    1.556    0.000 
#    0.000    0.000    0.000   13.333    0.000    0.000 
#    0.000    0.889    0.000    2.444    0.000    3.556 
#
# Total GULP energy -446008.719326 kJ/mol
# GULP energy per Si atom -12389.131092 kJ/mol
# Density = 1.669706 g / cm^3
# Si number density = 16.735146 Si / 1000 Ang^3
#
#
#
# Elastic Constant Matrix: (Units=GPa)
#
#
# Indices 1 2 3 4 5 6 
#
# 1 27.8835 17.3566 9.1354 0.0000 0.0000 0.0000
# 2 17.3566 92.8028 33.7496 0.0000 0.0000 0.0000
# 3 9.1354 33.7496 101.1985 0.0000 0.0000 0.0000
# 4 0.0000 0.0000 0.0000 27.4470 0.0000 0.0000
# 5 0.0000 0.0000 0.0000 0.0000 16.8023 0.0000
# 6 0.0000 0.0000 0.0000 0.0000 0.0000 24.4098
#
#
#
# Elastic Compliance Matrix: (Units=1/GPa)
#
#
# Indices 1 2 3 4 5 6 
#
# 1 0.040737 -0.007149 -0.001293 0.000000 0.000000 0.000000
# 2 -0.007149 0.013517 -0.003863 0.000000 0.000000 0.000000
# 3 -0.001293 -0.003863 0.011287 0.000000 0.000000 0.000000
# 4 0.000000 0.000000 0.000000 0.036434 0.000000 0.000000
# 5 0.000000 0.000000 0.000000 0.000000 0.059516 0.000000
# 6 0.000000 0.000000 0.000000 0.000000 0.000000 0.040967
#
#
# Mechanical properties :
#
#
# Convention : Reuss Voigt Hill
#
# Bulk Modulus (GPa) = 24.43102 38.04090 31.23596
# Shear Modulus (GPa) = 20.77183 24.50803 22.63993
#
# Velocity S-wave (km/s) = 3.52690 3.83098 3.68208
# Velocity P-wave (km/s) = 5.58710 6.50762 6.06485
#
# Compressibility (1/GPa) = 0.04093157
#
# Stress axis : x y z
#
# Youngs Moduli (GPa) = 24.54770 73.97960 88.60128
#
# Poissons Ratio (x) = 0.52885 0.11459
# Poissons Ratio (y) = 0.17548 0.34224
# Poissons Ratio (z) = 0.03175 0.28576
#
# Static dielectric constant tensor:
#      x y z
#    x 3.486130 0.000000 0.000000 
#    y 0.000000 3.337300 0.000000 
#    z 0.000000 0.000000 3.118750 
# 
# 
# High freq. dielectric constant tensor:
#      x y z
#    x 1.596080 0.000000 0.000000 
#    y 0.000000 1.640030 0.000000 
#    z 0.000000 0.000000 1.645700 
# 
# From -- ./inp_files/6264.got.cif
#   From: 2010.03.12/outbox.cif.g09.slc.cpg/sg63_4_cif.got.tgz:6264.got - 2010.04.10 19:34:48.
