data_PCOD8255865
_publ_section_title
;
Structure prediction by ZEFSAII (Michael W. Deem and Ramdas Pophale) SiO2 
 PCOD8255865
Probable space group: C M C M
;
_chemical_formula_sum "Si O2"
_cell_formula_units_Z 96
_cell_length_a 14.999764
_cell_length_b 20.585082
_cell_length_c 17.950251
_cell_angle_alpha 90.000000
_cell_angle_beta 90.000000
_cell_angle_gamma 90.000000
_cell_volume 5542.523628
_symmetry_space_group_name_H-M "C M C M"
_symmetry_group_IT_number 63
_symmetry_cell_setting 'orthorhombic'
loop_
_space_group_symop_operation_xyz
x,y,z
-x,-y,1/2+z
x,-y,-z
-x,y,1/2-z
-x,-y,-z
x,y,1/2-z
-x,y,z
x,-y,1/2+z
1/2+x,1/2+y,z
1/2-x,1/2-y,1/2+z
1/2+x,1/2-y,-z
1/2-x,1/2+y,1/2-z
1/2-x,1/2-y,-z
1/2+x,1/2+y,1/2-z
1/2-x,1/2+y,z
1/2+x,1/2-y,1/2+z
loop_
_atom_site_type_symbol
_atom_site_label
_atom_site_fract_x
_atom_site_fract_y
_atom_site_fract_z
Si Si1 0.732481 0.797300 0.568152
Si Si2 0.104586 0.214484 0.663462
Si Si3 0.852606 0.969890 0.832937
Si Si4 0.242821 0.562238 0.036670
Si Si5 0.401360 0.587275 0.925578
Si Si6 0.901729 0.173028 0.166440
O O1 0.750000 0.750000 0.500000
O O2 0.658293 0.773160 0.625675
O O3 0.695622 0.867233 0.536977
O O4 0.827720 0.803012 0.608748
O O5 0.131522 0.208629 0.750000
O O6 0.133410 0.149247 0.620645
O O7 0.000000 0.228667 0.654970
O O8 0.824278 0.990015 0.750000
O O9 0.761122 0.958101 0.878364
O O10 0.910410 0.904711 0.833768
O O11 0.909145 0.027835 0.868430
O O12 0.190017 0.500000 0.000000
O O13 0.336947 0.571036 0.993746
O O14 0.500000 0.600610 0.958587
O O15 0.876552 0.196954 0.250000
O O16 0.000000 0.200307 0.143977
#
# Coordination Sequence:
#
# PCOD8255865 Si02
#       6
#    16  16  16  16  16  16
#     4  11  20  33  51  73 101 133 168 204 250 298
#     4  10  21  35  51  73 101 134 173 213 252 296
#     4   9  17  28  44  69 101 135 166 196 237 296
#     4   9  19  32  48  70  99 130 165 207 249 300
#     4  10  18  29  45  68 100 136 166 197 240 297
#     4   9  18  31  48  72 100 130 164 201 242 292
#
# _framework density 17.320630000000001
#
# number of rings (size 3 to 8) (size 9 to 14) (size 15 to 20)
#    0.000    2.333    1.667    1.500    0.000    8.667 
#    0.000    0.000    0.000    0.500    0.000    0.000 
#    0.000    2.667    0.000    0.000    0.000    0.000 
#
# Total GULP energy -594801.019541 kJ/mol
# GULP energy per Si atom -12391.687907 kJ/mol
# Density = 1.728121 g / cm^3
# Si number density = 17.320630 Si / 1000 Ang^3
#
#
#
# Elastic Constant Matrix: (Units=GPa)
#
#
# Indices 1 2 3 4 5 6 
#
# 1 42.4428 26.7890 24.5499 0.0000 0.0000 0.0000
# 2 26.7890 99.9312 27.8181 0.0000 0.0000 0.0000
# 3 24.5499 27.8181 88.7996 0.0000 0.0000 0.0000
# 4 0.0000 0.0000 0.0000 30.3345 0.0000 0.0000
# 5 0.0000 0.0000 0.0000 0.0000 21.9881 0.0000
# 6 0.0000 0.0000 0.0000 0.0000 0.0000 21.3323
#
#
#
# Elastic Compliance Matrix: (Units=1/GPa)
#
#
# Indices 1 2 3 4 5 6 
#
# 1 0.031589 -0.006614 -0.006661 0.000000 0.000000 0.000000
# 2 -0.006614 0.012348 -0.002040 0.000000 0.000000 0.000000
# 3 -0.006661 -0.002040 0.013742 0.000000 0.000000 0.000000
# 4 0.000000 0.000000 0.000000 0.032966 0.000000 0.000000
# 5 0.000000 0.000000 0.000000 0.000000 0.045479 0.000000
# 6 0.000000 0.000000 0.000000 0.000000 0.000000 0.046877
#
#
# Mechanical properties :
#
#
# Convention : Reuss Voigt Hill
#
# Bulk Modulus (GPa) = 36.97025 43.27641 40.12333
# Shear Modulus (GPa) = 22.45718 24.86543 23.66130
#
# Velocity S-wave (km/s) = 3.60468 3.79304 3.70006
# Velocity P-wave (km/s) = 6.22221 6.65000 6.43966
#
# Compressibility (1/GPa) = 0.02704877
#
# Stress axis : x y z
#
# Youngs Moduli (GPa) = 31.65694 80.98693 72.77035
#
# Poissons Ratio (x) = 0.53563 0.48474
# Poissons Ratio (y) = 0.20937 0.14843
# Poissons Ratio (z) = 0.21087 0.16518
#
# Static dielectric constant tensor:
#      x y z
#    x 2.777860 0.000000 0.000000 
#    y 0.000000 3.459770 0.000000 
#    z 0.000000 0.000000 3.464730 
# 
# 
# High freq. dielectric constant tensor:
#      x y z
#    x 1.613900 0.000000 0.000000 
#    y 0.000000 1.669540 0.000000 
#    z 0.000000 0.000000 1.688920 
# 
# From -- ./inp_files/42519.got.cif
#   From: 2010.03.12/outbox.cif.g09.slc.cpg/sg63_22_cif.got.tgz:42519.got - 2010.04.10 19:34:48.
