data_PCOD8255613
_publ_section_title
;
Structure prediction by ZEFSAII (Michael W. Deem and Ramdas Pophale) SiO2 
 PCOD8255613
Probable space group: C M C M
;
_chemical_formula_sum "Si O2"
_cell_formula_units_Z 80
_cell_length_a 21.868117
_cell_length_b 17.473327
_cell_length_c 10.962789
_cell_angle_alpha 90.000000
_cell_angle_beta 90.000000
_cell_angle_gamma 90.000000
_cell_volume 4188.977702
_symmetry_space_group_name_H-M "C M C M"
_symmetry_group_IT_number 63
_symmetry_cell_setting 'orthorhombic'
loop_
_space_group_symop_operation_xyz
x,y,z
-x,-y,1/2+z
x,-y,-z
-x,y,1/2-z
-x,-y,-z
x,y,1/2-z
-x,y,z
x,-y,1/2+z
1/2+x,1/2+y,z
1/2-x,1/2-y,1/2+z
1/2+x,1/2-y,-z
1/2-x,1/2+y,1/2-z
1/2-x,1/2-y,-z
1/2+x,1/2+y,1/2-z
1/2-x,1/2+y,z
1/2+x,1/2-y,1/2+z
loop_
_atom_site_type_symbol
_atom_site_label
_atom_site_fract_x
_atom_site_fract_y
_atom_site_fract_z
Si Si1 0.930021 0.913169 0.503658
Si Si2 0.700707 0.156184 0.497321
Si Si3 0.175071 0.188488 0.390664
Si Si4 0.929888 0.541062 0.250000
Si Si5 0.566294 0.337477 0.250000
Si Si6 0.137266 0.500000 0.500000
Si Si7 0.637025 0.188376 0.250000
O O1 0.888563 0.855298 0.583006
O O2 0.926227 0.891024 0.364326
O O3 0.000000 0.908484 0.553991
O O4 0.905390 0.000000 0.500000
O O5 0.774492 0.157760 0.487663
O O6 0.671691 0.219174 0.589476
O O7 0.679067 0.174631 0.363517
O O8 0.679622 0.071847 0.534518
O O9 0.192203 0.172927 0.250000
O O10 0.901923 0.509839 0.376701
O O11 0.921699 0.632614 0.250000
O O12 0.000000 0.517517 0.250000
O O13 0.500000 0.296665 0.250000
O O14 0.618328 0.275351 0.250000
#
# Coordination Sequence:
#
# PCOD8255613 Si02
#       7
#    16  16  16   8   8   8   8
#     4  10  23  40  59  87 119 156 203 254 303 360
#     4  10  22  40  60  90 122 155 200 246 299 358
#     4  11  23  39  62  87 123 159 199 247 307 362
#     4  10  21  38  62  90 125 162 201 250 302 357
#     4  10  19  36  60  82 111 156 205 242 297 359
#     4  10  23  40  64  90 127 160 204 252 300 366
#     4  10  17  38  60  84 115 156 202 248 285 354
#
# _framework density 19.097739000000001
#
# number of rings (size 3 to 8) (size 9 to 14) (size 15 to 20)
#    0.000    1.800    3.000    0.600    4.200    0.400 
#    0.000    1.000    0.000    0.000    0.000    0.000 
#    0.000    0.000    0.000    0.000    0.000    0.000 
#
# Total GULP energy -495762.152147 kJ/mol
# GULP energy per Si atom -12394.053804 kJ/mol
# Density = 1.905427 g / cm^3
# Si number density = 19.097739 Si / 1000 Ang^3
#
#
#
# Elastic Constant Matrix: (Units=GPa)
#
#
# Indices 1 2 3 4 5 6 
#
# 1 94.3754 61.7546 22.7355 0.0000 0.0000 0.0000
# 2 61.7546 134.3958 22.2540 0.0000 0.0000 0.0000
# 3 22.7355 22.2540 86.6468 0.0000 0.0000 0.0000
# 4 0.0000 0.0000 0.0000 15.1771 0.0000 0.0000
# 5 0.0000 0.0000 0.0000 0.0000 21.7487 0.0000
# 6 0.0000 0.0000 0.0000 0.0000 0.0000 27.6084
#
#
#
# Elastic Compliance Matrix: (Units=1/GPa)
#
#
# Indices 1 2 3 4 5 6 
#
# 1 0.015597 -0.006778 -0.002352 0.000000 0.000000 0.000000
# 2 -0.006778 0.010716 -0.000974 0.000000 0.000000 0.000000
# 3 -0.002352 -0.000974 0.012408 0.000000 0.000000 0.000000
# 4 0.000000 0.000000 0.000000 0.065889 0.000000 0.000000
# 5 0.000000 0.000000 0.000000 0.000000 0.045980 0.000000
# 6 0.000000 0.000000 0.000000 0.000000 0.000000 0.036221
#
#
# Mechanical properties :
#
#
# Convention : Reuss Voigt Hill
#
# Bulk Modulus (GPa) = 54.00960 58.76736 56.38848
# Shear Modulus (GPa) = 23.45326 26.81843 25.13584
#
# Velocity S-wave (km/s) = 3.50818 3.75143 3.63184
# Velocity P-wave (km/s) = 6.68968 7.04294 6.86858
#
# Compressibility (1/GPa) = 0.01851523
#
# Stress axis : x y z
#
# Youngs Moduli (GPa) = 64.11300 93.31621 80.59071
#
# Poissons Ratio (x) = 0.63246 0.18954
# Poissons Ratio (y) = 0.43453 0.07849
# Poissons Ratio (z) = 0.15079 0.09088
#
# Static dielectric constant tensor:
#      x y z
#    x 3.576800 0.000000 0.000000 
#    y 0.000000 3.691840 0.000000 
#    z 0.000000 0.000000 3.393740 
# 
# 
# High freq. dielectric constant tensor:
#      x y z
#    x 1.741060 0.000000 0.000000 
#    y 0.000000 1.747390 0.000000 
#    z 0.000000 0.000000 1.747050 
# 
# From -- ./inp_files/23744.got.cif
#   From: 2010.03.12/outbox.cif.g09.slc.cpg/sg63_12_cif.got.tgz:23744.got - 2010.04.10 19:34:48.
