data_PCOD8255944
_publ_section_title
;
Structure prediction by ZEFSAII (Michael W. Deem and Ramdas Pophale) SiO2 
 PCOD8255944
Probable space group: C M C M
;
_chemical_formula_sum "Si O2"
_cell_formula_units_Z 80
_cell_length_a 18.855257
_cell_length_b 32.767196
_cell_length_c 9.026665
_cell_angle_alpha 90.000000
_cell_angle_beta 90.000000
_cell_angle_gamma 90.000000
_cell_volume 5576.979657
_symmetry_space_group_name_H-M "C M C M"
_symmetry_group_IT_number 63
_symmetry_cell_setting 'orthorhombic'
loop_
_space_group_symop_operation_xyz
x,y,z
-x,-y,1/2+z
x,-y,-z
-x,y,1/2-z
-x,-y,-z
x,y,1/2-z
-x,y,z
x,-y,1/2+z
1/2+x,1/2+y,z
1/2-x,1/2-y,1/2+z
1/2+x,1/2-y,-z
1/2-x,1/2+y,1/2-z
1/2-x,1/2-y,-z
1/2+x,1/2+y,1/2-z
1/2-x,1/2+y,z
1/2+x,1/2-y,1/2+z
loop_
_atom_site_type_symbol
_atom_site_label
_atom_site_fract_x
_atom_site_fract_y
_atom_site_fract_z
Si Si1 0.500000 0.244334 0.924921
Si Si2 0.364554 0.617359 0.919710
Si Si3 0.232269 0.190508 0.920998
Si Si4 0.857453 0.269129 0.922481
Si Si5 0.500000 0.328660 0.419752
Si Si6 0.918559 0.958406 0.576401
O O1 0.500000 0.239206 0.750000
O O2 0.430208 0.222811 0.990728
O O3 0.500000 0.291528 0.967902
O O4 0.364249 0.602790 0.750000
O O5 0.295921 0.645027 0.955647
O O6 0.432369 0.644434 0.954099
O O7 0.366582 0.577527 0.022306
O O8 0.254792 0.195084 0.750000
O O9 0.170651 0.223439 0.956509
O O10 0.300160 0.197813 0.023378
O O11 0.871650 0.275678 0.750000
O O12 0.500000 0.312204 0.250000
O O13 0.910008 0.963845 0.750000
O O14 0.000000 0.948435 0.531835
O O15 0.893408 0.000000 0.500000
#
# Coordination Sequence:
#
# PCOD8255944 Si02
#       6
#     8  16  16  16   8  16
#     4  12  22  30  44  63  85 112 147 187 221 258
#     4  10  18  30  47  62  84 113 143 181 222 261
#     4   9  18  31  45  63  85 111 142 178 220 261
#     4  10  19  32  46  61  84 113 144 179 220 260
#     4  10  18  30  43  61  84 112 147 181 221 260
#     4  10  20  31  43  61  84 111 145 182 220 259
#
# _framework density 14.344682000000001
#
# number of rings (size 3 to 8) (size 9 to 14) (size 15 to 20)
#    0.000    2.000    3.000    2.100    0.000    3.200 
#    0.000    0.000    0.000    0.000    0.000    0.000 
#    0.000    0.000    0.000    0.900    0.000   12.000 
#
# Total GULP energy -496067.863238 kJ/mol
# GULP energy per Si atom -12401.696581 kJ/mol
# Density = 1.431203 g / cm^3
# Si number density = 14.344682 Si / 1000 Ang^3
#
#
#
# Elastic Constant Matrix: (Units=GPa)
#
#
# Indices 1 2 3 4 5 6 
#
# 1 78.8728 32.8566 49.3625 0.0000 0.0000 0.0000
# 2 32.8566 78.0326 39.5416 0.0000 0.0000 0.0000
# 3 49.3625 39.5416 86.0934 0.0000 0.0000 0.0000
# 4 0.0000 0.0000 0.0000 25.8448 0.0000 0.0000
# 5 0.0000 0.0000 0.0000 0.0000 23.8895 0.0000
# 6 0.0000 0.0000 0.0000 0.0000 0.0000 10.2199
#
#
#
# Elastic Compliance Matrix: (Units=1/GPa)
#
#
# Indices 1 2 3 4 5 6 
#
# 1 0.020476 -0.003483 -0.010140 0.000000 0.000000 0.000000
# 2 -0.003483 0.017295 -0.005946 0.000000 0.000000 0.000000
# 3 -0.010140 -0.005946 0.020160 0.000000 0.000000 0.000000
# 4 0.000000 0.000000 0.000000 0.038693 0.000000 0.000000
# 5 0.000000 0.000000 0.000000 0.000000 0.041859 0.000000
# 6 0.000000 0.000000 0.000000 0.000000 0.000000 0.097848
#
#
# Mechanical properties :
#
#
# Convention : Reuss Voigt Hill
#
# Bulk Modulus (GPa) = 53.21472 54.05780 53.63626
# Shear Modulus (GPa) = 17.74720 20.07338 18.91029
#
# Velocity S-wave (km/s) = 3.52120 3.74486 3.63475
# Velocity P-wave (km/s) = 7.32868 7.51434 7.42209
#
# Compressibility (1/GPa) = 0.01879179
#
# Stress axis : x y z
#
# Youngs Moduli (GPa) = 48.83767 57.82038 49.60230
#
# Poissons Ratio (x) = 0.20140 0.50298
# Poissons Ratio (y) = 0.17011 0.29494
# Poissons Ratio (z) = 0.49523 0.34381
#
# Static dielectric constant tensor:
#      x y z
#    x 2.703530 0.000000 0.000000 
#    y 0.000000 2.648850 0.000000 
#    z 0.000000 0.000000 2.818300 
# 
# 
# High freq. dielectric constant tensor:
#      x y z
#    x 1.523920 0.000000 0.000000 
#    y 0.000000 1.521260 0.000000 
#    z 0.000000 0.000000 1.557650 
# 
# From -- ./inp_files/8901.got.cif
#   From: 2010.03.12/outbox.cif.g09.slc.cpg/sg63_5_cif.got.tgz:8901.got - 2010.04.10 19:34:48.
