data_PCOD8255032
_publ_section_title
;
Structure prediction by ZEFSAII (Michael W. Deem and Ramdas Pophale) SiO2 
 PCOD8255032
Probable space group: P N M A
;
_chemical_formula_sum "Si O2"
_cell_formula_units_Z 48
_cell_length_a 9.740310
_cell_length_b 8.569269
_cell_length_c 27.869208
_cell_angle_alpha 90.000000
_cell_angle_beta 90.000000
_cell_angle_gamma 90.000000
_cell_volume 2326.168563
_symmetry_space_group_name_H-M "P N M A"
_symmetry_group_IT_number 62
_symmetry_cell_setting 'orthorhombic'
loop_
_space_group_symop_operation_xyz
x,y,z
1/2-x,-y,1/2+z
1/2+x,1/2-y,1/2-z
-x,1/2+y,-z
-x,-y,-z
1/2+x,y,1/2-z
1/2-x,1/2+y,1/2+z
x,1/2-y,z
loop_
_atom_site_type_symbol
_atom_site_label
_atom_site_fract_x
_atom_site_fract_y
_atom_site_fract_z
Si Si1 0.504838 0.926169 0.948468
Si Si2 0.016349 0.567108 0.947049
Si Si3 0.134292 0.934260 0.707714
Si Si4 0.733008 0.074351 0.388454
Si Si5 0.732315 0.929158 0.105765
Si Si6 0.668942 0.932138 0.213716
O O1 0.446836 0.750000 0.949427
O O2 0.661046 0.929052 0.932039
O O3 0.419731 0.030701 0.911645
O O4 0.500000 0.000000 0.000000
O O5 0.990927 0.750000 0.951456
O O6 0.164134 0.534102 0.924683
O O7 0.904082 0.493028 0.909924
O O8 0.000000 0.500000 0.000000
O O9 0.106370 0.750000 0.702716
O O10 0.203871 0.005687 0.659238
O O11 0.239598 0.967370 0.750323
O O12 0.989332 0.017093 0.716893
O O13 0.695897 0.250000 0.373038
O O14 0.766679 0.750000 0.095233
O O15 0.735893 0.966438 0.162038
O O16 0.677449 0.750000 0.226725
#
# Coordination Sequence:
#
# PCOD8255032 Si02
#       6
#     8   8   8   8   8   8
#     4  11  21  38  64  93 125 162 207 259 315 375
#     4  11  23  41  64  93 129 169 214 263 318 377
#     4  11  23  43  69  96 124 167 218 263 317 386
#     4   9  21  40  62  90 124 159 206 262 311 370
#     4  11  24  42  62  90 129 170 212 258 313 378
#     4  11  25  44  65  96 133 168 208 266 327 380
#
# _framework density 20.634791
#
# number of rings (size 3 to 8) (size 9 to 14) (size 15 to 20)
#    0.000    1.333    1.667    3.500    2.333    3.333 
#    0.000    5.000    0.000    0.000    0.000    0.000 
#    0.000    0.000    0.000    0.000    0.000    0.000 
#
# Total GULP energy -595257.192178 kJ/mol
# GULP energy per Si atom -12401.191504 kJ/mol
# Density = 2.058783 g / cm^3
# Si number density = 20.634791 Si / 1000 Ang^3
#
#
#
# Elastic Constant Matrix: (Units=GPa)
#
#
# Indices 1 2 3 4 5 6 
#
# 1 93.9643 17.7635 26.1673 0.0000 0.0000 0.0000
# 2 17.7635 49.1349 38.4668 0.0000 0.0000 0.0000
# 3 26.1673 38.4668 109.1664 0.0000 0.0000 0.0000
# 4 0.0000 0.0000 0.0000 31.6988 0.0000 0.0000
# 5 0.0000 0.0000 0.0000 0.0000 43.1008 0.0000
# 6 0.0000 0.0000 0.0000 0.0000 0.0000 30.9699
#
#
#
# Elastic Compliance Matrix: (Units=1/GPa)
#
#
# Indices 1 2 3 4 5 6 
#
# 1 0.011677 -0.002804 -0.001811 0.000000 0.000000 0.000000
# 2 -0.002804 0.028778 -0.009469 0.000000 0.000000 0.000000
# 3 -0.001811 -0.009469 0.012931 0.000000 0.000000 0.000000
# 4 0.000000 0.000000 0.000000 0.031547 0.000000 0.000000
# 5 0.000000 0.000000 0.000000 0.000000 0.023201 0.000000
# 6 0.000000 0.000000 0.000000 0.000000 0.000000 0.032289
#
#
# Mechanical properties :
#
#
# Convention : Reuss Voigt Hill
#
# Bulk Modulus (GPa) = 39.65171 46.34009 42.99590
# Shear Modulus (GPa) = 28.24911 32.47843 30.36377
#
# Velocity S-wave (km/s) = 3.70402 3.97163 3.84015
# Velocity P-wave (km/s) = 6.12786 6.59832 6.36743
#
# Compressibility (1/GPa) = 0.02521960
#
# Stress axis : x y z
#
# Youngs Moduli (GPa) = 85.64077 34.74822 77.33436
#
# Poissons Ratio (x) = 0.09742 0.14005
# Poissons Ratio (y) = 0.24010 0.73225
# Poissons Ratio (z) = 0.15510 0.32902
#
# Static dielectric constant tensor:
#      x y z
#    x 3.791210 0.000000 0.000000 
#    y 0.000000 3.690110 0.000000 
#    z 0.000000 0.000000 3.858020 
# 
# 
# High freq. dielectric constant tensor:
#      x y z
#    x 1.817470 0.000000 0.000000 
#    y 0.000000 1.797570 0.000000 
#    z 0.000000 0.000000 1.822860 
# 
# From -- ./inp_files/32010.got.cif
#   From: 2010.03.12/outbox.cif.g09.slc.cpg/sg62_17_cif.got.tgz:32010.got - 2010.04.10 19:12:36.
