data_PCOD8255995
_publ_section_title
;
Structure prediction by ZEFSAII (Michael W. Deem and Ramdas Pophale) SiO2 
 PCOD8255995
Probable space group: C M C M
;
_chemical_formula_sum "Si O2"
_cell_formula_units_Z 72
_cell_length_a 32.722082
_cell_length_b 14.737786
_cell_length_c 8.877373
_cell_angle_alpha 90.000000
_cell_angle_beta 90.000000
_cell_angle_gamma 90.000000
_cell_volume 4281.122379
_symmetry_space_group_name_H-M "C M C M"
_symmetry_group_IT_number 63
_symmetry_cell_setting 'orthorhombic'
loop_
_space_group_symop_operation_xyz
x,y,z
-x,-y,1/2+z
x,-y,-z
-x,y,1/2-z
-x,-y,-z
x,y,1/2-z
-x,y,z
x,-y,1/2+z
1/2+x,1/2+y,z
1/2-x,1/2-y,1/2+z
1/2+x,1/2-y,-z
1/2-x,1/2+y,1/2-z
1/2-x,1/2-y,-z
1/2+x,1/2+y,1/2-z
1/2-x,1/2+y,z
1/2+x,1/2-y,1/2+z
loop_
_atom_site_type_symbol
_atom_site_label
_atom_site_fract_x
_atom_site_fract_y
_atom_site_fract_z
Si Si1 0.840139 0.785293 0.574731
Si Si2 0.581445 0.598172 0.071447
Si Si3 0.817099 0.589951 0.924994
Si Si4 0.775847 0.908275 0.427229
Si Si5 0.000000 0.099786 0.930414
O O1 0.830030 0.798413 0.750000
O O2 0.881858 0.834739 0.529748
O O3 0.844020 0.678458 0.534399
O O4 0.802301 0.823862 0.481902
O O5 0.575166 0.587256 0.250000
O O6 0.590731 0.500000 0.000000
O O7 0.541350 0.644989 0.995692
O O8 0.817073 0.570426 0.750000
O O9 0.770704 0.606604 0.981475
O O10 0.836313 0.500000 0.000000
O O11 0.779648 0.916939 0.250000
O O12 0.793887 0.000000 0.500000
O O13 0.000000 0.099713 0.750000
O O14 0.000000 0.000000 0.000000
#
# Coordination Sequence:
#
# PCOD8255995 Si02
#       5
#    16  16  16  16   8
#     4  10  20  32  47  68  94 121 154 194 232 271
#     4  10  19  31  47  68  95 124 150 180 219 267
#     4   9  19  34  48  65  89 121 159 197 235 273
#     4  10  19  30  46  66  92 124 157 192 231 274
#     4  10  18  30  48  68  93 122 149 178 213 264
#
# _framework density 16.818019
#
# number of rings (size 3 to 8) (size 9 to 14) (size 15 to 20)
#    0.000    2.222    0.000    5.000    0.000    5.333 
#    0.000    0.000    0.000    0.000    0.000    0.778 
#    0.000    0.000    0.000    0.000    0.000    0.000 
#
# Total GULP energy -446345.447079 kJ/mol
# GULP energy per Si atom -12398.484641 kJ/mol
# Density = 1.677974 g / cm^3
# Si number density = 16.818019 Si / 1000 Ang^3
#
#
#
# Elastic Constant Matrix: (Units=GPa)
#
#
# Indices 1 2 3 4 5 6 
#
# 1 88.0995 58.4261 39.3757 0.0000 0.0000 0.0000
# 2 58.4261 114.7995 40.8902 0.0000 0.0000 0.0000
# 3 39.3757 40.8902 70.1387 0.0000 0.0000 0.0000
# 4 0.0000 0.0000 0.0000 25.5561 0.0000 0.0000
# 5 0.0000 0.0000 0.0000 0.0000 21.9527 0.0000
# 6 0.0000 0.0000 0.0000 0.0000 0.0000 18.7102
#
#
#
# Elastic Compliance Matrix: (Units=1/GPa)
#
#
# Indices 1 2 3 4 5 6 
#
# 1 0.019171 -0.007476 -0.006404 0.000000 0.000000 0.000000
# 2 -0.007476 0.013909 -0.003912 0.000000 0.000000 0.000000
# 3 -0.006404 -0.003912 0.020133 0.000000 0.000000 0.000000
# 4 0.000000 0.000000 0.000000 0.039130 0.000000 0.000000
# 5 0.000000 0.000000 0.000000 0.000000 0.045553 0.000000
# 6 0.000000 0.000000 0.000000 0.000000 0.000000 0.053447
#
#
# Mechanical properties :
#
#
# Convention : Reuss Voigt Hill
#
# Bulk Modulus (GPa) = 56.72315 61.15796 58.94055
# Shear Modulus (GPa) = 21.47746 22.20019 21.83883
#
# Velocity S-wave (km/s) = 3.57746 3.63716 3.60743
# Velocity P-wave (km/s) = 7.13198 7.35405 7.24386
#
# Compressibility (1/GPa) = 0.01762949
#
# Stress axis : x y z
#
# Youngs Moduli (GPa) = 52.16234 71.89621 49.66878
#
# Poissons Ratio (x) = 0.53748 0.31809
# Poissons Ratio (y) = 0.38995 0.19430
# Poissons Ratio (z) = 0.33406 0.28125
#
# Static dielectric constant tensor:
#      x y z
#    x 3.418810 0.000000 0.000000 
#    y 0.000000 3.115420 0.000000 
#    z 0.000000 0.000000 3.196080 
# 
# 
# High freq. dielectric constant tensor:
#      x y z
#    x 1.631480 0.000000 0.000000 
#    y 0.000000 1.629290 0.000000 
#    z 0.000000 0.000000 1.657760 
# 
# From -- ./inp_files/13913.got.cif
#   From: 2010.03.12/outbox.cif.g09.slc.cpg/sg63_7_cif.got.tgz:13913.got - 2010.04.10 19:34:48.
