data_PCOD8255429
_publ_section_title
;
Structure prediction by ZEFSAII (Michael W. Deem and Ramdas Pophale) SiO2 
 PCOD8255429
Probable space group: C M C M
;
_chemical_formula_sum "Si O2"
_cell_formula_units_Z 128
_cell_length_a 26.308356
_cell_length_b 20.029305
_cell_length_c 17.839577
_cell_angle_alpha 90.000000
_cell_angle_beta 90.000000
_cell_angle_gamma 90.000000
_cell_volume 9400.352566
_symmetry_space_group_name_H-M "C M C M"
_symmetry_group_IT_number 63
_symmetry_cell_setting 'orthorhombic'
loop_
_space_group_symop_operation_xyz
x,y,z
-x,-y,1/2+z
x,-y,-z
-x,y,1/2-z
-x,-y,-z
x,y,1/2-z
-x,y,z
x,-y,1/2+z
1/2+x,1/2+y,z
1/2-x,1/2-y,1/2+z
1/2+x,1/2-y,-z
1/2-x,1/2+y,1/2-z
1/2-x,1/2-y,-z
1/2+x,1/2+y,1/2-z
1/2-x,1/2+y,z
1/2+x,1/2-y,1/2+z
loop_
_atom_site_type_symbol
_atom_site_label
_atom_site_fract_x
_atom_site_fract_y
_atom_site_fract_z
Si Si1 0.670036 0.235469 0.023722
Si Si2 0.863043 0.330469 0.665664
Si Si3 0.939687 0.582169 0.089241
Si Si4 0.882989 0.626409 0.556354
Si Si5 0.284953 0.955123 0.068502
Si Si6 0.766147 0.422267 0.664126
Si Si7 0.440929 0.944148 0.168103
Si Si8 0.730419 0.645981 0.477043
O O1 0.649545 0.230954 0.109413
O O2 0.721095 0.193280 0.017757
O O3 0.628260 0.202566 0.968144
O O4 0.679892 0.311594 0.997630
O O5 0.863379 0.301808 0.750000
O O6 0.917919 0.362434 0.646842
O O7 0.821427 0.388925 0.655680
O O8 0.926932 0.509257 0.120465
O O9 0.000000 0.593506 0.078609
O O10 0.909723 0.587383 0.011673
O O11 0.831649 0.592670 0.587101
O O12 0.920712 0.622560 0.626935
O O13 0.270156 0.999898 0.140426
O O14 0.236341 0.912094 0.039520
O O15 0.303900 0.000000 0.000000
O O16 0.746272 0.417335 0.750000
O O17 0.726999 0.384870 0.607254
O O18 0.415556 0.950625 0.250000
O O19 0.500000 0.935857 0.177278
#
# Coordination Sequence:
#
# PCOD8255429 Si02
#       8
#    16  16  16  16  16  16  16  16
#     4   8  15  26  39  51  65  90 122 149 179 214
#     4   9  16  25  37  52  71  94 121 154 187 216
#     4  10  18  26  37  51  68  93 126 160 190 220
#     4  10  17  26  38  51  67  91 124 156 181 213
#     4   9  15  23  37  53  69  89 113 143 181 218
#     4   9  16  25  38  55  72  91 117 149 184 219
#     4  10  19  27  34  47  69  94 119 153 194 221
#     4   8  14  26  39  51  68  90 115 146 180 216
#
# _framework density 13.616510999999999
#
# number of rings (size 3 to 8) (size 9 to 14) (size 15 to 20)
#    0.000    2.875    0.000    4.875    0.000    3.250 
#    0.000    1.250    0.000    4.500    0.000    0.000 
#    0.000    0.000    0.000    0.000    0.000  140.625 
#
# Total GULP energy -793039.815717 kJ/mol
# GULP energy per Si atom -12391.247121 kJ/mol
# Density = 1.358552 g / cm^3
# Si number density = 13.616511 Si / 1000 Ang^3
#
#
#
# Elastic Constant Matrix: (Units=GPa)
#
#
# Indices 1 2 3 4 5 6 
#
# 1 32.5917 22.2356 33.9387 0.0000 0.0000 0.0000
# 2 22.2356 45.5141 42.3736 0.0000 0.0000 0.0000
# 3 33.9387 42.3736 93.7304 0.0000 0.0000 0.0000
# 4 0.0000 0.0000 0.0000 13.0548 0.0000 0.0000
# 5 0.0000 0.0000 0.0000 0.0000 13.3884 0.0000
# 6 0.0000 0.0000 0.0000 0.0000 0.0000 21.9701
#
#
#
# Elastic Compliance Matrix: (Units=1/GPa)
#
#
# Indices 1 2 3 4 5 6 
#
# 1 0.054053 -0.014135 -0.013182 0.000000 0.000000 0.000000
# 2 -0.014135 0.041636 -0.013705 0.000000 0.000000 0.000000
# 3 -0.013182 -0.013705 0.021637 0.000000 0.000000 0.000000
# 4 0.000000 0.000000 0.000000 0.076600 0.000000 0.000000
# 5 0.000000 0.000000 0.000000 0.000000 0.074692 0.000000
# 6 0.000000 0.000000 0.000000 0.000000 0.000000 0.045516
#
#
# Mechanical properties :
#
#
# Convention : Reuss Voigt Hill
#
# Bulk Modulus (GPa) = 28.34195 40.99246 34.66720
# Shear Modulus (GPa) = 12.25676 14.56853 13.41264
#
# Velocity S-wave (km/s) = 3.00349 3.27451 3.14192
# Velocity P-wave (km/s) = 5.73476 6.66835 6.21910
#
# Compressibility (1/GPa) = 0.03528339
#
# Stress axis : x y z
#
# Youngs Moduli (GPa) = 18.50043 24.01784 46.21612
#
# Poissons Ratio (x) = 0.33949 0.60921
# Poissons Ratio (y) = 0.26150 0.63337
# Poissons Ratio (z) = 0.24387 0.32915
#
# Static dielectric constant tensor:
#      x y z
#    x 2.562780 0.000000 0.000000 
#    y 0.000000 2.690690 0.000000 
#    z 0.000000 0.000000 2.915770 
# 
# 
# High freq. dielectric constant tensor:
#      x y z
#    x 1.482260 0.000000 0.000000 
#    y 0.000000 1.482570 0.000000 
#    z 0.000000 0.000000 1.527140 
# 
# From -- ./inp_files/48504.got.cif
#   From: 2010.03.12/outbox.cif.g09.slc.cpg/sg63_25_cif.got.tgz:48504.got - 2010.04.10 19:34:48.
