data_PCOD8255610
_publ_section_title
;
Structure prediction by ZEFSAII (Michael W. Deem and Ramdas Pophale) SiO2 
 PCOD8255610
Probable space group: C M C M
;
_chemical_formula_sum "Si O2"
_cell_formula_units_Z 80
_cell_length_a 19.672971
_cell_length_b 18.439626
_cell_length_c 13.683599
_cell_angle_alpha 90.000000
_cell_angle_beta 90.000000
_cell_angle_gamma 90.000000
_cell_volume 4963.892854
_symmetry_space_group_name_H-M "C M C M"
_symmetry_group_IT_number 63
_symmetry_cell_setting 'orthorhombic'
loop_
_space_group_symop_operation_xyz
x,y,z
-x,-y,1/2+z
x,-y,-z
-x,y,1/2-z
-x,-y,-z
x,y,1/2-z
-x,y,z
x,-y,1/2+z
1/2+x,1/2+y,z
1/2-x,1/2-y,1/2+z
1/2+x,1/2-y,-z
1/2-x,1/2+y,1/2-z
1/2-x,1/2-y,-z
1/2+x,1/2+y,1/2-z
1/2-x,1/2+y,z
1/2+x,1/2-y,1/2+z
loop_
_atom_site_type_symbol
_atom_site_label
_atom_site_fract_x
_atom_site_fract_y
_atom_site_fract_z
Si Si1 0.075580 0.447436 0.090616
Si Si2 0.577752 0.217869 0.947180
Si Si3 0.305728 0.251861 0.415438
Si Si4 0.681562 0.011766 0.750000
Si Si5 0.136868 0.764488 0.750000
Si Si6 0.764480 0.647335 0.250000
Si Si7 0.757607 0.154044 0.750000
O O1 0.098139 0.366392 0.062356
O O2 0.132917 0.481361 0.157852
O O3 0.000000 0.444114 0.139907
O O4 0.071482 0.500000 0.000000
O O5 0.500000 0.227070 0.977544
O O6 0.590409 0.260805 0.846130
O O7 0.620562 0.252812 0.035086
O O8 0.250000 0.250000 0.500000
O O9 0.297747 0.181638 0.346846
O O10 0.298381 0.323805 0.348354
O O11 0.742967 0.069150 0.750000
O O12 0.721605 0.937032 0.750000
O O13 0.183096 0.837146 0.750000
O O14 0.185793 0.695082 0.750000
#
# Coordination Sequence:
#
# PCOD8255610 Si02
#       7
#    16  16  16   8   8   8   8
#     4  10  20  31  46  73 109 140 164 196 244 304
#     4  11  19  31  55  78 101 136 174 209 254 305
#     4  10  17  35  51  70 105 134 163 215 263 292
#     4  12  19  33  47  75 100 136 177 205 246 312
#     4  10  17  35  49  76  98 129 170 226 250 286
#     4  10  22  30  53  73  99 140 174 206 257 297
#     4  10  20  30  53  70  99 139 167 213 258 293
#
# _framework density 16.116382999999999
#
# number of rings (size 3 to 8) (size 9 to 14) (size 15 to 20)
#    0.000    1.800    6.000    1.800    0.000    1.600 
#    0.000    3.000    0.000    0.000    0.000    4.200 
#    0.000    0.000    0.000    0.000    0.000    0.000 
#
# Total GULP energy -495904.295693 kJ/mol
# GULP energy per Si atom -12397.607392 kJ/mol
# Density = 1.607970 g / cm^3
# Si number density = 16.116383 Si / 1000 Ang^3
#
#
#
# Elastic Constant Matrix: (Units=GPa)
#
#
# Indices 1 2 3 4 5 6 
#
# 1 88.8113 47.9601 47.8107 0.0000 0.0000 0.0000
# 2 47.9601 105.5274 41.9230 0.0000 0.0000 0.0000
# 3 47.8107 41.9230 112.9276 0.0000 0.0000 0.0000
# 4 0.0000 0.0000 0.0000 16.4751 0.0000 0.0000
# 5 0.0000 0.0000 0.0000 0.0000 33.0807 0.0000
# 6 0.0000 0.0000 0.0000 0.0000 0.0000 6.6658
#
#
#
# Elastic Compliance Matrix: (Units=1/GPa)
#
#
# Indices 1 2 3 4 5 6 
#
# 1 0.017116 -0.005748 -0.005113 0.000000 0.000000 0.000000
# 2 -0.005748 0.013046 -0.002410 0.000000 0.000000 0.000000
# 3 -0.005113 -0.002410 0.011914 0.000000 0.000000 0.000000
# 4 0.000000 0.000000 0.000000 0.060698 0.000000 0.000000
# 5 0.000000 0.000000 0.000000 0.000000 0.030229 0.000000
# 6 0.000000 0.000000 0.000000 0.000000 0.000000 0.150020
#
#
# Mechanical properties :
#
#
# Convention : Reuss Voigt Hill
#
# Bulk Modulus (GPa) = 64.36674 64.73933 64.55304
# Shear Modulus (GPa) = 15.88604 22.54916 19.21760
#
# Velocity S-wave (km/s) = 3.14300 3.74457 3.45690
# Velocity P-wave (km/s) = 7.29361 7.67808 7.48831
#
# Compressibility (1/GPa) = 0.01553597
#
# Stress axis : x y z
#
# Youngs Moduli (GPa) = 58.42430 76.65344 83.93223
#
# Poissons Ratio (x) = 0.44059 0.42912
# Poissons Ratio (y) = 0.33581 0.20224
# Poissons Ratio (z) = 0.29871 0.18470
#
# Static dielectric constant tensor:
#      x y z
#    x 3.083630 0.000000 0.000000 
#    y 0.000000 2.899370 0.000000 
#    z 0.000000 0.000000 3.701050 
# 
# 
# High freq. dielectric constant tensor:
#      x y z
#    x 1.611970 0.000000 0.000000 
#    y 0.000000 1.592900 0.000000 
#    z 0.000000 0.000000 1.633140 
# 
# From -- ./inp_files/33923.got.cif
#   From: 2010.03.12/outbox.cif.g09.slc.cpg/sg63_17_cif.got.tgz:33923.got - 2010.04.10 19:34:48.
