data_PCOD8255395
_publ_section_title
;
Structure prediction by ZEFSAII (Michael W. Deem and Ramdas Pophale) SiO2 
 PCOD8255395
Probable space group: C M C M
;
_chemical_formula_sum "Si O2"
_cell_formula_units_Z 96
_cell_length_a 19.963465
_cell_length_b 14.757606
_cell_length_c 17.963029
_cell_angle_alpha 90.000000
_cell_angle_beta 90.000000
_cell_angle_gamma 90.000000
_cell_volume 5292.140980
_symmetry_space_group_name_H-M "C M C M"
_symmetry_group_IT_number 63
_symmetry_cell_setting 'orthorhombic'
loop_
_space_group_symop_operation_xyz
x,y,z
-x,-y,1/2+z
x,-y,-z
-x,y,1/2-z
-x,-y,-z
x,y,1/2-z
-x,y,z
x,-y,1/2+z
1/2+x,1/2+y,z
1/2-x,1/2-y,1/2+z
1/2+x,1/2-y,-z
1/2-x,1/2+y,1/2-z
1/2-x,1/2-y,-z
1/2+x,1/2+y,1/2-z
1/2-x,1/2+y,z
1/2+x,1/2-y,1/2+z
loop_
_atom_site_type_symbol
_atom_site_label
_atom_site_fract_x
_atom_site_fract_y
_atom_site_fract_z
Si Si1 0.359544 0.258109 0.968711
Si Si2 0.816778 0.378022 0.834585
Si Si3 0.267070 0.298152 0.106042
Si Si4 0.289992 0.497301 0.409741
Si Si5 0.427527 0.560379 0.427480
Si Si6 0.921733 0.411495 0.955093
O O1 0.311378 0.227466 0.901139
O O2 0.411412 0.335504 0.946359
O O3 0.308655 0.295466 0.029963
O O4 0.404053 0.174443 0.994966
O O5 0.821346 0.411827 0.750000
O O6 0.802957 0.269554 0.835745
O O7 0.756651 0.423498 0.879626
O O8 0.885559 0.404733 0.875337
O O9 0.269183 0.403430 0.129593
O O10 0.285425 0.500000 0.500000
O O11 0.365585 0.518985 0.381026
O O12 0.435325 0.500000 0.500000
O O13 0.500000 0.557946 0.385141
O O14 0.000000 0.415747 0.938197
O O15 0.897141 0.500000 0.000000
#
# Coordination Sequence:
#
# PCOD8255395 Si02
#       6
#    16  16  16  16  16  16
#     4  10  16  30  52  80 103 136 170 225 279 326
#     4  11  23  36  53  79 111 152 189 223 279 342
#     4  10  18  30  52  76 109 136 177 225 273 324
#     4  11  18  35  57  83 108 142 186 240 286 320
#     4  10  18  28  48  82 112 134 170 222 282 334
#     4  10  21  36  56  83 111 141 183 235 287 333
#
# _framework density 18.140105999999999
#
# number of rings (size 3 to 8) (size 9 to 14) (size 15 to 20)
#    0.000    1.667    5.000    4.000    0.000    1.000 
#    0.000    0.000    0.000    0.500    0.000    0.000 
#    0.000    0.000    0.000    0.000    0.000    0.000 
#
# Total GULP energy -594883.030878 kJ/mol
# GULP energy per Si atom -12393.396477 kJ/mol
# Density = 1.809882 g / cm^3
# Si number density = 18.140106 Si / 1000 Ang^3
#
#
#
# Elastic Constant Matrix: (Units=GPa)
#
#
# Indices 1 2 3 4 5 6 
#
# 1 115.2911 39.1121 32.1288 0.0000 0.0000 0.0000
# 2 39.1121 125.6824 21.2288 0.0000 0.0000 0.0000
# 3 32.1288 21.2288 64.5921 0.0000 0.0000 0.0000
# 4 0.0000 0.0000 0.0000 10.9189 0.0000 0.0000
# 5 0.0000 0.0000 0.0000 0.0000 5.6173 0.0000
# 6 0.0000 0.0000 0.0000 0.0000 0.0000 46.3172
#
#
#
# Elastic Compliance Matrix: (Units=1/GPa)
#
#
# Indices 1 2 3 4 5 6 
#
# 1 0.010818 -0.002602 -0.004526 0.000000 0.000000 0.000000
# 2 -0.002602 0.009050 -0.001680 0.000000 0.000000 0.000000
# 3 -0.004526 -0.001680 0.018285 0.000000 0.000000 0.000000
# 4 0.000000 0.000000 0.000000 0.091584 0.000000 0.000000
# 5 0.000000 0.000000 0.000000 0.000000 0.178021 0.000000
# 6 0.000000 0.000000 0.000000 0.000000 0.000000 0.021590
#
#
# Mechanical properties :
#
#
# Convention : Reuss Voigt Hill
#
# Bulk Modulus (GPa) = 48.69205 54.50057 51.59631
# Shear Modulus (GPa) = 14.13189 26.77707 20.45448
#
# Velocity S-wave (km/s) = 2.79416 3.84621 3.36159
# Velocity P-wave (km/s) = 6.10821 7.05931 6.60091
#
# Compressibility (1/GPa) = 0.02053723
#
# Stress axis : x y z
#
# Youngs Moduli (GPa) = 92.44205 110.49613 54.68946
#
# Poissons Ratio (x) = 0.28751 0.24750
# Poissons Ratio (y) = 0.24053 0.09189
# Poissons Ratio (z) = 0.41836 0.18565
#
# Static dielectric constant tensor:
#      x y z
#    x 3.700180 0.000000 0.000000 
#    y 0.000000 3.657340 0.000000 
#    z 0.000000 0.000000 2.782550 
# 
# 
# High freq. dielectric constant tensor:
#      x y z
#    x 1.714580 0.000000 0.000000 
#    y 0.000000 1.727000 0.000000 
#    z 0.000000 0.000000 1.633630 
# 
# From -- ./inp_files/56710.got.cif
#   From: 2010.03.12/outbox.cif.g09.slc.cpg/sg63_29_cif.got.tgz:56710.got - 2010.04.10 19:34:48.
