data_PCOD8255234
_publ_section_title
;
Structure prediction by ZEFSAII (Michael W. Deem and Ramdas Pophale) SiO2 
 PCOD8255234
Probable space group: P N M A
;
_chemical_formula_sum "Si O2"
_cell_formula_units_Z 32
_cell_length_a 7.412266
_cell_length_b 11.206705
_cell_length_c 18.702389
_cell_angle_alpha 90.000000
_cell_angle_beta 90.000000
_cell_angle_gamma 90.000000
_cell_volume 1553.552814
_symmetry_space_group_name_H-M "P N M A"
_symmetry_group_IT_number 62
_symmetry_cell_setting 'orthorhombic'
loop_
_space_group_symop_operation_xyz
x,y,z
1/2-x,-y,1/2+z
1/2+x,1/2-y,1/2-z
-x,1/2+y,-z
-x,-y,-z
1/2+x,y,1/2-z
1/2-x,1/2+y,1/2+z
x,1/2-y,z
loop_
_atom_site_type_symbol
_atom_site_label
_atom_site_fract_x
_atom_site_fract_y
_atom_site_fract_z
Si Si1 0.978866 0.002831 0.916058
Si Si2 0.966165 0.250000 0.692077
Si Si3 0.622973 0.750000 0.351104
Si Si4 0.804086 0.387247 0.322553
Si Si5 0.317692 0.994653 0.823952
O O1 0.818634 0.914792 0.891332
O O2 0.161215 0.956886 0.878248
O O3 0.933692 0.136732 0.895982
O O4 0.000000 0.000000 0.000000
O O5 0.163778 0.250000 0.659422
O O6 0.987600 0.250000 0.777367
O O7 0.859199 0.365948 0.665457
O O8 0.782321 0.250000 0.299495
O O9 0.744387 0.473125 0.257683
O O10 0.010345 0.413778 0.342645
#
# Coordination Sequence:
#
# PCOD8255234 Si02
#       5
#     8   4   4   8   8
#     4  12  28  46  67 102 143 185 223 283 358 410
#     4  12  20  42  78 107 127 169 241 298 332 392
#     4  12  22  44  70 103 135 171 231 290 342 410
#     4  12  25  44  70 104 135 182 235 282 337 413
#     4  12  23  44  74 102 136 178 234 289 337 408
#
# _framework density 20.597947999999999
#
# number of rings (size 3 to 8) (size 9 to 14) (size 15 to 20)
#    0.000    0.000    7.500    3.000    1.750    2.000 
#    0.000    0.000    0.000    0.000    0.000    0.000 
#    0.000    0.000    0.000    0.000    0.000    0.000 
#
# Total GULP energy -397087.863716 kJ/mol
# GULP energy per Si atom -12408.995741 kJ/mol
# Density = 2.055107 g / cm^3
# Si number density = 20.597948 Si / 1000 Ang^3
#
#
#
# Elastic Constant Matrix: (Units=GPa)
#
#
# Indices 1 2 3 4 5 6 
#
# 1 148.1446 34.3918 47.0747 0.0000 0.0000 0.0000
# 2 34.3918 99.9572 9.5426 0.0000 0.0000 0.0000
# 3 47.0747 9.5426 118.0106 0.0000 0.0000 0.0000
# 4 0.0000 0.0000 0.0000 2.6444 0.0000 0.0000
# 5 0.0000 0.0000 0.0000 0.0000 28.1035 0.0000
# 6 0.0000 0.0000 0.0000 0.0000 0.0000 24.1335
#
#
#
# Elastic Compliance Matrix: (Units=1/GPa)
#
#
# Indices 1 2 3 4 5 6 
#
# 1 0.008338 -0.002571 -0.003118 0.000000 0.000000 0.000000
# 2 -0.002571 0.010875 0.000146 0.000000 0.000000 0.000000
# 3 -0.003118 0.000146 0.009706 0.000000 0.000000 0.000000
# 4 0.000000 0.000000 0.000000 0.378156 0.000000 0.000000
# 5 0.000000 0.000000 0.000000 0.000000 0.035583 0.000000
# 6 0.000000 0.000000 0.000000 0.000000 0.000000 0.041436
#
#
# Mechanical properties :
#
#
# Convention : Reuss Voigt Hill
#
# Bulk Modulus (GPa) = 56.07665 60.90339 58.49002
# Shear Modulus (GPa) = 9.97758 29.31651 19.64704
#
# Velocity S-wave (km/s) = 2.20329 3.77672 3.09177
# Velocity P-wave (km/s) = 5.81000 6.97496 6.41896
#
# Compressibility (1/GPa) = 0.01783273
#
# Stress axis : x y z
#
# Youngs Moduli (GPa) = 119.93504 91.95452 103.03121
#
# Poissons Ratio (x) = 0.23642 0.32126
# Poissons Ratio (y) = 0.30836 -0.01507
# Poissons Ratio (z) = 0.37397 -0.01345
#
# Static dielectric constant tensor:
#      x y z
#    x 4.170960 0.000000 0.000000 
#    y 0.000000 1.812510 0.000000 
#    z 0.000000 0.000000 3.436620 
# 
# 
# High freq. dielectric constant tensor:
#      x y z
#    x 1.832570 0.000000 0.000000 
#    y 0.000000 1.819590 0.000000 
#    z 0.000000 0.000000 1.773610 
# 
# From -- ./inp_files/16483.got.cif
#   From: 2010.03.12/outbox.cif.g09.slc.cpg/sg62_9_cif.got.tgz:16483.got - 2010.04.10 19:12:36.
