data_PCOD8255877
_publ_section_title
;
Structure prediction by ZEFSAII (Michael W. Deem and Ramdas Pophale) SiO2 
 PCOD8255877
Probable space group: C M C M
;
_chemical_formula_sum "Si O2"
_cell_formula_units_Z 128
_cell_length_a 10.269978
_cell_length_b 27.836988
_cell_length_c 25.690391
_cell_angle_alpha 90.000000
_cell_angle_beta 90.000000
_cell_angle_gamma 90.000000
_cell_volume 7344.503965
_symmetry_space_group_name_H-M "C M C M"
_symmetry_group_IT_number 63
_symmetry_cell_setting 'orthorhombic'
loop_
_space_group_symop_operation_xyz
x,y,z
-x,-y,1/2+z
x,-y,-z
-x,y,1/2-z
-x,-y,-z
x,y,1/2-z
-x,y,z
x,-y,1/2+z
1/2+x,1/2+y,z
1/2-x,1/2-y,1/2+z
1/2+x,1/2-y,-z
1/2-x,1/2+y,1/2-z
1/2-x,1/2-y,-z
1/2+x,1/2+y,1/2-z
1/2-x,1/2+y,z
1/2+x,1/2-y,1/2+z
loop_
_atom_site_type_symbol
_atom_site_label
_atom_site_fract_x
_atom_site_fract_y
_atom_site_fract_z
Si Si1 0.648174 0.402418 0.644572
Si Si2 0.354099 0.327120 0.068989
Si Si3 0.847526 0.001649 0.807196
Si Si4 0.733715 0.633001 0.463066
Si Si5 0.648307 0.170352 0.308996
Si Si6 0.350897 0.775094 0.908724
Si Si7 0.143507 0.551437 0.525671
Si Si8 0.845479 0.075744 0.609828
O O1 0.500000 0.392916 0.663873
O O2 0.692849 0.456925 0.656360
O O3 0.651350 0.392035 0.582845
O O4 0.748359 0.370504 0.677198
O O5 0.500000 0.316139 0.085814
O O6 0.279786 0.275775 0.076049
O O7 0.302019 0.368035 0.109061
O O8 0.354032 0.348984 0.010972
O O9 0.780025 0.999297 0.750000
O O10 0.000000 0.000285 0.799044
O O11 0.808699 0.051639 0.835143
O O12 0.798600 0.680804 0.441543
O O13 0.837151 0.593938 0.483338
O O14 0.671159 0.187845 0.250000
O O15 0.500000 0.150565 0.316320
O O16 0.670457 0.215712 0.347110
O O17 0.500000 0.771805 0.924468
O O18 0.145318 0.500000 0.500000
O O19 0.260525 0.549176 0.566475
O O20 0.000000 0.560242 0.550959
O O21 0.000000 0.069790 0.596886
#
# Coordination Sequence:
#
# PCOD8255877 Si02
#       8
#    16  16  16  16  16  16  16  16
#     4  10  19  30  48  73  98 125 157 193 234 284
#     4   9  17  29  45  66  92 120 154 196 235 275
#     4   9  17  30  48  70  95 122 154 194 239 284
#     4  10  18  29  46  68  97 127 157 190 234 286
#     4   9  18  32  48  67  94 126 158 195 240 287
#     4   9  17  29  45  65  90 121 156 193 233 278
#     4  10  20  32  47  69  97 128 159 191 229 278
#     4   9  18  32  49  68  91 121 156 195 237 279
#
# _framework density 17.427997000000001
#
# number of rings (size 3 to 8) (size 9 to 14) (size 15 to 20)
#    0.000    2.625    0.000    2.250    0.000    2.000 
#    0.000    1.250    0.000   11.625    0.000    0.000 
#    0.000    0.000    0.000    0.000    0.000    0.000 
#
# Total GULP energy -792842.947322 kJ/mol
# GULP energy per Si atom -12388.171052 kJ/mol
# Density = 1.738833 g / cm^3
# Si number density = 17.427997 Si / 1000 Ang^3
#
#
#
# Elastic Constant Matrix: (Units=GPa)
#
#
# Indices 1 2 3 4 5 6 
#
# 1 59.3298 28.7691 21.2794 0.0000 0.0000 0.0000
# 2 28.7691 143.8675 68.7275 0.0000 0.0000 0.0000
# 3 21.2794 68.7275 103.7775 0.0000 0.0000 0.0000
# 4 0.0000 0.0000 0.0000 19.7862 0.0000 0.0000
# 5 0.0000 0.0000 0.0000 0.0000 16.3562 0.0000
# 6 0.0000 0.0000 0.0000 0.0000 0.0000 19.0174
#
#
#
# Elastic Compliance Matrix: (Units=1/GPa)
#
#
# Indices 1 2 3 4 5 6 
#
# 1 0.018948 -0.002827 -0.002013 0.000000 0.000000 0.000000
# 2 -0.002827 0.010589 -0.006433 0.000000 0.000000 0.000000
# 3 -0.002013 -0.006433 0.014309 0.000000 0.000000 0.000000
# 4 0.000000 0.000000 0.000000 0.050540 0.000000 0.000000
# 5 0.000000 0.000000 0.000000 0.000000 0.061139 0.000000
# 6 0.000000 0.000000 0.000000 0.000000 0.000000 0.052583
#
#
# Mechanical properties :
#
#
# Convention : Reuss Voigt Hill
#
# Bulk Modulus (GPa) = 46.94903 60.50298 53.72600
# Shear Modulus (GPa) = 21.03002 23.57857 22.30429
#
# Velocity S-wave (km/s) = 3.47750 3.68219 3.58131
# Velocity P-wave (km/s) = 6.56668 7.27113 6.92787
#
# Compressibility (1/GPa) = 0.02129970
#
# Stress axis : x y z
#
# Youngs Moduli (GPa) = 52.77642 94.43342 69.88543
#
# Poissons Ratio (x) = 0.26701 0.14066
# Poissons Ratio (y) = 0.14922 0.44959
# Poissons Ratio (z) = 0.10622 0.60751
#
# Static dielectric constant tensor:
#      x y z
#    x 3.142910 0.000000 0.000000 
#    y 0.000000 3.565270 0.000000 
#    z 0.000000 0.000000 3.387300 
# 
# 
# High freq. dielectric constant tensor:
#      x y z
#    x 1.648990 0.000000 0.000000 
#    y 0.000000 1.681720 0.000000 
#    z 0.000000 0.000000 1.665730 
# 
# From -- ./inp_files/62154.got.cif
#   From: 2010.03.12/outbox.cif.g09.slc.cpg/sg63_32_cif.got.tgz:62154.got - 2010.04.10 19:34:48.
