data_PCOD8255728
_publ_section_title
;
Structure prediction by ZEFSAII (Michael W. Deem and Ramdas Pophale) SiO2 
 PCOD8255728
Probable space group: C M C M
;
_chemical_formula_sum "Si O2"
_cell_formula_units_Z 112
_cell_length_a 9.367256
_cell_length_b 26.154328
_cell_length_c 28.839078
_cell_angle_alpha 90.000000
_cell_angle_beta 90.000000
_cell_angle_gamma 90.000000
_cell_volume 7065.409320
_symmetry_space_group_name_H-M "C M C M"
_symmetry_group_IT_number 63
_symmetry_cell_setting 'orthorhombic'
loop_
_space_group_symop_operation_xyz
x,y,z
-x,-y,1/2+z
x,-y,-z
-x,y,1/2-z
-x,-y,-z
x,y,1/2-z
-x,y,z
x,-y,1/2+z
1/2+x,1/2+y,z
1/2-x,1/2-y,1/2+z
1/2+x,1/2-y,-z
1/2-x,1/2+y,1/2-z
1/2-x,1/2-y,-z
1/2+x,1/2+y,1/2-z
1/2-x,1/2+y,z
1/2+x,1/2-y,1/2+z
loop_
_atom_site_type_symbol
_atom_site_label
_atom_site_fract_x
_atom_site_fract_y
_atom_site_fract_z
Si Si1 0.330481 0.443020 0.698008
Si Si2 0.333961 0.696630 0.550067
Si Si3 0.833478 0.252100 0.804260
Si Si4 0.835454 0.799060 0.947679
Si Si5 0.331567 0.651296 0.643372
Si Si6 0.832634 0.156712 0.351987
Si Si7 0.169813 0.055418 0.697522
O O1 0.275038 0.431408 0.750000
O O2 0.500000 0.443799 0.697974
O O3 0.273984 0.398771 0.663803
O O4 0.274718 0.499098 0.681764
O O5 0.500000 0.709321 0.555019
O O6 0.254791 0.748815 0.561727
O O7 0.296693 0.676658 0.498146
O O8 0.289302 0.654895 0.588805
O O9 0.804117 0.246062 0.750000
O O10 0.774719 0.201003 0.829249
O O11 0.748019 0.300189 0.823410
O O12 0.000000 0.260709 0.814954
O O13 0.801729 0.839497 0.907122
O O14 0.000000 0.782390 0.946747
O O15 0.500000 0.648739 0.650295
O O16 0.263623 0.599259 0.664271
O O17 0.000000 0.162650 0.341098
O O18 0.219720 0.066661 0.750000
O O19 0.000000 0.056365 0.695002
#
# Coordination Sequence:
#
# PCOD8255728 Si02
#       7
#    16  16  16  16  16  16  16
#     4   8  14  24  38  56  78 106 139 170 198 234
#     4   9  16  27  42  59  81 107 136 168 203 245
#     4  10  19  28  39  60  87 110 133 164 205 249
#     4   9  17  27  40  59  82 109 138 167 199 241
#     4   9  15  24  39  58  81 107 132 167 209 243
#     4  10  18  28  42  60  84 111 138 168 202 241
#     4   8  13  22  37  57  79 104 137 172 202 236
#
# _framework density 15.851876000000001
#
# number of rings (size 3 to 8) (size 9 to 14) (size 15 to 20)
#    0.000    3.000    1.429    1.714    0.000    2.571 
#    0.000    0.000    0.000    0.857    0.000    8.000 
#    0.000    2.286    0.000    8.429    0.000    9.000 
#
# Total GULP energy -693935.027052 kJ/mol
# GULP energy per Si atom -12391.696912 kJ/mol
# Density = 1.581580 g / cm^3
# Si number density = 15.851876 Si / 1000 Ang^3
#
#
#
# Elastic Constant Matrix: (Units=GPa)
#
#
# Indices 1 2 3 4 5 6 
#
# 1 16.5844 20.1404 21.9810 0.0000 0.0000 0.0000
# 2 20.1404 142.1752 85.9703 0.0000 0.0000 0.0000
# 3 21.9810 85.9703 128.2513 0.0000 0.0000 0.0000
# 4 0.0000 0.0000 0.0000 23.3257 0.0000 0.0000
# 5 0.0000 0.0000 0.0000 0.0000 14.7668 0.0000
# 6 0.0000 0.0000 0.0000 0.0000 0.0000 14.1658
#
#
#
# Elastic Compliance Matrix: (Units=1/GPa)
#
#
# Indices 1 2 3 4 5 6 
#
# 1 0.080183 -0.005127 -0.010306 0.000000 0.000000 0.000000
# 2 -0.005127 0.012156 -0.007269 0.000000 0.000000 0.000000
# 3 -0.010306 -0.007269 0.014436 0.000000 0.000000 0.000000
# 4 0.000000 0.000000 0.000000 0.042871 0.000000 0.000000
# 5 0.000000 0.000000 0.000000 0.000000 0.067719 0.000000
# 6 0.000000 0.000000 0.000000 0.000000 0.000000 0.070592
#
#
# Mechanical properties :
#
#
# Convention : Reuss Voigt Hill
#
# Bulk Modulus (GPa) = 16.29448 60.35494 38.32471
# Shear Modulus (GPa) = 14.13150 21.04628 17.58889
#
# Velocity S-wave (km/s) = 2.98899 3.64769 3.33465
# Velocity P-wave (km/s) = 4.71313 7.47649 6.24946
#
# Compressibility (1/GPa) = 0.06137049
#
# Stress axis : x y z
#
# Youngs Moduli (GPa) = 12.47146 82.26684 69.26908
#
# Poissons Ratio (x) = 0.42178 0.71388
# Poissons Ratio (y) = 0.06394 0.50355
# Poissons Ratio (z) = 0.12853 0.59804
#
# Static dielectric constant tensor:
#      x y z
#    x 2.660960 0.000000 0.000000 
#    y 0.000000 3.264410 0.000000 
#    z 0.000000 0.000000 3.338750 
# 
# 
# High freq. dielectric constant tensor:
#      x y z
#    x 1.564400 0.000000 0.000000 
#    y 0.000000 1.595600 0.000000 
#    z 0.000000 0.000000 1.617570 
# 
# From -- ./inp_files/62113.got.cif
#   From: 2010.03.12/outbox.cif.g09.slc.cpg/sg63_32_cif.got.tgz:62113.got - 2010.04.10 19:34:48.
