data_PCOD8255091
_publ_section_title
;
Structure prediction by ZEFSAII (Michael W. Deem and Ramdas Pophale) SiO2 
 PCOD8255091
Probable space group: P N M A
;
_chemical_formula_sum "Si O2"
_cell_formula_units_Z 48
_cell_length_a 9.364806
_cell_length_b 8.703622
_cell_length_c 30.774352
_cell_angle_alpha 90.000000
_cell_angle_beta 90.000000
_cell_angle_gamma 90.000000
_cell_volume 2508.347621
_symmetry_space_group_name_H-M "P N M A"
_symmetry_group_IT_number 62
_symmetry_cell_setting 'orthorhombic'
loop_
_space_group_symop_operation_xyz
x,y,z
1/2-x,-y,1/2+z
1/2+x,1/2-y,1/2-z
-x,1/2+y,-z
-x,-y,-z
1/2+x,y,1/2-z
1/2-x,1/2+y,1/2+z
x,1/2-y,z
loop_
_atom_site_type_symbol
_atom_site_label
_atom_site_fract_x
_atom_site_fract_y
_atom_site_fract_z
Si Si1 0.903252 0.430662 0.290720
Si Si2 0.594781 0.431966 0.634141
Si Si3 0.089291 0.431891 0.961356
Si Si4 0.593531 0.572090 0.036904
Si Si5 0.919527 0.429784 0.634988
Si Si6 0.409238 0.067254 0.714800
O O1 0.875823 0.250000 0.286684
O O2 0.754967 0.519543 0.285549
O O3 0.971655 0.469811 0.337084
O O4 0.013708 0.486288 0.254629
O O5 0.601479 0.250000 0.633985
O O6 0.537622 0.487124 0.586736
O O7 0.757006 0.488654 0.643049
O O8 0.486638 0.492147 0.670850
O O9 0.082858 0.250000 0.964080
O O10 0.248389 0.496392 0.967172
O O11 0.000000 0.500000 0.000000
O O12 0.599630 0.750000 0.027523
O O13 0.533821 0.540693 0.085187
O O14 0.500000 0.500000 0.000000
O O15 0.933755 0.250000 0.647210
O O16 0.420741 0.250000 0.719978
#
# Coordination Sequence:
#
# PCOD8255091 Si02
#       6
#     8   8   8   8   8   8
#     4  12  25  39  56  85 119 145 175 230 289 331
#     4   8  17  35  59  80 102 136 185 232 265 310
#     4   9  18  34  53  78 108 140 178 224 272 320
#     4   9  19  34  54  79 110 145 186 232 278 329
#     4   9  18  37  60  80 105 146 192 230 272 334
#     4  11  22  39  62  84 107 146 191 226 268 336
#
# _framework density 19.136104
#
# number of rings (size 3 to 8) (size 9 to 14) (size 15 to 20)
#    0.000    2.333    0.000    5.000    0.000    4.000 
#    0.000   10.000    0.000    0.000    0.000    0.000 
#    0.000    0.000    0.000    0.000    0.000    0.000 
#
# Total GULP energy -595048.564070 kJ/mol
# GULP energy per Si atom -12396.845085 kJ/mol
# Density = 1.909255 g / cm^3
# Si number density = 19.136104 Si / 1000 Ang^3
#
#
#
# Elastic Constant Matrix: (Units=GPa)
#
#
# Indices 1 2 3 4 5 6 
#
# 1 81.9737 7.7033 53.2532 0.0000 0.0000 0.0000
# 2 7.7033 40.4597 25.8989 0.0000 0.0000 0.0000
# 3 53.2532 25.8989 129.2226 0.0000 0.0000 0.0000
# 4 0.0000 0.0000 0.0000 33.0316 0.0000 0.0000
# 5 0.0000 0.0000 0.0000 0.0000 42.8479 0.0000
# 6 0.0000 0.0000 0.0000 0.0000 0.0000 27.7438
#
#
#
# Elastic Compliance Matrix: (Units=1/GPa)
#
#
# Indices 1 2 3 4 5 6 
#
# 1 0.016729 0.001409 -0.007176 0.000000 0.000000 0.000000
# 2 0.001409 0.028472 -0.006287 0.000000 0.000000 0.000000
# 3 -0.007176 -0.006287 0.011956 0.000000 0.000000 0.000000
# 4 0.000000 0.000000 0.000000 0.030274 0.000000 0.000000
# 5 0.000000 0.000000 0.000000 0.000000 0.023338 0.000000
# 6 0.000000 0.000000 0.000000 0.000000 0.000000 0.036044
#
#
# Mechanical properties :
#
#
# Convention : Reuss Voigt Hill
#
# Bulk Modulus (GPa) = 30.25941 47.26300 38.76120
# Shear Modulus (GPa) = 27.48187 31.71136 29.59662
#
# Velocity S-wave (km/s) = 3.79374 4.07523 3.93700
# Velocity P-wave (km/s) = 5.91920 6.84801 6.40048
#
# Compressibility (1/GPa) = 0.03304758
#
# Stress axis : x y z
#
# Youngs Moduli (GPa) = 59.77773 35.12213 83.64021
#
# Poissons Ratio (x) = -0.04947 0.60022
# Poissons Ratio (y) = -0.08420 0.52584
# Poissons Ratio (z) = 0.42898 0.22081
#
# Static dielectric constant tensor:
#      x y z
#    x 3.316140 0.000000 0.000000 
#    y 0.000000 3.281950 0.000000 
#    z 0.000000 0.000000 4.656890 
# 
# 
# High freq. dielectric constant tensor:
#      x y z
#    x 1.744400 0.000000 0.000000 
#    y 0.000000 1.721600 0.000000 
#    z 0.000000 0.000000 1.763220 
# 
# From -- ./inp_files/31936.got.cif
#   From: 2010.03.12/outbox.cif.g09.slc.cpg/sg62_16_cif.got.tgz:31936.got - 2010.04.10 19:12:36.
