data_PCOD8255357
_publ_section_title
;
Structure prediction by ZEFSAII (Michael W. Deem and Ramdas Pophale) SiO2 
 PCOD8255357
Probable space group: C M C M
;
_chemical_formula_sum "Si O2"
_cell_formula_units_Z 112
_cell_length_a 21.560163
_cell_length_b 18.200732
_cell_length_c 18.585421
_cell_angle_alpha 90.000000
_cell_angle_beta 90.000000
_cell_angle_gamma 90.000000
_cell_volume 7293.118968
_symmetry_space_group_name_H-M "C M C M"
_symmetry_group_IT_number 63
_symmetry_cell_setting 'orthorhombic'
loop_
_space_group_symop_operation_xyz
x,y,z
-x,-y,1/2+z
x,-y,-z
-x,y,1/2-z
-x,-y,-z
x,y,1/2-z
-x,y,z
x,-y,1/2+z
1/2+x,1/2+y,z
1/2-x,1/2-y,1/2+z
1/2+x,1/2-y,-z
1/2-x,1/2+y,1/2-z
1/2-x,1/2-y,-z
1/2+x,1/2+y,1/2-z
1/2-x,1/2+y,z
1/2+x,1/2-y,1/2+z
loop_
_atom_site_type_symbol
_atom_site_label
_atom_site_fract_x
_atom_site_fract_y
_atom_site_fract_z
Si Si1 0.775364 0.190970 0.943572
Si Si2 0.147445 0.842503 0.669145
Si Si3 0.324745 0.571407 0.462107
Si Si4 0.290258 0.196971 0.330720
Si Si5 0.427378 0.801984 0.332252
Si Si6 0.816756 0.436890 0.580465
Si Si7 0.843078 0.402026 0.075179
O O1 0.810296 0.233853 0.879420
O O2 0.720084 0.142545 0.909777
O O3 0.750000 0.250000 0.000000
O O4 0.826155 0.139870 0.982603
O O5 0.136588 0.873554 0.750000
O O6 0.137802 0.907597 0.610750
O O7 0.216444 0.810602 0.661664
O O8 0.099771 0.778105 0.650722
O O9 0.355440 0.500000 0.500000
O O10 0.254152 0.552955 0.442982
O O11 0.311689 0.212928 0.250000
O O12 0.324160 0.122566 0.356468
O O13 0.411523 0.824197 0.250000
O O14 0.500000 0.798438 0.346026
O O15 0.399864 0.861901 0.386425
O O16 0.854932 0.408702 0.510667
O O17 0.839792 0.515824 0.608615
#
# Coordination Sequence:
#
# PCOD8255357 Si02
#       7
#    16  16  16  16  16  16  16
#     4  11  15  24  43  61  88 120 147 175 207 258
#     4   9  17  28  43  63  87 117 148 180 218 260
#     4  10  16  27  44  67  91 120 145 171 218 265
#     4  10  18  27  40  64  90 119 150 176 211 261
#     4  10  20  32  46  65  87 113 150 192 226 253
#     4   9  17  28  42  62  91 119 143 174 211 267
#     4  10  16  28  45  63  85 118 149 176 217 264
#
# _framework density 15.356941000000001
#
# number of rings (size 3 to 8) (size 9 to 14) (size 15 to 20)
#    0.000    2.143    8.571    0.000    0.000    0.571 
#    0.000    2.143    0.000    0.429    0.000    0.000 
#    0.000    0.000    0.000    0.000    0.000    0.143 
#
# Total GULP energy -694189.631007 kJ/mol
# GULP energy per Si atom -12396.243411 kJ/mol
# Density = 1.532199 g / cm^3
# Si number density = 15.356941 Si / 1000 Ang^3
#
#
#
# Elastic Constant Matrix: (Units=GPa)
#
#
# Indices 1 2 3 4 5 6 
#
# 1 39.5222 27.2413 28.3893 0.0000 0.0000 0.0000
# 2 27.2413 125.0007 78.9550 0.0000 0.0000 0.0000
# 3 28.3893 78.9550 117.5468 0.0000 0.0000 0.0000
# 4 0.0000 0.0000 0.0000 27.8409 0.0000 0.0000
# 5 0.0000 0.0000 0.0000 0.0000 13.7002 0.0000
# 6 0.0000 0.0000 0.0000 0.0000 0.0000 9.7308
#
#
#
# Elastic Compliance Matrix: (Units=1/GPa)
#
#
# Indices 1 2 3 4 5 6 
#
# 1 0.031508 -0.003578 -0.005206 0.000000 0.000000 0.000000
# 2 -0.003578 0.014301 -0.008742 0.000000 0.000000 0.000000
# 3 -0.005206 -0.008742 0.015637 0.000000 0.000000 0.000000
# 4 0.000000 0.000000 0.000000 0.035918 0.000000 0.000000
# 5 0.000000 0.000000 0.000000 0.000000 0.072992 0.000000
# 6 0.000000 0.000000 0.000000 0.000000 0.000000 0.102767
#
#
# Mechanical properties :
#
#
# Convention : Reuss Voigt Hill
#
# Bulk Modulus (GPa) = 37.88812 61.24900 49.56856
# Shear Modulus (GPa) = 15.77417 20.08665 17.93041
#
# Velocity S-wave (km/s) = 3.20842 3.62053 3.42069
# Velocity P-wave (km/s) = 6.20085 7.57943 6.92453
#
# Compressibility (1/GPa) = 0.02639350
#
# Stress axis : x y z
#
# Youngs Moduli (GPa) = 31.73765 69.92284 63.95258
#
# Poissons Ratio (x) = 0.25019 0.33296
# Poissons Ratio (y) = 0.11356 0.55907
# Poissons Ratio (z) = 0.16524 0.61127
#
# Static dielectric constant tensor:
#      x y z
#    x 2.429950 0.000000 0.000000 
#    y 0.000000 3.150890 0.000000 
#    z 0.000000 0.000000 3.186800 
# 
# 
# High freq. dielectric constant tensor:
#      x y z
#    x 1.517890 0.000000 0.000000 
#    y 0.000000 1.597540 0.000000 
#    z 0.000000 0.000000 1.593750 
# 
# From -- ./inp_files/47310.got.cif
#   From: 2010.03.12/outbox.cif.g09.slc.cpg/sg63_24_cif.got.tgz:47310.got - 2010.04.10 19:34:48.
