data_PCOD8255165
_publ_section_title
;
Structure prediction by ZEFSAII (Michael W. Deem and Ramdas Pophale) SiO2 
 PCOD8255165
Probable space group: P N M A
;
_chemical_formula_sum "Si O2"
_cell_formula_units_Z 64
_cell_length_a 9.298407
_cell_length_b 16.989981
_cell_length_c 20.219356
_cell_angle_alpha 90.000000
_cell_angle_beta 90.000000
_cell_angle_gamma 90.000000
_cell_volume 3194.248973
_symmetry_space_group_name_H-M "P N M A"
_symmetry_group_IT_number 62
_symmetry_cell_setting 'orthorhombic'
loop_
_space_group_symop_operation_xyz
x,y,z
1/2-x,-y,1/2+z
1/2+x,1/2-y,1/2-z
-x,1/2+y,-z
-x,-y,-z
1/2+x,y,1/2-z
1/2-x,1/2+y,1/2+z
x,1/2-y,z
loop_
_atom_site_type_symbol
_atom_site_label
_atom_site_fract_x
_atom_site_fract_y
_atom_site_fract_z
Si Si1 0.146552 0.951738 0.257061
Si Si2 0.790267 0.342045 0.994284
Si Si3 0.899410 0.437898 0.255922
Si Si4 0.212399 0.657426 0.372795
Si Si5 0.964228 0.343355 0.501337
Si Si6 0.967357 0.401225 0.113542
Si Si7 0.215737 0.657482 0.622292
Si Si8 0.517075 0.918870 0.383181
O O1 0.136952 0.881918 0.309631
O O2 0.100608 0.918082 0.186177
O O3 0.309521 0.982319 0.256073
O O4 0.053684 0.028306 0.278520
O O5 0.795288 0.250000 0.977723
O O6 0.875675 0.388396 0.938662
O O7 0.627143 0.374382 0.994448
O O8 0.856337 0.357134 0.066297
O O9 0.915974 0.387294 0.188862
O O10 0.826461 0.383016 0.309491
O O11 0.195039 0.750000 0.364008
O O12 0.127056 0.625455 0.436602
O O13 0.379638 0.637391 0.380197
O O14 0.961009 0.250000 0.500025
O O15 0.889892 0.375044 0.434533
O O16 0.968752 0.493645 0.097118
O O17 0.123278 0.364044 0.101784
O O18 0.200612 0.750000 0.632251
#
# Coordination Sequence:
#
# PCOD8255165 Si02
#       8
#     8   8   8   8   8   8   8   8
#     4  11  23  44  64  92 129 166 210 262 316 384
#     4  11  24  41  63  94 127 165 216 271 317 375
#     4  11  23  44  64  92 129 166 210 262 316 384
#     4  11  23  42  67  94 126 168 213 265 319 376
#     4   9  23  41  60  92 126 157 206 265 316 369
#     4  11  23  42  65  91 130 169 212 256 325 386
#     4  11  23  42  67  94 126 168 213 265 319 376
#     4  11  23  42  65  91 130 169 212 256 325 386
#
# _framework density 20.036009
#
# number of rings (size 3 to 8) (size 9 to 14) (size 15 to 20)
#    0.000    1.250    5.000    1.875    3.500    3.000 
#    0.000    1.875    0.000    0.000    0.000    0.000 
#    0.000    0.000    0.000    0.000    0.000    0.000 
#
# Total GULP energy -793872.506655 kJ/mol
# GULP energy per Si atom -12404.257916 kJ/mol
# Density = 1.999041 g / cm^3
# Si number density = 20.036009 Si / 1000 Ang^3
#
#
#
# Elastic Constant Matrix: (Units=GPa)
#
#
# Indices 1 2 3 4 5 6 
#
# 1 94.2093 0.1783 43.3803 0.0000 0.0000 0.0000
# 2 0.1783 58.7871 25.4264 0.0000 0.0000 0.0000
# 3 43.3803 25.4264 89.9585 0.0000 0.0000 0.0000
# 4 0.0000 0.0000 0.0000 31.2113 0.0000 0.0000
# 5 0.0000 0.0000 0.0000 0.0000 40.0191 0.0000
# 6 0.0000 0.0000 0.0000 0.0000 0.0000 37.6251
#
#
#
# Elastic Compliance Matrix: (Units=1/GPa)
#
#
# Indices 1 2 3 4 5 6 
#
# 1 0.014192 0.003323 -0.007783 0.000000 0.000000 0.000000
# 2 0.003323 0.020158 -0.007300 0.000000 0.000000 0.000000
# 3 -0.007783 -0.007300 0.016933 0.000000 0.000000 0.000000
# 4 0.000000 0.000000 0.000000 0.032040 0.000000 0.000000
# 5 0.000000 0.000000 0.000000 0.000000 0.024988 0.000000
# 6 0.000000 0.000000 0.000000 0.000000 0.000000 0.026578
#
#
# Mechanical properties :
#
#
# Convention : Reuss Voigt Hill
#
# Bulk Modulus (GPa) = 36.01921 42.32499 39.17210
# Shear Modulus (GPa) = 29.82170 33.36907 31.59538
#
# Velocity S-wave (km/s) = 3.86217 4.08543 3.97537
# Velocity P-wave (km/s) = 6.15668 6.58973 6.37689
#
# Compressibility (1/GPa) = 0.02776296
#
# Stress axis : x y z
#
# Youngs Moduli (GPa) = 70.46082 49.60844 59.05681
#
# Poissons Ratio (x) = -0.16486 0.45965
# Poissons Ratio (y) = -0.23416 0.43112
# Poissons Ratio (z) = 0.54841 0.36215
#
# Static dielectric constant tensor:
#      x y z
#    x 3.853090 0.000000 0.000000 
#    y 0.000000 3.490180 0.000000 
#    z 0.000000 0.000000 3.750830 
# 
# 
# High freq. dielectric constant tensor:
#      x y z
#    x 1.798910 0.000000 0.000000 
#    y 0.000000 1.772350 0.000000 
#    z 0.000000 0.000000 1.793450 
# 
# From -- ./inp_files/26199.got.cif
#   From: 2010.03.12/outbox.cif.g09.slc.cpg/sg62_14_cif.got.tgz:26199.got - 2010.04.10 19:12:36.
