data_PCOD8255384
_publ_section_title
;
Structure prediction by ZEFSAII (Michael W. Deem and Ramdas Pophale) SiO2 
 PCOD8255384
Probable space group: C M C M
;
_chemical_formula_sum "Si O2"
_cell_formula_units_Z 112
_cell_length_a 21.098165
_cell_length_b 17.983361
_cell_length_c 19.924992
_cell_angle_alpha 90.000000
_cell_angle_beta 90.000000
_cell_angle_gamma 90.000000
_cell_volume 7559.859124
_symmetry_space_group_name_H-M "C M C M"
_symmetry_group_IT_number 63
_symmetry_cell_setting 'orthorhombic'
loop_
_space_group_symop_operation_xyz
x,y,z
-x,-y,1/2+z
x,-y,-z
-x,y,1/2-z
-x,-y,-z
x,y,1/2-z
-x,y,z
x,-y,1/2+z
1/2+x,1/2+y,z
1/2-x,1/2-y,1/2+z
1/2+x,1/2-y,-z
1/2-x,1/2+y,1/2-z
1/2-x,1/2-y,-z
1/2+x,1/2+y,1/2-z
1/2-x,1/2+y,z
1/2+x,1/2-y,1/2+z
loop_
_atom_site_type_symbol
_atom_site_label
_atom_site_fract_x
_atom_site_fract_y
_atom_site_fract_z
Si Si1 0.185009 0.918295 0.673262
Si Si2 0.926349 0.287082 0.450342
Si Si3 0.836986 0.196262 0.965086
Si Si4 0.928247 0.813169 0.674465
Si Si5 0.794548 0.955785 0.431570
Si Si6 0.337078 0.079680 0.980778
Si Si7 0.736553 0.825421 0.580579
O O1 0.198743 0.937962 0.750000
O O2 0.115277 0.884847 0.661882
O O3 0.236844 0.856855 0.650475
O O4 0.189145 0.994199 0.631898
O O5 0.903451 0.231089 0.509697
O O6 0.912636 0.252554 0.377315
O O7 0.889866 0.365685 0.451050
O O8 0.000000 0.302644 0.462616
O O9 0.842505 0.115027 0.931480
O O10 0.804160 0.250285 0.909841
O O11 0.794851 0.192152 0.031856
O O12 0.917464 0.781939 0.750000
O O13 0.000000 0.841138 0.664074
O O14 0.721159 0.928988 0.427915
O O15 0.806233 0.000000 0.500000
O O16 0.308294 0.111581 0.049474
O O17 0.367800 0.000000 0.000000
#
# Coordination Sequence:
#
# PCOD8255384 Si02
#       7
#    16  16  16  16  16  16  16
#     4  11  19  29  46  71  95 117 155 197 228 272
#     4  10  18  28  45  70  92 116 159 198 221 265
#     4   9  16  27  48  62  87 118 156 182 225 272
#     4   9  18  31  44  60  91 128 152 178 228 283
#     4  10  16  29  47  67  90 125 151 179 232 288
#     4   9  16  28  48  65  91 120 149 179 237 285
#     4   9  15  28  45  66  84 119 150 184 225 281
#
# _framework density 14.815091000000001
#
# number of rings (size 3 to 8) (size 9 to 14) (size 15 to 20)
#    0.000    2.429    5.714    0.857    0.000    0.286 
#    0.000    2.143    0.000    2.571    0.000    0.000 
#    0.000   13.714    0.000    0.000    0.000    0.000 
#
# Total GULP energy -694069.492799 kJ/mol
# GULP energy per Si atom -12394.098086 kJ/mol
# Density = 1.478137 g / cm^3
# Si number density = 14.815091 Si / 1000 Ang^3
#
#
#
# Elastic Constant Matrix: (Units=GPa)
#
#
# Indices 1 2 3 4 5 6 
#
# 1 75.2783 56.4293 43.0017 0.0000 0.0000 0.0000
# 2 56.4293 120.1559 52.3157 0.0000 0.0000 0.0000
# 3 43.0017 52.3157 83.5165 0.0000 0.0000 0.0000
# 4 0.0000 0.0000 0.0000 23.9306 0.0000 0.0000
# 5 0.0000 0.0000 0.0000 0.0000 17.1953 0.0000
# 6 0.0000 0.0000 0.0000 0.0000 0.0000 20.9155
#
#
#
# Elastic Compliance Matrix: (Units=1/GPa)
#
#
# Indices 1 2 3 4 5 6 
#
# 1 0.023157 -0.007816 -0.007028 0.000000 0.000000 0.000000
# 2 -0.007816 0.014081 -0.004797 0.000000 0.000000 0.000000
# 3 -0.007028 -0.004797 0.018597 0.000000 0.000000 0.000000
# 4 0.000000 0.000000 0.000000 0.041787 0.000000 0.000000
# 5 0.000000 0.000000 0.000000 0.000000 0.058156 0.000000
# 6 0.000000 0.000000 0.000000 0.000000 0.000000 0.047811
#
#
# Mechanical properties :
#
#
# Convention : Reuss Voigt Hill
#
# Bulk Modulus (GPa) = 60.40197 64.71604 62.55901
# Shear Modulus (GPa) = 20.12983 20.88855 20.50919
#
# Velocity S-wave (km/s) = 3.69011 3.75900 3.72471
# Velocity P-wave (km/s) = 7.68212 7.91312 7.79847
#
# Compressibility (1/GPa) = 0.01655575
#
# Stress axis : x y z
#
# Youngs Moduli (GPa) = 43.18340 71.01557 53.77286
#
# Poissons Ratio (x) = 0.55503 0.37789
# Poissons Ratio (y) = 0.33750 0.25793
# Poissons Ratio (z) = 0.30347 0.34063
#
# Static dielectric constant tensor:
#      x y z
#    x 2.843570 0.000000 0.000000 
#    y 0.000000 3.083180 0.000000 
#    z 0.000000 0.000000 2.662960 
# 
# 
# High freq. dielectric constant tensor:
#      x y z
#    x 1.551510 0.000000 0.000000 
#    y 0.000000 1.575320 0.000000 
#    z 0.000000 0.000000 1.535580 
# 
# From -- ./inp_files/56899.got.cif
#   From: 2010.03.12/outbox.cif.g09.slc.cpg/sg63_29_cif.got.tgz:56899.got - 2010.04.10 19:34:48.
