data_PCOD8255654
_publ_section_title
;
Structure prediction by ZEFSAII (Michael W. Deem and Ramdas Pophale) SiO2 
 PCOD8255654
Probable space group: C M C M
;
_chemical_formula_sum "Si O2"
_cell_formula_units_Z 88
_cell_length_a 25.989109
_cell_length_b 27.600825
_cell_length_c 9.053730
_cell_angle_alpha 90.000000
_cell_angle_beta 90.000000
_cell_angle_gamma 90.000000
_cell_volume 6494.429294
_symmetry_space_group_name_H-M "C M C M"
_symmetry_group_IT_number 63
_symmetry_cell_setting 'orthorhombic'
loop_
_space_group_symop_operation_xyz
x,y,z
-x,-y,1/2+z
x,-y,-z
-x,y,1/2-z
-x,-y,-z
x,y,1/2-z
-x,y,z
x,-y,1/2+z
1/2+x,1/2+y,z
1/2-x,1/2-y,1/2+z
1/2+x,1/2-y,-z
1/2-x,1/2+y,1/2-z
1/2-x,1/2-y,-z
1/2+x,1/2+y,1/2-z
1/2-x,1/2+y,z
1/2+x,1/2-y,1/2+z
loop_
_atom_site_type_symbol
_atom_site_label
_atom_site_fract_x
_atom_site_fract_y
_atom_site_fract_z
Si Si1 0.293764 0.948530 0.574295
Si Si2 0.703918 0.278085 0.924410
Si Si3 0.256392 0.636180 0.918308
Si Si4 0.353240 0.812227 0.086281
Si Si5 0.000000 0.448217 0.925974
Si Si6 0.102141 0.395711 0.922876
O O1 0.288049 0.952157 0.750000
O O2 0.249572 0.913637 0.509039
O O3 0.349920 0.928771 0.526834
O O4 0.285790 0.000000 0.500000
O O5 0.714773 0.283845 0.750000
O O6 0.652509 0.245249 0.951990
O O7 0.750000 0.250000 0.000000
O O8 0.699746 0.330949 0.001205
O O9 0.273192 0.625329 0.750000
O O10 0.203081 0.664694 0.924451
O O11 0.375597 0.818415 0.250000
O O12 0.392381 0.840582 0.980404
O O13 0.950018 0.419441 0.983898
O O14 0.000000 0.454410 0.750000
O O15 0.000000 0.500000 0.000000
O O16 0.099617 0.391585 0.750000
#
# Coordination Sequence:
#
# PCOD8255654 Si02
#       6
#    16  16  16  16   8  16
#     4  10  18  27  38  51  67  90 117 147 180 214
#     4   9  15  23  35  52  71  89 107 131 163 202
#     4   9  16  25  36  51  69  89 111 137 167 203
#     4   8  15  25  37  52  69  86 106 133 168 208
#     4  10  20  32  42  54  68  86 114 150 189 226
#     4   9  18  29  40  52  67  86 112 146 184 222
#
# _framework density 13.550074
#
# number of rings (size 3 to 8) (size 9 to 14) (size 15 to 20)
#    0.000    2.909    0.000    3.273    0.000    6.545 
#    0.000    0.000    0.000    0.000    0.000    0.000 
#    0.000    0.000    0.000    0.000    0.000    0.000 
#
# Total GULP energy -545245.471647 kJ/mol
# GULP energy per Si atom -12391.942537 kJ/mol
# Density = 1.351923 g / cm^3
# Si number density = 13.550074 Si / 1000 Ang^3
#
#
#
# Elastic Constant Matrix: (Units=GPa)
#
#
# Indices 1 2 3 4 5 6 
#
# 1 30.5230 44.0235 19.2384 0.0000 0.0000 0.0000
# 2 44.0235 115.4137 48.4467 0.0000 0.0000 0.0000
# 3 19.2384 48.4467 60.8385 0.0000 0.0000 0.0000
# 4 0.0000 0.0000 0.0000 29.1914 0.0000 0.0000
# 5 0.0000 0.0000 0.0000 0.0000 11.7674 0.0000
# 6 0.0000 0.0000 0.0000 0.0000 0.0000 20.3794
#
#
#
# Elastic Compliance Matrix: (Units=1/GPa)
#
#
# Indices 1 2 3 4 5 6 
#
# 1 0.072905 -0.027236 -0.001366 0.000000 0.000000 0.000000
# 2 -0.027236 0.023190 -0.009854 0.000000 0.000000 0.000000
# 3 -0.001366 -0.009854 0.024716 0.000000 0.000000 0.000000
# 4 0.000000 0.000000 0.000000 0.034257 0.000000 0.000000
# 5 0.000000 0.000000 0.000000 0.000000 0.084980 0.000000
# 6 0.000000 0.000000 0.000000 0.000000 0.000000 0.049069
#
#
# Mechanical properties :
#
#
# Convention : Reuss Voigt Hill
#
# Bulk Modulus (GPa) = 22.77924 47.79918 35.28921
# Shear Modulus (GPa) = 13.13507 18.60542 15.87024
#
# Velocity S-wave (km/s) = 3.11685 3.70954 3.42604
# Velocity P-wave (km/s) = 5.45900 7.32803 6.46145
#
# Compressibility (1/GPa) = 0.04389963
#
# Stress axis : x y z
#
# Youngs Moduli (GPa) = 13.71643 43.12292 40.46033
#
# Poissons Ratio (x) = 1.17448 0.05527
# Poissons Ratio (y) = 0.37358 0.39868
# Poissons Ratio (z) = 0.01874 0.42492
#
# Static dielectric constant tensor:
#      x y z
#    x 2.583900 0.000000 0.000000 
#    y 0.000000 3.259460 0.000000 
#    z 0.000000 0.000000 2.817020 
# 
# 
# High freq. dielectric constant tensor:
#      x y z
#    x 1.448110 0.000000 0.000000 
#    y 0.000000 1.517190 0.000000 
#    z 0.000000 0.000000 1.530310 
# 
# From -- ./inp_files/8951.got.cif
#   From: 2010.03.12/outbox.cif.g09.slc.cpg/sg63_5_cif.got.tgz:8951.got - 2010.04.10 19:34:48.
