data_PCOD8255816
_publ_section_title
;
Structure prediction by ZEFSAII (Michael W. Deem and Ramdas Pophale) SiO2 
 PCOD8255816
Probable space group: C M C M
;
_chemical_formula_sum "Si O2"
_cell_formula_units_Z 80
_cell_length_a 9.143183
_cell_length_b 19.075222
_cell_length_c 25.749515
_cell_angle_alpha 90.000000
_cell_angle_beta 90.000000
_cell_angle_gamma 90.000000
_cell_volume 4490.927734
_symmetry_space_group_name_H-M "C M C M"
_symmetry_group_IT_number 63
_symmetry_cell_setting 'orthorhombic'
loop_
_space_group_symop_operation_xyz
x,y,z
-x,-y,1/2+z
x,-y,-z
-x,y,1/2-z
-x,-y,-z
x,y,1/2-z
-x,y,z
x,-y,1/2+z
1/2+x,1/2+y,z
1/2-x,1/2-y,1/2+z
1/2+x,1/2-y,-z
1/2-x,1/2+y,1/2-z
1/2-x,1/2-y,-z
1/2+x,1/2+y,1/2-z
1/2-x,1/2+y,z
1/2+x,1/2-y,1/2+z
loop_
_atom_site_type_symbol
_atom_site_label
_atom_site_fract_x
_atom_site_fract_y
_atom_site_fract_z
Si Si1 0.671134 0.331398 0.449212
Si Si2 0.334519 0.569702 0.250000
Si Si3 0.830082 0.921722 0.352241
Si Si4 0.827528 0.428459 0.250000
Si Si5 0.664581 0.586021 0.137529
Si Si6 0.670757 0.170279 0.447296
O O1 0.500000 0.341591 0.458638
O O2 0.727511 0.378082 0.401494
O O3 0.712198 0.251045 0.437256
O O4 0.751520 0.358079 0.500941
O O5 0.500000 0.535741 0.250000
O O6 0.212155 0.510211 0.250000
O O7 0.316586 0.614533 0.302940
O O8 0.740937 0.894447 0.302044
O O9 0.000000 0.906546 0.342006
O O10 0.801335 0.003401 0.363327
O O11 0.000000 0.417025 0.250000
O O12 0.500000 0.600587 0.117560
O O13 0.778652 0.625874 0.101928
O O14 0.500000 0.159536 0.454690
#
# Coordination Sequence:
#
# PCOD8255816 Si02
#       6
#    16   8  16   8  16  16
#     4   9  19  36  54  69  91 130 171 200 234 286
#     4   8  16  32  51  70  95 133 171 195 227 282
#     4   9  18  34  54  72  94 129 170 201 228 280
#     4  10  18  28  47  76 105 127 151 195 253 292
#     4   9  17  31  52  74  96 126 164 201 235 280
#     4  10  20  33  50  73 100 127 157 200 251 292
#
# _framework density 17.813690000000001
#
# number of rings (size 3 to 8) (size 9 to 14) (size 15 to 20)
#    0.000    2.800    0.000    2.700    0.000    5.600 
#    0.000    5.000    0.000    3.600    0.000    0.000 
#    0.000    0.000    0.000    0.000    0.000    0.000 
#
# Total GULP energy -495905.032415 kJ/mol
# GULP energy per Si atom -12397.625810 kJ/mol
# Density = 1.777315 g / cm^3
# Si number density = 17.813690 Si / 1000 Ang^3
#
#
#
# Elastic Constant Matrix: (Units=GPa)
#
#
# Indices 1 2 3 4 5 6 
#
# 1 68.4055 27.0536 61.8134 0.0000 0.0000 0.0000
# 2 27.0536 44.1800 55.6717 0.0000 0.0000 0.0000
# 3 61.8134 55.6717 172.1532 0.0000 0.0000 0.0000
# 4 0.0000 0.0000 0.0000 4.4738 0.0000 0.0000
# 5 0.0000 0.0000 0.0000 0.0000 32.6585 0.0000
# 6 0.0000 0.0000 0.0000 0.0000 0.0000 22.5993
#
#
#
# Elastic Compliance Matrix: (Units=1/GPa)
#
#
# Indices 1 2 3 4 5 6 
#
# 1 0.022571 -0.006091 -0.006135 0.000000 0.000000 0.000000
# 2 -0.006091 0.039846 -0.010698 0.000000 0.000000 0.000000
# 3 -0.006135 -0.010698 0.011471 0.000000 0.000000 0.000000
# 4 0.000000 0.000000 0.000000 0.223526 0.000000 0.000000
# 5 0.000000 0.000000 0.000000 0.000000 0.030620 0.000000
# 6 0.000000 0.000000 0.000000 0.000000 0.000000 0.044249
#
#
# Mechanical properties :
#
#
# Convention : Reuss Voigt Hill
#
# Bulk Modulus (GPa) = 35.66366 63.75735 49.71050
# Shear Modulus (GPa) = 11.69651 21.29298 16.49475
#
# Velocity S-wave (km/s) = 2.56520 3.46108 3.04626
# Velocity P-wave (km/s) = 5.37006 7.20007 6.35132
#
# Compressibility (1/GPa) = 0.02803975
#
# Stress axis : x y z
#
# Youngs Moduli (GPa) = 44.30443 25.09671 87.17487
#
# Poissons Ratio (x) = 0.15287 0.53478
# Poissons Ratio (y) = 0.26986 0.93264
# Poissons Ratio (z) = 0.27179 0.26850
#
# Static dielectric constant tensor:
#      x y z
#    x 3.184710 0.000000 0.000000 
#    y 0.000000 3.016630 0.000000 
#    z 0.000000 0.000000 3.612680 
# 
# 
# High freq. dielectric constant tensor:
#      x y z
#    x 1.685070 0.000000 0.000000 
#    y 0.000000 1.652050 0.000000 
#    z 0.000000 0.000000 1.707650 
# 
# From -- ./inp_files/59520.got.cif
#   From: 2010.03.12/outbox.cif.g09.slc.cpg/sg63_30_cif.got.tgz:59520.got - 2010.04.10 19:34:48.
