data_PCOD8255861
_publ_section_title
;
Structure prediction by ZEFSAII (Michael W. Deem and Ramdas Pophale) SiO2 
 PCOD8255861
Probable space group: C M C M
;
_chemical_formula_sum "Si O2"
_cell_formula_units_Z 80
_cell_length_a 8.498724
_cell_length_b 23.252254
_cell_length_c 20.715321
_cell_angle_alpha 90.000000
_cell_angle_beta 90.000000
_cell_angle_gamma 90.000000
_cell_volume 4093.647576
_symmetry_space_group_name_H-M "C M C M"
_symmetry_group_IT_number 63
_symmetry_cell_setting 'orthorhombic'
loop_
_space_group_symop_operation_xyz
x,y,z
-x,-y,1/2+z
x,-y,-z
-x,y,1/2-z
-x,-y,-z
x,y,1/2-z
-x,y,z
x,-y,1/2+z
1/2+x,1/2+y,z
1/2-x,1/2-y,1/2+z
1/2+x,1/2-y,-z
1/2-x,1/2+y,1/2-z
1/2-x,1/2-y,-z
1/2+x,1/2+y,1/2-z
1/2-x,1/2+y,z
1/2+x,1/2-y,1/2+z
loop_
_atom_site_type_symbol
_atom_site_label
_atom_site_fract_x
_atom_site_fract_y
_atom_site_fract_z
Si Si1 0.814525 0.379975 0.373711
Si Si2 0.183026 0.684592 0.250000
Si Si3 0.187256 0.378985 0.873949
Si Si4 0.687500 0.000047 0.823768
Si Si5 0.316386 0.192788 0.750000
Si Si6 0.687565 0.185261 0.500801
O O1 0.746231 0.444119 0.361836
O O2 0.767161 0.342700 0.312334
O O3 0.744574 0.349188 0.437224
O O4 0.000000 0.384290 0.381421
O O5 0.258353 0.656878 0.185962
O O6 0.209830 0.751671 0.250000
O O7 0.000000 0.669914 0.250000
O O8 0.244109 0.444794 0.864938
O O9 0.000000 0.376179 0.875078
O O10 0.252740 0.350205 0.939266
O O11 0.752210 0.997668 0.750000
O O12 0.500000 0.002601 0.820161
O O13 0.500000 0.209102 0.750000
O O14 0.500000 0.187822 0.501769
O O15 0.750000 0.250000 0.500000
#
# Coordination Sequence:
#
# PCOD8255861 Si02
#       6
#    16   8  16  16   8  16
#     4   9  17  28  45  68  94 122 153 190 233 278
#     4  10  18  29  45  67  91 120 157 190 224 272
#     4   9  17  28  45  68  94 122 153 190 233 278
#     4   9  14  25  45  69  96 121 147 191 244 279
#     4  10  18  29  45  67  91 120 157 190 224 272
#     4  10  20  33  47  69  99 126 155 192 230 274
#
# _framework density 19.542472
#
# number of rings (size 3 to 8) (size 9 to 14) (size 15 to 20)
#    0.000    2.600    2.000    1.200    0.000    0.800 
#    0.000    4.000    0.000    0.000    0.000    8.400 
#    0.000    0.000    0.000    0.000    0.000    0.000 
#
# Total GULP energy -495814.582215 kJ/mol
# GULP energy per Si atom -12395.364555 kJ/mol
# Density = 1.949799 g / cm^3
# Si number density = 19.542472 Si / 1000 Ang^3
#
#
#
# Elastic Constant Matrix: (Units=GPa)
#
#
# Indices 1 2 3 4 5 6 
#
# 1 4.6776 5.9303 9.5411 0.0000 0.0000 0.0000
# 2 5.9303 197.0742 110.3521 0.0000 0.0000 0.0000
# 3 9.5411 110.3521 204.2832 0.0000 0.0000 0.0000
# 4 0.0000 0.0000 0.0000 34.8813 0.0000 0.0000
# 5 0.0000 0.0000 0.0000 0.0000 4.6532 0.0000
# 6 0.0000 0.0000 0.0000 0.0000 0.0000 23.1165
#
#
#
# Elastic Compliance Matrix: (Units=1/GPa)
#
#
# Indices 1 2 3 4 5 6 
#
# 1 0.236538 -0.001336 -0.010326 0.000000 0.000000 0.000000
# 2 -0.001336 0.007282 -0.003871 0.000000 0.000000 0.000000
# 3 -0.010326 -0.003871 0.007469 0.000000 0.000000 0.000000
# 4 0.000000 0.000000 0.000000 0.028669 0.000000 0.000000
# 5 0.000000 0.000000 0.000000 0.000000 0.214907 0.000000
# 6 0.000000 0.000000 0.000000 0.000000 0.000000 0.043259
#
#
# Mechanical properties :
#
#
# Convention : Reuss Voigt Hill
#
# Bulk Modulus (GPa) = 4.54085 73.07578 38.80831
# Shear Modulus (GPa) = 7.78091 31.21097 19.49594
#
# Velocity S-wave (km/s) = 1.99754 4.00069 3.16194
# Velocity P-wave (km/s) = 2.76566 7.66910 5.76472
#
# Compressibility (1/GPa) = 0.22022308
#
# Stress axis : x y z
#
# Youngs Moduli (GPa) = 4.22764 137.32050 133.89113
#
# Poissons Ratio (x) = 0.18342 1.38256
# Poissons Ratio (y) = 0.00565 0.51835
# Poissons Ratio (z) = 0.04365 0.53163
#
# Static dielectric constant tensor:
#      x y z
#    x 2.819180 0.000000 0.000000 
#    y 0.000000 3.796780 0.000000 
#    z 0.000000 0.000000 4.068490 
# 
# 
# High freq. dielectric constant tensor:
#      x y z
#    x 1.685660 0.000000 0.000000 
#    y 0.000000 1.780430 0.000000 
#    z 0.000000 0.000000 1.772980 
# 
# From -- ./inp_files/42195.got.cif
#   From: 2010.03.12/outbox.cif.g09.slc.cpg/sg63_22_cif.got.tgz:42195.got - 2010.04.10 19:34:48.
