data_PCOD8255911
_publ_section_title
;
Structure prediction by ZEFSAII (Michael W. Deem and Ramdas Pophale) SiO2 
 PCOD8255911
Probable space group: C M C M
;
_chemical_formula_sum "Si O2"
_cell_formula_units_Z 80
_cell_length_a 30.200321
_cell_length_b 16.377097
_cell_length_c 9.552989
_cell_angle_alpha 90.000000
_cell_angle_beta 90.000000
_cell_angle_gamma 90.000000
_cell_volume 4724.847091
_symmetry_space_group_name_H-M "C M C M"
_symmetry_group_IT_number 63
_symmetry_cell_setting 'orthorhombic'
loop_
_space_group_symop_operation_xyz
x,y,z
-x,-y,1/2+z
x,-y,-z
-x,y,1/2-z
-x,-y,-z
x,y,1/2-z
-x,y,z
x,-y,1/2+z
1/2+x,1/2+y,z
1/2-x,1/2-y,1/2+z
1/2+x,1/2-y,-z
1/2-x,1/2+y,1/2-z
1/2-x,1/2-y,-z
1/2+x,1/2+y,1/2-z
1/2-x,1/2+y,z
1/2+x,1/2-y,1/2+z
loop_
_atom_site_type_symbol
_atom_site_label
_atom_site_fract_x
_atom_site_fract_y
_atom_site_fract_z
Si Si1 0.406402 0.147417 0.592547
Si Si2 0.195116 0.077074 0.915222
Si Si3 0.778661 0.618707 0.405118
Si Si4 0.349119 0.000000 0.000000
Si Si5 0.845719 0.246938 0.910454
Si Si6 0.500000 0.082161 0.913958
O O1 0.404357 0.179666 0.750000
O O2 0.386468 0.219728 0.499526
O O3 0.456908 0.134389 0.544521
O O4 0.379966 0.062121 0.585404
O O5 0.200220 0.057935 0.750000
O O6 0.161845 0.151699 0.942371
O O7 0.243576 0.096444 0.976131
O O8 0.175317 0.000000 0.000000
O O9 0.756673 0.622562 0.250000
O O10 0.817923 0.552007 0.396701
O O11 0.800087 0.705778 0.446517
O O12 0.858268 0.261907 0.750000
O O13 0.500000 0.059655 0.750000
O O14 0.500000 0.000000 0.000000
#
# Coordination Sequence:
#
# PCOD8255911 Si02
#       6
#    16  16  16   8  16   8
#     4  10  20  33  52  76 105 138 173 208 247 298
#     4  11  22  35  51  71  97 130 170 217 262 306
#     4  10  19  31  48  70  98 132 173 214 251 294
#     4  10  18  29  48  72 104 140 176 205 244 290
#     4   9  21  37  51  71  99 131 170 213 259 305
#     4  10  20  34  52  80 109 138 171 204 245 298
#
# _framework density 16.931764000000001
#
# number of rings (size 3 to 8) (size 9 to 14) (size 15 to 20)
#    0.000    2.000    2.000    1.800    0.000    6.400 
#    0.000    0.000    0.000    0.000    0.000    0.700 
#    0.000    0.000    0.000    0.000    0.000    0.000 
#
# Total GULP energy -495952.933128 kJ/mol
# GULP energy per Si atom -12398.823328 kJ/mol
# Density = 1.689323 g / cm^3
# Si number density = 16.931764 Si / 1000 Ang^3
#
#
#
# Elastic Constant Matrix: (Units=GPa)
#
#
# Indices 1 2 3 4 5 6 
#
# 1 94.7878 49.0655 52.6260 0.0000 0.0000 0.0000
# 2 49.0655 115.2092 57.7823 0.0000 0.0000 0.0000
# 3 52.6260 57.7823 97.9168 0.0000 0.0000 0.0000
# 4 0.0000 0.0000 0.0000 27.2549 0.0000 0.0000
# 5 0.0000 0.0000 0.0000 0.0000 24.9880 0.0000
# 6 0.0000 0.0000 0.0000 0.0000 0.0000 16.5239
#
#
#
# Elastic Compliance Matrix: (Units=1/GPa)
#
#
# Indices 1 2 3 4 5 6 
#
# 1 0.015999 -0.003552 -0.006502 0.000000 0.000000 0.000000
# 2 -0.003552 0.013118 -0.005832 0.000000 0.000000 0.000000
# 3 -0.006502 -0.005832 0.017149 0.000000 0.000000 0.000000
# 4 0.000000 0.000000 0.000000 0.036691 0.000000 0.000000
# 5 0.000000 0.000000 0.000000 0.000000 0.040019 0.000000
# 6 0.000000 0.000000 0.000000 0.000000 0.000000 0.060519
#
#
# Mechanical properties :
#
#
# Convention : Reuss Voigt Hill
#
# Bulk Modulus (GPa) = 69.00138 69.65127 69.32633
# Shear Modulus (GPa) = 22.71723 23.64934 23.18329
#
# Velocity S-wave (km/s) = 3.66689 3.74136 3.70431
# Velocity P-wave (km/s) = 7.66611 7.73883 7.70255
#
# Compressibility (1/GPa) = 0.01449246
#
# Stress axis : x y z
#
# Youngs Moduli (GPa) = 62.50465 76.23355 58.31309
#
# Poissons Ratio (x) = 0.27081 0.37917
# Poissons Ratio (y) = 0.22204 0.34006
# Poissons Ratio (z) = 0.40643 0.44457
#
# Static dielectric constant tensor:
#      x y z
#    x 3.014030 0.000000 0.000000 
#    y 0.000000 3.319010 0.000000 
#    z 0.000000 0.000000 3.154210 
# 
# 
# High freq. dielectric constant tensor:
#      x y z
#    x 1.623730 0.000000 0.000000 
#    y 0.000000 1.646290 0.000000 
#    z 0.000000 0.000000 1.661040 
# 
# From -- ./inp_files/14068.got.cif
#   From: 2010.03.12/outbox.cif.g09.slc.cpg/sg63_8_cif.got.tgz:14068.got - 2010.04.10 19:34:48.
