data_PCOD8255391
_publ_section_title
;
Structure prediction by ZEFSAII (Michael W. Deem and Ramdas Pophale) SiO2 
 PCOD8255391
Probable space group: C M C M
;
_chemical_formula_sum "Si O2"
_cell_formula_units_Z 104
_cell_length_a 11.770670
_cell_length_b 25.057813
_cell_length_c 18.207329
_cell_angle_alpha 90.000000
_cell_angle_beta 90.000000
_cell_angle_gamma 90.000000
_cell_volume 5370.201577
_symmetry_space_group_name_H-M "C M C M"
_symmetry_group_IT_number 63
_symmetry_cell_setting 'orthorhombic'
loop_
_space_group_symop_operation_xyz
x,y,z
-x,-y,1/2+z
x,-y,-z
-x,y,1/2-z
-x,-y,-z
x,y,1/2-z
-x,y,z
x,-y,1/2+z
1/2+x,1/2+y,z
1/2-x,1/2-y,1/2+z
1/2+x,1/2-y,-z
1/2-x,1/2+y,1/2-z
1/2-x,1/2-y,-z
1/2+x,1/2+y,1/2-z
1/2-x,1/2+y,z
1/2+x,1/2-y,1/2+z
loop_
_atom_site_type_symbol
_atom_site_label
_atom_site_fract_x
_atom_site_fract_y
_atom_site_fract_z
Si Si1 0.000000 0.961572 0.119450
Si Si2 0.000000 0.871796 0.012212
Si Si3 0.259455 0.447389 0.331798
Si Si4 0.869422 0.760200 0.164840
Si Si5 0.262129 0.653233 0.925637
Si Si6 0.749369 0.068999 0.330756
Si Si7 0.368684 0.155281 0.428672
Si Si8 0.500000 0.579094 0.365469
O O1 0.104705 0.945001 0.170623
O O2 0.000000 0.931612 0.042386
O O3 0.000000 0.022350 0.093713
O O4 0.886273 0.843117 0.038067
O O5 0.000000 0.873300 0.924255
O O6 0.213525 0.433745 0.250000
O O7 0.219553 0.403114 0.390959
O O8 0.223421 0.507592 0.354619
O O9 0.846996 0.748679 0.250000
O O10 0.774397 0.802960 0.138772
O O11 0.845660 0.706076 0.121474
O O12 0.000000 0.779863 0.152545
O O13 0.172156 0.667926 0.988581
O O14 0.694512 0.079669 0.250000
O O15 0.697436 0.105045 0.394581
O O16 0.883628 0.081515 0.319309
O O17 0.500000 0.140025 0.431318
#
# Coordination Sequence:
#
# PCOD8255391 Si02
#       8
#     8   8  16  16  16  16  16   8
#     4   8  16  24  45  77 117 149 173 215 274 347
#     4  10  17  28  50  84 114 142 172 216 291 342
#     4   9  18  31  52  83 115 148 182 227 287 344
#     4  10  21  38  62  89 112 140 182 234 289 342
#     4  11  20  36  58  87 116 143 179 234 288 345
#     4  10  20  35  55  80 114 151 189 232 281 336
#     4  11  24  40  58  80 111 156 200 238 269 314
#     4  10  16  30  49  79 115 145 179 220 280 345
#
# _framework density 19.366126000000001
#
# number of rings (size 3 to 8) (size 9 to 14) (size 15 to 20)
#    0.000    2.000    2.308    2.077    0.000    3.385 
#    0.000    1.538    0.000    2.769    0.000    0.000 
#    0.000    0.000    0.000    0.000    0.000    0.000 
#
# Total GULP energy -644401.389979 kJ/mol
# GULP energy per Si atom -12392.334423 kJ/mol
# Density = 1.932205 g / cm^3
# Si number density = 19.366126 Si / 1000 Ang^3
#
#
#
# Elastic Constant Matrix: (Units=GPa)
#
#
# Indices 1 2 3 4 5 6 
#
# 1 59.8267 31.3132 24.8339 0.0000 0.0000 0.0000
# 2 31.3132 90.7942 48.9594 0.0000 0.0000 0.0000
# 3 24.8339 48.9594 115.0855 0.0000 0.0000 0.0000
# 4 0.0000 0.0000 0.0000 34.2085 0.0000 0.0000
# 5 0.0000 0.0000 0.0000 0.0000 22.9409 0.0000
# 6 0.0000 0.0000 0.0000 0.0000 0.0000 21.8279
#
#
#
# Elastic Compliance Matrix: (Units=1/GPa)
#
#
# Indices 1 2 3 4 5 6 
#
# 1 0.020698 -0.006138 -0.001855 0.000000 0.000000 0.000000
# 2 -0.006138 0.016113 -0.005530 0.000000 0.000000 0.000000
# 3 -0.001855 -0.005530 0.011442 0.000000 0.000000 0.000000
# 4 0.000000 0.000000 0.000000 0.029233 0.000000 0.000000
# 5 0.000000 0.000000 0.000000 0.000000 0.043590 0.000000
# 6 0.000000 0.000000 0.000000 0.000000 0.000000 0.045813
#
#
# Mechanical properties :
#
#
# Convention : Reuss Voigt Hill
#
# Bulk Modulus (GPa) = 47.15606 52.87993 50.01800
# Shear Modulus (GPa) = 24.87522 26.50212 25.68867
#
# Velocity S-wave (km/s) = 3.58784 3.70331 3.64603
# Velocity P-wave (km/s) = 6.44718 6.75653 6.60366
#
# Compressibility (1/GPa) = 0.02120618
#
# Stress axis : x y z
#
# Youngs Moduli (GPa) = 48.31497 62.06236 87.39615
#
# Poissons Ratio (x) = 0.38093 0.16213
# Poissons Ratio (y) = 0.29655 0.48332
# Poissons Ratio (z) = 0.08963 0.34322
#
# Static dielectric constant tensor:
#      x y z
#    x 3.260540 0.000000 0.000000 
#    y 0.000000 3.460700 0.000000 
#    z 0.000000 0.000000 3.489030 
# 
# 
# High freq. dielectric constant tensor:
#      x y z
#    x 1.715930 0.000000 0.000000 
#    y 0.000000 1.748950 0.000000 
#    z 0.000000 0.000000 1.761250 
# 
# From -- ./inp_files/42843.got.cif
#   From: 2010.03.12/outbox.cif.g09.slc.cpg/sg63_22_cif.got.tgz:42843.got - 2010.04.10 19:34:48.
