data_PCOD8255268
_publ_section_title
;
Structure prediction by ZEFSAII (Michael W. Deem and Ramdas Pophale) SiO2 
 PCOD8255268
Probable space group: P N M A
;
_chemical_formula_sum "Si O2"
_cell_formula_units_Z 24
_cell_length_a 8.326325
_cell_length_b 24.418529
_cell_length_c 4.724405
_cell_angle_alpha 90.000000
_cell_angle_beta 90.000000
_cell_angle_gamma 90.000000
_cell_volume 960.550002
_symmetry_space_group_name_H-M "P N M A"
_symmetry_group_IT_number 62
_symmetry_cell_setting 'orthorhombic'
loop_
_space_group_symop_operation_xyz
x,y,z
1/2-x,-y,1/2+z
1/2+x,1/2-y,1/2-z
-x,1/2+y,-z
-x,-y,-z
1/2+x,y,1/2-z
1/2-x,1/2+y,1/2+z
x,1/2-y,z
loop_
_atom_site_type_symbol
_atom_site_label
_atom_site_fract_x
_atom_site_fract_y
_atom_site_fract_z
Si Si1 0.352627 0.355855 0.352366
Si Si2 0.840977 0.020773 0.349499
Si Si3 0.034270 0.313018 0.634566
O O1 0.495344 0.343516 0.573506
O O2 0.182416 0.343198 0.489078
O O3 0.362357 0.418278 0.260388
O O4 0.381308 0.318005 0.076110
O O5 0.802173 0.981941 0.081140
O O6 0.000000 0.000000 0.500000
O O7 0.074849 0.250000 0.695970
#
# Coordination Sequence:
#
# PCOD8255268 Si02
#       3
#     8   8   8
#     4  12  27  47  74 109 148 194 245 304 369 440
#     4  12  27  50  76 109 149 196 248 305 368 440
#     4  12  25  47  74 108 147 192 243 303 369 440
#
# _framework density 24.985690000000002
#
# number of rings (size 3 to 8) (size 9 to 14) (size 15 to 20)
#    0.000    0.000    0.000   10.000    0.000    5.333 
#    0.000    0.000    0.000    0.000    0.000    0.000 
#    0.000    0.000    0.000    0.000    0.000    0.000 
#
# Total GULP energy -297795.488412 kJ/mol
# GULP energy per Si atom -12408.145351 kJ/mol
# Density = 2.492882 g / cm^3
# Si number density = 24.985690 Si / 1000 Ang^3
#
#
#
# Elastic Constant Matrix: (Units=GPa)
#
#
# Indices 1 2 3 4 5 6 
#
# 1 61.0078 81.8775 22.6927 0.0000 0.0000 0.0000
# 2 81.8775 214.1377 103.7704 0.0000 0.0000 0.0000
# 3 22.6927 103.7704 156.7370 0.0000 0.0000 0.0000
# 4 0.0000 0.0000 0.0000 55.7231 0.0000 0.0000
# 5 0.0000 0.0000 0.0000 0.0000 59.3060 0.0000
# 6 0.0000 0.0000 0.0000 0.0000 0.0000 39.8094
#
#
#
# Elastic Compliance Matrix: (Units=1/GPa)
#
#
# Indices 1 2 3 4 5 6 
#
# 1 0.037049 -0.017031 0.005911 0.000000 0.000000 0.000000
# 2 -0.017031 0.014705 -0.007270 0.000000 0.000000 0.000000
# 3 0.005911 -0.007270 0.010337 0.000000 0.000000 0.000000
# 4 0.000000 0.000000 0.000000 0.017946 0.000000 0.000000
# 5 0.000000 0.000000 0.000000 0.000000 0.016862 0.000000
# 6 0.000000 0.000000 0.000000 0.000000 0.000000 0.025120
#
#
# Mechanical properties :
#
#
# Convention : Reuss Voigt Hill
#
# Bulk Modulus (GPa) = 39.50528 94.28486 66.89507
# Shear Modulus (GPa) = 29.89820 45.87051 37.88436
#
# Velocity S-wave (km/s) = 3.46296 4.28936 3.89812
# Velocity P-wave (km/s) = 5.64225 7.89613 6.86236
#
# Compressibility (1/GPa) = 0.02531307
#
# Stress axis : x y z
#
# Youngs Moduli (GPa) = 26.99114 68.00568 96.73724
#
# Poissons Ratio (x) = 1.15819 -0.57186
# Poissons Ratio (y) = 0.45968 0.70325
# Poissons Ratio (z) = -0.15956 0.49438
#
# Static dielectric constant tensor:
#      x y z
#    x 5.241490 0.000000 0.000000 
#    y 0.000000 1.580550 0.000000 
#    z 0.000000 0.000000 5.394400 
# 
# 
# High freq. dielectric constant tensor:
#      x y z
#    x 2.008960 0.000000 0.000000 
#    y 0.000000 1.995870 0.000000 
#    z 0.000000 0.000000 2.029450 
# 
# From -- ./inp_files/136.got.cif
#   From: 2010.03.12/outbox.cif.g09.slc.cpg/sg62_1_cif.got.tgz:136.got - 2010.04.10 19:12:36.
