data_PCOD8255850
_publ_section_title
;
Structure prediction by ZEFSAII (Michael W. Deem and Ramdas Pophale) SiO2 
 PCOD8255850
Probable space group: C M C M
;
_chemical_formula_sum "Si O2"
_cell_formula_units_Z 80
_cell_length_a 23.630597
_cell_length_b 25.359837
_cell_length_c 9.241250
_cell_angle_alpha 90.000000
_cell_angle_beta 90.000000
_cell_angle_gamma 90.000000
_cell_volume 5537.986219
_symmetry_space_group_name_H-M "C M C M"
_symmetry_group_IT_number 63
_symmetry_cell_setting 'orthorhombic'
loop_
_space_group_symop_operation_xyz
x,y,z
-x,-y,1/2+z
x,-y,-z
-x,y,1/2-z
-x,-y,-z
x,y,1/2-z
-x,y,z
x,-y,1/2+z
1/2+x,1/2+y,z
1/2-x,1/2-y,1/2+z
1/2+x,1/2-y,-z
1/2-x,1/2+y,1/2-z
1/2-x,1/2-y,-z
1/2+x,1/2+y,1/2-z
1/2-x,1/2+y,z
1/2+x,1/2-y,1/2+z
loop_
_atom_site_type_symbol
_atom_site_label
_atom_site_fract_x
_atom_site_fract_y
_atom_site_fract_z
Si Si1 0.180710 0.859009 0.414361
Si Si2 0.621195 0.248719 0.416586
Si Si3 0.000000 0.782889 0.081820
Si Si4 0.215673 0.294064 0.416585
Si Si5 0.616903 0.554355 0.420854
Si Si6 0.000000 0.892480 0.580971
O O1 0.166927 0.876705 0.250000
O O2 0.145282 0.806620 0.452323
O O3 0.248357 0.848168 0.431296
O O4 0.163788 0.904197 0.526053
O O5 0.631622 0.234455 0.250000
O O6 0.554905 0.248017 0.457383
O O7 0.653130 0.203868 0.511794
O O8 0.000000 0.798442 0.250000
O O9 0.000000 0.836977 0.996731
O O10 0.209722 0.277605 0.250000
O O11 0.250000 0.250000 0.500000
O O12 0.629313 0.500000 0.500000
O O13 0.622843 0.546707 0.250000
O O14 0.554727 0.574267 0.465900
O O15 0.000000 0.880589 0.750000
#
# Coordination Sequence:
#
# PCOD8255850 Si02
#       6
#    16  16   8  16  16   8
#     4   9  17  30  45  60  79 105 138 174 213 254
#     4   9  17  28  43  63  84 109 140 171 209 252
#     4  10  18  29  45  62  85 116 143 175 214 251
#     4   9  17  28  43  61  82 106 134 170 210 253
#     4  11  22  33  45  60  80 107 142 183 222 257
#     4  10  21  33  43  60  80 106 146 185 219 253
#
# _framework density 14.445684999999999
#
# number of rings (size 3 to 8) (size 9 to 14) (size 15 to 20)
#    0.000    2.400    2.000    2.700    0.000    5.600 
#    0.000    0.000    0.000    0.000    0.000    0.000 
#    0.000    0.000    0.000    0.900    0.000   11.600 
#
# Total GULP energy -495863.004908 kJ/mol
# GULP energy per Si atom -12396.575123 kJ/mol
# Density = 1.441281 g / cm^3
# Si number density = 14.445685 Si / 1000 Ang^3
#
#
#
# Elastic Constant Matrix: (Units=GPa)
#
#
# Indices 1 2 3 4 5 6 
#
# 1 107.1984 44.0684 48.6494 0.0000 0.0000 0.0000
# 2 44.0684 46.4808 36.7083 0.0000 0.0000 0.0000
# 3 48.6494 36.7083 75.0221 0.0000 0.0000 0.0000
# 4 0.0000 0.0000 0.0000 23.0852 0.0000 0.0000
# 5 0.0000 0.0000 0.0000 0.0000 24.4436 0.0000
# 6 0.0000 0.0000 0.0000 0.0000 0.0000 10.1563
#
#
#
# Elastic Compliance Matrix: (Units=1/GPa)
#
#
# Indices 1 2 3 4 5 6 
#
# 1 0.016326 -0.011600 -0.004911 0.000000 0.000000 0.000000
# 2 -0.011600 0.043306 -0.013667 0.000000 0.000000 0.000000
# 3 -0.004911 -0.013667 0.023201 0.000000 0.000000 0.000000
# 4 0.000000 0.000000 0.000000 0.043318 0.000000 0.000000
# 5 0.000000 0.000000 0.000000 0.000000 0.040910 0.000000
# 6 0.000000 0.000000 0.000000 0.000000 0.000000 0.098461
#
#
# Mechanical properties :
#
#
# Convention : Reuss Voigt Hill
#
# Bulk Modulus (GPa) = 44.49057 54.17260 49.33158
# Shear Modulus (GPa) = 14.99827 18.15538 16.57683
#
# Velocity S-wave (km/s) = 3.22569 3.54899 3.39119
# Velocity P-wave (km/s) = 6.68871 7.37401 7.03970
#
# Compressibility (1/GPa) = 0.02247667
#
# Stress axis : x y z
#
# Youngs Moduli (GPa) = 61.25226 23.09131 43.10091
#
# Poissons Ratio (x) = 0.26787 0.21166
# Poissons Ratio (y) = 0.71054 0.58908
# Poissons Ratio (z) = 0.30080 0.31560
#
# Static dielectric constant tensor:
#      x y z
#    x 3.309990 0.000000 0.000000 
#    y 0.000000 2.534730 0.000000 
#    z 0.000000 0.000000 2.960870 
# 
# 
# High freq. dielectric constant tensor:
#      x y z
#    x 1.550440 0.000000 0.000000 
#    y 0.000000 1.501780 0.000000 
#    z 0.000000 0.000000 1.564430 
# 
# From -- ./inp_files/8930.got.cif
#   From: 2010.03.12/outbox.cif.g09.slc.cpg/sg63_5_cif.got.tgz:8930.got - 2010.04.10 19:34:48.
