data_PCOD8255414
_publ_section_title
;
Structure prediction by ZEFSAII (Michael W. Deem and Ramdas Pophale) SiO2 
 PCOD8255414
Probable space group: C M C M
;
_chemical_formula_sum "Si O2"
_cell_formula_units_Z 88
_cell_length_a 14.341181
_cell_length_b 17.630688
_cell_length_c 20.103595
_cell_angle_alpha 90.000000
_cell_angle_beta 90.000000
_cell_angle_gamma 90.000000
_cell_volume 5083.091221
_symmetry_space_group_name_H-M "C M C M"
_symmetry_group_IT_number 63
_symmetry_cell_setting 'orthorhombic'
loop_
_space_group_symop_operation_xyz
x,y,z
-x,-y,1/2+z
x,-y,-z
-x,y,1/2-z
-x,-y,-z
x,y,1/2-z
-x,y,z
x,-y,1/2+z
1/2+x,1/2+y,z
1/2-x,1/2-y,1/2+z
1/2+x,1/2-y,-z
1/2-x,1/2+y,1/2-z
1/2-x,1/2-y,-z
1/2+x,1/2+y,1/2-z
1/2-x,1/2+y,z
1/2+x,1/2-y,1/2+z
loop_
_atom_site_type_symbol
_atom_site_label
_atom_site_fract_x
_atom_site_fract_y
_atom_site_fract_z
Si Si1 0.656295 0.185916 0.030498
Si Si2 0.500000 0.588457 0.978848
Si Si3 0.500000 0.176905 0.823120
Si Si4 0.183026 0.421164 0.172872
Si Si5 0.894640 0.470673 0.928595
Si Si6 0.000000 0.236055 0.053449
Si Si7 0.311300 0.344200 0.072180
O O1 0.607535 0.120319 0.072926
O O2 0.676369 0.253573 0.082630
O O3 0.590371 0.221933 0.974759
O O4 0.746148 0.149045 0.993730
O O5 0.407262 0.608922 0.937155
O O6 0.500000 0.500000 0.000000
O O7 0.500000 0.645551 0.042083
O O8 0.500000 0.210998 0.750000
O O9 0.589644 0.126071 0.836247
O O10 0.500000 0.251665 0.868017
O O11 0.205155 0.439395 0.250000
O O12 0.169978 0.498690 0.131048
O O13 0.267619 0.375131 0.140231
O O14 0.000000 0.499417 0.917732
O O15 0.857224 0.500000 0.000000
#
# Coordination Sequence:
#
# PCOD8255414 Si02
#       7
#    16   8   8  16  16   8  16
#     4  10  19  32  57  84 110 139 178 233 279 323
#     4  10  24  36  54  82 107 141 187 242 279 306
#     4  10  18  31  53  84 119 147 170 211 281 349
#     4  11  22  36  55  83 118 150 180 219 283 349
#     4  11  19  30  55  88 120 143 173 223 291 344
#     4  10  16  35  56  84 116 134 178 231 281 336
#     4  10  21  37  54  78 109 146 190 228 271 321
#
# _framework density 17.3123
#
# number of rings (size 3 to 8) (size 9 to 14) (size 15 to 20)
#    0.000    1.636    5.455    0.000    2.545    0.000 
#    0.000    1.364    0.000    3.273    0.000    0.000 
#    0.000    0.000    0.000    0.000    0.000    0.000 
#
# Total GULP energy -545362.053075 kJ/mol
# GULP energy per Si atom -12394.592115 kJ/mol
# Density = 1.727290 g / cm^3
# Si number density = 17.312300 Si / 1000 Ang^3
#
#
#
# Elastic Constant Matrix: (Units=GPa)
#
#
# Indices 1 2 3 4 5 6 
#
# 1 100.0196 35.0019 39.1629 0.0000 0.0000 0.0000
# 2 35.0019 125.0010 68.7210 0.0000 0.0000 0.0000
# 3 39.1629 68.7210 116.8681 0.0000 0.0000 0.0000
# 4 0.0000 0.0000 0.0000 24.0890 0.0000 0.0000
# 5 0.0000 0.0000 0.0000 0.0000 21.5350 0.0000
# 6 0.0000 0.0000 0.0000 0.0000 0.0000 25.5046
#
#
#
# Elastic Compliance Matrix: (Units=1/GPa)
#
#
# Indices 1 2 3 4 5 6 
#
# 1 0.011737 -0.001661 -0.002956 0.000000 0.000000 0.000000
# 2 -0.001661 0.012057 -0.006533 0.000000 0.000000 0.000000
# 3 -0.002956 -0.006533 0.013389 0.000000 0.000000 0.000000
# 4 0.000000 0.000000 0.000000 0.041513 0.000000 0.000000
# 5 0.000000 0.000000 0.000000 0.000000 0.046436 0.000000
# 6 0.000000 0.000000 0.000000 0.000000 0.000000 0.039209
#
#
# Mechanical properties :
#
#
# Convention : Reuss Voigt Hill
#
# Bulk Modulus (GPa) = 67.19703 69.74002 68.46852
# Shear Modulus (GPa) = 26.09590 27.49258 26.79424
#
# Velocity S-wave (km/s) = 3.88669 3.98934 3.93835
# Velocity P-wave (km/s) = 7.68379 7.84798 7.76632
#
# Compressibility (1/GPa) = 0.01488161
#
# Stress axis : x y z
#
# Youngs Moduli (GPa) = 85.20120 82.94183 74.68942
#
# Poissons Ratio (x) = 0.13779 0.22080
# Poissons Ratio (y) = 0.14154 0.48794
# Poissons Ratio (z) = 0.25187 0.54185
#
# Static dielectric constant tensor:
#      x y z
#    x 3.361860 0.000000 0.000000 
#    y 0.000000 3.297120 0.000000 
#    z 0.000000 0.000000 3.016170 
# 
# 
# High freq. dielectric constant tensor:
#      x y z
#    x 1.675620 0.000000 0.000000 
#    y 0.000000 1.668040 0.000000 
#    z 0.000000 0.000000 1.633350 
# 
# From -- ./inp_files/44145.got.cif
#   From: 2010.03.12/outbox.cif.g09.slc.cpg/sg63_23_cif.got.tgz:44145.got - 2010.04.10 19:34:48.
