data_PCOD8255168
_publ_section_title
;
Structure prediction by ZEFSAII (Michael W. Deem and Ramdas Pophale) SiO2 
 PCOD8255168
Probable space group: P N M A
;
_chemical_formula_sum "Si O2"
_cell_formula_units_Z 32
_cell_length_a 9.732494
_cell_length_b 8.622101
_cell_length_c 18.179615
_cell_angle_alpha 90.000000
_cell_angle_beta 90.000000
_cell_angle_gamma 90.000000
_cell_volume 1525.534144
_symmetry_space_group_name_H-M "P N M A"
_symmetry_group_IT_number 62
_symmetry_cell_setting 'orthorhombic'
loop_
_space_group_symop_operation_xyz
x,y,z
1/2-x,-y,1/2+z
1/2+x,1/2-y,1/2-z
-x,1/2+y,-z
-x,-y,-z
1/2+x,y,1/2-z
1/2-x,1/2+y,1/2+z
x,1/2-y,z
loop_
_atom_site_type_symbol
_atom_site_label
_atom_site_fract_x
_atom_site_fract_y
_atom_site_fract_z
Si Si1 0.994796 0.567079 0.212373
Si Si2 0.293329 0.567371 0.821353
Si Si3 0.907574 0.572290 0.936896
Si Si4 0.641580 0.927952 0.025694
O O1 0.991928 0.750000 0.218367
O O2 0.071523 0.497657 0.282544
O O3 0.072592 0.519716 0.138190
O O4 0.840485 0.504996 0.215964
O O5 0.287796 0.750000 0.812108
O O6 0.296193 0.523408 0.906785
O O7 0.952701 0.750000 0.924946
O O8 0.747899 0.560189 0.958381
O O9 0.000000 0.500000 0.000000
O O10 0.620055 0.750000 0.049735
O O11 0.500000 0.000000 0.000000
#
# Coordination Sequence:
#
# PCOD8255168 Si02
#       4
#     8   8   8   8
#     4  12  26  45  69  98 135 177 223 274 334 399
#     4  12  26  46  70  98 135 176 223 275 333 397
#     4  11  23  42  69  98 131 173 222 270 328 393
#     4  11  25  44  68  99 136 175 223 275 333 394
#
# _framework density 20.976258000000001
#
# number of rings (size 3 to 8) (size 9 to 14) (size 15 to 20)
#    0.000    0.500    2.500    6.000    3.500    3.000 
#    0.000    0.000    0.000    0.000    0.000    0.000 
#    0.000    0.000    0.000    0.000    0.000    0.000 
#
# Total GULP energy -397082.063623 kJ/mol
# GULP energy per Si atom -12408.814488 kJ/mol
# Density = 2.092852 g / cm^3
# Si number density = 20.976258 Si / 1000 Ang^3
#
#
#
# Elastic Constant Matrix: (Units=GPa)
#
#
# Indices 1 2 3 4 5 6 
#
# 1 127.3158 57.3331 10.7882 0.0000 0.0000 0.0000
# 2 57.3331 201.9256 23.9986 0.0000 0.0000 0.0000
# 3 10.7882 23.9986 52.9328 0.0000 0.0000 0.0000
# 4 0.0000 0.0000 0.0000 42.3590 0.0000 0.0000
# 5 0.0000 0.0000 0.0000 0.0000 43.7411 0.0000
# 6 0.0000 0.0000 0.0000 0.0000 0.0000 40.2778
#
#
#
# Elastic Compliance Matrix: (Units=1/GPa)
#
#
# Indices 1 2 3 4 5 6 
#
# 1 0.009032 -0.002479 -0.000717 0.000000 0.000000 0.000000
# 2 -0.002479 0.005915 -0.002176 0.000000 0.000000 0.000000
# 3 -0.000717 -0.002176 0.020025 0.000000 0.000000 0.000000
# 4 0.000000 0.000000 0.000000 0.023608 0.000000 0.000000
# 5 0.000000 0.000000 0.000000 0.000000 0.022862 0.000000
# 6 0.000000 0.000000 0.000000 0.000000 0.000000 0.024828
#
#
# Mechanical properties :
#
#
# Convention : Reuss Voigt Hill
#
# Bulk Modulus (GPa) = 41.27695 62.93491 52.10593
# Shear Modulus (GPa) = 39.97169 44.61253 42.29211
#
# Velocity S-wave (km/s) = 4.37002 4.61674 4.49507
# Velocity P-wave (km/s) = 6.72186 7.64769 7.19967
#
# Compressibility (1/GPa) = 0.02422659
#
# Stress axis : x y z
#
# Youngs Moduli (GPa) = 110.72166 169.06439 49.93834
#
# Poissons Ratio (x) = 0.41914 0.03579
# Poissons Ratio (y) = 0.27450 0.10869
# Poissons Ratio (z) = 0.07936 0.36795
#
# Static dielectric constant tensor:
#      x y z
#    x 2.015190 0.000000 0.000000 
#    y 0.000000 4.051240 0.000000 
#    z 0.000000 0.000000 3.864530 
# 
# 
# High freq. dielectric constant tensor:
#      x y z
#    x 1.838220 0.000000 0.000000 
#    y 0.000000 1.843890 0.000000 
#    z 0.000000 0.000000 1.824740 
# 
# From -- ./inp_files/25530.got.cif
#   From: 2010.03.12/outbox.cif.g09.slc.cpg/sg62_13_cif.got.tgz:25530.got - 2010.04.10 19:12:36.
