data_PCOD8255506
_publ_section_title
;
Structure prediction by ZEFSAII (Michael W. Deem and Ramdas Pophale) SiO2 
 PCOD8255506
Probable space group: C M C M
;
_chemical_formula_sum "Si O2"
_cell_formula_units_Z 96
_cell_length_a 9.143291
_cell_length_b 29.642058
_cell_length_c 20.998704
_cell_angle_alpha 90.000000
_cell_angle_beta 90.000000
_cell_angle_gamma 90.000000
_cell_volume 5691.193955
_symmetry_space_group_name_H-M "C M C M"
_symmetry_group_IT_number 63
_symmetry_cell_setting 'orthorhombic'
loop_
_space_group_symop_operation_xyz
x,y,z
-x,-y,1/2+z
x,-y,-z
-x,y,1/2-z
-x,-y,-z
x,y,1/2-z
-x,y,z
x,-y,1/2+z
1/2+x,1/2+y,z
1/2-x,1/2-y,1/2+z
1/2+x,1/2-y,-z
1/2-x,1/2+y,1/2-z
1/2-x,1/2-y,-z
1/2+x,1/2+y,1/2-z
1/2-x,1/2+y,z
1/2+x,1/2-y,1/2+z
loop_
_atom_site_type_symbol
_atom_site_label
_atom_site_fract_x
_atom_site_fract_y
_atom_site_fract_z
Si Si1 0.328887 0.388175 0.017388
Si Si2 0.173893 0.537443 0.447870
Si Si3 0.669490 0.001632 0.682376
Si Si4 0.669249 0.312921 0.319739
Si Si5 0.669310 0.100559 0.855114
Si Si6 0.168451 0.214330 0.956864
O O1 0.500000 0.398651 0.017763
O O2 0.255942 0.407907 0.080226
O O3 0.298459 0.334731 0.013614
O O4 0.251825 0.414506 0.959564
O O5 0.218738 0.500000 0.500000
O O6 0.239493 0.521365 0.379770
O O7 0.000000 0.544297 0.448064
O O8 0.735193 0.983341 0.750000
O O9 0.500000 0.989578 0.679232
O O10 0.689468 0.055393 0.684889
O O11 0.688602 0.288413 0.250000
O O12 0.500000 0.326493 0.330765
O O13 0.763837 0.358150 0.315752
O O14 0.718566 0.283509 0.381688
O O15 0.500000 0.110591 0.870489
O O16 0.000000 0.226893 0.961448
O O17 0.250000 0.250000 0.000000
#
# Coordination Sequence:
#
# PCOD8255506 Si02
#       6
#    16  16  16  16  16  16
#     4  10  20  33  49  72  99 128 163 202 252 298
#     4  10  18  31  49  71  96 127 169 206 238 282
#     4   9  17  28  43  65  96 129 161 202 245 280
#     4   9  18  32  48  70 103 134 158 194 247 304
#     4  10  17  28  46  70  99 129 164 199 238 290
#     4   9  19  34  52  74  98 126 161 202 249 298
#
# _framework density 16.868165000000001
#
# number of rings (size 3 to 8) (size 9 to 14) (size 15 to 20)
#    0.000    2.500    1.667    2.500    0.000    4.667 
#    0.000    0.000    0.000    3.500    0.000    7.000 
#    0.000    0.000    0.000    0.000    0.000    0.000 
#
# Total GULP energy -594722.086151 kJ/mol
# GULP energy per Si atom -12390.043461 kJ/mol
# Density = 1.682977 g / cm^3
# Si number density = 16.868165 Si / 1000 Ang^3
#
#
#
# Elastic Constant Matrix: (Units=GPa)
#
#
# Indices 1 2 3 4 5 6 
#
# 1 52.6460 35.1798 40.6801 0.0000 0.0000 0.0000
# 2 35.1798 66.1935 66.1072 0.0000 0.0000 0.0000
# 3 40.6801 66.1072 166.6239 0.0000 0.0000 0.0000
# 4 0.0000 0.0000 0.0000 17.3475 0.0000 0.0000
# 5 0.0000 0.0000 0.0000 0.0000 15.8994 0.0000
# 6 0.0000 0.0000 0.0000 0.0000 0.0000 27.9325
#
#
#
# Elastic Compliance Matrix: (Units=1/GPa)
#
#
# Indices 1 2 3 4 5 6 
#
# 1 0.029724 -0.014161 -0.001639 0.000000 0.000000 0.000000
# 2 -0.014161 0.031768 -0.009146 0.000000 0.000000 0.000000
# 3 -0.001639 -0.009146 0.010030 0.000000 0.000000 0.000000
# 4 0.000000 0.000000 0.000000 0.057645 0.000000 0.000000
# 5 0.000000 0.000000 0.000000 0.000000 0.062895 0.000000
# 6 0.000000 0.000000 0.000000 0.000000 0.000000 0.035801
#
#
# Mechanical properties :
#
#
# Convention : Reuss Voigt Hill
#
# Bulk Modulus (GPa) = 46.23165 63.26641 54.74903
# Shear Modulus (GPa) = 17.54601 21.80228 19.67415
#
# Velocity S-wave (km/s) = 3.22869 3.59905 3.41889
# Velocity P-wave (km/s) = 6.43167 7.40667 6.93632
#
# Compressibility (1/GPa) = 0.02163020
#
# Stress axis : x y z
#
# Youngs Moduli (GPa) = 33.64319 31.47842 99.69674
#
# Poissons Ratio (x) = 0.44576 0.16337
# Poissons Ratio (y) = 0.47641 0.91187
# Poissons Ratio (z) = 0.05513 0.28792
#
# Static dielectric constant tensor:
#      x y z
#    x 3.075300 0.000000 0.000000 
#    y 0.000000 2.932190 0.000000 
#    z 0.000000 0.000000 3.508260 
# 
# 
# High freq. dielectric constant tensor:
#      x y z
#    x 1.638470 0.000000 0.000000 
#    y 0.000000 1.614140 0.000000 
#    z 0.000000 0.000000 1.660460 
# 
# From -- ./inp_files/60223.got.cif
#   From: 2010.03.12/outbox.cif.g09.slc.cpg/sg63_31_cif.got.tgz:60223.got - 2010.04.10 19:34:48.
