data_PCOD8255239
_publ_section_title
;
Structure prediction by ZEFSAII (Michael W. Deem and Ramdas Pophale) SiO2 
 PCOD8255239
Probable space group: P N M A
;
_chemical_formula_sum "Si O2"
_cell_formula_units_Z 28
_cell_length_a 4.990608
_cell_length_b 16.889633
_cell_length_c 14.762822
_cell_angle_alpha 90.000000
_cell_angle_beta 90.000000
_cell_angle_gamma 90.000000
_cell_volume 1244.351440
_symmetry_space_group_name_H-M "P N M A"
_symmetry_group_IT_number 62
_symmetry_cell_setting 'orthorhombic'
loop_
_space_group_symop_operation_xyz
x,y,z
1/2-x,-y,1/2+z
1/2+x,1/2-y,1/2-z
-x,1/2+y,-z
-x,-y,-z
1/2+x,y,1/2-z
1/2-x,1/2+y,1/2+z
x,1/2-y,z
loop_
_atom_site_type_symbol
_atom_site_label
_atom_site_fract_x
_atom_site_fract_y
_atom_site_fract_z
Si Si1 0.715217 0.343012 0.052556
Si Si2 0.243195 0.750000 0.307676
Si Si3 0.177720 0.530351 0.811549
Si Si4 0.724700 0.386935 0.558760
O O1 0.672547 0.250000 0.067300
O O2 0.798425 0.380842 0.149046
O O3 0.437315 0.384385 0.022866
O O4 0.937390 0.359004 0.976670
O O5 0.553891 0.750000 0.279989
O O6 0.172643 0.827585 0.364333
O O7 0.391396 0.514716 0.733062
O O8 0.207603 0.473905 0.898787
#
# Coordination Sequence:
#
# PCOD8255239 Si02
#       4
#     8   4   8   8
#     4  12  24  44  69  97 129 176 221 265 325 391
#     4  12  22  36  62  94 130 164 200 262 322 378
#     4  12  26  44  67  97 133 173 219 274 324 380
#     4  12  23  44  65  97 133 170 222 260 328 398
#
# _framework density 22.501684000000001
#
# number of rings (size 3 to 8) (size 9 to 14) (size 15 to 20)
#    0.000    0.000    2.857    8.571    0.000    1.143 
#    0.000    0.000    0.000    0.000    0.000    0.000 
#    0.000    0.000    0.000    0.000    0.000    0.000 
#
# Total GULP energy -347484.082410 kJ/mol
# GULP energy per Si atom -12410.145800 kJ/mol
# Density = 2.245047 g / cm^3
# Si number density = 22.501684 Si / 1000 Ang^3
#
#
#
# Elastic Constant Matrix: (Units=GPa)
#
#
# Indices 1 2 3 4 5 6 
#
# 1 81.9094 10.9727 11.7921 0.0000 0.0000 0.0000
# 2 10.9727 98.5945 29.8179 0.0000 0.0000 0.0000
# 3 11.7921 29.8179 53.8822 0.0000 0.0000 0.0000
# 4 0.0000 0.0000 0.0000 40.4633 0.0000 0.0000
# 5 0.0000 0.0000 0.0000 0.0000 15.0982 0.0000
# 6 0.0000 0.0000 0.0000 0.0000 0.0000 27.5236
#
#
#
# Elastic Compliance Matrix: (Units=1/GPa)
#
#
# Indices 1 2 3 4 5 6 
#
# 1 0.012644 -0.000685 -0.002388 0.000000 0.000000 0.000000
# 2 -0.000685 0.012218 -0.006612 0.000000 0.000000 0.000000
# 3 -0.002388 -0.006612 0.022740 0.000000 0.000000 0.000000
# 4 0.000000 0.000000 0.000000 0.024714 0.000000 0.000000
# 5 0.000000 0.000000 0.000000 0.000000 0.066233 0.000000
# 6 0.000000 0.000000 0.000000 0.000000 0.000000 0.036333
#
#
# Mechanical properties :
#
#
# Convention : Reuss Voigt Hill
#
# Bulk Modulus (GPa) = 35.41882 37.72794 36.57338
# Shear Modulus (GPa) = 24.55041 28.73725 26.64383
#
# Velocity S-wave (km/s) = 3.30668 3.57755 3.44478
# Velocity P-wave (km/s) = 5.50941 5.81965 5.66665
#
# Compressibility (1/GPa) = 0.02823358
#
# Stress axis : x y z
#
# Youngs Moduli (GPa) = 79.08784 81.84422 43.97454
#
# Poissons Ratio (x) = 0.05606 0.10502
# Poissons Ratio (y) = 0.05417 0.29074
# Poissons Ratio (z) = 0.18887 0.54112
#
# Static dielectric constant tensor:
#      x y z
#    x 4.043050 0.000000 0.000000 
#    y 0.000000 4.111810 0.000000 
#    z 0.000000 0.000000 3.869760 
# 
# 
# High freq. dielectric constant tensor:
#      x y z
#    x 1.901470 0.000000 0.000000 
#    y 0.000000 1.895120 0.000000 
#    z 0.000000 0.000000 1.885580 
# 
# From -- ./inp_files/16061.got.cif
#   From: 2010.03.12/outbox.cif.g09.slc.cpg/sg62_9_cif.got.tgz:16061.got - 2010.04.10 19:12:36.
