data_PCOD8255586
_publ_section_title
;
Structure prediction by ZEFSAII (Michael W. Deem and Ramdas Pophale) SiO2 
 PCOD8255586
Probable space group: C M C M
;
_chemical_formula_sum "Si O2"
_cell_formula_units_Z 88
_cell_length_a 22.397808
_cell_length_b 15.702905
_cell_length_c 14.122403
_cell_angle_alpha 90.000000
_cell_angle_beta 90.000000
_cell_angle_gamma 90.000000
_cell_volume 4966.999556
_symmetry_space_group_name_H-M "C M C M"
_symmetry_group_IT_number 63
_symmetry_cell_setting 'orthorhombic'
loop_
_space_group_symop_operation_xyz
x,y,z
-x,-y,1/2+z
x,-y,-z
-x,y,1/2-z
-x,-y,-z
x,y,1/2-z
-x,y,z
x,-y,1/2+z
1/2+x,1/2+y,z
1/2-x,1/2-y,1/2+z
1/2+x,1/2-y,-z
1/2-x,1/2+y,1/2-z
1/2-x,1/2-y,-z
1/2+x,1/2+y,1/2-z
1/2-x,1/2+y,z
1/2+x,1/2-y,1/2+z
loop_
_atom_site_type_symbol
_atom_site_label
_atom_site_fract_x
_atom_site_fract_y
_atom_site_fract_z
Si Si1 0.834832 0.500000 0.500000
Si Si2 0.431498 0.296096 0.641218
Si Si3 0.271096 0.293474 0.094606
Si Si4 0.762965 0.385995 0.853937
Si Si5 0.349928 0.597380 0.026459
Si Si6 0.853455 0.633117 0.856106
O O1 0.795269 0.438328 0.564369
O O2 0.873462 0.558655 0.570781
O O3 0.421563 0.325318 0.750000
O O4 0.500000 0.271666 0.623528
O O5 0.413262 0.368977 0.565991
O O6 0.390650 0.215562 0.615839
O O7 0.287687 0.211446 0.158747
O O8 0.217832 0.350177 0.138500
O O9 0.250000 0.250000 0.000000
O O10 0.327454 0.353928 0.069335
O O11 0.769828 0.429107 0.750000
O O12 0.694002 0.385762 0.884760
O O13 0.357595 0.500000 0.000000
O O14 0.869445 0.603285 0.750000
#
# Coordination Sequence:
#
# PCOD8255586 Si02
#       6
#     8  16  16  16  16  16
#     4  12  20  32  47  80 109 136 162 214 258 318
#     4  10  21  37  55  73  96 136 184 219 252 299
#     4  10  17  31  51  73 105 140 165 204 256 311
#     4  11  19  30  48  73 109 142 166 199 255 312
#     4  11  19  32  52  76 108 134 166 216 260 304
#     4  11  20  34  54  75 107 142 171 213 259 306
#
# _framework density 17.716933000000001
#
# number of rings (size 3 to 8) (size 9 to 14) (size 15 to 20)
#    0.000    1.273    8.182    1.636    0.000    0.364 
#    0.000    3.182    0.000    0.000    0.000    0.000 
#    0.000   10.182    0.000    0.000    0.000    0.000 
#
# Total GULP energy -545255.555435 kJ/mol
# GULP energy per Si atom -12392.171714 kJ/mol
# Density = 1.767661 g / cm^3
# Si number density = 17.716933 Si / 1000 Ang^3
#
#
#
# Elastic Constant Matrix: (Units=GPa)
#
#
# Indices 1 2 3 4 5 6 
#
# 1 67.5099 31.6766 24.5229 0.0000 0.0000 0.0000
# 2 31.6766 117.4313 49.9733 0.0000 0.0000 0.0000
# 3 24.5229 49.9733 96.6803 0.0000 0.0000 0.0000
# 4 0.0000 0.0000 0.0000 24.6638 0.0000 0.0000
# 5 0.0000 0.0000 0.0000 0.0000 17.6036 0.0000
# 6 0.0000 0.0000 0.0000 0.0000 0.0000 8.4832
#
#
#
# Elastic Compliance Matrix: (Units=1/GPa)
#
#
# Indices 1 2 3 4 5 6 
#
# 1 0.017437 -0.003617 -0.002553 0.000000 0.000000 0.000000
# 2 -0.003617 0.011667 -0.005113 0.000000 0.000000 0.000000
# 3 -0.002553 -0.005113 0.013634 0.000000 0.000000 0.000000
# 4 0.000000 0.000000 0.000000 0.040545 0.000000 0.000000
# 5 0.000000 0.000000 0.000000 0.000000 0.056807 0.000000
# 6 0.000000 0.000000 0.000000 0.000000 0.000000 0.117880
#
#
# Mechanical properties :
#
#
# Convention : Reuss Voigt Hill
#
# Bulk Modulus (GPa) = 49.57540 54.88526 52.23033
# Shear Modulus (GPa) = 17.40576 21.84669 19.62623
#
# Velocity S-wave (km/s) = 3.13778 3.51536 3.33192
# Velocity P-wave (km/s) = 6.41641 6.89371 6.65934
#
# Compressibility (1/GPa) = 0.02017130
#
# Stress axis : x y z
#
# Youngs Moduli (GPa) = 57.34824 85.70984 73.34589
#
# Poissons Ratio (x) = 0.31002 0.18728
# Poissons Ratio (y) = 0.20743 0.37504
# Poissons Ratio (z) = 0.14643 0.43826
#
# Static dielectric constant tensor:
#      x y z
#    x 2.989260 0.000000 0.000000 
#    y 0.000000 3.843430 0.000000 
#    z 0.000000 0.000000 3.501940 
# 
# 
# High freq. dielectric constant tensor:
#      x y z
#    x 1.628910 0.000000 0.000000 
#    y 0.000000 1.695670 0.000000 
#    z 0.000000 0.000000 1.691040 
# 
# From -- ./inp_files/35236.got.cif
#   From: 2010.03.12/outbox.cif.g09.slc.cpg/sg63_18_cif.got.tgz:35236.got - 2010.04.10 19:34:48.
