data_PCOD8255417
_publ_section_title
;
Structure prediction by ZEFSAII (Michael W. Deem and Ramdas Pophale) SiO2 
 PCOD8255417
Probable space group: C M C M
;
_chemical_formula_sum "Si O2"
_cell_formula_units_Z 112
_cell_length_a 12.419498
_cell_length_b 23.456910
_cell_length_c 26.592750
_cell_angle_alpha 90.000000
_cell_angle_beta 90.000000
_cell_angle_gamma 90.000000
_cell_volume 7747.080954
_symmetry_space_group_name_H-M "C M C M"
_symmetry_group_IT_number 63
_symmetry_cell_setting 'orthorhombic'
loop_
_space_group_symop_operation_xyz
x,y,z
-x,-y,1/2+z
x,-y,-z
-x,y,1/2-z
-x,-y,-z
x,y,1/2-z
-x,y,z
x,-y,1/2+z
1/2+x,1/2+y,z
1/2-x,1/2-y,1/2+z
1/2+x,1/2-y,-z
1/2-x,1/2+y,1/2-z
1/2-x,1/2-y,-z
1/2+x,1/2+y,1/2-z
1/2-x,1/2+y,z
1/2+x,1/2-y,1/2+z
loop_
_atom_site_type_symbol
_atom_site_label
_atom_site_fract_x
_atom_site_fract_y
_atom_site_fract_z
Si Si1 0.372408 0.011483 0.603132
Si Si2 0.687486 0.112138 0.537875
Si Si3 0.627663 0.086083 0.694324
Si Si4 0.248598 0.721411 0.420674
Si Si5 0.878150 0.688253 0.627480
Si Si6 0.122428 0.613300 0.075515
Si Si7 0.125118 0.190500 0.983733
O O1 0.500000 0.018065 0.594555
O O2 0.334335 0.946521 0.597525
O O3 0.313025 0.048546 0.560290
O O4 0.337160 0.033799 0.658362
O O5 0.623509 0.155243 0.574232
O O6 0.627764 0.113407 0.484689
O O7 0.810352 0.133479 0.532018
O O8 0.678089 0.077917 0.750000
O O9 0.500000 0.087627 0.697462
O O10 0.667116 0.146113 0.670752
O O11 0.301624 0.756119 0.374402
O O12 0.196300 0.662891 0.400520
O O13 0.153492 0.757593 0.446576
O O14 0.344198 0.708859 0.459936
O O15 0.000000 0.707259 0.639115
O O16 0.000000 0.623088 0.092630
O O17 0.000000 0.176205 0.980342
#
# Coordination Sequence:
#
# PCOD8255417 Si02
#       7
#    16  16  16  16  16  16  16
#     4   9  16  25  39  58  78  99 124 156 191 225
#     4   9  16  24  37  56  77 102 131 161 185 216
#     4   8  14  25  41  60  77  91 113 150 196 237
#     4   9  17  24  35  53  75 103 132 157 177 215
#     4   9  15  24  39  57  77  99 123 155 192 223
#     4  10  17  24  36  54  79 109 132 152 181 218
#     4   9  16  25  36  51  74 105 134 158 185 211
#
# _framework density 14.457058
#
# number of rings (size 3 to 8) (size 9 to 14) (size 15 to 20)
#    0.000    3.000    0.000    4.286    0.000    1.143 
#    0.000    0.000    0.000    8.571    0.000    0.000 
#    0.000   56.571    0.000    0.000    0.000    0.000 
#
# Total GULP energy -694200.277001 kJ/mol
# GULP energy per Si atom -12396.433518 kJ/mol
# Density = 1.442415 g / cm^3
# Si number density = 14.457058 Si / 1000 Ang^3
#
#
#
# Elastic Constant Matrix: (Units=GPa)
#
#
# Indices 1 2 3 4 5 6 
#
# 1 61.0460 35.0240 6.7185 0.0000 0.0000 0.0000
# 2 35.0240 121.4467 33.5569 0.0000 0.0000 0.0000
# 3 6.7185 33.5569 57.4772 0.0000 0.0000 0.0000
# 4 0.0000 0.0000 0.0000 10.8221 0.0000 0.0000
# 5 0.0000 0.0000 0.0000 0.0000 8.7935 0.0000
# 6 0.0000 0.0000 0.0000 0.0000 0.0000 23.6001
#
#
#
# Elastic Compliance Matrix: (Units=1/GPa)
#
#
# Indices 1 2 3 4 5 6 
#
# 1 0.019699 -0.006015 0.001209 0.000000 0.000000 0.000000
# 2 -0.006015 0.011655 -0.006101 0.000000 0.000000 0.000000
# 3 0.001209 -0.006101 0.020819 0.000000 0.000000 0.000000
# 4 0.000000 0.000000 0.000000 0.092403 0.000000 0.000000
# 5 0.000000 0.000000 0.000000 0.000000 0.113721 0.000000
# 6 0.000000 0.000000 0.000000 0.000000 0.000000 0.042373
#
#
# Mechanical properties :
#
#
# Convention : Reuss Voigt Hill
#
# Bulk Modulus (GPa) = 32.93987 43.39650 38.16818
# Shear Modulus (GPa) = 15.03293 19.62117 17.32705
#
# Velocity S-wave (km/s) = 3.22814 3.68802 3.46572
# Velocity P-wave (km/s) = 6.06042 6.94392 6.51716
#
# Compressibility (1/GPa) = 0.03035835
#
# Stress axis : x y z
#
# Youngs Moduli (GPa) = 50.76376 85.80315 48.03322
#
# Poissons Ratio (x) = 0.51612 -0.05808
# Poissons Ratio (y) = 0.30535 0.29306
# Poissons Ratio (z) = -0.06138 0.52350
#
# Static dielectric constant tensor:
#      x y z
#    x 2.551780 0.000000 0.000000 
#    y 0.000000 2.967450 0.000000 
#    z 0.000000 0.000000 2.774890 
# 
# 
# High freq. dielectric constant tensor:
#      x y z
#    x 1.521290 0.000000 0.000000 
#    y 0.000000 1.555370 0.000000 
#    z 0.000000 0.000000 1.519410 
# 
# From -- ./inp_files/61949.got.cif
#   From: 2010.03.12/outbox.cif.g09.slc.cpg/sg63_31_cif.got.tgz:61949.got - 2010.04.10 19:34:48.
