data_PCOD8255948
_publ_section_title
;
Structure prediction by ZEFSAII (Michael W. Deem and Ramdas Pophale) SiO2 
 PCOD8255948
Probable space group: C M C M
;
_chemical_formula_sum "Si O2"
_cell_formula_units_Z 88
_cell_length_a 27.903560
_cell_length_b 24.212657
_cell_length_c 9.057543
_cell_angle_alpha 90.000000
_cell_angle_beta 90.000000
_cell_angle_gamma 90.000000
_cell_volume 6119.451109
_symmetry_space_group_name_H-M "C M C M"
_symmetry_group_IT_number 63
_symmetry_cell_setting 'orthorhombic'
loop_
_space_group_symop_operation_xyz
x,y,z
-x,-y,1/2+z
x,-y,-z
-x,y,1/2-z
-x,-y,-z
x,y,1/2-z
-x,y,z
x,-y,1/2+z
1/2+x,1/2+y,z
1/2-x,1/2-y,1/2+z
1/2+x,1/2-y,-z
1/2-x,1/2+y,1/2-z
1/2-x,1/2-y,-z
1/2+x,1/2+y,1/2-z
1/2-x,1/2+y,z
1/2+x,1/2-y,1/2+z
loop_
_atom_site_type_symbol
_atom_site_label
_atom_site_fract_x
_atom_site_fract_y
_atom_site_fract_z
Si Si1 0.946183 0.757927 0.079653
Si Si2 0.356767 0.711700 0.416231
Si Si3 0.422374 0.867734 0.578230
Si Si4 0.666924 0.840538 0.085478
Si Si5 0.733467 0.694673 0.922561
Si Si6 0.500000 0.059271 0.573674
O O1 0.934212 0.767738 0.250000
O O2 0.941442 0.693260 0.042479
O O3 0.000000 0.776891 0.039987
O O4 0.909465 0.795376 0.986664
O O5 0.358380 0.689371 0.250000
O O6 0.342475 0.775437 0.424965
O O7 0.317016 0.675618 0.505312
O O8 0.427928 0.882818 0.750000
O O9 0.366409 0.872679 0.531319
O O10 0.452509 0.909619 0.480035
O O11 0.654216 0.861564 0.250000
O O12 0.723744 0.850332 0.052561
O O13 0.725645 0.706245 0.750000
O O14 0.750000 0.750000 0.000000
O O15 0.500000 0.054768 0.750000
O O16 0.500000 0.000000 0.500000
#
# Coordination Sequence:
#
# PCOD8255948 Si02
#       6
#    16  16  16  16  16   8
#     4   9  16  26  38  51  68  90 115 144 175 208
#     4   9  16  23  32  48  68  89 113 138 167 202
#     4  10  18  30  44  58  71  84 108 137 171 213
#     4   8  15  25  36  52  69  87 108 131 164 202
#     4   9  15  23  34  48  67  88 110 134 162 199
#     4  12  24  36  48  58  72  90 110 140 178 220
#
# _framework density 14.380374
#
# number of rings (size 3 to 8) (size 9 to 14) (size 15 to 20)
#    0.000    2.727    0.909    3.545    0.000    6.182 
#    0.000    0.000    0.000    0.000    0.000    0.000 
#    0.000    0.000    0.000    0.000    0.000    0.000 
#
# Total GULP energy -545273.835647 kJ/mol
# GULP energy per Si atom -12392.587174 kJ/mol
# Density = 1.434764 g / cm^3
# Si number density = 14.380374 Si / 1000 Ang^3
#
#
#
# Elastic Constant Matrix: (Units=GPa)
#
#
# Indices 1 2 3 4 5 6 
#
# 1 129.3503 21.7175 63.5801 0.0000 0.0000 0.0000
# 2 21.7175 12.8536 18.3132 0.0000 0.0000 0.0000
# 3 63.5801 18.3132 103.6075 0.0000 0.0000 0.0000
# 4 0.0000 0.0000 0.0000 10.7165 0.0000 0.0000
# 5 0.0000 0.0000 0.0000 0.0000 30.4306 0.0000
# 6 0.0000 0.0000 0.0000 0.0000 0.0000 5.5449
#
#
#
# Elastic Compliance Matrix: (Units=1/GPa)
#
#
# Indices 1 2 3 4 5 6 
#
# 1 0.012672 -0.013809 -0.005336 0.000000 0.000000 0.000000
# 2 -0.013809 0.119034 -0.012566 0.000000 0.000000 0.000000
# 3 -0.005336 -0.012566 0.015147 0.000000 0.000000 0.000000
# 4 0.000000 0.000000 0.000000 0.093314 0.000000 0.000000
# 5 0.000000 0.000000 0.000000 0.000000 0.032862 0.000000
# 6 0.000000 0.000000 0.000000 0.000000 0.000000 0.180345
#
#
# Mechanical properties :
#
#
# Convention : Reuss Voigt Hill
#
# Bulk Modulus (GPa) = 11.98570 50.33697 31.16133
# Shear Modulus (GPa) = 9.18095 18.81844 13.99969
#
# Velocity S-wave (km/s) = 2.52947 3.62141 3.12353
# Velocity P-wave (km/s) = 4.10899 7.25025 5.89279
#
# Compressibility (1/GPa) = 0.08343277
#
# Stress axis : x y z
#
# Youngs Moduli (GPa) = 78.91407 8.40093 66.01898
#
# Poissons Ratio (x) = 0.11601 0.35225
# Poissons Ratio (y) = 1.08971 0.82959
# Poissons Ratio (z) = 0.42105 0.10557
#
# Static dielectric constant tensor:
#      x y z
#    x 3.631170 0.000000 0.000000 
#    y 0.000000 2.175790 0.000000 
#    z 0.000000 0.000000 2.967100 
# 
# 
# High freq. dielectric constant tensor:
#      x y z
#    x 1.570030 0.000000 0.000000 
#    y 0.000000 1.447230 0.000000 
#    z 0.000000 0.000000 1.566170 
# 
# From -- ./inp_files/14344.got.cif
#   From: 2010.03.12/outbox.cif.g09.slc.cpg/sg63_8_cif.got.tgz:14344.got - 2010.04.10 19:34:48.
