data_PCOD8255904
_publ_section_title
;
Structure prediction by ZEFSAII (Michael W. Deem and Ramdas Pophale) SiO2 
 PCOD8255904
Probable space group: C M C M
;
_chemical_formula_sum "Si O2"
_cell_formula_units_Z 112
_cell_length_a 14.106389
_cell_length_b 18.270369
_cell_length_c 25.810686
_cell_angle_alpha 90.000000
_cell_angle_beta 90.000000
_cell_angle_gamma 90.000000
_cell_volume 6652.160544
_symmetry_space_group_name_H-M "C M C M"
_symmetry_group_IT_number 63
_symmetry_cell_setting 'orthorhombic'
loop_
_space_group_symop_operation_xyz
x,y,z
-x,-y,1/2+z
x,-y,-z
-x,y,1/2-z
-x,-y,-z
x,y,1/2-z
-x,y,z
x,-y,1/2+z
1/2+x,1/2+y,z
1/2-x,1/2-y,1/2+z
1/2+x,1/2-y,-z
1/2-x,1/2+y,1/2-z
1/2-x,1/2-y,-z
1/2+x,1/2+y,1/2-z
1/2-x,1/2+y,z
1/2+x,1/2-y,1/2+z
loop_
_atom_site_type_symbol
_atom_site_label
_atom_site_fract_x
_atom_site_fract_y
_atom_site_fract_z
Si Si1 0.895629 0.650594 0.533446
Si Si2 0.108888 0.098036 0.113224
Si Si3 0.607114 0.468001 0.190686
Si Si4 0.109520 0.261643 0.129431
Si Si5 0.269721 0.932732 0.539093
Si Si6 0.105263 0.482502 0.387234
Si Si7 0.291255 0.114469 0.810039
O O1 0.870364 0.721065 0.568602
O O2 0.817032 0.637209 0.489371
O O3 0.897959 0.581769 0.571307
O O4 0.000000 0.659582 0.507695
O O5 0.135272 0.036363 0.154906
O O6 0.130488 0.176524 0.139380
O O7 0.166896 0.088802 0.060149
O O8 0.000000 0.093327 0.096265
O O9 0.616059 0.494736 0.250000
O O10 0.500000 0.440792 0.178720
O O11 0.679145 0.400794 0.180056
O O12 0.180345 0.307955 0.165297
O O13 0.000000 0.282247 0.142690
O O14 0.258408 0.000000 0.500000
O O15 0.334349 0.951522 0.588743
O O16 0.150750 0.452995 0.334308
O O17 0.000000 0.511704 0.375160
O O18 0.316496 0.117355 0.750000
#
# Coordination Sequence:
#
# PCOD8255904 Si02
#       7
#    16  16  16  16  16  16  16
#     4   8  15  28  46  66  93 128 164 197 233 287
#     4  10  20  34  50  71 102 132 160 203 250 291
#     4   9  18  33  53  74  96 128 168 201 233 287
#     4   9  19  33  49  72 102 130 159 200 250 294
#     4  10  18  29  48  70  94 131 169 202 242 284
#     4   9  16  27  44  71 100 124 157 198 241 286
#     4  10  18  30  51  77  98 122 159 201 247 290
#
# _framework density 16.836635000000001
#
# number of rings (size 3 to 8) (size 9 to 14) (size 15 to 20)
#    0.000    2.714    1.429    1.714    0.000    4.286 
#    0.000    1.429    0.000    1.714    0.000    0.000 
#    0.000    0.000    0.000    0.000    0.000    0.000 
#
# Total GULP energy -694193.563591 kJ/mol
# GULP energy per Si atom -12396.313636 kJ/mol
# Density = 1.679831 g / cm^3
# Si number density = 16.836635 Si / 1000 Ang^3
#
#
#
# Elastic Constant Matrix: (Units=GPa)
#
#
# Indices 1 2 3 4 5 6 
#
# 1 110.4057 42.8635 58.5674 0.0000 0.0000 0.0000
# 2 42.8635 60.7522 29.3574 0.0000 0.0000 0.0000
# 3 58.5674 29.3574 80.1310 0.0000 0.0000 0.0000
# 4 0.0000 0.0000 0.0000 14.2268 0.0000 0.0000
# 5 0.0000 0.0000 0.0000 0.0000 31.2565 0.0000
# 6 0.0000 0.0000 0.0000 0.0000 0.0000 19.4569
#
#
#
# Elastic Compliance Matrix: (Units=1/GPa)
#
#
# Indices 1 2 3 4 5 6 
#
# 1 0.017113 -0.007327 -0.009824 0.000000 0.000000 0.000000
# 2 -0.007327 0.023139 -0.003122 0.000000 0.000000 0.000000
# 3 -0.009824 -0.003122 0.020803 0.000000 0.000000 0.000000
# 4 0.000000 0.000000 0.000000 0.070290 0.000000 0.000000
# 5 0.000000 0.000000 0.000000 0.000000 0.031993 0.000000
# 6 0.000000 0.000000 0.000000 0.000000 0.000000 0.051396
#
#
# Mechanical properties :
#
#
# Convention : Reuss Voigt Hill
#
# Bulk Modulus (GPa) = 48.75670 56.98504 52.87087
# Shear Modulus (GPa) = 19.07551 21.02141 20.04846
#
# Velocity S-wave (km/s) = 3.36962 3.53732 3.45449
# Velocity P-wave (km/s) = 6.64535 7.11357 6.88344
#
# Compressibility (1/GPa) = 0.02051000
#
# Stress axis : x y z
#
# Youngs Moduli (GPa) = 58.43391 43.21793 48.06921
#
# Poissons Ratio (x) = 0.31667 0.47221
# Poissons Ratio (y) = 0.42816 0.15006
# Poissons Ratio (z) = 0.57403 0.13492
#
# Static dielectric constant tensor:
#      x y z
#    x 3.317760 0.000000 0.000000 
#    y 0.000000 2.981830 0.000000 
#    z 0.000000 0.000000 3.106130 
# 
# 
# High freq. dielectric constant tensor:
#      x y z
#    x 1.655020 0.000000 0.000000 
#    y 0.000000 1.622110 0.000000 
#    z 0.000000 0.000000 1.637760 
# 
# From -- ./inp_files/68617.got.cif
#   From: 2010.03.12/outbox.cif.g09.slc.cpg/sg63_35_cif.got.tgz:68617.got - 2010.04.10 19:34:48.
