data_PCOD8255299
_publ_section_title
;
Structure prediction by ZEFSAII (Michael W. Deem and Ramdas Pophale) SiO2 
 PCOD8255299
Probable space group: P N M A
;
_chemical_formula_sum "Si O2"
_cell_formula_units_Z 48
_cell_length_a 12.634365
_cell_length_b 13.184990
_cell_length_c 17.141510
_cell_angle_alpha 90.000000
_cell_angle_beta 90.000000
_cell_angle_gamma 90.000000
_cell_volume 2855.500894
_symmetry_space_group_name_H-M "P N M A"
_symmetry_group_IT_number 62
_symmetry_cell_setting 'orthorhombic'
loop_
_space_group_symop_operation_xyz
x,y,z
1/2-x,-y,1/2+z
1/2+x,1/2-y,1/2-z
-x,1/2+y,-z
-x,-y,-z
1/2+x,y,1/2-z
1/2-x,1/2+y,1/2+z
x,1/2-y,z
loop_
_atom_site_type_symbol
_atom_site_label
_atom_site_fract_x
_atom_site_fract_y
_atom_site_fract_z
Si Si1 0.622881 0.013297 0.230365
Si Si2 0.213065 0.132121 0.126830
Si Si3 0.973947 0.366980 0.842981
Si Si4 0.660732 0.977918 0.648660
Si Si5 0.571047 0.634108 0.792944
Si Si6 0.618090 0.971035 0.480758
O O1 0.582888 0.906496 0.264612
O O2 0.645586 0.091991 0.300264
O O3 0.722725 0.990144 0.176328
O O4 0.528286 0.065211 0.180901
O O5 0.185786 0.250000 0.113141
O O6 0.337173 0.115964 0.143803
O O7 0.182633 0.068989 0.050017
O O8 0.999725 0.250000 0.833321
O O9 0.890619 0.384544 0.914275
O O10 0.085946 0.423378 0.854978
O O11 0.611388 0.894635 0.706185
O O12 0.671711 0.931563 0.561063
O O13 0.535158 0.750000 0.791123
O O14 0.500000 0.000000 0.500000
#
# Coordination Sequence:
#
# PCOD8255299 Si02
#       6
#     8   8   8   8   8   8
#     4   9  17  30  48  70  93 119 156 192 225 271
#     4   9  17  30  48  69  95 123 149 185 233 277
#     4   9  18  31  45  64  93 125 155 190 229 269
#     4   9  18  31  47  70  94 120 154 190 229 272
#     4   9  17  30  49  71  94 120 150 189 234 274
#     4   9  18  30  45  68  93 119 152 188 230 273
#
# _framework density 16.809660999999998
#
# number of rings (size 3 to 8) (size 9 to 14) (size 15 to 20)
#    0.000    3.000    0.000    1.500    0.000    4.667 
#    0.000    0.833    0.000    0.000    0.000    0.000 
#    0.000    0.000    0.000    0.000    0.000    0.000 
#
# Total GULP energy -594973.561567 kJ/mol
# GULP energy per Si atom -12395.282533 kJ/mol
# Density = 1.677140 g / cm^3
# Si number density = 16.809661 Si / 1000 Ang^3
#
#
#
# Elastic Constant Matrix: (Units=GPa)
#
#
# Indices 1 2 3 4 5 6 
#
# 1 92.7193 38.7560 42.6535 0.0000 0.0000 0.0000
# 2 38.7560 86.9616 27.7762 0.0000 0.0000 0.0000
# 3 42.6535 27.7762 78.6453 0.0000 0.0000 0.0000
# 4 0.0000 0.0000 0.0000 13.5547 0.0000 0.0000
# 5 0.0000 0.0000 0.0000 0.0000 24.8139 0.0000
# 6 0.0000 0.0000 0.0000 0.0000 0.0000 19.0264
#
#
#
# Elastic Compliance Matrix: (Units=1/GPa)
#
#
# Indices 1 2 3 4 5 6 
#
# 1 0.016049 -0.004928 -0.006963 0.000000 0.000000 0.000000
# 2 -0.004928 0.014475 -0.002439 0.000000 0.000000 0.000000
# 3 -0.006963 -0.002439 0.017354 0.000000 0.000000 0.000000
# 4 0.000000 0.000000 0.000000 0.073775 0.000000 0.000000
# 5 0.000000 0.000000 0.000000 0.000000 0.040300 0.000000
# 6 0.000000 0.000000 0.000000 0.000000 0.000000 0.052559
#
#
# Mechanical properties :
#
#
# Convention : Reuss Voigt Hill
#
# Bulk Modulus (GPa) = 52.04319 52.96638 52.50478
# Shear Modulus (GPa) = 20.03384 21.42170 20.72777
#
# Velocity S-wave (km/s) = 3.45600 3.57370 3.51534
# Velocity P-wave (km/s) = 6.85221 6.97183 6.91227
#
# Compressibility (1/GPa) = 0.01921481
#
# Stress axis : x y z
#
# Youngs Moduli (GPa) = 62.31104 69.08549 57.62522
#
# Poissons Ratio (x) = 0.34046 0.40127
# Poissons Ratio (y) = 0.30708 0.14057
# Poissons Ratio (z) = 0.43390 0.16853
#
# Static dielectric constant tensor:
#      x y z
#    x 3.285580 0.000000 0.000000 
#    y 0.000000 2.949020 0.000000 
#    z 0.000000 0.000000 3.434180 
# 
# 
# High freq. dielectric constant tensor:
#      x y z
#    x 1.649070 0.000000 0.000000 
#    y 0.000000 1.630970 0.000000 
#    z 0.000000 0.000000 1.630950 
# 
# From -- ./inp_files/23033.got.cif
#   From: 2010.03.12/outbox.cif.g09.slc.cpg/sg62_12_cif.got.tgz:23033.got - 2010.04.10 19:12:36.
