data_PCOD8255726
_publ_section_title
;
Structure prediction by ZEFSAII (Michael W. Deem and Ramdas Pophale) SiO2 
 PCOD8255726
Probable space group: C M C M
;
_chemical_formula_sum "Si O2"
_cell_formula_units_Z 96
_cell_length_a 26.023278
_cell_length_b 28.765879
_cell_length_c 9.038333
_cell_angle_alpha 90.000000
_cell_angle_beta 90.000000
_cell_angle_gamma 90.000000
_cell_volume 6765.937607
_symmetry_space_group_name_H-M "C M C M"
_symmetry_group_IT_number 63
_symmetry_cell_setting 'orthorhombic'
loop_
_space_group_symop_operation_xyz
x,y,z
-x,-y,1/2+z
x,-y,-z
-x,y,1/2-z
-x,-y,-z
x,y,1/2-z
-x,y,z
x,-y,1/2+z
1/2+x,1/2+y,z
1/2-x,1/2-y,1/2+z
1/2+x,1/2-y,-z
1/2-x,1/2+y,1/2-z
1/2-x,1/2-y,-z
1/2+x,1/2+y,1/2-z
1/2-x,1/2+y,z
1/2+x,1/2-y,1/2+z
loop_
_atom_site_type_symbol
_atom_site_label
_atom_site_fract_x
_atom_site_fract_y
_atom_site_fract_z
Si Si1 0.275899 0.452939 0.923687
Si Si2 0.751411 0.860174 0.425173
Si Si3 0.644729 0.306556 0.081309
Si Si4 0.104160 0.953957 0.578439
Si Si5 0.793236 0.720438 0.421710
Si Si6 0.942161 0.858497 0.925022
O O1 0.263477 0.454122 0.750000
O O2 0.336042 0.446759 0.955619
O O3 0.255662 0.500000 0.000000
O O4 0.246568 0.410538 0.001202
O O5 0.744204 0.863690 0.250000
O O6 0.805755 0.836616 0.469241
O O7 0.704892 0.829189 0.494547
O O8 0.632231 0.318923 0.250000
O O9 0.654768 0.251043 0.062607
O O10 0.595198 0.318706 0.985062
O O11 0.093153 0.960569 0.750000
O O12 0.074555 0.909141 0.514396
O O13 0.082638 0.000000 0.500000
O O14 0.779340 0.712828 0.250000
O O15 0.750000 0.750000 0.500000
O O16 0.937523 0.858255 0.750000
O O17 0.000000 0.847860 0.978029
#
# Coordination Sequence:
#
# PCOD8255726 Si02
#       6
#    16  16  16  16  16  16
#     4  10  18  28  42  59  80 108 135 168 206 243
#     4  10  18  28  43  63  82 103 131 163 198 244
#     4   9  18  30  43  59  79 100 127 163 201 244
#     4   9  18  30  42  56  72  96 129 168 211 250
#     4   9  17  28  42  62  82 101 125 158 199 242
#     4  10  20  32  44  58  76 100 132 169 211 254
#
# _framework density 14.18872
#
# number of rings (size 3 to 8) (size 9 to 14) (size 15 to 20)
#    0.000    2.500    1.667    2.500    0.000    5.333 
#    0.000    0.000    0.000    0.000    0.000    0.000 
#    0.000    0.000    0.000    0.000    0.000    0.833 
#
# Total GULP energy -595046.355809 kJ/mol
# GULP energy per Si atom -12396.799079 kJ/mol
# Density = 1.415643 g / cm^3
# Si number density = 14.188720 Si / 1000 Ang^3
#
#
#
# Elastic Constant Matrix: (Units=GPa)
#
#
# Indices 1 2 3 4 5 6 
#
# 1 39.7304 43.1832 25.1880 0.0000 0.0000 0.0000
# 2 43.1832 116.1452 52.5544 0.0000 0.0000 0.0000
# 3 25.1880 52.5544 68.0818 0.0000 0.0000 0.0000
# 4 0.0000 0.0000 0.0000 29.6709 0.0000 0.0000
# 5 0.0000 0.0000 0.0000 0.0000 16.3120 0.0000
# 6 0.0000 0.0000 0.0000 0.0000 0.0000 17.7808
#
#
#
# Elastic Compliance Matrix: (Units=1/GPa)
#
#
# Indices 1 2 3 4 5 6 
#
# 1 0.043564 -0.013684 -0.005554 0.000000 0.000000 0.000000
# 2 -0.013684 0.017530 -0.008469 0.000000 0.000000 0.000000
# 3 -0.005554 -0.008469 0.023281 0.000000 0.000000 0.000000
# 4 0.000000 0.000000 0.000000 0.033703 0.000000 0.000000
# 5 0.000000 0.000000 0.000000 0.000000 0.061305 0.000000
# 6 0.000000 0.000000 0.000000 0.000000 0.000000 0.056240
#
#
# Mechanical properties :
#
#
# Convention : Reuss Voigt Hill
#
# Bulk Modulus (GPa) = 34.53048 51.75651 43.14350
# Shear Modulus (GPa) = 16.62835 19.62153 18.12494
#
# Velocity S-wave (km/s) = 3.42708 3.72277 3.57798
# Velocity P-wave (km/s) = 6.32845 7.41856 6.89508
#
# Compressibility (1/GPa) = 0.02895992
#
# Stress axis : x y z
#
# Youngs Moduli (GPa) = 22.95463 57.04506 42.95406
#
# Poissons Ratio (x) = 0.78062 0.23857
# Poissons Ratio (y) = 0.31412 0.36379
# Poissons Ratio (z) = 0.12749 0.48313
#
# Static dielectric constant tensor:
#      x y z
#    x 2.478540 0.000000 0.000000 
#    y 0.000000 2.983760 0.000000 
#    z 0.000000 0.000000 2.872240 
# 
# 
# High freq. dielectric constant tensor:
#      x y z
#    x 1.482350 0.000000 0.000000 
#    y 0.000000 1.542240 0.000000 
#    z 0.000000 0.000000 1.553840 
# 
# From -- ./inp_files/10736.got.cif
#   From: 2010.03.12/outbox.cif.g09.slc.cpg/sg63_6_cif.got.tgz:10736.got - 2010.04.10 19:34:48.
