data_PCOD8255799
_publ_section_title
;
Structure prediction by ZEFSAII (Michael W. Deem and Ramdas Pophale) SiO2 
 PCOD8255799
Probable space group: C M C M
;
_chemical_formula_sum "Si O2"
_cell_formula_units_Z 80
_cell_length_a 8.367161
_cell_length_b 20.718225
_cell_length_c 25.086458
_cell_angle_alpha 90.000000
_cell_angle_beta 90.000000
_cell_angle_gamma 90.000000
_cell_volume 4348.805835
_symmetry_space_group_name_H-M "C M C M"
_symmetry_group_IT_number 63
_symmetry_cell_setting 'orthorhombic'
loop_
_space_group_symop_operation_xyz
x,y,z
-x,-y,1/2+z
x,-y,-z
-x,y,1/2-z
-x,-y,-z
x,y,1/2-z
-x,y,z
x,-y,1/2+z
1/2+x,1/2+y,z
1/2-x,1/2-y,1/2+z
1/2+x,1/2-y,-z
1/2-x,1/2+y,1/2-z
1/2-x,1/2-y,-z
1/2+x,1/2+y,1/2-z
1/2-x,1/2+y,z
1/2+x,1/2-y,1/2+z
loop_
_atom_site_type_symbol
_atom_site_label
_atom_site_fract_x
_atom_site_fract_y
_atom_site_fract_z
Si Si1 0.686415 0.380193 0.750000
Si Si2 0.188487 0.390840 0.639895
Si Si3 0.690632 0.743621 0.862815
Si Si4 0.683645 0.740787 0.750000
Si Si5 0.810738 0.188053 0.970112
Si Si6 0.310124 0.563299 0.469171
O O1 0.500000 0.362339 0.750000
O O2 0.730806 0.417632 0.805078
O O3 0.800447 0.317950 0.750000
O O4 0.248960 0.317458 0.627922
O O5 0.242941 0.435756 0.590805
O O6 0.000000 0.395072 0.646101
O O7 0.500000 0.745248 0.860589
O O8 0.760092 0.716124 0.806001
O O9 0.751254 0.695740 0.909109
O O10 0.500000 0.721005 0.750000
O O11 0.000000 0.186366 0.971619
O O12 0.750000 0.250000 0.000000
O O13 0.740711 0.123804 0.997053
O O14 0.248911 0.500000 0.500000
O O15 0.500000 0.564989 0.466348
#
# Coordination Sequence:
#
# PCOD8255799 Si02
#       6
#     8  16  16   8  16  16
#     4  10  18  28  46  73 102 129 159 199 255 305
#     4  10  18  31  50  72  98 128 168 211 250 296
#     4   8  14  25  44  68  92 119 155 203 247 291
#     4   8  14  26  42  65  96 123 153 197 251 299
#     4  10  18  30  48  70  96 128 167 208 252 298
#     4  10  21  34  48  70 104 140 171 210 259 306
#
# _framework density 18.395852999999999
#
# number of rings (size 3 to 8) (size 9 to 14) (size 15 to 20)
#    0.000    2.600    2.000    2.700    0.000    0.400 
#    0.000    0.000    0.000    1.200    0.000    5.600 
#    0.000    0.000    0.000    0.000    0.000    0.000 
#
# Total GULP energy -495541.639452 kJ/mol
# GULP energy per Si atom -12388.540986 kJ/mol
# Density = 1.835398 g / cm^3
# Si number density = 18.395853 Si / 1000 Ang^3
#
#
#
# Elastic Constant Matrix: (Units=GPa)
#
#
# Indices 1 2 3 4 5 6 
#
# 1 28.2811 14.5124 21.6484 0.0000 0.0000 0.0000
# 2 14.5124 83.0587 64.2069 0.0000 0.0000 0.0000
# 3 21.6484 64.2069 212.1643 0.0000 0.0000 0.0000
# 4 0.0000 0.0000 0.0000 23.7666 0.0000 0.0000
# 5 0.0000 0.0000 0.0000 0.0000 24.9203 0.0000
# 6 0.0000 0.0000 0.0000 0.0000 0.0000 12.6932
#
#
#
# Elastic Compliance Matrix: (Units=1/GPa)
#
#
# Indices 1 2 3 4 5 6 
#
# 1 0.039879 -0.004990 -0.002559 0.000000 0.000000 0.000000
# 2 -0.004990 0.016341 -0.004436 0.000000 0.000000 0.000000
# 3 -0.002559 -0.004436 0.006317 0.000000 0.000000 0.000000
# 4 0.000000 0.000000 0.000000 0.042076 0.000000 0.000000
# 5 0.000000 0.000000 0.000000 0.000000 0.040128 0.000000
# 6 0.000000 0.000000 0.000000 0.000000 0.000000 0.078782
#
#
# Mechanical properties :
#
#
# Convention : Reuss Voigt Hill
#
# Bulk Modulus (GPa) = 25.92899 58.24883 42.08891
# Shear Modulus (GPa) = 19.20515 27.15181 23.17848
#
# Velocity S-wave (km/s) = 3.23459 3.84601 3.55348
# Velocity P-wave (km/s) = 5.29866 7.17323 6.30599
#
# Compressibility (1/GPa) = 0.03856687
#
# Stress axis : x y z
#
# Youngs Moduli (GPa) = 25.07614 61.19708 158.30521
#
# Poissons Ratio (x) = 0.30534 0.40511
# Poissons Ratio (y) = 0.12512 0.70225
# Poissons Ratio (z) = 0.06417 0.27147
#
# Static dielectric constant tensor:
#      x y z
#    x 3.081270 0.000000 0.000000 
#    y 0.000000 3.094770 0.000000 
#    z 0.000000 0.000000 4.410460 
# 
# 
# High freq. dielectric constant tensor:
#      x y z
#    x 1.689810 0.000000 0.000000 
#    y 0.000000 1.648790 0.000000 
#    z 0.000000 0.000000 1.747760 
# 
# From -- ./inp_files/59546.got.cif
#   From: 2010.03.12/outbox.cif.g09.slc.cpg/sg63_30_cif.got.tgz:59546.got - 2010.04.10 19:34:48.
