data_PCOD8255359
_publ_section_title
;
Structure prediction by ZEFSAII (Michael W. Deem and Ramdas Pophale) SiO2 
 PCOD8255359
Probable space group: C M C M
;
_chemical_formula_sum "Si O2"
_cell_formula_units_Z 80
_cell_length_a 23.863972
_cell_length_b 26.286468
_cell_length_c 8.745351
_cell_angle_alpha 90.000000
_cell_angle_beta 90.000000
_cell_angle_gamma 90.000000
_cell_volume 5485.954627
_symmetry_space_group_name_H-M "C M C M"
_symmetry_group_IT_number 63
_symmetry_cell_setting 'orthorhombic'
loop_
_space_group_symop_operation_xyz
x,y,z
-x,-y,1/2+z
x,-y,-z
-x,y,1/2-z
-x,-y,-z
x,y,1/2-z
-x,y,z
x,-y,1/2+z
1/2+x,1/2+y,z
1/2-x,1/2-y,1/2+z
1/2+x,1/2-y,-z
1/2-x,1/2+y,1/2-z
1/2-x,1/2-y,-z
1/2+x,1/2+y,1/2-z
1/2-x,1/2+y,z
1/2+x,1/2-y,1/2+z
loop_
_atom_site_type_symbol
_atom_site_label
_atom_site_fract_x
_atom_site_fract_y
_atom_site_fract_z
Si Si1 0.186529 0.857868 0.431062
Si Si2 0.619317 0.259612 0.430000
Si Si3 0.000000 0.782945 0.069047
Si Si4 0.221870 0.299397 0.569679
Si Si5 0.615517 0.554918 0.429935
Si Si6 0.000000 0.892562 0.571340
O O1 0.186536 0.862356 0.250000
O O2 0.148914 0.810853 0.493797
O O3 0.250774 0.848800 0.489357
O O4 0.163787 0.909425 0.502690
O O5 0.616040 0.267228 0.250000
O O6 0.556131 0.255724 0.498093
O O7 0.655238 0.208442 0.467767
O O8 0.000000 0.778529 0.250000
O O9 0.000000 0.841774 0.026607
O O10 0.232408 0.302013 0.750000
O O11 0.250000 0.250000 0.500000
O O12 0.624465 0.500000 0.500000
O O13 0.622776 0.551979 0.250000
O O14 0.554228 0.575089 0.476129
O O15 0.000000 0.878667 0.750000
#
# Coordination Sequence:
#
# PCOD8255359 Si02
#       6
#    16  16   8  16  16   8
#     4  10  18  30  45  62  80 106 142 178 218 259
#     4   8  15  25  41  62  82 106 139 171 207 251
#     4  10  16  27  45  62  83 114 143 175 212 251
#     4   9  16  27  41  61  84 107 137 173 212 256
#     4  11  22  34  46  61  82 109 143 184 223 260
#     4  10  21  33  43  60  82 108 144 183 223 255
#
# _framework density 14.582693000000001
#
# number of rings (size 3 to 8) (size 9 to 14) (size 15 to 20)
#    0.000    2.400    2.000    3.300    0.000    0.800 
#    0.000    1.000    0.000    0.000    0.000    0.000 
#    0.000    0.000    0.000    0.900    0.000    9.000 
#
# Total GULP energy -495660.348814 kJ/mol
# GULP energy per Si atom -12391.508720 kJ/mol
# Density = 1.454950 g / cm^3
# Si number density = 14.582693 Si / 1000 Ang^3
#
#
#
# Elastic Constant Matrix: (Units=GPa)
#
#
# Indices 1 2 3 4 5 6 
#
# 1 123.9479 68.8195 33.3441 0.0000 0.0000 0.0000
# 2 68.8195 72.1517 29.0397 0.0000 0.0000 0.0000
# 3 33.3441 29.0397 50.2250 0.0000 0.0000 0.0000
# 4 0.0000 0.0000 0.0000 21.5113 0.0000 0.0000
# 5 0.0000 0.0000 0.0000 0.0000 16.1820 0.0000
# 6 0.0000 0.0000 0.0000 0.0000 0.0000 24.5097
#
#
#
# Elastic Compliance Matrix: (Units=1/GPa)
#
#
# Indices 1 2 3 4 5 6 
#
# 1 0.017397 -0.015568 -0.002549 0.000000 0.000000 0.000000
# 2 -0.015568 0.031995 -0.008163 0.000000 0.000000 0.000000
# 3 -0.002549 -0.008163 0.026322 0.000000 0.000000 0.000000
# 4 0.000000 0.000000 0.000000 0.046487 0.000000 0.000000
# 5 0.000000 0.000000 0.000000 0.000000 0.061797 0.000000
# 6 0.000000 0.000000 0.000000 0.000000 0.000000 0.040800
#
#
# Mechanical properties :
#
#
# Convention : Reuss Voigt Hill
#
# Bulk Modulus (GPa) = 43.18907 56.52567 49.85737
# Shear Modulus (GPa) = 17.53910 20.11535 18.82722
#
# Velocity S-wave (km/s) = 3.47181 3.71805 3.59704
# Velocity P-wave (km/s) = 6.76404 7.56824 7.17741
#
# Compressibility (1/GPa) = 0.02315401
#
# Stress axis : x y z
#
# Youngs Moduli (GPa) = 57.47954 31.25533 37.99045
#
# Poissons Ratio (x) = 0.48659 0.09682
# Poissons Ratio (y) = 0.89486 0.31013
# Poissons Ratio (z) = 0.14650 0.25515
#
# Static dielectric constant tensor:
#      x y z
#    x 3.496480 0.000000 0.000000 
#    y 0.000000 2.700680 0.000000 
#    z 0.000000 0.000000 2.835560 
# 
# 
# High freq. dielectric constant tensor:
#      x y z
#    x 1.556510 0.000000 0.000000 
#    y 0.000000 1.514430 0.000000 
#    z 0.000000 0.000000 1.558570 
# 
# From -- ./inp_files/10119.got.cif
#   From: 2010.03.12/outbox.cif.g09.slc.cpg/sg63_6_cif.got.tgz:10119.got - 2010.04.10 19:34:48.
