data_PCOD8255496
_publ_section_title
;
Structure prediction by ZEFSAII (Michael W. Deem and Ramdas Pophale) SiO2 
 PCOD8255496
Probable space group: C M C M
;
_chemical_formula_sum "Si O2"
_cell_formula_units_Z 128
_cell_length_a 23.074308
_cell_length_b 20.701187
_cell_length_c 17.260790
_cell_angle_alpha 90.000000
_cell_angle_beta 90.000000
_cell_angle_gamma 90.000000
_cell_volume 8244.885004
_symmetry_space_group_name_H-M "C M C M"
_symmetry_group_IT_number 63
_symmetry_cell_setting 'orthorhombic'
loop_
_space_group_symop_operation_xyz
x,y,z
-x,-y,1/2+z
x,-y,-z
-x,y,1/2-z
-x,-y,-z
x,y,1/2-z
-x,y,z
x,-y,1/2+z
1/2+x,1/2+y,z
1/2-x,1/2-y,1/2+z
1/2+x,1/2-y,-z
1/2-x,1/2+y,1/2-z
1/2-x,1/2-y,-z
1/2+x,1/2+y,1/2-z
1/2-x,1/2+y,z
1/2+x,1/2-y,1/2+z
loop_
_atom_site_type_symbol
_atom_site_label
_atom_site_fract_x
_atom_site_fract_y
_atom_site_fract_z
Si Si1 0.873596 0.277429 0.162516
Si Si2 0.643246 0.888656 0.577885
Si Si3 0.760134 0.926878 0.005271
Si Si4 0.318568 0.690494 0.450079
Si Si5 0.566761 0.992536 0.660052
Si Si6 0.433857 0.121174 0.569520
Si Si7 0.193892 0.259879 0.597491
Si Si8 0.254600 0.146704 0.664289
O O1 0.889441 0.260047 0.250000
O O2 0.862175 0.208819 0.119523
O O3 0.926375 0.316844 0.125022
O O4 0.817774 0.322891 0.154303
O O5 0.700735 0.921257 0.543044
O O6 0.610064 0.935698 0.636058
O O7 0.602852 0.869315 0.507033
O O8 0.657763 0.822653 0.626067
O O9 0.753096 0.904800 0.095218
O O10 0.812362 0.886142 0.965363
O O11 0.781340 0.000000 0.000000
O O12 0.254205 0.714250 0.434094
O O13 0.341279 0.727067 0.526786
O O14 0.575587 0.007880 0.750000
O O15 0.500000 0.973127 0.642591
O O16 0.585378 0.056016 0.613324
O O17 0.500000 0.115904 0.544399
O O18 0.206737 0.204711 0.661366
O O19 0.248678 0.114314 0.750000
#
# Coordination Sequence:
#
# PCOD8255496 Si02
#       8
#    16  16  16  16  16  16  16  16
#     4  10  17  28  45  62  82 115 151 186 229 262
#     4  11  18  30  48  65  85 115 154 190 225 262
#     4  10  18  29  45  67  91 118 147 177 216 267
#     4   8  14  28  42  59  83 110 137 172 214 266
#     4  10  22  35  42  55  85 122 158 199 236 259
#     4  11  20  31  45  62  84 117 160 195 225 266
#     4   8  14  26  45  62  80 104 141 179 214 261
#     4   9  17  29  46  65  87 115 146 180 222 268
#
# _framework density 15.524777
#
# number of rings (size 3 to 8) (size 9 to 14) (size 15 to 20)
#    0.000    2.375    2.500    3.375    0.000    2.250 
#    0.000    2.500    0.000    0.000    0.000    0.000 
#    0.000    0.500    0.000    0.000    0.000    0.000 
#
# Total GULP energy -793061.130452 kJ/mol
# GULP energy per Si atom -12391.580163 kJ/mol
# Density = 1.548944 g / cm^3
# Si number density = 15.524777 Si / 1000 Ang^3
#
#
#
# Elastic Constant Matrix: (Units=GPa)
#
#
# Indices 1 2 3 4 5 6 
#
# 1 28.4320 22.2085 0.7625 0.0000 0.0000 0.0000
# 2 22.2085 86.5869 13.7219 0.0000 0.0000 0.0000
# 3 0.7625 13.7219 42.1154 0.0000 0.0000 0.0000
# 4 0.0000 0.0000 0.0000 18.8171 0.0000 0.0000
# 5 0.0000 0.0000 0.0000 0.0000 13.9709 0.0000
# 6 0.0000 0.0000 0.0000 0.0000 0.0000 25.1893
#
#
#
# Elastic Compliance Matrix: (Units=1/GPa)
#
#
# Indices 1 2 3 4 5 6 
#
# 1 0.044355 -0.011862 0.003062 0.000000 0.000000 0.000000
# 2 -0.011862 0.015350 -0.004787 0.000000 0.000000 0.000000
# 3 0.003062 -0.004787 0.025248 0.000000 0.000000 0.000000
# 4 0.000000 0.000000 0.000000 0.053143 0.000000 0.000000
# 5 0.000000 0.000000 0.000000 0.000000 0.071578 0.000000
# 6 0.000000 0.000000 0.000000 0.000000 0.000000 0.039699
#
#
# Mechanical properties :
#
#
# Convention : Reuss Voigt Hill
#
# Bulk Modulus (GPa) = 17.30701 25.61337 21.46019
# Shear Modulus (GPa) = 16.90294 19.62487 18.26391
#
# Velocity S-wave (km/s) = 3.30323 3.55928 3.43364
# Velocity P-wave (km/s) = 5.07155 5.78147 5.43811
#
# Compressibility (1/GPa) = 0.05778005
#
# Stress axis : x y z
#
# Youngs Moduli (GPa) = 22.54549 65.14657 39.60653
#
# Poissons Ratio (x) = 0.77275 -0.12126
# Poissons Ratio (y) = 0.26743 0.18958
# Poissons Ratio (z) = -0.06903 0.31183
#
# Static dielectric constant tensor:
#      x y z
#    x 2.742620 0.000000 0.000000 
#    y 0.000000 3.028990 0.000000 
#    z 0.000000 0.000000 3.044570 
# 
# 
# High freq. dielectric constant tensor:
#      x y z
#    x 1.553540 0.000000 0.000000 
#    y 0.000000 1.583310 0.000000 
#    z 0.000000 0.000000 1.596370 
# 
# From -- ./inp_files/47558.got.cif
#   From: 2010.03.12/outbox.cif.g09.slc.cpg/sg63_24_cif.got.tgz:47558.got - 2010.04.10 19:34:48.
