data_PCOD8255879
_publ_section_title
;
Structure prediction by ZEFSAII (Michael W. Deem and Ramdas Pophale) SiO2 
 PCOD8255879
Probable space group: C M C M
;
_chemical_formula_sum "Si O2"
_cell_formula_units_Z 72
_cell_length_a 29.014768
_cell_length_b 14.170340
_cell_length_c 8.873579
_cell_angle_alpha 90.000000
_cell_angle_beta 90.000000
_cell_angle_gamma 90.000000
_cell_volume 3648.364264
_symmetry_space_group_name_H-M "C M C M"
_symmetry_group_IT_number 63
_symmetry_cell_setting 'orthorhombic'
loop_
_space_group_symop_operation_xyz
x,y,z
-x,-y,1/2+z
x,-y,-z
-x,y,1/2-z
-x,-y,-z
x,y,1/2-z
-x,y,z
x,-y,1/2+z
1/2+x,1/2+y,z
1/2-x,1/2-y,1/2+z
1/2+x,1/2-y,-z
1/2-x,1/2+y,1/2-z
1/2-x,1/2-y,-z
1/2+x,1/2+y,1/2-z
1/2-x,1/2+y,z
1/2+x,1/2-y,1/2+z
loop_
_atom_site_type_symbol
_atom_site_label
_atom_site_fract_x
_atom_site_fract_y
_atom_site_fract_z
Si Si1 0.769110 0.898382 0.574358
Si Si2 0.090260 0.710049 0.570938
Si Si3 0.819886 0.396798 0.070706
Si Si4 0.128633 0.099715 0.075826
Si Si5 0.000000 0.603137 0.929903
O O1 0.756745 0.906135 0.750000
O O2 0.726973 0.844079 0.489185
O O3 0.820126 0.855015 0.549539
O O4 0.772830 0.000000 0.500000
O O5 0.090489 0.706643 0.750000
O O6 0.134920 0.655524 0.508998
O O7 0.093118 0.819697 0.517618
O O8 0.044301 0.660346 0.508901
O O9 0.818609 0.400637 0.250000
O O10 0.820924 0.500000 0.000000
O O11 0.121395 0.079166 0.250000
O O12 0.118626 0.000000 0.000000
O O13 0.000000 0.594442 0.750000
O O14 0.000000 0.500000 0.000000
#
# Coordination Sequence:
#
# PCOD8255879 Si02
#       5
#    16  16  16  16   8
#     4   9  16  27  45  68  97 132 167 203 243 289
#     4   9  19  34  53  75  99 131 167 203 250 303
#     4  10  18  29  46  70 101 133 166 205 247 294
#     4   9  18  34  52  72 100 133 169 205 243 290
#     4  10  20  38  61  80 102 132 163 200 249 300
#
# _framework density 19.734873
#
# number of rings (size 3 to 8) (size 9 to 14) (size 15 to 20)
#    0.000    2.667    0.000    3.333    0.000    1.778 
#    0.000    5.000    0.000    0.000    0.000    0.000 
#    0.000    0.000    0.000    0.000    0.000    0.000 
#
# Total GULP energy -446034.130353 kJ/mol
# GULP energy per Si atom -12389.836954 kJ/mol
# Density = 1.968996 g / cm^3
# Si number density = 19.734873 Si / 1000 Ang^3
#
#
#
# Elastic Constant Matrix: (Units=GPa)
#
#
# Indices 1 2 3 4 5 6 
#
# 1 140.9454 85.3758 36.3232 0.0000 0.0000 0.0000
# 2 85.3758 111.1683 31.2228 0.0000 0.0000 0.0000
# 3 36.3232 31.2228 62.0442 0.0000 0.0000 0.0000
# 4 0.0000 0.0000 0.0000 20.9260 0.0000 0.0000
# 5 0.0000 0.0000 0.0000 0.0000 17.6007 0.0000
# 6 0.0000 0.0000 0.0000 0.0000 0.0000 32.8069
#
#
#
# Elastic Compliance Matrix: (Units=1/GPa)
#
#
# Indices 1 2 3 4 5 6 
#
# 1 0.013790 -0.009693 -0.003195 0.000000 0.000000 0.000000
# 2 -0.009693 0.017289 -0.003026 0.000000 0.000000 0.000000
# 3 -0.003195 -0.003026 0.019511 0.000000 0.000000 0.000000
# 4 0.000000 0.000000 0.000000 0.047788 0.000000 0.000000
# 5 0.000000 0.000000 0.000000 0.000000 0.056816 0.000000
# 6 0.000000 0.000000 0.000000 0.000000 0.000000 0.030481
#
#
# Mechanical properties :
#
#
# Convention : Reuss Voigt Hill
#
# Bulk Modulus (GPa) = 53.30002 68.88907 61.09455
# Shear Modulus (GPa) = 22.34565 25.01577 23.68071
#
# Velocity S-wave (km/s) = 3.36861 3.56419 3.46778
# Velocity P-wave (km/s) = 6.49590 7.20562 6.85994
#
# Compressibility (1/GPa) = 0.01876172
#
# Stress axis : x y z
#
# Youngs Moduli (GPa) = 72.51753 57.83931 51.25331
#
# Poissons Ratio (x) = 0.56063 0.16377
# Poissons Ratio (y) = 0.70291 0.15509
# Poissons Ratio (z) = 0.23171 0.17502
#
# Static dielectric constant tensor:
#      x y z
#    x 4.327100 0.000000 0.000000 
#    y 0.000000 3.526180 0.000000 
#    z 0.000000 0.000000 3.385880 
# 
# 
# High freq. dielectric constant tensor:
#      x y z
#    x 1.769510 0.000000 0.000000 
#    y 0.000000 1.765640 0.000000 
#    z 0.000000 0.000000 1.745030 
# 
# From -- ./inp_files/11735.got.cif
#   From: 2010.03.12/outbox.cif.g09.slc.cpg/sg63_6_cif.got.tgz:11735.got - 2010.04.10 19:34:48.
