data_PCOD8255602
_publ_section_title
;
Structure prediction by ZEFSAII (Michael W. Deem and Ramdas Pophale) SiO2 
 PCOD8255602
Probable space group: C M C M
;
_chemical_formula_sum "Si O2"
_cell_formula_units_Z 96
_cell_length_a 21.135379
_cell_length_b 12.257636
_cell_length_c 19.275205
_cell_angle_alpha 90.000000
_cell_angle_beta 90.000000
_cell_angle_gamma 90.000000
_cell_volume 4993.623167
_symmetry_space_group_name_H-M "C M C M"
_symmetry_group_IT_number 63
_symmetry_cell_setting 'orthorhombic'
loop_
_space_group_symop_operation_xyz
x,y,z
-x,-y,1/2+z
x,-y,-z
-x,y,1/2-z
-x,-y,-z
x,y,1/2-z
-x,y,z
x,-y,1/2+z
1/2+x,1/2+y,z
1/2-x,1/2-y,1/2+z
1/2+x,1/2-y,-z
1/2-x,1/2+y,1/2-z
1/2-x,1/2-y,-z
1/2+x,1/2+y,1/2-z
1/2-x,1/2+y,z
1/2+x,1/2-y,1/2+z
loop_
_atom_site_type_symbol
_atom_site_label
_atom_site_fract_x
_atom_site_fract_y
_atom_site_fract_z
Si Si1 0.135194 0.274085 0.940090
Si Si2 0.871051 0.317083 0.397832
Si Si3 0.000000 0.580676 0.909981
Si Si4 0.848793 0.029999 0.922390
Si Si5 0.000000 0.654020 0.067594
Si Si6 0.926754 0.883467 0.669095
Si Si7 0.291536 0.015911 0.080965
O O1 0.163574 0.159348 0.915655
O O2 0.061807 0.274469 0.917538
O O3 0.173027 0.370707 0.900296
O O4 0.140150 0.282297 0.022971
O O5 0.937879 0.368484 0.378111
O O6 0.874196 0.208112 0.351358
O O7 0.819333 0.409985 0.377996
O O8 0.000000 0.454627 0.886274
O O9 0.000000 0.604365 0.991205
O O10 0.782517 0.971551 0.903015
O O11 0.904348 0.992447 0.870824
O O12 0.870438 0.000000 0.000000
O O13 0.922385 0.906869 0.750000
O O14 0.000000 0.855946 0.647744
O O15 0.305113 0.000000 0.000000
#
# Coordination Sequence:
#
# PCOD8255602 Si02
#       7
#    16  16   8  16   8  16  16
#     4  10  19  31  53  89 118 142 181 237 287 328
#     4  10  17  33  56  84 115 144 185 229 279 340
#     4   9  14  26  48  81 113 146 174 219 276 327
#     4  11  23  36  58  85 116 154 193 233 283 347
#     4   9  16  26  46  82 120 141 174 224 284 324
#     4  11  25  42  58  79 113 154 192 236 288 341
#     4   9  20  32  55  88 120 147 178 231 289 334
#
# _framework density 19.224519000000001
#
# number of rings (size 3 to 8) (size 9 to 14) (size 15 to 20)
#    0.000    2.000    4.167    0.000    3.500    2.333 
#    0.000    0.833    0.000    1.000    0.000    2.333 
#    0.000    0.000    0.000    0.000    0.000    0.000 
#
# Total GULP energy -594812.947264 kJ/mol
# GULP energy per Si atom -12391.936401 kJ/mol
# Density = 1.918076 g / cm^3
# Si number density = 19.224519 Si / 1000 Ang^3
#
#
#
# Elastic Constant Matrix: (Units=GPa)
#
#
# Indices 1 2 3 4 5 6 
#
# 1 96.7776 37.5070 34.8328 0.0000 0.0000 0.0000
# 2 37.5070 122.5441 29.3460 0.0000 0.0000 0.0000
# 3 34.8328 29.3460 45.1674 0.0000 0.0000 0.0000
# 4 0.0000 0.0000 0.0000 14.6550 0.0000 0.0000
# 5 0.0000 0.0000 0.0000 0.0000 17.3015 0.0000
# 6 0.0000 0.0000 0.0000 0.0000 0.0000 31.6018
#
#
#
# Elastic Compliance Matrix: (Units=1/GPa)
#
#
# Indices 1 2 3 4 5 6 
#
# 1 0.014754 -0.002121 -0.010000 0.000000 0.000000 0.000000
# 2 -0.002121 0.009969 -0.004841 0.000000 0.000000 0.000000
# 3 -0.010000 -0.004841 0.032998 0.000000 0.000000 0.000000
# 4 0.000000 0.000000 0.000000 0.068236 0.000000 0.000000
# 5 0.000000 0.000000 0.000000 0.000000 0.057798 0.000000
# 6 0.000000 0.000000 0.000000 0.000000 0.000000 0.031644
#
#
# Mechanical properties :
#
#
# Convention : Reuss Voigt Hill
#
# Bulk Modulus (GPa) = 42.02480 51.98452 47.00466
# Shear Modulus (GPa) = 19.43587 23.56520 21.50054
#
# Velocity S-wave (km/s) = 3.18306 3.50493 3.34786
# Velocity P-wave (km/s) = 5.95119 6.59384 6.28074
#
# Compressibility (1/GPa) = 0.02379547
#
# Stress axis : x y z
#
# Youngs Moduli (GPa) = 67.77631 100.31250 30.30529
#
# Poissons Ratio (x) = 0.21277 0.30307
# Poissons Ratio (y) = 0.14376 0.14671
# Poissons Ratio (z) = 0.67779 0.48563
#
# Static dielectric constant tensor:
#      x y z
#    x 3.756970 0.000000 0.000000 
#    y 0.000000 3.672360 0.000000 
#    z 0.000000 0.000000 2.856090 
# 
# 
# High freq. dielectric constant tensor:
#      x y z
#    x 1.756580 0.000000 0.000000 
#    y 0.000000 1.762760 0.000000 
#    z 0.000000 0.000000 1.667190 
# 
# From -- ./inp_files/57547.got.cif
#   From: 2010.03.12/outbox.cif.g09.slc.cpg/sg63_29_cif.got.tgz:57547.got - 2010.04.10 19:34:48.
