data_PCOD8255172
_publ_section_title
;
Structure prediction by ZEFSAII (Michael W. Deem and Ramdas Pophale) SiO2 
 PCOD8255172
Probable space group: P N M A
;
_chemical_formula_sum "Si O2"
_cell_formula_units_Z 40
_cell_length_a 8.887077
_cell_length_b 10.890900
_cell_length_c 19.835085
_cell_angle_alpha 90.000000
_cell_angle_beta 90.000000
_cell_angle_gamma 90.000000
_cell_volume 1919.803501
_symmetry_space_group_name_H-M "P N M A"
_symmetry_group_IT_number 62
_symmetry_cell_setting 'orthorhombic'
loop_
_space_group_symop_operation_xyz
x,y,z
1/2-x,-y,1/2+z
1/2+x,1/2-y,1/2-z
-x,1/2+y,-z
-x,-y,-z
1/2+x,y,1/2-z
1/2-x,1/2+y,1/2+z
x,1/2-y,z
loop_
_atom_site_type_symbol
_atom_site_label
_atom_site_fract_x
_atom_site_fract_y
_atom_site_fract_z
Si Si1 0.188032 0.250000 0.293248
Si Si2 0.611174 0.493417 0.409756
Si Si3 0.183277 0.393006 0.703941
Si Si4 0.978008 0.750000 0.840076
Si Si5 0.141237 0.984158 0.328071
Si Si6 0.314687 0.608312 0.452132
O O1 0.366908 0.250000 0.299681
O O2 0.157341 0.250000 0.213390
O O3 0.114662 0.130677 0.328403
O O4 0.728591 0.540784 0.355644
O O5 0.529613 0.368736 0.387018
O O6 0.481122 0.593792 0.420705
O O7 0.700508 0.469077 0.479064
O O8 0.221937 0.250000 0.703716
O O9 0.226754 0.451375 0.775524
O O10 0.006835 0.413021 0.694891
O O11 0.186940 0.941391 0.402227
O O12 0.283678 0.750000 0.467044
#
# Coordination Sequence:
#
# PCOD8255172 Si02
#       6
#     4   8   8   4   8   8
#     4  12  24  42  68  98 134 165 221 280 320 400
#     4  11  24  41  69  96 133 174 222 270 335 392
#     4  12  25  44  67  97 132 171 220 275 324 400
#     4  12  22  44  66 102 132 171 225 272 336 398
#     4  12  25  43  68  96 130 174 220 271 338 384
#     4  11  23  43  67  96 132 177 220 274 327 401
#
# _framework density 20.835466
#
# number of rings (size 3 to 8) (size 9 to 14) (size 15 to 20)
#    0.000    0.400    5.000    4.800    0.000    0.800 
#    1.800    0.000    0.000    0.000    0.000    0.000 
#    0.000    0.000    0.000    0.000    0.000    0.000 
#
# Total GULP energy -496351.248220 kJ/mol
# GULP energy per Si atom -12408.781206 kJ/mol
# Density = 2.078804 g / cm^3
# Si number density = 20.835466 Si / 1000 Ang^3
#
#
#
# Elastic Constant Matrix: (Units=GPa)
#
#
# Indices 1 2 3 4 5 6 
#
# 1 40.2236 4.3290 13.6903 0.0000 0.0000 0.0000
# 2 4.3290 117.0373 10.4660 0.0000 0.0000 0.0000
# 3 13.6903 10.4660 79.1956 0.0000 0.0000 0.0000
# 4 0.0000 0.0000 0.0000 26.3024 0.0000 0.0000
# 5 0.0000 0.0000 0.0000 0.0000 33.0875 0.0000
# 6 0.0000 0.0000 0.0000 0.0000 0.0000 27.2635
#
#
#
# Elastic Compliance Matrix: (Units=1/GPa)
#
#
# Indices 1 2 3 4 5 6 
#
# 1 0.026454 -0.000576 -0.004497 0.000000 0.000000 0.000000
# 2 -0.000576 0.008659 -0.001045 0.000000 0.000000 0.000000
# 3 -0.004497 -0.001045 0.013542 0.000000 0.000000 0.000000
# 4 0.000000 0.000000 0.000000 0.038019 0.000000 0.000000
# 5 0.000000 0.000000 0.000000 0.000000 0.030223 0.000000
# 6 0.000000 0.000000 0.000000 0.000000 0.000000 0.036679
#
#
# Mechanical properties :
#
#
# Convention : Reuss Voigt Hill
#
# Bulk Modulus (GPa) = 27.45795 32.60301 30.03048
# Shear Modulus (GPa) = 28.09751 31.19542 29.64647
#
# Velocity S-wave (km/s) = 3.67623 3.87360 3.77621
# Velocity P-wave (km/s) = 5.58808 5.97396 5.78424
#
# Compressibility (1/GPa) = 0.03641932
#
# Stress axis : x y z
#
# Youngs Moduli (GPa) = 37.80206 115.48645 73.84233
#
# Poissons Ratio (x) = 0.06656 0.33205
# Poissons Ratio (y) = 0.02179 0.07714
# Poissons Ratio (z) = 0.16999 0.12065
#
# Static dielectric constant tensor:
#      x y z
#    x 3.595740 0.000000 0.000000 
#    y 0.000000 3.964160 0.000000 
#    z 0.000000 0.000000 3.848240 
# 
# 
# High freq. dielectric constant tensor:
#      x y z
#    x 1.807090 0.000000 0.000000 
#    y 0.000000 1.833660 0.000000 
#    z 0.000000 0.000000 1.823450 
# 
# From -- ./inp_files/21922.got.cif
#   From: 2010.03.12/outbox.cif.g09.slc.cpg/sg62_11_cif.got.tgz:21922.got - 2010.04.10 19:12:36.
