data_PCOD8255328
_publ_section_title
;
Structure prediction by ZEFSAII (Michael W. Deem and Ramdas Pophale) SiO2 
 PCOD8255328
Probable space group: C M C M
;
_chemical_formula_sum "Si O2"
_cell_formula_units_Z 88
_cell_length_a 22.546178
_cell_length_b 16.184129
_cell_length_c 13.774768
_cell_angle_alpha 90.000000
_cell_angle_beta 90.000000
_cell_angle_gamma 90.000000
_cell_volume 5026.278583
_symmetry_space_group_name_H-M "C M C M"
_symmetry_group_IT_number 63
_symmetry_cell_setting 'orthorhombic'
loop_
_space_group_symop_operation_xyz
x,y,z
-x,-y,1/2+z
x,-y,-z
-x,y,1/2-z
-x,-y,-z
x,y,1/2-z
-x,y,z
x,-y,1/2+z
1/2+x,1/2+y,z
1/2-x,1/2-y,1/2+z
1/2+x,1/2-y,-z
1/2-x,1/2+y,1/2-z
1/2-x,1/2-y,-z
1/2+x,1/2+y,1/2-z
1/2-x,1/2+y,z
1/2+x,1/2-y,1/2+z
loop_
_atom_site_type_symbol
_atom_site_label
_atom_site_fract_x
_atom_site_fract_y
_atom_site_fract_z
Si Si1 0.229525 0.442208 0.855639
Si Si2 0.242840 0.133331 0.644510
Si Si3 0.568612 0.311236 0.638802
Si Si4 0.334780 0.403679 0.524347
Si Si5 0.375597 0.860742 0.137902
Si Si6 0.361355 0.000000 0.500000
O O1 0.209524 0.408113 0.750000
O O2 0.249304 0.535970 0.847462
O O3 0.285634 0.389827 0.892207
O O4 0.177402 0.436844 0.934477
O O5 0.224042 0.169788 0.750000
O O6 0.189698 0.149288 0.568053
O O7 0.307807 0.167914 0.613392
O O8 0.586248 0.332778 0.750000
O O9 0.500000 0.329058 0.620218
O O10 0.603609 0.367806 0.562661
O O11 0.581076 0.215185 0.617497
O O12 0.344120 0.500000 0.500000
O O13 0.378872 0.890266 0.250000
O O14 0.397693 0.938417 0.071148
#
# Coordination Sequence:
#
# PCOD8255328 Si02
#       6
#    16  16  16  16  16   8
#     4   9  14  23  41  70 104 128 150 186 242 300
#     4   8  14  26  45  72 101 125 151 189 244 305
#     4  10  22  37  50  68  97 134 174 213 245 279
#     4  10  17  30  50  74  98 128 162 202 250 295
#     4   9  17  31  51  73 103 133 161 200 245 295
#     4  10  14  28  47  76  99 132 154 198 244 308
#
# _framework density 17.507984
#
# number of rings (size 3 to 8) (size 9 to 14) (size 15 to 20)
#    0.000    2.727    4.545    2.182    0.000    1.818 
#    0.000    0.455    0.000    1.636    0.000    0.000 
#    0.000    0.000    0.000    0.000    0.000    0.000 
#
# Total GULP energy -545118.521315 kJ/mol
# GULP energy per Si atom -12389.057303 kJ/mol
# Density = 1.746813 g / cm^3
# Si number density = 17.507984 Si / 1000 Ang^3
#
#
#
# Elastic Constant Matrix: (Units=GPa)
#
#
# Indices 1 2 3 4 5 6 
#
# 1 25.2199 -1.7955 13.7310 0.0000 0.0000 0.0000
# 2 -1.7955 24.8499 15.7693 0.0000 0.0000 0.0000
# 3 13.7310 15.7693 98.9800 0.0000 0.0000 0.0000
# 4 0.0000 0.0000 0.0000 21.6871 0.0000 0.0000
# 5 0.0000 0.0000 0.0000 0.0000 17.0989 0.0000
# 6 0.0000 0.0000 0.0000 0.0000 0.0000 14.9801
#
#
#
# Elastic Compliance Matrix: (Units=1/GPa)
#
#
# Indices 1 2 3 4 5 6 
#
# 1 0.044238 0.007888 -0.007394 0.000000 0.000000 0.000000
# 2 0.007888 0.046174 -0.008451 0.000000 0.000000 0.000000
# 3 -0.007394 -0.008451 0.012475 0.000000 0.000000 0.000000
# 4 0.000000 0.000000 0.000000 0.046110 0.000000 0.000000
# 5 0.000000 0.000000 0.000000 0.000000 0.058483 0.000000
# 6 0.000000 0.000000 0.000000 0.000000 0.000000 0.066755
#
#
# Mechanical properties :
#
#
# Convention : Reuss Voigt Hill
#
# Bulk Modulus (GPa) = 11.49750 22.71769 17.10760
# Shear Modulus (GPa) = 15.66708 18.84288 17.25498
#
# Velocity S-wave (km/s) = 2.99466 3.28418 3.14275
# Velocity P-wave (km/s) = 4.30564 5.23306 4.79184
#
# Compressibility (1/GPa) = 0.08697542
#
# Stress axis : x y z
#
# Youngs Moduli (GPa) = 22.60482 21.65713 80.15986
#
# Poissons Ratio (x) = -0.17084 0.59268
# Poissons Ratio (y) = -0.17831 0.67740
# Poissons Ratio (z) = 0.16713 0.18302
#
# Static dielectric constant tensor:
#      x y z
#    x 2.948630 0.000000 0.000000 
#    y 0.000000 2.924230 0.000000 
#    z 0.000000 0.000000 3.881780 
# 
# 
# High freq. dielectric constant tensor:
#      x y z
#    x 1.632330 0.000000 0.000000 
#    y 0.000000 1.645310 0.000000 
#    z 0.000000 0.000000 1.692370 
# 
# From -- ./inp_files/37029.got.cif
#   From: 2010.03.12/outbox.cif.g09.slc.cpg/sg63_19_cif.got.tgz:37029.got - 2010.04.10 19:34:48.
