data_PCOD8255481
_publ_section_title
;
Structure prediction by ZEFSAII (Michael W. Deem and Ramdas Pophale) SiO2 
 PCOD8255481
Probable space group: C M C M
;
_chemical_formula_sum "Si O2"
_cell_formula_units_Z 88
_cell_length_a 12.281651
_cell_length_b 26.557048
_cell_length_c 15.378803
_cell_angle_alpha 90.000000
_cell_angle_beta 90.000000
_cell_angle_gamma 90.000000
_cell_volume 5016.017978
_symmetry_space_group_name_H-M "C M C M"
_symmetry_group_IT_number 63
_symmetry_cell_setting 'orthorhombic'
loop_
_space_group_symop_operation_xyz
x,y,z
-x,-y,1/2+z
x,-y,-z
-x,y,1/2-z
-x,-y,-z
x,y,1/2-z
-x,y,z
x,-y,1/2+z
1/2+x,1/2+y,z
1/2-x,1/2-y,1/2+z
1/2+x,1/2-y,-z
1/2-x,1/2+y,1/2-z
1/2-x,1/2-y,-z
1/2+x,1/2+y,1/2-z
1/2-x,1/2+y,z
1/2+x,1/2-y,1/2+z
loop_
_atom_site_type_symbol
_atom_site_label
_atom_site_fract_x
_atom_site_fract_y
_atom_site_fract_z
Si Si1 0.732869 0.340216 0.250000
Si Si2 0.373416 0.371437 0.077382
Si Si3 0.877760 0.056327 0.151623
Si Si4 0.373646 0.060436 0.750000
Si Si5 0.374132 0.336917 0.607260
Si Si6 0.263799 0.972527 0.419577
Si Si7 0.370179 0.739593 0.250000
O O1 0.656473 0.341775 0.334931
O O2 0.811337 0.387538 0.250000
O O3 0.808025 0.291812 0.250000
O O4 0.500000 0.388905 0.082151
O O5 0.293222 0.418858 0.061419
O O6 0.356319 0.332335 0.996922
O O7 0.869843 0.038078 0.250000
O O8 0.818822 0.110446 0.138344
O O9 0.000000 0.063733 0.118792
O O10 0.831708 0.012111 0.094357
O O11 0.500000 0.072155 0.750000
O O12 0.343635 0.029459 0.663187
O O13 0.500000 0.338559 0.633242
O O14 0.328261 0.290196 0.663409
O O15 0.328144 0.000000 0.500000
O O16 0.500000 0.749856 0.250000
#
# Coordination Sequence:
#
# PCOD8255481 Si02
#       7
#     8  16  16   8  16  16   8
#     4  10  22  36  52  70  92 136 178 210 250 296
#     4  10  20  33  49  77 113 136 156 194 248 312
#     4  10  17  27  46  78 115 140 158 192 245 306
#     4  10  23  40  50  67  99 132 176 227 251 275
#     4   9  17  29  49  76 104 129 157 203 255 298
#     4  11  20  31  53  80 104 139 171 192 244 309
#     4  10  19  34  54  73  91 124 176 223 259 287
#
# _framework density 17.543796
#
# number of rings (size 3 to 8) (size 9 to 14) (size 15 to 20)
#    0.000    2.000    3.636    1.091    0.000    1.818 
#    0.000    0.000    0.000    0.000    0.000    6.364 
#    0.000    0.000    0.000    0.000    0.000    0.000 
#
# Total GULP energy -545148.638789 kJ/mol
# GULP energy per Si atom -12389.741791 kJ/mol
# Density = 1.750387 g / cm^3
# Si number density = 17.543796 Si / 1000 Ang^3
#
#
#
# Elastic Constant Matrix: (Units=GPa)
#
#
# Indices 1 2 3 4 5 6 
#
# 1 40.0413 2.1054 29.3971 0.0000 0.0000 0.0000
# 2 2.1054 69.0939 40.4613 0.0000 0.0000 0.0000
# 3 29.3971 40.4613 136.1036 0.0000 0.0000 0.0000
# 4 0.0000 0.0000 0.0000 24.7381 0.0000 0.0000
# 5 0.0000 0.0000 0.0000 0.0000 12.0753 0.0000
# 6 0.0000 0.0000 0.0000 0.0000 0.0000 22.6437
#
#
#
# Elastic Compliance Matrix: (Units=1/GPa)
#
#
# Indices 1 2 3 4 5 6 
#
# 1 0.030376 0.003531 -0.007611 0.000000 0.000000 0.000000
# 2 0.003531 0.017934 -0.006094 0.000000 0.000000 0.000000
# 3 -0.007611 -0.006094 0.010803 0.000000 0.000000 0.000000
# 4 0.000000 0.000000 0.000000 0.040424 0.000000 0.000000
# 5 0.000000 0.000000 0.000000 0.000000 0.082814 0.000000
# 6 0.000000 0.000000 0.000000 0.000000 0.000000 0.044162
#
#
# Mechanical properties :
#
#
# Convention : Reuss Voigt Hill
#
# Bulk Modulus (GPa) = 25.79596 43.24070 34.51833
# Shear Modulus (GPa) = 19.24690 23.44309 21.34499
#
# Velocity S-wave (km/s) = 3.31581 3.65946 3.49186
# Velocity P-wave (km/s) = 5.42173 6.52352 5.99797
#
# Compressibility (1/GPa) = 0.03876575
#
# Stress axis : x y z
#
# Youngs Moduli (GPa) = 32.92064 55.75924 92.56765
#
# Poissons Ratio (x) = -0.19690 0.70451
# Poissons Ratio (y) = -0.11625 0.56413
# Poissons Ratio (z) = 0.25055 0.33981
#
# Static dielectric constant tensor:
#      x y z
#    x 2.837190 0.000000 0.000000 
#    y 0.000000 3.176440 0.000000 
#    z 0.000000 0.000000 3.706740 
# 
# 
# High freq. dielectric constant tensor:
#      x y z
#    x 1.626120 0.000000 0.000000 
#    y 0.000000 1.668130 0.000000 
#    z 0.000000 0.000000 1.705730 
# 
# From -- ./inp_files/30187.got.cif
#   From: 2010.03.12/outbox.cif.g09.slc.cpg/sg63_16_cif.got.tgz:30187.got - 2010.04.10 19:34:48.
