data_PCOD8255933
_publ_section_title
;
Structure prediction by ZEFSAII (Michael W. Deem and Ramdas Pophale) SiO2 
 PCOD8255933
Probable space group: C M C M
;
_chemical_formula_sum "Si O2"
_cell_formula_units_Z 128
_cell_length_a 18.755112
_cell_length_b 20.841612
_cell_length_c 18.139397
_cell_angle_alpha 90.000000
_cell_angle_beta 90.000000
_cell_angle_gamma 90.000000
_cell_volume 7090.450254
_symmetry_space_group_name_H-M "C M C M"
_symmetry_group_IT_number 63
_symmetry_cell_setting 'orthorhombic'
loop_
_space_group_symop_operation_xyz
x,y,z
-x,-y,1/2+z
x,-y,-z
-x,y,1/2-z
-x,-y,-z
x,y,1/2-z
-x,y,z
x,-y,1/2+z
1/2+x,1/2+y,z
1/2-x,1/2-y,1/2+z
1/2+x,1/2-y,-z
1/2-x,1/2+y,1/2-z
1/2-x,1/2-y,-z
1/2+x,1/2+y,1/2-z
1/2-x,1/2+y,z
1/2+x,1/2-y,1/2+z
loop_
_atom_site_type_symbol
_atom_site_label
_atom_site_fract_x
_atom_site_fract_y
_atom_site_fract_z
Si Si1 0.834562 0.256296 0.331462
Si Si2 0.079406 0.000000 0.162437
Si Si3 0.174289 0.618888 0.087204
Si Si4 0.325279 0.616818 0.337313
Si Si5 0.834562 0.256296 0.668538
Si Si6 0.579942 1.000000 0.912564
Si Si7 0.674721 0.616818 0.837313
Si Si8 0.825711 0.618888 0.587204
O O1 0.864314 0.272962 0.250000
O O2 0.861234 0.185803 0.357531
O O3 0.750000 0.250000 0.328546
O O4 0.858102 0.312538 0.386978
O O5 0.075896 0.000000 0.250000
O O6 0.120332 0.936981 0.134294
O O7 0.000000 0.000000 0.128695
O O8 0.120332 0.063019 0.134294
O O9 0.250750 0.605321 0.122380
O O10 0.141898 0.687462 0.113022
O O11 0.121019 0.563441 0.114825
O O12 0.182579 0.619763 0.000000
O O13 0.310648 0.612814 0.250000
O O14 0.864314 0.272963 0.750000
O O15 0.861234 0.185803 0.642469
O O16 0.500000 1.000000 0.879334
O O17 0.621019 0.063440 0.885175
O O18 0.576534 0.000000 0.000000
O O19 0.689353 0.612813 0.750000
O O20 0.749250 0.605321 0.877620
#
# Coordination Sequence:
#
# PCOD8255933 Si02
#       8
#    16  16  16  16  16  16  16  16
#     4   8  15  28  45  68  97 122 144 180 233 277
#     4   9  17  30  49  71  92 121 162 192 214 263
#     4  10  18  29  50  73  89 115 156 194 225 268
#     4   9  17  30  49  71  96 123 148 185 233 270
#     4   8  15  28  45  68  97 122 144 180 233 277
#     4   9  19  34  47  63  92 125 154 188 232 275
#     4   9  17  30  49  71  96 123 148 185 233 270
#     4  10  18  29  50  73  89 115 156 194 225 268
#
# _framework density 18.05245
#
# number of rings (size 3 to 8) (size 9 to 14) (size 15 to 20)
#    0.000    3.000    0.000    3.000    0.000    4.500 
#    0.000    3.125    0.000    9.000    0.000    0.000 
#    0.000    0.000    0.000    0.000    0.000    0.000 
#
# Total GULP energy -793239.875991 kJ/mol
# GULP energy per Si atom -12394.373062 kJ/mol
# Density = 1.801136 g / cm^3
# Si number density = 18.052450 Si / 1000 Ang^3
#
#
#
# Elastic Constant Matrix: (Units=GPa)
#
#
# Indices 1 2 3 4 5 6 
#
# 1 97.8437 82.9177 34.2703 0.0000 0.0000 0.0000
# 2 82.9177 198.0093 45.7589 0.0000 0.0000 0.0000
# 3 34.2703 45.7589 50.7461 0.0000 0.0000 0.0000
# 4 0.0000 0.0000 0.0000 22.9770 0.0000 0.0000
# 5 0.0000 0.0000 0.0000 0.0000 12.9092 0.0000
# 6 0.0000 0.0000 0.0000 0.0000 0.0000 5.5799
#
#
#
# Elastic Compliance Matrix: (Units=1/GPa)
#
#
# Indices 1 2 3 4 5 6 
#
# 1 0.017410 -0.005777 -0.006548 0.000000 0.000000 0.000000
# 2 -0.005777 0.008297 -0.003580 0.000000 0.000000 0.000000
# 3 -0.006548 -0.003580 0.027356 0.000000 0.000000 0.000000
# 4 0.000000 0.000000 0.000000 0.043522 0.000000 0.000000
# 5 0.000000 0.000000 0.000000 0.000000 0.077464 0.000000
# 6 0.000000 0.000000 0.000000 0.000000 0.000000 0.179214
#
#
# Mechanical properties :
#
#
# Convention : Reuss Voigt Hill
#
# Bulk Modulus (GPa) = 47.05308 74.72143 60.88726
# Shear Modulus (GPa) = 12.75003 20.53672 16.64337
#
# Velocity S-wave (km/s) = 2.66047 3.37651 3.03965
# Velocity P-wave (km/s) = 5.96311 7.52876 6.79121
#
# Compressibility (1/GPa) = 0.02125259
#
# Stress axis : x y z
#
# Youngs Moduli (GPa) = 57.43912 120.52795 36.55515
#
# Poissons Ratio (x) = 0.69632 0.23936
# Poissons Ratio (y) = 0.33184 0.13086
# Poissons Ratio (z) = 0.37610 0.43148
#
# Static dielectric constant tensor:
#      x y z
#    x 3.158860 0.000000 0.000000 
#    y 0.000000 4.054430 0.000000 
#    z 0.000000 0.000000 3.077570 
# 
# 
# High freq. dielectric constant tensor:
#      x y z
#    x 1.662030 0.000000 0.000000 
#    y 0.000000 1.724430 0.000000 
#    z 0.000000 0.000000 1.670510 
# 
# From -- ./inp_files/56027.got.cif
#   From: 2010.03.12/outbox.cif.g09.slc.cpg/sg63_29_cif.got.tgz:56027.got - 2010.04.10 19:34:48.
