data_PCOD8255607
_publ_section_title
;
Structure prediction by ZEFSAII (Michael W. Deem and Ramdas Pophale) SiO2 
 PCOD8255607
Probable space group: C M C M
;
_chemical_formula_sum "Si O2"
_cell_formula_units_Z 72
_cell_length_a 20.076881
_cell_length_b 8.606942
_cell_length_c 22.502894
_cell_angle_alpha 90.000000
_cell_angle_beta 90.000000
_cell_angle_gamma 90.000000
_cell_volume 3888.512467
_symmetry_space_group_name_H-M "C M C M"
_symmetry_group_IT_number 63
_symmetry_cell_setting 'orthorhombic'
loop_
_space_group_symop_operation_xyz
x,y,z
-x,-y,1/2+z
x,-y,-z
-x,y,1/2-z
-x,-y,-z
x,y,1/2-z
-x,y,z
x,-y,1/2+z
1/2+x,1/2+y,z
1/2-x,1/2-y,1/2+z
1/2+x,1/2-y,-z
1/2-x,1/2+y,1/2-z
1/2-x,1/2-y,-z
1/2+x,1/2+y,1/2-z
1/2-x,1/2+y,z
1/2+x,1/2-y,1/2+z
loop_
_atom_site_type_symbol
_atom_site_label
_atom_site_fract_x
_atom_site_fract_y
_atom_site_fract_z
Si Si1 0.308194 0.473905 0.931553
Si Si2 0.577121 0.996620 0.681032
Si Si3 0.823208 0.679966 0.400380
Si Si4 0.891618 0.500000 0.000000
Si Si5 0.072287 0.253155 0.090429
O O1 0.251401 0.387085 0.893419
O O2 0.321834 0.634899 0.898616
O O3 0.374820 0.372717 0.929562
O O4 0.287008 0.500000 0.000000
O O5 0.594266 0.006220 0.750000
O O6 0.500000 0.946391 0.670177
O O7 0.627184 0.872590 0.651831
O O8 0.590507 0.168025 0.653600
O O9 0.846478 0.621509 0.464484
O O10 0.935057 0.603031 0.955464
O O11 0.000000 0.170710 0.093463
#
# Coordination Sequence:
#
# PCOD8255607 Si02
#       5
#    16  16  16   8  16
#     4  12  22  37  55  85 122 156 187 232 290 345
#     4   9  20  41  64  84 112 150 190 235 285 337
#     4  11  21  35  59  83 113 153 194 231 282 339
#     4  10  17  34  54  80 113 146 188 230 277 342
#     4  10  21  35  56  86 116 150 191 233 283 338
#
# _framework density 18.516079000000001
#
# number of rings (size 3 to 8) (size 9 to 14) (size 15 to 20)
#    0.000    1.556    3.333    3.667    0.000    2.222 
#    0.000    5.556    0.000    2.667    0.000    0.000 
#    0.000    0.000    0.000    0.000    0.000    0.000 
#
# Total GULP energy -446322.588399 kJ/mol
# GULP energy per Si atom -12397.849678 kJ/mol
# Density = 1.847394 g / cm^3
# Si number density = 18.516079 Si / 1000 Ang^3
#
#
#
# Elastic Constant Matrix: (Units=GPa)
#
#
# Indices 1 2 3 4 5 6 
#
# 1 113.1278 54.0229 40.6220 0.0000 0.0000 0.0000
# 2 54.0229 113.5594 37.4595 0.0000 0.0000 0.0000
# 3 40.6220 37.4595 105.7357 0.0000 0.0000 0.0000
# 4 0.0000 0.0000 0.0000 17.5411 0.0000 0.0000
# 5 0.0000 0.0000 0.0000 0.0000 23.4967 0.0000
# 6 0.0000 0.0000 0.0000 0.0000 0.0000 13.5628
#
#
#
# Elastic Compliance Matrix: (Units=1/GPa)
#
#
# Indices 1 2 3 4 5 6 
#
# 1 0.012216 -0.004827 -0.002983 0.000000 0.000000 0.000000
# 2 -0.004827 0.011879 -0.002354 0.000000 0.000000 0.000000
# 3 -0.002983 -0.002354 0.011437 0.000000 0.000000 0.000000
# 4 0.000000 0.000000 0.000000 0.057009 0.000000 0.000000
# 5 0.000000 0.000000 0.000000 0.000000 0.042559 0.000000
# 6 0.000000 0.000000 0.000000 0.000000 0.000000 0.073731
#
#
# Mechanical properties :
#
#
# Convention : Reuss Voigt Hill
#
# Bulk Modulus (GPa) = 65.77220 66.29241 66.03230
# Shear Modulus (GPa) = 21.34671 24.27467 22.81069
#
# Velocity S-wave (km/s) = 3.39908 3.62471 3.51371
# Velocity P-wave (km/s) = 7.14170 7.30742 7.22503
#
# Compressibility (1/GPa) = 0.01520399
#
# Stress axis : x y z
#
# Youngs Moduli (GPa) = 81.86008 84.18270 87.43222
#
# Poissons Ratio (x) = 0.40639 0.26081
# Poissons Ratio (y) = 0.39518 0.20580
# Poissons Ratio (z) = 0.24418 0.19815
#
# Static dielectric constant tensor:
#      x y z
#    x 3.455500 0.000000 0.000000 
#    y 0.000000 3.275610 0.000000 
#    z 0.000000 0.000000 3.276110 
# 
# 
# High freq. dielectric constant tensor:
#      x y z
#    x 1.732940 0.000000 0.000000 
#    y 0.000000 1.709890 0.000000 
#    z 0.000000 0.000000 1.697190 
# 
# From -- ./inp_files/63485.got.cif
#   From: 2010.03.12/outbox.cif.g09.slc.cpg/sg63_32_cif.got.tgz:63485.got - 2010.04.10 19:34:48.
