data_PCOD8255190
_publ_section_title
;
Structure prediction by ZEFSAII (Michael W. Deem and Ramdas Pophale) SiO2 
 PCOD8255190
Probable space group: P N M A
;
_chemical_formula_sum "Si O2"
_cell_formula_units_Z 48
_cell_length_a 18.672700
_cell_length_b 8.402351
_cell_length_c 14.667159
_cell_angle_alpha 90.000000
_cell_angle_beta 90.000000
_cell_angle_gamma 90.000000
_cell_volume 2301.197744
_symmetry_space_group_name_H-M "P N M A"
_symmetry_group_IT_number 62
_symmetry_cell_setting 'orthorhombic'
loop_
_space_group_symop_operation_xyz
x,y,z
1/2-x,-y,1/2+z
1/2+x,1/2-y,1/2-z
-x,1/2+y,-z
-x,-y,-z
1/2+x,y,1/2-z
1/2-x,1/2+y,1/2+z
x,1/2-y,z
loop_
_atom_site_type_symbol
_atom_site_label
_atom_site_fract_x
_atom_site_fract_y
_atom_site_fract_z
Si Si1 0.431916 0.564549 0.052601
Si Si2 0.518473 0.563085 0.400988
Si Si3 0.783478 0.432021 0.513054
Si Si4 0.317920 0.432727 0.634689
Si Si5 0.917403 0.435499 0.252784
Si Si6 0.258083 0.433662 0.298711
O O1 0.421761 0.750000 0.033075
O O2 0.363678 0.470545 0.016155
O O3 0.442319 0.535898 0.160029
O O4 0.500000 0.500000 0.000000
O O5 0.500000 0.500000 0.500000
O O6 0.503013 0.750000 0.393760
O O7 0.600158 0.520634 0.379626
O O8 0.470508 0.468936 0.329658
O O9 0.779137 0.250000 0.544397
O O10 0.731630 0.457468 0.427618
O O11 0.757985 0.542409 0.595305
O O12 0.303971 0.250000 0.608819
O O13 0.297663 0.463486 0.739758
O O14 0.919155 0.250000 0.277735
O O15 0.838430 0.490549 0.222893
O O16 0.247879 0.250000 0.273937
#
# Coordination Sequence:
#
# PCOD8255190 Si02
#       6
#     8   8   8   8   8   8
#     4  12  26  45  69  96 133 175 222 273 332 396
#     4  11  25  43  66  97 133 174 221 270 329 392
#     4  12  25  43  68  98 133 172 220 272 331 394
#     4  11  24  43  66  96 132 170 220 273 325 392
#     4  11  24  44  69  99 135 173 220 271 331 396
#     4  11  24  42  67  97 130 171 219 270 329 395
#
# _framework density 20.858705
#
# number of rings (size 3 to 8) (size 9 to 14) (size 15 to 20)
#    0.000    0.667    1.667    6.000    2.333    8.667 
#    0.000    0.000    0.000    0.000    0.000    0.000 
#    0.000    0.000    0.000    0.000    0.000    0.000 
#
# Total GULP energy -595657.649870 kJ/mol
# GULP energy per Si atom -12409.534372 kJ/mol
# Density = 2.081123 g / cm^3
# Si number density = 20.858705 Si / 1000 Ang^3
#
#
#
# Elastic Constant Matrix: (Units=GPa)
#
#
# Indices 1 2 3 4 5 6 
#
# 1 133.7634 44.6384 45.5491 0.0000 0.0000 0.0000
# 2 44.6384 76.6201 13.3460 0.0000 0.0000 0.0000
# 3 45.5491 13.3460 117.2946 0.0000 0.0000 0.0000
# 4 0.0000 0.0000 0.0000 40.6919 0.0000 0.0000
# 5 0.0000 0.0000 0.0000 0.0000 41.0651 0.0000
# 6 0.0000 0.0000 0.0000 0.0000 0.0000 31.3247
#
#
#
# Elastic Compliance Matrix: (Units=1/GPa)
#
#
# Indices 1 2 3 4 5 6 
#
# 1 0.010488 -0.005510 -0.003446 0.000000 0.000000 0.000000
# 2 -0.005510 0.016210 0.000295 0.000000 0.000000 0.000000
# 3 -0.003446 0.000295 0.009830 0.000000 0.000000 0.000000
# 4 0.000000 0.000000 0.000000 0.024575 0.000000 0.000000
# 5 0.000000 0.000000 0.000000 0.000000 0.024352 0.000000
# 6 0.000000 0.000000 0.000000 0.000000 0.000000 0.031924
#
#
# Mechanical properties :
#
#
# Convention : Reuss Voigt Hill
#
# Bulk Modulus (GPa) = 52.06450 59.41615 55.74032
# Shear Modulus (GPa) = 35.43537 37.55932 36.49735
#
# Velocity S-wave (km/s) = 4.12616 4.24802 4.18753
# Velocity P-wave (km/s) = 6.90760 7.25312 7.08247
#
# Compressibility (1/GPa) = 0.01920695
#
# Stress axis : x y z
#
# Youngs Moduli (GPa) = 95.34658 61.68998 101.72854
#
# Poissons Ratio (x) = 0.33992 0.35055
# Poissons Ratio (y) = 0.52537 -0.03004
# Poissons Ratio (z) = 0.32855 -0.01822
#
# Static dielectric constant tensor:
#      x y z
#    x 3.737680 0.000000 0.000000 
#    y 0.000000 3.790530 0.000000 
#    z 0.000000 0.000000 3.735920 
# 
# 
# High freq. dielectric constant tensor:
#      x y z
#    x 1.829200 0.000000 0.000000 
#    y 0.000000 1.828440 0.000000 
#    z 0.000000 0.000000 1.830840 
# 
# From -- ./inp_files/19596.got.cif
#   From: 2010.03.12/outbox.cif.g09.slc.cpg/sg62_10_cif.got.tgz:19596.got - 2010.04.10 19:12:36.
