data_PCOD8255917
_publ_section_title
;
Structure prediction by ZEFSAII (Michael W. Deem and Ramdas Pophale) SiO2 
 PCOD8255917
Probable space group: C M C M
;
_chemical_formula_sum "Si O2"
_cell_formula_units_Z 64
_cell_length_a 7.915239
_cell_length_b 22.883441
_cell_length_c 20.661836
_cell_angle_alpha 90.000000
_cell_angle_beta 90.000000
_cell_angle_gamma 90.000000
_cell_volume 3742.435061
_symmetry_space_group_name_H-M "C M C M"
_symmetry_group_IT_number 63
_symmetry_cell_setting 'orthorhombic'
loop_
_space_group_symop_operation_xyz
x,y,z
-x,-y,1/2+z
x,-y,-z
-x,y,1/2-z
-x,-y,-z
x,y,1/2-z
-x,y,z
x,-y,1/2+z
1/2+x,1/2+y,z
1/2-x,1/2-y,1/2+z
1/2+x,1/2-y,-z
1/2-x,1/2+y,1/2-z
1/2-x,1/2-y,-z
1/2+x,1/2+y,1/2-z
1/2-x,1/2+y,z
1/2+x,1/2-y,1/2+z
loop_
_atom_site_type_symbol
_atom_site_label
_atom_site_fract_x
_atom_site_fract_y
_atom_site_fract_z
Si Si1 0.000000 0.045319 0.405489
Si Si2 0.000000 0.083104 0.946388
Si Si3 0.186553 0.873273 0.821450
Si Si4 0.307754 0.164172 0.950466
Si Si5 0.810252 0.282049 0.585231
O O1 0.000000 0.069490 0.477858
O O2 0.168322 0.068985 0.367377
O O3 0.000000 0.975648 0.404014
O O4 0.828482 0.116907 0.926022
O O5 0.256931 0.890282 0.750000
O O6 0.303582 0.823506 0.852216
O O7 0.000000 0.845056 0.815411
O O8 0.500000 0.139090 0.947379
O O9 0.300580 0.223271 0.907088
O O10 0.250494 0.180680 0.023259
O O11 0.000000 0.260397 0.574102
#
# Coordination Sequence:
#
# PCOD8255917 Si02
#       5
#     8   8  16  16  16
#     4   9  19  32  52  72 103 141 181 219 262 303
#     4  11  18  34  52  76 108 140 178 220 259 329
#     4   9  17  32  51  71  98 134 176 214 257 304
#     4  10  19  30  50  77 110 140 166 213 269 320
#     4  10  18  29  48  77 109 136 172 212 264 324
#
# _framework density 17.101164000000001
#
# number of rings (size 3 to 8) (size 9 to 14) (size 15 to 20)
#    0.750    1.500    3.750    0.750    1.750    0.500 
#    0.000    3.750    0.000    3.000    0.000    0.000 
#    0.000    0.000    0.000    0.000    0.000    0.000 
#
# Total GULP energy -396476.448426 kJ/mol
# GULP energy per Si atom -12389.889013 kJ/mol
# Density = 1.706224 g / cm^3
# Si number density = 17.101164 Si / 1000 Ang^3
#
#
#
# Elastic Constant Matrix: (Units=GPa)
#
#
# Indices 1 2 3 4 5 6 
#
# 1 79.2369 45.2973 7.7905 0.0000 0.0000 0.0000
# 2 45.2973 117.5534 47.3691 0.0000 0.0000 0.0000
# 3 7.7905 47.3691 80.7905 0.0000 0.0000 0.0000
# 4 0.0000 0.0000 0.0000 21.2274 0.0000 0.0000
# 5 0.0000 0.0000 0.0000 0.0000 14.6776 0.0000
# 6 0.0000 0.0000 0.0000 0.0000 0.0000 23.3777
#
#
#
# Elastic Compliance Matrix: (Units=1/GPa)
#
#
# Indices 1 2 3 4 5 6 
#
# 1 0.016664 -0.007560 0.002826 0.000000 0.000000 0.000000
# 2 -0.007560 0.014568 -0.007813 0.000000 0.000000 0.000000
# 3 0.002826 -0.007813 0.016686 0.000000 0.000000 0.000000
# 4 0.000000 0.000000 0.000000 0.047109 0.000000 0.000000
# 5 0.000000 0.000000 0.000000 0.000000 0.068131 0.000000
# 6 0.000000 0.000000 0.000000 0.000000 0.000000 0.042776
#
#
# Mechanical properties :
#
#
# Convention : Reuss Voigt Hill
#
# Bulk Modulus (GPa) = 43.81247 53.16607 48.48927
# Shear Modulus (GPa) = 20.95242 23.66480 22.30861
#
# Velocity S-wave (km/s) = 3.50409 3.72400 3.61572
# Velocity P-wave (km/s) = 6.48434 7.04610 6.77105
#
# Compressibility (1/GPa) = 0.02282455
#
# Stress axis : x y z
#
# Youngs Moduli (GPa) = 60.00829 68.64356 59.93099
#
# Poissons Ratio (x) = 0.51894 -0.16934
# Poissons Ratio (y) = 0.45366 0.46821
# Poissons Ratio (z) = -0.16956 0.53628
#
# Static dielectric constant tensor:
#      x y z
#    x 2.997210 0.000000 0.000000 
#    y 0.000000 3.035820 0.000000 
#    z 0.000000 0.000000 3.002730 
# 
# 
# High freq. dielectric constant tensor:
#      x y z
#    x 1.651300 0.000000 0.000000 
#    y 0.000000 1.641910 0.000000 
#    z 0.000000 0.000000 1.629110 
# 
# From -- ./inp_files/59410.got.cif
#   From: 2010.03.12/outbox.cif.g09.slc.cpg/sg63_30_cif.got.tgz:59410.got - 2010.04.10 19:34:48.
