data_PCOD8255444
_publ_section_title
;
Structure prediction by ZEFSAII (Michael W. Deem and Ramdas Pophale) SiO2 
 PCOD8255444
Probable space group: C M C M
;
_chemical_formula_sum "Si O2"
_cell_formula_units_Z 96
_cell_length_a 8.777134
_cell_length_b 19.671936
_cell_length_c 30.493653
_cell_angle_alpha 90.000000
_cell_angle_beta 90.000000
_cell_angle_gamma 90.000000
_cell_volume 5265.132265
_symmetry_space_group_name_H-M "C M C M"
_symmetry_group_IT_number 63
_symmetry_cell_setting 'orthorhombic'
loop_
_space_group_symop_operation_xyz
x,y,z
-x,-y,1/2+z
x,-y,-z
-x,y,1/2-z
-x,-y,-z
x,y,1/2-z
-x,y,z
x,-y,1/2+z
1/2+x,1/2+y,z
1/2-x,1/2-y,1/2+z
1/2+x,1/2-y,-z
1/2-x,1/2+y,1/2-z
1/2-x,1/2-y,-z
1/2+x,1/2+y,1/2-z
1/2-x,1/2+y,z
1/2+x,1/2-y,1/2+z
loop_
_atom_site_type_symbol
_atom_site_label
_atom_site_fract_x
_atom_site_fract_y
_atom_site_fract_z
Si Si1 0.676545 0.068599 0.541650
Si Si2 0.674202 0.077178 0.861885
Si Si3 0.676079 0.681903 0.699855
Si Si4 0.323661 0.321568 0.801086
Si Si5 0.677956 0.919961 0.868336
Si Si6 0.678859 0.421962 0.543140
O O1 0.500000 0.049427 0.534490
O O2 0.695941 0.106320 0.588426
O O3 0.740500 0.112070 0.500128
O O4 0.776406 0.000705 0.543782
O O5 0.500000 0.086508 0.846516
O O6 0.783889 0.117243 0.829496
O O7 0.722223 0.998294 0.860059
O O8 0.714774 0.663154 0.750000
O O9 0.500000 0.700403 0.694037
O O10 0.773622 0.746429 0.684003
O O11 0.288310 0.331797 0.750000
O O12 0.500000 0.331283 0.812248
O O13 0.226913 0.377855 0.826106
O O14 0.500000 0.912807 0.876796
O O15 0.761718 0.889375 0.911430
O O16 0.500000 0.411035 0.539399
#
# Coordination Sequence:
#
# PCOD8255444 Si02
#       6
#    16  16  16  16  16  16
#     4   9  16  28  45  68 100 135 169 205 250 301
#     4   9  19  33  51  76 104 135 169 208 252 296
#     4  10  21  36  54  75 100 133 171 209 251 303
#     4  10  21  37  56  76 100 132 170 211 254 304
#     4  10  20  34  52  76 106 137 170 210 255 301
#     4  10  17  26  44  71 101 133 169 207 249 297
#
# _framework density 18.233160000000002
#
# number of rings (size 3 to 8) (size 9 to 14) (size 15 to 20)
#    0.000    2.333    0.000    5.500    0.000    6.667 
#    0.000    3.333    0.000    1.000    0.000    0.000 
#    0.000    0.000    0.000    0.000    0.000    0.000 
#
# Total GULP energy -595051.175570 kJ/mol
# GULP energy per Si atom -12396.899491 kJ/mol
# Density = 1.819166 g / cm^3
# Si number density = 18.233160 Si / 1000 Ang^3
#
#
#
# Elastic Constant Matrix: (Units=GPa)
#
#
# Indices 1 2 3 4 5 6 
#
# 1 81.3266 29.7895 46.2652 0.0000 0.0000 0.0000
# 2 29.7895 56.4764 49.4037 0.0000 0.0000 0.0000
# 3 46.2652 49.4037 109.9215 0.0000 0.0000 0.0000
# 4 0.0000 0.0000 0.0000 1.6197 0.0000 0.0000
# 5 0.0000 0.0000 0.0000 0.0000 36.9667 0.0000
# 6 0.0000 0.0000 0.0000 0.0000 0.0000 26.1915
#
#
#
# Elastic Compliance Matrix: (Units=1/GPa)
#
#
# Indices 1 2 3 4 5 6 
#
# 1 0.016809 -0.004412 -0.005092 0.000000 0.000000 0.000000
# 2 -0.004412 0.030336 -0.011778 0.000000 0.000000 0.000000
# 3 -0.005092 -0.011778 0.016534 0.000000 0.000000 0.000000
# 4 0.000000 0.000000 0.000000 0.617414 0.000000 0.000000
# 5 0.000000 0.000000 0.000000 0.000000 0.027051 0.000000
# 6 0.000000 0.000000 0.000000 0.000000 0.000000 0.038180
#
#
# Mechanical properties :
#
#
# Convention : Reuss Voigt Hill
#
# Bulk Modulus (GPa) = 47.35664 55.40460 51.38062
# Shear Modulus (GPa) = 6.28199 21.10664 13.69432
#
# Velocity S-wave (km/s) = 1.85818 3.40604 2.74353
# Velocity P-wave (km/s) = 5.53471 6.77649 6.18683
#
# Compressibility (1/GPa) = 0.02111636
#
# Stress axis : x y z
#
# Youngs Moduli (GPa) = 59.49258 32.96380 60.48206
#
# Poissons Ratio (x) = 0.14544 0.30796
# Poissons Ratio (y) = 0.26248 0.71233
# Poissons Ratio (z) = 0.30292 0.38823
#
# Static dielectric constant tensor:
#      x y z
#    x 3.360070 0.000000 0.000000 
#    y 0.000000 2.907400 0.000000 
#    z 0.000000 0.000000 3.905720 
# 
# 
# High freq. dielectric constant tensor:
#      x y z
#    x 1.719430 0.000000 0.000000 
#    y 0.000000 1.652300 0.000000 
#    z 0.000000 0.000000 1.725950 
# 
# From -- ./inp_files/66970.got.cif
#   From: 2010.03.12/outbox.cif.g09.slc.cpg/sg63_34_cif.got.tgz:66970.got - 2010.04.10 19:34:48.
