data_PCOD8255990
_publ_section_title
;
Structure prediction by ZEFSAII (Michael W. Deem and Ramdas Pophale) SiO2 
 PCOD8255990
Probable space group: C M C M
;
_chemical_formula_sum "Si O2"
_cell_formula_units_Z 112
_cell_length_a 20.144726
_cell_length_b 19.148313
_cell_length_c 18.495138
_cell_angle_alpha 90.000000
_cell_angle_beta 90.000000
_cell_angle_gamma 90.000000
_cell_volume 7134.268641
_symmetry_space_group_name_H-M "C M C M"
_symmetry_group_IT_number 63
_symmetry_cell_setting 'orthorhombic'
loop_
_space_group_symop_operation_xyz
x,y,z
-x,-y,1/2+z
x,-y,-z
-x,y,1/2-z
-x,-y,-z
x,y,1/2-z
-x,y,z
x,-y,1/2+z
1/2+x,1/2+y,z
1/2-x,1/2-y,1/2+z
1/2+x,1/2-y,-z
1/2-x,1/2+y,1/2-z
1/2-x,1/2-y,-z
1/2+x,1/2+y,1/2-z
1/2-x,1/2+y,z
1/2+x,1/2-y,1/2+z
loop_
_atom_site_type_symbol
_atom_site_label
_atom_site_fract_x
_atom_site_fract_y
_atom_site_fract_z
Si Si1 0.752461 0.864322 0.333048
Si Si2 0.757311 0.343092 0.831783
Si Si3 0.074782 0.954005 0.570885
Si Si4 0.361560 0.766232 0.170428
Si Si5 0.424631 0.704552 0.039045
Si Si6 0.692275 0.256443 0.440215
Si Si7 0.195486 0.986040 0.833497
O O1 0.774015 0.847331 0.250000
O O2 0.675868 0.840102 0.344098
O O3 0.798949 0.823503 0.388921
O O4 0.760191 0.946005 0.350119
O O5 0.786335 0.343941 0.750000
O O6 0.692708 0.294663 0.835553
O O7 0.809948 0.312314 0.889130
O O8 0.739177 0.420412 0.858877
O O9 0.096844 0.874978 0.554011
O O10 0.124763 0.988845 0.627304
O O11 0.000000 0.954700 0.603216
O O12 0.078182 0.000000 0.500000
O O13 0.394623 0.766110 0.250000
O O14 0.418020 0.751181 0.111691
O O15 0.500000 0.708520 0.011609
O O16 0.378744 0.737478 0.977562
O O17 0.750000 0.250000 0.500000
O O18 0.177629 0.978519 0.750000
#
# Coordination Sequence:
#
# PCOD8255990 Si02
#       7
#    16  16  16  16  16  16  16
#     4   9  18  30  49  70  94 123 160 202 242 279
#     4   9  17  29  48  70  93 118 155 202 244 280
#     4  10  20  32  43  62  99 138 162 188 229 279
#     4   9  16  31  48  67  95 124 153 198 247 285
#     4  11  21  31  47  72  98 129 166 199 235 285
#     4  11  17  30  50  67  93 130 159 191 241 287
#     4  10  18  30  47  71  94 119 159 205 238 282
#
# _framework density 15.698876
#
# number of rings (size 3 to 8) (size 9 to 14) (size 15 to 20)
#    0.000    2.143    4.286    2.143    0.000    0.571 
#    0.000    1.429    0.000    2.571    0.000    2.000 
#    0.000    3.429    0.000    0.000    0.000    0.143 
#
# Total GULP energy -694209.022715 kJ/mol
# GULP energy per Si atom -12396.589691 kJ/mol
# Density = 1.566315 g / cm^3
# Si number density = 15.698876 Si / 1000 Ang^3
#
#
#
# Elastic Constant Matrix: (Units=GPa)
#
#
# Indices 1 2 3 4 5 6 
#
# 1 57.5234 36.3784 33.0496 0.0000 0.0000 0.0000
# 2 36.3784 107.4234 36.5328 0.0000 0.0000 0.0000
# 3 33.0496 36.5328 76.1391 0.0000 0.0000 0.0000
# 4 0.0000 0.0000 0.0000 22.1591 0.0000 0.0000
# 5 0.0000 0.0000 0.0000 0.0000 23.7611 0.0000
# 6 0.0000 0.0000 0.0000 0.0000 0.0000 17.6235
#
#
#
# Elastic Compliance Matrix: (Units=1/GPa)
#
#
# Indices 1 2 3 4 5 6 
#
# 1 0.025979 -0.005930 -0.008431 0.000000 0.000000 0.000000
# 2 -0.005930 0.012478 -0.003413 0.000000 0.000000 0.000000
# 3 -0.008431 -0.003413 0.018431 0.000000 0.000000 0.000000
# 4 0.000000 0.000000 0.000000 0.045128 0.000000 0.000000
# 5 0.000000 0.000000 0.000000 0.000000 0.042086 0.000000
# 6 0.000000 0.000000 0.000000 0.000000 0.000000 0.056742
#
#
# Mechanical properties :
#
#
# Convention : Reuss Voigt Hill
#
# Bulk Modulus (GPa) = 46.86244 50.33416 48.59830
# Shear Modulus (GPa) = 20.53342 21.71707 21.12525
#
# Velocity S-wave (km/s) = 3.62049 3.72338 3.67229
# Velocity P-wave (km/s) = 6.88425 7.11453 7.00034
#
# Compressibility (1/GPa) = 0.02133905
#
# Stress axis : x y z
#
# Youngs Moduli (GPa) = 38.49327 80.14169 54.25613
#
# Poissons Ratio (x) = 0.47526 0.45743
# Poissons Ratio (y) = 0.22827 0.18517
# Poissons Ratio (z) = 0.32454 0.27352
#
# Static dielectric constant tensor:
#      x y z
#    x 2.729150 0.000000 0.000000 
#    y 0.000000 3.186200 0.000000 
#    z 0.000000 0.000000 3.217060 
# 
# 
# High freq. dielectric constant tensor:
#      x y z
#    x 1.562810 0.000000 0.000000 
#    y 0.000000 1.601430 0.000000 
#    z 0.000000 0.000000 1.614160 
# 
# From -- ./inp_files/47334.got.cif
#   From: 2010.03.12/outbox.cif.g09.slc.cpg/sg63_24_cif.got.tgz:47334.got - 2010.04.10 19:34:48.
