data_PCOD8255204
_publ_section_title
;
Structure prediction by ZEFSAII (Michael W. Deem and Ramdas Pophale) SiO2 
 PCOD8255204
Probable space group: P N M A
;
_chemical_formula_sum "Si O2"
_cell_formula_units_Z 48
_cell_length_a 13.034127
_cell_length_b 27.132859
_cell_length_c 5.093254
_cell_angle_alpha 90.000000
_cell_angle_beta 90.000000
_cell_angle_gamma 90.000000
_cell_volume 1801.245219
_symmetry_space_group_name_H-M "P N M A"
_symmetry_group_IT_number 62
_symmetry_cell_setting 'orthorhombic'
loop_
_space_group_symop_operation_xyz
x,y,z
1/2-x,-y,1/2+z
1/2+x,1/2-y,1/2-z
-x,1/2+y,-z
-x,-y,-z
1/2+x,y,1/2-z
1/2-x,1/2+y,1/2+z
x,1/2-y,z
loop_
_atom_site_type_symbol
_atom_site_label
_atom_site_fract_x
_atom_site_fract_y
_atom_site_fract_z
Si Si1 0.981905 0.655828 0.324019
Si Si2 0.733812 0.750000 0.846422
Si Si3 0.881423 0.012006 0.332718
Si Si4 0.352777 0.954921 0.662859
Si Si5 0.095171 0.750000 0.156643
Si Si6 0.800077 0.851542 0.651982
Si Si7 0.071592 0.884751 0.838269
O O1 0.020202 0.704389 0.179948
O O2 0.009745 0.614125 0.112591
O O3 0.859377 0.657643 0.376199
O O4 0.038231 0.652172 0.606706
O O5 0.644095 0.750000 0.630963
O O6 0.801219 0.800190 0.814562
O O7 0.687539 0.750000 0.136138
O O8 0.766377 0.032215 0.325095
O O9 0.950028 0.060093 0.268792
O O10 0.898389 0.969766 0.116848
O O11 0.910183 0.987714 0.612080
O O12 0.364799 0.895413 0.701774
O O13 0.687805 0.871102 0.582661
#
# Coordination Sequence:
#
# PCOD8255204 Si02
#       7
#     8   4   8   8   4   8   8
#     4  12  25  43  68 101 133 175 224 275 334 394
#     4  12  25  46  71  98 128 180 217 274 345 390
#     4   9  18  37  62  92 131 174 213 268 320 383
#     4   9  19  35  62  94 127 172 220 259 327 388
#     4  12  23  46  67  96 132 172 221 276 331 410
#     4  11  25  45  71  99 136 177 221 278 333 396
#     4  11  24  44  70  99 139 177 223 272 330 393
#
# _framework density 26.648233999999999
#
# number of rings (size 3 to 8) (size 9 to 14) (size 15 to 20)
#    0.000    1.333    3.333    1.500    0.000    9.333 
#    0.000    6.667    0.000    0.000    0.000    0.000 
#    0.000    0.000    0.000    0.000    0.000    0.000 
#
# Total GULP energy -595304.675817 kJ/mol
# GULP energy per Si atom -12402.180746 kJ/mol
# Density = 2.658758 g / cm^3
# Si number density = 26.648234 Si / 1000 Ang^3
#
#
#
# Elastic Constant Matrix: (Units=GPa)
#
#
# Indices 1 2 3 4 5 6 
#
# 1 72.2920 30.4602 32.2770 0.0000 0.0000 0.0000
# 2 30.4602 164.0196 11.3085 0.0000 0.0000 0.0000
# 3 32.2770 11.3085 125.7341 0.0000 0.0000 0.0000
# 4 0.0000 0.0000 0.0000 79.0552 0.0000 0.0000
# 5 0.0000 0.0000 0.0000 0.0000 51.6433 0.0000
# 6 0.0000 0.0000 0.0000 0.0000 0.0000 49.6351
#
#
#
# Elastic Compliance Matrix: (Units=1/GPa)
#
#
# Indices 1 2 3 4 5 6 
#
# 1 0.016850 -0.002849 -0.004069 0.000000 0.000000 0.000000
# 2 -0.002849 0.006616 0.000136 0.000000 0.000000 0.000000
# 3 -0.004069 0.000136 0.008986 0.000000 0.000000 0.000000
# 4 0.000000 0.000000 0.000000 0.012649 0.000000 0.000000
# 5 0.000000 0.000000 0.000000 0.000000 0.019364 0.000000
# 6 0.000000 0.000000 0.000000 0.000000 0.000000 0.020147
#
#
# Mechanical properties :
#
#
# Convention : Reuss Voigt Hill
#
# Bulk Modulus (GPa) = 52.94222 56.68191 54.81207
# Shear Modulus (GPa) = 47.85979 55.26670 51.56324
#
# Velocity S-wave (km/s) = 4.24250 4.55899 4.40359
# Velocity P-wave (km/s) = 6.62636 7.00208 6.81681
#
# Compressibility (1/GPa) = 0.01888852
#
# Stress axis : x y z
#
# Youngs Moduli (GPa) = 59.34743 151.13806 111.28824
#
# Poissons Ratio (x) = 0.43054 0.45287
# Poissons Ratio (y) = 0.16906 -0.01516
# Poissons Ratio (z) = 0.24150 -0.02058
#
# Static dielectric constant tensor:
#      x y z
#    x 5.019790 0.000000 0.000000 
#    y 0.000000 5.230230 0.000000 
#    z 0.000000 0.000000 4.627490 
# 
# 
# High freq. dielectric constant tensor:
#      x y z
#    x 2.098970 0.000000 0.000000 
#    y 0.000000 2.083900 0.000000 
#    z 0.000000 0.000000 2.066030 
# 
# From -- ./inp_files/1205.got.cif
#   From: 2010.03.12/outbox.cif.g09.slc.cpg/sg62_1_cif.got.tgz:1205.got - 2010.04.10 19:12:36.
