data_PCOD8255949
_publ_section_title
;
Structure prediction by ZEFSAII (Michael W. Deem and Ramdas Pophale) SiO2 
 PCOD8255949
Probable space group: C M C M
;
_chemical_formula_sum "Si O2"
_cell_formula_units_Z 88
_cell_length_a 33.623891
_cell_length_b 23.185169
_cell_length_c 8.675873
_cell_angle_alpha 90.000000
_cell_angle_beta 90.000000
_cell_angle_gamma 90.000000
_cell_volume 6763.498858
_symmetry_space_group_name_H-M "C M C M"
_symmetry_group_IT_number 63
_symmetry_cell_setting 'orthorhombic'
loop_
_space_group_symop_operation_xyz
x,y,z
-x,-y,1/2+z
x,-y,-z
-x,y,1/2-z
-x,-y,-z
x,y,1/2-z
-x,y,z
x,-y,1/2+z
1/2+x,1/2+y,z
1/2-x,1/2-y,1/2+z
1/2+x,1/2-y,-z
1/2-x,1/2+y,1/2-z
1/2-x,1/2-y,-z
1/2+x,1/2+y,1/2-z
1/2-x,1/2+y,z
1/2+x,1/2-y,1/2+z
loop_
_atom_site_type_symbol
_atom_site_label
_atom_site_fract_x
_atom_site_fract_y
_atom_site_fract_z
Si Si1 0.343810 0.879500 0.069076
Si Si2 0.232479 0.438876 0.566060
Si Si3 0.809115 0.272574 0.580321
Si Si4 0.419407 0.936502 0.567442
Si Si5 0.276620 0.329386 0.919738
Si Si6 0.500000 0.063919 0.933513
O O1 0.349143 0.888935 0.250000
O O2 0.309325 0.921430 0.008454
O O3 0.334467 0.812438 0.034771
O O4 0.383849 0.894912 0.980378
O O5 0.246209 0.500000 0.500000
O O6 0.227294 0.439655 0.750000
O O7 0.266975 0.393480 0.516077
O O8 0.828659 0.274215 0.750000
O O9 0.764653 0.295669 0.588944
O O10 0.807908 0.205926 0.524032
O O11 0.422770 0.941175 0.750000
O O12 0.459651 0.907240 0.498520
O O13 0.411792 0.000000 0.500000
O O14 0.295529 0.333768 0.750000
O O15 0.500000 0.064628 0.750000
O O16 0.500000 0.000000 0.000000
#
# Coordination Sequence:
#
# PCOD8255949 Si02
#       6
#    16  16  16  16  16   8
#     4  11  20  29  40  54  72  93 116 146 183 218
#     4  10  19  29  39  53  72  93 118 147 181 218
#     4   9  16  26  39  54  69  87 113 143 175 211
#     4  11  20  31  43  56  73  93 117 145 179 216
#     4   8  15  26  38  51  68  90 114 141 173 211
#     4  10  18  30  44  58  72  90 116 142 173 212
#
# _framework density 13.011017000000001
#
# number of rings (size 3 to 8) (size 9 to 14) (size 15 to 20)
#    0.000    2.182    0.000    7.909    0.000    5.091 
#    0.000    0.000    0.000    0.000    0.000    0.000 
#    0.000    0.000    0.000    0.000    0.000    0.000 
#
# Total GULP energy -545385.151475 kJ/mol
# GULP energy per Si atom -12395.117079 kJ/mol
# Density = 1.298140 g / cm^3
# Si number density = 13.011017 Si / 1000 Ang^3
#
#
#
# Elastic Constant Matrix: (Units=GPa)
#
#
# Indices 1 2 3 4 5 6 
#
# 1 39.2188 31.3725 20.8773 0.0000 0.0000 0.0000
# 2 31.3725 83.9849 29.5613 0.0000 0.0000 0.0000
# 3 20.8773 29.5613 96.4827 0.0000 0.0000 0.0000
# 4 0.0000 0.0000 0.0000 19.5311 0.0000 0.0000
# 5 0.0000 0.0000 0.0000 0.0000 18.1393 0.0000
# 6 0.0000 0.0000 0.0000 0.0000 0.0000 8.9918
#
#
#
# Elastic Compliance Matrix: (Units=1/GPa)
#
#
# Indices 1 2 3 4 5 6 
#
# 1 0.037913 -0.012638 -0.004332 0.000000 0.000000 0.000000
# 2 -0.012638 0.017559 -0.002645 0.000000 0.000000 0.000000
# 3 -0.004332 -0.002645 0.012112 0.000000 0.000000 0.000000
# 4 0.000000 0.000000 0.000000 0.051200 0.000000 0.000000
# 5 0.000000 0.000000 0.000000 0.000000 0.055129 0.000000
# 6 0.000000 0.000000 0.000000 0.000000 0.000000 0.111212
#
#
# Mechanical properties :
#
#
# Convention : Reuss Voigt Hill
#
# Bulk Modulus (GPa) = 35.26723 42.58985 38.92854
# Shear Modulus (GPa) = 14.97871 18.52413 16.75142
#
# Velocity S-wave (km/s) = 3.39666 3.77732 3.59204
# Velocity P-wave (km/s) = 6.52285 7.19923 6.86937
#
# Compressibility (1/GPa) = 0.02835493
#
# Stress axis : x y z
#
# Youngs Moduli (GPa) = 26.37596 56.95144 82.56040
#
# Poissons Ratio (x) = 0.71974 0.35763
# Poissons Ratio (y) = 0.33333 0.21839
# Poissons Ratio (z) = 0.11425 0.15065
#
# Static dielectric constant tensor:
#      x y z
#    x 2.585600 0.000000 0.000000 
#    y 0.000000 2.670760 0.000000 
#    z 0.000000 0.000000 2.848850 
# 
# 
# High freq. dielectric constant tensor:
#      x y z
#    x 1.450740 0.000000 0.000000 
#    y 0.000000 1.473280 0.000000 
#    z 0.000000 0.000000 1.516570 
# 
# From -- ./inp_files/14593.got.cif
#   From: 2010.03.12/outbox.cif.g09.slc.cpg/sg63_8_cif.got.tgz:14593.got - 2010.04.10 19:34:48.
