data_PCOD8255673
_publ_section_title
;
Structure prediction by ZEFSAII (Michael W. Deem and Ramdas Pophale) SiO2 
 PCOD8255673
Probable space group: C M C M
;
_chemical_formula_sum "Si O2"
_cell_formula_units_Z 80
_cell_length_a 19.978831
_cell_length_b 26.781311
_cell_length_c 10.167088
_cell_angle_alpha 90.000000
_cell_angle_beta 90.000000
_cell_angle_gamma 90.000000
_cell_volume 5439.994850
_symmetry_space_group_name_H-M "C M C M"
_symmetry_group_IT_number 63
_symmetry_cell_setting 'orthorhombic'
loop_
_space_group_symop_operation_xyz
x,y,z
-x,-y,1/2+z
x,-y,-z
-x,y,1/2-z
-x,-y,-z
x,y,1/2-z
-x,y,z
x,-y,1/2+z
1/2+x,1/2+y,z
1/2-x,1/2-y,1/2+z
1/2+x,1/2-y,-z
1/2-x,1/2+y,1/2-z
1/2-x,1/2-y,-z
1/2+x,1/2+y,1/2-z
1/2-x,1/2+y,z
1/2+x,1/2-y,1/2+z
loop_
_atom_site_type_symbol
_atom_site_label
_atom_site_fract_x
_atom_site_fract_y
_atom_site_fract_z
Si Si1 0.922464 0.543074 0.400920
Si Si2 0.339631 0.279423 0.250000
Si Si3 0.288745 0.163216 0.750000
Si Si4 0.758048 0.678154 0.250000
Si Si5 0.658480 0.859725 0.522694
Si Si6 0.130009 0.765028 0.750000
Si Si7 0.423049 0.241738 0.478166
O O1 0.898030 0.500000 0.500000
O O2 0.910156 0.526203 0.250000
O O3 0.881372 0.592167 0.432725
O O4 0.000000 0.555354 0.425719
O O5 0.291601 0.328042 0.250000
O O6 0.293838 0.231047 0.250000
O O7 0.385801 0.279421 0.379280
O O8 0.311410 0.132193 0.622432
O O9 0.324118 0.216419 0.750000
O O10 0.778942 0.648051 0.119877
O O11 0.678108 0.686390 0.250000
O O12 0.608154 0.813246 0.529328
O O13 0.082963 0.765370 0.622689
O O14 0.500000 0.237408 0.437126
#
# Coordination Sequence:
#
# PCOD8255673 Si02
#       7
#    16   8   8   8  16   8  16
#     4  10  21  35  48  63  85 112 143 181 224 263
#     4   9  17  28  40  60  83 111 143 180 215 250
#     4   9  18  28  43  61  84 108 142 183 219 250
#     4   9  16  28  45  59  78 108 146 185 217 248
#     4  10  18  30  45  64  81 110 150 188 216 249
#     4   9  17  28  40  58  85 111 141 182 219 252
#     4  10  18  27  41  61  86 115 148 182 214 247
#
# _framework density 14.705897
#
# number of rings (size 3 to 8) (size 9 to 14) (size 15 to 20)
#    0.000    2.400    1.000    2.400    1.400    4.800 
#    0.000    1.000    0.000    0.000    0.000    0.000 
#    0.000    0.000    0.000    0.000    0.000   70.000 
#
# Total GULP energy -495957.682979 kJ/mol
# GULP energy per Si atom -12398.942074 kJ/mol
# Density = 1.467243 g / cm^3
# Si number density = 14.705897 Si / 1000 Ang^3
#
#
#
# Elastic Constant Matrix: (Units=GPa)
#
#
# Indices 1 2 3 4 5 6 
#
# 1 56.6035 22.0892 18.6563 0.0000 0.0000 0.0000
# 2 22.0892 41.2557 19.8252 0.0000 0.0000 0.0000
# 3 18.6563 19.8252 103.5839 0.0000 0.0000 0.0000
# 4 0.0000 0.0000 0.0000 17.7161 0.0000 0.0000
# 5 0.0000 0.0000 0.0000 0.0000 18.8623 0.0000
# 6 0.0000 0.0000 0.0000 0.0000 0.0000 18.6693
#
#
#
# Elastic Compliance Matrix: (Units=1/GPa)
#
#
# Indices 1 2 3 4 5 6 
#
# 1 0.022681 -0.011212 -0.001939 0.000000 0.000000 0.000000
# 2 -0.011212 0.032237 -0.004150 0.000000 0.000000 0.000000
# 3 -0.001939 -0.004150 0.010798 0.000000 0.000000 0.000000
# 4 0.000000 0.000000 0.000000 0.056446 0.000000 0.000000
# 5 0.000000 0.000000 0.000000 0.000000 0.053016 0.000000
# 6 0.000000 0.000000 0.000000 0.000000 0.000000 0.053564
#
#
# Mechanical properties :
#
#
# Convention : Reuss Voigt Hill
#
# Bulk Modulus (GPa) = 32.14184 35.84272 33.99228
# Shear Modulus (GPa) = 18.26711 20.44104 19.35407
#
# Velocity S-wave (km/s) = 3.52826 3.73230 3.63171
# Velocity P-wave (km/s) = 6.20500 6.55739 6.38363
#
# Compressibility (1/GPa) = 0.03111209
#
# Stress axis : x y z
#
# Youngs Moduli (GPa) = 44.08897 31.02035 92.61282
#
# Poissons Ratio (x) = 0.34781 0.17959
# Poissons Ratio (y) = 0.49434 0.38439
# Poissons Ratio (z) = 0.08549 0.12875
#
# Static dielectric constant tensor:
#      x y z
#    x 2.819580 0.000000 0.000000 
#    y 0.000000 2.494400 0.000000 
#    z 0.000000 0.000000 3.194110 
# 
# 
# High freq. dielectric constant tensor:
#      x y z
#    x 1.551030 0.000000 0.000000 
#    y 0.000000 1.509170 0.000000 
#    z 0.000000 0.000000 1.588020 
# 
# From -- ./inp_files/8125.got.cif
#   From: 2010.03.12/outbox.cif.g09.slc.cpg/sg63_5_cif.got.tgz:8125.got - 2010.04.10 19:34:48.
