data_PCOD8255152
_publ_section_title
;
Structure prediction by ZEFSAII (Michael W. Deem and Ramdas Pophale) SiO2 
 PCOD8255152
Probable space group: P N M A
;
_chemical_formula_sum "Si O2"
_cell_formula_units_Z 40
_cell_length_a 8.900999
_cell_length_b 8.780153
_cell_length_c 25.536620
_cell_angle_alpha 90.000000
_cell_angle_beta 90.000000
_cell_angle_gamma 90.000000
_cell_volume 1995.741324
_symmetry_space_group_name_H-M "P N M A"
_symmetry_group_IT_number 62
_symmetry_cell_setting 'orthorhombic'
loop_
_space_group_symop_operation_xyz
x,y,z
1/2-x,-y,1/2+z
1/2+x,1/2-y,1/2-z
-x,1/2+y,-z
-x,-y,-z
1/2+x,y,1/2-z
1/2-x,1/2+y,1/2+z
x,1/2-y,z
loop_
_atom_site_type_symbol
_atom_site_label
_atom_site_fract_x
_atom_site_fract_y
_atom_site_fract_z
Si Si1 0.195010 0.429967 0.716810
Si Si2 0.120620 0.428410 0.306527
Si Si3 0.657532 0.074377 0.488374
Si Si4 0.715859 0.073851 0.601969
Si Si5 0.369378 0.072081 0.614054
O O1 0.208764 0.250000 0.727181
O O2 0.247160 0.522512 0.767466
O O3 0.296041 0.484178 0.667944
O O4 0.023704 0.471700 0.706710
O O5 0.085280 0.250000 0.301852
O O6 0.173543 0.466966 0.365261
O O7 0.630730 0.250000 0.477785
O O8 0.758716 0.049455 0.540495
O O9 0.500000 0.000000 0.500000
O O10 0.722468 0.001671 0.434880
O O11 0.738216 0.250000 0.618198
O O12 0.543887 0.024247 0.613371
O O13 0.349714 0.250000 0.607380
#
# Coordination Sequence:
#
# PCOD8255152 Si02
#       5
#     8   8   8   8   8
#     4  11  23  41  62  82 111 152 188 225 281 347
#     4  12  25  39  58  86 114 143 186 240 284 325
#     4   9  17  30  53  82 113 147 184 226 272 324
#     4   9  18  35  57  83 114 150 188 225 274 337
#     4   9  19  35  58  85 111 144 188 230 272 327
#
# _framework density 20.042677000000001
#
# number of rings (size 3 to 8) (size 9 to 14) (size 15 to 20)
#    0.000    2.000    0.000    5.400    0.000    7.200 
#    0.000    1.000    0.000    0.000    0.000    0.000 
#    0.000    0.000    0.000    0.000    0.000    0.000 
#
# Total GULP energy -495961.646217 kJ/mol
# GULP energy per Si atom -12399.041155 kJ/mol
# Density = 1.999706 g / cm^3
# Si number density = 20.042677 Si / 1000 Ang^3
#
#
#
# Elastic Constant Matrix: (Units=GPa)
#
#
# Indices 1 2 3 4 5 6 
#
# 1 39.6371 4.0045 -4.2249 0.0000 0.0000 0.0000
# 2 4.0045 61.1587 30.3519 0.0000 0.0000 0.0000
# 3 -4.2249 30.3519 73.7523 0.0000 0.0000 0.0000
# 4 0.0000 0.0000 0.0000 40.6238 0.0000 0.0000
# 5 0.0000 0.0000 0.0000 0.0000 27.1258 0.0000
# 6 0.0000 0.0000 0.0000 0.0000 0.0000 24.5074
#
#
#
# Elastic Compliance Matrix: (Units=1/GPa)
#
#
# Indices 1 2 3 4 5 6 
#
# 1 0.025828 -0.003048 0.002734 0.000000 0.000000 0.000000
# 2 -0.003048 0.020907 -0.008779 0.000000 0.000000 0.000000
# 3 0.002734 -0.008779 0.017328 0.000000 0.000000 0.000000
# 4 0.000000 0.000000 0.000000 0.024616 0.000000 0.000000
# 5 0.000000 0.000000 0.000000 0.000000 0.036865 0.000000
# 6 0.000000 0.000000 0.000000 0.000000 0.000000 0.040804
#
#
# Mechanical properties :
#
#
# Convention : Reuss Voigt Hill
#
# Bulk Modulus (GPa) = 21.79683 26.09011 23.94347
# Shear Modulus (GPa) = 25.02161 28.07918 26.55040
#
# Velocity S-wave (km/s) = 3.53713 3.74701 3.64358
# Velocity P-wave (km/s) = 5.25171 5.63611 5.44730
#
# Compressibility (1/GPa) = 0.04587824
#
# Stress axis : x y z
#
# Youngs Moduli (GPa) = 38.71729 47.83049 57.70911
#
# Poissons Ratio (x) = 0.14579 -0.15777
# Poissons Ratio (y) = 0.11801 0.50661
# Poissons Ratio (z) = -0.10585 0.41989
#
# Static dielectric constant tensor:
#      x y z
#    x 3.382680 0.000000 0.000000 
#    y 0.000000 3.708380 0.000000 
#    z 0.000000 0.000000 4.306960 
# 
# 
# High freq. dielectric constant tensor:
#      x y z
#    x 1.748370 0.000000 0.000000 
#    y 0.000000 1.781180 0.000000 
#    z 0.000000 0.000000 1.805350 
# 
# From -- ./inp_files/28571.got.cif
#   From: 2010.03.12/outbox.cif.g09.slc.cpg/sg62_15_cif.got.tgz:28571.got - 2010.04.10 19:12:36.
