data_PCOD8255790
_publ_section_title
;
Structure prediction by ZEFSAII (Michael W. Deem and Ramdas Pophale) SiO2 
 PCOD8255790
Probable space group: C M C M
;
_chemical_formula_sum "Si O2"
_cell_formula_units_Z 112
_cell_length_a 9.144132
_cell_length_b 25.464373
_cell_length_c 25.600987
_cell_angle_alpha 90.000000
_cell_angle_beta 90.000000
_cell_angle_gamma 90.000000
_cell_volume 5961.179276
_symmetry_space_group_name_H-M "C M C M"
_symmetry_group_IT_number 63
_symmetry_cell_setting 'orthorhombic'
loop_
_space_group_symop_operation_xyz
x,y,z
-x,-y,1/2+z
x,-y,-z
-x,y,1/2-z
-x,-y,-z
x,y,1/2-z
-x,y,z
x,-y,1/2+z
1/2+x,1/2+y,z
1/2-x,1/2-y,1/2+z
1/2+x,1/2-y,-z
1/2-x,1/2+y,1/2-z
1/2-x,1/2-y,-z
1/2+x,1/2+y,1/2-z
1/2-x,1/2+y,z
1/2+x,1/2-y,1/2+z
loop_
_atom_site_type_symbol
_atom_site_label
_atom_site_fract_x
_atom_site_fract_y
_atom_site_fract_z
Si Si1 0.827075 0.901520 0.992997
Si Si2 0.828321 0.654147 0.690449
Si Si3 0.671771 0.713094 0.039840
Si Si4 0.326297 0.577900 0.890817
Si Si5 0.173622 0.878448 0.807851
Si Si6 0.173634 0.959449 0.892830
Si Si7 0.327140 0.732785 0.156507
O O1 0.763607 0.909496 0.051227
O O2 0.000000 0.905686 0.997333
O O3 0.775900 0.845992 0.970164
O O4 0.769626 0.944871 0.951280
O O5 0.795886 0.637236 0.750000
O O6 0.746071 0.615218 0.651736
O O7 0.767902 0.713560 0.682364
O O8 0.000000 0.651562 0.677777
O O9 0.500000 0.718162 0.032152
O O10 0.722090 0.731601 0.096612
O O11 0.750000 0.750000 0.000000
O O12 0.500000 0.585620 0.887972
O O13 0.279225 0.518258 0.877944
O O14 0.217613 0.897780 0.750000
O O15 0.240225 0.919331 0.849854
O O16 0.237275 0.819549 0.816083
O O17 0.000000 0.876575 0.814873
O O18 0.000000 0.954291 0.892686
O O19 0.500000 0.731588 0.162391
#
# Coordination Sequence:
#
# PCOD8255790 Si02
#       7
#    16  16  16  16  16  16  16
#     4   9  16  29  47  71 102 134 164 197 246 300
#     4  10  21  36  52  70  96 132 169 203 246 300
#     4  10  18  28  46  70  99 130 160 198 244 293
#     4  10  20  32  51  76 102 132 166 204 245 293
#     4   9  15  24  42  69  97 122 155 206 256 286
#     4   9  16  28  46  72 103 132 164 203 247 293
#     4   9  16  29  47  68  93 123 161 204 246 290
#
# _framework density 18.788228
#
# number of rings (size 3 to 8) (size 9 to 14) (size 15 to 20)
#    0.000    2.571    1.429    1.714    0.000    4.286 
#    0.000    1.429    0.000    2.571    0.000    0.000 
#    0.000    1.143    0.000    0.000    0.000    0.000 
#
# Total GULP energy -694120.513552 kJ/mol
# GULP energy per Si atom -12395.009171 kJ/mol
# Density = 1.874546 g / cm^3
# Si number density = 18.788228 Si / 1000 Ang^3
#
#
#
# Elastic Constant Matrix: (Units=GPa)
#
#
# Indices 1 2 3 4 5 6 
#
# 1 13.5326 24.2472 22.9455 0.0000 0.0000 0.0000
# 2 24.2472 133.8517 83.2146 0.0000 0.0000 0.0000
# 3 22.9455 83.2146 147.3643 0.0000 0.0000 0.0000
# 4 0.0000 0.0000 0.0000 29.0347 0.0000 0.0000
# 5 0.0000 0.0000 0.0000 0.0000 20.0917 0.0000
# 6 0.0000 0.0000 0.0000 0.0000 0.0000 14.2138
#
#
#
# Elastic Compliance Matrix: (Units=1/GPa)
#
#
# Indices 1 2 3 4 5 6 
#
# 1 0.117752 -0.015305 -0.009692 0.000000 0.000000 0.000000
# 2 -0.015305 0.013502 -0.005241 0.000000 0.000000 0.000000
# 3 -0.009692 -0.005241 0.011255 0.000000 0.000000 0.000000
# 4 0.000000 0.000000 0.000000 0.034442 0.000000 0.000000
# 5 0.000000 0.000000 0.000000 0.000000 0.049772 0.000000
# 6 0.000000 0.000000 0.000000 0.000000 0.000000 0.070354
#
#
# Mechanical properties :
#
#
# Convention : Reuss Voigt Hill
#
# Bulk Modulus (GPa) = 12.19040 61.72925 36.95983
# Shear Modulus (GPa) = 12.99046 23.62413 18.30730
#
# Velocity S-wave (km/s) = 2.63233 3.54982 3.12493
# Velocity P-wave (km/s) = 3.96753 7.05182 5.72143
#
# Compressibility (1/GPa) = 0.08203174
#
# Stress axis : x y z
#
# Youngs Moduli (GPa) = 8.49240 74.06340 88.85215
#
# Poissons Ratio (x) = 1.13357 0.86116
# Poissons Ratio (y) = 0.12998 0.46569
# Poissons Ratio (z) = 0.08231 0.38818
#
# Static dielectric constant tensor:
#      x y z
#    x 2.813250 0.000000 0.000000 
#    y 0.000000 -2.263680 0.000000 
#    z 0.000000 0.000000 2.951650 
# 
# 
# High freq. dielectric constant tensor:
#      x y z
#    x 1.649920 0.000000 0.000000 
#    y 0.000000 1.744150 0.000000 
#    z 0.000000 0.000000 1.748000 
# 
# From -- ./inp_files/61912.got.cif
#   From: 2010.03.12/outbox.cif.g09.slc.cpg/sg63_31_cif.got.tgz:61912.got - 2010.04.10 19:34:48.
