data_PCOD8255463
_publ_section_title
;
Structure prediction by ZEFSAII (Michael W. Deem and Ramdas Pophale) SiO2 
 PCOD8255463
Probable space group: C M C M
;
_chemical_formula_sum "Si O2"
_cell_formula_units_Z 96
_cell_length_a 9.252005
_cell_length_b 23.017513
_cell_length_c 26.590116
_cell_angle_alpha 90.000000
_cell_angle_beta 90.000000
_cell_angle_gamma 90.000000
_cell_volume 5662.581788
_symmetry_space_group_name_H-M "C M C M"
_symmetry_group_IT_number 63
_symmetry_cell_setting 'orthorhombic'
loop_
_space_group_symop_operation_xyz
x,y,z
-x,-y,1/2+z
x,-y,-z
-x,y,1/2-z
-x,-y,-z
x,y,1/2-z
-x,y,z
x,-y,1/2+z
1/2+x,1/2+y,z
1/2-x,1/2-y,1/2+z
1/2+x,1/2-y,-z
1/2-x,1/2+y,1/2-z
1/2-x,1/2-y,-z
1/2+x,1/2+y,1/2-z
1/2-x,1/2+y,z
1/2+x,1/2-y,1/2+z
loop_
_atom_site_type_symbol
_atom_site_label
_atom_site_fract_x
_atom_site_fract_y
_atom_site_fract_z
Si Si1 0.670595 0.294249 0.962934
Si Si2 0.840525 0.490329 0.076976
Si Si3 0.164411 0.691576 0.250000
Si Si4 0.340612 0.902366 0.503220
Si Si5 0.333597 0.449220 0.655748
Si Si6 0.331253 0.315043 0.649911
Si Si7 0.160977 0.446332 0.750000
O O1 0.500000 0.288493 0.970477
O O2 0.709645 0.284001 0.903467
O O3 0.750000 0.250000 0.000000
O O4 0.717311 0.358450 0.979495
O O5 0.808447 0.427104 0.052740
O O6 0.708999 0.504912 0.113451
O O7 0.000000 0.489036 0.103107
O O8 0.842324 0.541285 0.036952
O O9 0.244137 0.711741 0.302051
O O10 0.165719 0.622830 0.250000
O O11 0.000000 0.715881 0.250000
O O12 0.500000 0.872116 0.504649
O O13 0.500000 0.454899 0.668814
O O14 0.293450 0.382918 0.641576
O O15 0.242682 0.471340 0.702513
O O16 0.500000 0.306967 0.662207
O O17 0.000000 0.470763 0.750000
#
# Coordination Sequence:
#
# PCOD8255463 Si02
#       7
#    16  16   8  16  16  16   8
#     4  11  22  35  50  71  98 133 169 205 249 294
#     4   9  17  29  47  69  94 125 158 192 235 281
#     4   9  17  27  45  69  90 119 158 197 239 286
#     4   9  18  32  48  68  94 125 160 197 234 280
#     4  10  17  27  43  66  94 125 158 196 238 284
#     4   9  18  31  45  65  96 128 158 194 242 292
#     4   9  17  27  39  61  92 125 158 191 235 290
#
# _framework density 16.953396999999999
#
# number of rings (size 3 to 8) (size 9 to 14) (size 15 to 20)
#    0.000    2.500    1.667    2.500    0.000    4.667 
#    0.000    1.667    0.000    0.000    0.000    1.167 
#    0.000    2.667    0.000    0.000    0.000    0.000 
#
# Total GULP energy -594710.194279 kJ/mol
# GULP energy per Si atom -12389.795714 kJ/mol
# Density = 1.691481 g / cm^3
# Si number density = 16.953397 Si / 1000 Ang^3
#
#
#
# Elastic Constant Matrix: (Units=GPa)
#
#
# Indices 1 2 3 4 5 6 
#
# 1 104.2688 24.9998 68.9854 0.0000 0.0000 0.0000
# 2 24.9998 33.1720 29.7127 0.0000 0.0000 0.0000
# 3 68.9854 29.7127 126.9517 0.0000 0.0000 0.0000
# 4 0.0000 0.0000 0.0000 19.6655 0.0000 0.0000
# 5 0.0000 0.0000 0.0000 0.0000 33.8470 0.0000
# 6 0.0000 0.0000 0.0000 0.0000 0.0000 19.4560
#
#
#
# Elastic Compliance Matrix: (Units=1/GPa)
#
#
# Indices 1 2 3 4 5 6 
#
# 1 0.015676 -0.005294 -0.007279 0.000000 0.000000 0.000000
# 2 -0.005294 0.039930 -0.006469 0.000000 0.000000 0.000000
# 3 -0.007279 -0.006469 0.013347 0.000000 0.000000 0.000000
# 4 0.000000 0.000000 0.000000 0.050851 0.000000 0.000000
# 5 0.000000 0.000000 0.000000 0.000000 0.029545 0.000000
# 6 0.000000 0.000000 0.000000 0.000000 0.000000 0.051398
#
#
# Mechanical properties :
#
#
# Convention : Reuss Voigt Hill
#
# Bulk Modulus (GPa) = 32.39553 56.86536 44.63044
# Shear Modulus (GPa) = 20.07075 23.97335 22.02205
#
# Velocity S-wave (km/s) = 3.44449 3.76450 3.60804
# Velocity P-wave (km/s) = 5.91349 7.24639 6.61361
#
# Compressibility (1/GPa) = 0.03086846
#
# Stress axis : x y z
#
# Youngs Moduli (GPa) = 63.79214 25.04395 74.92581
#
# Poissons Ratio (x) = 0.13258 0.54540
# Poissons Ratio (y) = 0.33771 0.48468
# Poissons Ratio (z) = 0.46436 0.16200
#
# Static dielectric constant tensor:
#      x y z
#    x 3.338410 0.000000 0.000000 
#    y 0.000000 2.890930 0.000000 
#    z 0.000000 0.000000 4.032220 
# 
# 
# High freq. dielectric constant tensor:
#      x y z
#    x 1.663010 0.000000 0.000000 
#    y 0.000000 1.593670 0.000000 
#    z 0.000000 0.000000 1.658990 
# 
# From -- ./inp_files/60285.got.cif
#   From: 2010.03.12/outbox.cif.g09.slc.cpg/sg63_31_cif.got.tgz:60285.got - 2010.04.10 19:34:48.
