data_PCOD8255256
_publ_section_title
;
Structure prediction by ZEFSAII (Michael W. Deem and Ramdas Pophale) SiO2 
 PCOD8255256
Probable space group: P N M A
;
_chemical_formula_sum "Si O2"
_cell_formula_units_Z 40
_cell_length_a 15.283608
_cell_length_b 9.596590
_cell_length_c 12.472861
_cell_angle_alpha 90.000000
_cell_angle_beta 90.000000
_cell_angle_gamma 90.000000
_cell_volume 1829.401005
_symmetry_space_group_name_H-M "P N M A"
_symmetry_group_IT_number 62
_symmetry_cell_setting 'orthorhombic'
loop_
_space_group_symop_operation_xyz
x,y,z
1/2-x,-y,1/2+z
1/2+x,1/2-y,1/2-z
-x,1/2+y,-z
-x,-y,-z
1/2+x,y,1/2-z
1/2-x,1/2+y,1/2+z
x,1/2-y,z
loop_
_atom_site_type_symbol
_atom_site_label
_atom_site_fract_x
_atom_site_fract_y
_atom_site_fract_z
Si Si1 0.328752 0.977227 0.627608
Si Si2 0.731134 0.250000 0.908562
Si Si3 0.417312 0.750000 0.238153
Si Si4 0.427630 0.250000 0.352403
Si Si5 0.749550 0.250000 0.247434
Si Si6 0.906927 0.750000 0.592320
Si Si7 0.425971 0.750000 0.492371
Si Si8 0.017498 0.019911 0.284485
O O1 0.247639 0.887867 0.677495
O O2 0.378086 0.887837 0.536491
O O3 0.394443 0.024553 0.721655
O O4 0.289836 0.114117 0.571236
O O5 0.686356 0.250000 0.790541
O O6 0.646740 0.250000 0.984497
O O7 0.426254 0.750000 0.365511
O O8 0.464331 0.617467 0.184351
O O9 0.321613 0.250000 0.347638
O O10 0.471373 0.250000 0.470697
O O11 0.458078 0.387963 0.292917
O O12 0.653221 0.250000 0.198174
O O13 0.963547 0.608109 0.606391
#
# Coordination Sequence:
#
# PCOD8255256 Si02
#       8
#     8   4   4   4   4   4   4   8
#     4   9  20  39  58  84 120 151 184 235 295 348
#     4  12  24  35  58  87 111 152 202 235 278 348
#     4  12  24  37  58  91 117 142 194 251 286 328
#     4   9  17  34  62  87 112 154 191 224 280 353
#     4   9  17  36  62  83 110 148 193 236 280 345
#     4   9  22  41  57  76 109 160 195 221 285 357
#     4   9  22  39  57  88 123 150 185 239 299 341
#     4   9  20  39  58  80 117 151 184 237 292 334
#
# _framework density 21.865079000000001
#
# number of rings (size 3 to 8) (size 9 to 14) (size 15 to 20)
#    0.000    2.400    0.000    4.200    0.000   10.400 
#    0.000    3.000    0.000    0.000    0.000    0.000 
#    0.000    0.000    0.000    0.000    0.000    0.000 
#
# Total GULP energy -495890.431309 kJ/mol
# GULP energy per Si atom -12397.260783 kJ/mol
# Density = 2.181531 g / cm^3
# Si number density = 21.865079 Si / 1000 Ang^3
#
#
#
# Elastic Constant Matrix: (Units=GPa)
#
#
# Indices 1 2 3 4 5 6 
#
# 1 84.1295 44.0124 12.3503 0.0000 0.0000 0.0000
# 2 44.0124 157.8997 17.8864 0.0000 0.0000 0.0000
# 3 12.3503 17.8864 39.5236 0.0000 0.0000 0.0000
# 4 0.0000 0.0000 0.0000 14.0417 0.0000 0.0000
# 5 0.0000 0.0000 0.0000 0.0000 27.8616 0.0000
# 6 0.0000 0.0000 0.0000 0.0000 0.0000 26.2043
#
#
#
# Elastic Compliance Matrix: (Units=1/GPa)
#
#
# Indices 1 2 3 4 5 6 
#
# 1 0.014201 -0.003643 -0.002789 0.000000 0.000000 0.000000
# 2 -0.003643 0.007610 -0.002306 0.000000 0.000000 0.000000
# 3 -0.002789 -0.002306 0.027216 0.000000 0.000000 0.000000
# 4 0.000000 0.000000 0.000000 0.071216 0.000000 0.000000
# 5 0.000000 0.000000 0.000000 0.000000 0.035892 0.000000
# 6 0.000000 0.000000 0.000000 0.000000 0.000000 0.038162
#
#
# Mechanical properties :
#
#
# Convention : Reuss Voigt Hill
#
# Bulk Modulus (GPa) = 31.69291 47.78347 39.73819
# Shear Modulus (GPa) = 22.49320 27.44177 24.96749
#
# Velocity S-wave (km/s) = 3.21086 3.54651 3.38285
# Velocity P-wave (km/s) = 5.31718 6.21865 5.78550
#
# Compressibility (1/GPa) = 0.03155280
#
# Stress axis : x y z
#
# Youngs Moduli (GPa) = 70.41518 131.41299 36.74272
#
# Poissons Ratio (x) = 0.47867 0.10248
# Poissons Ratio (y) = 0.25649 0.08471
# Poissons Ratio (z) = 0.19641 0.30298
#
# Static dielectric constant tensor:
#      x y z
#    x 3.908690 0.000000 0.000000 
#    y 0.000000 4.056920 0.000000 
#    z 0.000000 0.000000 3.529250 
# 
# 
# High freq. dielectric constant tensor:
#      x y z
#    x 1.854740 0.000000 0.000000 
#    y 0.000000 1.870840 0.000000 
#    z 0.000000 0.000000 1.833830 
# 
# From -- ./inp_files/13941.got.cif
#   From: 2010.03.12/outbox.cif.g09.slc.cpg/sg62_7_cif.got.tgz:13941.got - 2010.04.10 19:12:36.
