data_PCOD8255267
_publ_section_title
;
Structure prediction by ZEFSAII (Michael W. Deem and Ramdas Pophale) SiO2 
 PCOD8255267
Probable space group: P N M A
;
_chemical_formula_sum "Si O2"
_cell_formula_units_Z 24
_cell_length_a 8.357374
_cell_length_b 24.383737
_cell_length_c 4.714954
_cell_angle_alpha 90.000000
_cell_angle_beta 90.000000
_cell_angle_gamma 90.000000
_cell_volume 960.832231
_symmetry_space_group_name_H-M "P N M A"
_symmetry_group_IT_number 62
_symmetry_cell_setting 'orthorhombic'
loop_
_space_group_symop_operation_xyz
x,y,z
1/2-x,-y,1/2+z
1/2+x,1/2-y,1/2-z
-x,1/2+y,-z
-x,-y,-z
1/2+x,y,1/2-z
1/2-x,1/2+y,1/2+z
x,1/2-y,z
loop_
_atom_site_type_symbol
_atom_site_label
_atom_site_fract_x
_atom_site_fract_y
_atom_site_fract_z
Si Si1 0.841022 0.479424 0.649733
Si Si2 0.148741 0.855917 0.147688
Si Si3 0.669561 0.313182 0.358204
O O1 0.698861 0.481172 0.416366
O O2 0.860265 0.418722 0.765466
O O3 0.000000 0.500000 0.500000
O O4 0.180676 0.819311 0.426644
O O5 0.294801 0.846946 0.927977
O O6 0.985553 0.837889 0.004363
O O7 0.643950 0.250000 0.278564
#
# Coordination Sequence:
#
# PCOD8255267 Si02
#       3
#     8   8   8
#     4  12  27  50  77 110 149 195 246 305 370 442
#     4  12  27  47  74 109 147 194 248 305 368 441
#     4  12  25  47  74 107 147 195 247 306 369 439
#
# _framework density 24.978342000000001
#
# number of rings (size 3 to 8) (size 9 to 14) (size 15 to 20)
#    0.000    0.000    0.000   10.000    0.000    5.333 
#    0.000    3.333    0.000    0.000    0.000    0.000 
#    0.000    0.000    0.000    0.000    0.000    0.000 
#
# Total GULP energy -297800.912991 kJ/mol
# GULP energy per Si atom -12408.371375 kJ/mol
# Density = 2.492149 g / cm^3
# Si number density = 24.978342 Si / 1000 Ang^3
#
#
#
# Elastic Constant Matrix: (Units=GPa)
#
#
# Indices 1 2 3 4 5 6 
#
# 1 82.1555 84.9446 16.9994 0.0000 0.0000 0.0000
# 2 84.9446 184.7464 60.7110 0.0000 0.0000 0.0000
# 3 16.9994 60.7110 117.6541 0.0000 0.0000 0.0000
# 4 0.0000 0.0000 0.0000 55.2883 0.0000 0.0000
# 5 0.0000 0.0000 0.0000 0.0000 51.6585 0.0000
# 6 0.0000 0.0000 0.0000 0.0000 0.0000 39.1481
#
#
#
# Elastic Compliance Matrix: (Units=1/GPa)
#
#
# Indices 1 2 3 4 5 6 
#
# 1 0.023878 -0.011856 0.002668 0.000000 0.000000 0.000000
# 2 -0.011856 0.012404 -0.004688 0.000000 0.000000 0.000000
# 3 0.002668 -0.004688 0.010533 0.000000 0.000000 0.000000
# 4 0.000000 0.000000 0.000000 0.018087 0.000000 0.000000
# 5 0.000000 0.000000 0.000000 0.000000 0.019358 0.000000
# 6 0.000000 0.000000 0.000000 0.000000 0.000000 0.025544
#
#
# Mechanical properties :
#
#
# Convention : Reuss Voigt Hill
#
# Bulk Modulus (GPa) = 52.45525 78.87399 65.66462
# Shear Modulus (GPa) = 34.74374 44.01237 39.37806
#
# Velocity S-wave (km/s) = 3.73360 4.20220 3.97481
# Velocity P-wave (km/s) = 6.29541 7.42901 6.88558
#
# Compressibility (1/GPa) = 0.01906387
#
# Stress axis : x y z
#
# Youngs Moduli (GPa) = 41.87937 80.61653 94.93908
#
# Poissons Ratio (x) = 0.95575 -0.25325
# Poissons Ratio (y) = 0.49650 0.44506
# Poissons Ratio (z) = -0.11171 0.37792
#
# Static dielectric constant tensor:
#      x y z
#    x 4.846780 0.000000 0.000000 
#    y 0.000000 9.303490 0.000000 
#    z 0.000000 0.000000 5.378760 
# 
# 
# High freq. dielectric constant tensor:
#      x y z
#    x 2.008770 0.000000 0.000000 
#    y 0.000000 1.996190 0.000000 
#    z 0.000000 0.000000 2.028760 
# 
# From -- ./inp_files/134.got.cif
#   From: 2010.03.12/outbox.cif.g09.slc.cpg/sg62_1_cif.got.tgz:134.got - 2010.04.10 19:12:36.
