data_PCOD8255225
_publ_section_title
;
Structure prediction by ZEFSAII (Michael W. Deem and Ramdas Pophale) SiO2 
 PCOD8255225
Probable space group: P N M A
;
_chemical_formula_sum "Si O2"
_cell_formula_units_Z 32
_cell_length_a 10.697126
_cell_length_b 11.956605
_cell_length_c 11.429905
_cell_angle_alpha 90.000000
_cell_angle_beta 90.000000
_cell_angle_gamma 90.000000
_cell_volume 1461.899825
_symmetry_space_group_name_H-M "P N M A"
_symmetry_group_IT_number 62
_symmetry_cell_setting 'orthorhombic'
loop_
_space_group_symop_operation_xyz
x,y,z
1/2-x,-y,1/2+z
1/2+x,1/2-y,1/2-z
-x,1/2+y,-z
-x,-y,-z
1/2+x,y,1/2-z
1/2-x,1/2+y,1/2+z
x,1/2-y,z
loop_
_atom_site_type_symbol
_atom_site_label
_atom_site_fract_x
_atom_site_fract_y
_atom_site_fract_z
Si Si1 0.544381 0.881019 0.850068
Si Si2 0.258324 0.750000 0.136135
Si Si3 0.931929 0.982632 0.120925
Si Si4 0.307943 0.955947 0.992652
Si Si5 0.998308 0.750000 0.222874
O O1 0.578097 0.750000 0.840555
O O2 0.421661 0.897878 0.926766
O O3 0.522524 0.931148 0.720751
O O4 0.654860 0.947147 0.915869
O O5 0.408127 0.750000 0.163710
O O6 0.151079 0.750000 0.240509
O O7 0.231351 0.861027 0.062160
O O8 0.957909 0.856892 0.152654
O O9 0.782887 0.993788 0.105390
O O10 0.000000 0.000000 0.000000
#
# Coordination Sequence:
#
# PCOD8255225 Si02
#       5
#     8   4   8   8   4
#     4  11  27  47  75 105 141 193 243 303 372 437
#     4  12  24  50  73 109 147 191 240 301 364 433
#     4  12  28  46  70 107 143 187 244 295 368 432
#     4  11  26  49  72 104 145 187 242 304 363 438
#     4  12  28  46  75 103 151 197 240 301 362 443
#
# _framework density 21.889324999999999
#
# number of rings (size 3 to 8) (size 9 to 14) (size 15 to 20)
#    0.000    0.500    6.250    0.000   12.250    0.000 
#    0.000    0.000    0.000    0.000    0.000    0.000 
#    0.000    0.000    0.000    0.000    0.000    0.000 
#
# Total GULP energy -396678.162790 kJ/mol
# GULP energy per Si atom -12396.192587 kJ/mol
# Density = 2.183950 g / cm^3
# Si number density = 21.889325 Si / 1000 Ang^3
#
#
#
# Elastic Constant Matrix: (Units=GPa)
#
#
# Indices 1 2 3 4 5 6 
#
# 1 95.8139 31.9834 20.4544 0.0000 0.0000 0.0000
# 2 31.9834 198.3737 55.6545 0.0000 0.0000 0.0000
# 3 20.4544 55.6545 112.6803 0.0000 0.0000 0.0000
# 4 0.0000 0.0000 0.0000 -45.2788 0.0000 0.0000
# 5 0.0000 0.0000 0.0000 0.0000 42.9832 0.0000
# 6 0.0000 0.0000 0.0000 0.0000 0.0000 24.0768
#
#
#
# Elastic Compliance Matrix: (Units=1/GPa)
#
#
# Indices 1 2 3 4 5 6 
#
# 1 0.011198 -0.001434 -0.001325 0.000000 0.000000 0.000000
# 2 -0.001434 0.006035 -0.002721 0.000000 0.000000 0.000000
# 3 -0.001325 -0.002721 0.010459 0.000000 0.000000 0.000000
# 4 0.000000 0.000000 0.000000 -0.022085 0.000000 0.000000
# 5 0.000000 0.000000 0.000000 0.000000 0.023265 0.000000
# 6 0.000000 0.000000 0.000000 0.000000 0.000000 0.041534
#
#
# Mechanical properties :
#
#
# Convention : Reuss Voigt Hill
#
# Bulk Modulus (GPa) = 59.75725 69.22805 64.49265
# Shear Modulus (GPa) = 57.50932 24.27461 40.89196
#
# Velocity S-wave (km/s) = 5.13126 3.33373 4.32687
# Velocity P-wave (km/s) = 7.90351 6.82008 7.38169
#
# Compressibility (1/GPa) = 0.01673437
#
# Stress axis : x y z
#
# Youngs Moduli (GPa) = 89.29921 165.68681 95.61211
#
# Poissons Ratio (x) = 0.23757 0.12664
# Poissons Ratio (y) = 0.12804 0.26014
# Poissons Ratio (z) = 0.11828 0.45079
#
# Static dielectric constant tensor:
#      x y z
#    x 4.520320 0.000000 0.000000 
#    y 0.000000 4.151760 0.000000 
#    z 0.000000 0.000000 4.228160 
# 
# 
# High freq. dielectric constant tensor:
#      x y z
#    x 1.869090 0.000000 0.000000 
#    y 0.000000 1.880040 0.000000 
#    z 0.000000 0.000000 1.858840 
# 
# From -- ./inp_files/11789.got.cif
#   From: 2010.03.12/outbox.cif.g09.slc.cpg/sg62_6_cif.got.tgz:11789.got - 2010.04.10 19:12:36.
