data_PCOD8255350
_publ_section_title
;
Structure prediction by ZEFSAII (Michael W. Deem and Ramdas Pophale) SiO2 
 PCOD8255350
Probable space group: C M C M
;
_chemical_formula_sum "Si O2"
_cell_formula_units_Z 80
_cell_length_a 22.675185
_cell_length_b 12.745186
_cell_length_c 18.183727
_cell_angle_alpha 90.000000
_cell_angle_beta 90.000000
_cell_angle_gamma 90.000000
_cell_volume 5255.087109
_symmetry_space_group_name_H-M "C M C M"
_symmetry_group_IT_number 63
_symmetry_cell_setting 'orthorhombic'
loop_
_space_group_symop_operation_xyz
x,y,z
-x,-y,1/2+z
x,-y,-z
-x,y,1/2-z
-x,-y,-z
x,y,1/2-z
-x,y,z
x,-y,1/2+z
1/2+x,1/2+y,z
1/2-x,1/2-y,1/2+z
1/2+x,1/2-y,-z
1/2-x,1/2+y,1/2-z
1/2-x,1/2-y,-z
1/2+x,1/2+y,1/2-z
1/2-x,1/2+y,z
1/2+x,1/2-y,1/2+z
loop_
_atom_site_type_symbol
_atom_site_label
_atom_site_fract_x
_atom_site_fract_y
_atom_site_fract_z
Si Si1 0.933998 0.072706 0.669812
Si Si2 0.247362 0.406868 0.053876
Si Si3 0.326485 0.284930 0.944705
Si Si4 0.066817 0.879297 0.487918
Si Si5 0.814980 0.041112 0.332948
O O1 0.927222 0.130718 0.750000
O O2 0.926537 0.149472 0.599369
O O3 0.000000 0.021957 0.664607
O O4 0.884816 0.982689 0.664544
O O5 0.189239 0.336735 0.069945
O O6 0.276195 0.450564 0.128466
O O7 0.227990 0.500000 0.000000
O O8 0.295263 0.331099 0.017083
O O9 0.305621 0.348304 0.872969
O O10 0.395773 0.299153 0.962216
O O11 0.000000 0.867454 0.514997
O O12 0.088869 0.000000 0.500000
O O13 0.791698 0.050990 0.250000
#
# Coordination Sequence:
#
# PCOD8255350 Si02
#       5
#    16  16  16  16  16
#     4   9  16  25  39  61  91 118 135 168 221 268
#     4   9  18  31  45  59  83 117 149 184 217 258
#     4  10  17  29  45  63  84 113 151 179 220 265
#     4  10  16  25  43  65  89 113 144 180 222 274
#     4  10  18  28  42  63  89 114 142 178 220 268
#
# _framework density 15.223344000000001
#
# number of rings (size 3 to 8) (size 9 to 14) (size 15 to 20)
#    0.000    2.400    4.000    0.600    0.000    0.800 
#    0.000    0.000    0.000    0.600    0.000    0.000 
#    0.000    0.000    0.000    1.000    0.000    0.000 
#
# Total GULP energy -495616.229965 kJ/mol
# GULP energy per Si atom -12390.405749 kJ/mol
# Density = 1.518870 g / cm^3
# Si number density = 15.223344 Si / 1000 Ang^3
#
#
#
# Elastic Constant Matrix: (Units=GPa)
#
#
# Indices 1 2 3 4 5 6 
#
# 1 73.2412 42.9530 32.6245 0.0000 0.0000 0.0000
# 2 42.9530 69.7827 33.0138 0.0000 0.0000 0.0000
# 3 32.6245 33.0138 114.2607 0.0000 0.0000 0.0000
# 4 0.0000 0.0000 0.0000 8.9585 0.0000 0.0000
# 5 0.0000 0.0000 0.0000 0.0000 19.0987 0.0000
# 6 0.0000 0.0000 0.0000 0.0000 0.0000 14.7747
#
#
#
# Elastic Compliance Matrix: (Units=1/GPa)
#
#
# Indices 1 2 3 4 5 6 
#
# 1 0.022091 -0.012294 -0.002755 0.000000 0.000000 0.000000
# 2 -0.012294 0.023441 -0.003263 0.000000 0.000000 0.000000
# 3 -0.002755 -0.003263 0.010481 0.000000 0.000000 0.000000
# 4 0.000000 0.000000 0.000000 0.111626 0.000000 0.000000
# 5 0.000000 0.000000 0.000000 0.000000 0.052360 0.000000
# 6 0.000000 0.000000 0.000000 0.000000 0.000000 0.067683
#
#
# Mechanical properties :
#
#
# Convention : Reuss Voigt Hill
#
# Bulk Modulus (GPa) = 51.57504 52.71856 52.14680
# Shear Modulus (GPa) = 15.11631 18.47927 16.79779
#
# Velocity S-wave (km/s) = 3.15456 3.48785 3.32539
# Velocity P-wave (km/s) = 6.87174 7.13621 7.00522
#
# Compressibility (1/GPa) = 0.01938923
#
# Stress axis : x y z
#
# Youngs Moduli (GPa) = 45.26797 42.66049 95.40760
#
# Poissons Ratio (x) = 0.52446 0.26288
# Poissons Ratio (y) = 0.55652 0.31128
# Poissons Ratio (z) = 0.12473 0.13919
#
# Static dielectric constant tensor:
#      x y z
#    x 2.979660 0.000000 0.000000 
#    y 0.000000 2.630420 0.000000 
#    z 0.000000 0.000000 3.235450 
# 
# 
# High freq. dielectric constant tensor:
#      x y z
#    x 1.578200 0.000000 0.000000 
#    y 0.000000 1.523320 0.000000 
#    z 0.000000 0.000000 1.598540 
# 
# From -- ./inp_files/48119.got.cif
#   From: 2010.03.12/outbox.cif.g09.slc.cpg/sg63_25_cif.got.tgz:48119.got - 2010.04.10 19:34:48.
