data_PCOD8255839
_publ_section_title
;
Structure prediction by ZEFSAII (Michael W. Deem and Ramdas Pophale) SiO2 
 PCOD8255839
Probable space group: C M C M
;
_chemical_formula_sum "Si O2"
_cell_formula_units_Z 96
_cell_length_a 27.711736
_cell_length_b 28.753153
_cell_length_c 8.954460
_cell_angle_alpha 90.000000
_cell_angle_beta 90.000000
_cell_angle_gamma 90.000000
_cell_volume 7134.911804
_symmetry_space_group_name_H-M "C M C M"
_symmetry_group_IT_number 63
_symmetry_cell_setting 'orthorhombic'
loop_
_space_group_symop_operation_xyz
x,y,z
-x,-y,1/2+z
x,-y,-z
-x,y,1/2-z
-x,-y,-z
x,y,1/2-z
-x,y,z
x,-y,1/2+z
1/2+x,1/2+y,z
1/2-x,1/2-y,1/2+z
1/2+x,1/2-y,-z
1/2-x,1/2+y,1/2-z
1/2-x,1/2-y,-z
1/2+x,1/2+y,1/2-z
1/2-x,1/2+y,z
1/2+x,1/2-y,1/2+z
loop_
_atom_site_type_symbol
_atom_site_label
_atom_site_fract_x
_atom_site_fract_y
_atom_site_fract_z
Si Si1 0.000000 0.591503 0.927266
Si Si2 0.758058 0.679035 0.917719
Si Si3 0.406518 0.047959 0.075065
Si Si4 0.402601 0.221029 0.425965
Si Si5 0.321148 0.728350 0.418631
Si Si6 0.840003 0.366796 0.921580
Si Si7 0.000000 0.698969 0.573410
O O1 0.000000 0.585473 0.750000
O O2 0.000000 0.645161 0.976234
O O3 0.953732 0.566693 0.994549
O O4 0.743917 0.665343 0.750000
O O5 0.788509 0.726033 0.922732
O O6 0.708784 0.685563 0.010807
O O7 0.790484 0.637735 0.986131
O O8 0.417593 0.041631 0.250000
O O9 0.362114 0.082771 0.048368
O O10 0.390484 0.000000 0.000000
O O11 0.409756 0.225919 0.250000
O O12 0.369212 0.263067 0.484667
O O13 0.379092 0.171683 0.471403
O O14 0.453753 0.224806 0.506695
O O15 0.335676 0.715371 0.250000
O O16 0.826540 0.358533 0.750000
O O17 0.000000 0.704181 0.750000
#
# Coordination Sequence:
#
# PCOD8255839 Si02
#       7
#     8  16  16  16  16  16   8
#     4  11  22  34  47  59  72  94 126 164 204 247
#     4   9  16  25  40  59  77  96 119 146 180 224
#     4  11  22  35  47  59  75  96 125 162 205 247
#     4  10  18  29  43  57  75  98 126 156 191 230
#     4   9  16  26  39  57  79  99 119 146 182 222
#     4   9  18  30  43  57  74  96 120 152 194 237
#     4  11  21  30  42  59  77  98 128 162 199 239
#
# _framework density 13.454967999999999
#
# number of rings (size 3 to 8) (size 9 to 14) (size 15 to 20)
#    0.000    2.167    1.667    2.750    0.000    6.667 
#    0.000    0.000    0.000    0.000    0.000    0.000 
#    0.000    0.000    0.000    0.000    0.000    0.000 
#
# Total GULP energy -595265.853706 kJ/mol
# GULP energy per Si atom -12401.371952 kJ/mol
# Density = 1.342434 g / cm^3
# Si number density = 13.454968 Si / 1000 Ang^3
#
#
#
# Elastic Constant Matrix: (Units=GPa)
#
#
# Indices 1 2 3 4 5 6 
#
# 1 83.5556 40.0279 44.7942 0.0000 0.0000 0.0000
# 2 40.0279 36.1360 28.5708 0.0000 0.0000 0.0000
# 3 44.7942 28.5708 84.1212 0.0000 0.0000 0.0000
# 4 0.0000 0.0000 0.0000 17.4529 0.0000 0.0000
# 5 0.0000 0.0000 0.0000 0.0000 24.7482 0.0000
# 6 0.0000 0.0000 0.0000 0.0000 0.0000 9.4789
#
#
#
# Elastic Compliance Matrix: (Units=1/GPa)
#
#
# Indices 1 2 3 4 5 6 
#
# 1 0.027467 -0.025785 -0.005868 0.000000 0.000000 0.000000
# 2 -0.025785 0.062039 -0.007340 0.000000 0.000000 0.000000
# 3 -0.005868 -0.007340 0.017506 0.000000 0.000000 0.000000
# 4 0.000000 0.000000 0.000000 0.057297 0.000000 0.000000
# 5 0.000000 0.000000 0.000000 0.000000 0.040407 0.000000
# 6 0.000000 0.000000 0.000000 0.000000 0.000000 0.105498
#
#
# Mechanical properties :
#
#
# Convention : Reuss Voigt Hill
#
# Bulk Modulus (GPa) = 34.45460 47.84429 41.14944
# Shear Modulus (GPa) = 12.56676 16.36399 14.46538
#
# Velocity S-wave (km/s) = 3.05944 3.49120 3.28242
# Velocity P-wave (km/s) = 6.17601 7.20328 6.70934
#
# Compressibility (1/GPa) = 0.02902370
#
# Stress axis : x y z
#
# Youngs Moduli (GPa) = 36.40791 16.11886 57.12489
#
# Poissons Ratio (x) = 0.41563 0.33522
# Poissons Ratio (y) = 0.93878 0.41932
# Poissons Ratio (z) = 0.21365 0.11832
#
# Static dielectric constant tensor:
#      x y z
#    x 2.662560 0.000000 0.000000 
#    y 0.000000 2.424090 0.000000 
#    z 0.000000 0.000000 2.851360 
# 
# 
# High freq. dielectric constant tensor:
#      x y z
#    x 1.499990 0.000000 0.000000 
#    y 0.000000 1.459900 0.000000 
#    z 0.000000 0.000000 1.533450 
# 
# From -- ./inp_files/10750.got.cif
#   From: 2010.03.12/outbox.cif.g09.slc.cpg/sg63_6_cif.got.tgz:10750.got - 2010.04.10 19:34:48.
