data_PCOD8255445
_publ_section_title
;
Structure prediction by ZEFSAII (Michael W. Deem and Ramdas Pophale) SiO2 
 PCOD8255445
Probable space group: C M C M
;
_chemical_formula_sum "Si O2"
_cell_formula_units_Z 120
_cell_length_a 28.869332
_cell_length_b 27.220570
_cell_length_c 9.790051
_cell_angle_alpha 90.000000
_cell_angle_beta 90.000000
_cell_angle_gamma 90.000000
_cell_volume 7693.410472
_symmetry_space_group_name_H-M "C M C M"
_symmetry_group_IT_number 63
_symmetry_cell_setting 'orthorhombic'
loop_
_space_group_symop_operation_xyz
x,y,z
-x,-y,1/2+z
x,-y,-z
-x,y,1/2-z
-x,-y,-z
x,y,1/2-z
-x,y,z
x,-y,1/2+z
1/2+x,1/2+y,z
1/2-x,1/2-y,1/2+z
1/2+x,1/2-y,-z
1/2-x,1/2+y,1/2-z
1/2-x,1/2-y,-z
1/2+x,1/2+y,1/2-z
1/2-x,1/2+y,z
1/2+x,1/2-y,1/2+z
loop_
_atom_site_type_symbol
_atom_site_label
_atom_site_fract_x
_atom_site_fract_y
_atom_site_fract_z
Si Si1 0.296818 0.696720 0.596652
Si Si2 0.911312 0.109218 0.094327
Si Si3 0.051809 0.787461 0.588939
Si Si4 0.733816 0.046311 0.910201
Si Si5 0.641493 0.234823 0.908863
Si Si6 0.832857 0.088144 0.599984
Si Si7 0.000000 0.956076 0.600783
Si Si8 0.204612 0.349512 0.408696
O O1 0.294796 0.719764 0.750000
O O2 0.324207 0.732059 0.496123
O O3 0.322775 0.645434 0.602236
O O4 0.245472 0.686045 0.533601
O O5 0.894003 0.113995 0.250000
O O6 0.923962 0.162924 0.033094
O O7 0.956505 0.077728 0.078472
O O8 0.872427 0.079678 0.011240
O O9 0.045751 0.792844 0.750000
O O10 0.087323 0.743016 0.550885
O O11 0.000000 0.778623 0.525640
O O12 0.724454 0.035536 0.750000
O O13 0.787822 0.056514 0.938993
O O14 0.705120 0.094484 0.964559
O O15 0.717292 0.000000 0.000000
O O16 0.649008 0.248715 0.750000
O O17 0.655257 0.177470 0.934453
O O18 0.850542 0.071658 0.750000
O O19 0.000000 0.979822 0.750000
O O20 0.000000 0.000000 0.500000
O O21 0.217266 0.355241 0.250000
#
# Coordination Sequence:
#
# PCOD8255445 Si02
#       8
#    16  16  16  16  16  16   8  16
#     4   9  16  27  41  60  90 118 137 168 213 252
#     4  10  18  31  48  62  79 106 142 184 221 259
#     4   9  16  27  44  66  89 111 140 181 223 257
#     4   9  18  33  48  62  86 116 144 177 214 252
#     4  10  17  26  45  67  86 114 147 173 207 261
#     4   9  18  30  44  62  85 112 138 172 218 257
#     4  10  22  36  48  60  78 104 138 186 239 270
#     4   8  16  29  43  63  90 116 141 173 215 256
#
# _framework density 15.597764
#
# number of rings (size 3 to 8) (size 9 to 14) (size 15 to 20)
#    0.000    2.800    2.000    2.000    0.000    1.600 
#    0.000    5.333    0.000    1.200    0.000    0.000 
#    0.000    0.533    0.000    0.400    0.000    0.800 
#
# Total GULP energy -743419.946776 kJ/mol
# GULP energy per Si atom -12390.332446 kJ/mol
# Density = 1.556226 g / cm^3
# Si number density = 15.597764 Si / 1000 Ang^3
#
#
#
# Elastic Constant Matrix: (Units=GPa)
#
#
# Indices 1 2 3 4 5 6 
#
# 1 58.0855 40.7323 26.6596 0.0000 0.0000 0.0000
# 2 40.7323 82.0937 32.6897 0.0000 0.0000 0.0000
# 3 26.6596 32.6897 45.8965 0.0000 0.0000 0.0000
# 4 0.0000 0.0000 0.0000 18.5450 0.0000 0.0000
# 5 0.0000 0.0000 0.0000 0.0000 9.0980 0.0000
# 6 0.0000 0.0000 0.0000 0.0000 0.0000 12.8766
#
#
#
# Elastic Compliance Matrix: (Units=1/GPa)
#
#
# Indices 1 2 3 4 5 6 
#
# 1 0.028935 -0.010698 -0.009188 0.000000 0.000000 0.000000
# 2 -0.010698 0.020959 -0.008714 0.000000 0.000000 0.000000
# 3 -0.009188 -0.008714 0.033331 0.000000 0.000000 0.000000
# 4 0.000000 0.000000 0.000000 0.053923 0.000000 0.000000
# 5 0.000000 0.000000 0.000000 0.000000 0.109914 0.000000
# 6 0.000000 0.000000 0.000000 0.000000 0.000000 0.077660
#
#
# Mechanical properties :
#
#
# Convention : Reuss Voigt Hill
#
# Bulk Modulus (GPa) = 38.42283 42.91543 40.66913
# Shear Modulus (GPa) = 12.80092 13.83686 13.31889
#
# Velocity S-wave (km/s) = 2.86788 2.98166 2.92532
# Velocity P-wave (km/s) = 5.97104 6.27912 6.12701
#
# Compressibility (1/GPa) = 0.02602619
#
# Stress axis : x y z
#
# Youngs Moduli (GPa) = 34.56042 47.71182 30.00177
#
# Poissons Ratio (x) = 0.51043 0.27564
# Poissons Ratio (y) = 0.36973 0.26144
# Poissons Ratio (z) = 0.31752 0.41576
#
# Static dielectric constant tensor:
#      x y z
#    x 3.017120 0.000000 0.000000 
#    y 0.000000 2.785160 0.000000 
#    z 0.000000 0.000000 2.932040 
# 
# 
# High freq. dielectric constant tensor:
#      x y z
#    x 1.581110 0.000000 0.000000 
#    y 0.000000 1.583240 0.000000 
#    z 0.000000 0.000000 1.576960 
# 
# From -- ./inp_files/25349.got.cif
#   From: 2010.03.12/outbox.cif.g09.slc.cpg/sg63_13_cif.got.tgz:25349.got - 2010.04.10 19:34:48.
