data_PCOD8255891
_publ_section_title
;
Structure prediction by ZEFSAII (Michael W. Deem and Ramdas Pophale) SiO2 
 PCOD8255891
Probable space group: C M C M
;
_chemical_formula_sum "Si O2"
_cell_formula_units_Z 80
_cell_length_a 10.346889
_cell_length_b 25.167977
_cell_length_c 18.272398
_cell_angle_alpha 90.000000
_cell_angle_beta 90.000000
_cell_angle_gamma 90.000000
_cell_volume 4758.319994
_symmetry_space_group_name_H-M "C M C M"
_symmetry_group_IT_number 63
_symmetry_cell_setting 'orthorhombic'
loop_
_space_group_symop_operation_xyz
x,y,z
-x,-y,1/2+z
x,-y,-z
-x,y,1/2-z
-x,-y,-z
x,y,1/2-z
-x,y,z
x,-y,1/2+z
1/2+x,1/2+y,z
1/2-x,1/2-y,1/2+z
1/2+x,1/2-y,-z
1/2-x,1/2+y,1/2-z
1/2-x,1/2-y,-z
1/2+x,1/2+y,1/2-z
1/2-x,1/2+y,z
1/2+x,1/2-y,1/2+z
loop_
_atom_site_type_symbol
_atom_site_label
_atom_site_fract_x
_atom_site_fract_y
_atom_site_fract_z
Si Si1 0.000000 0.304712 0.985464
Si Si2 0.000000 0.129039 0.170392
Si Si3 0.147285 0.474447 0.080122
Si Si4 0.240791 0.372038 0.022062
Si Si5 0.000000 0.646776 0.328060
Si Si6 0.000000 0.819049 0.987029
Si Si7 0.261301 0.921729 0.865076
O O1 0.874123 0.329297 0.023641
O O2 0.000000 0.313671 0.897412
O O3 0.000000 0.243306 0.003362
O O4 0.000000 0.168756 0.100622
O O5 0.875943 0.090935 0.170574
O O6 0.000000 0.159440 0.250000
O O7 0.214811 0.514746 0.137478
O O8 0.000000 0.464889 0.104015
O O9 0.151355 0.500000 0.000000
O O10 0.220517 0.417308 0.084010
O O11 0.377074 0.342492 0.029823
O O12 0.237122 0.403865 0.947860
O O13 0.875122 0.609332 0.324948
O O14 0.000000 0.678761 0.250000
#
# Coordination Sequence:
#
# PCOD8255891 Si02
#       7
#     8   8  16  16   8   8  16
#     4  10  18  31  47  67  97 127 163 208 243 275
#     4  10  20  33  45  65  97 127 154 192 249 301
#     4   9  14  25  45  68  94 119 144 178 227 282
#     4   9  17  28  45  68  94 123 153 192 238 281
#     4  10  18  29  47  71  93 119 158 198 239 289
#     4  10  20  31  45  69  97 125 165 210 243 277
#     4   9  17  28  45  68  94 120 149 187 230 287
#
# _framework density 16.812656
#
# number of rings (size 3 to 8) (size 9 to 14) (size 15 to 20)
#    0.000    2.600    2.000    1.200    0.000    0.800 
#    0.000    4.000    0.000    0.000    0.000    8.400 
#    0.000    0.000    0.000    0.000    0.000    0.000 
#
# Total GULP energy -495621.510232 kJ/mol
# GULP energy per Si atom -12390.537756 kJ/mol
# Density = 1.677439 g / cm^3
# Si number density = 16.812656 Si / 1000 Ang^3
#
#
#
# Elastic Constant Matrix: (Units=GPa)
#
#
# Indices 1 2 3 4 5 6 
#
# 1 151.0995 65.3526 21.1609 0.0000 0.0000 0.0000
# 2 65.3526 134.8622 34.9942 0.0000 0.0000 0.0000
# 3 21.1609 34.9942 49.9219 0.0000 0.0000 0.0000
# 4 0.0000 0.0000 0.0000 13.8609 0.0000 0.0000
# 5 0.0000 0.0000 0.0000 0.0000 21.4870 0.0000
# 6 0.0000 0.0000 0.0000 0.0000 0.0000 15.3401
#
#
#
# Elastic Compliance Matrix: (Units=1/GPa)
#
#
# Indices 1 2 3 4 5 6 
#
# 1 0.008404 -0.003848 -0.000865 0.000000 0.000000 0.000000
# 2 -0.003848 0.010825 -0.005957 0.000000 0.000000 0.000000
# 3 -0.000865 -0.005957 0.024574 0.000000 0.000000 0.000000
# 4 0.000000 0.000000 0.000000 0.072145 0.000000 0.000000
# 5 0.000000 0.000000 0.000000 0.000000 0.046540 0.000000
# 6 0.000000 0.000000 0.000000 0.000000 0.000000 0.065189
#
#
# Mechanical properties :
#
#
# Convention : Reuss Voigt Hill
#
# Bulk Modulus (GPa) = 44.51821 64.32211 54.42016
# Shear Modulus (GPa) = 19.49285 24.42932 21.96108
#
# Velocity S-wave (km/s) = 3.40871 3.81600 3.61809
# Velocity P-wave (km/s) = 6.48297 7.59980 7.06349
#
# Compressibility (1/GPa) = 0.02246272
#
# Stress axis : x y z
#
# Youngs Moduli (GPa) = 118.99777 92.37515 40.69368
#
# Poissons Ratio (x) = 0.35544 0.03519
# Poissons Ratio (y) = 0.45788 0.24243
# Poissons Ratio (z) = 0.10291 0.55031
#
# Static dielectric constant tensor:
#      x y z
#    x 2.943950 0.000000 0.000000 
#    y 0.000000 3.177390 0.000000 
#    z 0.000000 0.000000 2.964200 
# 
# 
# High freq. dielectric constant tensor:
#      x y z
#    x 1.664170 0.000000 0.000000 
#    y 0.000000 1.632690 0.000000 
#    z 0.000000 0.000000 1.606010 
# 
# From -- ./inp_files/42213.got.cif
#   From: 2010.03.12/outbox.cif.g09.slc.cpg/sg63_22_cif.got.tgz:42213.got - 2010.04.10 19:34:48.
