data_PCOD8255008
_publ_section_title
;
Structure prediction by ZEFSAII (Michael W. Deem and Ramdas Pophale) SiO2 
 PCOD8255008
Probable space group: P N M A
;
_chemical_formula_sum "Si O2"
_cell_formula_units_Z 48
_cell_length_a 8.680826
_cell_length_b 16.159877
_cell_length_c 18.551601
_cell_angle_alpha 90.000000
_cell_angle_beta 90.000000
_cell_angle_gamma 90.000000
_cell_volume 2602.438632
_symmetry_space_group_name_H-M "P N M A"
_symmetry_group_IT_number 62
_symmetry_cell_setting 'orthorhombic'
loop_
_space_group_symop_operation_xyz
x,y,z
1/2-x,-y,1/2+z
1/2+x,1/2-y,1/2-z
-x,1/2+y,-z
-x,-y,-z
1/2+x,y,1/2-z
1/2-x,1/2+y,1/2+z
x,1/2-y,z
loop_
_atom_site_type_symbol
_atom_site_label
_atom_site_fract_x
_atom_site_fract_y
_atom_site_fract_z
Si Si1 0.127482 0.418413 0.571379
Si Si2 0.347605 0.510047 0.660034
Si Si3 0.721046 0.842931 0.929673
Si Si4 0.172017 0.843140 0.403562
Si Si5 0.079443 0.418660 0.415043
Si Si6 0.294410 0.994147 0.313988
O O1 0.287997 0.430880 0.613661
O O2 0.171967 0.400903 0.488687
O O3 0.015435 0.346570 0.602143
O O4 0.027144 0.501103 0.578355
O O5 0.328212 0.595185 0.615592
O O6 0.524096 0.501098 0.678837
O O7 0.243580 0.506205 0.730911
O O8 0.783891 0.750000 0.919020
O O9 0.543765 0.845522 0.900135
O O10 0.722305 0.868077 0.014759
O O11 0.224881 0.750000 0.384840
O O12 0.247164 0.905078 0.345953
O O13 0.207421 0.430258 0.353804
#
# Coordination Sequence:
#
# PCOD8255008 Si02
#       6
#     8   8   8   8   8   8
#     4   8  15  30  52  75  99 131 169 206 250 308
#     4  11  21  34  52  76 107 144 182 217 259 314
#     4   9  18  35  58  81 106 136 172 218 268 314
#     4   9  18  35  58  81 106 136 172 218 268 314
#     4   8  15  30  52  75  99 131 169 206 250 308
#     4  11  21  34  52  76 107 144 182 217 259 314
#
# _framework density 18.444241000000002
#
# number of rings (size 3 to 8) (size 9 to 14) (size 15 to 20)
#    0.000    2.667    0.000    6.000    0.000    2.667 
#    0.000    8.333    0.000    4.000    0.000    0.000 
#    0.000    0.000    0.000    0.000    0.000    0.000 
#
# Total GULP energy -594739.894107 kJ/mol
# GULP energy per Si atom -12390.414461 kJ/mol
# Density = 1.840226 g / cm^3
# Si number density = 18.444241 Si / 1000 Ang^3
#
#
#
# Elastic Constant Matrix: (Units=GPa)
#
#
# Indices 1 2 3 4 5 6 
#
# 1 47.0806 -0.0988 -10.4400 0.0000 0.0000 0.0000
# 2 -0.0988 64.4259 15.3997 0.0000 0.0000 0.0000
# 3 -10.4400 15.3997 44.3938 0.0000 0.0000 0.0000
# 4 0.0000 0.0000 0.0000 18.9170 0.0000 0.0000
# 5 0.0000 0.0000 0.0000 0.0000 33.3778 0.0000
# 6 0.0000 0.0000 0.0000 0.0000 0.0000 19.9842
#
#
#
# Elastic Compliance Matrix: (Units=1/GPa)
#
#
# Indices 1 2 3 4 5 6 
#
# 1 0.022515 -0.001342 0.005760 0.000000 0.000000 0.000000
# 2 -0.001342 0.017005 -0.006215 0.000000 0.000000 0.000000
# 3 0.005760 -0.006215 0.026036 0.000000 0.000000 0.000000
# 4 0.000000 0.000000 0.000000 0.052863 0.000000 0.000000
# 5 0.000000 0.000000 0.000000 0.000000 0.029960 0.000000
# 6 0.000000 0.000000 0.000000 0.000000 0.000000 0.050040
#
#
# Mechanical properties :
#
#
# Convention : Reuss Voigt Hill
#
# Bulk Modulus (GPa) = 16.13871 18.40246 17.27059
# Shear Modulus (GPa) = 22.45521 24.52509 23.49015
#
# Velocity S-wave (km/s) = 3.49300 3.65045 3.57259
# Velocity P-wave (km/s) = 5.00371 5.26941 5.13828
#
# Compressibility (1/GPa) = 0.06196282
#
# Stress axis : x y z
#
# Youngs Moduli (GPa) = 44.41539 58.80585 38.40819
#
# Poissons Ratio (x) = 0.07894 -0.22125
# Poissons Ratio (y) = 0.05962 0.23869
# Poissons Ratio (z) = -0.25585 0.36545
#
# Static dielectric constant tensor:
#      x y z
#    x 3.333230 0.000000 0.000000 
#    y 0.000000 3.546620 0.000000 
#    z 0.000000 0.000000 3.474400 
# 
# 
# High freq. dielectric constant tensor:
#      x y z
#    x 1.699110 0.000000 0.000000 
#    y 0.000000 1.691510 0.000000 
#    z 0.000000 0.000000 1.716960 
# 
# From -- ./inp_files/7834.got.cif
#   From: 2010.03.12/outbox.cif.g09.slc.cpg/sg62_4_cif.got.tgz:7834.got - 2010.04.10 19:12:36.
