data_PCOD8255741
_publ_section_title
;
Structure prediction by ZEFSAII (Michael W. Deem and Ramdas Pophale) SiO2 
 PCOD8255741
Probable space group: C M C M
;
_chemical_formula_sum "Si O2"
_cell_formula_units_Z 96
_cell_length_a 23.341567
_cell_length_b 15.566016
_cell_length_c 14.587966
_cell_angle_alpha 90.000000
_cell_angle_beta 90.000000
_cell_angle_gamma 90.000000
_cell_volume 5300.321623
_symmetry_space_group_name_H-M "C M C M"
_symmetry_group_IT_number 63
_symmetry_cell_setting 'orthorhombic'
loop_
_space_group_symop_operation_xyz
x,y,z
-x,-y,1/2+z
x,-y,-z
-x,y,1/2-z
-x,-y,-z
x,y,1/2-z
-x,y,z
x,-y,1/2+z
1/2+x,1/2+y,z
1/2-x,1/2-y,1/2+z
1/2+x,1/2-y,-z
1/2-x,1/2+y,1/2-z
1/2-x,1/2-y,-z
1/2+x,1/2+y,1/2-z
1/2-x,1/2+y,z
1/2+x,1/2-y,1/2+z
loop_
_atom_site_type_symbol
_atom_site_label
_atom_site_fract_x
_atom_site_fract_y
_atom_site_fract_z
Si Si1 0.435828 0.988853 0.148196
Si Si2 0.854709 0.339018 0.406813
Si Si3 0.718459 0.091809 0.250000
Si Si4 0.302932 0.370631 0.250000
Si Si5 0.565206 0.166792 0.433747
Si Si6 0.302780 0.257956 0.750000
Si Si7 0.613654 0.777286 0.750000
Si Si8 0.246950 0.463304 0.404315
O O1 0.429258 0.029817 0.250000
O O2 0.500000 0.954217 0.132627
O O3 0.394930 0.908026 0.142025
O O4 0.422917 0.064441 0.075818
O O5 0.887995 0.299011 0.493808
O O6 0.841461 0.258862 0.340045
O O7 0.796284 0.387386 0.434363
O O8 0.777956 0.145726 0.250000
O O9 0.664753 0.154369 0.250000
O O10 0.714200 0.034425 0.342035
O O11 0.247303 0.311346 0.250000
O O12 0.361439 0.318874 0.250000
O O13 0.299512 0.428247 0.342449
O O14 0.500000 0.183395 0.466457
O O15 0.573952 0.215198 0.338516
O O16 0.271532 0.500000 0.500000
#
# Coordination Sequence:
#
# PCOD8255741 Si02
#       8
#    16  16   8   8  16   8   8  16
#     4  10  18  28  43  64  94 132 171 204 228 266
#     4  11  19  32  48  70 100 135 168 199 244 287
#     4  10  20  33  52  73  97 133 171 202 247 294
#     4   8  20  33  48  72  97 127 169 201 241 298
#     4  11  22  32  47  73 102 134 174 206 233 281
#     4   9  20  34  47  70 101 130 166 208 240 297
#     4  11  19  34  50  67 102 140 163 199 246 287
#     4  10  19  32  51  74  97 125 164 208 245 294
#
# _framework density 18.112107999999999
#
# number of rings (size 3 to 8) (size 9 to 14) (size 15 to 20)
#    0.000    1.833    1.667    4.750    0.000    2.667 
#    0.000    5.000    0.000    0.000    0.000    0.000 
#    0.000   40.000    0.000    0.000    0.000    0.000 
#
# Total GULP energy -595133.023068 kJ/mol
# GULP energy per Si atom -12398.604647 kJ/mol
# Density = 1.807088 g / cm^3
# Si number density = 18.112108 Si / 1000 Ang^3
#
#
#
# Elastic Constant Matrix: (Units=GPa)
#
#
# Indices 1 2 3 4 5 6 
#
# 1 53.1920 16.3105 24.7233 0.0000 0.0000 0.0000
# 2 16.3105 34.6808 20.5171 0.0000 0.0000 0.0000
# 3 24.7233 20.5171 120.0846 0.0000 0.0000 0.0000
# 4 0.0000 0.0000 0.0000 10.7965 0.0000 0.0000
# 5 0.0000 0.0000 0.0000 0.0000 20.3481 0.0000
# 6 0.0000 0.0000 0.0000 0.0000 0.0000 27.5790
#
#
#
# Elastic Compliance Matrix: (Units=1/GPa)
#
#
# Indices 1 2 3 4 5 6 
#
# 1 0.023033 -0.008930 -0.003216 0.000000 0.000000 0.000000
# 2 -0.008930 0.035539 -0.004233 0.000000 0.000000 0.000000
# 3 -0.003216 -0.004233 0.009713 0.000000 0.000000 0.000000
# 4 0.000000 0.000000 0.000000 0.092622 0.000000 0.000000
# 5 0.000000 0.000000 0.000000 0.000000 0.049145 0.000000
# 6 0.000000 0.000000 0.000000 0.000000 0.000000 0.036260
#
#
# Mechanical properties :
#
#
# Convention : Reuss Voigt Hill
#
# Bulk Modulus (GPa) = 28.14890 36.78436 32.46663
# Shear Modulus (GPa) = 17.18733 21.50515 19.34624
#
# Velocity S-wave (km/s) = 3.08383 3.44951 3.27178
# Velocity P-wave (km/s) = 5.31557 6.01821 5.67777
#
# Compressibility (1/GPa) = 0.03552536
#
# Stress axis : x y z
#
# Youngs Moduli (GPa) = 43.41607 28.13844 102.95514
#
# Poissons Ratio (x) = 0.25127 0.33114
# Poissons Ratio (y) = 0.38769 0.43586
# Poissons Ratio (z) = 0.13964 0.11912
#
# Static dielectric constant tensor:
#      x y z
#    x 3.268720 0.000000 0.000000 
#    y 0.000000 3.116690 0.000000 
#    z 0.000000 0.000000 3.513370 
# 
# 
# High freq. dielectric constant tensor:
#      x y z
#    x 1.679270 0.000000 0.000000 
#    y 0.000000 1.654280 0.000000 
#    z 0.000000 0.000000 1.718740 
# 
# From -- ./inp_files/36837.got.cif
#   From: 2010.03.12/outbox.cif.g09.slc.cpg/sg63_19_cif.got.tgz:36837.got - 2010.04.10 19:34:48.
