data_PCOD8255083
_publ_section_title
;
Structure prediction by ZEFSAII (Michael W. Deem and Ramdas Pophale) SiO2 
 PCOD8255083
Probable space group: P N M A
;
_chemical_formula_sum "Si O2"
_cell_formula_units_Z 48
_cell_length_a 14.365989
_cell_length_b 16.355057
_cell_length_c 10.150309
_cell_angle_alpha 90.000000
_cell_angle_beta 90.000000
_cell_angle_gamma 90.000000
_cell_volume 2384.881776
_symmetry_space_group_name_H-M "P N M A"
_symmetry_group_IT_number 62
_symmetry_cell_setting 'orthorhombic'
loop_
_space_group_symop_operation_xyz
x,y,z
1/2-x,-y,1/2+z
1/2+x,1/2-y,1/2-z
-x,1/2+y,-z
-x,-y,-z
1/2+x,y,1/2-z
1/2-x,1/2+y,1/2+z
x,1/2-y,z
loop_
_atom_site_type_symbol
_atom_site_label
_atom_site_fract_x
_atom_site_fract_y
_atom_site_fract_z
Si Si1 0.464784 0.344194 0.203180
Si Si2 0.079846 0.557051 0.945129
Si Si3 0.347341 0.595882 0.884708
Si Si4 0.744264 0.656952 0.873291
Si Si5 0.263196 0.557190 0.373296
Si Si6 0.277090 0.154033 0.613249
O O1 0.492553 0.250000 0.206112
O O2 0.466257 0.374584 0.353501
O O3 0.542067 0.391983 0.118702
O O4 0.365517 0.359250 0.137097
O O5 0.149756 0.504032 0.853504
O O6 0.133707 0.602710 0.063654
O O7 0.000000 0.500000 0.000000
O O8 0.296629 0.636328 0.760482
O O9 0.329179 0.498544 0.885352
O O10 0.308713 0.640181 0.014830
O O11 0.764302 0.750000 0.909627
O O12 0.784143 0.602499 0.990338
O O13 0.253390 0.621569 0.255986
O O14 0.301682 0.250000 0.623050
#
# Coordination Sequence:
#
# PCOD8255083 Si02
#       6
#     8   8   8   8   8   8
#     4  11  22  38  64  92 118 160 215 258 298 365
#     4  11  23  39  64  92 126 164 212 254 313 374
#     4  11  22  40  67  89 121 165 213 255 307 368
#     4  11  22  40  62  89 122 163 207 253 303 370
#     4  11  23  40  62  90 128 162 201 258 316 369
#     4  11  22  41  63  89 127 166 201 258 324 373
#
# _framework density 20.126783
#
# number of rings (size 3 to 8) (size 9 to 14) (size 15 to 20)
#    0.000    1.000    3.333    6.500    0.000    0.667 
#    3.000    2.500    0.000    0.000    0.000    0.000 
#    0.000    0.000    0.000    0.000    0.000    0.000 
#
# Total GULP energy -595361.846011 kJ/mol
# GULP energy per Si atom -12403.371792 kJ/mol
# Density = 2.008097 g / cm^3
# Si number density = 20.126783 Si / 1000 Ang^3
#
#
#
# Elastic Constant Matrix: (Units=GPa)
#
#
# Indices 1 2 3 4 5 6 
#
# 1 41.0778 18.9463 1.9839 0.0000 0.0000 0.0000
# 2 18.9463 99.8696 37.4403 0.0000 0.0000 0.0000
# 3 1.9839 37.4403 77.2876 0.0000 0.0000 0.0000
# 4 0.0000 0.0000 0.0000 39.9800 0.0000 0.0000
# 5 0.0000 0.0000 0.0000 0.0000 24.2036 0.0000
# 6 0.0000 0.0000 0.0000 0.0000 0.0000 29.9708
#
#
#
# Elastic Compliance Matrix: (Units=1/GPa)
#
#
# Indices 1 2 3 4 5 6 
#
# 1 0.026977 -0.005936 0.002183 0.000000 0.000000 0.000000
# 2 -0.005936 0.013541 -0.006407 0.000000 0.000000 0.000000
# 3 0.002183 -0.006407 0.015987 0.000000 0.000000 0.000000
# 4 0.000000 0.000000 0.000000 0.025013 0.000000 0.000000
# 5 0.000000 0.000000 0.000000 0.000000 0.041316 0.000000
# 6 0.000000 0.000000 0.000000 0.000000 0.000000 0.033366
#
#
# Mechanical properties :
#
#
# Convention : Reuss Voigt Hill
#
# Bulk Modulus (GPa) = 27.63681 37.21956 32.42819
# Shear Modulus (GPa) = 26.51380 29.48850 28.00115
#
# Velocity S-wave (km/s) = 3.63345 3.83186 3.73398
# Velocity P-wave (km/s) = 5.60034 6.17335 5.89381
#
# Compressibility (1/GPa) = 0.03618362
#
# Stress axis : x y z
#
# Youngs Moduli (GPa) = 37.06920 73.84811 62.55246
#
# Poissons Ratio (x) = 0.43838 -0.13656
# Poissons Ratio (y) = 0.22005 0.40080
# Poissons Ratio (z) = -0.08093 0.47318
#
# Static dielectric constant tensor:
#      x y z
#    x 3.755020 0.000000 0.000000 
#    y 0.000000 3.914860 0.000000 
#    z 0.000000 0.000000 3.636920 
# 
# 
# High freq. dielectric constant tensor:
#      x y z
#    x 1.782640 0.000000 0.000000 
#    y 0.000000 1.802360 0.000000 
#    z 0.000000 0.000000 1.780450 
# 
# From -- ./inp_files/6474.got.cif
#   From: 2010.03.12/outbox.cif.g09.slc.cpg/sg62_4_cif.got.tgz:6474.got - 2010.04.10 19:12:36.
