data_PCOD8255905
_publ_section_title
;
Structure prediction by ZEFSAII (Michael W. Deem and Ramdas Pophale) SiO2 
 PCOD8255905
Probable space group: C M C M
;
_chemical_formula_sum "Si O2"
_cell_formula_units_Z 80
_cell_length_a 15.262976
_cell_length_b 27.563188
_cell_length_c 10.902705
_cell_angle_alpha 90.000000
_cell_angle_beta 90.000000
_cell_angle_gamma 90.000000
_cell_volume 4586.727402
_symmetry_space_group_name_H-M "C M C M"
_symmetry_group_IT_number 63
_symmetry_cell_setting 'orthorhombic'
loop_
_space_group_symop_operation_xyz
x,y,z
-x,-y,1/2+z
x,-y,-z
-x,y,1/2-z
-x,-y,-z
x,y,1/2-z
-x,y,z
x,-y,1/2+z
1/2+x,1/2+y,z
1/2-x,1/2-y,1/2+z
1/2+x,1/2-y,-z
1/2-x,1/2+y,1/2-z
1/2-x,1/2-y,-z
1/2+x,1/2+y,1/2-z
1/2-x,1/2+y,z
1/2+x,1/2-y,1/2+z
loop_
_atom_site_type_symbol
_atom_site_label
_atom_site_fract_x
_atom_site_fract_y
_atom_site_fract_z
Si Si1 0.750115 0.969181 0.388313
Si Si2 0.901683 0.289377 0.106988
Si Si3 0.602995 0.511012 0.250000
Si Si4 0.399434 0.682171 0.483403
Si Si5 0.397548 0.375470 0.750000
Si Si6 0.744650 0.140042 0.609336
O O1 0.705399 0.975054 0.250000
O O2 0.851654 0.986792 0.370426
O O3 0.746806 0.914689 0.440888
O O4 0.706168 0.000000 0.500000
O O5 0.883928 0.279207 0.250000
O O6 0.888793 0.239088 0.036906
O O7 0.834003 0.328338 0.049156
O O8 0.000000 0.309331 0.086585
O O9 0.500000 0.500043 0.250000
O O10 0.625285 0.568034 0.250000
O O11 0.500000 0.668444 0.512724
O O12 0.360010 0.651317 0.369701
O O13 0.338110 0.666575 0.595769
O O14 0.500000 0.365329 0.750000
O O15 0.721676 0.135993 0.750000
#
# Coordination Sequence:
#
# PCOD8255905 Si02
#       6
#    16  16   8  16   8  16
#     4   9  19  33  47  67  95 127 167 204 244 290
#     4   9  17  32  52  72  95 124 163 210 246 281
#     4   9  18  28  43  62  93 129 162 197 234 282
#     4  10  18  29  48  71 100 128 158 196 235 283
#     4   9  16  28  45  70  91 121 168 201 224 268
#     4  10  20  32  47  72 100 129 160 198 246 302
#
# _framework density 17.441631000000001
#
# number of rings (size 3 to 8) (size 9 to 14) (size 15 to 20)
#    0.600    2.000    1.000    1.800    0.000    1.600 
#    0.000    0.000    0.000    0.600    0.000    0.000 
#    0.000    0.000    0.000    0.000    0.000    0.000 
#
# Total GULP energy -495542.021126 kJ/mol
# GULP energy per Si atom -12388.550528 kJ/mol
# Density = 1.740193 g / cm^3
# Si number density = 17.441631 Si / 1000 Ang^3
#
#
#
# Elastic Constant Matrix: (Units=GPa)
#
#
# Indices 1 2 3 4 5 6 
#
# 1 65.5690 50.4889 13.7145 0.0000 0.0000 0.0000
# 2 50.4889 122.9159 24.0411 0.0000 0.0000 0.0000
# 3 13.7145 24.0411 39.5135 0.0000 0.0000 0.0000
# 4 0.0000 0.0000 0.0000 17.0438 0.0000 0.0000
# 5 0.0000 0.0000 0.0000 0.0000 15.3390 0.0000
# 6 0.0000 0.0000 0.0000 0.0000 0.0000 26.4313
#
#
#
# Elastic Compliance Matrix: (Units=1/GPa)
#
#
# Indices 1 2 3 4 5 6 
#
# 1 0.022519 -0.008764 -0.002484 0.000000 0.000000 0.000000
# 2 -0.008764 0.012645 -0.004652 0.000000 0.000000 0.000000
# 3 -0.002484 -0.004652 0.029000 0.000000 0.000000 0.000000
# 4 0.000000 0.000000 0.000000 0.058672 0.000000 0.000000
# 5 0.000000 0.000000 0.000000 0.000000 0.065193 0.000000
# 6 0.000000 0.000000 0.000000 0.000000 0.000000 0.037834
#
#
# Mechanical properties :
#
#
# Convention : Reuss Voigt Hill
#
# Bulk Modulus (GPa) = 30.89735 44.94304 37.92019
# Shear Modulus (GPa) = 18.62525 21.07972 19.85249
#
# Velocity S-wave (km/s) = 3.27136 3.48024 3.37742
# Velocity P-wave (km/s) = 5.65882 6.47866 6.08257
#
# Compressibility (1/GPa) = 0.03236524
#
# Stress axis : x y z
#
# Youngs Moduli (GPa) = 44.40670 79.07959 34.48247
#
# Poissons Ratio (x) = 0.69307 0.08564
# Poissons Ratio (y) = 0.38919 0.16041
# Poissons Ratio (z) = 0.11029 0.36787
#
# Static dielectric constant tensor:
#      x y z
#    x 3.087010 0.000000 0.000000 
#    y 0.000000 3.487900 0.000000 
#    z 0.000000 0.000000 3.080640 
# 
# 
# High freq. dielectric constant tensor:
#      x y z
#    x 1.637030 0.000000 0.000000 
#    y 0.000000 1.687010 0.000000 
#    z 0.000000 0.000000 1.652120 
# 
# From -- ./inp_files/21255.got.cif
#   From: 2010.03.12/outbox.cif.g09.slc.cpg/sg63_11_cif.got.tgz:21255.got - 2010.04.10 19:34:48.
