data_PCOD8255479
_publ_section_title
;
Structure prediction by ZEFSAII (Michael W. Deem and Ramdas Pophale) SiO2 
 PCOD8255479
Probable space group: C M C M
;
_chemical_formula_sum "Si O2"
_cell_formula_units_Z 80
_cell_length_a 8.906954
_cell_length_b 20.935571
_cell_length_c 24.798760
_cell_angle_alpha 90.000000
_cell_angle_beta 90.000000
_cell_angle_gamma 90.000000
_cell_volume 4624.278537
_symmetry_space_group_name_H-M "C M C M"
_symmetry_group_IT_number 63
_symmetry_cell_setting 'orthorhombic'
loop_
_space_group_symop_operation_xyz
x,y,z
-x,-y,1/2+z
x,-y,-z
-x,y,1/2-z
-x,-y,-z
x,y,1/2-z
-x,y,z
x,-y,1/2+z
1/2+x,1/2+y,z
1/2-x,1/2-y,1/2+z
1/2+x,1/2-y,-z
1/2-x,1/2+y,1/2-z
1/2-x,1/2-y,-z
1/2+x,1/2+y,1/2-z
1/2-x,1/2+y,z
1/2+x,1/2-y,1/2+z
loop_
_atom_site_type_symbol
_atom_site_label
_atom_site_fract_x
_atom_site_fract_y
_atom_site_fract_z
Si Si1 0.177087 0.936374 0.473146
Si Si2 0.676657 0.384610 0.359518
Si Si3 0.835643 0.239313 0.250000
Si Si4 0.833087 0.608784 0.750000
Si Si5 0.822847 0.750234 0.636570
Si Si6 0.174615 0.809588 0.972590
O O1 0.214725 0.932137 0.409360
O O2 0.244873 0.875404 0.505243
O O3 0.000000 0.936981 0.482264
O O4 0.248327 0.000000 0.500000
O O5 0.500000 0.378075 0.350381
O O6 0.748057 0.413196 0.304672
O O7 0.739437 0.315564 0.377137
O O8 0.842713 0.315640 0.250000
O O9 0.757028 0.220340 0.306710
O O10 0.000000 0.207910 0.250000
O O11 0.000000 0.578585 0.750000
O O12 0.795372 0.803765 0.591451
O O13 0.000000 0.734268 0.643341
O O14 0.000000 0.806254 0.986608
O O15 0.250000 0.750000 0.000000
#
# Coordination Sequence:
#
# PCOD8255479 Si02
#       6
#    16  16   8   8  16  16
#     4   9  18  31  46  67  99 134 164 198 241 287
#     4  10  17  27  46  70  94 123 160 196 233 283
#     4   7  12  23  37  58  85 113 139 175 227 278
#     4   9  17  29  45  66  95 125 153 195 245 282
#     4   9  16  26  43  65  93 122 152 193 242 289
#     4  10  18  29  47  69  92 125 162 200 243 284
#
# _framework density 17.299997000000001
#
# number of rings (size 3 to 8) (size 9 to 14) (size 15 to 20)
#    0.000    2.800    2.000    2.100    0.000    0.000 
#    0.000    0.000    0.000    6.600    0.000    7.000 
#    0.000    0.000    0.000    0.000    0.000    0.000 
#
# Total GULP energy -495553.398271 kJ/mol
# GULP energy per Si atom -12388.834957 kJ/mol
# Density = 1.726062 g / cm^3
# Si number density = 17.299997 Si / 1000 Ang^3
#
#
#
# Elastic Constant Matrix: (Units=GPa)
#
#
# Indices 1 2 3 4 5 6 
#
# 1 52.0110 20.1863 40.7909 0.0000 0.0000 0.0000
# 2 20.1863 91.7983 67.3916 0.0000 0.0000 0.0000
# 3 40.7909 67.3916 168.6620 0.0000 0.0000 0.0000
# 4 0.0000 0.0000 0.0000 21.6431 0.0000 0.0000
# 5 0.0000 0.0000 0.0000 0.0000 22.0934 0.0000
# 6 0.0000 0.0000 0.0000 0.0000 0.0000 12.3499
#
#
#
# Elastic Compliance Matrix: (Units=1/GPa)
#
#
# Indices 1 2 3 4 5 6 
#
# 1 0.023859 -0.001430 -0.005199 0.000000 0.000000 0.000000
# 2 -0.001430 0.015501 -0.005848 0.000000 0.000000 0.000000
# 3 -0.005199 -0.005848 0.009523 0.000000 0.000000 0.000000
# 4 0.000000 0.000000 0.000000 0.046204 0.000000 0.000000
# 5 0.000000 0.000000 0.000000 0.000000 0.045262 0.000000
# 6 0.000000 0.000000 0.000000 0.000000 0.000000 0.080972
#
#
# Mechanical properties :
#
#
# Convention : Reuss Voigt Hill
#
# Bulk Modulus (GPa) = 41.78922 63.24546 52.51734
# Shear Modulus (GPa) = 19.66557 23.49079 21.57818
#
# Velocity S-wave (km/s) = 3.37521 3.68890 3.53554
# Velocity P-wave (km/s) = 6.27674 7.40145 6.86217
#
# Compressibility (1/GPa) = 0.02392961
#
# Stress axis : x y z
#
# Youngs Moduli (GPa) = 41.91276 64.51231 105.00903
#
# Poissons Ratio (x) = 0.09224 0.54594
# Poissons Ratio (y) = 0.05993 0.61407
# Poissons Ratio (z) = 0.21790 0.37726
#
# Static dielectric constant tensor:
#      x y z
#    x 3.049000 0.000000 0.000000 
#    y 0.000000 3.022760 0.000000 
#    z 0.000000 0.000000 4.308420 
# 
# 
# High freq. dielectric constant tensor:
#      x y z
#    x 1.641560 0.000000 0.000000 
#    y 0.000000 1.612360 0.000000 
#    z 0.000000 0.000000 1.698090 
# 
# From -- ./inp_files/59534.got.cif
#   From: 2010.03.12/outbox.cif.g09.slc.cpg/sg63_30_cif.got.tgz:59534.got - 2010.04.10 19:34:48.
