data_PCOD8255505
_publ_section_title
;
Structure prediction by ZEFSAII (Michael W. Deem and Ramdas Pophale) SiO2 
 PCOD8255505
Probable space group: C M C M
;
_chemical_formula_sum "Si O2"
_cell_formula_units_Z 112
_cell_length_a 14.925309
_cell_length_b 23.217292
_cell_length_c 17.749503
_cell_angle_alpha 90.000000
_cell_angle_beta 90.000000
_cell_angle_gamma 90.000000
_cell_volume 6150.651093
_symmetry_space_group_name_H-M "C M C M"
_symmetry_group_IT_number 63
_symmetry_cell_setting 'orthorhombic'
loop_
_space_group_symop_operation_xyz
x,y,z
-x,-y,1/2+z
x,-y,-z
-x,y,1/2-z
-x,-y,-z
x,y,1/2-z
-x,y,z
x,-y,1/2+z
1/2+x,1/2+y,z
1/2-x,1/2-y,1/2+z
1/2+x,1/2-y,-z
1/2-x,1/2+y,1/2-z
1/2-x,1/2-y,-z
1/2+x,1/2+y,1/2-z
1/2-x,1/2+y,z
1/2+x,1/2-y,1/2+z
loop_
_atom_site_type_symbol
_atom_site_label
_atom_site_fract_x
_atom_site_fract_y
_atom_site_fract_z
Si Si1 0.395735 0.899519 0.979886
Si Si2 0.214300 0.433084 0.381637
Si Si3 0.783183 0.300722 0.333016
Si Si4 0.596947 0.576467 0.838771
Si Si5 0.898159 0.535387 0.167738
Si Si6 0.101298 0.273132 0.031110
Si Si7 0.597236 0.296269 0.387892
O O1 0.500000 0.913760 0.998885
O O2 0.368917 0.918853 0.895738
O O3 0.329356 0.934291 0.035310
O O4 0.376762 0.831794 0.986202
O O5 0.209534 0.369038 0.347432
O O6 0.318323 0.455393 0.377872
O O7 0.158858 0.477104 0.331419
O O8 0.821199 0.287173 0.250000
O O9 0.838570 0.265459 0.394875
O O10 0.680324 0.277901 0.335553
O O11 0.616445 0.587283 0.750000
O O12 0.500000 0.543882 0.848101
O O13 0.587694 0.635727 0.883666
O O14 0.886154 0.564740 0.250000
O O15 0.000000 0.516409 0.153920
O O16 0.000000 0.273509 0.060364
O O17 0.120028 0.220597 0.974277
O O18 0.500000 0.268154 0.364336
#
# Coordination Sequence:
#
# PCOD8255505 Si02
#       7
#    16  16  16  16  16  16  16
#     4   9  18  31  45  64  90 119 151 183 212 249
#     4  10  17  28  46  66  88 116 146 175 220 271
#     4  10  19  29  43  66  92 113 140 182 223 260
#     4   9  17  29  46  70  94 111 136 179 225 265
#     4  10  19  30  45  65  89 118 151 183 215 254
#     4   9  18  31  46  63  86 119 152 178 210 255
#     4   9  16  28  46  65  87 116 146 174 210 258
#
# _framework density 18.209454000000001
#
# number of rings (size 3 to 8) (size 9 to 14) (size 15 to 20)
#    0.000    2.571    0.000    3.857    0.000    2.857 
#    0.000    1.429    0.000    8.571    0.000    0.000 
#    0.000    0.000    0.000    1.286    0.000    2.857 
#
# Total GULP energy -693787.500044 kJ/mol
# GULP energy per Si atom -12389.062501 kJ/mol
# Density = 1.816801 g / cm^3
# Si number density = 18.209454 Si / 1000 Ang^3
#
#
#
# Elastic Constant Matrix: (Units=GPa)
#
#
# Indices 1 2 3 4 5 6 
#
# 1 111.7003 25.0513 63.1850 0.0000 0.0000 0.0000
# 2 25.0513 23.3349 32.9024 0.0000 0.0000 0.0000
# 3 63.1850 32.9024 136.6149 0.0000 0.0000 0.0000
# 4 0.0000 0.0000 0.0000 21.0994 0.0000 0.0000
# 5 0.0000 0.0000 0.0000 0.0000 23.6746 0.0000
# 6 0.0000 0.0000 0.0000 0.0000 0.0000 17.2749
#
#
#
# Elastic Compliance Matrix: (Units=1/GPa)
#
#
# Indices 1 2 3 4 5 6 
#
# 1 0.013123 -0.008374 -0.004053 0.000000 0.000000 0.000000
# 2 -0.008374 0.070234 -0.013042 0.000000 0.000000 0.000000
# 3 -0.004053 -0.013042 0.012335 0.000000 0.000000 0.000000
# 4 0.000000 0.000000 0.000000 0.047395 0.000000 0.000000
# 5 0.000000 0.000000 0.000000 0.000000 0.042239 0.000000
# 6 0.000000 0.000000 0.000000 0.000000 0.000000 0.057887
#
#
# Mechanical properties :
#
#
# Convention : Reuss Voigt Hill
#
# Bulk Modulus (GPa) = 22.34416 57.10305 39.72360
# Shear Modulus (GPa) = 16.17762 22.44388 19.31075
#
# Velocity S-wave (km/s) = 2.98387 3.51456 3.26003
# Velocity P-wave (km/s) = 4.91615 6.92074 6.00272
#
# Compressibility (1/GPa) = 0.04475443
#
# Stress axis : x y z
#
# Youngs Moduli (GPa) = 76.20186 14.23820 81.06824
#
# Poissons Ratio (x) = 0.11923 0.32854
# Poissons Ratio (y) = 0.63811 1.05730
# Poissons Ratio (z) = 0.30882 0.18570
#
# Static dielectric constant tensor:
#      x y z
#    x 3.948920 0.000000 0.000000 
#    y 0.000000 2.936130 0.000000 
#    z 0.000000 0.000000 3.385380 
# 
# 
# High freq. dielectric constant tensor:
#      x y z
#    x 1.719960 0.000000 0.000000 
#    y 0.000000 1.652240 0.000000 
#    z 0.000000 0.000000 1.702110 
# 
# From -- ./inp_files/32549.got.cif
#   From: 2010.03.12/outbox.cif.g09.slc.cpg/sg63_17_cif.got.tgz:32549.got - 2010.04.10 19:34:48.
