data_PCOD8255785
_publ_section_title
;
Structure prediction by ZEFSAII (Michael W. Deem and Ramdas Pophale) SiO2 
 PCOD8255785
Probable space group: C M C M
;
_chemical_formula_sum "Si O2"
_cell_formula_units_Z 88
_cell_length_a 17.770545
_cell_length_b 28.943513
_cell_length_c 9.618965
_cell_angle_alpha 90.000000
_cell_angle_beta 90.000000
_cell_angle_gamma 90.000000
_cell_volume 4947.437698
_symmetry_space_group_name_H-M "C M C M"
_symmetry_group_IT_number 63
_symmetry_cell_setting 'orthorhombic'
loop_
_space_group_symop_operation_xyz
x,y,z
-x,-y,1/2+z
x,-y,-z
-x,y,1/2-z
-x,-y,-z
x,y,1/2-z
-x,y,z
x,-y,1/2+z
1/2+x,1/2+y,z
1/2-x,1/2-y,1/2+z
1/2+x,1/2-y,-z
1/2-x,1/2+y,1/2-z
1/2-x,1/2-y,-z
1/2+x,1/2+y,1/2-z
1/2-x,1/2+y,z
1/2+x,1/2-y,1/2+z
loop_
_atom_site_type_symbol
_atom_site_label
_atom_site_fract_x
_atom_site_fract_y
_atom_site_fract_z
Si Si1 0.500000 0.546265 0.586067
Si Si2 0.788137 0.453474 0.413144
Si Si3 0.084287 0.197467 0.915752
Si Si4 0.086017 0.618151 0.589937
Si Si5 0.645749 0.603353 0.914142
Si Si6 0.089733 0.298132 0.594763
O O1 0.500000 0.500000 0.500000
O O2 0.500000 0.535467 0.750000
O O3 0.426817 0.574534 0.539818
O O4 0.788250 0.500000 0.500000
O O5 0.778051 0.464974 0.250000
O O6 0.866433 0.427552 0.442546
O O7 0.720891 0.421061 0.470936
O O8 0.079627 0.196178 0.750000
O O9 0.137460 0.155930 0.972216
O O10 0.117248 0.247701 0.960816
O O11 0.000000 0.190032 0.975493
O O12 0.093110 0.632362 0.750000
O O13 0.119608 0.661381 0.504702
O O14 0.000000 0.607193 0.547982
O O15 0.651055 0.605727 0.750000
O O16 0.120329 0.307782 0.750000
O O17 0.000000 0.297134 0.595584
#
# Coordination Sequence:
#
# PCOD8255785 Si02
#       6
#     8  16  16  16  16  16
#     4  10  18  28  46  68  90 120 156 192 229 268
#     4  10  21  35  50  68  91 121 155 193 236 276
#     4   8  12  22  43  71  97 120 151 188 221 261
#     4   9  18  33  50  67  91 123 155 186 228 284
#     4   9  16  28  46  69  94 121 154 189 227 270
#     4   8  14  25  46  74  96 116 148 190 230 265
#
# _framework density 17.786984
#
# number of rings (size 3 to 8) (size 9 to 14) (size 15 to 20)
#    0.000    3.091    0.909    1.636    0.000    1.091 
#    0.000    0.909    0.000    2.182    0.000    0.000 
#    0.000    0.000    0.000    0.000    0.000    0.000 
#
# Total GULP energy -545310.324030 kJ/mol
# GULP energy per Si atom -12393.416455 kJ/mol
# Density = 1.774650 g / cm^3
# Si number density = 17.786984 Si / 1000 Ang^3
#
#
#
# Elastic Constant Matrix: (Units=GPa)
#
#
# Indices 1 2 3 4 5 6 
#
# 1 83.9801 59.2132 26.4189 0.0000 0.0000 0.0000
# 2 59.2132 148.4582 49.3970 0.0000 0.0000 0.0000
# 3 26.4189 49.3970 38.2370 0.0000 0.0000 0.0000
# 4 0.0000 0.0000 0.0000 25.0100 0.0000 0.0000
# 5 0.0000 0.0000 0.0000 0.0000 10.8090 0.0000
# 6 0.0000 0.0000 0.0000 0.0000 0.0000 23.6981
#
#
#
# Elastic Compliance Matrix: (Units=1/GPa)
#
#
# Indices 1 2 3 4 5 6 
#
# 1 0.017155 -0.005084 -0.005285 0.000000 0.000000 0.000000
# 2 -0.005084 0.013321 -0.013696 0.000000 0.000000 0.000000
# 3 -0.005285 -0.013696 0.047498 0.000000 0.000000 0.000000
# 4 0.000000 0.000000 0.000000 0.039984 0.000000 0.000000
# 5 0.000000 0.000000 0.000000 0.000000 0.092516 0.000000
# 6 0.000000 0.000000 0.000000 0.000000 0.000000 0.042197
#
#
# Mechanical properties :
#
#
# Convention : Reuss Voigt Hill
#
# Bulk Modulus (GPa) = 33.50837 60.08148 46.79493
# Shear Modulus (GPa) = 16.09021 20.94650 18.51835
#
# Velocity S-wave (km/s) = 3.01093 3.43539 3.23014
# Velocity P-wave (km/s) = 5.56482 7.04184 6.34644
#
# Compressibility (1/GPa) = 0.02984329
#
# Stress axis : x y z
#
# Youngs Moduli (GPa) = 58.29338 75.07127 21.05361
#
# Poissons Ratio (x) = 0.38163 0.11127
# Poissons Ratio (y) = 0.29634 0.28835
# Poissons Ratio (z) = 0.30809 1.02818
#
# Static dielectric constant tensor:
#      x y z
#    x 2.325430 0.000000 0.000000 
#    y 0.000000 3.619190 0.000000 
#    z 0.000000 0.000000 2.987590 
# 
# 
# High freq. dielectric constant tensor:
#      x y z
#    x 1.669810 0.000000 0.000000 
#    y 0.000000 1.702730 0.000000 
#    z 0.000000 0.000000 1.643000 
# 
# From -- ./inp_files/6867.got.cif
#   From: 2010.03.12/outbox.cif.g09.slc.cpg/sg63_4_cif.got.tgz:6867.got - 2010.04.10 19:34:48.
