data_PCOD8255711
_publ_section_title
;
Structure prediction by ZEFSAII (Michael W. Deem and Ramdas Pophale) SiO2 
 PCOD8255711
Probable space group: C M C M
;
_chemical_formula_sum "Si O2"
_cell_formula_units_Z 104
_cell_length_a 20.676708
_cell_length_b 12.205409
_cell_length_c 23.327659
_cell_angle_alpha 90.000000
_cell_angle_beta 90.000000
_cell_angle_gamma 90.000000
_cell_volume 5887.147133
_symmetry_space_group_name_H-M "C M C M"
_symmetry_group_IT_number 63
_symmetry_cell_setting 'orthorhombic'
loop_
_space_group_symop_operation_xyz
x,y,z
-x,-y,1/2+z
x,-y,-z
-x,y,1/2-z
-x,-y,-z
x,y,1/2-z
-x,y,z
x,-y,1/2+z
1/2+x,1/2+y,z
1/2-x,1/2-y,1/2+z
1/2+x,1/2-y,-z
1/2-x,1/2+y,1/2-z
1/2-x,1/2-y,-z
1/2+x,1/2+y,1/2-z
1/2-x,1/2+y,z
1/2+x,1/2-y,1/2+z
loop_
_atom_site_type_symbol
_atom_site_label
_atom_site_fract_x
_atom_site_fract_y
_atom_site_fract_z
Si Si1 0.312313 0.223360 0.570329
Si Si2 0.846669 0.941582 0.628070
Si Si3 0.169120 0.697472 0.058414
Si Si4 0.668508 0.554978 0.250000
Si Si5 0.301477 0.994244 0.131320
Si Si6 0.379213 0.676476 0.750000
Si Si7 0.574034 0.351970 0.124200
Si Si8 0.313698 0.910627 0.750000
O O1 0.347652 0.335545 0.588095
O O2 0.235259 0.237113 0.569263
O O3 0.342447 0.189933 0.509471
O O4 0.325629 0.127239 0.615775
O O5 0.868745 0.906516 0.692563
O O6 0.776156 0.997547 0.633480
O O7 0.896268 0.031455 0.604036
O O8 0.172655 0.575169 0.082499
O O9 0.110659 0.757074 0.090120
O O10 0.673837 0.421202 0.250000
O O11 0.737774 0.612257 0.250000
O O12 0.333271 0.022946 0.192839
O O13 0.422122 0.665676 0.692731
O O14 0.344892 0.792274 0.750000
O O15 0.500000 0.349032 0.104981
#
# Coordination Sequence:
#
# PCOD8255711 Si02
#       8
#    16  16  16   8  16   8  16   8
#     4  10  20  33  53  76 115 148 177 230 280 334
#     4   9  19  32  49  81 110 143 183 219 282 328
#     4  10  20  34  53  79 108 149 190 223 275 326
#     4   8  18  27  49  74 113 144 159 229 278 333
#     4  10  18  32  53  81 113 140 175 233 282 335
#     4  10  19  36  52  83 115 140 188 221 279 335
#     4  11  21  37  58  81 111 145 188 232 268 328
#     4  10  18  27  53  83 110 138 170 230 283 328
#
# _framework density 17.665602
#
# number of rings (size 3 to 8) (size 9 to 14) (size 15 to 20)
#    0.000    2.154    3.077    0.692    0.000    1.231 
#    0.000    1.538    0.000    2.769    0.000    0.000 
#    0.000    0.000    0.000    0.000    0.000    0.000 
#
# Total GULP energy -644647.065180 kJ/mol
# GULP energy per Si atom -12397.058946 kJ/mol
# Density = 1.762539 g / cm^3
# Si number density = 17.665602 Si / 1000 Ang^3
#
#
#
# Elastic Constant Matrix: (Units=GPa)
#
#
# Indices 1 2 3 4 5 6 
#
# 1 73.3559 32.5763 15.8907 0.0000 0.0000 0.0000
# 2 32.5763 87.9334 39.1350 0.0000 0.0000 0.0000
# 3 15.8907 39.1350 97.6128 0.0000 0.0000 0.0000
# 4 0.0000 0.0000 0.0000 27.4665 0.0000 0.0000
# 5 0.0000 0.0000 0.0000 0.0000 13.2500 0.0000
# 6 0.0000 0.0000 0.0000 0.0000 0.0000 17.3236
#
#
#
# Elastic Compliance Matrix: (Units=1/GPa)
#
#
# Indices 1 2 3 4 5 6 
#
# 1 0.016323 -0.005921 -0.000283 0.000000 0.000000 0.000000
# 2 -0.005921 0.015990 -0.005447 0.000000 0.000000 0.000000
# 3 -0.000283 -0.005447 0.012474 0.000000 0.000000 0.000000
# 4 0.000000 0.000000 0.000000 0.036408 0.000000 0.000000
# 5 0.000000 0.000000 0.000000 0.000000 0.075472 0.000000
# 6 0.000000 0.000000 0.000000 0.000000 0.000000 0.057725
#
#
# Mechanical properties :
#
#
# Convention : Reuss Voigt Hill
#
# Bulk Modulus (GPa) = 46.54426 48.23401 47.38913
# Shear Modulus (GPa) = 20.42021 23.02804 21.72412
#
# Velocity S-wave (km/s) = 3.40359 3.61439 3.51057
# Velocity P-wave (km/s) = 6.46919 6.69191 6.58149
#
# Compressibility (1/GPa) = 0.02148493
#
# Stress axis : x y z
#
# Youngs Moduli (GPa) = 61.26327 62.53961 80.16400
#
# Poissons Ratio (x) = 0.37030 0.02272
# Poissons Ratio (y) = 0.36274 0.43664
# Poissons Ratio (z) = 0.01736 0.34064
#
# Static dielectric constant tensor:
#      x y z
#    x 2.803220 0.000000 0.000000 
#    y 0.000000 3.194690 0.000000 
#    z 0.000000 0.000000 3.569500 
# 
# 
# High freq. dielectric constant tensor:
#      x y z
#    x 1.624990 0.000000 0.000000 
#    y 0.000000 1.684360 0.000000 
#    z 0.000000 0.000000 1.699880 
# 
# From -- ./inp_files/69989.got.cif
#   From: 2010.03.12/outbox.cif.g09.slc.cpg/sg63_35_cif.got.tgz:69989.got - 2010.04.10 19:34:48.
