data_PCOD8255912
_publ_section_title
;
Structure prediction by ZEFSAII (Michael W. Deem and Ramdas Pophale) SiO2 
 PCOD8255912
Probable space group: C M C M
;
_chemical_formula_sum "Si O2"
_cell_formula_units_Z 96
_cell_length_a 9.824888
_cell_length_b 23.132308
_cell_length_c 23.450840
_cell_angle_alpha 90.000000
_cell_angle_beta 90.000000
_cell_angle_gamma 90.000000
_cell_volume 5329.727171
_symmetry_space_group_name_H-M "C M C M"
_symmetry_group_IT_number 63
_symmetry_cell_setting 'orthorhombic'
loop_
_space_group_symop_operation_xyz
x,y,z
-x,-y,1/2+z
x,-y,-z
-x,y,1/2-z
-x,-y,-z
x,y,1/2-z
-x,y,z
x,-y,1/2+z
1/2+x,1/2+y,z
1/2-x,1/2-y,1/2+z
1/2+x,1/2-y,-z
1/2-x,1/2+y,1/2-z
1/2-x,1/2-y,-z
1/2+x,1/2+y,1/2-z
1/2-x,1/2+y,z
1/2+x,1/2-y,1/2+z
loop_
_atom_site_type_symbol
_atom_site_label
_atom_site_fract_x
_atom_site_fract_y
_atom_site_fract_z
Si Si1 0.162780 0.905152 0.750000
Si Si2 0.852353 0.220130 0.040693
Si Si3 0.159061 0.970925 0.637605
Si Si4 0.838196 0.227411 0.250000
Si Si5 0.340063 0.595778 0.600697
Si Si6 0.841747 0.908396 0.528346
Si Si7 0.152659 0.302078 0.145659
O O1 0.219820 0.938773 0.693618
O O2 0.218008 0.838783 0.750000
O O3 0.000000 0.906722 0.750000
O O4 0.807330 0.154888 0.052080
O O5 0.859420 0.253685 0.098571
O O6 0.000000 0.219490 0.010297
O O7 0.750000 0.250000 0.000000
O O8 0.224424 0.949328 0.577172
O O9 0.000000 0.956291 0.635852
O O10 0.184768 0.039681 0.640272
O O11 0.784925 0.265530 0.302539
O O12 0.000000 0.223234 0.250000
O O13 0.500000 0.612796 0.599448
O O14 0.284370 0.583917 0.536128
O O15 0.254588 0.646981 0.628985
O O16 0.000000 0.923088 0.524255
O O17 0.000000 0.327026 0.158207
#
# Coordination Sequence:
#
# PCOD8255912 Si02
#       7
#     8  16  16   8  16  16  16
#     4   9  16  29  48  71  97 123 162 215 252 282
#     4  10  18  29  48  72  97 126 161 201 245 290
#     4   9  17  28  46  71  97 127 165 207 249 289
#     4   9  18  33  51  71  99 133 166 203 248 292
#     4  10  19  31  49  74 104 132 160 199 248 298
#     4   9  16  28  46  69  97 128 161 199 246 295
#     4  10  20  33  50  73 101 133 168 202 240 293
#
# _framework density 18.012179
#
# number of rings (size 3 to 8) (size 9 to 14) (size 15 to 20)
#    0.000    2.500    1.667    1.500    0.000    6.667 
#    0.000    1.250    0.000    3.000    0.000    2.333 
#    0.000    0.000    0.000    0.000    0.000    0.000 
#
# Total GULP energy -594695.456088 kJ/mol
# GULP energy per Si atom -12389.488668 kJ/mol
# Density = 1.797118 g / cm^3
# Si number density = 18.012179 Si / 1000 Ang^3
#
#
#
# Elastic Constant Matrix: (Units=GPa)
#
#
# Indices 1 2 3 4 5 6 
#
# 1 29.4999 30.7534 24.5879 0.0000 0.0000 0.0000
# 2 30.7534 128.0324 70.1964 0.0000 0.0000 0.0000
# 3 24.5879 70.1964 121.5559 0.0000 0.0000 0.0000
# 4 0.0000 0.0000 0.0000 27.8405 0.0000 0.0000
# 5 0.0000 0.0000 0.0000 0.0000 14.6237 0.0000
# 6 0.0000 0.0000 0.0000 0.0000 0.0000 22.7561
#
#
#
# Elastic Compliance Matrix: (Units=1/GPa)
#
#
# Indices 1 2 3 4 5 6 
#
# 1 0.046741 -0.008844 -0.004348 0.000000 0.000000 0.000000
# 2 -0.008844 0.013102 -0.005778 0.000000 0.000000 0.000000
# 3 -0.004348 -0.005778 0.012443 0.000000 0.000000 0.000000
# 4 0.000000 0.000000 0.000000 0.035919 0.000000 0.000000
# 5 0.000000 0.000000 0.000000 0.000000 0.068382 0.000000
# 6 0.000000 0.000000 0.000000 0.000000 0.000000 0.043944
#
#
# Mechanical properties :
#
#
# Convention : Reuss Voigt Hill
#
# Bulk Modulus (GPa) = 29.11313 58.90707 44.01010
# Shear Modulus (GPa) = 18.52406 23.28076 20.90241
#
# Velocity S-wave (km/s) = 3.21038 3.59904 3.41025
# Velocity P-wave (km/s) = 5.47176 7.07430 6.32400
#
# Compressibility (1/GPa) = 0.03434876
#
# Stress axis : x y z
#
# Youngs Moduli (GPa) = 21.39427 76.32166 80.36945
#
# Poissons Ratio (x) = 0.67496 0.34942
# Poissons Ratio (y) = 0.18920 0.46434
# Poissons Ratio (z) = 0.09301 0.44095
#
# Static dielectric constant tensor:
#      x y z
#    x 2.814480 0.000000 0.000000 
#    y 0.000000 3.463240 0.000000 
#    z 0.000000 0.000000 3.502320 
# 
# 
# High freq. dielectric constant tensor:
#      x y z
#    x 1.627330 0.000000 0.000000 
#    y 0.000000 1.712030 0.000000 
#    z 0.000000 0.000000 1.707920 
# 
# From -- ./inp_files/52911.got.cif
#   From: 2010.03.12/outbox.cif.g09.slc.cpg/sg63_27_cif.got.tgz:52911.got - 2010.04.10 19:34:48.
