data_PCOD8255823
_publ_section_title
;
Structure prediction by ZEFSAII (Michael W. Deem and Ramdas Pophale) SiO2 
 PCOD8255823
Probable space group: C M C M
;
_chemical_formula_sum "Si O2"
_cell_formula_units_Z 112
_cell_length_a 25.004813
_cell_length_b 14.616880
_cell_length_c 13.580284
_cell_angle_alpha 90.000000
_cell_angle_beta 90.000000
_cell_angle_gamma 90.000000
_cell_volume 4963.489927
_symmetry_space_group_name_H-M "C M C M"
_symmetry_group_IT_number 63
_symmetry_cell_setting 'orthorhombic'
loop_
_space_group_symop_operation_xyz
x,y,z
-x,-y,1/2+z
x,-y,-z
-x,y,1/2-z
-x,-y,-z
x,y,1/2-z
-x,y,z
x,-y,1/2+z
1/2+x,1/2+y,z
1/2-x,1/2-y,1/2+z
1/2+x,1/2-y,-z
1/2-x,1/2+y,1/2-z
1/2-x,1/2-y,-z
1/2+x,1/2+y,1/2-z
1/2-x,1/2+y,z
1/2+x,1/2-y,1/2+z
loop_
_atom_site_type_symbol
_atom_site_label
_atom_site_fract_x
_atom_site_fract_y
_atom_site_fract_z
Si Si1 0.942064 0.493047 0.866302
Si Si2 0.258042 0.295616 0.868142
Si Si3 0.869148 0.143707 0.051755
Si Si4 0.938912 0.699471 0.862078
Si Si5 0.137946 0.043862 0.860057
Si Si6 0.169893 0.564489 0.132452
Si Si7 0.743355 0.091683 0.862084
O O1 0.944968 0.495552 0.750000
O O2 0.932770 0.596692 0.903953
O O3 0.892215 0.431233 0.903689
O O4 0.000000 0.456438 0.906398
O O5 0.265826 0.301859 0.750000
O O6 0.307278 0.342072 0.923181
O O7 0.203399 0.347087 0.901591
O O8 0.252410 0.192335 0.910334
O O9 0.903199 0.232766 0.074405
O O10 0.887897 0.054403 0.113902
O O11 0.879646 0.122481 0.936359
O O12 0.918045 0.703840 0.750000
O O13 0.000000 0.732086 0.868452
O O14 0.120479 0.073765 0.750000
O O15 0.202004 0.034358 0.869079
O O16 0.171704 0.558582 0.250000
O O17 0.197017 0.471077 0.089453
O O18 0.727910 0.111083 0.750000
#
# Coordination Sequence:
#
# PCOD8255823 Si02
#       7
#    16  16  16  16  16  16  16
#     4   8  14  25  43  71 108 145 177 220 278 319
#     4  10  18  28  48  77 107 142 186 224 268 328
#     4  11  20  32  55  77 101 142 181 219 269 329
#     4   9  17  30  51  81 111 137 175 226 274 323
#     4  10  21  36  50  71 106 143 176 217 273 325
#     4   9  15  25  43  70 106 143 177 218 266 326
#     4   9  17  30  47  69 106 144 171 217 272 319
#
# _framework density 22.564768999999998
#
# number of rings (size 3 to 8) (size 9 to 14) (size 15 to 20)
#    0.000    2.571    1.429    3.000    0.000    2.857 
#    0.000    1.429    0.000    1.286    0.000    2.000 
#    0.000   13.714    0.000    2.000    0.000    0.286 
#
# Total GULP energy -694045.906030 kJ/mol
# GULP energy per Si atom -12393.676893 kJ/mol
# Density = 2.251341 g / cm^3
# Si number density = 22.564769 Si / 1000 Ang^3
#
#
#
# Elastic Constant Matrix: (Units=GPa)
#
#
# Indices 1 2 3 4 5 6 
#
# 1 116.3353 41.3289 15.4686 0.0000 0.0000 0.0000
# 2 41.3289 76.0476 6.8002 0.0000 0.0000 0.0000
# 3 15.4686 6.8002 77.1026 0.0000 0.0000 0.0000
# 4 0.0000 0.0000 0.0000 15.5351 0.0000 0.0000
# 5 0.0000 0.0000 0.0000 0.0000 7.9224 0.0000
# 6 0.0000 0.0000 0.0000 0.0000 0.0000 37.0235
#
#
#
# Elastic Compliance Matrix: (Units=1/GPa)
#
#
# Indices 1 2 3 4 5 6 
#
# 1 0.010862 -0.005754 -0.001672 0.000000 0.000000 0.000000
# 2 -0.005754 0.016302 -0.000283 0.000000 0.000000 0.000000
# 3 -0.001672 -0.000283 0.013330 0.000000 0.000000 0.000000
# 4 0.000000 0.000000 0.000000 0.064370 0.000000 0.000000
# 5 0.000000 0.000000 0.000000 0.000000 0.126225 0.000000
# 6 0.000000 0.000000 0.000000 0.000000 0.000000 0.027010
#
#
# Mechanical properties :
#
#
# Convention : Reuss Voigt Hill
#
# Bulk Modulus (GPa) = 39.87808 44.07567 41.97688
# Shear Modulus (GPa) = 17.73833 25.82207 21.78020
#
# Velocity S-wave (km/s) = 2.80680 3.38650 3.11019
# Velocity P-wave (km/s) = 5.31180 5.90479 5.61613
#
# Compressibility (1/GPa) = 0.02507643
#
# Stress axis : x y z
#
# Youngs Moduli (GPa) = 92.06273 61.34258 75.01801
#
# Poissons Ratio (x) = 0.35294 0.12541
# Poissons Ratio (y) = 0.52970 0.02126
# Poissons Ratio (z) = 0.15391 0.01739
#
# Static dielectric constant tensor:
#      x y z
#    x 4.060510 0.000000 0.000000 
#    y 0.000000 4.050500 0.000000 
#    z 0.000000 0.000000 4.010250 
# 
# 
# High freq. dielectric constant tensor:
#      x y z
#    x 1.861000 0.000000 0.000000 
#    y 0.000000 1.880300 0.000000 
#    z 0.000000 0.000000 1.897750 
# 
# From -- ./inp_files/36858.got.cif
#   From: 2010.03.12/outbox.cif.g09.slc.cpg/sg63_19_cif.got.tgz:36858.got - 2010.04.10 19:34:48.
