data_PCOD8255489
_publ_section_title
;
Structure prediction by ZEFSAII (Michael W. Deem and Ramdas Pophale) SiO2 
 PCOD8255489
Probable space group: C M C M
;
_chemical_formula_sum "Si O2"
_cell_formula_units_Z 80
_cell_length_a 26.607715
_cell_length_b 14.234115
_cell_length_c 13.739722
_cell_angle_alpha 90.000000
_cell_angle_beta 90.000000
_cell_angle_gamma 90.000000
_cell_volume 5203.744872
_symmetry_space_group_name_H-M "C M C M"
_symmetry_group_IT_number 63
_symmetry_cell_setting 'orthorhombic'
loop_
_space_group_symop_operation_xyz
x,y,z
-x,-y,1/2+z
x,-y,-z
-x,y,1/2-z
-x,-y,-z
x,y,1/2-z
-x,y,z
x,-y,1/2+z
1/2+x,1/2+y,z
1/2-x,1/2-y,1/2+z
1/2+x,1/2-y,-z
1/2-x,1/2+y,1/2-z
1/2-x,1/2-y,-z
1/2+x,1/2+y,1/2-z
1/2-x,1/2+y,z
1/2+x,1/2-y,1/2+z
loop_
_atom_site_type_symbol
_atom_site_label
_atom_site_fract_x
_atom_site_fract_y
_atom_site_fract_z
Si Si1 0.556345 0.042682 0.140290
Si Si2 0.710921 0.250109 0.364982
Si Si3 0.370311 0.166730 0.483577
Si Si4 0.265123 0.893619 0.485192
Si Si5 0.943234 0.679946 0.641030
O O1 0.566086 0.077105 0.250000
O O2 0.500000 0.071037 0.107298
O O3 0.562625 0.931625 0.133836
O O4 0.595724 0.090767 0.070185
O O5 0.712217 0.237778 0.250000
O O6 0.653575 0.240266 0.405721
O O7 0.744762 0.167721 0.415959
O O8 0.733271 0.351063 0.395571
O O9 0.324843 0.111962 0.538974
O O10 0.403950 0.223262 0.563124
O O11 0.247267 0.000000 0.500000
O O12 0.929592 0.714183 0.750000
O O13 0.000000 0.711134 0.615524
#
# Coordination Sequence:
#
# PCOD8255489 Si02
#       5
#    16  16  16  16  16
#     4   9  16  24  37  59  88 122 154 182 215 260
#     4   9  20  34  45  67  94 115 151 198 231 271
#     4  10  17  28  41  64  85 119 151 187 219 259
#     4   9  19  33  49  68  87 121 156 188 234 276
#     4   9  17  26  37  58  88 122 157 186 212 253
#
# _framework density 15.373543
#
# number of rings (size 3 to 8) (size 9 to 14) (size 15 to 20)
#    1.200    1.600    0.000    4.200    0.000    3.200 
#    0.000    0.000    0.000    0.000    0.000    0.000 
#    0.000    3.200    0.000    4.800    0.000    0.000 
#
# Total GULP energy -495550.254511 kJ/mol
# GULP energy per Si atom -12388.756363 kJ/mol
# Density = 1.533855 g / cm^3
# Si number density = 15.373543 Si / 1000 Ang^3
#
#
#
# Elastic Constant Matrix: (Units=GPa)
#
#
# Indices 1 2 3 4 5 6 
#
# 1 62.5053 18.0462 38.6423 0.0000 0.0000 0.0000
# 2 18.0462 53.3141 21.2604 0.0000 0.0000 0.0000
# 3 38.6423 21.2604 108.3995 0.0000 0.0000 0.0000
# 4 0.0000 0.0000 0.0000 14.8732 0.0000 0.0000
# 5 0.0000 0.0000 0.0000 0.0000 28.3142 0.0000
# 6 0.0000 0.0000 0.0000 0.0000 0.0000 11.6367
#
#
#
# Elastic Compliance Matrix: (Units=1/GPa)
#
#
# Indices 1 2 3 4 5 6 
#
# 1 0.021505 -0.004580 -0.006768 0.000000 0.000000 0.000000
# 2 -0.004580 0.021324 -0.002549 0.000000 0.000000 0.000000
# 3 -0.006768 -0.002549 0.012138 0.000000 0.000000 0.000000
# 4 0.000000 0.000000 0.000000 0.067235 0.000000 0.000000
# 5 0.000000 0.000000 0.000000 0.000000 0.035318 0.000000
# 6 0.000000 0.000000 0.000000 0.000000 0.000000 0.085935
#
#
# Mechanical properties :
#
#
# Convention : Reuss Voigt Hill
#
# Bulk Modulus (GPa) = 36.80334 42.23519 39.51926
# Shear Modulus (GPa) = 17.83758 20.71615 19.27687
#
# Velocity S-wave (km/s) = 3.40998 3.67484 3.54489
# Velocity P-wave (km/s) = 6.28453 6.74820 6.52049
#
# Compressibility (1/GPa) = 0.02717145
#
# Stress axis : x y z
#
# Youngs Moduli (GPa) = 46.50063 46.89585 82.38770
#
# Poissons Ratio (x) = 0.21480 0.55758
# Poissons Ratio (y) = 0.21299 0.21004
# Poissons Ratio (z) = 0.31471 0.11956
#
# Static dielectric constant tensor:
#      x y z
#    x 3.063060 0.000000 0.000000 
#    y 0.000000 2.446410 0.000000 
#    z 0.000000 0.000000 3.170300 
# 
# 
# High freq. dielectric constant tensor:
#      x y z
#    x 1.587590 0.000000 0.000000 
#    y 0.000000 1.525890 0.000000 
#    z 0.000000 0.000000 1.598690 
# 
# From -- ./inp_files/36679.got.cif
#   From: 2010.03.12/outbox.cif.g09.slc.cpg/sg63_19_cif.got.tgz:36679.got - 2010.04.10 19:34:48.
