data_PCOD8255672
_publ_section_title
;
Structure prediction by ZEFSAII (Michael W. Deem and Ramdas Pophale) SiO2 
 PCOD8255672
Probable space group: C M C M
;
_chemical_formula_sum "Si O2"
_cell_formula_units_Z 56
_cell_length_a 17.760507
_cell_length_b 22.576009
_cell_length_c 8.684162
_cell_angle_alpha 90.000000
_cell_angle_beta 90.000000
_cell_angle_gamma 90.000000
_cell_volume 3482.013457
_symmetry_space_group_name_H-M "C M C M"
_symmetry_group_IT_number 63
_symmetry_cell_setting 'orthorhombic'
loop_
_space_group_symop_operation_xyz
x,y,z
-x,-y,1/2+z
x,-y,-z
-x,y,1/2-z
-x,-y,-z
x,y,1/2-z
-x,y,z
x,-y,1/2+z
1/2+x,1/2+y,z
1/2-x,1/2-y,1/2+z
1/2+x,1/2-y,-z
1/2-x,1/2+y,1/2-z
1/2-x,1/2-y,-z
1/2+x,1/2+y,1/2-z
1/2-x,1/2+y,z
1/2+x,1/2-y,1/2+z
loop_
_atom_site_type_symbol
_atom_site_label
_atom_site_fract_x
_atom_site_fract_y
_atom_site_fract_z
Si Si1 0.000000 0.564674 0.068371
Si Si2 0.084639 0.775840 0.571709
Si Si3 0.274102 0.686981 0.567625
Si Si4 0.870987 0.651947 0.432243
O O1 0.074510 0.599267 0.012069
O O2 0.000000 0.560366 0.250000
O O3 0.000000 0.500000 0.000000
O O4 0.104296 0.765745 0.750000
O O5 0.141946 0.824780 0.499435
O O6 0.092751 0.713480 0.485792
O O7 0.000000 0.800055 0.549421
O O8 0.276699 0.687261 0.750000
O O9 0.250000 0.750000 0.500000
O O10 0.211456 0.640341 0.508135
O O11 0.862188 0.653658 0.250000
#
# Coordination Sequence:
#
# PCOD8255672 Si02
#       4
#     8  16  16  16
#     4  10  22  34  48  66  86 116 152 192 229 262
#     4  10  18  27  42  64  88 117 148 179 216 260
#     4  10  18  27  41  61  84 114 146 178 217 261
#     4  10  18  31  45  60  84 114 148 184 224 261
#
# _framework density 16.082649
#
# number of rings (size 3 to 8) (size 9 to 14) (size 15 to 20)
#    0.000    2.000    1.429    7.714    0.000    4.000 
#    0.000    0.000    0.000    0.000    0.000    0.000 
#    0.000    1.143    0.000    3.714    0.000    4.571 
#
# Total GULP energy -347044.897262 kJ/mol
# GULP energy per Si atom -12394.460617 kJ/mol
# Density = 1.604604 g / cm^3
# Si number density = 16.082649 Si / 1000 Ang^3
#
#
#
# Elastic Constant Matrix: (Units=GPa)
#
#
# Indices 1 2 3 4 5 6 
#
# 1 165.5302 50.4532 58.5571 0.0000 0.0000 0.0000
# 2 50.4532 51.8793 18.3333 0.0000 0.0000 0.0000
# 3 58.5571 18.3333 94.8833 0.0000 0.0000 0.0000
# 4 0.0000 0.0000 0.0000 17.3301 0.0000 0.0000
# 5 0.0000 0.0000 0.0000 0.0000 28.9802 0.0000
# 6 0.0000 0.0000 0.0000 0.0000 0.0000 17.0008
#
#
#
# Elastic Compliance Matrix: (Units=1/GPa)
#
#
# Indices 1 2 3 4 5 6 
#
# 1 0.010235 -0.008288 -0.004715 0.000000 0.000000 0.000000
# 2 -0.008288 0.027399 -0.000179 0.000000 0.000000 0.000000
# 3 -0.004715 -0.000179 0.013484 0.000000 0.000000 0.000000
# 4 0.000000 0.000000 0.000000 0.057703 0.000000 0.000000
# 5 0.000000 0.000000 0.000000 0.000000 0.034506 0.000000
# 6 0.000000 0.000000 0.000000 0.000000 0.000000 0.058821
#
#
# Mechanical properties :
#
#
# Convention : Reuss Voigt Hill
#
# Bulk Modulus (GPa) = 40.39842 62.99777 51.69809
# Shear Modulus (GPa) = 21.11809 24.99217 23.05513
#
# Velocity S-wave (km/s) = 3.62760 3.94634 3.79032
# Velocity P-wave (km/s) = 6.53604 7.74733 7.16732
#
# Compressibility (1/GPa) = 0.02475344
#
# Stress axis : x y z
#
# Youngs Moduli (GPa) = 97.70081 36.49811 74.16206
#
# Poissons Ratio (x) = 0.30248 0.34970
# Poissons Ratio (y) = 0.80971 0.01329
# Poissons Ratio (z) = 0.46070 0.00654
#
# Static dielectric constant tensor:
#      x y z
#    x 4.040780 0.000000 0.000000 
#    y 0.000000 2.112050 0.000000 
#    z 0.000000 0.000000 3.158810 
# 
# 
# High freq. dielectric constant tensor:
#      x y z
#    x 1.644520 0.000000 0.000000 
#    y 0.000000 1.535230 0.000000 
#    z 0.000000 0.000000 1.638660 
# 
# From -- ./inp_files/5667.got.cif
#   From: 2010.03.12/outbox.cif.g09.slc.cpg/sg63_3_cif.got.tgz:5667.got - 2010.04.10 19:34:48.
