data_PCOD8255716
_publ_section_title
;
Structure prediction by ZEFSAII (Michael W. Deem and Ramdas Pophale) SiO2 
 PCOD8255716
Probable space group: C M C M
;
_chemical_formula_sum "Si O2"
_cell_formula_units_Z 88
_cell_length_a 34.560267
_cell_length_b 22.635149
_cell_length_c 8.967829
_cell_angle_alpha 90.000000
_cell_angle_beta 90.000000
_cell_angle_gamma 90.000000
_cell_volume 7015.324511
_symmetry_space_group_name_H-M "C M C M"
_symmetry_group_IT_number 63
_symmetry_cell_setting 'orthorhombic'
loop_
_space_group_symop_operation_xyz
x,y,z
-x,-y,1/2+z
x,-y,-z
-x,y,1/2-z
-x,-y,-z
x,y,1/2-z
-x,y,z
x,-y,1/2+z
1/2+x,1/2+y,z
1/2-x,1/2-y,1/2+z
1/2+x,1/2-y,-z
1/2-x,1/2+y,1/2-z
1/2-x,1/2-y,-z
1/2+x,1/2+y,1/2-z
1/2-x,1/2+y,z
1/2+x,1/2-y,1/2+z
loop_
_atom_site_type_symbol
_atom_site_label
_atom_site_fract_x
_atom_site_fract_y
_atom_site_fract_z
Si Si1 0.151271 0.865651 0.575600
Si Si2 0.809012 0.763145 0.081900
Si Si3 0.500000 0.560934 0.920228
Si Si4 0.269731 0.164096 0.918059
Si Si5 0.583982 0.435867 0.074398
Si Si6 0.771506 0.063002 0.424408
O O1 0.143691 0.858848 0.750000
O O2 0.159604 0.801122 0.508433
O O3 0.113471 0.890279 0.496551
O O4 0.186577 0.909677 0.541916
O O5 0.823892 0.752589 0.250000
O O6 0.768622 0.796962 0.083723
O O7 0.803757 0.700110 0.000769
O O8 0.500000 0.543366 0.750000
O O9 0.540993 0.592710 0.957532
O O10 0.500000 0.500000 0.000000
O O11 0.283019 0.149410 0.750000
O O12 0.262105 0.103614 0.006457
O O13 0.592370 0.442529 0.250000
O O14 0.588665 0.500000 0.000000
O O15 0.763762 0.056935 0.250000
O O16 0.769515 0.000000 0.500000
#
# Coordination Sequence:
#
# PCOD8255716 Si02
#       6
#    16  16   8  16  16  16
#     4  10  19  28  38  53  71  90 113 143 178 213
#     4   9  16  26  39  53  68  87 111 138 170 206
#     4   8  16  28  40  52  66  86 112 140 171 210
#     4   9  16  26  39  52  67  87 111 139 170 205
#     4  10  18  28  40  53  69  89 113 142 177 215
#     4  10  19  28  37  50  69  91 115 143 176 212
#
# _framework density 12.543967
#
# number of rings (size 3 to 8) (size 9 to 14) (size 15 to 20)
#    0.000    2.545    0.000    3.273    0.000    8.727 
#    0.000    0.000    0.000    0.000    0.000    0.000 
#    0.000    0.000    0.000    0.000    0.000    0.000 
#
# Total GULP energy -545372.489048 kJ/mol
# GULP energy per Si atom -12394.829297 kJ/mol
# Density = 1.251542 g / cm^3
# Si number density = 12.543967 Si / 1000 Ang^3
#
#
#
# Elastic Constant Matrix: (Units=GPa)
#
#
# Indices 1 2 3 4 5 6 
#
# 1 67.8863 46.3988 46.4047 0.0000 0.0000 0.0000
# 2 46.3988 68.8771 54.6746 0.0000 0.0000 0.0000
# 3 46.4047 54.6746 101.3116 0.0000 0.0000 0.0000
# 4 0.0000 0.0000 0.0000 24.0989 0.0000 0.0000
# 5 0.0000 0.0000 0.0000 0.0000 16.1968 0.0000
# 6 0.0000 0.0000 0.0000 0.0000 0.0000 10.5866
#
#
#
# Elastic Compliance Matrix: (Units=1/GPa)
#
#
# Indices 1 2 3 4 5 6 
#
# 1 0.028533 -0.015477 -0.004717 0.000000 0.000000 0.000000
# 2 -0.015477 0.033794 -0.011149 0.000000 0.000000 0.000000
# 3 -0.004717 -0.011149 0.018048 0.000000 0.000000 0.000000
# 4 0.000000 0.000000 0.000000 0.041496 0.000000 0.000000
# 5 0.000000 0.000000 0.000000 0.000000 0.061741 0.000000
# 6 0.000000 0.000000 0.000000 0.000000 0.000000 0.094459
#
#
# Mechanical properties :
#
#
# Convention : Reuss Voigt Hill
#
# Bulk Modulus (GPa) = 56.52882 59.22568 57.87725
# Shear Modulus (GPa) = 14.42368 16.21623 15.31996
#
# Velocity S-wave (km/s) = 3.39462 3.59939 3.49850
# Velocity P-wave (km/s) = 7.77991 8.03686 7.90943
#
# Compressibility (1/GPa) = 0.01769009
#
# Stress axis : x y z
#
# Youngs Moduli (GPa) = 35.04736 29.59066 55.40882
#
# Poissons Ratio (x) = 0.45797 0.26135
# Poissons Ratio (y) = 0.54242 0.61774
# Poissons Ratio (z) = 0.16531 0.32990
#
# Static dielectric constant tensor:
#      x y z
#    x 6.336200 0.000000 0.000000 
#    y 0.000000 2.427790 0.000000 
#    z 0.000000 0.000000 2.796340 
# 
# 
# High freq. dielectric constant tensor:
#      x y z
#    x 1.439820 0.000000 0.000000 
#    y 0.000000 1.449690 0.000000 
#    z 0.000000 0.000000 1.500990 
# 
# From -- ./inp_files/14612.got.cif
#   From: 2010.03.12/outbox.cif.g09.slc.cpg/sg63_8_cif.got.tgz:14612.got - 2010.04.10 19:34:48.
