data_PCOD8255270
_publ_section_title
;
Structure prediction by ZEFSAII (Michael W. Deem and Ramdas Pophale) SiO2 
 PCOD8255270
Probable space group: P N M A
;
_chemical_formula_sum "Si O2"
_cell_formula_units_Z 24
_cell_length_a 8.326921
_cell_length_b 17.072384
_cell_length_c 6.886453
_cell_angle_alpha 90.000000
_cell_angle_beta 90.000000
_cell_angle_gamma 90.000000
_cell_volume 978.980864
_symmetry_space_group_name_H-M "P N M A"
_symmetry_group_IT_number 62
_symmetry_cell_setting 'orthorhombic'
loop_
_space_group_symop_operation_xyz
x,y,z
1/2-x,-y,1/2+z
1/2+x,1/2-y,1/2-z
-x,1/2+y,-z
-x,-y,-z
1/2+x,y,1/2-z
1/2-x,1/2+y,1/2+z
x,1/2-y,z
loop_
_atom_site_type_symbol
_atom_site_label
_atom_site_fract_x
_atom_site_fract_y
_atom_site_fract_z
Si Si1 0.357768 0.086931 0.985356
Si Si2 0.645169 0.553492 0.575426
Si Si3 0.669629 0.340293 0.814077
O O1 0.306481 0.999954 0.914762
O O2 0.216053 0.146669 0.913419
O O3 0.519867 0.107546 0.873829
O O4 0.614861 0.908536 0.785423
O O5 0.500000 0.500000 0.500000
O O6 0.675596 0.627029 0.432981
O O7 0.636913 0.250000 0.860705
#
# Coordination Sequence:
#
# PCOD8255270 Si02
#       3
#     8   8   8
#     4  12  26  47  78 110 151 204 260 313 387 464
#     4  12  26  47  83 113 146 203 267 321 382 470
#     4  12  28  47  72 113 158 197 252 329 392 457
#
# _framework density 24.515291000000001
#
# number of rings (size 3 to 8) (size 9 to 14) (size 15 to 20)
#    0.000    0.000    3.333    6.000    0.000    2.667 
#    0.000    1.667    0.000    0.000    0.000    0.000 
#    0.000    0.000    0.000    0.000    0.000    0.000 
#
# Total GULP energy -297566.164276 kJ/mol
# GULP energy per Si atom -12398.590178 kJ/mol
# Density = 2.445949 g / cm^3
# Si number density = 24.515291 Si / 1000 Ang^3
#
#
#
# Elastic Constant Matrix: (Units=GPa)
#
#
# Indices 1 2 3 4 5 6 
#
# 1 92.3344 55.8727 73.4050 0.0000 0.0000 0.0000
# 2 55.8727 112.5028 47.1115 0.0000 0.0000 0.0000
# 3 73.4050 47.1115 176.6889 0.0000 0.0000 0.0000
# 4 0.0000 0.0000 0.0000 34.3735 0.0000 0.0000
# 5 0.0000 0.0000 0.0000 0.0000 34.0684 0.0000
# 6 0.0000 0.0000 0.0000 0.0000 0.0000 22.0610
#
#
#
# Elastic Compliance Matrix: (Units=1/GPa)
#
#
# Indices 1 2 3 4 5 6 
#
# 1 0.020553 -0.007465 -0.006548 0.000000 0.000000 0.000000
# 2 -0.007465 0.012717 -0.000289 0.000000 0.000000 0.000000
# 3 -0.006548 -0.000289 0.008457 0.000000 0.000000 0.000000
# 4 0.000000 0.000000 0.000000 0.029092 0.000000 0.000000
# 5 0.000000 0.000000 0.000000 0.000000 0.029353 0.000000
# 6 0.000000 0.000000 0.000000 0.000000 0.000000 0.045329
#
#
# Mechanical properties :
#
#
# Convention : Reuss Voigt Hill
#
# Bulk Modulus (GPa) = 76.20852 81.58940 78.89896
# Shear Modulus (GPa) = 28.01399 31.77638 29.89519
#
# Velocity S-wave (km/s) = 3.38407 3.60416 3.49585
# Velocity P-wave (km/s) = 6.81343 7.11852 6.96765
#
# Compressibility (1/GPa) = 0.01312189
#
# Stress axis : x y z
#
# Youngs Moduli (GPa) = 48.65361 78.63228 118.24047
#
# Poissons Ratio (x) = 0.58702 0.77428
# Poissons Ratio (y) = 0.36322 0.03422
# Poissons Ratio (z) = 0.31860 0.02276
#
# Static dielectric constant tensor:
#      x y z
#    x 4.749710 0.000000 0.000000 
#    y 0.000000 4.315200 0.000000 
#    z 0.000000 0.000000 4.823960 
# 
# 
# High freq. dielectric constant tensor:
#      x y z
#    x 1.999320 0.000000 0.000000 
#    y 0.000000 1.946550 0.000000 
#    z 0.000000 0.000000 1.986460 
# 
# From -- ./inp_files/337.got.cif
#   From: 2010.03.12/outbox.cif.g09.slc.cpg/sg62_1_cif.got.tgz:337.got - 2010.04.10 19:12:36.
