data_PCOD8255513
_publ_section_title
;
Structure prediction by ZEFSAII (Michael W. Deem and Ramdas Pophale) SiO2 
 PCOD8255513
Probable space group: C M C M
;
_chemical_formula_sum "Si O2"
_cell_formula_units_Z 128
_cell_length_a 23.688319
_cell_length_b 19.147793
_cell_length_c 17.724743
_cell_angle_alpha 90.000000
_cell_angle_beta 90.000000
_cell_angle_gamma 90.000000
_cell_volume 8039.571714
_symmetry_space_group_name_H-M "C M C M"
_symmetry_group_IT_number 63
_symmetry_cell_setting 'orthorhombic'
loop_
_space_group_symop_operation_xyz
x,y,z
-x,-y,1/2+z
x,-y,-z
-x,y,1/2-z
-x,-y,-z
x,y,1/2-z
-x,y,z
x,-y,1/2+z
1/2+x,1/2+y,z
1/2-x,1/2-y,1/2+z
1/2+x,1/2-y,-z
1/2-x,1/2+y,1/2-z
1/2-x,1/2-y,-z
1/2+x,1/2+y,1/2-z
1/2-x,1/2+y,z
1/2+x,1/2-y,1/2+z
loop_
_atom_site_type_symbol
_atom_site_label
_atom_site_fract_x
_atom_site_fract_y
_atom_site_fract_z
Si Si1 0.220416 0.364226 0.886876
Si Si2 0.727032 0.771805 0.163278
Si Si3 0.062484 0.200130 0.660423
Si Si4 0.755964 0.014459 0.915609
Si Si5 0.563319 0.079753 0.017588
Si Si6 0.402386 0.852887 0.835504
Si Si7 0.326827 0.131572 0.550676
Si Si8 0.828502 0.875000 0.337476
O O1 0.267072 0.309139 0.859142
O O2 0.243991 0.442092 0.872448
O O3 0.165231 0.353471 0.836001
O O4 0.207875 0.351165 0.974951
O O5 0.708116 0.779188 0.250000
O O6 0.678945 0.806019 0.110781
O O7 0.786055 0.810945 0.147613
O O8 0.066185 0.199381 0.750000
O O9 0.075053 0.278750 0.633851
O O10 0.110310 0.147398 0.628754
O O11 0.000000 0.177299 0.632143
O O12 0.698275 0.060057 0.913908
O O13 0.807619 0.054725 0.877028
O O14 0.776009 0.000000 0.000000
O O15 0.500000 0.101451 0.994329
O O16 0.572780 0.089608 0.107352
O O17 0.607062 0.125008 0.968486
O O18 0.575625 0.000000 0.000000
O O19 0.423167 0.868347 0.750000
O O20 0.833068 0.892336 0.250000
#
# Coordination Sequence:
#
# PCOD8255513 Si02
#       8
#    16  16  16  16  16  16  16  16
#     4  10  17  28  47  71  97 126 152 186 239 298
#     4  10  18  29  46  69  96 121 155 197 237 278
#     4   9  16  27  44  67  94 120 146 182 233 289
#     4   9  18  31  46  65  94 124 158 190 233 279
#     4  10  20  34  49  65  93 129 164 199 233 281
#     4  10  18  29  48  73  99 118 148 197 246 290
#     4   9  18  32  47  66  93 128 159 192 237 289
#     4   9  17  29  44  66  94 122 149 186 231 282
#
# _framework density 15.921246
#
# number of rings (size 3 to 8) (size 9 to 14) (size 15 to 20)
#    0.000    2.500    1.250    3.000    0.000    1.750 
#    0.000    3.125    0.000    1.500    0.000    0.875 
#    0.000    0.000    0.000    0.000    0.000    0.000 
#
# Total GULP energy -793503.215848 kJ/mol
# GULP energy per Si atom -12398.487748 kJ/mol
# Density = 1.588501 g / cm^3
# Si number density = 15.921246 Si / 1000 Ang^3
#
#
#
# Elastic Constant Matrix: (Units=GPa)
#
#
# Indices 1 2 3 4 5 6 
#
# 1 97.7408 44.6823 38.1875 0.0000 0.0000 0.0000
# 2 44.6823 86.7942 35.5999 0.0000 0.0000 0.0000
# 3 38.1875 35.5999 56.2444 0.0000 0.0000 0.0000
# 4 0.0000 0.0000 0.0000 26.2069 0.0000 0.0000
# 5 0.0000 0.0000 0.0000 0.0000 13.3669 0.0000
# 6 0.0000 0.0000 0.0000 0.0000 0.0000 22.8292
#
#
#
# Elastic Compliance Matrix: (Units=1/GPa)
#
#
# Indices 1 2 3 4 5 6 
#
# 1 0.015322 -0.004891 -0.007307 0.000000 0.000000 0.000000
# 2 -0.004891 0.017123 -0.007517 0.000000 0.000000 0.000000
# 3 -0.007307 -0.007517 0.027499 0.000000 0.000000 0.000000
# 4 0.000000 0.000000 0.000000 0.038158 0.000000 0.000000
# 5 0.000000 0.000000 0.000000 0.000000 0.074812 0.000000
# 6 0.000000 0.000000 0.000000 0.000000 0.000000 0.043803
#
#
# Mechanical properties :
#
#
# Convention : Reuss Voigt Hill
#
# Bulk Modulus (GPa) = 48.74957 53.07986 50.91472
# Shear Modulus (GPa) = 19.01253 20.63458 19.82355
#
# Velocity S-wave (km/s) = 3.45941 3.60396 3.53243
# Velocity P-wave (km/s) = 6.82952 7.12246 6.97753
#
# Compressibility (1/GPa) = 0.02051300
#
# Stress axis : x y z
#
# Youngs Moduli (GPa) = 65.26606 58.40262 36.36497
#
# Poissons Ratio (x) = 0.28562 0.26573
# Poissons Ratio (y) = 0.31919 0.27336
# Poissons Ratio (z) = 0.47693 0.43902
#
# Static dielectric constant tensor:
#      x y z
#    x 3.014810 0.000000 0.000000 
#    y 0.000000 3.012330 0.000000 
#    z 0.000000 0.000000 2.956960 
# 
# 
# High freq. dielectric constant tensor:
#      x y z
#    x 1.591960 0.000000 0.000000 
#    y 0.000000 1.603260 0.000000 
#    z 0.000000 0.000000 1.598980 
# 
# From -- ./inp_files/48401.got.cif
#   From: 2010.03.12/outbox.cif.g09.slc.cpg/sg63_25_cif.got.tgz:48401.got - 2010.04.10 19:34:48.
