data_PCOD8255797
_publ_section_title
;
Structure prediction by ZEFSAII (Michael W. Deem and Ramdas Pophale) SiO2 
 PCOD8255797
Probable space group: C M C M
;
_chemical_formula_sum "Si O2"
_cell_formula_units_Z 80
_cell_length_a 18.266094
_cell_length_b 27.702345
_cell_length_c 9.147124
_cell_angle_alpha 90.000000
_cell_angle_beta 90.000000
_cell_angle_gamma 90.000000
_cell_volume 4628.569491
_symmetry_space_group_name_H-M "C M C M"
_symmetry_group_IT_number 63
_symmetry_cell_setting 'orthorhombic'
loop_
_space_group_symop_operation_xyz
x,y,z
-x,-y,1/2+z
x,-y,-z
-x,y,1/2-z
-x,-y,-z
x,y,1/2-z
-x,y,z
x,-y,1/2+z
1/2+x,1/2+y,z
1/2-x,1/2-y,1/2+z
1/2+x,1/2-y,-z
1/2-x,1/2+y,1/2-z
1/2-x,1/2-y,-z
1/2+x,1/2+y,1/2-z
1/2-x,1/2+y,z
1/2+x,1/2-y,1/2+z
loop_
_atom_site_type_symbol
_atom_site_label
_atom_site_fract_x
_atom_site_fract_y
_atom_site_fract_z
Si Si1 0.285761 0.149107 0.578069
Si Si2 0.274816 0.547642 0.918755
Si Si3 0.581058 0.211278 0.577258
Si Si4 0.147212 0.812173 0.923821
Si Si5 0.081672 0.899631 0.418498
O O1 0.271500 0.156921 0.750000
O O2 0.276672 0.092777 0.536414
O O3 0.366642 0.166694 0.531216
O O4 0.227293 0.181371 0.492193
O O5 0.267266 0.535902 0.750000
O O6 0.359031 0.559701 0.961796
O O7 0.247508 0.500000 0.000000
O O8 0.574304 0.213873 0.750000
O O9 0.500000 0.203467 0.508730
O O10 0.615765 0.261177 0.520965
O O11 0.152901 0.815351 0.750000
O O12 0.091811 0.852932 0.980909
O O13 0.094742 0.884271 0.250000
O O14 0.000000 0.920485 0.442800
#
# Coordination Sequence:
#
# PCOD8255797 Si02
#       5
#    16  16  16  16  16
#     4   9  18  33  50  67  91 123 156 187 223 273
#     4   9  18  31  47  66  86 114 153 193 232 272
#     4   9  17  29  47  71  96 121 152 190 226 263
#     4  10  18  28  46  72  99 125 154 186 219 259
#     4   9  18  32  47  65  94 128 157 185 220 267
#
# _framework density 17.283957999999998
#
# number of rings (size 3 to 8) (size 9 to 14) (size 15 to 20)
#    0.000    2.800    0.000    3.000    0.000    4.800 
#    0.000    1.000    0.000    3.600    0.000    0.000 
#    0.000    0.000    0.000    0.000    0.000    0.400 
#
# Total GULP energy -495866.918881 kJ/mol
# GULP energy per Si atom -12396.672972 kJ/mol
# Density = 1.724462 g / cm^3
# Si number density = 17.283958 Si / 1000 Ang^3
#
#
#
# Elastic Constant Matrix: (Units=GPa)
#
#
# Indices 1 2 3 4 5 6 
#
# 1 118.5842 71.5458 29.7918 0.0000 0.0000 0.0000
# 2 71.5458 128.5642 36.0849 0.0000 0.0000 0.0000
# 3 29.7918 36.0849 40.8315 0.0000 0.0000 0.0000
# 4 0.0000 0.0000 0.0000 24.7216 0.0000 0.0000
# 5 0.0000 0.0000 0.0000 0.0000 18.2680 0.0000
# 6 0.0000 0.0000 0.0000 0.0000 0.0000 14.7368
#
#
#
# Elastic Compliance Matrix: (Units=1/GPa)
#
#
# Indices 1 2 3 4 5 6 
#
# 1 0.013210 -0.006179 -0.004178 0.000000 0.000000 0.000000
# 2 -0.006179 0.013234 -0.007187 0.000000 0.000000 0.000000
# 3 -0.004178 -0.007187 0.033891 0.000000 0.000000 0.000000
# 4 0.000000 0.000000 0.000000 0.040450 0.000000 0.000000
# 5 0.000000 0.000000 0.000000 0.000000 0.054741 0.000000
# 6 0.000000 0.000000 0.000000 0.000000 0.000000 0.067858
#
#
# Mechanical properties :
#
#
# Convention : Reuss Voigt Hill
#
# Bulk Modulus (GPa) = 39.60860 62.53610 51.07235
# Shear Modulus (GPa) = 18.73441 21.58243 20.15842
#
# Velocity S-wave (km/s) = 3.29586 3.53752 3.41883
# Velocity P-wave (km/s) = 6.11962 7.27637 6.72292
#
# Compressibility (1/GPa) = 0.02524704
#
# Stress axis : x y z
#
# Youngs Moduli (GPa) = 75.69790 75.56251 29.50617
#
# Poissons Ratio (x) = 0.46689 0.12328
# Poissons Ratio (y) = 0.46773 0.21207
# Poissons Ratio (z) = 0.31627 0.54309
#
# Static dielectric constant tensor:
#      x y z
#    x 3.417990 0.000000 0.000000 
#    y 0.000000 3.132260 0.000000 
#    z 0.000000 0.000000 3.019880 
# 
# 
# High freq. dielectric constant tensor:
#      x y z
#    x 1.660880 0.000000 0.000000 
#    y 0.000000 1.656800 0.000000 
#    z 0.000000 0.000000 1.648490 
# 
# From -- ./inp_files/6344.got.cif
#   From: 2010.03.12/outbox.cif.g09.slc.cpg/sg63_4_cif.got.tgz:6344.got - 2010.04.10 19:34:48.
