data_PCOD8255188
_publ_section_title
;
Structure prediction by ZEFSAII (Michael W. Deem and Ramdas Pophale) SiO2 
 PCOD8255188
Probable space group: P N M A
;
_chemical_formula_sum "Si O2"
_cell_formula_units_Z 48
_cell_length_a 14.632368
_cell_length_b 8.683860
_cell_length_c 18.548082
_cell_angle_alpha 90.000000
_cell_angle_beta 90.000000
_cell_angle_gamma 90.000000
_cell_volume 2356.820111
_symmetry_space_group_name_H-M "P N M A"
_symmetry_group_IT_number 62
_symmetry_cell_setting 'orthorhombic'
loop_
_space_group_symop_operation_xyz
x,y,z
1/2-x,-y,1/2+z
1/2+x,1/2-y,1/2-z
-x,1/2+y,-z
-x,-y,-z
1/2+x,y,1/2-z
1/2-x,1/2+y,1/2+z
x,1/2-y,z
loop_
_atom_site_type_symbol
_atom_site_label
_atom_site_fract_x
_atom_site_fract_y
_atom_site_fract_z
Si Si1 0.446734 0.929717 0.066312
Si Si2 0.903866 0.930930 0.022946
Si Si3 0.260272 0.432553 0.584105
Si Si4 0.030322 0.425634 0.294886
Si Si5 0.726279 0.072710 0.264502
Si Si6 0.102640 0.428144 0.810143
O O1 0.446907 0.750000 0.054793
O O2 0.342696 0.990019 0.068412
O O3 0.496900 0.968234 0.140438
O O4 0.500000 0.000000 0.000000
O O5 0.902140 0.750000 0.006182
O O6 0.822864 0.016220 0.981810
O O7 0.886559 0.967382 0.106356
O O8 0.000000 0.000000 0.000000
O O9 0.265717 0.250000 0.594346
O O10 0.297449 0.514310 0.655729
O O11 0.005735 0.250000 0.313202
O O12 0.981092 0.473562 0.220927
O O13 0.138127 0.447356 0.285631
O O14 0.757859 0.250000 0.267374
O O15 0.805146 0.968470 0.231539
O O16 0.080388 0.250000 0.797400
#
# Coordination Sequence:
#
# PCOD8255188 Si02
#       6
#     8   8   8   8   8   8
#     4  11  25  43  65  94 129 172 217 266 322 382
#     4  11  25  43  66  96 130 171 215 265 323 382
#     4  11  24  43  67  96 131 171 215 265 320 383
#     4  11  24  42  66  96 128 166 213 265 319 381
#     4  11  24  41  66  96 127 167 212 262 320 380
#     4  11  24  42  64  95 129 166 212 262 318 380
#
# _framework density 20.366426000000001
#
# number of rings (size 3 to 8) (size 9 to 14) (size 15 to 20)
#    0.000    1.000    1.667    4.000    2.333   10.000 
#    0.000    0.000    0.000    0.000    0.000    0.000 
#    0.000    0.000    0.000    0.000    0.000    0.000 
#
# Total GULP energy -595555.617028 kJ/mol
# GULP energy per Si atom -12407.408688 kJ/mol
# Density = 2.032007 g / cm^3
# Si number density = 20.366426 Si / 1000 Ang^3
#
#
#
# Elastic Constant Matrix: (Units=GPa)
#
#
# Indices 1 2 3 4 5 6 
#
# 1 82.6069 25.8048 26.9787 0.0000 0.0000 0.0000
# 2 25.8048 44.1007 18.3099 0.0000 0.0000 0.0000
# 3 26.9787 18.3099 100.7479 0.0000 0.0000 0.0000
# 4 0.0000 0.0000 0.0000 39.3953 0.0000 0.0000
# 5 0.0000 0.0000 0.0000 0.0000 36.0381 0.0000
# 6 0.0000 0.0000 0.0000 0.0000 0.0000 33.2121
#
#
#
# Elastic Compliance Matrix: (Units=1/GPa)
#
#
# Indices 1 2 3 4 5 6 
#
# 1 0.015464 -0.007927 -0.002700 0.000000 0.000000 0.000000
# 2 -0.007927 0.028590 -0.003073 0.000000 0.000000 0.000000
# 3 -0.002700 -0.003073 0.011207 0.000000 0.000000 0.000000
# 4 0.000000 0.000000 0.000000 0.025384 0.000000 0.000000
# 5 0.000000 0.000000 0.000000 0.000000 0.027748 0.000000
# 6 0.000000 0.000000 0.000000 0.000000 0.000000 0.030110
#
#
# Mechanical properties :
#
#
# Convention : Reuss Voigt Hill
#
# Bulk Modulus (GPa) = 35.89422 41.07139 38.48280
# Shear Modulus (GPa) = 28.54040 32.15324 30.34682
#
# Velocity S-wave (km/s) = 3.74752 3.97764 3.86429
# Velocity P-wave (km/s) = 6.03222 6.42694 6.23270
#
# Compressibility (1/GPa) = 0.02785964
#
# Stress axis : x y z
#
# Youngs Moduli (GPa) = 64.66749 34.97756 89.22708
#
# Poissons Ratio (x) = 0.27728 0.24094
# Poissons Ratio (y) = 0.51263 0.27420
# Poissons Ratio (z) = 0.17462 0.10749
#
# Static dielectric constant tensor:
#      x y z
#    x 3.846870 0.000000 0.000000 
#    y 0.000000 3.857970 0.000000 
#    z 0.000000 0.000000 3.552210 
# 
# 
# High freq. dielectric constant tensor:
#      x y z
#    x 1.809530 0.000000 0.000000 
#    y 0.000000 1.809990 0.000000 
#    z 0.000000 0.000000 1.807410 
# 
# From -- ./inp_files/23721.got.cif
#   From: 2010.03.12/outbox.cif.g09.slc.cpg/sg62_12_cif.got.tgz:23721.got - 2010.04.10 19:12:36.
