data_PCOD8255175
_publ_section_title
;
Structure prediction by ZEFSAII (Michael W. Deem and Ramdas Pophale) SiO2 
 PCOD8255175
Probable space group: P N M A
;
_chemical_formula_sum "Si O2"
_cell_formula_units_Z 40
_cell_length_a 9.048846
_cell_length_b 22.878169
_cell_length_c 9.329951
_cell_angle_alpha 90.000000
_cell_angle_beta 90.000000
_cell_angle_gamma 90.000000
_cell_volume 1931.496048
_symmetry_space_group_name_H-M "P N M A"
_symmetry_group_IT_number 62
_symmetry_cell_setting 'orthorhombic'
loop_
_space_group_symop_operation_xyz
x,y,z
1/2-x,-y,1/2+z
1/2+x,1/2-y,1/2-z
-x,1/2+y,-z
-x,-y,-z
1/2+x,y,1/2-z
1/2-x,1/2+y,1/2+z
x,1/2-y,z
loop_
_atom_site_type_symbol
_atom_site_label
_atom_site_fract_x
_atom_site_fract_y
_atom_site_fract_z
Si Si1 0.188984 0.157995 0.415587
Si Si2 0.454834 0.750000 0.114570
Si Si3 0.141560 0.480366 0.419040
Si Si4 0.032933 0.163325 0.126114
Si Si5 0.385015 0.968347 0.594907
Si Si6 0.188733 0.250000 0.921508
O O1 0.117308 0.191229 0.549565
O O2 0.182266 0.088015 0.440885
O O3 0.090563 0.181062 0.283122
O O4 0.359325 0.178121 0.392386
O O5 0.406204 0.750000 0.278014
O O6 0.633929 0.750000 0.101895
O O7 0.137682 0.496851 0.251471
O O8 0.242275 0.527179 0.499031
O O9 0.000000 0.500000 0.500000
O O10 0.055537 0.095498 0.114757
O O11 0.136680 0.193337 0.009017
O O12 0.500000 0.000000 0.500000
#
# Coordination Sequence:
#
# PCOD8255175 Si02
#       6
#     8   4   8   8   8   4
#     4  11  24  45  69  98 131 180 224 274 332 408
#     4  12  27  46  69  98 136 168 226 276 345 392
#     4  11  25  40  69  98 138 180 227 277 341 401
#     4  11  24  44  71  95 135 176 227 271 335 403
#     4  11  23  44  65 100 136 178 226 276 335 407
#     4  12  27  46  69 100 132 174 218 286 335 398
#
# _framework density 20.709333999999998
#
# number of rings (size 3 to 8) (size 9 to 14) (size 15 to 20)
#    0.000    0.800    2.000    4.800   11.200    3.200 
#    0.000    0.000    0.000    0.000    0.000    0.000 
#    0.000    0.000    0.000    0.000    0.000    0.000 
#
# Total GULP energy -495629.048240 kJ/mol
# GULP energy per Si atom -12390.726206 kJ/mol
# Density = 2.066220 g / cm^3
# Si number density = 20.709334 Si / 1000 Ang^3
#
#
#
# Elastic Constant Matrix: (Units=GPa)
#
#
# Indices 1 2 3 4 5 6 
#
# 1 167.8130 10.0295 37.4775 0.0000 0.0000 0.0000
# 2 10.0295 33.9667 29.7680 0.0000 0.0000 0.0000
# 3 37.4775 29.7680 150.1104 0.0000 0.0000 0.0000
# 4 0.0000 0.0000 0.0000 24.2466 0.0000 0.0000
# 5 0.0000 0.0000 0.0000 0.0000 46.4787 0.0000
# 6 0.0000 0.0000 0.0000 0.0000 0.0000 38.1838
#
#
#
# Elastic Compliance Matrix: (Units=1/GPa)
#
#
# Indices 1 2 3 4 5 6 
#
# 1 0.006320 -0.000585 -0.001462 0.000000 0.000000 0.000000
# 2 -0.000585 0.035688 -0.006931 0.000000 0.000000 0.000000
# 3 -0.001462 -0.006931 0.008401 0.000000 0.000000 0.000000
# 4 0.000000 0.000000 0.000000 0.041243 0.000000 0.000000
# 5 0.000000 0.000000 0.000000 0.000000 0.021515 0.000000
# 6 0.000000 0.000000 0.000000 0.000000 0.000000 0.026189
#
#
# Mechanical properties :
#
#
# Convention : Reuss Voigt Hill
#
# Bulk Modulus (GPa) = 30.81352 56.27111 43.54231
# Shear Modulus (GPa) = 29.73877 40.08949 34.91413
#
# Velocity S-wave (km/s) = 3.79358 4.40457 4.11044
# Velocity P-wave (km/s) = 5.83949 7.28682 6.60293
#
# Compressibility (1/GPa) = 0.03245329
#
# Stress axis : x y z
#
# Youngs Moduli (GPa) = 158.21579 28.02084 119.02965
#
# Poissons Ratio (x) = 0.01639 0.17402
# Poissons Ratio (y) = 0.09255 0.82501
# Poissons Ratio (z) = 0.23131 0.19422
#
# Static dielectric constant tensor:
#      x y z
#    x 3.946140 0.000000 0.000000 
#    y 0.000000 3.703870 0.000000 
#    z 0.000000 0.000000 3.893430 
# 
# 
# High freq. dielectric constant tensor:
#      x y z
#    x 1.837160 0.000000 0.000000 
#    y 0.000000 1.814570 0.000000 
#    z 0.000000 0.000000 1.824320 
# 
# From -- ./inp_files/4320.got.cif
#   From: 2010.03.12/outbox.cif.g09.slc.cpg/sg62_3_cif.got.tgz:4320.got - 2010.04.10 19:12:36.
