data_PCOD8255155
_publ_section_title
;
Structure prediction by ZEFSAII (Michael W. Deem and Ramdas Pophale) SiO2 
 PCOD8255155
Probable space group: P N M A
;
_chemical_formula_sum "Si O2"
_cell_formula_units_Z 40
_cell_length_a 23.697216
_cell_length_b 12.515320
_cell_length_c 6.803115
_cell_angle_alpha 90.000000
_cell_angle_beta 90.000000
_cell_angle_gamma 90.000000
_cell_volume 2017.655882
_symmetry_space_group_name_H-M "P N M A"
_symmetry_group_IT_number 62
_symmetry_cell_setting 'orthorhombic'
loop_
_space_group_symop_operation_xyz
x,y,z
1/2-x,-y,1/2+z
1/2+x,1/2-y,1/2-z
-x,1/2+y,-z
-x,-y,-z
1/2+x,y,1/2-z
1/2-x,1/2+y,1/2+z
x,1/2-y,z
loop_
_atom_site_type_symbol
_atom_site_label
_atom_site_fract_x
_atom_site_fract_y
_atom_site_fract_z
Si Si1 0.935626 0.126530 0.513185
Si Si2 0.364535 0.871826 0.457368
Si Si3 0.975402 0.538745 0.202280
Si Si4 0.830545 0.486038 0.693157
Si Si5 0.273184 0.625804 0.135049
O O1 0.929454 0.250000 0.457514
O O2 0.874054 0.081620 0.564564
O O3 0.978465 0.112920 0.693503
O O4 0.960631 0.066504 0.325494
O O5 0.361910 0.750000 0.527299
O O6 0.420133 0.889916 0.328109
O O7 0.311127 0.901268 0.323733
O O8 0.365634 0.943342 0.652391
O O9 0.000000 0.500000 0.000000
O O10 0.790630 0.405304 0.812133
O O11 0.793331 0.561399 0.554873
O O12 0.275954 0.750000 0.079661
#
# Coordination Sequence:
#
# PCOD8255155 Si02
#       5
#     8   8   8   8   8
#     4  11  25  42  66  97 131 168 209 261 320 377
#     4  11  23  41  65  90 124 169 209 257 317 374
#     4  11  23  45  64  93 131 165 214 260 308 381
#     4  12  22  44  64  93 130 160 212 265 311 381
#     4  11  24  41  64  92 124 165 209 259 316 372
#
# _framework density 19.824985999999999
#
# number of rings (size 3 to 8) (size 9 to 14) (size 15 to 20)
#    0.000    0.800    6.000    1.800    0.000    1.600 
#    0.000    2.000    0.000    0.000    0.000    0.000 
#    0.000    0.000    0.000    0.000    0.000    0.000 
#
# Total GULP energy -496293.218728 kJ/mol
# GULP energy per Si atom -12407.330468 kJ/mol
# Density = 1.977986 g / cm^3
# Si number density = 19.824986 Si / 1000 Ang^3
#
#
#
# Elastic Constant Matrix: (Units=GPa)
#
#
# Indices 1 2 3 4 5 6 
#
# 1 104.7344 35.2299 26.7930 0.0000 0.0000 0.0000
# 2 35.2299 82.6067 29.9725 0.0000 0.0000 0.0000
# 3 26.7930 29.9725 86.9881 0.0000 0.0000 0.0000
# 4 0.0000 0.0000 0.0000 24.9704 0.0000 0.0000
# 5 0.0000 0.0000 0.0000 0.0000 35.4564 0.0000
# 6 0.0000 0.0000 0.0000 0.0000 0.0000 28.3292
#
#
#
# Elastic Compliance Matrix: (Units=1/GPa)
#
#
# Indices 1 2 3 4 5 6 
#
# 1 0.011477 -0.004128 -0.002113 0.000000 0.000000 0.000000
# 2 -0.004128 0.015320 -0.004007 0.000000 0.000000 0.000000
# 3 -0.002113 -0.004007 0.013527 0.000000 0.000000 0.000000
# 4 0.000000 0.000000 0.000000 0.040047 0.000000 0.000000
# 5 0.000000 0.000000 0.000000 0.000000 0.028204 0.000000
# 6 0.000000 0.000000 0.000000 0.000000 0.000000 0.035299
#
#
# Mechanical properties :
#
#
# Convention : Reuss Voigt Hill
#
# Bulk Modulus (GPa) = 50.43262 50.92444 50.67853
# Shear Modulus (GPa) = 29.24318 29.90678 29.57498
#
# Velocity S-wave (km/s) = 3.84483 3.88821 3.86658
# Velocity P-wave (km/s) = 6.72342 6.77498 6.74925
#
# Compressibility (1/GPa) = 0.01982844
#
# Stress axis : x y z
#
# Youngs Moduli (GPa) = 87.13074 65.27395 73.92498
#
# Poissons Ratio (x) = 0.26946 0.15617
# Poissons Ratio (y) = 0.35969 0.29623
# Poissons Ratio (z) = 0.18407 0.26156
#
# Static dielectric constant tensor:
#      x y z
#    x 3.923120 0.000000 0.000000 
#    y 0.000000 3.534150 0.000000 
#    z 0.000000 0.000000 3.605080 
# 
# 
# High freq. dielectric constant tensor:
#      x y z
#    x 1.788910 0.000000 0.000000 
#    y 0.000000 1.775040 0.000000 
#    z 0.000000 0.000000 1.778670 
# 
# From -- ./inp_files/3033.got.cif
#   From: 2010.03.12/outbox.cif.g09.slc.cpg/sg62_2_cif.got.tgz:3033.got - 2010.04.10 19:12:36.
