data_PCOD8255630
_publ_section_title
;
Structure prediction by ZEFSAII (Michael W. Deem and Ramdas Pophale) SiO2 
 PCOD8255630
Probable space group: C M C M
;
_chemical_formula_sum "Si O2"
_cell_formula_units_Z 96
_cell_length_a 16.209772
_cell_length_b 21.384183
_cell_length_c 17.281342
_cell_angle_alpha 90.000000
_cell_angle_beta 90.000000
_cell_angle_gamma 90.000000
_cell_volume 5990.278770
_symmetry_space_group_name_H-M "C M C M"
_symmetry_group_IT_number 63
_symmetry_cell_setting 'orthorhombic'
loop_
_space_group_symop_operation_xyz
x,y,z
-x,-y,1/2+z
x,-y,-z
-x,y,1/2-z
-x,-y,-z
x,y,1/2-z
-x,y,z
x,-y,1/2+z
1/2+x,1/2+y,z
1/2-x,1/2-y,1/2+z
1/2+x,1/2-y,-z
1/2-x,1/2+y,1/2-z
1/2-x,1/2-y,-z
1/2+x,1/2+y,1/2-z
1/2-x,1/2+y,z
1/2+x,1/2-y,1/2+z
loop_
_atom_site_type_symbol
_atom_site_label
_atom_site_fract_x
_atom_site_fract_y
_atom_site_fract_z
Si Si1 0.096362 0.625342 0.337574
Si Si2 0.826401 0.992750 0.164901
Si Si3 0.404555 0.270007 0.338906
Si Si4 0.832049 0.877145 0.431246
Si Si5 0.219285 0.562014 0.048058
Si Si6 0.500000 0.547646 0.332636
Si Si7 0.000000 0.074873 0.003964
O O1 0.123280 0.605928 0.250000
O O2 0.117373 0.697778 0.350725
O O3 0.140963 0.585803 0.404105
O O4 0.000000 0.612750 0.347843
O O5 0.788357 0.002479 0.250000
O O6 0.790409 0.044798 0.108246
O O7 0.924094 0.000245 0.164092
O O8 0.805633 0.922909 0.138062
O O9 0.389154 0.289860 0.250000
O O10 0.500000 0.282983 0.360596
O O11 0.343244 0.308009 0.395867
O O12 0.758192 0.882816 0.494410
O O13 0.918639 0.898212 0.466149
O O14 0.193376 0.500000 0.000000
O O15 0.500000 0.585054 0.250000
O O16 0.500000 0.595141 0.404955
O O17 0.000000 0.000000 0.000000
#
# Coordination Sequence:
#
# PCOD8255630 Si02
#       7
#    16  16  16  16  16   8   8
#     4   9  19  37  55  68  88 117 153 198 241 283
#     4  10  18  27  40  63  95 128 159 183 218 273
#     4   9  18  31  48  70  93 125 164 192 223 271
#     4  11  18  27  44  67  99 128 153 191 229 267
#     4  10  20  31  47  71  94 121 150 189 240 283
#     4  10  18  26  38  58  90 134 168 182 206 259
#     4  12  16  28  38  60 100 134 157 184 218 267
#
# _framework density 16.025963999999998
#
# number of rings (size 3 to 8) (size 9 to 14) (size 15 to 20)
#    0.000    2.000    4.167    2.500    0.000    1.000 
#    0.000    0.000    0.000    0.000    0.000    0.000 
#    0.000    0.000    0.000    0.000    0.000    0.000 
#
# Total GULP energy -594875.775591 kJ/mol
# GULP energy per Si atom -12393.245325 kJ/mol
# Density = 1.598949 g / cm^3
# Si number density = 16.025964 Si / 1000 Ang^3
#
#
#
# Elastic Constant Matrix: (Units=GPa)
#
#
# Indices 1 2 3 4 5 6 
#
# 1 62.0878 36.1620 42.2551 0.0000 0.0000 0.0000
# 2 36.1620 61.7519 48.1530 0.0000 0.0000 0.0000
# 3 42.2551 48.1530 121.8654 0.0000 0.0000 0.0000
# 4 0.0000 0.0000 0.0000 24.2148 0.0000 0.0000
# 5 0.0000 0.0000 0.0000 0.0000 28.0195 0.0000
# 6 0.0000 0.0000 0.0000 0.0000 0.0000 19.8855
#
#
#
# Elastic Compliance Matrix: (Units=1/GPa)
#
#
# Indices 1 2 3 4 5 6 
#
# 1 0.025928 -0.011813 -0.004323 0.000000 0.000000 0.000000
# 2 -0.011813 0.028787 -0.007279 0.000000 0.000000 0.000000
# 3 -0.004323 -0.007279 0.012581 0.000000 0.000000 0.000000
# 4 0.000000 0.000000 0.000000 0.041297 0.000000 0.000000
# 5 0.000000 0.000000 0.000000 0.000000 0.035689 0.000000
# 6 0.000000 0.000000 0.000000 0.000000 0.000000 0.050288
#
#
# Mechanical properties :
#
#
# Convention : Reuss Voigt Hill
#
# Bulk Modulus (GPa) = 48.85777 55.42728 52.14252
# Shear Modulus (GPa) = 20.14323 22.36629 21.25476
#
# Velocity S-wave (km/s) = 3.54914 3.73986 3.64575
# Velocity P-wave (km/s) = 6.88099 7.30135 7.09429
#
# Compressibility (1/GPa) = 0.02046757
#
# Stress axis : x y z
#
# Youngs Moduli (GPa) = 38.56787 34.73734 79.48678
#
# Poissons Ratio (x) = 0.41035 0.34359
# Poissons Ratio (y) = 0.45560 0.57858
# Poissons Ratio (z) = 0.16671 0.25285
#
# Static dielectric constant tensor:
#      x y z
#    x 2.818630 0.000000 0.000000 
#    y 0.000000 2.795260 0.000000 
#    z 0.000000 0.000000 3.478570 
# 
# 
# High freq. dielectric constant tensor:
#      x y z
#    x 1.593010 0.000000 0.000000 
#    y 0.000000 1.585190 0.000000 
#    z 0.000000 0.000000 1.634950 
# 
# From -- ./inp_files/46020.got.cif
#   From: 2010.03.12/outbox.cif.g09.slc.cpg/sg63_24_cif.got.tgz:46020.got - 2010.04.10 19:34:48.
