data_PCOD8255070
_publ_section_title
;
Structure prediction by ZEFSAII (Michael W. Deem and Ramdas Pophale) SiO2 
 PCOD8255070
Probable space group: P N M A
;
_chemical_formula_sum "Si O2"
_cell_formula_units_Z 64
_cell_length_a 28.601501
_cell_length_b 8.882273
_cell_length_c 14.212948
_cell_angle_alpha 90.000000
_cell_angle_beta 90.000000
_cell_angle_gamma 90.000000
_cell_volume 3610.747421
_symmetry_space_group_name_H-M "P N M A"
_symmetry_group_IT_number 62
_symmetry_cell_setting 'orthorhombic'
loop_
_space_group_symop_operation_xyz
x,y,z
1/2-x,-y,1/2+z
1/2+x,1/2-y,1/2-z
-x,1/2+y,-z
-x,-y,-z
1/2+x,y,1/2-z
1/2-x,1/2+y,1/2+z
x,1/2-y,z
loop_
_atom_site_type_symbol
_atom_site_label
_atom_site_fract_x
_atom_site_fract_y
_atom_site_fract_z
Si Si1 0.500000 0.424172 0.899565
Si Si2 0.751024 0.571918 0.399028
Si Si3 0.570923 0.428684 0.741351
Si Si4 0.823792 0.571645 0.248225
Si Si5 0.570923 0.571317 0.258650
Si Si6 1.000000 0.429393 0.102493
Si Si7 0.751023 0.428085 0.600975
Si Si8 0.823792 0.071647 0.751768
O O1 0.500002 0.250000 0.920972
O O2 0.545821 0.469931 0.839692
O O3 0.454178 0.469924 0.839693
O O4 0.500000 0.500000 0.000000
O O5 0.751899 0.750000 0.409127
O O6 0.796246 0.514468 0.340708
O O7 0.752036 0.499971 0.499993
O O8 0.704009 0.519099 0.344978
O O9 0.568021 0.250000 0.722250
O O10 0.623668 0.491788 0.747112
O O11 0.546256 0.514020 0.655797
O O12 0.825283 0.750000 0.251171
O O13 0.795991 0.519071 0.155019
O O14 0.568021 0.750000 0.277754
O O15 0.546255 0.485978 0.344202
O O16 0.623668 0.508211 0.252889
O O17 0.999999 0.250000 0.096422
O O18 0.000000 0.500000 0.000000
O O19 0.751897 0.250000 0.590917
O O20 0.796246 0.485554 0.659289
O O21 0.825285 0.250000 0.748802
#
# Coordination Sequence:
#
# PCOD8255070 Si02
#       8
#     8   8   8   8   8   8   8   8
#     4   9  18  30  47  69  95 125 159 199 246 292
#     4   9  17  31  50  73  99 130 163 199 241 288
#     4   9  18  35  54  72  96 131 170 207 244 289
#     4   8  16  32  52  70  96 132 166 197 240 292
#     4   9  18  35  54  72  96 131 170 207 244 289
#     4  11  22  36  53  75 101 129 161 203 250 298
#     4   9  17  31  50  73  99 130 163 199 241 288
#     4   8  16  32  52  70  96 132 166 197 240 292
#
# _framework density 17.724861000000001
#
# number of rings (size 3 to 8) (size 9 to 14) (size 15 to 20)
#    0.000    3.000    0.000    3.375    0.000    4.000 
#    0.000    7.500    0.000    0.000    0.000    0.000 
#    0.000    0.000    0.000    0.000    0.000    0.000 
#
# Total GULP energy -793339.626794 kJ/mol
# GULP energy per Si atom -12395.931669 kJ/mol
# Density = 1.768452 g / cm^3
# Si number density = 17.724861 Si / 1000 Ang^3
#
#
#
# Elastic Constant Matrix: (Units=GPa)
#
#
# Indices 1 2 3 4 5 6 
#
# 1 193.7087 38.8499 96.7220 0.0000 0.0000 0.0000
# 2 38.8499 49.7176 51.5701 0.0000 0.0000 0.0000
# 3 96.7220 51.5701 189.3102 0.0000 0.0000 0.0000
# 4 0.0000 0.0000 0.0000 36.7816 0.0000 0.0000
# 5 0.0000 0.0000 0.0000 0.0000 12.9679 0.0000
# 6 0.0000 0.0000 0.0000 0.0000 0.0000 18.5664
#
#
#
# Elastic Compliance Matrix: (Units=1/GPa)
#
#
# Indices 1 2 3 4 5 6 
#
# 1 0.007147 -0.002505 -0.002969 0.000000 0.000000 0.000000
# 2 -0.002505 0.028913 -0.006596 0.000000 0.000000 0.000000
# 3 -0.002969 -0.006596 0.008596 0.000000 0.000000 0.000000
# 4 0.000000 0.000000 0.000000 0.027187 0.000000 0.000000
# 5 0.000000 0.000000 0.000000 0.000000 0.077114 0.000000
# 6 0.000000 0.000000 0.000000 0.000000 0.000000 0.053861
#
#
# Mechanical properties :
#
#
# Convention : Reuss Voigt Hill
#
# Bulk Modulus (GPa) = 48.74382 89.66895 69.20638
# Shear Modulus (GPa) = 21.38588 30.03614 25.71101
#
# Velocity S-wave (km/s) = 3.47731 4.12099 3.81276
# Velocity P-wave (km/s) = 6.60925 8.56403 7.64934
#
# Compressibility (1/GPa) = 0.02051542
#
# Stress axis : x y z
#
# Youngs Moduli (GPa) = 139.90987 34.58616 116.32837
#
# Poissons Ratio (x) = 0.08664 0.34542
# Poissons Ratio (y) = 0.35049 0.76735
# Poissons Ratio (z) = 0.41544 0.22814
#
# Static dielectric constant tensor:
#      x y z
#    x 3.944660 0.000000 0.000000 
#    y 0.000000 2.985130 0.000000 
#    z 0.000000 0.000000 3.751800 
# 
# 
# High freq. dielectric constant tensor:
#      x y z
#    x 1.694500 0.000000 0.000000 
#    y 0.000000 1.655700 0.000000 
#    z 0.000000 0.000000 1.690210 
# 
# From -- ./inp_files/21262.got.cif
#   From: 2010.03.12/outbox.cif.g09.slc.cpg/sg62_11_cif.got.tgz:21262.got - 2010.04.10 19:12:36.
