data_PCOD8255520
_publ_section_title
;
Structure prediction by ZEFSAII (Michael W. Deem and Ramdas Pophale) SiO2 
 PCOD8255520
Probable space group: C M C M
;
_chemical_formula_sum "Si O2"
_cell_formula_units_Z 112
_cell_length_a 12.906895
_cell_length_b 23.700461
_cell_length_c 21.630801
_cell_angle_alpha 90.000000
_cell_angle_beta 90.000000
_cell_angle_gamma 90.000000
_cell_volume 6616.848216
_symmetry_space_group_name_H-M "C M C M"
_symmetry_group_IT_number 63
_symmetry_cell_setting 'orthorhombic'
loop_
_space_group_symop_operation_xyz
x,y,z
-x,-y,1/2+z
x,-y,-z
-x,y,1/2-z
-x,-y,-z
x,y,1/2-z
-x,y,z
x,-y,1/2+z
1/2+x,1/2+y,z
1/2-x,1/2-y,1/2+z
1/2+x,1/2-y,-z
1/2-x,1/2+y,1/2-z
1/2-x,1/2-y,-z
1/2+x,1/2+y,1/2-z
1/2-x,1/2+y,z
1/2+x,1/2-y,1/2+z
loop_
_atom_site_type_symbol
_atom_site_label
_atom_site_fract_x
_atom_site_fract_y
_atom_site_fract_z
Si Si1 0.376599 0.495906 0.180572
Si Si2 0.114084 0.773356 0.179374
Si Si3 0.619434 0.385156 0.383529
Si Si4 0.879174 0.112435 0.377832
Si Si5 0.116574 0.276100 0.053189
Si Si6 0.822655 0.776545 0.679966
Si Si7 0.696696 0.661827 0.001996
O O1 0.332695 0.493940 0.250000
O O2 0.500000 0.495542 0.180980
O O3 0.329437 0.442225 0.143655
O O4 0.338891 0.553085 0.147940
O O5 0.100839 0.790145 0.250000
O O6 0.164472 0.828016 0.146429
O O7 0.197163 0.723199 0.170146
O O8 0.000000 0.756292 0.152305
O O9 0.500000 0.387847 0.365864
O O10 0.636249 0.380590 0.456607
O O11 0.865785 0.160099 0.325293
O O12 0.801539 0.128456 0.433541
O O13 0.000000 0.110508 0.398773
O O14 0.129437 0.263270 0.126549
O O15 0.190341 0.325577 0.027064
O O16 0.000000 0.296967 0.042133
O O17 0.135535 0.220255 0.012097
O O18 0.849391 0.754811 0.750000
#
# Coordination Sequence:
#
# PCOD8255520 Si02
#       7
#    16  16  16  16  16  16  16
#     4   9  18  31  48  71  98 129 161 194 241 293
#     4   9  17  28  43  68 101 128 154 194 238 283
#     4  10  17  28  48  71  97 128 156 189 233 286
#     4  10  20  33  47  68  99 131 164 201 239 286
#     4  10  20  33  47  68  99 130 162 200 242 291
#     4  10  18  30  48  70  96 127 164 200 242 290
#     4  10  19  32  46  69  98 128 161 195 239 289
#
# _framework density 16.926487999999999
#
# number of rings (size 3 to 8) (size 9 to 14) (size 15 to 20)
#    0.000    2.286    1.429    3.429    0.000    4.000 
#    0.000    2.143    0.000    0.000    0.000    3.000 
#    0.000    2.286    0.000    0.000    0.000    0.000 
#
# Total GULP energy -693993.154686 kJ/mol
# GULP energy per Si atom -12392.734905 kJ/mol
# Density = 1.688796 g / cm^3
# Si number density = 16.926488 Si / 1000 Ang^3
#
#
#
# Elastic Constant Matrix: (Units=GPa)
#
#
# Indices 1 2 3 4 5 6 
#
# 1 61.7737 19.5321 26.8803 0.0000 0.0000 0.0000
# 2 19.5321 75.5396 39.6065 0.0000 0.0000 0.0000
# 3 26.8803 39.6065 100.1186 0.0000 0.0000 0.0000
# 4 0.0000 0.0000 0.0000 25.8871 0.0000 0.0000
# 5 0.0000 0.0000 0.0000 0.0000 21.0060 0.0000
# 6 0.0000 0.0000 0.0000 0.0000 0.0000 17.2877
#
#
#
# Elastic Compliance Matrix: (Units=1/GPa)
#
#
# Indices 1 2 3 4 5 6 
#
# 1 0.018785 -0.002792 -0.003939 0.000000 0.000000 0.000000
# 2 -0.002792 0.017117 -0.006022 0.000000 0.000000 0.000000
# 3 -0.003939 -0.006022 0.013428 0.000000 0.000000 0.000000
# 4 0.000000 0.000000 0.000000 0.038629 0.000000 0.000000
# 5 0.000000 0.000000 0.000000 0.000000 0.047605 0.000000
# 6 0.000000 0.000000 0.000000 0.000000 0.000000 0.057845
#
#
# Mechanical properties :
#
#
# Convention : Reuss Voigt Hill
#
# Bulk Modulus (GPa) = 41.97356 45.49664 43.73510
# Shear Modulus (GPa) = 22.04033 22.93036 22.48534
#
# Velocity S-wave (km/s) = 3.61241 3.68462 3.64869
# Velocity P-wave (km/s) = 6.50005 6.71113 6.60643
#
# Compressibility (1/GPa) = 0.02382452
#
# Stress axis : x y z
#
# Youngs Moduli (GPa) = 53.23421 58.42009 74.47138
#
# Poissons Ratio (x) = 0.16310 0.29334
# Poissons Ratio (y) = 0.14863 0.44847
# Poissons Ratio (z) = 0.20969 0.35180
#
# Static dielectric constant tensor:
#      x y z
#    x 3.043250 0.000000 0.000000 
#    y 0.000000 3.159220 0.000000 
#    z 0.000000 0.000000 3.332800 
# 
# 
# High freq. dielectric constant tensor:
#      x y z
#    x 1.617880 0.000000 0.000000 
#    y 0.000000 1.626060 0.000000 
#    z 0.000000 0.000000 1.669700 
# 
# From -- ./inp_files/53339.got.cif
#   From: 2010.03.12/outbox.cif.g09.slc.cpg/sg63_27_cif.got.tgz:53339.got - 2010.04.10 19:34:48.
