data_PCOD8255866
_publ_section_title
;
Structure prediction by ZEFSAII (Michael W. Deem and Ramdas Pophale) SiO2 
 PCOD8255866
Probable space group: C M C M
;
_chemical_formula_sum "Si O2"
_cell_formula_units_Z 104
_cell_length_a 25.275217
_cell_length_b 9.300323
_cell_length_c 26.385485
_cell_angle_alpha 90.000000
_cell_angle_beta 90.000000
_cell_angle_gamma 90.000000
_cell_volume 6202.374797
_symmetry_space_group_name_H-M "C M C M"
_symmetry_group_IT_number 63
_symmetry_cell_setting 'orthorhombic'
loop_
_space_group_symop_operation_xyz
x,y,z
-x,-y,1/2+z
x,-y,-z
-x,y,1/2-z
-x,-y,-z
x,y,1/2-z
-x,y,z
x,-y,1/2+z
1/2+x,1/2+y,z
1/2-x,1/2-y,1/2+z
1/2+x,1/2-y,-z
1/2-x,1/2+y,1/2-z
1/2-x,1/2-y,-z
1/2+x,1/2+y,1/2-z
1/2-x,1/2+y,z
1/2+x,1/2-y,1/2+z
loop_
_atom_site_type_symbol
_atom_site_label
_atom_site_fract_x
_atom_site_fract_y
_atom_site_fract_z
Si Si1 0.000000 0.291133 0.055786
Si Si2 0.605245 0.802026 0.895556
Si Si3 0.000000 0.797472 0.446687
Si Si4 0.199304 0.810545 0.555895
Si Si5 0.797461 0.132146 0.562179
Si Si6 0.612446 0.077664 0.947601
Si Si7 0.500000 0.544624 0.371185
Si Si8 0.559054 0.650717 0.806381
O O1 0.050527 0.391905 0.052273
O O2 0.000000 0.208438 0.110198
O O3 0.000000 0.185387 0.007304
O O4 0.552005 0.787107 0.928483
O O5 0.649067 0.698461 0.917717
O O6 0.596212 0.762001 0.836531
O O7 0.624335 0.966836 0.901542
O O8 0.000000 0.955170 0.423122
O O9 0.207351 0.848657 0.497585
O O10 0.245086 0.714229 0.582212
O O11 0.144177 0.725000 0.562247
O O12 0.200352 0.967367 0.582183
O O13 0.630487 0.000000 0.000000
O O14 0.447679 0.501049 0.337644
O O15 0.582203 0.623568 0.750000
O O16 0.500000 0.719582 0.803353
#
# Coordination Sequence:
#
# PCOD8255866 Si02
#       8
#     8  16   8  16  16  16   8  16
#     4  12  21  29  45  71 117 150 169 201 258 319
#     4  11  19  33  52  76 104 142 185 213 263 320
#     4  10  18  29  45  69 110 142 173 203 249 307
#     4  10  21  33  49  70 106 144 180 222 252 305
#     4  10  20  33  51  72 101 140 187 220 260 304
#     4  12  22  32  46  72 115 153 179 208 254 311
#     4   8  18  29  47  71 101 132 178 213 252 308
#     4   8  17  34  56  74  99 133 178 229 272 316
#
# _framework density 16.767772000000001
#
# number of rings (size 3 to 8) (size 9 to 14) (size 15 to 20)
#    0.462    1.385    3.846    1.846    6.462    0.000 
#    0.000    0.000    0.000    1.846    0.000    4.308 
#    0.000    0.000    0.000    0.000    0.000    0.000 
#
# Total GULP energy -644259.141679 kJ/mol
# GULP energy per Si atom -12389.598878 kJ/mol
# Density = 1.672961 g / cm^3
# Si number density = 16.767772 Si / 1000 Ang^3
#
#
#
# Elastic Constant Matrix: (Units=GPa)
#
#
# Indices 1 2 3 4 5 6 
#
# 1 93.9885 48.2313 8.5519 0.0000 0.0000 0.0000
# 2 48.2313 116.9172 31.2848 0.0000 0.0000 0.0000
# 3 8.5519 31.2848 80.6962 0.0000 0.0000 0.0000
# 4 0.0000 0.0000 0.0000 12.4402 0.0000 0.0000
# 5 0.0000 0.0000 0.0000 0.0000 914.1980 0.0000
# 6 0.0000 0.0000 0.0000 0.0000 0.0000 65.4749
#
#
#
# Elastic Compliance Matrix: (Units=1/GPa)
#
#
# Indices 1 2 3 4 5 6 
#
# 1 0.013545 -0.005806 0.000815 0.000000 0.000000 0.000000
# 2 -0.005806 0.012032 -0.004049 0.000000 0.000000 0.000000
# 3 0.000815 -0.004049 0.013876 0.000000 0.000000 0.000000
# 4 0.000000 0.000000 0.000000 0.080385 0.000000 0.000000
# 5 0.000000 0.000000 0.000000 0.000000 0.001094 0.000000
# 6 0.000000 0.000000 0.000000 0.000000 0.000000 0.015273
#
#
# Mechanical properties :
#
#
# Convention : Reuss Voigt Hill
#
# Bulk Modulus (GPa) = 46.78856 51.97086 49.37971
# Shear Modulus (GPa) = 30.97770 211.99156 121.48463
#
# Velocity S-wave (km/s) = 4.30287 11.25622 8.52107
# Velocity P-wave (km/s) = 7.25608 14.14208 11.23942
#
# Compressibility (1/GPa) = 0.02137274
#
# Stress axis : x y z
#
# Youngs Moduli (GPa) = 73.82984 83.11490 72.06914
#
# Poissons Ratio (x) = 0.48254 -0.05876
# Poissons Ratio (y) = 0.42863 0.29182
# Poissons Ratio (z) = -0.06020 0.33655
#
# Static dielectric constant tensor:
#      x y z
#    x 3.101670 0.000000 0.000000 
#    y 0.000000 3.247020 0.000000 
#    z 0.000000 0.000000 2.907320 
# 
# 
# High freq. dielectric constant tensor:
#      x y z
#    x 1.641010 0.000000 0.000000 
#    y 0.000000 1.646240 0.000000 
#    z 0.000000 0.000000 1.593160 
# 
# From -- ./inp_files/74426.got.cif
#   From: 2010.03.12/outbox.cif.g09.slc.cpg/sg63_38_cif.got.tgz:74426.got - 2010.04.10 19:34:48.
