data_PCOD8255467
_publ_section_title
;
Structure prediction by ZEFSAII (Michael W. Deem and Ramdas Pophale) SiO2 
 PCOD8255467
Probable space group: C M C M
;
_chemical_formula_sum "Si O2"
_cell_formula_units_Z 96
_cell_length_a 9.194148
_cell_length_b 22.277325
_cell_length_c 26.669151
_cell_angle_alpha 90.000000
_cell_angle_beta 90.000000
_cell_angle_gamma 90.000000
_cell_volume 5462.402793
_symmetry_space_group_name_H-M "C M C M"
_symmetry_group_IT_number 63
_symmetry_cell_setting 'orthorhombic'
loop_
_space_group_symop_operation_xyz
x,y,z
-x,-y,1/2+z
x,-y,-z
-x,y,1/2-z
-x,-y,-z
x,y,1/2-z
-x,y,z
x,-y,1/2+z
1/2+x,1/2+y,z
1/2-x,1/2-y,1/2+z
1/2+x,1/2-y,-z
1/2-x,1/2+y,1/2-z
1/2-x,1/2-y,-z
1/2+x,1/2+y,1/2-z
1/2-x,1/2+y,z
1/2+x,1/2-y,1/2+z
loop_
_atom_site_type_symbol
_atom_site_label
_atom_site_fract_x
_atom_site_fract_y
_atom_site_fract_z
Si Si1 0.664323 0.195135 0.750000
Si Si2 0.835607 0.552305 0.750000
Si Si3 0.838914 0.342276 0.995198
Si Si4 0.831139 0.949655 0.040873
Si Si5 0.166813 0.942143 0.152309
Si Si6 0.161145 0.234915 0.429850
Si Si7 0.830866 0.802253 0.153808
O O1 0.500000 0.218628 0.750000
O O2 0.671864 0.123566 0.750000
O O3 0.746665 0.221326 0.797686
O O4 0.759345 0.529509 0.801640
O O5 0.000000 0.528014 0.750000
O O6 0.732527 0.327928 0.948367
O O7 0.000000 0.363572 0.977406
O O8 0.768136 0.392606 0.030084
O O9 0.857992 0.280825 0.024952
O O10 0.797679 0.972595 0.098014
O O11 0.000000 0.930368 0.037498
O O12 0.792867 0.000000 0.000000
O O13 0.201780 0.872073 0.144436
O O14 0.000000 0.951934 0.167586
O O15 0.272263 0.263046 0.391107
O O16 0.000000 0.221536 0.407196
O O17 0.000000 0.789847 0.160934
#
# Coordination Sequence:
#
# PCOD8255467 Si02
#       7
#     8   8  16  16  16  16  16
#     4   9  17  27  39  61  94 125 156 191 235 288
#     4   9  17  27  43  65  90 121 156 197 239 284
#     4  10  20  32  47  68  94 124 160 198 236 281
#     4  10  20  34  51  71  98 132 166 201 244 295
#     4   9  17  29  45  66  94 126 158 194 237 288
#     4  10  19  30  47  68  93 125 159 195 236 282
#     4  10  17  27  44  66  93 125 159 195 238 284
#
# _framework density 17.574684000000001
#
# number of rings (size 3 to 8) (size 9 to 14) (size 15 to 20)
#    0.000    2.333    1.667    2.000    0.000    5.000 
#    0.000    0.000    0.000    0.000    0.000    1.167 
#    0.000    2.667    0.000    0.000    0.000    0.000 
#
# Total GULP energy -594952.331237 kJ/mol
# GULP energy per Si atom -12394.840234 kJ/mol
# Density = 1.753468 g / cm^3
# Si number density = 17.574684 Si / 1000 Ang^3
#
#
#
# Elastic Constant Matrix: (Units=GPa)
#
#
# Indices 1 2 3 4 5 6 
#
# 1 118.3657 22.7038 56.1281 0.0000 0.0000 0.0000
# 2 22.7038 20.8640 20.2887 0.0000 0.0000 0.0000
# 3 56.1281 20.2887 120.8032 0.0000 0.0000 0.0000
# 4 0.0000 0.0000 0.0000 18.7378 0.0000 0.0000
# 5 0.0000 0.0000 0.0000 0.0000 32.6097 0.0000
# 6 0.0000 0.0000 0.0000 0.0000 0.0000 9.4157
#
#
#
# Elastic Compliance Matrix: (Units=1/GPa)
#
#
# Indices 1 2 3 4 5 6 
#
# 1 0.012167 -0.009254 -0.004099 0.000000 0.000000 0.000000
# 2 -0.009254 0.064324 -0.006503 0.000000 0.000000 0.000000
# 3 -0.004099 -0.006503 0.011275 0.000000 0.000000 0.000000
# 4 0.000000 0.000000 0.000000 0.053368 0.000000 0.000000
# 5 0.000000 0.000000 0.000000 0.000000 0.030666 0.000000
# 6 0.000000 0.000000 0.000000 0.000000 0.000000 0.106206
#
#
# Mechanical properties :
#
#
# Convention : Reuss Voigt Hill
#
# Bulk Modulus (GPa) = 20.81050 50.91933 35.86492
# Shear Modulus (GPa) = 14.98191 22.88012 18.93102
#
# Velocity S-wave (km/s) = 2.92288 3.61207 3.28560
# Velocity P-wave (km/s) = 4.82264 6.81411 5.90296
#
# Compressibility (1/GPa) = 0.04805266
#
# Stress axis : x y z
#
# Youngs Moduli (GPa) = 82.18892 15.54634 88.69477
#
# Poissons Ratio (x) = 0.14387 0.36355
# Poissons Ratio (y) = 0.76058 0.57682
# Poissons Ratio (z) = 0.33688 0.10110
#
# Static dielectric constant tensor:
#      x y z
#    x 3.549810 0.000000 0.000000 
#    y 0.000000 2.703700 0.000000 
#    z 0.000000 0.000000 3.549760 
# 
# 
# High freq. dielectric constant tensor:
#      x y z
#    x 1.696910 0.000000 0.000000 
#    y 0.000000 1.609790 0.000000 
#    z 0.000000 0.000000 1.682470 
# 
# From -- ./inp_files/60077.got.cif
#   From: 2010.03.12/outbox.cif.g09.slc.cpg/sg63_31_cif.got.tgz:60077.got - 2010.04.10 19:34:48.
