data_PCOD8255727
_publ_section_title
;
Structure prediction by ZEFSAII (Michael W. Deem and Ramdas Pophale) SiO2 
 PCOD8255727
Probable space group: C M C M
;
_chemical_formula_sum "Si O2"
_cell_formula_units_Z 64
_cell_length_a 18.356902
_cell_length_b 26.642913
_cell_length_c 8.654311
_cell_angle_alpha 90.000000
_cell_angle_beta 90.000000
_cell_angle_gamma 90.000000
_cell_volume 4232.662046
_symmetry_space_group_name_H-M "C M C M"
_symmetry_group_IT_number 63
_symmetry_cell_setting 'orthorhombic'
loop_
_space_group_symop_operation_xyz
x,y,z
-x,-y,1/2+z
x,-y,-z
-x,y,1/2-z
-x,-y,-z
x,y,1/2-z
-x,y,z
x,-y,1/2+z
1/2+x,1/2+y,z
1/2-x,1/2-y,1/2+z
1/2+x,1/2-y,-z
1/2-x,1/2+y,1/2-z
1/2-x,1/2-y,-z
1/2+x,1/2+y,1/2-z
1/2-x,1/2+y,z
1/2+x,1/2-y,1/2+z
loop_
_atom_site_type_symbol
_atom_site_label
_atom_site_fract_x
_atom_site_fract_y
_atom_site_fract_z
Si Si1 0.584274 0.755374 0.430765
Si Si2 0.664912 0.849969 0.566859
Si Si3 0.791719 0.797716 0.066774
Si Si4 0.417545 0.051732 0.432632
O O1 0.600062 0.760758 0.250000
O O2 0.500000 0.747032 0.467783
O O3 0.611277 0.805801 0.513415
O O4 0.626568 0.706272 0.497863
O O5 0.671613 0.847765 0.750000
O O6 0.746011 0.845770 0.492731
O O7 0.631726 0.902406 0.507861
O O8 0.794601 0.797080 0.250000
O O9 0.750000 0.750000 0.000000
O O10 0.416082 0.048780 0.250000
O O11 0.500000 0.060055 0.493174
O O12 0.385334 0.000000 0.500000
#
# Coordination Sequence:
#
# PCOD8255727 Si02
#       4
#    16  16  16  16
#     4  10  19  29  42  61  84 110 140 172 206 245
#     4  10  18  29  44  60  82 111 142 173 207 246
#     4  10  18  28  42  59  81 108 138 171 206 244
#     4   9  18  30  43  60  82 109 140 174 209 242
#
# _framework density 15.120507999999999
#
# number of rings (size 3 to 8) (size 9 to 14) (size 15 to 20)
#    0.000    2.250    0.000    7.500    0.000    5.000 
#    0.000    2.500    0.000    0.000    0.000    0.000 
#    0.000    1.000    0.000    3.250    0.000    4.000 
#
# Total GULP energy -396676.660860 kJ/mol
# GULP energy per Si atom -12396.145652 kJ/mol
# Density = 1.508609 g / cm^3
# Si number density = 15.120508 Si / 1000 Ang^3
#
#
#
# Elastic Constant Matrix: (Units=GPa)
#
#
# Indices 1 2 3 4 5 6 
#
# 1 104.7318 58.2178 37.0738 0.0000 0.0000 0.0000
# 2 58.2178 91.7642 24.5838 0.0000 0.0000 0.0000
# 3 37.0738 24.5838 70.5470 0.0000 0.0000 0.0000
# 4 0.0000 0.0000 0.0000 21.8552 0.0000 0.0000
# 5 0.0000 0.0000 0.0000 0.0000 24.2657 0.0000
# 6 0.0000 0.0000 0.0000 0.0000 0.0000 27.4643
#
#
#
# Elastic Compliance Matrix: (Units=1/GPa)
#
#
# Indices 1 2 3 4 5 6 
#
# 1 0.016506 -0.008987 -0.005542 0.000000 0.000000 0.000000
# 2 -0.008987 0.016913 -0.001171 0.000000 0.000000 0.000000
# 3 -0.005542 -0.001171 0.017496 0.000000 0.000000 0.000000
# 4 0.000000 0.000000 0.000000 0.045756 0.000000 0.000000
# 5 0.000000 0.000000 0.000000 0.000000 0.041210 0.000000
# 6 0.000000 0.000000 0.000000 0.000000 0.000000 0.036411
#
#
# Mechanical properties :
#
#
# Convention : Reuss Voigt Hill
#
# Bulk Modulus (GPa) = 51.24587 56.31044 53.77815
# Shear Modulus (GPa) = 23.56312 24.52820 24.04566
#
# Velocity S-wave (km/s) = 3.95188 4.03200 3.99214
# Velocity P-wave (km/s) = 7.40192 7.68101 7.54276
#
# Compressibility (1/GPa) = 0.01951377
#
# Stress axis : x y z
#
# Youngs Moduli (GPa) = 60.58508 59.12712 57.15724
#
# Poissons Ratio (x) = 0.53137 0.31679
# Poissons Ratio (y) = 0.54447 0.06692
# Poissons Ratio (z) = 0.33579 0.06923
#
# Static dielectric constant tensor:
#      x y z
#    x 3.417680 0.000000 0.000000 
#    y 0.000000 2.928370 0.000000 
#    z 0.000000 0.000000 3.057680 
# 
# 
# High freq. dielectric constant tensor:
#      x y z
#    x 1.572330 0.000000 0.000000 
#    y 0.000000 1.543920 0.000000 
#    z 0.000000 0.000000 1.595940 
# 
# From -- ./inp_files/6028.got.cif
#   From: 2010.03.12/outbox.cif.g09.slc.cpg/sg63_4_cif.got.tgz:6028.got - 2010.04.10 19:34:48.
