data_PCOD8255573
_publ_section_title
;
Structure prediction by ZEFSAII (Michael W. Deem and Ramdas Pophale) SiO2 
 PCOD8255573
Probable space group: C M C M
;
_chemical_formula_sum "Si O2"
_cell_formula_units_Z 128
_cell_length_a 20.334370
_cell_length_b 20.419245
_cell_length_c 18.270739
_cell_angle_alpha 90.000000
_cell_angle_beta 90.000000
_cell_angle_gamma 90.000000
_cell_volume 7586.238906
_symmetry_space_group_name_H-M "C M C M"
_symmetry_group_IT_number 63
_symmetry_cell_setting 'orthorhombic'
loop_
_space_group_symop_operation_xyz
x,y,z
-x,-y,1/2+z
x,-y,-z
-x,y,1/2-z
-x,-y,-z
x,y,1/2-z
-x,y,z
x,-y,1/2+z
1/2+x,1/2+y,z
1/2-x,1/2-y,1/2+z
1/2+x,1/2-y,-z
1/2-x,1/2+y,1/2-z
1/2-x,1/2-y,-z
1/2+x,1/2+y,1/2-z
1/2-x,1/2+y,z
1/2+x,1/2-y,1/2+z
loop_
_atom_site_type_symbol
_atom_site_label
_atom_site_fract_x
_atom_site_fract_y
_atom_site_fract_z
Si Si1 0.765711 0.815524 0.926215
Si Si2 0.197590 0.936340 0.664998
Si Si3 0.571346 0.638934 0.333003
Si Si4 0.701298 0.811806 0.163708
Si Si5 0.303938 0.581889 0.664698
Si Si6 0.358760 0.746108 0.536623
Si Si7 0.076705 0.830646 0.165209
Si Si8 0.425651 0.776296 0.100471
O O1 0.764201 0.885294 0.885885
O O2 0.777807 0.757543 0.868546
O O3 0.691579 0.806267 0.954383
O O4 0.818207 0.811816 0.993668
O O5 0.219871 0.929618 0.750000
O O6 0.120161 0.921390 0.656929
O O7 0.207866 0.009246 0.632457
O O8 0.568450 0.663059 0.250000
O O9 0.500000 0.614790 0.360498
O O10 0.594627 0.702400 0.377020
O O11 0.707415 0.807971 0.250000
O O12 0.750543 0.867297 0.131429
O O13 0.625520 0.826182 0.139633
O O14 0.290638 0.576593 0.750000
O O15 0.379418 0.604530 0.650836
O O16 0.392296 0.724445 0.612562
O O17 0.417224 0.776060 0.487003
O O18 0.084053 0.807671 0.250000
O O19 0.000000 0.844774 0.146544
O O20 0.500000 0.794884 0.122994
#
# Coordination Sequence:
#
# PCOD8255573 Si02
#       8
#    16  16  16  16  16  16  16  16
#     4  10  19  30  51  73  97 132 168 204 252 297
#     4  10  18  31  49  74 102 133 167 204 244 291
#     4   9  16  26  43  69 100 132 163 192 230 288
#     4  10  17  30  51  75 102 132 165 206 247 294
#     4   9  19  32  49  72 102 133 168 209 245 284
#     4  10  19  32  50  71 100 126 168 214 252 290
#     4  10  20  34  52  71  95 135 179 212 246 291
#     4  10  19  30  49  75 103 130 158 201 255 302
#
# _framework density 16.872655999999999
#
# number of rings (size 3 to 8) (size 9 to 14) (size 15 to 20)
#    0.000    2.250    3.750    1.125    0.000    1.750 
#    0.000    3.125    0.000    0.750    0.000    2.625 
#    0.000    2.000    0.000    0.000    0.000    0.000 
#
# Total GULP energy -792975.871674 kJ/mol
# GULP energy per Si atom -12390.247995 kJ/mol
# Density = 1.683425 g / cm^3
# Si number density = 16.872656 Si / 1000 Ang^3
#
#
#
# Elastic Constant Matrix: (Units=GPa)
#
#
# Indices 1 2 3 4 5 6 
#
# 1 104.9598 53.8046 25.7770 0.0000 0.0000 0.0000
# 2 53.8046 81.6084 30.7474 0.0000 0.0000 0.0000
# 3 25.7770 30.7474 63.9791 0.0000 0.0000 0.0000
# 4 0.0000 0.0000 0.0000 12.9110 0.0000 0.0000
# 5 0.0000 0.0000 0.0000 0.0000 27.2858 0.0000
# 6 0.0000 0.0000 0.0000 0.0000 0.0000 17.3567
#
#
#
# Elastic Compliance Matrix: (Units=1/GPa)
#
#
# Indices 1 2 3 4 5 6 
#
# 1 0.014512 -0.008993 -0.001525 0.000000 0.000000 0.000000
# 2 -0.008993 0.020536 -0.006246 0.000000 0.000000 0.000000
# 3 -0.001525 -0.006246 0.019246 0.000000 0.000000 0.000000
# 4 0.000000 0.000000 0.000000 0.077453 0.000000 0.000000
# 5 0.000000 0.000000 0.000000 0.000000 0.036649 0.000000
# 6 0.000000 0.000000 0.000000 0.000000 0.000000 0.057615
#
#
# Mechanical properties :
#
#
# Convention : Reuss Voigt Hill
#
# Bulk Modulus (GPa) = 48.15521 52.35614 50.25568
# Shear Modulus (GPa) = 18.76438 20.85858 19.81148
#
# Velocity S-wave (km/s) = 3.33846 3.51983 3.43034
# Velocity P-wave (km/s) = 6.59263 6.90047 6.74830
#
# Compressibility (1/GPa) = 0.02076618
#
# Stress axis : x y z
#
# Youngs Moduli (GPa) = 68.90787 48.69428 51.95828
#
# Poissons Ratio (x) = 0.43793 0.07923
# Poissons Ratio (y) = 0.61971 0.32453
# Poissons Ratio (z) = 0.10507 0.30415
#
# Static dielectric constant tensor:
#      x y z
#    x 3.429060 0.000000 0.000000 
#    y 0.000000 2.982410 0.000000 
#    z 0.000000 0.000000 3.231780 
# 
# 
# High freq. dielectric constant tensor:
#      x y z
#    x 1.654640 0.000000 0.000000 
#    y 0.000000 1.603720 0.000000 
#    z 0.000000 0.000000 1.653560 
# 
# From -- ./inp_files/47550.got.cif
#   From: 2010.03.12/outbox.cif.g09.slc.cpg/sg63_24_cif.got.tgz:47550.got - 2010.04.10 19:34:48.
