data_PCOD8255169
_publ_section_title
;
Structure prediction by ZEFSAII (Michael W. Deem and Ramdas Pophale) SiO2 
 PCOD8255169
Probable space group: P N M A
;
_chemical_formula_sum "Si O2"
_cell_formula_units_Z 48
_cell_length_a 8.546613
_cell_length_b 17.659173
_cell_length_c 14.177688
_cell_angle_alpha 90.000000
_cell_angle_beta 90.000000
_cell_angle_gamma 90.000000
_cell_volume 2139.783405
_symmetry_space_group_name_H-M "P N M A"
_symmetry_group_IT_number 62
_symmetry_cell_setting 'orthorhombic'
loop_
_space_group_symop_operation_xyz
x,y,z
1/2-x,-y,1/2+z
1/2+x,1/2-y,1/2-z
-x,1/2+y,-z
-x,-y,-z
1/2+x,y,1/2-z
1/2-x,1/2+y,1/2+z
x,1/2-y,z
loop_
_atom_site_type_symbol
_atom_site_label
_atom_site_fract_x
_atom_site_fract_y
_atom_site_fract_z
Si Si1 0.552012 0.161664 0.634677
Si Si2 0.413662 0.422704 0.478128
Si Si3 0.469471 0.337059 0.138465
Si Si4 0.560945 0.079035 0.963602
Si Si5 0.858586 0.083991 0.711503
Si Si6 0.236307 0.585357 0.784087
O O1 0.548449 0.250000 0.654993
O O2 0.518462 0.144485 0.523985
O O3 0.719058 0.129361 0.663459
O O4 0.411046 0.121226 0.691011
O O5 0.500000 0.500000 0.500000
O O6 0.246186 0.420242 0.528470
O O7 0.397809 0.413981 0.365326
O O8 0.424121 0.250000 0.152400
O O9 0.337577 0.390119 0.185172
O O10 0.634764 0.353437 0.187586
O O11 0.482056 0.355521 0.027559
O O12 0.511090 0.090131 0.855592
O O13 0.500000 0.000000 0.000000
O O14 0.811602 0.997171 0.727323
#
# Coordination Sequence:
#
# PCOD8255169 Si02
#       6
#     8   8   8   8   8   8
#     4  12  27  43  67 102 139 176 226 289 353 403
#     4  11  23  43  69 102 136 176 229 278 336 406
#     4  11  25  42  66 100 136 173 220 280 343 393
#     4  11  23  42  69  99 133 177 228 276 333 408
#     4  12  24  45  71  98 135 183 233 279 336 419
#     4  11  24  43  70  96 134 179 227 274 328 408
#
# _framework density 22.432175999999998
#
# number of rings (size 3 to 8) (size 9 to 14) (size 15 to 20)
#    0.000    0.667    5.000    3.000    2.333    6.000 
#    0.000    0.000    0.000    0.000    0.000    0.000 
#    0.000    0.000    0.000    0.000    0.000    0.000 
#
# Total GULP energy -595387.336530 kJ/mol
# GULP energy per Si atom -12403.902844 kJ/mol
# Density = 2.238112 g / cm^3
# Si number density = 22.432176 Si / 1000 Ang^3
#
#
#
# Elastic Constant Matrix: (Units=GPa)
#
#
# Indices 1 2 3 4 5 6 
#
# 1 63.3998 35.8806 11.4337 0.0000 0.0000 0.0000
# 2 35.8806 142.0012 47.1751 0.0000 0.0000 0.0000
# 3 11.4337 47.1751 52.2741 0.0000 0.0000 0.0000
# 4 0.0000 0.0000 0.0000 33.4579 0.0000 0.0000
# 5 0.0000 0.0000 0.0000 0.0000 30.5709 0.0000
# 6 0.0000 0.0000 0.0000 0.0000 0.0000 25.1860
#
#
#
# Elastic Compliance Matrix: (Units=1/GPa)
#
#
# Indices 1 2 3 4 5 6 
#
# 1 0.018407 -0.004732 0.000245 0.000000 0.000000 0.000000
# 2 -0.004732 0.011274 -0.009139 0.000000 0.000000 0.000000
# 3 0.000245 -0.009139 0.027324 0.000000 0.000000 0.000000
# 4 0.000000 0.000000 0.000000 0.029888 0.000000 0.000000
# 5 0.000000 0.000000 0.000000 0.000000 0.032711 0.000000
# 6 0.000000 0.000000 0.000000 0.000000 0.000000 0.039705
#
#
# Mechanical properties :
#
#
# Convention : Reuss Voigt Hill
#
# Bulk Modulus (GPa) = 33.61192 49.62823 41.62008
# Shear Modulus (GPa) = 25.44780 28.72200 27.08490
#
# Velocity S-wave (km/s) = 3.37179 3.58214 3.47855
# Velocity P-wave (km/s) = 5.49317 6.26743 5.89303
#
# Compressibility (1/GPa) = 0.02975135
#
# Stress axis : x y z
#
# Youngs Moduli (GPa) = 54.32708 88.69799 36.59740
#
# Poissons Ratio (x) = 0.41975 -0.00895
# Poissons Ratio (y) = 0.25709 0.33448
# Poissons Ratio (z) = -0.01329 0.81065
#
# Static dielectric constant tensor:
#      x y z
#    x 4.346990 0.000000 0.000000 
#    y 0.000000 3.970150 0.000000 
#    z 0.000000 0.000000 4.579760 
# 
# 
# High freq. dielectric constant tensor:
#      x y z
#    x 1.896660 0.000000 0.000000 
#    y 0.000000 1.875610 0.000000 
#    z 0.000000 0.000000 1.892860 
# 
# From -- ./inp_files/16977.got.cif
#   From: 2010.03.12/outbox.cif.g09.slc.cpg/sg62_9_cif.got.tgz:16977.got - 2010.04.10 19:12:36.
