data_PCOD8255820
_publ_section_title
;
Structure prediction by ZEFSAII (Michael W. Deem and Ramdas Pophale) SiO2 
 PCOD8255820
Probable space group: C M C M
;
_chemical_formula_sum "Si O2"
_cell_formula_units_Z 88
_cell_length_a 28.150753
_cell_length_b 19.292953
_cell_length_c 8.814392
_cell_angle_alpha 90.000000
_cell_angle_beta 90.000000
_cell_angle_gamma 90.000000
_cell_volume 4787.194616
_symmetry_space_group_name_H-M "C M C M"
_symmetry_group_IT_number 63
_symmetry_cell_setting 'orthorhombic'
loop_
_space_group_symop_operation_xyz
x,y,z
-x,-y,1/2+z
x,-y,-z
-x,y,1/2-z
-x,-y,-z
x,y,1/2-z
-x,y,z
x,-y,1/2+z
1/2+x,1/2+y,z
1/2-x,1/2-y,1/2+z
1/2+x,1/2-y,-z
1/2-x,1/2+y,1/2-z
1/2-x,1/2-y,-z
1/2+x,1/2+y,1/2-z
1/2-x,1/2+y,z
1/2+x,1/2-y,1/2+z
loop_
_atom_site_type_symbol
_atom_site_label
_atom_site_fract_x
_atom_site_fract_y
_atom_site_fract_z
Si Si1 0.446460 0.691462 0.430355
Si Si2 0.874249 0.075714 0.429667
Si Si3 0.589005 0.837289 0.069662
Si Si4 0.000000 0.425275 0.070402
Si Si5 0.280870 0.574941 0.927683
Si Si6 0.323581 0.924810 0.427797
O O1 0.448666 0.695640 0.250000
O O2 0.500000 0.687698 0.496322
O O3 0.417885 0.623576 0.483221
O O4 0.419372 0.759677 0.493709
O O5 0.871408 0.069593 0.250000
O O6 0.825473 0.112419 0.490758
O O7 0.882120 0.000000 0.500000
O O8 0.590047 0.835231 0.250000
O O9 0.546175 0.884972 0.011214
O O10 0.638275 0.869790 0.006959
O O11 0.000000 0.431173 0.250000
O O12 0.000000 0.500000 0.000000
O O13 0.291471 0.570211 0.750000
O O14 0.228918 0.607937 0.960639
O O15 0.279093 0.500000 0.000000
O O16 0.330828 0.936119 0.250000
O O17 0.331205 0.000000 0.500000
#
# Coordination Sequence:
#
# PCOD8255820 Si02
#       6
#    16  16  16   8  16  16
#     4   9  17  31  50  71  94 123 160 197 233 279
#     4  10  19  31  51  75  95 118 153 197 240 285
#     4   9  16  29  47  69  95 125 161 196 231 271
#     4  10  18  28  48  72  95 124 158 198 235 268
#     4   9  16  28  46  68  96 126 155 189 233 281
#     4   9  17  28  46  71  97 127 160 195 232 272
#
# _framework density 18.382373999999999
#
# number of rings (size 3 to 8) (size 9 to 14) (size 15 to 20)
#    0.000    2.727    0.909    2.727    0.000    1.091 
#    0.000    0.909    0.000    6.000    0.000    0.000 
#    0.000    0.000    0.000    0.000    0.000    0.000 
#
# Total GULP energy -545223.540629 kJ/mol
# GULP energy per Si atom -12391.444105 kJ/mol
# Density = 1.834053 g / cm^3
# Si number density = 18.382374 Si / 1000 Ang^3
#
#
#
# Elastic Constant Matrix: (Units=GPa)
#
#
# Indices 1 2 3 4 5 6 
#
# 1 183.7352 87.9224 33.6221 0.0000 0.0000 0.0000
# 2 87.9224 116.2983 25.5553 0.0000 0.0000 0.0000
# 3 33.6221 25.5553 42.5171 0.0000 0.0000 0.0000
# 4 0.0000 0.0000 0.0000 15.1108 0.0000 0.0000
# 5 0.0000 0.0000 0.0000 0.0000 16.0434 0.0000
# 6 0.0000 0.0000 0.0000 0.0000 0.0000 21.1253
#
#
#
# Elastic Compliance Matrix: (Units=1/GPa)
#
#
# Indices 1 2 3 4 5 6 
#
# 1 0.008951 -0.006005 -0.003469 0.000000 0.000000 0.000000
# 2 -0.006005 0.013935 -0.003628 0.000000 0.000000 0.000000
# 3 -0.003469 -0.003628 0.028444 0.000000 0.000000 0.000000
# 4 0.000000 0.000000 0.000000 0.066178 0.000000 0.000000
# 5 0.000000 0.000000 0.000000 0.000000 0.062331 0.000000
# 6 0.000000 0.000000 0.000000 0.000000 0.000000 0.047337
#
#
# Mechanical properties :
#
#
# Convention : Reuss Voigt Hill
#
# Bulk Modulus (GPa) = 39.79745 70.75000 55.27372
# Shear Modulus (GPa) = 19.10197 23.48595 21.29396
#
# Velocity S-wave (km/s) = 3.22708 3.57828 3.40721
# Velocity P-wave (km/s) = 5.96508 7.45946 6.75373
#
# Compressibility (1/GPa) = 0.02512724
#
# Stress axis : x y z
#
# Youngs Moduli (GPa) = 111.72205 71.76076 35.15727
#
# Poissons Ratio (x) = 0.43089 0.12196
# Poissons Ratio (y) = 0.67084 0.12753
# Poissons Ratio (z) = 0.38757 0.26031
#
# Static dielectric constant tensor:
#      x y z
#    x 4.334440 0.000000 0.000000 
#    y 0.000000 3.245050 0.000000 
#    z 0.000000 0.000000 3.124840 
# 
# 
# High freq. dielectric constant tensor:
#      x y z
#    x 1.735810 0.000000 0.000000 
#    y 0.000000 1.687990 0.000000 
#    z 0.000000 0.000000 1.679210 
# 
# From -- ./inp_files/14247.got.cif
#   From: 2010.03.12/outbox.cif.g09.slc.cpg/sg63_8_cif.got.tgz:14247.got - 2010.04.10 19:34:48.
