data_PCOD8255491
_publ_section_title
;
Structure prediction by ZEFSAII (Michael W. Deem and Ramdas Pophale) SiO2 
 PCOD8255491
Probable space group: C M C M
;
_chemical_formula_sum "Si O2"
_cell_formula_units_Z 96
_cell_length_a 8.783516
_cell_length_b 24.370049
_cell_length_c 26.039994
_cell_angle_alpha 90.000000
_cell_angle_beta 90.000000
_cell_angle_gamma 90.000000
_cell_volume 5573.983502
_symmetry_space_group_name_H-M "C M C M"
_symmetry_group_IT_number 63
_symmetry_cell_setting 'orthorhombic'
loop_
_space_group_symop_operation_xyz
x,y,z
-x,-y,1/2+z
x,-y,-z
-x,y,1/2-z
-x,-y,-z
x,y,1/2-z
-x,y,z
x,-y,1/2+z
1/2+x,1/2+y,z
1/2-x,1/2-y,1/2+z
1/2+x,1/2-y,-z
1/2-x,1/2+y,1/2-z
1/2-x,1/2-y,-z
1/2+x,1/2+y,1/2-z
1/2-x,1/2+y,z
1/2+x,1/2-y,1/2+z
loop_
_atom_site_type_symbol
_atom_site_label
_atom_site_fract_x
_atom_site_fract_y
_atom_site_fract_z
Si Si1 0.818779 0.752053 0.386609
Si Si2 0.679078 0.079886 0.392000
Si Si3 0.818534 0.018793 0.943724
Si Si4 0.819644 0.663295 0.306943
Si Si5 0.827274 0.138624 0.572531
Si Si6 0.825998 0.831502 0.958243
O O1 0.768345 0.719928 0.334917
O O2 0.766760 0.816597 0.385337
O O3 0.737018 0.724740 0.435268
O O4 0.000000 0.747396 0.394891
O O5 0.500000 0.070196 0.391469
O O6 0.734483 0.110250 0.339625
O O7 0.724057 0.117707 0.439751
O O8 0.761747 0.021607 0.398797
O O9 0.747026 0.078896 0.929631
O O10 0.000000 0.019826 0.944964
O O11 0.758245 0.000000 0.000000
O O12 0.746348 0.661233 0.250000
O O13 0.000000 0.662429 0.303034
O O14 0.812752 0.170934 0.519182
O O15 0.000000 0.125199 0.586236
O O16 0.000000 0.841426 0.940830
#
# Coordination Sequence:
#
# PCOD8255491 Si02
#       6
#    16  16  16  16  16  16
#     4   9  17  29  45  67  90 113 150 192 225 261
#     4  10  19  30  46  70  93 116 156 202 229 256
#     4  10  18  31  47  63  92 134 162 178 220 283
#     4   8  15  29  49  69  88 112 145 190 242 282
#     4   9  17  28  43  63  91 126 155 179 216 271
#     4  10  17  28  44  63  92 126 153 177 222 278
#
# _framework density 17.222871999999999
#
# number of rings (size 3 to 8) (size 9 to 14) (size 15 to 20)
#    0.000    2.667    1.667    2.500    0.000    0.333 
#    0.000    1.667    0.000   13.500    0.000    2.333 
#    0.000    0.000    0.000    0.000    0.000    0.000 
#
# Total GULP energy -594680.091885 kJ/mol
# GULP energy per Si atom -12389.168581 kJ/mol
# Density = 1.718367 g / cm^3
# Si number density = 17.222872 Si / 1000 Ang^3
#
#
#
# Elastic Constant Matrix: (Units=GPa)
#
#
# Indices 1 2 3 4 5 6 
#
# 1 14.4445 16.8990 11.9627 0.0000 0.0000 0.0000
# 2 16.8990 166.2078 69.3192 0.0000 0.0000 0.0000
# 3 11.9627 69.3192 80.5313 0.0000 0.0000 0.0000
# 4 0.0000 0.0000 0.0000 16.2802 0.0000 0.0000
# 5 0.0000 0.0000 0.0000 0.0000 13.0069 0.0000
# 6 0.0000 0.0000 0.0000 0.0000 0.0000 16.7876
#
#
#
# Elastic Compliance Matrix: (Units=1/GPa)
#
#
# Indices 1 2 3 4 5 6 
#
# 1 0.081577 -0.005055 -0.007767 0.000000 0.000000 0.000000
# 2 -0.005055 0.009699 -0.007598 0.000000 0.000000 0.000000
# 3 -0.007767 -0.007598 0.020111 0.000000 0.000000 0.000000
# 4 0.000000 0.000000 0.000000 0.061424 0.000000 0.000000
# 5 0.000000 0.000000 0.000000 0.000000 0.076882 0.000000
# 6 0.000000 0.000000 0.000000 0.000000 0.000000 0.059568
#
#
# Mechanical properties :
#
#
# Convention : Reuss Voigt Hill
#
# Bulk Modulus (GPa) = 14.17472 50.83835 32.50654
# Shear Modulus (GPa) = 13.38266 20.08180 16.73223
#
# Velocity S-wave (km/s) = 2.79055 3.41837 3.12029
# Velocity P-wave (km/s) = 4.31635 6.72030 5.64771
#
# Compressibility (1/GPa) = 0.07054811
#
# Stress axis : x y z
#
# Youngs Moduli (GPa) = 12.25836 103.09917 49.72283
#
# Poissons Ratio (x) = 0.52116 0.38619
# Poissons Ratio (y) = 0.06197 0.37780
# Poissons Ratio (z) = 0.09521 0.78336
#
# Static dielectric constant tensor:
#      x y z
#    x 2.972070 0.000000 0.000000 
#    y 0.000000 3.536090 0.000000 
#    z 0.000000 0.000000 3.230590 
# 
# 
# High freq. dielectric constant tensor:
#      x y z
#    x 1.634960 0.000000 0.000000 
#    y 0.000000 1.675980 0.000000 
#    z 0.000000 0.000000 1.628310 
# 
# From -- ./inp_files/67177.got.cif
#   From: 2010.03.12/outbox.cif.g09.slc.cpg/sg63_34_cif.got.tgz:67177.got - 2010.04.10 19:34:48.
