data_PCOD8255499
_publ_section_title
;
Structure prediction by ZEFSAII (Michael W. Deem and Ramdas Pophale) SiO2 
 PCOD8255499
Probable space group: C M C M
;
_chemical_formula_sum "Si O2"
_cell_formula_units_Z 128
_cell_length_a 21.653332
_cell_length_b 19.949694
_cell_length_c 19.099500
_cell_angle_alpha 90.000000
_cell_angle_beta 90.000000
_cell_angle_gamma 90.000000
_cell_volume 8250.551348
_symmetry_space_group_name_H-M "C M C M"
_symmetry_group_IT_number 63
_symmetry_cell_setting 'orthorhombic'
loop_
_space_group_symop_operation_xyz
x,y,z
-x,-y,1/2+z
x,-y,-z
-x,y,1/2-z
-x,-y,-z
x,y,1/2-z
-x,y,z
x,-y,1/2+z
1/2+x,1/2+y,z
1/2-x,1/2-y,1/2+z
1/2+x,1/2-y,-z
1/2-x,1/2+y,1/2-z
1/2-x,1/2-y,-z
1/2+x,1/2+y,1/2-z
1/2-x,1/2+y,z
1/2+x,1/2-y,1/2+z
loop_
_atom_site_type_symbol
_atom_site_label
_atom_site_fract_x
_atom_site_fract_y
_atom_site_fract_z
Si Si1 0.735073 0.451480 0.331703
Si Si2 0.930745 0.927653 0.967300
Si Si3 0.300964 0.584566 0.094678
Si Si4 0.158738 0.291887 0.488551
Si Si5 0.836454 0.819412 0.326402
Si Si6 0.745186 0.272370 0.890188
Si Si7 0.297189 0.068031 0.973650
Si Si8 0.931352 0.202158 0.943106
O O1 0.758590 0.450283 0.250000
O O2 0.710097 0.525040 0.350513
O O3 0.682316 0.395945 0.343271
O O4 0.787043 0.434180 0.389755
O O5 0.875175 0.910277 0.914104
O O6 0.000000 0.926288 0.932173
O O7 0.928492 0.872831 0.028005
O O8 0.917533 0.000000 0.000000
O O9 0.273367 0.651812 0.130360
O O10 0.267266 0.575265 0.018619
O O11 0.205614 0.267058 0.547538
O O12 0.183442 0.266495 0.413703
O O13 0.155002 0.372468 0.489692
O O14 0.092671 0.257401 0.501093
O O15 0.865083 0.815860 0.250000
O O16 0.776683 0.769769 0.327943
O O17 0.890931 0.793602 0.374315
O O18 0.329905 0.000000 0.000000
O O19 0.000000 0.223367 0.922936
#
# Coordination Sequence:
#
# PCOD8255499 Si02
#       8
#    16  16  16  16  16  16  16  16
#     4  10  19  28  41  64  94 120 148 187 228 276
#     4  10  18  26  40  62  86 114 155 195 221 256
#     4  10  17  28  45  64  86 118 151 188 236 266
#     4   9  15  27  45  65  88 110 142 189 234 266
#     4  10  19  30  43  62  91 125 151 178 225 284
#     4   9  16  26  45  63  84 114 144 187 229 271
#     4   9  16  27  47  68  88 116 148 181 232 290
#     4  10  19  30  45  66  89 117 155 196 230 265
#
# _framework density 15.514115
#
# number of rings (size 3 to 8) (size 9 to 14) (size 15 to 20)
#    0.000    2.375    2.500    2.625    0.000    0.750 
#    0.000    0.000    0.000    1.500    0.000    0.000 
#    0.000    2.000    0.000    0.375    0.000    0.750 
#
# Total GULP energy -792923.502750 kJ/mol
# GULP energy per Si atom -12389.429730 kJ/mol
# Density = 1.547880 g / cm^3
# Si number density = 15.514115 Si / 1000 Ang^3
#
#
#
# Elastic Constant Matrix: (Units=GPa)
#
#
# Indices 1 2 3 4 5 6 
#
# 1 71.7757 50.7643 26.0637 0.0000 0.0000 0.0000
# 2 50.7643 115.3997 25.0831 0.0000 0.0000 0.0000
# 3 26.0637 25.0831 65.4922 0.0000 0.0000 0.0000
# 4 0.0000 0.0000 0.0000 14.7033 0.0000 0.0000
# 5 0.0000 0.0000 0.0000 0.0000 10.4640 0.0000
# 6 0.0000 0.0000 0.0000 0.0000 0.0000 13.5720
#
#
#
# Elastic Compliance Matrix: (Units=1/GPa)
#
#
# Indices 1 2 3 4 5 6 
#
# 1 0.021890 -0.008438 -0.005480 0.000000 0.000000 0.000000
# 2 -0.008438 0.012705 -0.001508 0.000000 0.000000 0.000000
# 3 -0.005480 -0.001508 0.018027 0.000000 0.000000 0.000000
# 4 0.000000 0.000000 0.000000 0.068012 0.000000 0.000000
# 5 0.000000 0.000000 0.000000 0.000000 0.095566 0.000000
# 6 0.000000 0.000000 0.000000 0.000000 0.000000 0.073681
#
#
# Mechanical properties :
#
#
# Convention : Reuss Voigt Hill
#
# Bulk Modulus (GPa) = 45.93302 50.72107 48.32705
# Shear Modulus (GPa) = 15.24430 17.79828 16.52129
#
# Velocity S-wave (km/s) = 3.13806 3.39076 3.26685
# Velocity P-wave (km/s) = 6.54228 6.93499 6.74150
#
# Compressibility (1/GPa) = 0.02177083
#
# Stress axis : x y z
#
# Youngs Moduli (GPa) = 45.68222 78.70687 55.47166
#
# Poissons Ratio (x) = 0.66417 0.30397
# Poissons Ratio (y) = 0.38549 0.08364
# Poissons Ratio (z) = 0.25033 0.11868
#
# Static dielectric constant tensor:
#      x y z
#    x 2.819060 0.000000 0.000000 
#    y 0.000000 3.220200 0.000000 
#    z 0.000000 0.000000 2.801260 
# 
# 
# High freq. dielectric constant tensor:
#      x y z
#    x 1.556350 0.000000 0.000000 
#    y 0.000000 1.614260 0.000000 
#    z 0.000000 0.000000 1.568740 
# 
# From -- ./inp_files/47616.got.cif
#   From: 2010.03.12/outbox.cif.g09.slc.cpg/sg63_24_cif.got.tgz:47616.got - 2010.04.10 19:34:48.
