data_PCOD8255181
_publ_section_title
;
Structure prediction by ZEFSAII (Michael W. Deem and Ramdas Pophale) SiO2 
 PCOD8255181
Probable space group: P N M A
;
_chemical_formula_sum "Si O2"
_cell_formula_units_Z 40
_cell_length_a 16.429973
_cell_length_b 18.538933
_cell_length_c 5.023925
_cell_angle_alpha 90.000000
_cell_angle_beta 90.000000
_cell_angle_gamma 90.000000
_cell_volume 1530.258259
_symmetry_space_group_name_H-M "P N M A"
_symmetry_group_IT_number 62
_symmetry_cell_setting 'orthorhombic'
loop_
_space_group_symop_operation_xyz
x,y,z
1/2-x,-y,1/2+z
1/2+x,1/2-y,1/2-z
-x,1/2+y,-z
-x,-y,-z
1/2+x,y,1/2-z
1/2-x,1/2+y,1/2+z
x,1/2-y,z
loop_
_atom_site_type_symbol
_atom_site_label
_atom_site_fract_x
_atom_site_fract_y
_atom_site_fract_z
Si Si1 0.198463 0.590295 0.395269
Si Si2 0.434165 0.167146 0.169039
Si Si3 0.030925 0.127775 0.825176
Si Si4 0.142403 0.044499 0.147661
Si Si5 0.181530 0.170128 0.553233
O O1 0.157494 0.635413 0.637535
O O2 0.272465 0.540628 0.491585
O O3 0.131310 0.533844 0.281876
O O4 0.231347 0.645666 0.171799
O O5 0.435654 0.250000 0.077872
O O6 0.466180 0.162003 0.469732
O O7 0.488741 0.120940 0.962199
O O8 0.113767 0.175249 0.789360
O O9 0.065625 0.052307 0.946087
O O10 0.145569 0.113275 0.342895
O O11 0.192367 0.250000 0.426465
#
# Coordination Sequence:
#
# PCOD8255181 Si02
#       5
#     8   8   8   8   8
#     4  11  26  44  72 105 147 188 239 303 363 426
#     4  12  26  46  71 107 146 186 240 304 362 423
#     4  11  26  46  73 100 145 190 240 292 360 433
#     4  11  24  47  74 104 144 194 242 293 358 441
#     4  11  23  45  74 104 139 192 246 295 357 431
#
# _framework density 26.139379999999999
#
# number of rings (size 3 to 8) (size 9 to 14) (size 15 to 20)
#    0.000    0.800    4.000    2.400    2.800    6.400 
#    0.000    0.000    0.000    0.000    0.000    0.000 
#    0.000    0.000    0.000    0.000    0.000    0.000 
#
# Total GULP energy -495834.592867 kJ/mol
# GULP energy per Si atom -12395.864822 kJ/mol
# Density = 2.607989 g / cm^3
# Si number density = 26.139380 Si / 1000 Ang^3
#
#
#
# Elastic Constant Matrix: (Units=GPa)
#
#
# Indices 1 2 3 4 5 6 
#
# 1 31.9406 -10.9238 -26.6816 0.0000 0.0000 0.0000
# 2 -10.9238 73.4449 -12.6975 0.0000 0.0000 0.0000
# 3 -26.6816 -12.6975 60.0301 0.0000 0.0000 0.0000
# 4 0.0000 0.0000 0.0000 28.4430 0.0000 0.0000
# 5 0.0000 0.0000 0.0000 0.0000 25.6555 0.0000
# 6 0.0000 0.0000 0.0000 0.0000 0.0000 16.5236
#
#
#
# Elastic Compliance Matrix: (Units=1/GPa)
#
#
# Indices 1 2 3 4 5 6 
#
# 1 0.061719 0.014451 0.030489 0.000000 0.000000 0.000000
# 2 0.014451 0.017516 0.010128 0.000000 0.000000 0.000000
# 3 0.030489 0.010128 0.032352 0.000000 0.000000 0.000000
# 4 0.000000 0.000000 0.000000 0.035158 0.000000 0.000000
# 5 0.000000 0.000000 0.000000 0.000000 0.038978 0.000000
# 6 0.000000 0.000000 0.000000 0.000000 0.000000 0.060519
#
#
# Mechanical properties :
#
#
# Convention : Reuss Voigt Hill
#
# Bulk Modulus (GPa) = 4.51013 7.20110 5.85562
# Shear Modulus (GPa) = 23.80784 28.50565 26.15675
#
# Velocity S-wave (km/s) = 3.02123 3.30589 3.16676
# Velocity P-wave (km/s) = 3.72821 4.16326 3.95173
#
# Compressibility (1/GPa) = 0.22172299
#
# Stress axis : x y z
#
# Youngs Moduli (GPa) = 16.20238 57.09080 30.90996
#
# Poissons Ratio (x) = -0.82501 -0.94242
# Poissons Ratio (y) = -0.23414 -0.31305
# Poissons Ratio (z) = -0.49400 -0.57821
#
# Static dielectric constant tensor:
#      x y z
#    x 4.966410 0.000000 0.000000 
#    y 0.000000 4.358680 0.000000 
#    z 0.000000 0.000000 4.630530 
# 
# 
# High freq. dielectric constant tensor:
#      x y z
#    x 2.058420 0.000000 0.000000 
#    y 0.000000 2.030700 0.000000 
#    z 0.000000 0.000000 2.042530 
# 
# From -- ./inp_files/1560.got.cif
#   From: 2010.03.12/outbox.cif.g09.slc.cpg/sg62_1_cif.got.tgz:1560.got - 2010.04.10 19:12:36.
