data_PCOD8255592
_publ_section_title
;
Structure prediction by ZEFSAII (Michael W. Deem and Ramdas Pophale) SiO2 
 PCOD8255592
Probable space group: C M C M
;
_chemical_formula_sum "Si O2"
_cell_formula_units_Z 112
_cell_length_a 14.646439
_cell_length_b 15.956312
_cell_length_c 28.589197
_cell_angle_alpha 90.000000
_cell_angle_beta 90.000000
_cell_angle_gamma 90.000000
_cell_volume 6681.385406
_symmetry_space_group_name_H-M "C M C M"
_symmetry_group_IT_number 63
_symmetry_cell_setting 'orthorhombic'
loop_
_space_group_symop_operation_xyz
x,y,z
-x,-y,1/2+z
x,-y,-z
-x,y,1/2-z
-x,-y,-z
x,y,1/2-z
-x,y,z
x,-y,1/2+z
1/2+x,1/2+y,z
1/2-x,1/2-y,1/2+z
1/2+x,1/2-y,-z
1/2-x,1/2+y,1/2-z
1/2-x,1/2-y,-z
1/2+x,1/2+y,1/2-z
1/2-x,1/2+y,z
1/2+x,1/2-y,1/2+z
loop_
_atom_site_type_symbol
_atom_site_label
_atom_site_fract_x
_atom_site_fract_y
_atom_site_fract_z
Si Si1 0.736417 0.852947 0.408215
Si Si2 0.893449 0.383953 0.698495
Si Si3 0.174086 0.907383 0.999266
Si Si4 0.602928 0.991582 0.120242
Si Si5 0.147248 0.373380 0.550559
Si Si6 0.605842 0.741762 0.869658
Si Si7 0.900286 0.739236 0.533732
O O1 0.778123 0.903494 0.450888
O O2 0.664664 0.909819 0.380930
O O3 0.819289 0.832037 0.372468
O O4 0.680437 0.771651 0.428025
O O5 0.847553 0.391972 0.750000
O O6 0.853889 0.451339 0.661778
O O7 0.878056 0.290229 0.678982
O O8 0.000000 0.401487 0.702370
O O9 0.247609 0.898481 0.957628
O O10 0.105748 0.829112 0.992699
O O11 0.126490 0.000000 0.000000
O O12 0.500000 0.963139 0.131505
O O13 0.599954 0.043212 0.071241
O O14 0.131727 0.299648 0.586997
O O15 0.104857 0.339070 0.502237
O O16 0.500000 0.710646 0.873541
O O17 0.000000 0.735197 0.557746
#
# Coordination Sequence:
#
# PCOD8255592 Si02
#       7
#    16  16  16  16  16  16  16
#     4  11  20  32  46  71 102 127 163 209 236 286
#     4   8  16  32  54  78  98 117 150 199 252 302
#     4  11  20  32  45  63  96 132 170 207 242 269
#     4  10  19  30  50  75  99 126 155 197 253 299
#     4  10  17  32  47  67  91 122 168 207 244 281
#     4  10  18  31  53  71  91 128 163 198 246 290
#     4  11  21  32  47  65  95 137 173 206 241 279
#
# _framework density 16.762991
#
# number of rings (size 3 to 8) (size 9 to 14) (size 15 to 20)
#    0.000    1.857    4.286    3.429    0.000    0.286 
#    0.000    2.857    0.000    0.000    0.000    0.000 
#    0.000    2.286    0.000    0.000    0.000    0.000 
#
# Total GULP energy -693777.475134 kJ/mol
# GULP energy per Si atom -12388.883485 kJ/mol
# Density = 1.672484 g / cm^3
# Si number density = 16.762991 Si / 1000 Ang^3
#
#
#
# Elastic Constant Matrix: (Units=GPa)
#
#
# Indices 1 2 3 4 5 6 
#
# 1 81.8389 43.2331 30.0016 0.0000 0.0000 0.0000
# 2 43.2331 98.7414 28.6739 0.0000 0.0000 0.0000
# 3 30.0016 28.6739 67.9172 0.0000 0.0000 0.0000
# 4 0.0000 0.0000 0.0000 11.7324 0.0000 0.0000
# 5 0.0000 0.0000 0.0000 0.0000 11.4034 0.0000
# 6 0.0000 0.0000 0.0000 0.0000 0.0000 22.6267
#
#
#
# Elastic Compliance Matrix: (Units=1/GPa)
#
#
# Indices 1 2 3 4 5 6 
#
# 1 0.017301 -0.006104 -0.005065 0.000000 0.000000 0.000000
# 2 -0.006104 0.013696 -0.003086 0.000000 0.000000 0.000000
# 3 -0.005065 -0.003086 0.018264 0.000000 0.000000 0.000000
# 4 0.000000 0.000000 0.000000 0.085234 0.000000 0.000000
# 5 0.000000 0.000000 0.000000 0.000000 0.087693 0.000000
# 6 0.000000 0.000000 0.000000 0.000000 0.000000 0.044196
#
#
# Mechanical properties :
#
#
# Convention : Reuss Voigt Hill
#
# Bulk Modulus (GPa) = 48.19181 50.25719 49.22450
# Shear Modulus (GPa) = 16.56664 18.92510 17.74587
#
# Velocity S-wave (km/s) = 3.14711 3.36368 3.25720
# Velocity P-wave (km/s) = 6.48206 6.71803 6.60110
#
# Compressibility (1/GPa) = 0.02075041
#
# Stress axis : x y z
#
# Youngs Moduli (GPa) = 57.80149 73.01295 54.75185
#
# Poissons Ratio (x) = 0.44567 0.27733
# Poissons Ratio (y) = 0.35282 0.16897
# Poissons Ratio (z) = 0.29278 0.22532
#
# Static dielectric constant tensor:
#      x y z
#    x 3.116870 0.000000 0.000000 
#    y 0.000000 3.186870 0.000000 
#    z 0.000000 0.000000 3.190910 
# 
# 
# High freq. dielectric constant tensor:
#      x y z
#    x 1.631560 0.000000 0.000000 
#    y 0.000000 1.639230 0.000000 
#    z 0.000000 0.000000 1.610270 
# 
# From -- ./inp_files/73535.got.cif
#   From: 2010.03.12/outbox.cif.g09.slc.cpg/sg63_37_cif.got.tgz:73535.got - 2010.04.10 19:34:48.
