data_PCOD8255054
_publ_section_title
;
Structure prediction by ZEFSAII (Michael W. Deem and Ramdas Pophale) SiO2 
 PCOD8255054
Probable space group: P N M A
;
_chemical_formula_sum "Si O2"
_cell_formula_units_Z 48
_cell_length_a 9.523220
_cell_length_b 13.476256
_cell_length_c 17.709558
_cell_angle_alpha 90.000000
_cell_angle_beta 90.000000
_cell_angle_gamma 90.000000
_cell_volume 2272.797755
_symmetry_space_group_name_H-M "P N M A"
_symmetry_group_IT_number 62
_symmetry_cell_setting 'orthorhombic'
loop_
_space_group_symop_operation_xyz
x,y,z
1/2-x,-y,1/2+z
1/2+x,1/2-y,1/2-z
-x,1/2+y,-z
-x,-y,-z
1/2+x,y,1/2-z
1/2-x,1/2+y,1/2+z
x,1/2-y,z
loop_
_atom_site_type_symbol
_atom_site_label
_atom_site_fract_x
_atom_site_fract_y
_atom_site_fract_z
Si Si1 0.312631 0.462943 0.166909
Si Si2 0.955608 0.250000 0.133695
Si Si3 0.277622 0.250000 0.133463
Si Si4 0.016943 0.750000 0.044517
Si Si5 0.695021 0.750000 0.044240
Si Si6 0.059820 0.959657 0.421395
Si Si7 0.189458 0.544910 0.835943
Si Si8 0.555281 0.538590 0.419857
O O1 0.357368 0.347136 0.164815
O O2 0.439248 0.534321 0.142214
O O3 0.263300 0.487787 0.251807
O O4 0.187294 0.474053 0.106254
O O5 0.868963 0.156206 0.162906
O O6 0.116013 0.250000 0.163624
O O7 0.968552 0.250000 0.044513
O O8 0.297015 0.250000 0.044724
O O9 0.097726 0.846162 0.075959
O O10 0.855505 0.750000 0.073191
O O11 0.613043 0.653092 0.073684
O O12 0.183959 0.032954 0.395009
O O13 0.000000 0.000000 0.500000
O O14 0.066434 0.470258 0.858666
O O15 0.500000 0.500000 0.500000
#
# Coordination Sequence:
#
# PCOD8255054 Si02
#       8
#     8   4   4   4   4   8   8   8
#     4  12  26  44  68 105 143 182 223 288 359 410
#     4  11  23  39  76 100 134 178 235 282 328 422
#     4  11  21  42  71  99 139 179 227 287 342 412
#     4  11  22  40  76 104 125 180 251 285 321 404
#     4  11  22  45  69 105 134 177 235 294 343 398
#     4  12  26  44  70 101 142 180 224 290 351 409
#     4  12  25  45  67 103 141 179 227 286 351 413
#     4  12  22  45  73  97 131 184 243 275 328 420
#
# _framework density 21.119344999999999
#
# number of rings (size 3 to 8) (size 9 to 14) (size 15 to 20)
#    0.000    0.333    6.667    3.500    0.000    2.000 
#    0.000    5.000    0.000    0.000    0.000    0.000 
#    0.000    0.000    0.000    0.000    0.000    0.000 
#
# Total GULP energy -595258.689939 kJ/mol
# GULP energy per Si atom -12401.222707 kJ/mol
# Density = 2.107128 g / cm^3
# Si number density = 21.119345 Si / 1000 Ang^3
#
#
#
# Elastic Constant Matrix: (Units=GPa)
#
#
# Indices 1 2 3 4 5 6 
#
# 1 98.7414 27.1102 40.6721 0.0000 0.0000 0.0000
# 2 27.1102 121.1972 58.5772 0.0000 0.0000 0.0000
# 3 40.6721 58.5772 93.6865 0.0000 0.0000 0.0000
# 4 0.0000 0.0000 0.0000 19.0293 0.0000 0.0000
# 5 0.0000 0.0000 0.0000 0.0000 35.2256 0.0000
# 6 0.0000 0.0000 0.0000 0.0000 0.0000 36.8370
#
#
#
# Elastic Compliance Matrix: (Units=1/GPa)
#
#
# Indices 1 2 3 4 5 6 
#
# 1 0.012338 -0.000245 -0.005203 0.000000 0.000000 0.000000
# 2 -0.000245 0.011829 -0.007290 0.000000 0.000000 0.000000
# 3 -0.005203 -0.007290 0.017491 0.000000 0.000000 0.000000
# 4 0.000000 0.000000 0.000000 0.052551 0.000000 0.000000
# 5 0.000000 0.000000 0.000000 0.000000 0.028388 0.000000
# 6 0.000000 0.000000 0.000000 0.000000 0.000000 0.027147
#
#
# Mechanical properties :
#
#
# Convention : Reuss Voigt Hill
#
# Bulk Modulus (GPa) = 61.79733 62.92713 62.36223
# Shear Modulus (GPa) = 27.68352 30.70275 29.19314
#
# Velocity S-wave (km/s) = 3.62444 3.81697 3.72195
# Velocity P-wave (km/s) = 6.84397 7.02043 6.93276
#
# Compressibility (1/GPa) = 0.01618193
#
# Stress axis : x y z
#
# Youngs Moduli (GPa) = 81.05109 84.53711 57.17372
#
# Poissons Ratio (x) = 0.02072 0.29747
# Poissons Ratio (y) = 0.01987 0.41678
# Poissons Ratio (z) = 0.42171 0.61625
#
# Static dielectric constant tensor:
#      x y z
#    x 4.017560 0.000000 0.000000 
#    y 0.000000 4.743470 0.000000 
#    z 0.000000 0.000000 3.875280 
# 
# 
# High freq. dielectric constant tensor:
#      x y z
#    x 1.824920 0.000000 0.000000 
#    y 0.000000 1.832760 0.000000 
#    z 0.000000 0.000000 1.827900 
# 
# From -- ./inp_files/22277.got.cif
#   From: 2010.03.12/outbox.cif.g09.slc.cpg/sg62_12_cif.got.tgz:22277.got - 2010.04.10 19:12:36.
