data_PCOD8255078
_publ_section_title
;
Structure prediction by ZEFSAII (Michael W. Deem and Ramdas Pophale) SiO2 
 PCOD8255078
Probable space group: P N M A
;
_chemical_formula_sum "Si O2"
_cell_formula_units_Z 32
_cell_length_a 12.842888
_cell_length_b 12.361136
_cell_length_c 11.116659
_cell_angle_alpha 90.000000
_cell_angle_beta 90.000000
_cell_angle_gamma 90.000000
_cell_volume 1764.799467
_symmetry_space_group_name_H-M "P N M A"
_symmetry_group_IT_number 62
_symmetry_cell_setting 'orthorhombic'
loop_
_space_group_symop_operation_xyz
x,y,z
1/2-x,-y,1/2+z
1/2+x,1/2-y,1/2-z
-x,1/2+y,-z
-x,-y,-z
1/2+x,y,1/2-z
1/2-x,1/2+y,1/2+z
x,1/2-y,z
loop_
_atom_site_type_symbol
_atom_site_label
_atom_site_fract_x
_atom_site_fract_y
_atom_site_fract_z
Si Si1 0.372921 0.377742 0.478645
Si Si2 0.035747 0.014518 0.188246
Si Si3 0.355609 0.939490 0.914972
Si Si4 0.008148 0.629836 0.394350
O O1 0.368493 0.250000 0.503365
O O2 0.462728 0.403033 0.382551
O O3 0.393361 0.441951 0.601004
O O4 0.266300 0.422103 0.423987
O O5 0.969225 0.930842 0.272070
O O6 0.110305 0.085471 0.276506
O O7 0.391707 0.063353 0.946498
O O8 0.415224 0.862375 0.008987
O O9 0.045513 0.750000 0.362718
#
# Coordination Sequence:
#
# PCOD8255078 Si02
#       4
#     8   8   8   8
#     4  11  22  38  60  84 119 155 185 235 293 333
#     4   9  22  39  55  86 121 143 196 236 273 350
#     4   9  21  36  60  88 112 149 197 234 272 351
#     4   9  18  37  61  85 115 151 188 234 283 330
#
# _framework density 18.132372
#
# number of rings (size 3 to 8) (size 9 to 14) (size 15 to 20)
#    1.500    1.000    0.000    1.500    3.500    2.000 
#    0.000    6.250    0.000    0.000    0.000    0.000 
#    0.000    0.000    0.000    0.000    0.000    0.000 
#
# Total GULP energy -396433.963539 kJ/mol
# GULP energy per Si atom -12388.561361 kJ/mol
# Density = 1.809110 g / cm^3
# Si number density = 18.132372 Si / 1000 Ang^3
#
#
#
# Elastic Constant Matrix: (Units=GPa)
#
#
# Indices 1 2 3 4 5 6 
#
# 1 86.7422 8.8999 42.9883 0.0000 0.0000 0.0000
# 2 8.8999 53.0621 2.8999 0.0000 0.0000 0.0000
# 3 42.9883 2.8999 118.9603 0.0000 0.0000 0.0000
# 4 0.0000 0.0000 0.0000 16.3477 0.0000 0.0000
# 5 0.0000 0.0000 0.0000 0.0000 21.7702 0.0000
# 6 0.0000 0.0000 0.0000 0.0000 0.0000 16.8824
#
#
#
# Elastic Compliance Matrix: (Units=1/GPa)
#
#
# Indices 1 2 3 4 5 6 
#
# 1 0.014277 -0.002115 -0.005108 0.000000 0.000000 0.000000
# 2 -0.002115 0.019184 0.000297 0.000000 0.000000 0.000000
# 3 -0.005108 0.000297 0.010245 0.000000 0.000000 0.000000
# 4 0.000000 0.000000 0.000000 0.061171 0.000000 0.000000
# 5 0.000000 0.000000 0.000000 0.000000 0.045934 0.000000
# 6 0.000000 0.000000 0.000000 0.000000 0.000000 0.059233
#
#
# Mechanical properties :
#
#
# Convention : Reuss Voigt Hill
#
# Bulk Modulus (GPa) = 33.49710 40.92677 37.21194
# Shear Modulus (GPa) = 21.38145 24.59850 22.98997
#
# Velocity S-wave (km/s) = 3.43765 3.68721 3.56462
# Velocity P-wave (km/s) = 5.85409 6.38337 6.12445
#
# Compressibility (1/GPa) = 0.02985333
#
# Stress axis : x y z
#
# Youngs Moduli (GPa) = 70.04422 52.12562 97.61211
#
# Poissons Ratio (x) = 0.11027 0.49856
# Poissons Ratio (y) = 0.14818 -0.02897
# Poissons Ratio (z) = 0.35775 -0.01547
#
# Static dielectric constant tensor:
#      x y z
#    x 3.021490 0.000000 0.000000 
#    y 0.000000 3.196840 0.000000 
#    z 0.000000 0.000000 3.450190 
# 
# 
# High freq. dielectric constant tensor:
#      x y z
#    x 1.677680 0.000000 0.000000 
#    y 0.000000 1.696260 0.000000 
#    z 0.000000 0.000000 1.713370 
# 
# From -- ./inp_files/5853.got.cif
#   From: 2010.03.12/outbox.cif.g09.slc.cpg/sg62_3_cif.got.tgz:5853.got - 2010.04.10 19:12:36.
