data_PCOD8255819
_publ_section_title
;
Structure prediction by ZEFSAII (Michael W. Deem and Ramdas Pophale) SiO2 
 PCOD8255819
Probable space group: C M C M
;
_chemical_formula_sum "Si O2"
_cell_formula_units_Z 88
_cell_length_a 26.707858
_cell_length_b 14.031198
_cell_length_c 14.380958
_cell_angle_alpha 90.000000
_cell_angle_beta 90.000000
_cell_angle_gamma 90.000000
_cell_volume 5389.166849
_symmetry_space_group_name_H-M "C M C M"
_symmetry_group_IT_number 63
_symmetry_cell_setting 'orthorhombic'
loop_
_space_group_symop_operation_xyz
x,y,z
-x,-y,1/2+z
x,-y,-z
-x,y,1/2-z
-x,-y,-z
x,y,1/2-z
-x,y,z
x,-y,1/2+z
1/2+x,1/2+y,z
1/2-x,1/2-y,1/2+z
1/2+x,1/2-y,-z
1/2-x,1/2+y,1/2-z
1/2-x,1/2-y,-z
1/2+x,1/2+y,1/2-z
1/2-x,1/2+y,z
1/2+x,1/2-y,1/2+z
loop_
_atom_site_type_symbol
_atom_site_label
_atom_site_fract_x
_atom_site_fract_y
_atom_site_fract_z
Si Si1 0.723101 0.500000 0.000000
Si Si2 0.860727 0.684858 0.640753
Si Si3 0.305698 0.292907 0.008876
Si Si4 0.057848 0.612598 0.991165
Si Si5 0.872285 0.323396 0.855972
Si Si6 0.197745 0.497564 0.647768
O O1 0.691477 0.593265 0.973292
O O2 0.757700 0.463163 0.916650
O O3 0.866314 0.708029 0.750000
O O4 0.837833 0.774162 0.584937
O O5 0.914325 0.653278 0.600125
O O6 0.821033 0.601737 0.619349
O O7 0.332643 0.249129 0.099201
O O8 0.250000 0.250000 0.000000
O O9 0.077320 0.668346 0.083045
O O10 0.000000 0.637580 0.979009
O O11 0.066829 0.500000 0.000000
O O12 0.884621 0.291800 0.750000
O O13 0.849269 0.428386 0.858578
O O14 0.220863 0.498703 0.750000
#
# Coordination Sequence:
#
# PCOD8255819 Si02
#       6
#     8  16  16  16  16  16
#     4  12  20  34  46  72 100 128 174 220 242 278
#     4  10  20  34  49  71 102 138 170 200 242 293
#     4  11  21  32  51  70  99 135 172 209 248 290
#     4  10  19  31  50  77 105 132 163 200 245 298
#     4  10  20  34  49  71 102 138 170 200 242 293
#     4  10  18  28  48  70  99 135 168 200 239 286
#
# _framework density 16.329055
#
# number of rings (size 3 to 8) (size 9 to 14) (size 15 to 20)
#    0.000    1.636    5.455    1.091    0.000    2.909 
#    0.000    1.818    0.000    0.000    0.000   10.182 
#    0.000   11.636    0.000    0.000    0.000    0.000 
#
# Total GULP energy -545497.963644 kJ/mol
# GULP energy per Si atom -12397.680992 kJ/mol
# Density = 1.629189 g / cm^3
# Si number density = 16.329055 Si / 1000 Ang^3
#
#
#
# Elastic Constant Matrix: (Units=GPa)
#
#
# Indices 1 2 3 4 5 6 
#
# 1 79.6342 17.5150 46.2648 0.0000 0.0000 0.0000
# 2 17.5150 62.1007 21.1670 0.0000 0.0000 0.0000
# 3 46.2648 21.1670 123.6412 0.0000 0.0000 0.0000
# 4 0.0000 0.0000 0.0000 18.5282 0.0000 0.0000
# 5 0.0000 0.0000 0.0000 0.0000 67.5845 0.0000
# 6 0.0000 0.0000 0.0000 0.0000 0.0000 20.5260
#
#
#
# Elastic Compliance Matrix: (Units=1/GPa)
#
#
# Indices 1 2 3 4 5 6 
#
# 1 0.016461 -0.002701 -0.005697 0.000000 0.000000 0.000000
# 2 -0.002701 0.017544 -0.001993 0.000000 0.000000 0.000000
# 3 -0.005697 -0.001993 0.010561 0.000000 0.000000 0.000000
# 4 0.000000 0.000000 0.000000 0.053972 0.000000 0.000000
# 5 0.000000 0.000000 0.000000 0.000000 0.014796 0.000000
# 6 0.000000 0.000000 0.000000 0.000000 0.000000 0.048719
#
#
# Mechanical properties :
#
#
# Convention : Reuss Voigt Hill
#
# Bulk Modulus (GPa) = 42.04463 48.36333 45.20398
# Shear Modulus (GPa) = 26.21056 33.35638 29.78347
#
# Velocity S-wave (km/s) = 4.01078 4.52460 4.27541
# Velocity P-wave (km/s) = 6.87406 7.54839 7.21910
#
# Compressibility (1/GPa) = 0.02378425
#
# Stress axis : x y z
#
# Youngs Moduli (GPa) = 60.74836 56.99988 94.68891
#
# Poissons Ratio (x) = 0.15395 0.53946
# Poissons Ratio (y) = 0.16408 0.18870
# Poissons Ratio (z) = 0.34610 0.11359
#
# Static dielectric constant tensor:
#      x y z
#    x 2.874530 0.000000 0.000000 
#    y 0.000000 2.960580 0.000000 
#    z 0.000000 0.000000 3.222910 
# 
# 
# High freq. dielectric constant tensor:
#      x y z
#    x 1.604200 0.000000 0.000000 
#    y 0.000000 1.605810 0.000000 
#    z 0.000000 0.000000 1.642660 
# 
# From -- ./inp_files/36723.got.cif
#   From: 2010.03.12/outbox.cif.g09.slc.cpg/sg63_19_cif.got.tgz:36723.got - 2010.04.10 19:34:48.
