data_PCOD8255643
_publ_section_title
;
Structure prediction by ZEFSAII (Michael W. Deem and Ramdas Pophale) SiO2 
 PCOD8255643
Probable space group: C M C M
;
_chemical_formula_sum "Si O2"
_cell_formula_units_Z 112
_cell_length_a 20.890780
_cell_length_b 17.527959
_cell_length_c 18.726203
_cell_angle_alpha 90.000000
_cell_angle_beta 90.000000
_cell_angle_gamma 90.000000
_cell_volume 6857.024975
_symmetry_space_group_name_H-M "C M C M"
_symmetry_group_IT_number 63
_symmetry_cell_setting 'orthorhombic'
loop_
_space_group_symop_operation_xyz
x,y,z
-x,-y,1/2+z
x,-y,-z
-x,y,1/2-z
-x,-y,-z
x,y,1/2-z
-x,y,z
x,-y,1/2+z
1/2+x,1/2+y,z
1/2-x,1/2-y,1/2+z
1/2+x,1/2-y,-z
1/2-x,1/2+y,1/2-z
1/2-x,1/2-y,-z
1/2+x,1/2+y,1/2-z
1/2-x,1/2+y,z
1/2+x,1/2-y,1/2+z
loop_
_atom_site_type_symbol
_atom_site_label
_atom_site_fract_x
_atom_site_fract_y
_atom_site_fract_z
Si Si1 0.926123 0.323508 0.831876
Si Si2 0.353672 0.030610 0.332929
Si Si3 0.689244 0.589874 0.671503
Si Si4 0.332792 0.723486 0.575959
Si Si5 0.162569 0.631401 0.670622
Si Si6 0.812600 0.774728 0.586209
Si Si7 0.216787 0.921280 0.666935
O O1 0.906752 0.302599 0.750000
O O2 0.913526 0.413593 0.844981
O O3 0.884664 0.278188 0.888720
O O4 0.000000 0.306119 0.845989
O O5 0.338137 0.015640 0.250000
O O6 0.289032 0.069412 0.364774
O O7 0.369727 0.945617 0.363832
O O8 0.659764 0.607780 0.750000
O O9 0.655387 0.640583 0.611124
O O10 0.763093 0.611587 0.673123
O O11 0.679314 0.500624 0.653845
O O12 0.262364 0.755960 0.589315
O O13 0.343212 0.716448 0.491697
O O14 0.136322 0.649273 0.750000
O O15 0.148248 0.705865 0.623198
O O16 0.821765 0.854914 0.626388
O O17 0.219005 0.898663 0.750000
#
# Coordination Sequence:
#
# PCOD8255643 Si02
#       7
#    16  16  16  16  16  16  16
#     4  10  19  31  50  70  88 121 164 198 231 272
#     4   8  14  26  43  62  87 116 148 192 233 265
#     4   8  15  26  41  61  86 118 149 182 230 278
#     4  10  19  29  40  63  97 123 149 187 231 285
#     4   8  14  25  41  61  85 116 152 185 224 277
#     4  10  18  26  41  65  93 127 152 178 233 288
#     4   9  15  25  43  66  90 118 150 182 225 282
#
# _framework density 16.333614000000001
#
# number of rings (size 3 to 8) (size 9 to 14) (size 15 to 20)
#    0.000    3.000    1.429    2.571    0.000    1.714 
#    0.000    0.714    0.000    1.714    0.000    2.000 
#    0.000    2.857    0.000    0.571    0.000    0.000 
#
# Total GULP energy -693913.492744 kJ/mol
# GULP energy per Si atom -12391.312370 kJ/mol
# Density = 1.629644 g / cm^3
# Si number density = 16.333614 Si / 1000 Ang^3
#
#
#
# Elastic Constant Matrix: (Units=GPa)
#
#
# Indices 1 2 3 4 5 6 
#
# 1 35.1888 22.1315 27.6531 0.0000 0.0000 0.0000
# 2 22.1315 131.4676 72.5550 0.0000 0.0000 0.0000
# 3 27.6531 72.5550 104.3825 0.0000 0.0000 0.0000
# 4 0.0000 0.0000 0.0000 11.2452 0.0000 0.0000
# 5 0.0000 0.0000 0.0000 0.0000 13.2199 0.0000
# 6 0.0000 0.0000 0.0000 0.0000 0.0000 10.1588
#
#
#
# Elastic Compliance Matrix: (Units=1/GPa)
#
#
# Indices 1 2 3 4 5 6 
#
# 1 0.036025 -0.001294 -0.008645 0.000000 0.000000 0.000000
# 2 -0.001294 0.012387 -0.008267 0.000000 0.000000 0.000000
# 3 -0.008645 -0.008267 0.017617 0.000000 0.000000 0.000000
# 4 0.000000 0.000000 0.000000 0.088927 0.000000 0.000000
# 5 0.000000 0.000000 0.000000 0.000000 0.075644 0.000000
# 6 0.000000 0.000000 0.000000 0.000000 0.000000 0.098437
#
#
# Mechanical properties :
#
#
# Convention : Reuss Voigt Hill
#
# Bulk Modulus (GPa) = 33.76361 57.30199 45.53280
# Shear Modulus (GPa) = 13.32200 16.83807 15.08004
#
# Velocity S-wave (km/s) = 2.85900 3.21422 3.04180
# Velocity P-wave (km/s) = 5.62269 6.99524 6.34618
#
# Compressibility (1/GPa) = 0.02961768
#
# Stress axis : x y z
#
# Youngs Moduli (GPa) = 27.75843 80.73163 56.76453
#
# Poissons Ratio (x) = 0.10445 0.49070
# Poissons Ratio (y) = 0.03591 0.46928
# Poissons Ratio (z) = 0.23996 0.66742
#
# Static dielectric constant tensor:
#      x y z
#    x 2.489990 0.000000 0.000000 
#    y 0.000000 3.373800 0.000000 
#    z 0.000000 0.000000 3.057410 
# 
# 
# High freq. dielectric constant tensor:
#      x y z
#    x 1.555190 0.000000 0.000000 
#    y 0.000000 1.646350 0.000000 
#    z 0.000000 0.000000 1.613560 
# 
# From -- ./inp_files/47318.got.cif
#   From: 2010.03.12/outbox.cif.g09.slc.cpg/sg63_24_cif.got.tgz:47318.got - 2010.04.10 19:34:48.
