data_PCOD8255774
_publ_section_title
;
Structure prediction by ZEFSAII (Michael W. Deem and Ramdas Pophale) SiO2 
 PCOD8255774
Probable space group: C M C M
;
_chemical_formula_sum "Si O2"
_cell_formula_units_Z 96
_cell_length_a 29.363888
_cell_length_b 23.113915
_cell_length_c 8.806459
_cell_angle_alpha 90.000000
_cell_angle_beta 90.000000
_cell_angle_gamma 90.000000
_cell_volume 5977.070636
_symmetry_space_group_name_H-M "C M C M"
_symmetry_group_IT_number 63
_symmetry_cell_setting 'orthorhombic'
loop_
_space_group_symop_operation_xyz
x,y,z
-x,-y,1/2+z
x,-y,-z
-x,y,1/2-z
-x,-y,-z
x,y,1/2-z
-x,y,z
x,-y,1/2+z
1/2+x,1/2+y,z
1/2-x,1/2-y,1/2+z
1/2+x,1/2-y,-z
1/2-x,1/2+y,1/2-z
1/2-x,1/2-y,-z
1/2+x,1/2+y,1/2-z
1/2-x,1/2+y,z
1/2+x,1/2-y,1/2+z
loop_
_atom_site_type_symbol
_atom_site_label
_atom_site_fract_x
_atom_site_fract_y
_atom_site_fract_z
Si Si1 0.407703 0.614337 0.426076
Si Si2 0.092028 0.749159 0.574231
Si Si3 0.818850 0.061140 0.571040
Si Si4 0.500000 0.751272 0.921357
Si Si5 0.682501 0.766603 0.925193
Si Si6 0.231968 0.838929 0.924429
Si Si7 0.000000 0.113653 0.921504
O O1 0.405419 0.598269 0.250000
O O2 0.403084 0.682534 0.453536
O O3 0.367420 0.582539 0.512323
O O4 0.455307 0.590610 0.492241
O O5 0.094433 0.732863 0.750000
O O6 0.044547 0.725504 0.507965
O O7 0.132457 0.716639 0.484538
O O8 0.820923 0.055515 0.750000
O O9 0.778751 0.105134 0.524578
O O10 0.806017 0.000000 0.500000
O O11 0.500000 0.775095 0.750000
O O12 0.500000 0.682487 0.923766
O O13 0.680934 0.746880 0.750000
O O14 0.715078 0.822252 0.945857
O O15 0.700368 0.714053 0.026206
O O16 0.220016 0.852600 0.750000
O O17 0.000000 0.089872 0.750000
#
# Coordination Sequence:
#
# PCOD8255774 Si02
#       7
#    16  16  16   8  16  16   8
#     4  10  19  32  48  67  90 117 152 194 237 281
#     4  10  18  28  45  67  95 124 155 192 231 276
#     4  12  24  37  53  69  90 120 155 195 239 286
#     4   9  17  27  41  62  92 123 158 190 226 278
#     4  10  19  30  49  72  96 123 153 190 233 276
#     4  10  20  34  49  70  95 120 153 193 234 279
#     4   9  17  29  46  66  87 115 151 192 236 282
#
# _framework density 16.06138
#
# number of rings (size 3 to 8) (size 9 to 14) (size 15 to 20)
#    0.000    1.833    1.667    4.000    0.000    5.333 
#    0.000    0.417    0.000    0.000    0.000    0.000 
#    0.000    0.000    0.000    0.750    0.000   10.000 
#
# Total GULP energy -595330.713741 kJ/mol
# GULP energy per Si atom -12402.723203 kJ/mol
# Density = 1.602482 g / cm^3
# Si number density = 16.061380 Si / 1000 Ang^3
#
#
#
# Elastic Constant Matrix: (Units=GPa)
#
#
# Indices 1 2 3 4 5 6 
#
# 1 120.3077 36.5883 55.6958 0.0000 0.0000 0.0000
# 2 36.5883 44.7396 35.1340 0.0000 0.0000 0.0000
# 3 55.6958 35.1340 126.2392 0.0000 0.0000 0.0000
# 4 0.0000 0.0000 0.0000 19.2917 0.0000 0.0000
# 5 0.0000 0.0000 0.0000 0.0000 31.8004 0.0000
# 6 0.0000 0.0000 0.0000 0.0000 0.0000 22.4330
#
#
#
# Elastic Compliance Matrix: (Units=1/GPa)
#
#
# Indices 1 2 3 4 5 6 
#
# 1 0.012046 -0.007266 -0.003292 0.000000 0.000000 0.000000
# 2 -0.007266 0.032985 -0.005975 0.000000 0.000000 0.000000
# 3 -0.003292 -0.005975 0.011037 0.000000 0.000000 0.000000
# 4 0.000000 0.000000 0.000000 0.051836 0.000000 0.000000
# 5 0.000000 0.000000 0.000000 0.000000 0.031446 0.000000
# 6 0.000000 0.000000 0.000000 0.000000 0.000000 0.044577
#
#
# Mechanical properties :
#
#
# Convention : Reuss Voigt Hill
#
# Bulk Modulus (GPa) = 43.47334 60.68028 52.07681
# Shear Modulus (GPa) = 22.25582 25.62958 23.94270
#
# Velocity S-wave (km/s) = 3.72650 3.99899 3.86515
# Velocity P-wave (km/s) = 6.75585 7.69317 7.23969
#
# Compressibility (1/GPa) = 0.02300260
#
# Stress axis : x y z
#
# Youngs Moduli (GPa) = 83.01590 30.31648 90.60513
#
# Poissons Ratio (x) = 0.22027 0.29831
# Poissons Ratio (y) = 0.60316 0.54134
# Poissons Ratio (z) = 0.27332 0.18113
#
# Static dielectric constant tensor:
#      x y z
#    x 3.269140 0.000000 0.000000 
#    y 0.000000 2.672900 0.000000 
#    z 0.000000 0.000000 3.228320 
# 
# 
# High freq. dielectric constant tensor:
#      x y z
#    x 1.625720 0.000000 0.000000 
#    y 0.000000 1.551380 0.000000 
#    z 0.000000 0.000000 1.641640 
# 
# From -- ./inp_files/12805.got.cif
#   From: 2010.03.12/outbox.cif.g09.slc.cpg/sg63_7_cif.got.tgz:12805.got - 2010.04.10 19:34:48.
