data_PCOD8255579
_publ_section_title
;
Structure prediction by ZEFSAII (Michael W. Deem and Ramdas Pophale) SiO2 
 PCOD8255579
Probable space group: C M C M
;
_chemical_formula_sum "Si O2"
_cell_formula_units_Z 128
_cell_length_a 19.862938
_cell_length_b 22.462150
_cell_length_c 17.220969
_cell_angle_alpha 90.000000
_cell_angle_beta 90.000000
_cell_angle_gamma 90.000000
_cell_volume 7683.381455
_symmetry_space_group_name_H-M "C M C M"
_symmetry_group_IT_number 63
_symmetry_cell_setting 'orthorhombic'
loop_
_space_group_symop_operation_xyz
x,y,z
-x,-y,1/2+z
x,-y,-z
-x,y,1/2-z
-x,-y,-z
x,y,1/2-z
-x,y,z
x,-y,1/2+z
1/2+x,1/2+y,z
1/2-x,1/2-y,1/2+z
1/2+x,1/2-y,-z
1/2-x,1/2+y,1/2-z
1/2-x,1/2-y,-z
1/2+x,1/2+y,1/2-z
1/2-x,1/2+y,z
1/2+x,1/2-y,1/2+z
loop_
_atom_site_type_symbol
_atom_site_label
_atom_site_fract_x
_atom_site_fract_y
_atom_site_fract_z
Si Si1 0.927570 0.664152 0.658072
Si Si2 0.795220 0.755975 0.403414
Si Si3 0.924499 0.199918 0.338846
Si Si4 0.571925 0.714678 0.839868
Si Si5 0.304885 0.443517 0.051552
Si Si6 0.188820 0.827802 0.949097
Si Si7 0.922321 0.921679 0.159638
Si Si8 0.283621 0.870880 0.341930
O O1 0.929022 0.661898 0.750000
O O2 0.921147 0.732379 0.632449
O O3 0.861492 0.629428 0.628420
O O4 0.000000 0.638468 0.626594
O O5 0.865959 0.742956 0.360738
O O6 0.818632 0.773658 0.490047
O O7 0.754490 0.693514 0.399770
O O8 0.752614 0.808863 0.363468
O O9 0.900532 0.193529 0.250000
O O10 0.875042 0.162946 0.393581
O O11 0.000000 0.174487 0.348392
O O12 0.559103 0.717111 0.750000
O O13 0.500000 0.733088 0.879768
O O14 0.590306 0.647009 0.862947
O O15 0.374893 0.456304 0.098090
O O16 0.249660 0.428060 0.117184
O O17 0.284883 0.500000 0.000000
O O18 0.303528 0.389892 0.991073
O O19 0.902480 0.933912 0.250000
O O20 0.000000 0.940095 0.146206
O O21 0.278057 0.879537 0.250000
#
# Coordination Sequence:
#
# PCOD8255579 Si02
#       8
#    16  16  16  16  16  16  16  16
#     4   8  14  25  45  75 102 120 148 192 240 295
#     4  10  18  28  46  74 101 121 152 196 244 299
#     4   9  17  29  45  68  99 130 156 186 235 299
#     4   9  16  27  47  75 101 124 155 197 242 290
#     4  11  23  36  49  67  99 136 172 211 247 288
#     4  10  20  31  45  67  98 129 158 191 244 294
#     4   9  17  32  54  75  94 123 171 219 246 274
#     4  10  17  30  55  76  95 125 162 204 251 294
#
# _framework density 16.659331000000002
#
# number of rings (size 3 to 8) (size 9 to 14) (size 15 to 20)
#    0.000    2.500    3.750    2.250    0.000    1.750 
#    0.000    1.250    0.000    1.875    0.000    0.000 
#    0.000    2.000    0.000    0.000    0.000    0.000 
#
# Total GULP energy -792866.069474 kJ/mol
# GULP energy per Si atom -12388.532336 kJ/mol
# Density = 1.662141 g / cm^3
# Si number density = 16.659331 Si / 1000 Ang^3
#
#
#
# Elastic Constant Matrix: (Units=GPa)
#
#
# Indices 1 2 3 4 5 6 
#
# 1 130.4791 31.9582 46.3514 0.0000 0.0000 0.0000
# 2 31.9582 46.8933 31.4831 0.0000 0.0000 0.0000
# 3 46.3514 31.4831 60.7489 0.0000 0.0000 0.0000
# 4 0.0000 0.0000 0.0000 20.6509 0.0000 0.0000
# 5 0.0000 0.0000 0.0000 0.0000 22.1637 0.0000
# 6 0.0000 0.0000 0.0000 0.0000 0.0000 15.3534
#
#
#
# Elastic Compliance Matrix: (Units=1/GPa)
#
#
# Indices 1 2 3 4 5 6 
#
# 1 0.010747 -0.002789 -0.006754 0.000000 0.000000 0.000000
# 2 -0.002789 0.033428 -0.015196 0.000000 0.000000 0.000000
# 3 -0.006754 -0.015196 0.029490 0.000000 0.000000 0.000000
# 4 0.000000 0.000000 0.000000 0.048424 0.000000 0.000000
# 5 0.000000 0.000000 0.000000 0.000000 0.045119 0.000000
# 6 0.000000 0.000000 0.000000 0.000000 0.000000 0.065132
#
#
# Mechanical properties :
#
#
# Convention : Reuss Voigt Hill
#
# Bulk Modulus (GPa) = 41.34626 50.85630 46.10128
# Shear Modulus (GPa) = 17.24852 20.18883 18.71867
#
# Velocity S-wave (km/s) = 3.22120 3.48496 3.35567
# Velocity P-wave (km/s) = 6.22153 6.84008 6.53812
#
# Compressibility (1/GPa) = 0.02418599
#
# Stress axis : x y z
#
# Youngs Moduli (GPa) = 93.05298 29.91495 33.91011
#
# Poissons Ratio (x) = 0.08344 0.22903
# Poissons Ratio (y) = 0.25956 0.51529
# Poissons Ratio (z) = 0.62848 0.45458
#
# Static dielectric constant tensor:
#      x y z
#    x 3.777550 0.000000 0.000000 
#    y 0.000000 2.740360 0.000000 
#    z 0.000000 0.000000 3.129760 
# 
# 
# High freq. dielectric constant tensor:
#      x y z
#    x 1.660540 0.000000 0.000000 
#    y 0.000000 1.570380 0.000000 
#    z 0.000000 0.000000 1.638750 
# 
# From -- ./inp_files/47613.got.cif
#   From: 2010.03.12/outbox.cif.g09.slc.cpg/sg63_24_cif.got.tgz:47613.got - 2010.04.10 19:34:48.
