data_PCOD8255538
_publ_section_title
;
Structure prediction by ZEFSAII (Michael W. Deem and Ramdas Pophale) SiO2 
 PCOD8255538
Probable space group: C M C M
;
_chemical_formula_sum "Si O2"
_cell_formula_units_Z 80
_cell_length_a 9.710436
_cell_length_b 24.683268
_cell_length_c 20.462609
_cell_angle_alpha 90.000000
_cell_angle_beta 90.000000
_cell_angle_gamma 90.000000
_cell_volume 4904.586458
_symmetry_space_group_name_H-M "C M C M"
_symmetry_group_IT_number 63
_symmetry_cell_setting 'orthorhombic'
loop_
_space_group_symop_operation_xyz
x,y,z
-x,-y,1/2+z
x,-y,-z
-x,y,1/2-z
-x,-y,-z
x,y,1/2-z
-x,y,z
x,-y,1/2+z
1/2+x,1/2+y,z
1/2-x,1/2-y,1/2+z
1/2+x,1/2-y,-z
1/2-x,1/2+y,1/2-z
1/2-x,1/2-y,-z
1/2+x,1/2+y,1/2-z
1/2-x,1/2+y,z
1/2+x,1/2-y,1/2+z
loop_
_atom_site_type_symbol
_atom_site_label
_atom_site_fract_x
_atom_site_fract_y
_atom_site_fract_z
Si Si1 0.000000 0.913385 0.821534
Si Si2 0.000000 0.325724 0.455656
Si Si3 0.214422 0.853908 0.997088
Si Si4 0.500000 0.211876 0.179716
Si Si5 0.787993 0.823831 0.648905
Si Si6 0.500000 0.276851 0.050861
Si Si7 0.500000 0.443002 0.965064
Si Si8 0.000000 0.267179 0.322637
O O1 0.864906 0.876220 0.823833
O O2 0.000000 0.951937 0.885770
O O3 0.000000 0.943688 0.750000
O O4 0.132566 0.362295 0.474326
O O5 0.000000 0.270358 0.496970
O O6 0.000000 0.313400 0.378213
O O7 0.134438 0.813990 0.045411
O O8 0.216916 0.822461 0.928956
O O9 0.136777 0.911086 0.988020
O O10 0.500000 0.241564 0.250000
O O11 0.366664 0.173503 0.175451
O O12 0.500000 0.256555 0.124296
O O13 0.863716 0.769351 0.671316
O O14 0.500000 0.500000 0.000000
O O15 0.000000 0.293986 0.250000
#
# Coordination Sequence:
#
# PCOD8255538 Si02
#       8
#     8   8  16   8  16   8   8   8
#     4   9  17  30  50  70  93 118 150 189 240 300
#     4  12  18  30  49  69 100 126 168 189 223 287
#     4  10  19  31  51  73  88 131 163 197 237 276
#     4  12  21  25  38  65 104 136 155 187 228 268
#     4  10  17  29  42  66  97 126 159 190 230 281
#     4  11  18  30  46  65 101 132 167 180 220 275
#     4   9  20  37  55  71  95 115 157 207 250 284
#     4  11  20  28  42  62  95 137 169 194 221 258
#
# _framework density 16.311263
#
# number of rings (size 3 to 8) (size 9 to 14) (size 15 to 20)
#    0.000    1.600    4.000    5.400    0.000    0.000 
#    0.000    0.500    0.000    3.600    0.000    0.000 
#    0.000    0.000    0.000    0.000    0.000    0.000 
#
# Total GULP energy -495849.913381 kJ/mol
# GULP energy per Si atom -12396.247835 kJ/mol
# Density = 1.627414 g / cm^3
# Si number density = 16.311263 Si / 1000 Ang^3
#
#
#
# Elastic Constant Matrix: (Units=GPa)
#
#
# Indices 1 2 3 4 5 6 
#
# 1 141.0765 32.6554 39.5731 0.0000 0.0000 0.0000
# 2 32.6554 54.9860 48.3554 0.0000 0.0000 0.0000
# 3 39.5731 48.3554 151.9038 0.0000 0.0000 0.0000
# 4 0.0000 0.0000 0.0000 16.5939 0.0000 0.0000
# 5 0.0000 0.0000 0.0000 0.0000 -59.2645 0.0000
# 6 0.0000 0.0000 0.0000 0.0000 0.0000 4.1351
#
#
#
# Elastic Compliance Matrix: (Units=1/GPa)
#
#
# Indices 1 2 3 4 5 6 
#
# 1 0.008291 -0.004201 -0.000823 0.000000 0.000000 0.000000
# 2 -0.004201 0.027385 -0.007623 0.000000 0.000000 0.000000
# 3 -0.000823 -0.007623 0.009224 0.000000 0.000000 0.000000
# 4 0.000000 0.000000 0.000000 0.060263 0.000000 0.000000
# 5 0.000000 0.000000 0.000000 0.000000 -0.016874 0.000000
# 6 0.000000 0.000000 0.000000 0.000000 0.000000 0.241832
#
#
# Mechanical properties :
#
#
# Convention : Reuss Voigt Hill
#
# Bulk Modulus (GPa) = 51.00094 65.45936 58.23015
# Shear Modulus (GPa) = 13.81400 7.45173 10.63287
#
# Velocity S-wave (km/s) = 2.91331 2.13971 2.55595
# Velocity P-wave (km/s) = 6.53083 6.80610 6.66988
#
# Compressibility (1/GPa) = 0.01960748
#
# Stress axis : x y z
#
# Youngs Moduli (GPa) = 120.60554 36.51637 108.41092
#
# Poissons Ratio (x) = 0.15339 0.08921
# Poissons Ratio (y) = 0.50661 0.82643
# Poissons Ratio (z) = 0.09925 0.27837
#
# Static dielectric constant tensor:
#      x y z
#    x 3.515560 0.000000 0.000000 
#    y 0.000000 2.483630 0.000000 
#    z 0.000000 0.000000 3.322760 
# 
# 
# High freq. dielectric constant tensor:
#      x y z
#    x 1.646030 0.000000 0.000000 
#    y 0.000000 1.552030 0.000000 
#    z 0.000000 0.000000 1.642570 
# 
# From -- ./inp_files/51244.got.cif
#   From: 2010.03.12/outbox.cif.g09.slc.cpg/sg63_26_cif.got.tgz:51244.got - 2010.04.10 19:34:48.
