data_PCOD8255071
_publ_section_title
;
Structure prediction by ZEFSAII (Michael W. Deem and Ramdas Pophale) SiO2 
 PCOD8255071
Probable space group: P N M A
;
_chemical_formula_sum "Si O2"
_cell_formula_units_Z 32
_cell_length_a 7.240905
_cell_length_b 18.035597
_cell_length_c 12.525358
_cell_angle_alpha 90.000000
_cell_angle_beta 90.000000
_cell_angle_gamma 90.000000
_cell_volume 1635.737160
_symmetry_space_group_name_H-M "P N M A"
_symmetry_group_IT_number 62
_symmetry_cell_setting 'orthorhombic'
loop_
_space_group_symop_operation_xyz
x,y,z
1/2-x,-y,1/2+z
1/2+x,1/2-y,1/2-z
-x,1/2+y,-z
-x,-y,-z
1/2+x,y,1/2-z
1/2-x,1/2+y,1/2+z
x,1/2-y,z
loop_
_atom_site_type_symbol
_atom_site_label
_atom_site_fract_x
_atom_site_fract_y
_atom_site_fract_z
Si Si1 0.590468 0.908913 0.156758
Si Si2 0.215943 0.523782 0.123212
Si Si3 0.580429 0.402744 0.498215
Si Si4 0.914219 0.750000 0.316527
Si Si5 0.492092 0.250000 0.580888
O O1 0.634816 0.931805 0.277173
O O2 0.433692 0.964096 0.113006
O O3 0.772927 0.922602 0.090126
O O4 0.525587 0.823552 0.150866
O O5 0.116002 0.558043 0.019396
O O6 0.164349 0.435160 0.114474
O O7 0.541101 0.315859 0.499777
O O8 0.879781 0.750000 0.187866
O O9 0.718669 0.750000 0.377412
#
# Coordination Sequence:
#
# PCOD8255071 Si02
#       5
#     8   8   8   4   4
#     4  12  20  38  58  84 119 148 184 235 282 340
#     4  11  22  36  55  87 112 150 187 226 283 339
#     4  11  23  36  57  82 116 149 187 229 283 331
#     4  12  20  32  56  87 110 148 179 226 308 334
#     4  12  20  36  54  81 120 142 185 238 278 344
#
# _framework density 19.563044999999999
#
# number of rings (size 3 to 8) (size 9 to 14) (size 15 to 20)
#    0.000    0.500    7.500    3.000    0.000    0.000 
#    0.000    0.000    0.000    1.500    0.000    0.000 
#    0.000    0.000    0.000    0.000    0.000    0.000 
#
# Total GULP energy -396512.424705 kJ/mol
# GULP energy per Si atom -12391.013272 kJ/mol
# Density = 1.951852 g / cm^3
# Si number density = 19.563045 Si / 1000 Ang^3
#
#
#
# Elastic Constant Matrix: (Units=GPa)
#
#
# Indices 1 2 3 4 5 6 
#
# 1 81.4031 26.6532 10.3090 0.0000 0.0000 0.0000
# 2 26.6532 111.1981 24.6572 0.0000 0.0000 0.0000
# 3 10.3090 24.6572 28.1136 0.0000 0.0000 0.0000
# 4 0.0000 0.0000 0.0000 31.4144 0.0000 0.0000
# 5 0.0000 0.0000 0.0000 0.0000 18.9694 0.0000
# 6 0.0000 0.0000 0.0000 0.0000 0.0000 24.0855
#
#
#
# Elastic Compliance Matrix: (Units=1/GPa)
#
#
# Indices 1 2 3 4 5 6 
#
# 1 0.013484 -0.002651 -0.002619 0.000000 0.000000 0.000000
# 2 -0.002651 0.011685 -0.009277 0.000000 0.000000 0.000000
# 3 -0.002619 -0.009277 0.044667 0.000000 0.000000 0.000000
# 4 0.000000 0.000000 0.000000 0.031832 0.000000 0.000000
# 5 0.000000 0.000000 0.000000 0.000000 0.052716 0.000000
# 6 0.000000 0.000000 0.000000 0.000000 0.000000 0.041519
#
#
# Mechanical properties :
#
#
# Convention : Reuss Voigt Hill
#
# Bulk Modulus (GPa) = 24.54467 38.21708 31.38087
# Shear Modulus (GPa) = 20.95740 25.50022 23.22881
#
# Velocity S-wave (km/s) = 3.27658 3.61430 3.44958
# Velocity P-wave (km/s) = 5.18540 6.08238 5.65171
#
# Compressibility (1/GPa) = 0.04074204
#
# Stress axis : x y z
#
# Youngs Moduli (GPa) = 74.16006 85.57644 22.38810
#
# Poissons Ratio (x) = 0.22689 0.05864
# Poissons Ratio (y) = 0.19662 0.20769
# Poissons Ratio (z) = 0.19425 0.79386
#
# Static dielectric constant tensor:
#      x y z
#    x 3.938100 0.000000 0.000000 
#    y 0.000000 3.996320 0.000000 
#    z 0.000000 0.000000 3.363900 
# 
# 
# High freq. dielectric constant tensor:
#      x y z
#    x 1.791920 0.000000 0.000000 
#    y 0.000000 1.769780 0.000000 
#    z 0.000000 0.000000 1.705450 
# 
# From -- ./inp_files/11029.got.cif
#   From: 2010.03.12/outbox.cif.g09.slc.cpg/sg62_6_cif.got.tgz:11029.got - 2010.04.10 19:12:36.
