data_PCOD8255576
_publ_section_title
;
Structure prediction by ZEFSAII (Michael W. Deem and Ramdas Pophale) SiO2 
 PCOD8255576
Probable space group: C M C M
;
_chemical_formula_sum "Si O2"
_cell_formula_units_Z 112
_cell_length_a 17.629834
_cell_length_b 19.442206
_cell_length_c 18.834211
_cell_angle_alpha 90.000000
_cell_angle_beta 90.000000
_cell_angle_gamma 90.000000
_cell_volume 6455.668111
_symmetry_space_group_name_H-M "C M C M"
_symmetry_group_IT_number 63
_symmetry_cell_setting 'orthorhombic'
loop_
_space_group_symop_operation_xyz
x,y,z
-x,-y,1/2+z
x,-y,-z
-x,y,1/2-z
-x,-y,-z
x,y,1/2-z
-x,y,z
x,-y,1/2+z
1/2+x,1/2+y,z
1/2-x,1/2-y,1/2+z
1/2+x,1/2-y,-z
1/2-x,1/2+y,1/2-z
1/2-x,1/2-y,-z
1/2+x,1/2+y,1/2-z
1/2-x,1/2+y,z
1/2+x,1/2-y,1/2+z
loop_
_atom_site_type_symbol
_atom_site_label
_atom_site_fract_x
_atom_site_fract_y
_atom_site_fract_z
Si Si1 0.639473 0.046692 0.936996
Si Si2 0.825438 0.684694 0.093324
Si Si3 0.583105 0.193147 0.605073
Si Si4 0.267267 0.783959 0.328843
Si Si5 0.584663 0.297945 0.479019
Si Si6 0.089762 0.438986 0.832600
Si Si7 0.230071 0.869566 0.036667
O O1 0.603948 0.123077 0.937684
O O2 0.730905 0.055278 0.952810
O O3 0.621528 0.011849 0.861289
O O4 0.603776 0.000000 0.000000
O O5 0.764691 0.707906 0.153147
O O6 0.886239 0.745636 0.081663
O O7 0.868935 0.618140 0.120624
O O8 0.779904 0.672345 0.020534
O O9 0.500000 0.183878 0.638999
O O10 0.641309 0.211511 0.667664
O O11 0.583744 0.257268 0.552338
O O12 0.241438 0.805030 0.250000
O O13 0.233529 0.835476 0.386164
O O14 0.500000 0.324152 0.459681
O O15 0.641148 0.364831 0.485365
O O16 0.111043 0.432408 0.750000
O O17 0.000000 0.433900 0.844062
#
# Coordination Sequence:
#
# PCOD8255576 Si02
#       7
#    16  16  16  16  16  16  16
#     4  11  20  33  51  72  97 141 177 208 242 304
#     4  11  17  35  53  76 100 141 174 212 245 309
#     4  10  19  30  47  73 104 135 166 208 255 302
#     4  10  19  31  49  73 102 137 171 211 260 305
#     4  10  17  30  54  79 103 127 163 216 267 301
#     4  11  24  37  50  76 110 138 172 215 255 302
#     4  10  19  34  52  75 101 130 178 217 247 306
#
# _framework density 17.349094999999998
#
# number of rings (size 3 to 8) (size 9 to 14) (size 15 to 20)
#    0.000    1.571    5.714    2.143    0.000    4.857 
#    0.000    0.000    0.000    4.286    0.000    0.000 
#    0.000    2.286    0.000    0.000    0.000    0.000 
#
# Total GULP energy -693764.428671 kJ/mol
# GULP energy per Si atom -12388.650512 kJ/mol
# Density = 1.730961 g / cm^3
# Si number density = 17.349095 Si / 1000 Ang^3
#
#
#
# Elastic Constant Matrix: (Units=GPa)
#
#
# Indices 1 2 3 4 5 6 
#
# 1 114.1771 26.7437 22.3800 0.0000 0.0000 0.0000
# 2 26.7437 36.0482 17.4623 0.0000 0.0000 0.0000
# 3 22.3800 17.4623 96.9766 0.0000 0.0000 0.0000
# 4 0.0000 0.0000 0.0000 16.5034 0.0000 0.0000
# 5 0.0000 0.0000 0.0000 0.0000 19.7561 0.0000
# 6 0.0000 0.0000 0.0000 0.0000 0.0000 25.3362
#
#
#
# Elastic Compliance Matrix: (Units=1/GPa)
#
#
# Indices 1 2 3 4 5 6 
#
# 1 0.010714 -0.007396 -0.001141 0.000000 0.000000 0.000000
# 2 -0.007396 0.035497 -0.004685 0.000000 0.000000 0.000000
# 3 -0.001141 -0.004685 0.011419 0.000000 0.000000 0.000000
# 4 0.000000 0.000000 0.000000 0.060593 0.000000 0.000000
# 5 0.000000 0.000000 0.000000 0.000000 0.050617 0.000000
# 6 0.000000 0.000000 0.000000 0.000000 0.000000 0.039469
#
#
# Mechanical properties :
#
#
# Convention : Reuss Voigt Hill
#
# Bulk Modulus (GPa) = 32.06544 42.26377 37.16461
# Shear Modulus (GPa) = 20.39570 24.36021 22.37795
#
# Velocity S-wave (km/s) = 3.43243 3.75122 3.59536
# Velocity P-wave (km/s) = 5.85076 6.57084 6.22123
#
# Compressibility (1/GPa) = 0.03118622
#
# Stress axis : x y z
#
# Youngs Moduli (GPa) = 93.33276 28.17117 87.57600
#
# Poissons Ratio (x) = 0.20836 0.09991
# Poissons Ratio (y) = 0.69031 0.41029
# Poissons Ratio (z) = 0.10648 0.13198
#
# Static dielectric constant tensor:
#      x y z
#    x 3.692850 0.000000 0.000000 
#    y 0.000000 3.214350 0.000000 
#    z 0.000000 0.000000 3.090240 
# 
# 
# High freq. dielectric constant tensor:
#      x y z
#    x 1.671090 0.000000 0.000000 
#    y 0.000000 1.641720 0.000000 
#    z 0.000000 0.000000 1.661480 
# 
# From -- ./inp_files/46113.got.cif
#   From: 2010.03.12/outbox.cif.g09.slc.cpg/sg63_24_cif.got.tgz:46113.got - 2010.04.10 19:34:48.
