data_PCOD8255062
_publ_section_title
;
Structure prediction by ZEFSAII (Michael W. Deem and Ramdas Pophale) SiO2 
 PCOD8255062
Probable space group: P N M A
;
_chemical_formula_sum "Si O2"
_cell_formula_units_Z 48
_cell_length_a 23.391325
_cell_length_b 8.865451
_cell_length_c 12.037856
_cell_angle_alpha 90.000000
_cell_angle_beta 90.000000
_cell_angle_gamma 90.000000
_cell_volume 2496.346122
_symmetry_space_group_name_H-M "P N M A"
_symmetry_group_IT_number 62
_symmetry_cell_setting 'orthorhombic'
loop_
_space_group_symop_operation_xyz
x,y,z
1/2-x,-y,1/2+z
1/2+x,1/2-y,1/2-z
-x,1/2+y,-z
-x,-y,-z
1/2+x,y,1/2-z
1/2-x,1/2+y,1/2+z
x,1/2-y,z
loop_
_atom_site_type_symbol
_atom_site_label
_atom_site_fract_x
_atom_site_fract_y
_atom_site_fract_z
Si Si1 0.142491 0.429054 0.847856
Si Si2 0.726211 0.075630 0.842622
Si Si3 0.955415 0.929340 0.307432
Si Si4 0.583682 0.571522 0.219776
Si Si5 0.876758 0.575613 0.504552
Si Si6 0.342490 0.571596 0.596139
O O1 0.140715 0.250000 0.849442
O O2 0.195187 0.479470 0.770005
O O3 0.082955 0.490190 0.795468
O O4 0.150897 0.493599 0.971305
O O5 0.744951 0.250000 0.833835
O O6 0.781222 0.972349 0.855831
O O7 0.684365 0.051601 0.946930
O O8 0.954617 0.750000 0.305894
O O9 0.927129 0.983398 0.423135
O O10 0.019469 0.992247 0.297212
O O11 0.584675 0.750000 0.230225
O O12 0.622608 0.522030 0.116237
O O13 0.607205 0.501305 0.332562
O O14 0.886074 0.750000 0.535422
O O15 0.349143 0.750000 0.599426
#
# Coordination Sequence:
#
# PCOD8255062 Si02
#       6
#     8   8   8   8   8   8
#     4   8  17  36  58  77 103 141 180 220 273 326
#     4   9  19  37  59  80 105 139 178 225 276 328
#     4   8  16  34  58  81 107 143 183 223 271 326
#     4  11  22  34  53  82 114 146 183 223 267 321
#     4   9  18  35  59  84 110 142 180 226 278 323
#     4  11  23  36  53  80 110 144 183 225 271 323
#
# _framework density 19.228102
#
# number of rings (size 3 to 8) (size 9 to 14) (size 15 to 20)
#    0.000    2.667    0.000    3.500    2.333    1.333 
#    0.000    1.667    0.000    7.000    0.000    0.000 
#    0.000    0.000    0.000    0.000    0.000    0.000 
#
# Total GULP energy -595186.383243 kJ/mol
# GULP energy per Si atom -12399.716318 kJ/mol
# Density = 1.918434 g / cm^3
# Si number density = 19.228102 Si / 1000 Ang^3
#
#
#
# Elastic Constant Matrix: (Units=GPa)
#
#
# Indices 1 2 3 4 5 6 
#
# 1 66.8051 16.9778 25.1982 0.0000 0.0000 0.0000
# 2 16.9778 44.7643 23.0225 0.0000 0.0000 0.0000
# 3 25.1982 23.0225 126.8450 0.0000 0.0000 0.0000
# 4 0.0000 0.0000 0.0000 24.8976 0.0000 0.0000
# 5 0.0000 0.0000 0.0000 0.0000 22.5120 0.0000
# 6 0.0000 0.0000 0.0000 0.0000 0.0000 24.8073
#
#
#
# Elastic Compliance Matrix: (Units=1/GPa)
#
#
# Indices 1 2 3 4 5 6 
#
# 1 0.017239 -0.005269 -0.002468 0.000000 0.000000 0.000000
# 2 -0.005269 0.026250 -0.003718 0.000000 0.000000 0.000000
# 3 -0.002468 -0.003718 0.009049 0.000000 0.000000 0.000000
# 4 0.000000 0.000000 0.000000 0.040164 0.000000 0.000000
# 5 0.000000 0.000000 0.000000 0.000000 0.044421 0.000000
# 6 0.000000 0.000000 0.000000 0.000000 0.000000 0.040311
#
#
# Mechanical properties :
#
#
# Convention : Reuss Voigt Hill
#
# Bulk Modulus (GPa) = 33.75212 40.97904 37.36558
# Shear Modulus (GPa) = 23.78479 25.99112 24.88795
#
# Velocity S-wave (km/s) = 3.52089 3.68057 3.60161
# Velocity P-wave (km/s) = 5.84128 6.27857 6.06387
#
# Compressibility (1/GPa) = 0.02962777
#
# Stress axis : x y z
#
# Youngs Moduli (GPa) = 58.00828 38.09593 110.51274
#
# Poissons Ratio (x) = 0.20072 0.27278
# Poissons Ratio (y) = 0.30563 0.41085
# Poissons Ratio (z) = 0.14318 0.14163
#
# Static dielectric constant tensor:
#      x y z
#    x 3.656560 0.000000 0.000000 
#    y 0.000000 3.109720 0.000000 
#    z 0.000000 0.000000 3.752870 
# 
# 
# High freq. dielectric constant tensor:
#      x y z
#    x 1.753530 0.000000 0.000000 
#    y 0.000000 1.714130 0.000000 
#    z 0.000000 0.000000 1.756090 
# 
# From -- ./inp_files/15089.got.cif
#   From: 2010.03.12/outbox.cif.g09.slc.cpg/sg62_8_cif.got.tgz:15089.got - 2010.04.10 19:12:36.
