data_PCOD8255015
_publ_section_title
;
Structure prediction by ZEFSAII (Michael W. Deem and Ramdas Pophale) SiO2 
 PCOD8255015
Probable space group: P N M A
;
_chemical_formula_sum "Si O2"
_cell_formula_units_Z 48
_cell_length_a 16.504116
_cell_length_b 8.872650
_cell_length_c 18.053702
_cell_angle_alpha 90.000000
_cell_angle_beta 90.000000
_cell_angle_gamma 90.000000
_cell_volume 2643.698272
_symmetry_space_group_name_H-M "P N M A"
_symmetry_group_IT_number 62
_symmetry_cell_setting 'orthorhombic'
loop_
_space_group_symop_operation_xyz
x,y,z
1/2-x,-y,1/2+z
1/2+x,1/2-y,1/2-z
-x,1/2+y,-z
-x,-y,-z
1/2+x,y,1/2-z
1/2-x,1/2+y,1/2+z
x,1/2-y,z
loop_
_atom_site_type_symbol
_atom_site_label
_atom_site_fract_x
_atom_site_fract_y
_atom_site_fract_z
Si Si1 0.494676 0.427533 0.079966
Si Si2 0.832451 0.923426 0.402102
Si Si3 0.745068 0.577421 0.555180
Si Si4 0.329881 0.071373 0.669250
Si Si5 0.583165 0.928155 0.474768
Si Si6 0.141753 0.928056 0.335462
O O1 0.501392 0.250000 0.071835
O O2 0.409698 0.474276 0.116807
O O3 0.566133 0.485463 0.131306
O O4 0.500000 0.500000 0.000000
O O5 0.853345 0.750000 0.383872
O O6 0.808119 0.939819 0.487945
O O7 0.759972 0.986834 0.351021
O O8 0.742833 0.750000 0.582058
O O9 0.655491 0.524066 0.530538
O O10 0.775518 0.473052 0.622401
O O11 0.326704 0.250000 0.663273
O O12 0.394616 0.013157 0.608096
O O13 0.353303 0.016360 0.750652
O O14 0.573387 0.750000 0.475031
O O15 0.500000 0.000000 0.500000
O O16 0.128898 0.750000 0.341439
#
# Coordination Sequence:
#
# PCOD8255015 Si02
#       6
#     8   8   8   8   8   8
#     4  12  23  35  54  83 114 145 183 225 272 326
#     4   9  17  35  59  78 102 141 183 221 268 321
#     4   9  18  33  55  78 106 141 177 223 276 319
#     4   8  18  37  58  79 107 144 182 223 274 326
#     4   9  18  36  59  81 106 142 186 227 270 320
#     4  11  21  35  56  82 111 144 184 225 272 329
#
# _framework density 18.156383999999999
#
# number of rings (size 3 to 8) (size 9 to 14) (size 15 to 20)
#    0.000    2.333    1.667    4.000    0.000    0.667 
#    3.000    5.833    0.000    0.000    0.000    0.000 
#    0.000    0.000    0.000    0.000    0.000    0.000 
#
# Total GULP energy -595147.928274 kJ/mol
# GULP energy per Si atom -12398.915172 kJ/mol
# Density = 1.811506 g / cm^3
# Si number density = 18.156384 Si / 1000 Ang^3
#
#
#
# Elastic Constant Matrix: (Units=GPa)
#
#
# Indices 1 2 3 4 5 6 
#
# 1 153.3332 52.1349 81.3879 0.0000 0.0000 0.0000
# 2 52.1349 79.5012 51.5087 0.0000 0.0000 0.0000
# 3 81.3879 51.5087 136.1887 0.0000 0.0000 0.0000
# 4 0.0000 0.0000 0.0000 23.4766 0.0000 0.0000
# 5 0.0000 0.0000 0.0000 0.0000 25.3061 0.0000
# 6 0.0000 0.0000 0.0000 0.0000 0.0000 35.4522
#
#
#
# Elastic Compliance Matrix: (Units=1/GPa)
#
#
# Indices 1 2 3 4 5 6 
#
# 1 0.010299 -0.003664 -0.004769 0.000000 0.000000 0.000000
# 2 -0.003664 0.017965 -0.004605 0.000000 0.000000 0.000000
# 3 -0.004769 -0.004605 0.011934 0.000000 0.000000 0.000000
# 4 0.000000 0.000000 0.000000 0.042596 0.000000 0.000000
# 5 0.000000 0.000000 0.000000 0.000000 0.039516 0.000000
# 6 0.000000 0.000000 0.000000 0.000000 0.000000 0.028207
#
#
# Mechanical properties :
#
#
# Convention : Reuss Voigt Hill
#
# Bulk Modulus (GPa) = 70.81001 82.12069 76.46535
# Shear Modulus (GPa) = 27.57866 29.11309 28.34587
#
# Velocity S-wave (km/s) = 3.90160 4.00867 3.95550
# Velocity P-wave (km/s) = 7.70593 8.17030 7.94151
#
# Compressibility (1/GPa) = 0.01412230
#
# Stress axis : x y z
#
# Youngs Moduli (GPa) = 97.09843 55.66486 83.79157
#
# Poissons Ratio (x) = 0.20395 0.39960
# Poissons Ratio (y) = 0.35576 0.38585
# Poissons Ratio (z) = 0.46306 0.25633
#
# Static dielectric constant tensor:
#      x y z
#    x 3.572770 0.000000 0.000000 
#    y 0.000000 3.327170 0.000000 
#    z 0.000000 0.000000 2.766870 
# 
# 
# High freq. dielectric constant tensor:
#      x y z
#    x 1.712950 0.000000 0.000000 
#    y 0.000000 1.686590 0.000000 
#    z 0.000000 0.000000 1.692830 
# 
# From -- ./inp_files/24222.got.cif
#   From: 2010.03.12/outbox.cif.g09.slc.cpg/sg62_13_cif.got.tgz:24222.got - 2010.04.10 19:12:36.
