data_PCOD8255236
_publ_section_title
;
Structure prediction by ZEFSAII (Michael W. Deem and Ramdas Pophale) SiO2 
 PCOD8255236
Probable space group: P N M A
;
_chemical_formula_sum "Si O2"
_cell_formula_units_Z 32
_cell_length_a 27.921330
_cell_length_b 5.161678
_cell_length_c 10.569208
_cell_angle_alpha 90.000000
_cell_angle_beta 90.000000
_cell_angle_gamma 90.000000
_cell_volume 1523.243926
_symmetry_space_group_name_H-M "P N M A"
_symmetry_group_IT_number 62
_symmetry_cell_setting 'orthorhombic'
loop_
_space_group_symop_operation_xyz
x,y,z
1/2-x,-y,1/2+z
1/2+x,1/2-y,1/2-z
-x,1/2+y,-z
-x,-y,-z
1/2+x,y,1/2-z
1/2-x,1/2+y,1/2+z
x,1/2-y,z
loop_
_atom_site_type_symbol
_atom_site_label
_atom_site_fract_x
_atom_site_fract_y
_atom_site_fract_z
Si Si1 0.190638 0.750000 0.326314
Si Si2 0.554915 0.250000 0.273303
Si Si3 0.824092 0.250000 0.965326
Si Si4 0.449437 0.250000 0.283800
Si Si5 0.888844 0.750000 0.285284
Si Si6 0.360438 0.750000 0.924824
Si Si7 0.069806 0.750000 0.056989
Si Si8 0.297179 0.750000 0.394255
O O1 0.171507 0.750000 0.184892
O O2 0.171646 0.499989 0.399056
O O3 0.247963 0.750000 0.317299
O O4 0.501288 0.250000 0.215046
O O5 0.591502 0.250000 0.157569
O O6 0.563037 0.499944 0.358423
O O7 0.878593 0.250000 0.012647
O O8 0.797119 0.502182 0.014941
O O9 0.420194 0.501130 0.244990
O O10 0.464113 0.250000 0.433431
O O11 0.875105 0.750000 0.430496
O O12 0.840515 0.750000 0.203821
#
# Coordination Sequence:
#
# PCOD8255236 Si02
#       8
#     4   4   4   4   4   4   4   4
#     4  12  27  44  70  99 130 173 222 274 329 391
#     4  12  24  42  70 100 132 176 222 276 334 395
#     4  12  23  46  72  97 133 173 215 281 328 385
#     4  12  25  42  69  99 134 176 222 273 336 395
#     4  12  26  45  64  96 137 177 219 273 327 397
#     4  12  26  47  66  97 137 176 223 275 327 395
#     4  12  21  43  67 101 135 165 220 280 338 381
#     4  12  26  43  68  97 130 172 219 270 331 393
#
# _framework density 21.007798000000001
#
# number of rings (size 3 to 8) (size 9 to 14) (size 15 to 20)
#    0.000    0.000    5.000    5.250    3.500    1.000 
#    0.000    0.000    0.000    0.000    0.000    0.000 
#    0.000    0.000    0.000    0.000    0.000    0.000 
#
# Total GULP energy -396980.774830 kJ/mol
# GULP energy per Si atom -12405.649213 kJ/mol
# Density = 2.095998 g / cm^3
# Si number density = 21.007798 Si / 1000 Ang^3
#
#
#
# Elastic Constant Matrix: (Units=GPa)
#
#
# Indices 1 2 3 4 5 6 
#
# 1 147.0059 58.0825 28.9479 0.0000 0.0000 0.0000
# 2 58.0825 200.8789 53.3763 0.0000 0.0000 0.0000
# 3 28.9479 53.3763 115.5558 0.0000 0.0000 0.0000
# 4 0.0000 0.0000 0.0000 8.5588 0.0000 0.0000
# 5 0.0000 0.0000 0.0000 0.0000 25.2550 0.0000
# 6 0.0000 0.0000 0.0000 0.0000 0.0000 -256.3207
#
#
#
# Elastic Compliance Matrix: (Units=1/GPa)
#
#
# Indices 1 2 3 4 5 6 
#
# 1 0.007788 -0.001976 -0.001038 0.000000 0.000000 0.000000
# 2 -0.001976 0.006176 -0.002358 0.000000 0.000000 0.000000
# 3 -0.001038 -0.002358 0.010003 0.000000 0.000000 0.000000
# 4 0.000000 0.000000 0.000000 0.116839 0.000000 0.000000
# 5 0.000000 0.000000 0.000000 0.000000 0.039596 0.000000
# 6 0.000000 0.000000 0.000000 0.000000 0.000000 -0.003901
#
#
# Mechanical properties :
#
#
# Convention : Reuss Voigt Hill
#
# Bulk Modulus (GPa) = 75.62661 82.69490 79.16075
# Shear Modulus (GPa) = 26.08911 -22.96577 1.56167
#
# Velocity S-wave (km/s) = 3.52785 -3.30995 0.86313
# Velocity P-wave (km/s) = 7.25753 4.98414 6.22549
#
# Compressibility (1/GPa) = 0.01322286
#
# Stress axis : x y z
#
# Youngs Moduli (GPa) = 128.41008 161.91960 99.97031
#
# Poissons Ratio (x) = 0.31993 0.10379
# Poissons Ratio (y) = 0.25372 0.23570
# Poissons Ratio (z) = 0.13332 0.38176
#
# Static dielectric constant tensor:
#      x y z
#    x 4.122010 0.000000 0.000000 
#    y 0.000000 3.958970 0.000000 
#    z 0.000000 0.000000 3.741130 
# 
# 
# High freq. dielectric constant tensor:
#      x y z
#    x 1.841560 0.000000 0.000000 
#    y 0.000000 1.847850 0.000000 
#    z 0.000000 0.000000 1.822520 
# 
# From -- ./inp_files/9636.got.cif
#   From: 2010.03.12/outbox.cif.g09.slc.cpg/sg62_5_cif.got.tgz:9636.got - 2010.04.10 19:12:36.
