data_PCOD8255238
_publ_section_title
;
Structure prediction by ZEFSAII (Michael W. Deem and Ramdas Pophale) SiO2 
 PCOD8255238
Probable space group: P N M A
;
_chemical_formula_sum "Si O2"
_cell_formula_units_Z 24
_cell_length_a 18.905567
_cell_length_b 9.467930
_cell_length_c 6.362795
_cell_angle_alpha 90.000000
_cell_angle_beta 90.000000
_cell_angle_gamma 90.000000
_cell_volume 1138.918576
_symmetry_space_group_name_H-M "P N M A"
_symmetry_group_IT_number 62
_symmetry_cell_setting 'orthorhombic'
loop_
_space_group_symop_operation_xyz
x,y,z
1/2-x,-y,1/2+z
1/2+x,1/2-y,1/2-z
-x,1/2+y,-z
-x,-y,-z
1/2+x,y,1/2-z
1/2-x,1/2+y,1/2+z
x,1/2-y,z
loop_
_atom_site_type_symbol
_atom_site_label
_atom_site_fract_x
_atom_site_fract_y
_atom_site_fract_z
Si Si1 0.373580 0.250000 0.600604
Si Si2 0.617376 0.053530 0.548264
Si Si3 0.784614 0.750000 0.285793
Si Si4 0.616484 0.250000 0.167885
Si Si5 0.518922 0.250000 0.789480
O O1 0.381360 0.384860 0.449080
O O2 0.299550 0.250000 0.721546
O O3 0.434269 0.250000 0.779294
O O4 0.687414 0.110750 0.665811
O O5 0.616799 0.109319 0.309055
O O6 0.548364 0.110506 0.670761
O O7 0.813597 0.750000 0.523682
O O8 0.544801 0.250000 0.029516
#
# Coordination Sequence:
#
# PCOD8255238 Si02
#       5
#     4   8   4   4   4
#     4  12  22  34  68  90 114 158 202 236 300 354
#     4   9  21  41  58  85 122 154 192 246 291 344
#     4   9  22  40  57  83 123 159 191 241 290 348
#     4   8  18  42  62  74 128 154 184 246 290 340
#     4   9  20  42  61  89 119 155 193 245 296 348
#
# _framework density 21.072623
#
# number of rings (size 3 to 8) (size 9 to 14) (size 15 to 20)
#    0.000    3.333    0.000    1.000    4.667    1.333 
#    0.000   16.667    0.000    0.000    0.000    0.000 
#    0.000    0.000    0.000    0.000    0.000    0.000 
#
# Total GULP energy -297586.406731 kJ/mol
# GULP energy per Si atom -12399.433614 kJ/mol
# Density = 2.102466 g / cm^3
# Si number density = 21.072623 Si / 1000 Ang^3
#
#
#
# Elastic Constant Matrix: (Units=GPa)
#
#
# Indices 1 2 3 4 5 6 
#
# 1 154.9775 19.7906 31.6890 0.0000 0.0000 0.0000
# 2 19.7906 174.5083 40.8304 0.0000 0.0000 0.0000
# 3 31.6890 40.8304 128.9821 0.0000 0.0000 0.0000
# 4 0.0000 0.0000 0.0000 5.5706 0.0000 0.0000
# 5 0.0000 0.0000 0.0000 0.0000 21.2072 0.0000
# 6 0.0000 0.0000 0.0000 0.0000 0.0000 16.9948
#
#
#
# Elastic Compliance Matrix: (Units=1/GPa)
#
#
# Indices 1 2 3 4 5 6 
#
# 1 0.006821 -0.000412 -0.001545 0.000000 0.000000 0.000000
# 2 -0.000412 0.006214 -0.001866 0.000000 0.000000 0.000000
# 3 -0.001545 -0.001866 0.008723 0.000000 0.000000 0.000000
# 4 0.000000 0.000000 0.000000 0.179514 0.000000 0.000000
# 5 0.000000 0.000000 0.000000 0.000000 0.047154 0.000000
# 6 0.000000 0.000000 0.000000 0.000000 0.000000 0.058841
#
#
# Mechanical properties :
#
#
# Convention : Reuss Voigt Hill
#
# Bulk Modulus (GPa) = 70.86288 71.45422 71.15855
# Shear Modulus (GPa) = 15.64369 33.16504 24.40437
#
# Velocity S-wave (km/s) = 2.72760 3.97148 3.40679
# Velocity P-wave (km/s) = 6.60460 7.41703 7.02257
#
# Compressibility (1/GPa) = 0.01411176
#
# Stress axis : x y z
#
# Youngs Moduli (GPa) = 146.60252 160.93602 114.63509
#
# Poissons Ratio (x) = 0.06630 0.17716
# Poissons Ratio (y) = 0.06040 0.21388
# Poissons Ratio (z) = 0.22657 0.30027
#
# Static dielectric constant tensor:
#      x y z
#    x 3.713320 0.000000 0.000000 
#    y 0.000000 3.731350 0.000000 
#    z 0.000000 0.000000 3.654440 
# 
# 
# High freq. dielectric constant tensor:
#      x y z
#    x 1.821980 0.000000 0.000000 
#    y 0.000000 1.821180 0.000000 
#    z 0.000000 0.000000 1.817340 
# 
# From -- ./inp_files/1395.got.cif
#   From: 2010.03.12/outbox.cif.g09.slc.cpg/sg62_1_cif.got.tgz:1395.got - 2010.04.10 19:12:36.
