data_PCOD8255666
_publ_section_title
;
Structure prediction by ZEFSAII (Michael W. Deem and Ramdas Pophale) SiO2 
 PCOD8255666
Probable space group: C M C M
;
_chemical_formula_sum "Si O2"
_cell_formula_units_Z 80
_cell_length_a 26.531223
_cell_length_b 20.171988
_cell_length_c 10.226116
_cell_angle_alpha 90.000000
_cell_angle_beta 90.000000
_cell_angle_gamma 90.000000
_cell_volume 5472.889579
_symmetry_space_group_name_H-M "C M C M"
_symmetry_group_IT_number 63
_symmetry_cell_setting 'orthorhombic'
loop_
_space_group_symop_operation_xyz
x,y,z
-x,-y,1/2+z
x,-y,-z
-x,y,1/2-z
-x,-y,-z
x,y,1/2-z
-x,y,z
x,-y,1/2+z
1/2+x,1/2+y,z
1/2-x,1/2-y,1/2+z
1/2+x,1/2-y,-z
1/2-x,1/2+y,1/2-z
1/2-x,1/2-y,-z
1/2+x,1/2+y,1/2-z
1/2-x,1/2+y,z
1/2+x,1/2-y,1/2+z
loop_
_atom_site_type_symbol
_atom_site_label
_atom_site_fract_x
_atom_site_fract_y
_atom_site_fract_z
Si Si1 0.236483 0.077490 0.994467
Si Si2 0.136232 0.163296 0.511467
Si Si3 0.664100 0.274616 0.750000
Si Si4 0.734588 0.141590 0.250000
Si Si5 0.559131 0.441422 0.098758
Si Si6 0.325756 0.735262 0.750000
Si Si7 0.226087 0.351806 0.250000
O O1 0.182228 0.111837 0.987065
O O2 0.272227 0.100340 0.875633
O O3 0.266873 0.095790 0.123778
O O4 0.226168 0.000000 0.000000
O O5 0.131760 0.203061 0.375604
O O6 0.085262 0.124376 0.543852
O O7 0.142691 0.218847 0.621465
O O8 0.716596 0.312504 0.750000
O O9 0.676224 0.195382 0.750000
O O10 0.684885 0.186660 0.250000
O O11 0.575701 0.457140 0.250000
O O12 0.500000 0.428352 0.092881
O O13 0.575002 0.500000 0.000000
O O14 0.274048 0.695268 0.750000
#
# Coordination Sequence:
#
# PCOD8255666 Si02
#       7
#    16  16   8   8  16   8   8
#     4  10  18  27  40  59  85 112 144 178 211 246
#     4  10  18  30  44  63  81 107 147 184 214 245
#     4   9  18  28  43  61  80 106 140 181 213 246
#     4   9  17  28  40  58  79 109 141 174 213 250
#     4  10  21  35  48  63  85 112 142 179 222 260
#     4   9  16  28  45  57  78 106 142 181 213 246
#     4   9  17  28  40  58  83 109 139 178 213 246
#
# _framework density 14.617507
#
# number of rings (size 3 to 8) (size 9 to 14) (size 15 to 20)
#    0.000    2.400    1.000    2.400    1.400    4.800 
#    3.600    0.000    0.000    0.000    0.000    0.000 
#    0.000    0.000    0.000    0.000    0.000   70.000 
#
# Total GULP energy -495889.589563 kJ/mol
# GULP energy per Si atom -12397.239739 kJ/mol
# Density = 1.458424 g / cm^3
# Si number density = 14.617507 Si / 1000 Ang^3
#
#
#
# Elastic Constant Matrix: (Units=GPa)
#
#
# Indices 1 2 3 4 5 6 
#
# 1 29.2925 16.2043 22.9178 0.0000 0.0000 0.0000
# 2 16.2043 54.0417 32.1274 0.0000 0.0000 0.0000
# 3 22.9178 32.1274 137.6247 0.0000 0.0000 0.0000
# 4 0.0000 0.0000 0.0000 22.8568 0.0000 0.0000
# 5 0.0000 0.0000 0.0000 0.0000 15.1259 0.0000
# 6 0.0000 0.0000 0.0000 0.0000 0.0000 25.0370
#
#
#
# Elastic Compliance Matrix: (Units=1/GPa)
#
#
# Indices 1 2 3 4 5 6 
#
# 1 0.043583 -0.010164 -0.004885 0.000000 0.000000 0.000000
# 2 -0.010164 0.023857 -0.003877 0.000000 0.000000 0.000000
# 3 -0.004885 -0.003877 0.008985 0.000000 0.000000 0.000000
# 4 0.000000 0.000000 0.000000 0.043751 0.000000 0.000000
# 5 0.000000 0.000000 0.000000 0.000000 0.066112 0.000000
# 6 0.000000 0.000000 0.000000 0.000000 0.000000 0.039941
#
#
# Mechanical properties :
#
#
# Convention : Reuss Voigt Hill
#
# Bulk Modulus (GPa) = 25.92505 40.38421 33.15463
# Shear Modulus (GPa) = 18.05470 22.58457 20.31964
#
# Velocity S-wave (km/s) = 3.51827 3.93496 3.73243
# Velocity P-wave (km/s) = 5.85478 6.95216 6.42693
#
# Compressibility (1/GPa) = 0.03857273
#
# Stress axis : x y z
#
# Youngs Moduli (GPa) = 22.94478 41.91719 111.30254
#
# Poissons Ratio (x) = 0.42606 0.54369
# Poissons Ratio (y) = 0.23322 0.43147
# Poissons Ratio (z) = 0.11208 0.16249
#
# Static dielectric constant tensor:
#      x y z
#    x 2.481830 0.000000 0.000000 
#    y 0.000000 2.791840 0.000000 
#    z 0.000000 0.000000 3.062520 
# 
# 
# High freq. dielectric constant tensor:
#      x y z
#    x 1.505520 0.000000 0.000000 
#    y 0.000000 1.546860 0.000000 
#    z 0.000000 0.000000 1.585280 
# 
# From -- ./inp_files/23879.got.cif
#   From: 2010.03.12/outbox.cif.g09.slc.cpg/sg63_12_cif.got.tgz:23879.got - 2010.04.10 19:34:48.
