data_PCOD8255421
_publ_section_title
;
Structure prediction by ZEFSAII (Michael W. Deem and Ramdas Pophale) SiO2 
 PCOD8255421
Probable space group: C M C M
;
_chemical_formula_sum "Si O2"
_cell_formula_units_Z 96
_cell_length_a 22.683547
_cell_length_b 36.052669
_cell_length_c 10.302849
_cell_angle_alpha 90.000000
_cell_angle_beta 90.000000
_cell_angle_gamma 90.000000
_cell_volume 8425.694760
_symmetry_space_group_name_H-M "C M C M"
_symmetry_group_IT_number 63
_symmetry_cell_setting 'orthorhombic'
loop_
_space_group_symop_operation_xyz
x,y,z
-x,-y,1/2+z
x,-y,-z
-x,y,1/2-z
-x,-y,-z
x,y,1/2-z
-x,y,z
x,-y,1/2+z
1/2+x,1/2+y,z
1/2-x,1/2-y,1/2+z
1/2+x,1/2-y,-z
1/2-x,1/2+y,1/2-z
1/2-x,1/2-y,-z
1/2+x,1/2+y,1/2-z
1/2-x,1/2+y,z
1/2+x,1/2-y,1/2+z
loop_
_atom_site_type_symbol
_atom_site_label
_atom_site_fract_x
_atom_site_fract_y
_atom_site_fract_z
Si Si1 0.741105 0.197679 0.893371
Si Si2 0.430086 0.962082 0.250000
Si Si3 0.121520 0.339435 0.401151
Si Si4 0.822285 0.223430 0.104231
Si Si5 0.430110 0.045037 0.250000
Si Si6 0.565318 0.236037 0.904153
Si Si7 0.069990 0.586031 0.507860
O O1 0.768684 0.190657 0.750000
O O2 0.691289 0.166965 0.922145
O O3 0.711417 0.237781 0.893825
O O4 0.791719 0.195098 0.003322
O O5 0.500000 0.964608 0.250000
O O6 0.407954 0.940400 0.123436
O O7 0.403125 0.003538 0.250000
O O8 0.106623 0.346214 0.250000
O O9 0.085601 0.304096 0.456847
O O10 0.101870 0.374546 0.484246
O O11 0.821671 0.206197 0.250000
O O12 0.889082 0.231518 0.054441
O O13 0.500000 0.042048 0.250000
O O14 0.408333 0.067019 0.375916
O O15 0.566449 0.233484 0.750000
O O16 0.500000 0.245572 0.957341
O O17 0.000000 0.592173 0.512985
#
# Coordination Sequence:
#
# PCOD8255421 Si02
#       7
#    16   8  16  16   8  16  16
#     4   8  14  23  34  45  61  80 100 128 155 183
#     4   9  16  26  40  50  56  77 108 130 151 188
#     4   9  15  23  34  50  64  79 106 132 158 193
#     4   8  13  22  34  48  60  76 103 127 152 187
#     4   9  18  28  34  46  66  81  98 126 161 196
#     4   8  13  20  33  50  66  80 100 133 163 187
#     4  10  17  25  37  49  63  81 101 129 163 197
#
# _framework density 11.393719000000001
#
# number of rings (size 3 to 8) (size 9 to 14) (size 15 to 20)
#    0.000    3.333    0.833    3.000    0.000    2.667 
#    1.500    0.000    1.833    0.500    0.000    0.000 
#    0.000    0.000    0.000    0.000    0.000    0.000 
#
# Total GULP energy -594873.049712 kJ/mol
# GULP energy per Si atom -12393.188536 kJ/mol
# Density = 1.136779 g / cm^3
# Si number density = 11.393719 Si / 1000 Ang^3
#
#
#
# Elastic Constant Matrix: (Units=GPa)
#
#
# Indices 1 2 3 4 5 6 
#
# 1 58.9264 27.0913 32.6081 0.0000 0.0000 0.0000
# 2 27.0913 41.1516 29.7516 0.0000 0.0000 0.0000
# 3 32.6081 29.7516 73.8060 0.0000 0.0000 0.0000
# 4 0.0000 0.0000 0.0000 13.1087 0.0000 0.0000
# 5 0.0000 0.0000 0.0000 0.0000 11.7979 0.0000
# 6 0.0000 0.0000 0.0000 0.0000 0.0000 11.9291
#
#
#
# Elastic Compliance Matrix: (Units=1/GPa)
#
#
# Indices 1 2 3 4 5 6 
#
# 1 0.026421 -0.012637 -0.006579 0.000000 0.000000 0.000000
# 2 -0.012637 0.040340 -0.010678 0.000000 0.000000 0.000000
# 3 -0.006579 -0.010678 0.020760 0.000000 0.000000 0.000000
# 4 0.000000 0.000000 0.000000 0.076285 0.000000 0.000000
# 5 0.000000 0.000000 0.000000 0.000000 0.084761 0.000000
# 6 0.000000 0.000000 0.000000 0.000000 0.000000 0.083828
#
#
# Mechanical properties :
#
#
# Convention : Reuss Voigt Hill
#
# Bulk Modulus (GPa) = 36.05876 39.19846 37.62861
# Shear Modulus (GPa) = 12.45556 12.99600 12.72578
#
# Velocity S-wave (km/s) = 3.30994 3.38098 3.34565
# Velocity P-wave (km/s) = 6.80619 7.05122 6.92979
#
# Compressibility (1/GPa) = 0.02773251
#
# Stress axis : x y z
#
# Youngs Moduli (GPa) = 37.84899 24.78942 48.16974
#
# Poissons Ratio (x) = 0.31327 0.31690
# Poissons Ratio (y) = 0.47831 0.51435
# Poissons Ratio (z) = 0.24900 0.26470
#
# Static dielectric constant tensor:
#      x y z
#    x 2.400560 0.000000 0.000000 
#    y 0.000000 2.233170 0.000000 
#    z 0.000000 0.000000 2.475030 
# 
# 
# High freq. dielectric constant tensor:
#      x y z
#    x 1.399080 0.000000 0.000000 
#    y 0.000000 1.400570 0.000000 
#    z 0.000000 0.000000 1.426420 
# 
# From -- ./inp_files/24278.got.cif
#   From: 2010.03.12/outbox.cif.g09.slc.cpg/sg63_13_cif.got.tgz:24278.got - 2010.04.10 19:34:48.
