data_PCOD8255720
_publ_section_title
;
Structure prediction by ZEFSAII (Michael W. Deem and Ramdas Pophale) SiO2 
 PCOD8255720
Probable space group: C M C M
;
_chemical_formula_sum "Si O2"
_cell_formula_units_Z 96
_cell_length_a 27.534742
_cell_length_b 31.552158
_cell_length_c 8.998192
_cell_angle_alpha 90.000000
_cell_angle_beta 90.000000
_cell_angle_gamma 90.000000
_cell_volume 7817.454015
_symmetry_space_group_name_H-M "C M C M"
_symmetry_group_IT_number 63
_symmetry_cell_setting 'orthorhombic'
loop_
_space_group_symop_operation_xyz
x,y,z
-x,-y,1/2+z
x,-y,-z
-x,y,1/2-z
-x,-y,-z
x,y,1/2-z
-x,y,z
x,-y,1/2+z
1/2+x,1/2+y,z
1/2-x,1/2-y,1/2+z
1/2+x,1/2-y,-z
1/2-x,1/2+y,1/2-z
1/2-x,1/2-y,-z
1/2+x,1/2+y,1/2-z
1/2-x,1/2+y,z
1/2+x,1/2-y,1/2+z
loop_
_atom_site_type_symbol
_atom_site_label
_atom_site_fract_x
_atom_site_fract_y
_atom_site_fract_z
Si Si1 0.365776 0.752025 0.584820
Si Si2 0.195302 0.337755 0.919200
Si Si3 0.772573 0.790857 0.425224
Si Si4 0.445941 0.795129 0.424690
Si Si5 0.443815 0.044153 0.076350
Si Si6 0.889695 0.379089 0.426585
O O1 0.386744 0.747264 0.750000
O O2 0.332623 0.793505 0.572595
O O3 0.331118 0.711593 0.546196
O O4 0.412290 0.756050 0.478154
O O5 0.203081 0.352826 0.750000
O O6 0.248043 0.332173 0.998811
O O7 0.164423 0.372765 0.008606
O O8 0.761079 0.790471 0.250000
O O9 0.750000 0.750000 0.500000
O O10 0.448225 0.792776 0.250000
O O11 0.500000 0.790842 0.492788
O O12 0.423655 0.839883 0.476480
O O13 0.431258 0.041631 0.250000
O O14 0.500000 0.055609 0.049989
O O15 0.411357 0.079074 0.997684
O O16 0.430548 0.000000 0.000000
O O17 0.887158 0.383595 0.250000
#
# Coordination Sequence:
#
# PCOD8255720 Si02
#       6
#    16  16  16  16  16  16
#     4   8  15  24  33  46  63  83 106 131 158 191
#     4   9  16  25  36  51  68  84 104 129 160 198
#     4   9  15  23  34  48  65  84 106 130 158 193
#     4   9  17  26  35  48  65  85 109 136 166 200
#     4  10  20  32  44  56  69  86 109 137 169 206
#     4  10  18  28  41  54  69  87 107 134 169 207
#
# _framework density 12.280212000000001
#
# number of rings (size 3 to 8) (size 9 to 14) (size 15 to 20)
#    0.000    2.833    0.000    3.500    0.000    7.333 
#    0.000    0.000    0.000    0.000    0.000    0.000 
#    0.000    0.000    0.000    0.000    0.000    0.000 
#
# Total GULP energy -594855.084203 kJ/mol
# GULP energy per Si atom -12392.814254 kJ/mol
# Density = 1.225226 g / cm^3
# Si number density = 12.280212 Si / 1000 Ang^3
#
#
#
# Elastic Constant Matrix: (Units=GPa)
#
#
# Indices 1 2 3 4 5 6 
#
# 1 77.0415 45.5701 40.1450 0.0000 0.0000 0.0000
# 2 45.5701 44.0851 32.1496 0.0000 0.0000 0.0000
# 3 40.1450 32.1496 70.3002 0.0000 0.0000 0.0000
# 4 0.0000 0.0000 0.0000 17.3869 0.0000 0.0000
# 5 0.0000 0.0000 0.0000 0.0000 21.6735 0.0000
# 6 0.0000 0.0000 0.0000 0.0000 0.0000 21.2039
#
#
#
# Elastic Compliance Matrix: (Units=1/GPa)
#
#
# Indices 1 2 3 4 5 6 
#
# 1 0.034582 -0.032027 -0.005102 0.000000 0.000000 0.000000
# 2 -0.032027 0.063694 -0.010839 0.000000 0.000000 0.000000
# 3 -0.005102 -0.010839 0.022095 0.000000 0.000000 0.000000
# 4 0.000000 0.000000 0.000000 0.057515 0.000000 0.000000
# 5 0.000000 0.000000 0.000000 0.000000 0.046139 0.000000
# 6 0.000000 0.000000 0.000000 0.000000 0.000000 0.047161
#
#
# Mechanical properties :
#
#
# Convention : Reuss Voigt Hill
#
# Bulk Modulus (GPa) = 40.92449 47.46180 44.19315
# Shear Modulus (GPa) = 13.32385 16.95701 15.14043
#
# Velocity S-wave (km/s) = 3.29749 3.72000 3.51509
# Velocity P-wave (km/s) = 6.92068 7.56202 7.24844
#
# Compressibility (1/GPa) = 0.02443525
#
# Stress axis : x y z
#
# Youngs Moduli (GPa) = 28.91656 15.70019 45.25857
#
# Poissons Ratio (x) = 0.50282 0.23091
# Poissons Ratio (y) = 0.92610 0.49058
# Poissons Ratio (z) = 0.14753 0.17018
#
# Static dielectric constant tensor:
#      x y z
#    x 5.262510 0.000000 0.000000 
#    y 0.000000 2.206720 0.000000 
#    z 0.000000 0.000000 2.652980 
# 
# 
# High freq. dielectric constant tensor:
#      x y z
#    x 1.455030 0.000000 0.000000 
#    y 0.000000 1.410750 0.000000 
#    z 0.000000 0.000000 1.482730 
# 
# From -- ./inp_files/12972.got.cif
#   From: 2010.03.12/outbox.cif.g09.slc.cpg/sg63_7_cif.got.tgz:12972.got - 2010.04.10 19:34:48.
