data_PCOD8255542
_publ_section_title
;
Structure prediction by ZEFSAII (Michael W. Deem and Ramdas Pophale) SiO2 
 PCOD8255542
Probable space group: C M C M
;
_chemical_formula_sum "Si O2"
_cell_formula_units_Z 80
_cell_length_a 19.006919
_cell_length_b 33.148287
_cell_length_c 8.873781
_cell_angle_alpha 90.000000
_cell_angle_beta 90.000000
_cell_angle_gamma 90.000000
_cell_volume 5590.897376
_symmetry_space_group_name_H-M "C M C M"
_symmetry_group_IT_number 63
_symmetry_cell_setting 'orthorhombic'
loop_
_space_group_symop_operation_xyz
x,y,z
-x,-y,1/2+z
x,-y,-z
-x,y,1/2-z
-x,-y,-z
x,y,1/2-z
-x,y,z
x,-y,1/2+z
1/2+x,1/2+y,z
1/2-x,1/2-y,1/2+z
1/2+x,1/2-y,-z
1/2-x,1/2+y,1/2-z
1/2-x,1/2-y,-z
1/2+x,1/2+y,1/2-z
1/2-x,1/2+y,z
1/2+x,1/2-y,1/2+z
loop_
_atom_site_type_symbol
_atom_site_label
_atom_site_fract_x
_atom_site_fract_y
_atom_site_fract_z
Si Si1 0.500000 0.168072 0.928373
Si Si2 0.579900 0.040801 0.927047
Si Si3 0.500000 0.740714 0.428881
Si Si4 0.227928 0.310566 0.927054
Si Si5 0.855661 0.231139 0.927265
Si Si6 0.638727 0.875298 0.071770
O O1 0.500000 0.165643 0.750000
O O2 0.500000 0.213470 0.986926
O O3 0.568475 0.145802 0.990544
O O4 0.579108 0.035055 0.750000
O O5 0.500000 0.049534 0.983670
O O6 0.631882 0.077507 0.971377
O O7 0.610107 0.000000 0.000000
O O8 0.500000 0.736668 0.250000
O O9 0.570162 0.720541 0.495101
O O10 0.241911 0.311632 0.750000
O O11 0.170278 0.276351 0.969811
O O12 0.300535 0.301240 0.010614
O O13 0.203214 0.354412 0.985037
O O14 0.863256 0.225708 0.750000
O O15 0.648571 0.869117 0.250000
#
# Coordination Sequence:
#
# PCOD8255542 Si02
#       6
#     8  16   8  16  16  16
#     4   9  16  25  40  60  80 106 143 178 212 253
#     4   9  17  28  42  59  82 110 142 177 215 257
#     4  11  19  29  47  64  82 110 142 179 218 254
#     4  10  20  31  43  61  83 108 141 180 217 253
#     4  10  20  32  44  60  84 111 140 175 215 258
#     4  10  17  29  45  60  80 111 145 179 219 260
#
# _framework density 14.308973
#
# number of rings (size 3 to 8) (size 9 to 14) (size 15 to 20)
#    0.000    2.200    3.000    1.500    0.000    2.400 
#    0.000    0.500    0.000    0.000    0.000    0.000 
#    0.000    0.000    0.000    0.900    0.000   12.200 
#
# Total GULP energy -495968.325454 kJ/mol
# GULP energy per Si atom -12399.208136 kJ/mol
# Density = 1.427641 g / cm^3
# Si number density = 14.308973 Si / 1000 Ang^3
#
#
#
# Elastic Constant Matrix: (Units=GPa)
#
#
# Indices 1 2 3 4 5 6 
#
# 1 94.4648 43.1044 37.9670 0.0000 0.0000 0.0000
# 2 43.1044 90.9482 31.4721 0.0000 0.0000 0.0000
# 3 37.9670 31.4721 53.6487 0.0000 0.0000 0.0000
# 4 0.0000 0.0000 0.0000 22.5114 0.0000 0.0000
# 5 0.0000 0.0000 0.0000 0.0000 23.2287 0.0000
# 6 0.0000 0.0000 0.0000 0.0000 0.0000 19.3003
#
#
#
# Elastic Compliance Matrix: (Units=1/GPa)
#
#
# Indices 1 2 3 4 5 6 
#
# 1 0.016231 -0.004665 -0.008750 0.000000 0.000000 0.000000
# 2 -0.004665 0.015136 -0.005578 0.000000 0.000000 0.000000
# 3 -0.008750 -0.005578 0.028105 0.000000 0.000000 0.000000
# 4 0.000000 0.000000 0.000000 0.044422 0.000000 0.000000
# 5 0.000000 0.000000 0.000000 0.000000 0.043050 0.000000
# 6 0.000000 0.000000 0.000000 0.000000 0.000000 0.051813
#
#
# Mechanical properties :
#
#
# Convention : Reuss Voigt Hill
#
# Bulk Modulus (GPa) = 46.54249 51.57207 49.05728
# Shear Modulus (GPa) = 20.49968 21.44264 20.97116
#
# Velocity S-wave (km/s) = 3.78914 3.87530 3.83246
# Velocity P-wave (km/s) = 7.19311 7.49293 7.34455
#
# Compressibility (1/GPa) = 0.02148574
#
# Stress axis : x y z
#
# Youngs Moduli (GPa) = 61.60888 66.06565 35.58107
#
# Poissons Ratio (x) = 0.30818 0.31135
# Poissons Ratio (y) = 0.28739 0.19848
# Poissons Ratio (z) = 0.53910 0.36853
#
# Static dielectric constant tensor:
#      x y z
#    x 2.662680 0.000000 0.000000 
#    y 0.000000 2.706110 0.000000 
#    z 0.000000 0.000000 2.701540 
# 
# 
# High freq. dielectric constant tensor:
#      x y z
#    x 1.522560 0.000000 0.000000 
#    y 0.000000 1.520560 0.000000 
#    z 0.000000 0.000000 1.548990 
# 
# From -- ./inp_files/6696.got.cif
#   From: 2010.03.12/outbox.cif.g09.slc.cpg/sg63_4_cif.got.tgz:6696.got - 2010.04.10 19:34:48.
