data_PCOD8255412
_publ_section_title
;
Structure prediction by ZEFSAII (Michael W. Deem and Ramdas Pophale) SiO2 
 PCOD8255412
Probable space group: C M C M
;
_chemical_formula_sum "Si O2"
_cell_formula_units_Z 84
_cell_length_a 11.930647
_cell_length_b 14.332732
_cell_length_c 21.673683
_cell_angle_alpha 90.000000
_cell_angle_beta 90.000000
_cell_angle_gamma 90.000000
_cell_volume 3706.173048
_symmetry_space_group_name_H-M "C M C M"
_symmetry_group_IT_number 63
_symmetry_cell_setting 'orthorhombic'
loop_
_space_group_symop_operation_xyz
x,y,z
-x,-y,1/2+z
x,-y,-z
-x,y,1/2-z
-x,-y,-z
x,y,1/2-z
-x,y,z
x,-y,1/2+z
1/2+x,1/2+y,z
1/2-x,1/2-y,1/2+z
1/2+x,1/2-y,-z
1/2-x,1/2+y,1/2-z
1/2-x,1/2-y,-z
1/2+x,1/2+y,1/2-z
1/2-x,1/2+y,z
1/2+x,1/2-y,1/2+z
loop_
_atom_site_type_symbol
_atom_site_label
_atom_site_fract_x
_atom_site_fract_y
_atom_site_fract_z
Si Si1 0.869383 0.162063 0.121519
Si Si2 0.808431 0.235352 0.250000
Si Si3 0.369693 0.549604 0.884858
Si Si4 0.500000 0.898643 0.969269
Si Si5 0.630860 0.619765 0.750000
Si Si6 0.179926 0.655942 0.557213
Si Si7 0.000000 0.537294 0.875216
Si Si8 0.500000 0.112720 0.750000
O O1 0.824357 0.170644 0.190809
O O2 0.845022 0.057994 0.098279
O O3 0.809855 0.235334 0.075598
O O4 0.000000 0.186363 0.122007
O O5 0.684289 0.277638 0.250000
O O6 0.891445 0.322978 0.250000
O O7 0.500000 0.574022 0.893939
O O8 0.333290 0.566609 0.813343
O O9 0.303974 0.611701 0.936130
O O10 0.500000 0.927434 0.897085
O O11 0.384158 0.847749 0.990497
O O12 0.500000 0.000000 0.000000
O O13 0.500000 0.635174 0.750000
O O14 0.108542 0.595645 0.604997
O O15 0.000000 0.535831 0.802829
#
# Coordination Sequence:
#
# PCOD8255412 Si02
#       8
#    16   8  16   8   8  16   8   4
#     4  11  18  30  52  82 107 143 193 246 287 330
#     4  12  17  29  53  77 109 146 191 240 284 336
#     4  10  21  31  50  80 113 148 192 241 293 346
#     4   8  18  32  60  82 108 151 188 231 296 338
#     4  10  19  32  43  67 115 157 184 225 300 358
#     4  10  16  34  54  79 110 151 192 235 275 339
#     4  10  18  32  60  90 114 143 186 237 294 336
#     4  12  16  26  56 100 104 126 188 252 266 328
#
# _framework density 22.664888999999999
#
# number of rings (size 3 to 8) (size 9 to 14) (size 15 to 20)
#    0.000    1.905    6.667    0.571    0.000    1.524 
#    0.000    0.000    8.381   15.429    2.476    0.000 
#    0.000    0.000    0.000    0.000    0.000    0.000 
#
# Total GULP energy -520483.577271 kJ/mol
# GULP energy per Si atom -12392.466126 kJ/mol
# Density = 2.261330 g / cm^3
# Si number density = 22.664889 Si / 1000 Ang^3
#
#
#
# Elastic Constant Matrix: (Units=GPa)
#
#
# Indices 1 2 3 4 5 6 
#
# 1 78.4099 45.8607 10.3072 0.0000 0.0000 0.0000
# 2 45.8607 94.1662 8.5098 0.0000 0.0000 0.0000
# 3 10.3072 8.5098 39.4692 0.0000 0.0000 0.0000
# 4 0.0000 0.0000 0.0000 2.0785 0.0000 0.0000
# 5 0.0000 0.0000 0.0000 0.0000 6.5260 0.0000
# 6 0.0000 0.0000 0.0000 0.0000 0.0000 26.9319
#
#
#
# Elastic Compliance Matrix: (Units=1/GPa)
#
#
# Indices 1 2 3 4 5 6 
#
# 1 0.018151 -0.008579 -0.002890 0.000000 0.000000 0.000000
# 2 -0.008579 0.014885 -0.000969 0.000000 0.000000 0.000000
# 3 -0.002890 -0.000969 0.026300 0.000000 0.000000 0.000000
# 4 0.000000 0.000000 0.000000 0.481119 0.000000 0.000000
# 5 0.000000 0.000000 0.000000 0.000000 0.153234 0.000000
# 6 0.000000 0.000000 0.000000 0.000000 0.000000 0.037131
#
#
# Mechanical properties :
#
#
# Convention : Reuss Voigt Hill
#
# Bulk Modulus (GPa) = 29.01933 37.93339 33.47636
# Shear Modulus (GPa) = 6.51735 16.93177 11.72456
#
# Velocity S-wave (km/s) = 1.69758 2.73618 2.27689
# Velocity P-wave (km/s) = 4.08336 5.17255 4.65988
#
# Compressibility (1/GPa) = 0.03445979
#
# Stress axis : x y z
#
# Youngs Moduli (GPa) = 55.09348 67.18148 38.02283
#
# Poissons Ratio (x) = 0.57633 0.10990
# Poissons Ratio (y) = 0.47263 0.03685
# Poissons Ratio (z) = 0.15924 0.06510
#
# Static dielectric constant tensor:
#      x y z
#    x 4.190310 0.000000 0.000000 
#    y 0.000000 4.011260 0.000000 
#    z 0.000000 0.000000 4.719450 
# 
# 
# High freq. dielectric constant tensor:
#      x y z
#    x 1.892770 0.000000 0.000000 
#    y 0.000000 1.878650 0.000000 
#    z 0.000000 0.000000 1.880030 
# 
# From -- ./inp_files/61328.got.cif
#   From: 2010.03.12/outbox.cif.g09.slc.cpg/sg63_31_cif.got.tgz:61328.got - 2010.04.10 19:34:48.
