data_PCOD8255132
_publ_section_title
;
Structure prediction by ZEFSAII (Michael W. Deem and Ramdas Pophale) SiO2 
 PCOD8255132
Probable space group: P N M A
;
_chemical_formula_sum "Si O2"
_cell_formula_units_Z 40
_cell_length_a 28.584576
_cell_length_b 8.560861
_cell_length_c 7.800621
_cell_angle_alpha 90.000000
_cell_angle_beta 90.000000
_cell_angle_gamma 90.000000
_cell_volume 1908.878903
_symmetry_space_group_name_H-M "P N M A"
_symmetry_group_IT_number 62
_symmetry_cell_setting 'orthorhombic'
loop_
_space_group_symop_operation_xyz
x,y,z
1/2-x,-y,1/2+z
1/2+x,1/2-y,1/2-z
-x,1/2+y,-z
-x,-y,-z
1/2+x,y,1/2-z
1/2-x,1/2+y,1/2+z
x,1/2-y,z
loop_
_atom_site_type_symbol
_atom_site_label
_atom_site_fract_x
_atom_site_fract_y
_atom_site_fract_z
Si Si1 0.301278 0.931354 0.310780
Si Si2 0.388801 0.932468 0.826312
Si Si3 0.051573 0.433694 0.996586
Si Si4 0.107642 0.932201 0.678026
Si Si5 0.700186 0.931950 0.323697
O O1 0.310995 0.750000 0.275267
O O2 0.249178 0.982013 0.259754
O O3 0.337383 0.031101 0.198706
O O4 0.309386 0.964775 0.509846
O O5 0.377470 0.750000 0.823676
O O6 0.424170 0.979737 0.675405
O O7 0.340555 0.028587 0.810127
O O8 0.411618 0.981958 0.007534
O O9 0.050455 0.250000 0.968931
O O10 0.079823 0.509130 0.842116
O O11 0.000000 0.500000 0.000000
O O12 0.099372 0.750000 0.656140
O O13 0.699644 0.750000 0.372571
#
# Coordination Sequence:
#
# PCOD8255132 Si02
#       5
#     8   8   8   8   8
#     4  11  23  39  60  91 132 175 220 270 327 392
#     4  11  24  43  68  96 133 175 219 272 333 394
#     4  11  25  46  72 100 132 174 221 277 338 398
#     4  12  25  42  68  98 133 174 221 275 331 395
#     4  11  23  38  61  93 130 174 223 271 326 391
#
# _framework density 20.954708
#
# number of rings (size 3 to 8) (size 9 to 14) (size 15 to 20)
#    0.000    0.800    2.000    5.400    0.000    9.600 
#    0.000    0.000    0.000    0.000    0.000    0.000 
#    0.000    0.000    0.000    0.000    0.000    0.000 
#
# Total GULP energy -496317.254924 kJ/mol
# GULP energy per Si atom -12407.931373 kJ/mol
# Density = 2.090701 g / cm^3
# Si number density = 20.954708 Si / 1000 Ang^3
#
#
#
# Elastic Constant Matrix: (Units=GPa)
#
#
# Indices 1 2 3 4 5 6 
#
# 1 111.7557 44.3402 24.7191 0.0000 0.0000 0.0000
# 2 44.3402 84.3224 36.2578 0.0000 0.0000 0.0000
# 3 24.7191 36.2578 119.2121 0.0000 0.0000 0.0000
# 4 0.0000 0.0000 0.0000 37.1725 0.0000 0.0000
# 5 0.0000 0.0000 0.0000 0.0000 25.7369 0.0000
# 6 0.0000 0.0000 0.0000 0.0000 0.0000 29.0584
#
#
#
# Elastic Compliance Matrix: (Units=1/GPa)
#
#
# Indices 1 2 3 4 5 6 
#
# 1 0.011347 -0.005700 -0.000619 0.000000 0.000000 0.000000
# 2 -0.005700 0.016507 -0.003839 0.000000 0.000000 0.000000
# 3 -0.000619 -0.003839 0.009684 0.000000 0.000000 0.000000
# 4 0.000000 0.000000 0.000000 0.026902 0.000000 0.000000
# 5 0.000000 0.000000 0.000000 0.000000 0.038855 0.000000
# 6 0.000000 0.000000 0.000000 0.000000 0.000000 0.034413
#
#
# Mechanical properties :
#
#
# Convention : Reuss Voigt Hill
#
# Bulk Modulus (GPa) = 58.06463 58.43605 58.25034
# Shear Modulus (GPa) = 30.53156 32.39176 31.46166
#
# Velocity S-wave (km/s) = 3.82124 3.93593 3.87901
# Velocity P-wave (km/s) = 6.87306 6.97157 6.92249
#
# Compressibility (1/GPa) = 0.01722219
#
# Stress axis : x y z
#
# Youngs Moduli (GPa) = 88.13135 60.57919 103.26021
#
# Poissons Ratio (x) = 0.34533 0.06392
# Poissons Ratio (y) = 0.50238 0.39638
# Poissons Ratio (z) = 0.05456 0.23254
#
# Static dielectric constant tensor:
#      x y z
#    x 3.886870 0.000000 0.000000 
#    y 0.000000 3.836160 0.000000 
#    z 0.000000 0.000000 3.991790 
# 
# 
# High freq. dielectric constant tensor:
#      x y z
#    x 1.818780 0.000000 0.000000 
#    y 0.000000 1.830660 0.000000 
#    z 0.000000 0.000000 1.837280 
# 
# From -- ./inp_files/9708.got.cif
#   From: 2010.03.12/outbox.cif.g09.slc.cpg/sg62_5_cif.got.tgz:9708.got - 2010.04.10 19:12:36.
