data_PCOD8255010
_publ_section_title
;
Structure prediction by ZEFSAII (Michael W. Deem and Ramdas Pophale) SiO2 
 PCOD8255010
Probable space group: P N M A
;
_chemical_formula_sum "Si O2"
_cell_formula_units_Z 40
_cell_length_a 11.762156
_cell_length_b 18.729859
_cell_length_c 7.328355
_cell_angle_alpha 90.000000
_cell_angle_beta 90.000000
_cell_angle_gamma 90.000000
_cell_volume 1614.462427
_symmetry_space_group_name_H-M "P N M A"
_symmetry_group_IT_number 62
_symmetry_cell_setting 'orthorhombic'
loop_
_space_group_symop_operation_xyz
x,y,z
1/2-x,-y,1/2+z
1/2+x,1/2-y,1/2-z
-x,1/2+y,-z
-x,-y,-z
1/2+x,y,1/2-z
1/2-x,1/2+y,1/2+z
x,1/2-y,z
loop_
_atom_site_type_symbol
_atom_site_label
_atom_site_fract_x
_atom_site_fract_y
_atom_site_fract_z
Si Si1 0.401533 0.536726 0.882578
Si Si2 0.245675 0.167976 0.902416
Si Si3 0.818395 0.436051 0.906596
Si Si4 0.000643 0.830280 0.067219
Si Si5 0.514153 0.670515 0.998001
O O1 0.392534 0.498975 0.686978
O O2 0.436265 0.619966 0.871960
O O3 0.500000 0.500000 0.000000
O O4 0.274877 0.527469 0.965201
O O5 0.250661 0.250000 0.828888
O O6 0.251699 0.115209 0.731600
O O7 0.126712 0.154493 0.007413
O O8 0.351652 0.154359 0.038957
O O9 0.909744 0.386743 0.017608
O O10 0.039732 0.750000 0.016963
O O11 0.995310 0.840706 0.286462
O O12 0.481231 0.750000 0.936088
#
# Coordination Sequence:
#
# PCOD8255010 Si02
#       5
#     8   8   8   8   8
#     4  12  22  38  58  82 120 152 191 234 285 345
#     4   9  15  28  52  84 111 134 180 241 286 324
#     4  11  21  34  55  83 117 156 185 231 285 342
#     4   9  16  29  53  87 114 134 182 249 293 323
#     4   9  17  29  54  81 104 144 187 232 283 332
#
# _framework density 24.776049
#
# number of rings (size 3 to 8) (size 9 to 14) (size 15 to 20)
#    0.000    2.000    6.000    1.800    0.000    0.800 
#    0.000    4.000    0.000    3.600    0.000    0.000 
#    0.000    0.000    0.000    0.000    0.000    0.000 
#
# Total GULP energy -495798.777607 kJ/mol
# GULP energy per Si atom -12394.969440 kJ/mol
# Density = 2.471966 g / cm^3
# Si number density = 24.776049 Si / 1000 Ang^3
#
#
#
# Elastic Constant Matrix: (Units=GPa)
#
#
# Indices 1 2 3 4 5 6 
#
# 1 166.6096 50.1931 18.8691 0.0000 0.0000 0.0000
# 2 50.1931 108.7992 11.1850 0.0000 0.0000 0.0000
# 3 18.8691 11.1850 18.8864 0.0000 0.0000 0.0000
# 4 0.0000 0.0000 0.0000 3.6482 0.0000 0.0000
# 5 0.0000 0.0000 0.0000 0.0000 16.5814 0.0000
# 6 0.0000 0.0000 0.0000 0.0000 0.0000 55.2298
#
#
#
# Elastic Compliance Matrix: (Units=1/GPa)
#
#
# Indices 1 2 3 4 5 6 
#
# 1 0.007527 -0.002874 -0.005818 0.000000 0.000000 0.000000
# 2 -0.002874 0.010885 -0.003575 0.000000 0.000000 0.000000
# 3 -0.005818 -0.003575 0.060878 0.000000 0.000000 0.000000
# 4 0.000000 0.000000 0.000000 0.274111 0.000000 0.000000
# 5 0.000000 0.000000 0.000000 0.000000 0.060308 0.000000
# 6 0.000000 0.000000 0.000000 0.000000 0.000000 0.018106
#
#
# Mechanical properties :
#
#
# Convention : Reuss Voigt Hill
#
# Bulk Modulus (GPa) = 18.26283 50.53218 34.39751
# Shear Modulus (GPa) = 10.53519 29.36174 19.94846
#
# Velocity S-wave (km/s) = 2.06431 3.44624 2.84060
# Velocity P-wave (km/s) = 3.61511 6.02290 4.96711
#
# Compressibility (1/GPa) = 0.05475602
#
# Stress axis : x y z
#
# Youngs Moduli (GPa) = 132.85757 91.87165 16.42641
#
# Poissons Ratio (x) = 0.26407 0.09556
# Poissons Ratio (y) = 0.38188 0.05872
# Poissons Ratio (z) = 0.77293 0.32840
#
# Static dielectric constant tensor:
#      x y z
#    x 5.070360 0.000000 0.000000 
#    y 0.000000 4.813440 0.000000 
#    z 0.000000 0.000000 3.541300 
# 
# 
# High freq. dielectric constant tensor:
#      x y z
#    x 2.006760 0.000000 0.000000 
#    y 0.000000 2.005510 0.000000 
#    z 0.000000 0.000000 1.910420 
# 
# From -- ./inp_files/5178.got.cif
#   From: 2010.03.12/outbox.cif.g09.slc.cpg/sg62_3_cif.got.tgz:5178.got - 2010.04.10 19:12:36.
