data_PCOD8255913
_publ_section_title
;
Structure prediction by ZEFSAII (Michael W. Deem and Ramdas Pophale) SiO2 
 PCOD8255913
Probable space group: C M C M
;
_chemical_formula_sum "Si O2"
_cell_formula_units_Z 96
_cell_length_a 8.873863
_cell_length_b 22.809927
_cell_length_c 27.059309
_cell_angle_alpha 90.000000
_cell_angle_beta 90.000000
_cell_angle_gamma 90.000000
_cell_volume 5477.133379
_symmetry_space_group_name_H-M "C M C M"
_symmetry_group_IT_number 63
_symmetry_cell_setting 'orthorhombic'
loop_
_space_group_symop_operation_xyz
x,y,z
-x,-y,1/2+z
x,-y,-z
-x,y,1/2-z
-x,-y,-z
x,y,1/2-z
-x,y,z
x,-y,1/2+z
1/2+x,1/2+y,z
1/2-x,1/2-y,1/2+z
1/2+x,1/2-y,-z
1/2-x,1/2+y,1/2-z
1/2-x,1/2-y,-z
1/2+x,1/2+y,1/2-z
1/2-x,1/2+y,z
1/2+x,1/2-y,1/2+z
loop_
_atom_site_type_symbol
_atom_site_label
_atom_site_fract_x
_atom_site_fract_y
_atom_site_fract_z
Si Si1 0.323632 0.712104 0.456342
Si Si2 0.831025 0.530203 0.927146
Si Si3 0.675370 0.387955 0.250000
Si Si4 0.175397 0.110557 0.854188
Si Si5 0.830560 0.408822 0.532011
Si Si6 0.679211 0.256399 0.250000
Si Si7 0.321598 0.235957 0.851376
O O1 0.500000 0.721571 0.462101
O O2 0.250000 0.750000 0.500000
O O3 0.285626 0.643848 0.462810
O O4 0.270817 0.730216 0.401255
O O5 0.709242 0.560379 0.892765
O O6 0.790526 0.461269 0.930011
O O7 0.000000 0.537725 0.905978
O O8 0.819091 0.562737 0.978700
O O9 0.500000 0.377865 0.250000
O O10 0.722076 0.419050 0.198944
O O11 0.741118 0.322473 0.250000
O O12 0.269647 0.169484 0.861519
O O13 0.000000 0.127679 0.856653
O O14 0.000000 0.385407 0.541436
O O15 0.500000 0.246468 0.250000
O O16 0.746349 0.232662 0.197359
O O17 0.500000 0.237729 0.844123
#
# Coordination Sequence:
#
# PCOD8255913 Si02
#       7
#    16  16   8  16  16   8  16
#     4  11  23  35  50  74 104 135 168 205 248 297
#     4   9  18  33  51  71  95 125 159 198 246 297
#     4   7  14  27  41  64  97 122 147 188 236 278
#     4  10  18  29  48  73  98 127 163 202 241 286
#     4   9  19  35  52  69  95 129 162 198 244 295
#     4   9  17  31  51  74  97 126 167 210 248 292
#     4  10  20  33  49  72 103 136 166 203 250 298
#
# _framework density 17.527415999999999
#
# number of rings (size 3 to 8) (size 9 to 14) (size 15 to 20)
#    0.000    2.500    0.000    4.750    0.000    8.000 
#    0.000    2.917    0.000    1.000    0.000    3.500 
#    0.000    0.000    0.000    0.000    0.000    0.000 
#
# Total GULP energy -594651.351854 kJ/mol
# GULP energy per Si atom -12388.569830 kJ/mol
# Density = 1.748752 g / cm^3
# Si number density = 17.527416 Si / 1000 Ang^3
#
#
#
# Elastic Constant Matrix: (Units=GPa)
#
#
# Indices 1 2 3 4 5 6 
#
# 1 62.8731 24.7925 43.2525 0.0000 0.0000 0.0000
# 2 24.7925 75.4010 38.6130 0.0000 0.0000 0.0000
# 3 43.2525 38.6130 102.6229 0.0000 0.0000 0.0000
# 4 0.0000 0.0000 0.0000 21.3534 0.0000 0.0000
# 5 0.0000 0.0000 0.0000 0.0000 28.8300 0.0000
# 6 0.0000 0.0000 0.0000 0.0000 0.0000 24.9870
#
#
#
# Elastic Compliance Matrix: (Units=1/GPa)
#
#
# Indices 1 2 3 4 5 6 
#
# 1 0.023014 -0.003221 -0.008488 0.000000 0.000000 0.000000
# 2 -0.003221 0.016878 -0.004993 0.000000 0.000000 0.000000
# 3 -0.008488 -0.004993 0.015201 0.000000 0.000000 0.000000
# 4 0.000000 0.000000 0.000000 0.046831 0.000000 0.000000
# 5 0.000000 0.000000 0.000000 0.000000 0.034686 0.000000
# 6 0.000000 0.000000 0.000000 0.000000 0.000000 0.040021
#
#
# Mechanical properties :
#
#
# Convention : Reuss Voigt Hill
#
# Bulk Modulus (GPa) = 46.10526 50.46812 48.28669
# Shear Modulus (GPa) = 23.01337 23.98334 23.49836
#
# Velocity S-wave (km/s) = 3.62746 3.70311 3.66548
# Velocity P-wave (km/s) = 6.62619 6.86588 6.74710
#
# Compressibility (1/GPa) = 0.02168950
#
# Stress axis : x y z
#
# Youngs Moduli (GPa) = 43.45136 59.24708 65.78650
#
# Poissons Ratio (x) = 0.19081 0.55840
# Poissons Ratio (y) = 0.13994 0.32850
# Poissons Ratio (z) = 0.36882 0.29584
#
# Static dielectric constant tensor:
#      x y z
#    x 3.234040 0.000000 0.000000 
#    y 0.000000 3.085690 0.000000 
#    z 0.000000 0.000000 3.391990 
# 
# 
# High freq. dielectric constant tensor:
#      x y z
#    x 1.678950 0.000000 0.000000 
#    y 0.000000 1.643670 0.000000 
#    z 0.000000 0.000000 1.689910 
# 
# From -- ./inp_files/67317.got.cif
#   From: 2010.03.12/outbox.cif.g09.slc.cpg/sg63_34_cif.got.tgz:67317.got - 2010.04.10 19:34:48.
