data_PCOD8255754
_publ_section_title
;
Structure prediction by ZEFSAII (Michael W. Deem and Ramdas Pophale) SiO2 
 PCOD8255754
Probable space group: C M C M
;
_chemical_formula_sum "Si O2"
_cell_formula_units_Z 128
_cell_length_a 13.370458
_cell_length_b 22.428410
_cell_length_c 25.753335
_cell_angle_alpha 90.000000
_cell_angle_beta 90.000000
_cell_angle_gamma 90.000000
_cell_volume 7722.861527
_symmetry_space_group_name_H-M "C M C M"
_symmetry_group_IT_number 63
_symmetry_cell_setting 'orthorhombic'
loop_
_space_group_symop_operation_xyz
x,y,z
-x,-y,1/2+z
x,-y,-z
-x,y,1/2-z
-x,-y,-z
x,y,1/2-z
-x,y,z
x,-y,1/2+z
1/2+x,1/2+y,z
1/2-x,1/2-y,1/2+z
1/2+x,1/2-y,-z
1/2-x,1/2+y,1/2-z
1/2-x,1/2-y,-z
1/2+x,1/2+y,1/2-z
1/2-x,1/2+y,z
1/2+x,1/2-y,1/2+z
loop_
_atom_site_type_symbol
_atom_site_label
_atom_site_fract_x
_atom_site_fract_y
_atom_site_fract_z
Si Si1 0.610845 0.060335 0.189896
Si Si2 0.113193 0.256089 0.190932
Si Si3 0.113899 0.540365 0.625466
Si Si4 0.118380 0.676611 0.490276
Si Si5 0.885231 0.548520 0.462921
Si Si6 0.614893 0.261584 0.102632
Si Si7 0.698954 0.818807 0.810353
Si Si8 0.801481 0.336018 0.102568
O O1 0.602497 0.068373 0.250000
O O2 0.500000 0.070527 0.164919
O O3 0.686131 0.112625 0.170807
O O4 0.643945 0.990614 0.180070
O O5 0.127440 0.280371 0.250000
O O6 0.185603 0.199849 0.180534
O O7 0.137064 0.308903 0.150774
O O8 0.000000 0.233883 0.182250
O O9 0.126236 0.478044 0.594026
O O10 0.187051 0.592349 0.606506
O O11 0.000000 0.565169 0.622500
O O12 0.164003 0.613654 0.469644
O O13 0.151501 0.726758 0.449134
O O14 0.158194 0.689678 0.548095
O O15 0.000000 0.674736 0.492441
O O16 0.831828 0.500000 0.500000
O O17 0.000000 0.555312 0.480873
O O18 0.500000 0.282108 0.098167
O O19 0.627053 0.221558 0.154053
O O20 0.684376 0.320132 0.107474
O O21 0.668308 0.809175 0.750000
#
# Coordination Sequence:
#
# PCOD8255754 Si02
#       8
#    16  16  16  16  16  16  16  16
#     4   9  17  28  44  68  95 119 144 180 227 276
#     4   9  18  31  47  69  95 122 154 190 224 265
#     4  10  18  28  44  67  92 117 146 183 230 279
#     4  10  18  30  48  70  95 119 148 188 232 277
#     4   9  15  24  40  64  89 110 136 174 220 269
#     4  10  21  33  46  67  93 122 158 198 230 263
#     4   9  17  31  51  71  92 120 153 189 231 274
#     4  11  20  31  47  67  93 127 158 183 227 282
#
# _framework density 16.574168
#
# number of rings (size 3 to 8) (size 9 to 14) (size 15 to 20)
#    0.000    2.375    1.250    2.625    0.000    3.250 
#    0.000    1.250    0.000    0.750    0.000    1.750 
#    0.000    0.000    0.000    0.000    0.000    0.000 
#
# Total GULP energy -792901.611524 kJ/mol
# GULP energy per Si atom -12389.087680 kJ/mol
# Density = 1.653644 g / cm^3
# Si number density = 16.574168 Si / 1000 Ang^3
#
#
#
# Elastic Constant Matrix: (Units=GPa)
#
#
# Indices 1 2 3 4 5 6 
#
# 1 65.4788 44.5303 31.7192 0.0000 0.0000 0.0000
# 2 44.5303 87.9579 36.3626 0.0000 0.0000 0.0000
# 3 31.7192 36.3626 69.8666 0.0000 0.0000 0.0000
# 4 0.0000 0.0000 0.0000 23.9456 0.0000 0.0000
# 5 0.0000 0.0000 0.0000 0.0000 18.6695 0.0000
# 6 0.0000 0.0000 0.0000 0.0000 0.0000 21.8632
#
#
#
# Elastic Compliance Matrix: (Units=1/GPa)
#
#
# Indices 1 2 3 4 5 6 
#
# 1 0.025186 -0.010224 -0.006114 0.000000 0.000000 0.000000
# 2 -0.010224 0.018636 -0.005058 0.000000 0.000000 0.000000
# 3 -0.006114 -0.005058 0.019721 0.000000 0.000000 0.000000
# 4 0.000000 0.000000 0.000000 0.041761 0.000000 0.000000
# 5 0.000000 0.000000 0.000000 0.000000 0.053563 0.000000
# 6 0.000000 0.000000 0.000000 0.000000 0.000000 0.045739
#
#
# Mechanical properties :
#
#
# Convention : Reuss Voigt Hill
#
# Bulk Modulus (GPa) = 48.18506 49.83639 49.01073
# Shear Modulus (GPa) = 19.66071 20.27509 19.96790
#
# Velocity S-wave (km/s) = 3.44790 3.50136 3.47473
# Velocity P-wave (km/s) = 6.70717 6.81762 6.76262
#
# Compressibility (1/GPa) = 0.02075332
#
# Stress axis : x y z
#
# Youngs Moduli (GPa) = 39.70381 53.65985 50.70778
#
# Poissons Ratio (x) = 0.54860 0.31001
# Poissons Ratio (y) = 0.40592 0.25646
# Poissons Ratio (z) = 0.24273 0.27139
#
# Static dielectric constant tensor:
#      x y z
#    x 2.919500 0.000000 0.000000 
#    y 0.000000 3.192810 0.000000 
#    z 0.000000 0.000000 3.420510 
# 
# 
# High freq. dielectric constant tensor:
#      x y z
#    x 1.594830 0.000000 0.000000 
#    y 0.000000 1.628390 0.000000 
#    z 0.000000 0.000000 1.658920 
# 
# From -- ./inp_files/68832.got.cif
#   From: 2010.03.12/outbox.cif.g09.slc.cpg/sg63_35_cif.got.tgz:68832.got - 2010.04.10 19:34:48.
