data_PCOD8255073
_publ_section_title
;
Structure prediction by ZEFSAII (Michael W. Deem and Ramdas Pophale) SiO2 
 PCOD8255073
Probable space group: P N M A
;
_chemical_formula_sum "Si O2"
_cell_formula_units_Z 32
_cell_length_a 12.982607
_cell_length_b 17.498094
_cell_length_c 7.747252
_cell_angle_alpha 90.000000
_cell_angle_beta 90.000000
_cell_angle_gamma 90.000000
_cell_volume 1759.950036
_symmetry_space_group_name_H-M "P N M A"
_symmetry_group_IT_number 62
_symmetry_cell_setting 'orthorhombic'
loop_
_space_group_symop_operation_xyz
x,y,z
1/2-x,-y,1/2+z
1/2+x,1/2-y,1/2-z
-x,1/2+y,-z
-x,-y,-z
1/2+x,y,1/2-z
1/2-x,1/2+y,1/2+z
x,1/2-y,z
loop_
_atom_site_type_symbol
_atom_site_label
_atom_site_fract_x
_atom_site_fract_y
_atom_site_fract_z
Si Si1 0.890904 0.072348 0.116220
Si Si2 0.097356 0.095018 0.959873
Si Si3 0.192470 0.661666 0.559385
Si Si4 0.087056 0.839098 0.206352
O O1 0.845471 0.110217 0.284995
O O2 0.855090 0.984154 0.111482
O O3 0.849804 0.116396 0.944570
O O4 0.016675 0.076732 0.116416
O O5 0.034510 0.139002 0.807551
O O6 0.186428 0.149583 0.029587
O O7 0.172022 0.750000 0.603272
O O8 0.129436 0.635390 0.391250
O O9 0.104213 0.750000 0.175663
#
# Coordination Sequence:
#
# PCOD8255073 Si02
#       4
#     8   8   8   8
#     4   9  21  39  56  83 115 146 190 239 276 335
#     4   9  21  39  57  84 114 148 190 235 283 335
#     4  11  22  36  61  84 111 155 188 230 292 338
#     4   9  19  38  56  81 116 144 189 237 274 337
#
# _framework density 18.182335999999999
#
# number of rings (size 3 to 8) (size 9 to 14) (size 15 to 20)
#    1.500    1.000    0.000    1.500    3.500    1.000 
#    4.500    0.000    0.000    0.000    0.000    0.000 
#    0.000    0.000    0.000    0.000    0.000    0.000 
#
# Total GULP energy -396587.082808 kJ/mol
# GULP energy per Si atom -12393.346338 kJ/mol
# Density = 1.814095 g / cm^3
# Si number density = 18.182336 Si / 1000 Ang^3
#
#
#
# Elastic Constant Matrix: (Units=GPa)
#
#
# Indices 1 2 3 4 5 6 
#
# 1 64.8571 4.7877 19.4579 0.0000 0.0000 0.0000
# 2 4.7877 51.1612 16.6761 0.0000 0.0000 0.0000
# 3 19.4579 16.6761 80.5937 0.0000 0.0000 0.0000
# 4 0.0000 0.0000 0.0000 7.5128 0.0000 0.0000
# 5 0.0000 0.0000 0.0000 0.0000 22.5895 0.0000
# 6 0.0000 0.0000 0.0000 0.0000 0.0000 21.3678
#
#
#
# Elastic Compliance Matrix: (Units=1/GPa)
#
#
# Indices 1 2 3 4 5 6 
#
# 1 0.016626 -0.000265 -0.003959 0.000000 0.000000 0.000000
# 2 -0.000265 0.020964 -0.004274 0.000000 0.000000 0.000000
# 3 -0.003959 -0.004274 0.014248 0.000000 0.000000 0.000000
# 4 0.000000 0.000000 0.000000 0.133107 0.000000 0.000000
# 5 0.000000 0.000000 0.000000 0.000000 0.044268 0.000000
# 6 0.000000 0.000000 0.000000 0.000000 0.000000 0.046799
#
#
# Mechanical properties :
#
#
# Convention : Reuss Voigt Hill
#
# Bulk Modulus (GPa) = 28.70142 30.93950 29.82046
# Shear Modulus (GPa) = 16.41375 20.67336 18.54355
#
# Velocity S-wave (km/s) = 3.00781 3.37560 3.19700
# Velocity P-wave (km/s) = 5.28035 5.67857 5.48308
#
# Compressibility (1/GPa) = 0.03484148
#
# Stress axis : x y z
#
# Youngs Moduli (GPa) = 60.14714 47.70107 70.18497
#
# Poissons Ratio (x) = 0.01266 0.27787
# Poissons Ratio (y) = 0.01596 0.29995
# Poissons Ratio (z) = 0.23813 0.20386
#
# Static dielectric constant tensor:
#      x y z
#    x 3.152570 0.000000 0.000000 
#    y 0.000000 3.522190 0.000000 
#    z 0.000000 0.000000 3.161120 
# 
# 
# High freq. dielectric constant tensor:
#      x y z
#    x 1.684680 0.000000 0.000000 
#    y 0.000000 1.721210 0.000000 
#    z 0.000000 0.000000 1.686880 
# 
# From -- ./inp_files/4965.got.cif
#   From: 2010.03.12/outbox.cif.g09.slc.cpg/sg62_3_cif.got.tgz:4965.got - 2010.04.10 19:12:36.
