data_PCOD8255369
_publ_section_title
;
Structure prediction by ZEFSAII (Michael W. Deem and Ramdas Pophale) SiO2 
 PCOD8255369
Probable space group: C M C M
;
_chemical_formula_sum "Si O2"
_cell_formula_units_Z 96
_cell_length_a 9.295329
_cell_length_b 25.246446
_cell_length_c 21.738075
_cell_angle_alpha 90.000000
_cell_angle_beta 90.000000
_cell_angle_gamma 90.000000
_cell_volume 5101.361483
_symmetry_space_group_name_H-M "C M C M"
_symmetry_group_IT_number 63
_symmetry_cell_setting 'orthorhombic'
loop_
_space_group_symop_operation_xyz
x,y,z
-x,-y,1/2+z
x,-y,-z
-x,y,1/2-z
-x,-y,-z
x,y,1/2-z
-x,y,z
x,-y,1/2+z
1/2+x,1/2+y,z
1/2-x,1/2-y,1/2+z
1/2+x,1/2-y,-z
1/2-x,1/2+y,1/2-z
1/2-x,1/2-y,-z
1/2+x,1/2+y,1/2-z
1/2-x,1/2+y,z
1/2+x,1/2-y,1/2+z
loop_
_atom_site_type_symbol
_atom_site_label
_atom_site_fract_x
_atom_site_fract_y
_atom_site_fract_z
Si Si1 0.838371 0.966014 0.628483
Si Si2 0.328079 0.629385 0.449527
Si Si3 0.169976 0.159002 0.584349
Si Si4 0.667214 0.797596 0.750000
Si Si5 0.344552 0.600892 0.250000
Si Si6 0.170672 0.274034 0.616065
Si Si7 0.827464 0.073815 0.679707
O O1 0.769345 0.927324 0.576418
O O2 0.830954 0.935907 0.691952
O O3 0.000000 0.977432 0.606574
O O4 0.764229 0.023012 0.641585
O O5 0.500000 0.634379 0.440172
O O6 0.281501 0.632120 0.520610
O O7 0.255044 0.677172 0.412939
O O8 0.226088 0.219455 0.585458
O O9 0.228436 0.125281 0.642420
O O10 0.000000 0.160347 0.589407
O O11 0.500000 0.803643 0.750000
O O12 0.720348 0.857138 0.750000
O O13 0.714899 0.767742 0.687935
O O14 0.500000 0.629914 0.250000
O O15 0.000000 0.282931 0.607170
O O16 0.768653 0.075927 0.750000
O O17 0.000000 0.070311 0.681568
#
# Coordination Sequence:
#
# PCOD8255369 Si02
#       7
#    16  16  16   8   8  16  16
#     4   9  16  26  45  71  98 124 154 195 240 285
#     4  10  19  32  50  73  99 127 159 196 239 284
#     4   9  19  31  45  67  97 131 163 194 233 285
#     4  10  20  30  45  71  97 123 158 201 242 278
#     4  10  16  28  47  71  99 125 156 193 234 284
#     4  10  20  33  48  70  99 127 160 200 239 281
#     4   9  16  27  44  68  99 130 156 192 245 289
#
# _framework density 18.818505999999999
#
# number of rings (size 3 to 8) (size 9 to 14) (size 15 to 20)
#    0.000    2.500    2.500    0.500    1.167    0.667 
#    0.000    3.333    0.000    0.000    0.000    5.833 
#    0.000    0.000    0.000    0.000    0.000    0.000 
#
# Total GULP energy -594704.809874 kJ/mol
# GULP energy per Si atom -12389.683539 kJ/mol
# Density = 1.877567 g / cm^3
# Si number density = 18.818506 Si / 1000 Ang^3
#
#
#
# Elastic Constant Matrix: (Units=GPa)
#
#
# Indices 1 2 3 4 5 6 
#
# 1 -7.0177 16.0253 28.9411 0.0000 0.0000 0.0000
# 2 16.0253 102.6061 46.7730 0.0000 0.0000 0.0000
# 3 28.9411 46.7730 108.2505 0.0000 0.0000 0.0000
# 4 0.0000 0.0000 0.0000 36.4258 0.0000 0.0000
# 5 0.0000 0.0000 0.0000 0.0000 17.1142 0.0000
# 6 0.0000 0.0000 0.0000 0.0000 0.0000 17.2968
#
#
#
# Elastic Compliance Matrix: (Units=1/GPa)
#
#
# Indices 1 2 3 4 5 6 
#
# 1 -0.067089 0.002866 0.016698 0.000000 0.000000 0.000000
# 2 0.002866 0.012014 -0.005957 0.000000 0.000000 0.000000
# 3 0.016698 -0.005957 0.007348 0.000000 0.000000 0.000000
# 4 0.000000 0.000000 0.000000 0.027453 0.000000 0.000000
# 5 0.000000 0.000000 0.000000 0.000000 0.058431 0.000000
# 6 0.000000 0.000000 0.000000 0.000000 0.000000 0.057814
#
#
# Mechanical properties :
#
#
# Convention : Reuss Voigt Hill
#
# Bulk Modulus (GPa) = -48.74908 43.03532 -2.85688
# Shear Modulus (GPa) = 80.74937 21.64064 51.19500
#
# Velocity S-wave (km/s) = 6.55764 3.39479 5.22146
# Velocity P-wave (km/s) = 5.60141 6.18744 5.90171
#
# Compressibility (1/GPa) = -0.02051321
#
# Stress axis : x y z
#
# Youngs Moduli (GPa) = -14.90566 83.23623 136.09766
#
# Poissons Ratio (x) = -0.23858 -2.27254
# Poissons Ratio (y) = 0.04272 0.81078
# Poissons Ratio (z) = 0.24889 0.49587
#
# Static dielectric constant tensor:
#      x y z
#    x 2.944350 0.000000 0.000000 
#    y 0.000000 3.675020 0.000000 
#    z 0.000000 0.000000 3.738530 
# 
# 
# High freq. dielectric constant tensor:
#      x y z
#    x 1.656780 0.000000 0.000000 
#    y 0.000000 1.740480 0.000000 
#    z 0.000000 0.000000 1.747060 
# 
# From -- ./inp_files/60099.got.cif
#   From: 2010.03.12/outbox.cif.g09.slc.cpg/sg63_31_cif.got.tgz:60099.got - 2010.04.10 19:34:48.
