data_PCOD8255255
_publ_section_title
;
Structure prediction by ZEFSAII (Michael W. Deem and Ramdas Pophale) SiO2 
 PCOD8255255
Probable space group: P N M A
;
_chemical_formula_sum "Si O2"
_cell_formula_units_Z 32
_cell_length_a 8.279668
_cell_length_b 14.087664
_cell_length_c 11.478018
_cell_angle_alpha 90.000000
_cell_angle_beta 90.000000
_cell_angle_gamma 90.000000
_cell_volume 1338.809573
_symmetry_space_group_name_H-M "P N M A"
_symmetry_group_IT_number 62
_symmetry_cell_setting 'orthorhombic'
loop_
_space_group_symop_operation_xyz
x,y,z
1/2-x,-y,1/2+z
1/2+x,1/2-y,1/2-z
-x,1/2+y,-z
-x,-y,-z
1/2+x,y,1/2-z
1/2-x,1/2+y,1/2+z
x,1/2-y,z
loop_
_atom_site_type_symbol
_atom_site_label
_atom_site_fract_x
_atom_site_fract_y
_atom_site_fract_z
Si Si1 0.805998 0.250000 0.148818
Si Si2 0.665360 0.141798 0.798109
Si Si3 0.855729 0.412546 0.584540
Si Si4 0.427900 0.250000 0.094324
Si Si5 0.646588 0.927261 0.503683
O O1 0.618313 0.250000 0.116047
O O2 0.827384 0.250000 0.286763
O O3 0.890642 0.156239 0.095688
O O4 0.611620 0.250000 0.820526
O O5 0.514955 0.077156 0.836288
O O6 0.707825 0.125928 0.663578
O O7 0.822402 0.117832 0.876660
O O8 0.878617 0.343593 0.475624
O O9 0.810486 0.517513 0.540829
O O10 0.500000 0.000000 0.500000
#
# Coordination Sequence:
#
# PCOD8255255 Si02
#       5
#     4   8   8   4   8
#     4  12  30  53  75 110 162 205 252 326 390 453
#     4  12  23  50  76 109 154 196 255 326 379 448
#     4  12  26  46  80 111 151 206 252 317 383 459
#     4  12  28  51  79 112 164 203 254 318 388 469
#     4  12  28  48  78 112 156 202 262 314 386 466
#
# _framework density 23.901831999999999
#
# number of rings (size 3 to 8) (size 9 to 14) (size 15 to 20)
#    0.000    0.000    6.250    2.250    7.000    0.000 
#    0.000    0.000    0.000    0.000    0.000    0.000 
#    0.000    0.000    0.000    0.000    0.000    0.000 
#
# Total GULP energy -397050.361423 kJ/mol
# GULP energy per Si atom -12407.823794 kJ/mol
# Density = 2.384743 g / cm^3
# Si number density = 23.901832 Si / 1000 Ang^3
#
#
#
# Elastic Constant Matrix: (Units=GPa)
#
#
# Indices 1 2 3 4 5 6 
#
# 1 79.2541 36.4188 35.3628 0.0000 0.0000 0.0000
# 2 36.4188 134.4935 57.1150 0.0000 0.0000 0.0000
# 3 35.3628 57.1150 153.8318 0.0000 0.0000 0.0000
# 4 0.0000 0.0000 0.0000 30.8330 0.0000 0.0000
# 5 0.0000 0.0000 0.0000 0.0000 47.4927 0.0000
# 6 0.0000 0.0000 0.0000 0.0000 0.0000 42.4381
#
#
#
# Elastic Compliance Matrix: (Units=1/GPa)
#
#
# Indices 1 2 3 4 5 6 
#
# 1 0.015075 -0.003099 -0.002315 0.000000 0.000000 0.000000
# 2 -0.003099 0.009464 -0.002801 0.000000 0.000000 0.000000
# 3 -0.002315 -0.002801 0.008073 0.000000 0.000000 0.000000
# 4 0.000000 0.000000 0.000000 0.032433 0.000000 0.000000
# 5 0.000000 0.000000 0.000000 0.000000 0.021056 0.000000
# 6 0.000000 0.000000 0.000000 0.000000 0.000000 0.023564
#
#
# Mechanical properties :
#
#
# Convention : Reuss Voigt Hill
#
# Bulk Modulus (GPa) = 61.80023 69.48583 65.64303
# Shear Modulus (GPa) = 38.02630 40.06495 39.04563
#
# Velocity S-wave (km/s) = 3.99298 4.09862 4.04615
# Velocity P-wave (km/s) = 6.86808 7.17863 7.02507
#
# Compressibility (1/GPa) = 0.01618117
#
# Stress axis : x y z
#
# Youngs Moduli (GPa) = 66.33718 105.66186 123.87179
#
# Poissons Ratio (x) = 0.32744 0.28673
# Poissons Ratio (y) = 0.20558 0.34703
# Poissons Ratio (z) = 0.15355 0.29601
#
# Static dielectric constant tensor:
#      x y z
#    x 4.264730 0.000000 0.000000 
#    y 0.000000 4.349840 0.000000 
#    z 0.000000 0.000000 4.505890 
# 
# 
# High freq. dielectric constant tensor:
#      x y z
#    x 1.954590 0.000000 0.000000 
#    y 0.000000 1.951610 0.000000 
#    z 0.000000 0.000000 1.960790 
# 
# From -- ./inp_files/10998.got.cif
#   From: 2010.03.12/outbox.cif.g09.slc.cpg/sg62_6_cif.got.tgz:10998.got - 2010.04.10 19:12:36.
