data_PCOD8255425
_publ_section_title
;
Structure prediction by ZEFSAII (Michael W. Deem and Ramdas Pophale) SiO2 
 PCOD8255425
Probable space group: C M C M
;
_chemical_formula_sum "Si O2"
_cell_formula_units_Z 96
_cell_length_a 8.836550
_cell_length_b 19.797930
_cell_length_c 31.191138
_cell_angle_alpha 90.000000
_cell_angle_beta 90.000000
_cell_angle_gamma 90.000000
_cell_volume 5456.746062
_symmetry_space_group_name_H-M "C M C M"
_symmetry_group_IT_number 63
_symmetry_cell_setting 'orthorhombic'
loop_
_space_group_symop_operation_xyz
x,y,z
-x,-y,1/2+z
x,-y,-z
-x,y,1/2-z
-x,-y,-z
x,y,1/2-z
-x,y,z
x,-y,1/2+z
1/2+x,1/2+y,z
1/2-x,1/2-y,1/2+z
1/2+x,1/2-y,-z
1/2-x,1/2+y,1/2-z
1/2-x,1/2-y,-z
1/2+x,1/2+y,1/2-z
1/2-x,1/2+y,z
1/2+x,1/2-y,1/2+z
loop_
_atom_site_type_symbol
_atom_site_label
_atom_site_fract_x
_atom_site_fract_y
_atom_site_fract_z
Si Si1 0.820145 0.680420 0.797707
Si Si2 0.821103 0.921681 0.041725
Si Si3 0.178620 0.830974 0.702454
Si Si4 0.326858 0.072328 0.364641
Si Si5 0.820774 0.417075 0.128314
Si Si6 0.823767 0.432243 0.959128
O O1 0.762808 0.660201 0.750000
O O2 0.761804 0.755802 0.809330
O O3 0.757074 0.627258 0.832273
O O4 0.000000 0.678709 0.798440
O O5 0.757797 0.887892 0.085215
O O6 0.000000 0.913213 0.039366
O O7 0.771443 0.999217 0.042469
O O8 0.745009 0.888219 0.998687
O O9 0.237966 0.850953 0.750000
O O10 0.229931 0.885178 0.668163
O O11 0.000000 0.829849 0.702605
O O12 0.500000 0.077714 0.350332
O O13 0.303622 0.102976 0.412690
O O14 0.273652 0.994467 0.363032
O O15 0.000000 0.410853 0.122177
O O16 0.000000 0.448615 0.967131
#
# Coordination Sequence:
#
# PCOD8255425 Si02
#       6
#    16  16  16  16  16  16
#     4   8  15  30  51  70  87 116 160 197 224 266
#     4  10  17  25  41  67  96 122 149 184 229 276
#     4   9  18  32  49  68  91 121 154 188 229 276
#     4   9  18  29  45  71  96 119 149 188 231 269
#     4   9  17  30  48  69  93 121 154 192 229 265
#     4   9  16  28  44  63  90 123 158 189 220 265
#
# _framework density 17.592903
#
# number of rings (size 3 to 8) (size 9 to 14) (size 15 to 20)
#    0.000    3.000    0.000    5.000    0.000    4.333 
#    0.000    2.500    0.000    2.500    0.000    0.000 
#    0.000    0.000    0.000    0.000    0.000    0.000 
#
# Total GULP energy -594727.128619 kJ/mol
# GULP energy per Si atom -12390.148513 kJ/mol
# Density = 1.755286 g / cm^3
# Si number density = 17.592903 Si / 1000 Ang^3
#
#
#
# Elastic Constant Matrix: (Units=GPa)
#
#
# Indices 1 2 3 4 5 6 
#
# 1 47.5639 21.4480 42.6643 0.0000 0.0000 0.0000
# 2 21.4480 59.9900 66.6017 0.0000 0.0000 0.0000
# 3 42.6643 66.6017 169.8650 0.0000 0.0000 0.0000
# 4 0.0000 0.0000 0.0000 2.0997 0.0000 0.0000
# 5 0.0000 0.0000 0.0000 0.0000 27.0740 0.0000
# 6 0.0000 0.0000 0.0000 0.0000 0.0000 13.6226
#
#
#
# Elastic Compliance Matrix: (Units=1/GPa)
#
#
# Indices 1 2 3 4 5 6 
#
# 1 0.027632 -0.003850 -0.005431 0.000000 0.000000 0.000000
# 2 -0.003850 0.030055 -0.010817 0.000000 0.000000 0.000000
# 3 -0.005431 -0.010817 0.011492 0.000000 0.000000 0.000000
# 4 0.000000 0.000000 0.000000 0.476267 0.000000 0.000000
# 5 0.000000 0.000000 0.000000 0.000000 0.036936 0.000000
# 6 0.000000 0.000000 0.000000 0.000000 0.000000 0.073407
#
#
# Mechanical properties :
#
#
# Convention : Reuss Voigt Hill
#
# Bulk Modulus (GPa) = 34.50215 59.87186 47.18700
# Shear Modulus (GPa) = 7.08570 18.33959 12.71265
#
# Velocity S-wave (km/s) = 2.00906 3.23219 2.69104
# Velocity P-wave (km/s) = 5.00357 6.93074 6.04445
#
# Compressibility (1/GPa) = 0.02898370
#
# Stress axis : x y z
#
# Youngs Moduli (GPa) = 36.19046 33.27187 87.01430
#
# Poissons Ratio (x) = 0.12809 0.47254
# Poissons Ratio (y) = 0.13933 0.94127
# Poissons Ratio (z) = 0.19654 0.35991
#
# Static dielectric constant tensor:
#      x y z
#    x 3.010240 0.000000 0.000000 
#    y 0.000000 2.978730 0.000000 
#    z 0.000000 0.000000 4.072260 
# 
# 
# High freq. dielectric constant tensor:
#      x y z
#    x 1.661950 0.000000 0.000000 
#    y 0.000000 1.628100 0.000000 
#    z 0.000000 0.000000 1.705760 
# 
# From -- ./inp_files/67224.got.cif
#   From: 2010.03.12/outbox.cif.g09.slc.cpg/sg63_34_cif.got.tgz:67224.got - 2010.04.10 19:34:48.
