data_PCOD8255834
_publ_section_title
;
Structure prediction by ZEFSAII (Michael W. Deem and Ramdas Pophale) SiO2 
 PCOD8255834
Probable space group: C M C M
;
_chemical_formula_sum "Si O2"
_cell_formula_units_Z 96
_cell_length_a 29.480737
_cell_length_b 24.273995
_cell_length_c 8.861170
_cell_angle_alpha 90.000000
_cell_angle_beta 90.000000
_cell_angle_gamma 90.000000
_cell_volume 6341.188496
_symmetry_space_group_name_H-M "C M C M"
_symmetry_group_IT_number 63
_symmetry_cell_setting 'orthorhombic'
loop_
_space_group_symop_operation_xyz
x,y,z
-x,-y,1/2+z
x,-y,-z
-x,y,1/2-z
-x,-y,-z
x,y,1/2-z
-x,y,z
x,-y,1/2+z
1/2+x,1/2+y,z
1/2-x,1/2-y,1/2+z
1/2+x,1/2-y,-z
1/2-x,1/2+y,1/2-z
1/2-x,1/2-y,-z
1/2+x,1/2+y,1/2-z
1/2-x,1/2+y,z
1/2+x,1/2-y,1/2+z
loop_
_atom_site_type_symbol
_atom_site_label
_atom_site_fract_x
_atom_site_fract_y
_atom_site_fract_z
Si Si1 0.317962 0.720950 0.427183
Si Si2 0.624873 0.364146 0.072018
Si Si3 0.719889 0.174414 0.070862
Si Si4 0.788138 0.552757 0.414978
Si Si5 0.818044 0.052039 0.082477
Si Si6 0.551923 0.441923 0.927844
O O1 0.327074 0.720549 0.250000
O O2 0.362914 0.696800 0.510136
O O3 0.312540 0.783275 0.484861
O O4 0.272488 0.686452 0.467951
O O5 0.617649 0.362976 0.250000
O O6 0.670089 0.396812 0.023112
O O7 0.581128 0.391478 0.994307
O O8 0.712839 0.179047 0.250000
O O9 0.705141 0.113338 0.011185
O O10 0.809980 0.500000 0.500000
O O11 0.810602 0.552554 0.250000
O O12 0.734858 0.543410 0.400696
O O13 0.839612 0.059502 0.250000
O O14 0.840818 0.000000 0.000000
O O15 0.559346 0.445909 0.750000
O O16 0.500000 0.428924 0.969687
O O17 0.567054 0.500000 0.000000
#
# Coordination Sequence:
#
# PCOD8255834 Si02
#       6
#    16  16  16  16  16  16
#     4  10  19  31  45  61  82 109 142 179 217 261
#     4  12  22  31  45  64  84 109 140 176 217 264
#     4   9  17  31  44  59  83 110 140 178 220 260
#     4   9  17  28  41  57  79 105 136 174 212 252
#     4  10  18  29  40  56  79 104 134 173 215 254
#     4  10  21  37  54  69  87 112 142 180 227 276
#
# _framework density 15.139119000000001
#
# number of rings (size 3 to 8) (size 9 to 14) (size 15 to 20)
#    0.000    2.000    1.667    3.500    0.000    3.000 
#    0.000    0.000    0.000    0.000    0.000    0.000 
#    0.000    0.000    0.000    0.000    0.000    0.833 
#
# Total GULP energy -594778.050481 kJ/mol
# GULP energy per Si atom -12391.209385 kJ/mol
# Density = 1.510466 g / cm^3
# Si number density = 15.139119 Si / 1000 Ang^3
#
#
#
# Elastic Constant Matrix: (Units=GPa)
#
#
# Indices 1 2 3 4 5 6 
#
# 1 46.7574 31.4088 26.1362 0.0000 0.0000 0.0000
# 2 31.4088 126.8999 49.8305 0.0000 0.0000 0.0000
# 3 26.1362 49.8305 83.8306 0.0000 0.0000 0.0000
# 4 0.0000 0.0000 0.0000 27.2447 0.0000 0.0000
# 5 0.0000 0.0000 0.0000 0.0000 15.3673 0.0000
# 6 0.0000 0.0000 0.0000 0.0000 0.0000 21.3800
#
#
#
# Elastic Compliance Matrix: (Units=1/GPa)
#
#
# Indices 1 2 3 4 5 6 
#
# 1 0.027763 -0.004530 -0.005963 0.000000 0.000000 0.000000
# 2 -0.004530 0.011019 -0.005137 0.000000 0.000000 0.000000
# 3 -0.005963 -0.005137 0.016842 0.000000 0.000000 0.000000
# 4 0.000000 0.000000 0.000000 0.036704 0.000000 0.000000
# 5 0.000000 0.000000 0.000000 0.000000 0.065073 0.000000
# 6 0.000000 0.000000 0.000000 0.000000 0.000000 0.046773
#
#
# Mechanical properties :
#
#
# Convention : Reuss Voigt Hill
#
# Bulk Modulus (GPa) = 41.04653 52.47097 46.75875
# Shear Modulus (GPa) = 20.52916 22.80590 21.66753
#
# Velocity S-wave (km/s) = 3.68643 3.88548 3.78726
# Velocity P-wave (km/s) = 6.72989 7.40700 7.07655
#
# Compressibility (1/GPa) = 0.02436260
#
# Stress axis : x y z
#
# Youngs Moduli (GPa) = 36.01889 90.75398 59.37628
#
# Poissons Ratio (x) = 0.41112 0.35407
# Poissons Ratio (y) = 0.16317 0.30504
# Poissons Ratio (z) = 0.21478 0.46624
#
# Static dielectric constant tensor:
#      x y z
#    x 2.526620 0.000000 0.000000 
#    y 0.000000 3.177020 0.000000 
#    z 0.000000 0.000000 3.220750 
# 
# 
# High freq. dielectric constant tensor:
#      x y z
#    x 1.516920 0.000000 0.000000 
#    y 0.000000 1.579090 0.000000 
#    z 0.000000 0.000000 1.592640 
# 
# From -- ./inp_files/12741.got.cif
#   From: 2010.03.12/outbox.cif.g09.slc.cpg/sg63_7_cif.got.tgz:12741.got - 2010.04.10 19:34:48.
