data_PCOD8255815
_publ_section_title
;
Structure prediction by ZEFSAII (Michael W. Deem and Ramdas Pophale) SiO2 
 PCOD8255815
Probable space group: C M C M
;
_chemical_formula_sum "Si O2"
_cell_formula_units_Z 80
_cell_length_a 25.193829
_cell_length_b 19.796298
_cell_length_c 9.131216
_cell_angle_alpha 90.000000
_cell_angle_beta 90.000000
_cell_angle_gamma 90.000000
_cell_volume 4554.144184
_symmetry_space_group_name_H-M "C M C M"
_symmetry_group_IT_number 63
_symmetry_cell_setting 'orthorhombic'
loop_
_space_group_symop_operation_xyz
x,y,z
-x,-y,1/2+z
x,-y,-z
-x,y,1/2-z
-x,-y,-z
x,y,1/2-z
-x,y,z
x,-y,1/2+z
1/2+x,1/2+y,z
1/2-x,1/2-y,1/2+z
1/2+x,1/2-y,-z
1/2-x,1/2+y,1/2-z
1/2-x,1/2-y,-z
1/2+x,1/2+y,1/2-z
1/2-x,1/2+y,z
1/2+x,1/2-y,1/2+z
loop_
_atom_site_type_symbol
_atom_site_label
_atom_site_fract_x
_atom_site_fract_y
_atom_site_fract_z
Si Si1 0.500000 0.820366 0.577504
Si Si2 0.115216 0.831028 0.915734
Si Si3 0.395537 0.826121 0.079499
Si Si4 0.811952 0.067998 0.578254
Si Si5 0.000000 0.815814 0.584456
Si Si6 0.690875 0.932648 0.421123
O O1 0.500000 0.831482 0.750000
O O2 0.553250 0.853066 0.509338
O O3 0.500000 0.741594 0.537739
O O4 0.135276 0.843244 0.750000
O O5 0.116972 0.751878 0.955698
O O6 0.054304 0.858616 0.933714
O O7 0.152789 0.869346 0.027590
O O8 0.407664 0.836170 0.250000
O O9 0.344943 0.869701 0.028640
O O10 0.819008 0.057959 0.750000
O O11 0.751349 0.083933 0.533860
O O12 0.831984 0.000000 0.500000
O O13 0.000000 0.783284 0.750000
O O14 0.686287 0.946074 0.250000
O O15 0.670389 0.000000 0.500000
#
# Coordination Sequence:
#
# PCOD8255815 Si02
#       6
#     8  16  16  16   8  16
#     4  10  18  28  47  76 103 126 160 204 244 284
#     4   9  17  31  52  75  98 128 164 199 239 292
#     4   9  18  34  53  72  99 134 165 196 243 297
#     4  10  20  34  51  72  99 130 164 203 247 293
#     4   8  16  32  51  70  99 136 164 192 242 298
#     4   9  19  35  53  72  97 131 167 202 244 293
#
# _framework density 17.566417000000001
#
# number of rings (size 3 to 8) (size 9 to 14) (size 15 to 20)
#    0.000    2.800    0.000    2.700    0.000    5.600 
#    0.000    1.000    0.000    0.000    0.000    0.000 
#    0.000    0.000    0.000    0.000    0.000    0.000 
#
# Total GULP energy -495881.526197 kJ/mol
# GULP energy per Si atom -12397.038155 kJ/mol
# Density = 1.752644 g / cm^3
# Si number density = 17.566417 Si / 1000 Ang^3
#
#
#
# Elastic Constant Matrix: (Units=GPa)
#
#
# Indices 1 2 3 4 5 6 
#
# 1 118.3636 66.0256 51.6489 0.0000 0.0000 0.0000
# 2 66.0256 81.6213 41.5511 0.0000 0.0000 0.0000
# 3 51.6489 41.5511 72.3987 0.0000 0.0000 0.0000
# 4 0.0000 0.0000 0.0000 27.3270 0.0000 0.0000
# 5 0.0000 0.0000 0.0000 0.0000 26.1233 0.0000
# 6 0.0000 0.0000 0.0000 0.0000 0.0000 10.5809
#
#
#
# Elastic Compliance Matrix: (Units=1/GPa)
#
#
# Indices 1 2 3 4 5 6 
#
# 1 0.017063 -0.010746 -0.006006 0.000000 0.000000 0.000000
# 2 -0.010746 0.024076 -0.006152 0.000000 0.000000 0.000000
# 3 -0.006006 -0.006152 0.021627 0.000000 0.000000 0.000000
# 4 0.000000 0.000000 0.000000 0.036594 0.000000 0.000000
# 5 0.000000 0.000000 0.000000 0.000000 0.038280 0.000000
# 6 0.000000 0.000000 0.000000 0.000000 0.000000 0.094510
#
#
# Mechanical properties :
#
#
# Convention : Reuss Voigt Hill
#
# Bulk Modulus (GPa) = 58.96086 65.64831 62.30459
# Shear Modulus (GPa) = 17.62986 20.35011 18.98998
#
# Velocity S-wave (km/s) = 3.17142 3.40732 3.29148
# Velocity P-wave (km/s) = 6.85915 7.27546 7.07037
#
# Compressibility (1/GPa) = 0.01696040
#
# Stress axis : x y z
#
# Youngs Moduli (GPa) = 58.60517 41.53554 46.23748
#
# Poissons Ratio (x) = 0.44632 0.27769
# Poissons Ratio (y) = 0.62975 0.28444
# Poissons Ratio (z) = 0.35197 0.25551
#
# Static dielectric constant tensor:
#      x y z
#    x 3.555770 0.000000 0.000000 
#    y 0.000000 3.036490 0.000000 
#    z 0.000000 0.000000 3.154850 
# 
# 
# High freq. dielectric constant tensor:
#      x y z
#    x 1.689900 0.000000 0.000000 
#    y 0.000000 1.648580 0.000000 
#    z 0.000000 0.000000 1.676620 
# 
# From -- ./inp_files/10121.got.cif
#   From: 2010.03.12/outbox.cif.g09.slc.cpg/sg63_6_cif.got.tgz:10121.got - 2010.04.10 19:34:48.
