data_PCOD8255164
_publ_section_title
;
Structure prediction by ZEFSAII (Michael W. Deem and Ramdas Pophale) SiO2 
 PCOD8255164
Probable space group: P N M A
;
_chemical_formula_sum "Si O2"
_cell_formula_units_Z 32
_cell_length_a 9.012522
_cell_length_b 29.495504
_cell_length_c 5.223038
_cell_angle_alpha 90.000000
_cell_angle_beta 90.000000
_cell_angle_gamma 90.000000
_cell_volume 1388.434335
_symmetry_space_group_name_H-M "P N M A"
_symmetry_group_IT_number 62
_symmetry_cell_setting 'orthorhombic'
loop_
_space_group_symop_operation_xyz
x,y,z
1/2-x,-y,1/2+z
1/2+x,1/2-y,1/2-z
-x,1/2+y,-z
-x,-y,-z
1/2+x,y,1/2-z
1/2-x,1/2+y,1/2+z
x,1/2-y,z
loop_
_atom_site_type_symbol
_atom_site_label
_atom_site_fract_x
_atom_site_fract_y
_atom_site_fract_z
Si Si1 0.475527 0.697655 0.046803
Si Si2 0.358888 0.334172 0.449333
Si Si3 0.900839 0.520992 0.282825
Si Si4 0.845397 0.436582 0.030890
O O1 0.469554 0.750000 0.125267
O O2 0.309805 0.680393 0.996148
O O3 0.571869 0.693262 0.787545
O O4 0.548813 0.671550 0.287296
O O5 0.366160 0.386489 0.357636
O O6 0.796126 0.477086 0.222895
O O7 0.793034 0.563870 0.337729
O O8 0.000000 0.500000 0.500000
O O9 0.998221 0.544121 0.063967
#
# Coordination Sequence:
#
# PCOD8255164 Si02
#       4
#     8   8   8   8
#     4  12  26  50  74 106 142 187 233 302 374 426
#     4  12  28  45  78 107 144 185 244 298 347 444
#     4  11  23  42  63  92 137 181 218 279 330 403
#     4  11  25  40  68  97 134 181 233 275 343 399
#
# _framework density 23.047546000000001
#
# number of rings (size 3 to 8) (size 9 to 14) (size 15 to 20)
#    0.000    0.500    2.500    5.250    7.000    0.000 
#    0.000    0.000    0.000    0.000    0.000    0.000 
#    0.000    0.000    0.000    0.000    0.000    0.000 
#
# Total GULP energy -396439.509027 kJ/mol
# GULP energy per Si atom -12388.734657 kJ/mol
# Density = 2.299509 g / cm^3
# Si number density = 23.047546 Si / 1000 Ang^3
#
#
#
# Elastic Constant Matrix: (Units=GPa)
#
#
# Indices 1 2 3 4 5 6 
#
# 1 125.1938 21.3172 21.5348 0.0000 0.0000 0.0000
# 2 21.3172 134.2597 -0.9168 0.0000 0.0000 0.0000
# 3 21.5348 -0.9168 84.5941 0.0000 0.0000 0.0000
# 4 0.0000 0.0000 0.0000 30.8527 0.0000 0.0000
# 5 0.0000 0.0000 0.0000 0.0000 35.4557 0.0000
# 6 0.0000 0.0000 0.0000 0.0000 0.0000 36.0893
#
#
#
# Elastic Compliance Matrix: (Units=1/GPa)
#
#
# Indices 1 2 3 4 5 6 
#
# 1 0.008602 -0.001381 -0.002205 0.000000 0.000000 0.000000
# 2 -0.001381 0.007670 0.000435 0.000000 0.000000 0.000000
# 3 -0.002205 0.000435 0.012387 0.000000 0.000000 0.000000
# 4 0.000000 0.000000 0.000000 0.032412 0.000000 0.000000
# 5 0.000000 0.000000 0.000000 0.000000 0.028204 0.000000
# 6 0.000000 0.000000 0.000000 0.000000 0.000000 0.027709
#
#
# Mechanical properties :
#
#
# Convention : Reuss Voigt Hill
#
# Bulk Modulus (GPa) = 44.72731 47.54642 46.13687
# Shear Modulus (GPa) = 38.24404 40.62037 39.43220
#
# Velocity S-wave (km/s) = 4.07794 4.20272 4.14080
# Velocity P-wave (km/s) = 6.45147 6.65019 6.55158
#
# Compressibility (1/GPa) = 0.02235771
#
# Stress axis : x y z
#
# Youngs Moduli (GPa) = 116.25233 130.37018 80.72899
#
# Poissons Ratio (x) = 0.18002 0.17799
# Poissons Ratio (y) = 0.16053 -0.03509
# Poissons Ratio (z) = 0.25631 -0.05667
#
# Static dielectric constant tensor:
#      x y z
#    x 3.996330 0.000000 0.000000 
#    y 0.000000 4.557020 0.000000 
#    z 0.000000 0.000000 5.019470 
# 
# 
# High freq. dielectric constant tensor:
#      x y z
#    x 1.938830 0.000000 0.000000 
#    y 0.000000 1.918780 0.000000 
#    z 0.000000 0.000000 1.907410 
# 
# From -- ./inp_files/183.got.cif
#   From: 2010.03.12/outbox.cif.g09.slc.cpg/sg62_1_cif.got.tgz:183.got - 2010.04.10 19:12:36.
