data_PCOD8255776
_publ_section_title
;
Structure prediction by ZEFSAII (Michael W. Deem and Ramdas Pophale) SiO2 
 PCOD8255776
Probable space group: C M C M
;
_chemical_formula_sum "Si O2"
_cell_formula_units_Z 96
_cell_length_a 25.148742
_cell_length_b 25.299247
_cell_length_c 8.947141
_cell_angle_alpha 90.000000
_cell_angle_beta 90.000000
_cell_angle_gamma 90.000000
_cell_volume 5692.566886
_symmetry_space_group_name_H-M "C M C M"
_symmetry_group_IT_number 63
_symmetry_cell_setting 'orthorhombic'
loop_
_space_group_symop_operation_xyz
x,y,z
-x,-y,1/2+z
x,-y,-z
-x,y,1/2-z
-x,-y,-z
x,y,1/2-z
-x,y,z
x,-y,1/2+z
1/2+x,1/2+y,z
1/2-x,1/2-y,1/2+z
1/2+x,1/2-y,-z
1/2-x,1/2+y,1/2-z
1/2-x,1/2-y,-z
1/2+x,1/2+y,1/2-z
1/2-x,1/2+y,z
1/2+x,1/2-y,1/2+z
loop_
_atom_site_type_symbol
_atom_site_label
_atom_site_fract_x
_atom_site_fract_y
_atom_site_fract_z
Si Si1 0.436914 0.253493 0.915746
Si Si2 0.630992 0.443499 0.923436
Si Si3 0.251698 0.556423 0.424329
Si Si4 0.559155 0.862301 0.427873
Si Si5 0.436995 0.643337 0.919824
Si Si6 0.851363 0.442396 0.428235
O O1 0.412551 0.261959 0.750000
O O2 0.500000 0.255595 0.905093
O O3 0.421018 0.195852 0.982049
O O4 0.415558 0.300095 0.021831
O O5 0.620028 0.452674 0.750000
O O6 0.690033 0.417836 0.948402
O O7 0.624475 0.500000 0.000000
O O8 0.587695 0.403638 0.985400
O O9 0.255222 0.500000 0.500000
O O10 0.237620 0.551145 0.250000
O O11 0.202881 0.585589 0.509325
O O12 0.557056 0.860867 0.250000
O O13 0.500000 0.875179 0.490793
O O14 0.599643 0.906770 0.484964
O O15 0.418422 0.637344 0.750000
O O16 0.500000 0.639358 0.936928
O O17 0.858884 0.500000 0.500000
O O18 0.849097 0.446502 0.250000
#
# Coordination Sequence:
#
# PCOD8255776 Si02
#       6
#    16  16  16  16  16  16
#     4   8  14  28  49  67  85 116 157 193 223 262
#     4  10  20  33  50  70  92 121 154 188 226 268
#     4   9  17  30  47  66  88 116 153 192 226 264
#     4   8  15  28  46  68  93 122 156 191 227 270
#     4  10  20  32  47  70  98 123 147 181 226 273
#     4  10  18  28  45  68  94 124 155 188 228 273
#
# _framework density 16.864097999999998
#
# number of rings (size 3 to 8) (size 9 to 14) (size 15 to 20)
#    0.000    2.833    0.000    4.000    0.000    3.667 
#    0.000    1.667    0.000    4.500    0.000    0.000 
#    0.000    0.000    0.000    0.000    0.000    0.000 
#
# Total GULP energy -594778.355787 kJ/mol
# GULP energy per Si atom -12391.215746 kJ/mol
# Density = 1.682571 g / cm^3
# Si number density = 16.864098 Si / 1000 Ang^3
#
#
#
# Elastic Constant Matrix: (Units=GPa)
#
#
# Indices 1 2 3 4 5 6 
#
# 1 60.5592 42.5863 37.9999 0.0000 0.0000 0.0000
# 2 42.5863 95.5124 42.5639 0.0000 0.0000 0.0000
# 3 37.9999 42.5639 92.3525 0.0000 0.0000 0.0000
# 4 0.0000 0.0000 0.0000 20.1611 0.0000 0.0000
# 5 0.0000 0.0000 0.0000 0.0000 21.5765 0.0000
# 6 0.0000 0.0000 0.0000 0.0000 0.0000 2.7061
#
#
#
# Elastic Compliance Matrix: (Units=1/GPa)
#
#
# Indices 1 2 3 4 5 6 
#
# 1 0.027292 -0.009016 -0.007074 0.000000 0.000000 0.000000
# 2 -0.009016 0.016155 -0.003736 0.000000 0.000000 0.000000
# 3 -0.007074 -0.003736 0.015461 0.000000 0.000000 0.000000
# 4 0.000000 0.000000 0.000000 0.049600 0.000000 0.000000
# 5 0.000000 0.000000 0.000000 0.000000 0.046347 0.000000
# 6 0.000000 0.000000 0.000000 0.000000 0.000000 0.369536
#
#
# Mechanical properties :
#
#
# Convention : Reuss Voigt Hill
#
# Bulk Modulus (GPa) = 51.93422 54.96936 53.45179
# Shear Modulus (GPa) = 8.76484 17.24035 13.00260
#
# Velocity S-wave (km/s) = 2.28224 3.20083 2.77974
# Velocity P-wave (km/s) = 6.14877 6.80637 6.48591
#
# Compressibility (1/GPa) = 0.01925513
#
# Stress axis : x y z
#
# Youngs Moduli (GPa) = 36.64055 61.90170 64.68058
#
# Poissons Ratio (x) = 0.55812 0.45757
# Poissons Ratio (y) = 0.33036 0.24162
# Poissons Ratio (z) = 0.25921 0.23124
#
# Static dielectric constant tensor:
#      x y z
#    x 3.587610 0.000000 0.000000 
#    y 0.000000 3.178970 0.000000 
#    z 0.000000 0.000000 3.234210 
# 
# 
# High freq. dielectric constant tensor:
#      x y z
#    x 1.638550 0.000000 0.000000 
#    y 0.000000 1.631470 0.000000 
#    z 0.000000 0.000000 1.649310 
# 
# From -- ./inp_files/10701.got.cif
#   From: 2010.03.12/outbox.cif.g09.slc.cpg/sg63_6_cif.got.tgz:10701.got - 2010.04.10 19:34:48.
