data_PCOD8255676
_publ_section_title
;
Structure prediction by ZEFSAII (Michael W. Deem and Ramdas Pophale) SiO2 
 PCOD8255676
Probable space group: C M C M
;
_chemical_formula_sum "Si O2"
_cell_formula_units_Z 96
_cell_length_a 23.225082
_cell_length_b 26.030303
_cell_length_c 9.041172
_cell_angle_alpha 90.000000
_cell_angle_beta 90.000000
_cell_angle_gamma 90.000000
_cell_volume 5465.894071
_symmetry_space_group_name_H-M "C M C M"
_symmetry_group_IT_number 63
_symmetry_cell_setting 'orthorhombic'
loop_
_space_group_symop_operation_xyz
x,y,z
-x,-y,1/2+z
x,-y,-z
-x,y,1/2-z
-x,-y,-z
x,y,1/2-z
-x,y,z
x,-y,1/2+z
1/2+x,1/2+y,z
1/2-x,1/2-y,1/2+z
1/2+x,1/2-y,-z
1/2-x,1/2+y,1/2-z
1/2-x,1/2-y,-z
1/2+x,1/2+y,1/2-z
1/2-x,1/2+y,z
1/2+x,1/2-y,1/2+z
loop_
_atom_site_type_symbol
_atom_site_label
_atom_site_fract_x
_atom_site_fract_y
_atom_site_fract_z
Si Si1 0.565891 0.947705 0.075938
Si Si2 0.342847 0.131692 0.587735
Si Si3 0.254576 0.195581 0.424068
Si Si4 0.663213 0.609189 0.424565
Si Si5 0.566803 0.445978 0.422841
Si Si6 0.249237 0.454791 0.088756
O O1 0.575371 0.954783 0.250000
O O2 0.500000 0.937160 0.033099
O O3 0.601208 0.897444 0.020773
O O4 0.587973 0.000000 0.000000
O O5 0.356770 0.156599 0.750000
O O6 0.316531 0.172901 0.474770
O O7 0.294712 0.089968 0.614147
O O8 0.257030 0.202506 0.250000
O O9 0.250000 0.250000 0.500000
O O10 0.199110 0.160716 0.469495
O O11 0.654527 0.606942 0.250000
O O12 0.601378 0.602585 0.504914
O O13 0.698191 0.560307 0.482864
O O14 0.583089 0.500000 0.500000
O O15 0.581850 0.450136 0.250000
O O16 0.500000 0.433198 0.448552
O O17 0.272242 0.472485 0.250000
O O18 0.216926 0.500000 0.000000
#
# Coordination Sequence:
#
# PCOD8255676 Si02
#       6
#    16  16  16  16  16  16
#     4   9  17  29  46  70 101 136 170 202 236 277
#     4   9  18  31  47  68  95 127 162 199 240 287
#     4  10  21  36  55  76  96 121 155 200 252 300
#     4  10  20  33  49  70  95 124 159 197 239 288
#     4  10  20  33  50  73 102 136 169 199 233 276
#     4  10  18  27  41  63  93 126 157 193 236 283
#
# _framework density 17.563457
#
# number of rings (size 3 to 8) (size 9 to 14) (size 15 to 20)
#    0.000    2.333    0.000    3.000    0.000    4.333 
#    0.000    0.000    0.000    1.000    0.000    2.333 
#    0.000    0.000    0.000    0.000    0.000    0.000 
#
# Total GULP energy -594793.506621 kJ/mol
# GULP energy per Si atom -12391.531388 kJ/mol
# Density = 1.752348 g / cm^3
# Si number density = 17.563457 Si / 1000 Ang^3
#
#
#
# Elastic Constant Matrix: (Units=GPa)
#
#
# Indices 1 2 3 4 5 6 
#
# 1 94.4678 46.8689 42.7328 0.0000 0.0000 0.0000
# 2 46.8689 98.0382 59.9840 0.0000 0.0000 0.0000
# 3 42.7328 59.9840 97.9345 0.0000 0.0000 0.0000
# 4 0.0000 0.0000 0.0000 29.3104 0.0000 0.0000
# 5 0.0000 0.0000 0.0000 0.0000 26.0187 0.0000
# 6 0.0000 0.0000 0.0000 0.0000 0.0000 67.1241
#
#
#
# Elastic Compliance Matrix: (Units=1/GPa)
#
#
# Indices 1 2 3 4 5 6 
#
# 1 0.014528 -0.004905 -0.003335 0.000000 0.000000 0.000000
# 2 -0.004905 0.017970 -0.008866 0.000000 0.000000 0.000000
# 3 -0.003335 -0.008866 0.017096 0.000000 0.000000 0.000000
# 4 0.000000 0.000000 0.000000 0.034118 0.000000 0.000000
# 5 0.000000 0.000000 0.000000 0.000000 0.038434 0.000000
# 6 0.000000 0.000000 0.000000 0.000000 0.000000 0.014898
#
#
# Mechanical properties :
#
#
# Convention : Reuss Voigt Hill
#
# Bulk Modulus (GPa) = 65.01006 65.51241 65.26124
# Shear Modulus (GPa) = 28.34764 33.88096 31.11430
#
# Velocity S-wave (km/s) = 4.02184 4.39687 4.21353
# Velocity P-wave (km/s) = 7.65909 7.94720 7.80447
#
# Compressibility (1/GPa) = 0.01538223
#
# Stress axis : x y z
#
# Youngs Moduli (GPa) = 68.83457 55.64972 58.49183
#
# Poissons Ratio (x) = 0.27295 0.19506
# Poissons Ratio (y) = 0.33762 0.51859
# Poissons Ratio (z) = 0.22955 0.49339
#
# Static dielectric constant tensor:
#      x y z
#    x 3.483870 0.000000 0.000000 
#    y 0.000000 4.970310 0.000000 
#    z 0.000000 0.000000 3.475280 
# 
# 
# High freq. dielectric constant tensor:
#      x y z
#    x 1.674770 0.000000 0.000000 
#    y 0.000000 1.647580 0.000000 
#    z 0.000000 0.000000 1.691100 
# 
# From -- ./inp_files/10711.got.cif
#   From: 2010.03.12/outbox.cif.g09.slc.cpg/sg63_6_cif.got.tgz:10711.got - 2010.04.10 19:34:48.
