data_PCOD8255379
_publ_section_title
;
Structure prediction by ZEFSAII (Michael W. Deem and Ramdas Pophale) SiO2 
 PCOD8255379
Probable space group: C M C M
;
_chemical_formula_sum "Si O2"
_cell_formula_units_Z 72
_cell_length_a 25.094147
_cell_length_b 9.038170
_cell_length_c 14.991651
_cell_angle_alpha 90.000000
_cell_angle_beta 90.000000
_cell_angle_gamma 90.000000
_cell_volume 3400.183903
_symmetry_space_group_name_H-M "C M C M"
_symmetry_group_IT_number 63
_symmetry_cell_setting 'orthorhombic'
loop_
_space_group_symop_operation_xyz
x,y,z
-x,-y,1/2+z
x,-y,-z
-x,y,1/2-z
-x,-y,-z
x,y,1/2-z
-x,y,z
x,-y,1/2+z
1/2+x,1/2+y,z
1/2-x,1/2-y,1/2+z
1/2+x,1/2-y,-z
1/2-x,1/2+y,1/2-z
1/2-x,1/2-y,-z
1/2+x,1/2+y,1/2-z
1/2-x,1/2+y,z
1/2+x,1/2-y,1/2+z
loop_
_atom_site_type_symbol
_atom_site_label
_atom_site_fract_x
_atom_site_fract_y
_atom_site_fract_z
Si Si1 0.883889 0.327032 0.420281
Si Si2 0.350269 0.851691 0.891507
Si Si3 0.000000 0.964941 0.750000
Si Si4 0.674552 0.731548 0.250000
Si Si5 0.500000 0.218144 0.893061
Si Si6 0.271582 0.043934 0.250000
Si Si7 0.584317 0.714688 0.750000
Si Si8 0.000000 0.466980 0.750000
O O1 0.844444 0.301375 0.505081
O O2 0.884651 0.497484 0.390010
O O3 0.863366 0.230431 0.336794
O O4 0.944631 0.282490 0.449097
O O5 0.294758 0.883897 0.841158
O O6 0.379950 0.720683 0.838981
O O7 0.000000 0.867954 0.662348
O O8 0.052486 0.064025 0.750000
O O9 0.708594 0.579368 0.250000
O O10 0.716235 0.868883 0.250000
O O11 0.500000 0.070758 0.835397
O O12 0.551047 0.864411 0.750000
#
# Coordination Sequence:
#
# PCOD8255379 Si02
#       8
#    16  16   4   8   8   8   8   4
#     4  10  20  35  62  89 117 143 199 239 282 332
#     4   9  19  36  59  89 110 146 193 249 277 335
#     4  10  24  32  52  76 122 162 192 224 284 334
#     4  10  20  39  59  86 114 150 187 244 284 344
#     4  11  20  35  54  88 115 159 184 229 280 349
#     4   9  20  38  61  83 115 147 192 235 299 331
#     4  10  18  36  52  77 113 153 188 233 274 333
#     4  10  16  28  58  78 100 144 200 220 260 322
#
# _framework density 21.175324
#
# number of rings (size 3 to 8) (size 9 to 14) (size 15 to 20)
#    0.000    2.222    2.222    2.000    0.000    4.444 
#    8.000    2.222    0.000    0.000    0.000    0.000 
#    0.000    0.000    0.000    0.000    0.000    0.000 
#
# Total GULP energy -446148.269740 kJ/mol
# GULP energy per Si atom -12393.007493 kJ/mol
# Density = 2.112713 g / cm^3
# Si number density = 21.175324 Si / 1000 Ang^3
#
#
#
# Elastic Constant Matrix: (Units=GPa)
#
#
# Indices 1 2 3 4 5 6 
#
# 1 80.1503 8.9037 21.9205 0.0000 0.0000 0.0000
# 2 8.9037 58.2420 2.8650 0.0000 0.0000 0.0000
# 3 21.9205 2.8650 124.6635 0.0000 0.0000 0.0000
# 4 0.0000 0.0000 0.0000 20.8262 0.0000 0.0000
# 5 0.0000 0.0000 0.0000 0.0000 12.0101 0.0000
# 6 0.0000 0.0000 0.0000 0.0000 0.0000 0.6619
#
#
#
# Elastic Compliance Matrix: (Units=1/GPa)
#
#
# Indices 1 2 3 4 5 6 
#
# 1 0.013319 -0.001923 -0.002298 0.000000 0.000000 0.000000
# 2 -0.001923 0.017467 -0.000063 0.000000 0.000000 0.000000
# 3 -0.002298 -0.000063 0.008427 0.000000 0.000000 0.000000
# 4 0.000000 0.000000 0.000000 0.048017 0.000000 0.000000
# 5 0.000000 0.000000 0.000000 0.000000 0.083263 0.000000
# 6 0.000000 0.000000 0.000000 0.000000 0.000000 1.510862
#
#
# Mechanical properties :
#
#
# Convention : Reuss Voigt Hill
#
# Bulk Modulus (GPa) = 32.63233 36.71490 34.67362
# Shear Modulus (GPa) = 2.94094 21.99075 12.46584
#
# Velocity S-wave (km/s) = 1.17977 3.22609 2.42894
# Velocity P-wave (km/s) = 4.15931 5.59044 4.92711
#
# Compressibility (1/GPa) = 0.03064445
#
# Stress axis : x y z
#
# Youngs Moduli (GPa) = 75.08303 57.25132 118.66524
#
# Poissons Ratio (x) = 0.11010 0.27266
# Poissons Ratio (y) = 0.14439 0.00751
# Poissons Ratio (z) = 0.17252 0.00362
#
# Static dielectric constant tensor:
#      x y z
#    x 3.720080 0.000000 0.000000 
#    y 0.000000 3.507510 0.000000 
#    z 0.000000 0.000000 3.848410 
# 
# 
# High freq. dielectric constant tensor:
#      x y z
#    x 1.819190 0.000000 0.000000 
#    y 0.000000 1.804980 0.000000 
#    z 0.000000 0.000000 1.824150 
# 
# From -- ./inp_files/37640.got.cif
#   From: 2010.03.12/outbox.cif.g09.slc.cpg/sg63_19_cif.got.tgz:37640.got - 2010.04.10 19:34:48.
