data_PCOD8255625
_publ_section_title
;
Structure prediction by ZEFSAII (Michael W. Deem and Ramdas Pophale) SiO2 
 PCOD8255625
Probable space group: C M C M
;
_chemical_formula_sum "Si O2"
_cell_formula_units_Z 80
_cell_length_a 29.313156
_cell_length_b 22.324329
_cell_length_c 9.120851
_cell_angle_alpha 90.000000
_cell_angle_beta 90.000000
_cell_angle_gamma 90.000000
_cell_volume 5968.653323
_symmetry_space_group_name_H-M "C M C M"
_symmetry_group_IT_number 63
_symmetry_cell_setting 'orthorhombic'
loop_
_space_group_symop_operation_xyz
x,y,z
-x,-y,1/2+z
x,-y,-z
-x,y,1/2-z
-x,-y,-z
x,y,1/2-z
-x,y,z
x,-y,1/2+z
1/2+x,1/2+y,z
1/2-x,1/2-y,1/2+z
1/2+x,1/2-y,-z
1/2-x,1/2+y,1/2-z
1/2-x,1/2-y,-z
1/2+x,1/2+y,1/2-z
1/2-x,1/2+y,z
1/2+x,1/2-y,1/2+z
loop_
_atom_site_type_symbol
_atom_site_label
_atom_site_fract_x
_atom_site_fract_y
_atom_site_fract_z
Si Si1 0.367391 0.643192 0.419275
Si Si2 0.779867 0.063116 0.078795
Si Si3 0.551629 0.560605 0.421345
Si Si4 0.770463 0.337966 0.415903
Si Si5 0.319537 0.258070 0.084933
O O1 0.367896 0.662348 0.250000
O O2 0.328141 0.594739 0.448683
O O3 0.415332 0.614516 0.469831
O O4 0.360009 0.703153 0.513194
O O5 0.769544 0.054744 0.250000
O O6 0.739300 0.102075 0.007796
O O7 0.781594 0.000000 0.000000
O O8 0.567091 0.500000 0.500000
O O9 0.556714 0.548222 0.250000
O O10 0.500000 0.578437 0.464769
O O11 0.784447 0.354755 0.250000
O O12 0.726276 0.296435 0.416239
O O13 0.812105 0.302602 0.492411
O O14 0.333531 0.240806 0.250000
#
# Coordination Sequence:
#
# PCOD8255625 Si02
#       5
#    16  16  16  16  16
#     4   9  17  27  38  52  70  92 119 152 187 221
#     4  10  18  26  36  51  71  94 121 151 182 215
#     4   9  17  28  40  53  70  93 121 153 189 226
#     4   9  16  26  38  51  69  91 114 142 177 214
#     4   9  16  25  38  54  69  87 113 145 179 214
#
# _framework density 13.403358000000001
#
# number of rings (size 3 to 8) (size 9 to 14) (size 15 to 20)
#    0.000    2.800    0.000    2.400    0.000    6.400 
#    0.000    0.000    0.000    0.000    0.000    0.000 
#    0.000    0.000    0.000    0.000    0.000    1.000 
#
# Total GULP energy -495967.101667 kJ/mol
# GULP energy per Si atom -12399.177542 kJ/mol
# Density = 1.337285 g / cm^3
# Si number density = 13.403358 Si / 1000 Ang^3
#
#
#
# Elastic Constant Matrix: (Units=GPa)
#
#
# Indices 1 2 3 4 5 6 
#
# 1 55.4570 35.1177 33.0825 0.0000 0.0000 0.0000
# 2 35.1177 50.3955 42.9383 0.0000 0.0000 0.0000
# 3 33.0825 42.9383 93.1550 0.0000 0.0000 0.0000
# 4 0.0000 0.0000 0.0000 27.6550 0.0000 0.0000
# 5 0.0000 0.0000 0.0000 0.0000 14.1077 0.0000
# 6 0.0000 0.0000 0.0000 0.0000 0.0000 20.9571
#
#
#
# Elastic Compliance Matrix: (Units=1/GPa)
#
#
# Indices 1 2 3 4 5 6 
#
# 1 0.032458 -0.021073 -0.001814 0.000000 0.000000 0.000000
# 2 -0.021073 0.046357 -0.013884 0.000000 0.000000 0.000000
# 3 -0.001814 -0.013884 0.017778 0.000000 0.000000 0.000000
# 4 0.000000 0.000000 0.000000 0.036160 0.000000 0.000000
# 5 0.000000 0.000000 0.000000 0.000000 0.070883 0.000000
# 6 0.000000 0.000000 0.000000 0.000000 0.000000 0.047717
#
#
# Mechanical properties :
#
#
# Convention : Reuss Voigt Hill
#
# Bulk Modulus (GPa) = 43.37896 46.80941 45.09419
# Shear Modulus (GPa) = 15.03405 18.40187 16.71796
#
# Velocity S-wave (km/s) = 3.35276 3.70933 3.53554
# Velocity P-wave (km/s) = 6.88640 7.30376 7.09815
#
# Compressibility (1/GPa) = 0.02305265
#
# Stress axis : x y z
#
# Youngs Moduli (GPa) = 30.80891 21.57182 56.24786
#
# Poissons Ratio (x) = 0.45458 0.10202
# Poissons Ratio (y) = 0.64923 0.78093
# Poissons Ratio (z) = 0.05588 0.29950
#
# Static dielectric constant tensor:
#      x y z
#    x 2.496550 0.000000 0.000000 
#    y 0.000000 2.598860 0.000000 
#    z 0.000000 0.000000 2.850270 
# 
# 
# High freq. dielectric constant tensor:
#      x y z
#    x 1.465210 0.000000 0.000000 
#    y 0.000000 1.492700 0.000000 
#    z 0.000000 0.000000 1.527060 
# 
# From -- ./inp_files/14034.got.cif
#   From: 2010.03.12/outbox.cif.g09.slc.cpg/sg63_8_cif.got.tgz:14034.got - 2010.04.10 19:34:48.
