data_PCOD8255998
_publ_section_title
;
Structure prediction by ZEFSAII (Michael W. Deem and Ramdas Pophale) SiO2 
 PCOD8255998
Probable space group: C M C M
;
_chemical_formula_sum "Si O2"
_cell_formula_units_Z 128
_cell_length_a 23.470255
_cell_length_b 12.116465
_cell_length_c 27.221640
_cell_angle_alpha 90.000000
_cell_angle_beta 90.000000
_cell_angle_gamma 90.000000
_cell_volume 7741.195340
_symmetry_space_group_name_H-M "C M C M"
_symmetry_group_IT_number 63
_symmetry_cell_setting 'orthorhombic'
loop_
_space_group_symop_operation_xyz
x,y,z
-x,-y,1/2+z
x,-y,-z
-x,y,1/2-z
-x,-y,-z
x,y,1/2-z
-x,y,z
x,-y,1/2+z
1/2+x,1/2+y,z
1/2-x,1/2-y,1/2+z
1/2+x,1/2-y,-z
1/2-x,1/2+y,1/2-z
1/2-x,1/2-y,-z
1/2+x,1/2+y,1/2-z
1/2-x,1/2+y,z
1/2+x,1/2-y,1/2+z
loop_
_atom_site_type_symbol
_atom_site_label
_atom_site_fract_x
_atom_site_fract_y
_atom_site_fract_z
Si Si1 0.932936 0.942646 0.194017
Si Si2 0.708348 0.766594 0.556784
Si Si3 0.936194 0.310146 0.692645
Si Si4 0.684659 0.384324 0.526242
Si Si5 0.653421 0.573059 0.369767
Si Si6 0.167717 0.600765 0.142148
Si Si7 0.730932 0.286130 0.806728
Si Si8 0.743129 0.906525 0.126054
O O1 0.914028 0.971678 0.250000
O O2 0.916496 0.815749 0.182691
O O3 0.000000 0.960046 0.188348
O O4 0.903098 0.021988 0.154336
O O5 0.671156 0.715010 0.512267
O O6 0.748779 0.868469 0.540784
O O7 0.665232 0.812297 0.597305
O O8 0.751799 0.674987 0.579420
O O9 0.934370 0.335272 0.750000
O O10 0.894775 0.397097 0.665849
O O11 0.000000 0.329032 0.672401
O O12 0.675722 0.500000 0.500000
O O13 0.643724 0.380641 0.574542
O O14 0.675334 0.672248 0.335840
O O15 0.701158 0.480548 0.373960
O O16 0.214410 0.637768 0.182315
O O17 0.185047 0.478828 0.123177
O O18 0.716484 0.289447 0.750000
O O19 0.742996 0.161107 0.823050
#
# Coordination Sequence:
#
# PCOD8255998 Si02
#       8
#    16  16  16  16  16  16  16  16
#     4   9  18  32  51  71  93 128 168 201 239 290
#     4  10  18  31  46  68 102 128 159 194 234 299
#     4   9  18  31  47  69  95 125 164 206 241 276
#     4  11  19  29  48  71 100 131 156 195 244 291
#     4  11  19  31  48  70  99 128 160 199 243 293
#     4  10  18  30  48  68  94 127 164 194 240 288
#     4  10  20  30  43  69 101 129 153 192 244 297
#     4  10  18  31  44  71  97 127 160 193 240 294
#
# _framework density 16.534913
#
# number of rings (size 3 to 8) (size 9 to 14) (size 15 to 20)
#    0.000    2.000    5.000    3.000    0.000    4.000 
#    0.000    0.000    0.000    1.875    0.000    1.750 
#    0.000    5.000    0.000    0.000    0.000    0.000 
#
# Total GULP energy -793288.684235 kJ/mol
# GULP energy per Si atom -12395.135691 kJ/mol
# Density = 1.649728 g / cm^3
# Si number density = 16.534913 Si / 1000 Ang^3
#
#
#
# Elastic Constant Matrix: (Units=GPa)
#
#
# Indices 1 2 3 4 5 6 
#
# 1 55.2008 12.5442 20.1027 0.0000 0.0000 0.0000
# 2 12.5442 38.8813 21.6896 0.0000 0.0000 0.0000
# 3 20.1027 21.6896 108.3120 0.0000 0.0000 0.0000
# 4 0.0000 0.0000 0.0000 24.8193 0.0000 0.0000
# 5 0.0000 0.0000 0.0000 0.0000 21.5069 0.0000
# 6 0.0000 0.0000 0.0000 0.0000 0.0000 18.8346
#
#
#
# Elastic Compliance Matrix: (Units=1/GPa)
#
#
# Indices 1 2 3 4 5 6 
#
# 1 0.020256 -0.004996 -0.002759 0.000000 0.000000 0.000000
# 2 -0.004996 0.030186 -0.005118 0.000000 0.000000 0.000000
# 3 -0.002759 -0.005118 0.010769 0.000000 0.000000 0.000000
# 4 0.000000 0.000000 0.000000 0.040291 0.000000 0.000000
# 5 0.000000 0.000000 0.000000 0.000000 0.046497 0.000000
# 6 0.000000 0.000000 0.000000 0.000000 0.000000 0.053094
#
#
# Mechanical properties :
#
#
# Convention : Reuss Voigt Hill
#
# Bulk Modulus (GPa) = 28.19593 34.56302 31.37948
# Shear Modulus (GPa) = 20.95030 22.90265 21.92648
#
# Velocity S-wave (km/s) = 3.56340 3.72574 3.64548
# Velocity P-wave (km/s) = 5.83265 6.28145 6.06121
#
# Compressibility (1/GPa) = 0.03546611
#
# Stress axis : x y z
#
# Youngs Moduli (GPa) = 49.36861 33.12801 92.85524
#
# Poissons Ratio (x) = 0.16551 0.25619
# Poissons Ratio (y) = 0.24665 0.47519
# Poissons Ratio (z) = 0.13621 0.16953
#
# Static dielectric constant tensor:
#      x y z
#    x 2.758460 0.000000 0.000000 
#    y 0.000000 3.226790 0.000000 
#    z 0.000000 0.000000 3.332890 
# 
# 
# High freq. dielectric constant tensor:
#      x y z
#    x 1.586600 0.000000 0.000000 
#    y 0.000000 1.632330 0.000000 
#    z 0.000000 0.000000 1.646780 
# 
# From -- ./inp_files/70829.got.cif
#   From: 2010.03.12/outbox.cif.g09.slc.cpg/sg63_36_cif.got.tgz:70829.got - 2010.04.10 19:34:48.
