data_PCOD8255103
_publ_section_title
;
Structure prediction by ZEFSAII (Michael W. Deem and Ramdas Pophale) SiO2 
 PCOD8255103
Probable space group: P N M A
;
_chemical_formula_sum "Si O2"
_cell_formula_units_Z 48
_cell_length_a 7.390196
_cell_length_b 10.163634
_cell_length_c 24.534825
_cell_angle_alpha 90.000000
_cell_angle_beta 90.000000
_cell_angle_gamma 90.000000
_cell_volume 1842.841309
_symmetry_space_group_name_H-M "P N M A"
_symmetry_group_IT_number 62
_symmetry_cell_setting 'orthorhombic'
loop_
_space_group_symop_operation_xyz
x,y,z
1/2-x,-y,1/2+z
1/2+x,1/2-y,1/2-z
-x,1/2+y,-z
-x,-y,-z
1/2+x,y,1/2-z
1/2-x,1/2+y,1/2+z
x,1/2-y,z
loop_
_atom_site_type_symbol
_atom_site_label
_atom_site_fract_x
_atom_site_fract_y
_atom_site_fract_z
Si Si1 0.235815 0.098282 0.507019
Si Si2 0.024804 0.250000 0.764075
Si Si3 0.410821 0.750000 0.836008
Si Si4 0.632149 0.750000 0.159195
Si Si5 0.025687 0.490987 0.608700
Si Si6 0.896198 0.597427 0.072384
Si Si7 0.018251 0.750000 0.782194
Si Si8 0.886635 0.016708 0.826368
O O1 0.174238 0.250000 0.494574
O O2 0.436369 0.104440 0.531250
O O3 0.095894 0.023263 0.546739
O O4 0.244262 0.004410 0.452874
O O5 0.046950 0.250000 0.698225
O O6 0.209010 0.250000 0.797114
O O7 0.908064 0.120726 0.778138
O O8 0.444286 0.868774 0.877314
O O9 0.209920 0.750000 0.811944
O O10 0.544479 0.750000 0.783552
O O11 0.628950 0.619092 0.121207
O O12 0.192584 0.460337 0.647732
O O13 0.828726 0.750000 0.082288
O O14 0.956778 0.536554 0.129326
O O15 0.900042 0.626116 0.800156
#
# Coordination Sequence:
#
# PCOD8255103 Si02
#       8
#     8   4   4   4   8   8   4   8
#     4   9  18  33  58  93 127 159 202 254 304 359
#     4  12  24  40  63  90 123 163 204 255 311 372
#     4  12  26  44  63  90 125 165 210 257 315 376
#     4  12  24  40  63  90 123 163 204 255 311 372
#     4  11  22  40  64  93 126 163 208 258 308 365
#     4   9  18  33  58  93 127 159 202 254 304 359
#     4  12  26  44  63  90 125 165 210 257 315 376
#     4  11  22  40  64  93 126 163 208 258 308 365
#
# _framework density 26.046737
#
# number of rings (size 3 to 8) (size 9 to 14) (size 15 to 20)
#    0.000    1.333    1.667    5.000    2.333    0.000 
#    0.000    0.000    0.000    6.000    0.000    0.000 
#    0.000    0.000    0.000    0.000    0.000    0.000 
#
# Total GULP energy -595401.087964 kJ/mol
# GULP energy per Si atom -12404.189333 kJ/mol
# Density = 2.598745 g / cm^3
# Si number density = 26.046737 Si / 1000 Ang^3
#
#
#
# Elastic Constant Matrix: (Units=GPa)
#
#
# Indices 1 2 3 4 5 6 
#
# 1 79.7563 28.0727 10.6588 0.0000 0.0000 0.0000
# 2 28.0727 219.7909 94.8617 0.0000 0.0000 0.0000
# 3 10.6588 94.8617 114.0847 0.0000 0.0000 0.0000
# 4 0.0000 0.0000 0.0000 64.3346 0.0000 0.0000
# 5 0.0000 0.0000 0.0000 0.0000 41.8818 0.0000
# 6 0.0000 0.0000 0.0000 0.0000 0.0000 -9.6356
#
#
#
# Elastic Compliance Matrix: (Units=1/GPa)
#
#
# Indices 1 2 3 4 5 6 
#
# 1 0.013133 -0.001790 0.000262 0.000000 0.000000 0.000000
# 2 -0.001790 0.007341 -0.005936 0.000000 0.000000 0.000000
# 3 0.000262 -0.005936 0.013677 0.000000 0.000000 0.000000
# 4 0.000000 0.000000 0.000000 0.015544 0.000000 0.000000
# 5 0.000000 0.000000 0.000000 0.000000 0.023877 0.000000
# 6 0.000000 0.000000 0.000000 0.000000 0.000000 -0.103781
#
#
# Mechanical properties :
#
#
# Convention : Reuss Voigt Hill
#
# Bulk Modulus (GPa) = 52.02692 75.64647 63.83669
# Shear Modulus (GPa) = -563.54237 37.98540 -262.77848
#
# Velocity S-wave (km/s) = -14.72508 3.82298 -10.05516
# Velocity P-wave (km/s) = 16.40384 6.97084 10.49984
#
# Compressibility (1/GPa) = 0.01922082
#
# Stress axis : x y z
#
# Youngs Moduli (GPa) = 76.14169 136.22784 73.11455
#
# Poissons Ratio (x) = 0.24390 -0.01913
# Poissons Ratio (y) = 0.13632 0.43404
# Poissons Ratio (z) = -0.01993 0.80871
#
# Static dielectric constant tensor:
#      x y z
#    x 4.975870 0.000000 0.000000 
#    y 0.000000 4.855930 0.000000 
#    z 0.000000 0.000000 5.048870 
# 
# 
# High freq. dielectric constant tensor:
#      x y z
#    x 2.080750 0.000000 0.000000 
#    y 0.000000 2.054140 0.000000 
#    z 0.000000 0.000000 2.064100 
# 
# From -- ./inp_files/32125.got.cif
#   From: 2010.03.12/outbox.cif.g09.slc.cpg/sg62_17_cif.got.tgz:32125.got - 2010.04.10 19:12:36.
