data_PCOD8255335
_publ_section_title
;
Structure prediction by ZEFSAII (Michael W. Deem and Ramdas Pophale) SiO2 
 PCOD8255335
Probable space group: C M C M
;
_chemical_formula_sum "Si O2"
_cell_formula_units_Z 112
_cell_length_a 21.944401
_cell_length_b 17.174318
_cell_length_c 18.470806
_cell_angle_alpha 90.000000
_cell_angle_beta 90.000000
_cell_angle_gamma 90.000000
_cell_volume 6961.279602
_symmetry_space_group_name_H-M "C M C M"
_symmetry_group_IT_number 63
_symmetry_cell_setting 'orthorhombic'
loop_
_space_group_symop_operation_xyz
x,y,z
-x,-y,1/2+z
x,-y,-z
-x,y,1/2-z
-x,-y,-z
x,y,1/2-z
-x,y,z
x,-y,1/2+z
1/2+x,1/2+y,z
1/2-x,1/2-y,1/2+z
1/2+x,1/2-y,-z
1/2-x,1/2+y,1/2-z
1/2-x,1/2-y,-z
1/2+x,1/2+y,1/2-z
1/2-x,1/2+y,z
1/2+x,1/2-y,1/2+z
loop_
_atom_site_type_symbol
_atom_site_label
_atom_site_fract_x
_atom_site_fract_y
_atom_site_fract_z
Si Si1 0.429400 0.111913 0.666116
Si Si2 0.646334 0.770541 0.084745
Si Si3 0.786014 0.952245 0.093294
Si Si4 0.683067 0.825756 0.930254
Si Si5 0.350427 0.994643 0.920201
Si Si6 0.184916 0.887961 0.555897
Si Si7 0.771406 0.800955 0.333478
O O1 0.413853 0.123475 0.750000
O O2 0.500000 0.095136 0.652975
O O3 0.411349 0.190611 0.623804
O O4 0.392073 0.037481 0.638006
O O5 0.635533 0.676342 0.081567
O O6 0.705507 0.793826 0.130608
O O7 0.648437 0.802901 0.003282
O O8 0.793678 0.891002 0.158514
O O9 0.714926 0.962467 0.073109
O O10 0.812747 0.038631 0.111891
O O11 0.824440 0.919894 0.025033
O O12 0.654791 0.904481 0.896142
O O13 0.753489 0.838178 0.948326
O O14 0.679469 0.756193 0.871507
O O15 0.380362 0.000000 0.000000
O O16 0.767430 0.778412 0.250000
#
# Coordination Sequence:
#
# PCOD8255335 Si02
#       7
#    16  16  16  16  16  16  16
#     4  11  24  37  49  68  95 127 164 207 249 283
#     4  11  17  32  49  66  91 130 165 196 234 282
#     4  10  15  27  45  74  99 126 154 186 233 285
#     4  10  17  29  46  70  92 123 164 194 224 285
#     4  11  17  31  52  69  92 127 165 199 238 278
#     4   9  15  25  47  68  93 123 157 188 224 276
#     4  11  19  27  43  69 102 132 154 186 238 290
#
# _framework density 16.088995000000001
#
# number of rings (size 3 to 8) (size 9 to 14) (size 15 to 20)
#    0.000    1.571    8.571    1.286    0.000    0.857 
#    0.000    6.429    0.000    0.000    0.000    2.000 
#    0.000    0.000    0.000    1.000    0.000    0.000 
#
# Total GULP energy -694026.363280 kJ/mol
# GULP energy per Si atom -12393.327916 kJ/mol
# Density = 1.605238 g / cm^3
# Si number density = 16.088995 Si / 1000 Ang^3
#
#
#
# Elastic Constant Matrix: (Units=GPa)
#
#
# Indices 1 2 3 4 5 6 
#
# 1 32.8322 26.8432 25.0406 0.0000 0.0000 0.0000
# 2 26.8432 130.3076 45.3794 0.0000 0.0000 0.0000
# 3 25.0406 45.3794 88.2938 0.0000 0.0000 0.0000
# 4 0.0000 0.0000 0.0000 23.1138 0.0000 0.0000
# 5 0.0000 0.0000 0.0000 0.0000 16.7760 0.0000
# 6 0.0000 0.0000 0.0000 0.0000 0.0000 9.6202
#
#
#
# Elastic Compliance Matrix: (Units=1/GPa)
#
#
# Indices 1 2 3 4 5 6 
#
# 1 0.041831 -0.005464 -0.009056 0.000000 0.000000 0.000000
# 2 -0.005464 0.010061 -0.003621 0.000000 0.000000 0.000000
# 3 -0.009056 -0.003621 0.015755 0.000000 0.000000 0.000000
# 4 0.000000 0.000000 0.000000 0.043264 0.000000 0.000000
# 5 0.000000 0.000000 0.000000 0.000000 0.059609 0.000000
# 6 0.000000 0.000000 0.000000 0.000000 0.000000 0.103948
#
#
# Mechanical properties :
#
#
# Convention : Reuss Voigt Hill
#
# Bulk Modulus (GPa) = 31.88120 49.55111 40.71616
# Shear Modulus (GPa) = 15.56640 20.18004 17.87322
#
# Velocity S-wave (km/s) = 3.11387 3.54542 3.33663
# Velocity P-wave (km/s) = 5.72598 6.90109 6.34081
#
# Compressibility (1/GPa) = 0.03136645
#
# Stress axis : x y z
#
# Youngs Moduli (GPa) = 23.90548 99.39610 63.47105
#
# Poissons Ratio (x) = 0.54306 0.57476
# Poissons Ratio (y) = 0.13061 0.22985
# Poissons Ratio (z) = 0.21648 0.35994
#
# Static dielectric constant tensor:
#      x y z
#    x 2.535580 0.000000 0.000000 
#    y 0.000000 3.621570 0.000000 
#    z 0.000000 0.000000 2.938790 
# 
# 
# High freq. dielectric constant tensor:
#      x y z
#    x 1.543000 0.000000 0.000000 
#    y 0.000000 1.646080 0.000000 
#    z 0.000000 0.000000 1.606320 
# 
# From -- ./inp_files/48339.got.cif
#   From: 2010.03.12/outbox.cif.g09.slc.cpg/sg63_25_cif.got.tgz:48339.got - 2010.04.10 19:34:48.
