data_PCOD8255540
_publ_section_title
;
Structure prediction by ZEFSAII (Michael W. Deem and Ramdas Pophale) SiO2 
 PCOD8255540
Probable space group: C M C M
;
_chemical_formula_sum "Si O2"
_cell_formula_units_Z 128
_cell_length_a 22.547576
_cell_length_b 19.892332
_cell_length_c 17.982794
_cell_angle_alpha 90.000000
_cell_angle_beta 90.000000
_cell_angle_gamma 90.000000
_cell_volume 8065.712315
_symmetry_space_group_name_H-M "C M C M"
_symmetry_group_IT_number 63
_symmetry_cell_setting 'orthorhombic'
loop_
_space_group_symop_operation_xyz
x,y,z
-x,-y,1/2+z
x,-y,-z
-x,y,1/2-z
-x,-y,-z
x,y,1/2-z
-x,y,z
x,-y,1/2+z
1/2+x,1/2+y,z
1/2-x,1/2-y,1/2+z
1/2+x,1/2-y,-z
1/2-x,1/2+y,1/2-z
1/2-x,1/2-y,-z
1/2+x,1/2+y,1/2-z
1/2-x,1/2+y,z
1/2+x,1/2-y,1/2+z
loop_
_atom_site_type_symbol
_atom_site_label
_atom_site_fract_x
_atom_site_fract_y
_atom_site_fract_z
Si Si1 0.354685 0.684572 0.906130
Si Si2 0.661354 0.336390 0.574068
Si Si3 0.852518 0.957258 0.336532
Si Si4 0.567244 0.796677 0.837809
Si Si5 0.931576 0.916287 0.836068
Si Si6 0.666701 0.108000 0.332238
Si Si7 0.751784 0.262208 0.666809
Si Si8 0.256677 0.464429 0.577219
O O1 0.369093 0.608652 0.882731
O O2 0.407475 0.730245 0.875673
O O3 0.290430 0.705357 0.874192
O O4 0.355883 0.693136 0.994516
O O5 0.602275 0.360354 0.616112
O O6 0.691611 0.276319 0.621114
O O7 0.706283 0.397554 0.561832
O O8 0.845567 0.939643 0.250000
O O9 0.905435 0.009764 0.351157
O O10 0.790817 0.987784 0.365294
O O11 0.573720 0.785892 0.750000
O O12 0.500000 0.807589 0.863270
O O13 0.603916 0.863229 0.861983
O O14 0.923196 0.897034 0.750000
O O15 0.000000 0.916719 0.860075
O O16 0.659421 0.076235 0.250000
O O17 0.712140 0.169316 0.327697
O O18 0.692402 0.052041 0.387662
O O19 0.735759 0.237010 0.750000
O O20 0.244223 0.500000 0.500000
#
# Coordination Sequence:
#
# PCOD8255540 Si02
#       8
#    16  16  16  16  16  16  16  16
#     4  11  19  29  44  69  99 121 145 183 231 281
#     4  10  19  30  47  66  92 121 154 191 234 267
#     4  10  19  30  45  64  93 127 153 181 224 276
#     4   9  18  32  48  65  87 117 152 185 218 263
#     4   9  19  34  49  64  86 123 169 204 225 259
#     4   8  15  28  47  66  85 113 149 185 221 259
#     4   9  17  30  47  66  89 120 154 187 226 274
#     4  10  17  29  44  66  92 117 147 184 223 268
#
# _framework density 15.869645999999999
#
# number of rings (size 3 to 8) (size 9 to 14) (size 15 to 20)
#    0.000    2.500    1.250    3.000    0.000    4.000 
#    0.000    1.875    0.000    0.375    0.000    0.000 
#    0.000    0.000    0.000    0.000    0.000    0.000 
#
# Total GULP energy -793598.777124 kJ/mol
# GULP energy per Si atom -12399.980893 kJ/mol
# Density = 1.583353 g / cm^3
# Si number density = 15.869646 Si / 1000 Ang^3
#
#
#
# Elastic Constant Matrix: (Units=GPa)
#
#
# Indices 1 2 3 4 5 6 
#
# 1 123.0628 47.9331 53.9604 0.0000 0.0000 0.0000
# 2 47.9331 41.0115 31.0147 0.0000 0.0000 0.0000
# 3 53.9604 31.0147 92.2356 0.0000 0.0000 0.0000
# 4 0.0000 0.0000 0.0000 25.8673 0.0000 0.0000
# 5 0.0000 0.0000 0.0000 0.0000 16.3894 0.0000
# 6 0.0000 0.0000 0.0000 0.0000 0.0000 12.3278
#
#
#
# Elastic Compliance Matrix: (Units=1/GPa)
#
#
# Indices 1 2 3 4 5 6 
#
# 1 0.016005 -0.015590 -0.004121 0.000000 0.000000 0.000000
# 2 -0.015590 0.047883 -0.006981 0.000000 0.000000 0.000000
# 3 -0.004121 -0.006981 0.015600 0.000000 0.000000 0.000000
# 4 0.000000 0.000000 0.000000 0.038659 0.000000 0.000000
# 5 0.000000 0.000000 0.000000 0.000000 0.061015 0.000000
# 6 0.000000 0.000000 0.000000 0.000000 0.000000 0.081118
#
#
# Mechanical properties :
#
#
# Convention : Reuss Voigt Hill
#
# Bulk Modulus (GPa) = 38.30637 58.01403 48.16020
# Shear Modulus (GPa) = 15.51034 19.14368 17.32701
#
# Velocity S-wave (km/s) = 3.12967 3.47696 3.30788
# Velocity P-wave (km/s) = 6.10330 7.26326 6.70840
#
# Compressibility (1/GPa) = 0.02610532
#
# Stress axis : x y z
#
# Youngs Moduli (GPa) = 62.47914 20.88411 64.10185
#
# Poissons Ratio (x) = 0.32558 0.26419
# Poissons Ratio (y) = 0.97404 0.44746
# Poissons Ratio (z) = 0.25750 0.14578
#
# Static dielectric constant tensor:
#      x y z
#    x 3.060020 0.000000 0.000000 
#    y 0.000000 2.868180 0.000000 
#    z 0.000000 0.000000 3.105630 
# 
# 
# High freq. dielectric constant tensor:
#      x y z
#    x 1.593580 0.000000 0.000000 
#    y 0.000000 1.585680 0.000000 
#    z 0.000000 0.000000 1.617510 
# 
# From -- ./inp_files/48436.got.cif
#   From: 2010.03.12/outbox.cif.g09.slc.cpg/sg63_25_cif.got.tgz:48436.got - 2010.04.10 19:34:48.
