data_PCOD8255085
_publ_section_title
;
Structure prediction by ZEFSAII (Michael W. Deem and Ramdas Pophale) SiO2 
 PCOD8255085
Probable space group: P N M A
;
_chemical_formula_sum "Si O2"
_cell_formula_units_Z 40
_cell_length_a 18.491338
_cell_length_b 9.971063
_cell_length_c 11.039785
_cell_angle_alpha 90.000000
_cell_angle_beta 90.000000
_cell_angle_gamma 90.000000
_cell_volume 2035.496748
_symmetry_space_group_name_H-M "P N M A"
_symmetry_group_IT_number 62
_symmetry_cell_setting 'orthorhombic'
loop_
_space_group_symop_operation_xyz
x,y,z
1/2-x,-y,1/2+z
1/2+x,1/2-y,1/2-z
-x,1/2+y,-z
-x,-y,-z
1/2+x,y,1/2-z
1/2-x,1/2+y,1/2+z
x,1/2-y,z
loop_
_atom_site_type_symbol
_atom_site_label
_atom_site_fract_x
_atom_site_fract_y
_atom_site_fract_z
Si Si1 0.687837 0.750000 0.821732
Si Si2 0.859110 0.750000 0.816864
Si Si3 0.521180 0.898578 0.165463
Si Si4 0.341173 0.250000 0.446381
Si Si5 0.830335 0.750000 0.544258
Si Si6 0.571575 0.519932 0.421555
Si Si7 0.111343 0.982249 0.548969
O O1 0.773414 0.750000 0.816916
O O2 0.642257 0.750000 0.696749
O O3 0.668108 0.616658 0.892648
O O4 0.875660 0.750000 0.671983
O O5 0.891368 0.621051 0.886069
O O6 0.491091 0.750000 0.138137
O O7 0.546934 0.904147 0.302166
O O8 0.458952 0.006204 0.135467
O O9 0.590454 0.925911 0.082171
O O10 0.255259 0.250000 0.446937
O O11 0.372366 0.385181 0.506918
O O12 0.850558 0.623486 0.464233
O O13 0.500000 0.500000 0.500000
#
# Coordination Sequence:
#
# PCOD8255085 Si02
#       7
#     4   4   8   4   4   8   8
#     4  11  24  44  63  92 133 167 214 264 317 379
#     4  11  25  42  65  96 126 169 213 263 328 379
#     4  11  22  38  66  96 123 160 214 259 320 373
#     4  11  25  42  63  91 127 176 215 250 322 395
#     4  11  22  42  65  93 128 166 212 263 319 391
#     4  12  24  43  66  92 131 167 211 264 320 385
#     4  11  22  40  67  94 126 163 210 268 315 374
#
# _framework density 19.651222000000001
#
# number of rings (size 3 to 8) (size 9 to 14) (size 15 to 20)
#    0.000    0.800    5.000    3.000    0.000    0.800 
#    0.000    0.000    4.400    0.000    0.000    0.000 
#    0.000    0.000    0.000    0.000    0.000    0.000 
#
# Total GULP energy -495993.517226 kJ/mol
# GULP energy per Si atom -12399.837931 kJ/mol
# Density = 1.960649 g / cm^3
# Si number density = 19.651222 Si / 1000 Ang^3
#
#
#
# Elastic Constant Matrix: (Units=GPa)
#
#
# Indices 1 2 3 4 5 6 
#
# 1 78.4774 37.3855 45.7550 0.0000 0.0000 0.0000
# 2 37.3855 151.9560 52.6999 0.0000 0.0000 0.0000
# 3 45.7550 52.6999 119.2469 0.0000 0.0000 0.0000
# 4 0.0000 0.0000 0.0000 27.2322 0.0000 0.0000
# 5 0.0000 0.0000 0.0000 0.0000 31.0175 0.0000
# 6 0.0000 0.0000 0.0000 0.0000 0.0000 -33.3597
#
#
#
# Elastic Compliance Matrix: (Units=1/GPa)
#
#
# Indices 1 2 3 4 5 6 
#
# 1 0.017056 -0.002275 -0.005539 0.000000 0.000000 0.000000
# 2 -0.002275 0.008076 -0.002696 0.000000 0.000000 0.000000
# 3 -0.005539 -0.002696 0.011703 0.000000 0.000000 0.000000
# 4 0.000000 0.000000 0.000000 0.036721 0.000000 0.000000
# 5 0.000000 0.000000 0.000000 0.000000 0.032240 0.000000
# 6 0.000000 0.000000 0.000000 0.000000 0.000000 -0.029976
#
#
# Mechanical properties :
#
#
# Convention : Reuss Voigt Hill
#
# Bulk Modulus (GPa) = 63.23486 69.04011 66.13749
# Shear Modulus (GPa) = 48.96681 19.23398 34.10040
#
# Velocity S-wave (km/s) = 4.99720 3.13192 4.17019
# Velocity P-wave (km/s) = 8.09596 6.94893 7.54427
#
# Compressibility (1/GPa) = 0.01581406
#
# Stress axis : x y z
#
# Youngs Moduli (GPa) = 58.63141 123.82964 85.45112
#
# Poissons Ratio (x) = 0.28175 0.47329
# Poissons Ratio (y) = 0.13340 0.23037
# Poissons Ratio (z) = 0.32474 0.33383
#
# Static dielectric constant tensor:
#      x y z
#    x 3.495370 0.000000 0.000000 
#    y 0.000000 3.684090 0.000000 
#    z 0.000000 0.000000 3.790440 
# 
# 
# High freq. dielectric constant tensor:
#      x y z
#    x 1.767360 0.000000 0.000000 
#    y 0.000000 1.782410 0.000000 
#    z 0.000000 0.000000 1.775580 
# 
# From -- ./inp_files/13910.got.cif
#   From: 2010.03.12/outbox.cif.g09.slc.cpg/sg62_7_cif.got.tgz:13910.got - 2010.04.10 19:12:36.
