data_PCOD8255321
_publ_section_title
;
Structure prediction by ZEFSAII (Michael W. Deem and Ramdas Pophale) SiO2 
 PCOD8255321
Probable space group: P N M A
;
_chemical_formula_sum "Si O2"
_cell_formula_units_Z 40
_cell_length_a 27.000000
_cell_length_b 9.000000
_cell_length_c 9.000000
_cell_angle_alpha 90.000000
_cell_angle_beta 90.000000
_cell_angle_gamma 90.000000
_cell_volume 2187.000000
_symmetry_space_group_name_H-M "P N M A"
_symmetry_group_IT_number 62
_symmetry_cell_setting 'orthorhombic'
loop_
_space_group_symop_operation_xyz
x,y,z
1/2-x,-y,1/2+z
1/2+x,1/2-y,1/2-z
-x,1/2+y,-z
-x,-y,-z
1/2+x,y,1/2-z
1/2-x,1/2+y,1/2+z
x,1/2-y,z
loop_
_atom_site_type_symbol
_atom_site_label
_atom_site_fract_x
_atom_site_fract_y
_atom_site_fract_z
Si Si1 0.102258 0.576127 0.673882
Si Si2 0.392938 0.422433 0.827136
Si Si3 0.198893 0.073941 0.165432
Si Si4 0.003473 0.424883 0.658267
Si Si5 0.702207 0.925538 0.654272
O O1 0.092892 0.750000 0.695712
O O2 0.109792 0.535785 0.501113
O O3 0.052463 0.494011 0.738960
O O4 0.152055 0.524629 0.759407
O O5 0.379870 0.250000 0.803462
O O6 0.351647 0.517013 0.741666
O O7 0.449279 0.454818 0.764798
O O8 0.195352 0.250000 0.153189
O O9 0.248379 0.026680 0.255617
O O10 0.203579 0.007216 0.002189
O O11 0.011752 0.250000 0.640366
O O12 0.000000 0.500000 0.500000
O O13 0.701665 0.750000 0.627729
#
# Coordination Sequence:
#
# PCOD8255321 Si02
#       5
#     8   8   8   8   8
#     4   9  18  34  56  80 107 141 178 216 262 313
#     4   9  18  34  55  79 110 143 173 214 266 311
#     4  11  23  37  56  81 105 136 180 220 258 315
#     4   9  17  30  51  79 109 141 177 216 259 308
#     4  10  22  39  56  77 108 141 172 216 272 317
#
# _framework density 18.289895000000001
#
# number of rings (size 3 to 8) (size 9 to 14) (size 15 to 20)
#    0.000    2.400    0.000    3.600    0.000    8.000 
#    0.000    1.000    0.000    0.000    0.000    0.000 
#    0.000    0.000    0.000    0.000    0.000    0.000 
#
# Total GULP energy -495742.134683 kJ/mol
# GULP energy per Si atom -12393.553367 kJ/mol
# Density = 1.824827 g / cm^3
# Si number density = 18.289895 Si / 1000 Ang^3
#
#
#
# Elastic Constant Matrix: (Units=GPa)
#
#
# Indices 1 2 3 4 5 6 
#
# 1 223.6165 69.1891 74.5785 0.0000 0.0000 0.0000
# 2 69.1891 77.6012 42.7164 0.0000 0.0000 0.0000
# 3 74.5785 42.7164 101.2648 0.0000 0.0000 0.0000
# 4 0.0000 0.0000 0.0000 30.2801 0.0000 0.0000
# 5 0.0000 0.0000 0.0000 0.0000 35.9784 0.0000
# 6 0.0000 0.0000 0.0000 0.0000 0.0000 40.2967
#
#
#
# Elastic Compliance Matrix: (Units=1/GPa)
#
#
# Indices 1 2 3 4 5 6 
#
# 1 0.006906 -0.004373 -0.003241 0.000000 0.000000 0.000000
# 2 -0.004373 0.019553 -0.005027 0.000000 0.000000 0.000000
# 3 -0.003241 -0.005027 0.014383 0.000000 0.000000 0.000000
# 4 0.000000 0.000000 0.000000 0.033025 0.000000 0.000000
# 5 0.000000 0.000000 0.000000 0.000000 0.027794 0.000000
# 6 0.000000 0.000000 0.000000 0.000000 0.000000 0.024816
#
#
# Mechanical properties :
#
#
# Convention : Reuss Voigt Hill
#
# Bulk Modulus (GPa) = 64.27466 86.16115 75.21791
# Shear Modulus (GPa) = 31.85791 35.71093 33.78442
#
# Velocity S-wave (km/s) = 4.17805 4.42350 4.30253
# Velocity P-wave (km/s) = 7.64809 8.56158 8.11770
#
# Compressibility (1/GPa) = 0.01555823
#
# Stress axis : x y z
#
# Youngs Moduli (GPa) = 144.79964 51.14351 69.52699
#
# Poissons Ratio (x) = 0.22366 0.22536
# Poissons Ratio (y) = 0.63324 0.34953
# Poissons Ratio (z) = 0.46935 0.25711
#
# Static dielectric constant tensor:
#      x y z
#    x 4.354200 0.000000 0.000000 
#    y 0.000000 3.456300 0.000000 
#    z 0.000000 0.000000 3.199960 
# 
# 
# High freq. dielectric constant tensor:
#      x y z
#    x 1.756020 0.000000 0.000000 
#    y 0.000000 1.714220 0.000000 
#    z 0.000000 0.000000 1.685300 
# 
# From -- ./inp_files/9066.got.cif
#   From: 2010.03.12/outbox.ucp.g09.slc.cvg/sg62_5_cif.got.tgz:9066.got - 2010.05.04 19:35:18.
