data_PCOD8255751
_publ_section_title
;
Structure prediction by ZEFSAII (Michael W. Deem and Ramdas Pophale) SiO2 
 PCOD8255751
Probable space group: C M C M
;
_chemical_formula_sum "Si O2"
_cell_formula_units_Z 112
_cell_length_a 9.659768
_cell_length_b 23.809872
_cell_length_c 28.606491
_cell_angle_alpha 90.000000
_cell_angle_beta 90.000000
_cell_angle_gamma 90.000000
_cell_volume 6579.431129
_symmetry_space_group_name_H-M "C M C M"
_symmetry_group_IT_number 63
_symmetry_cell_setting 'orthorhombic'
loop_
_space_group_symop_operation_xyz
x,y,z
-x,-y,1/2+z
x,-y,-z
-x,y,1/2-z
-x,-y,-z
x,y,1/2-z
-x,y,z
x,-y,1/2+z
1/2+x,1/2+y,z
1/2-x,1/2-y,1/2+z
1/2+x,1/2-y,-z
1/2-x,1/2+y,1/2-z
1/2-x,1/2-y,-z
1/2+x,1/2+y,1/2-z
1/2-x,1/2+y,z
1/2+x,1/2-y,1/2+z
loop_
_atom_site_type_symbol
_atom_site_label
_atom_site_fract_x
_atom_site_fract_y
_atom_site_fract_z
Si Si1 0.662377 0.404595 0.474497
Si Si2 0.657271 0.804065 0.619719
Si Si3 0.336803 0.525981 0.611406
Si Si4 0.163315 0.095233 0.419719
Si Si5 0.664278 0.276020 0.302031
Si Si6 0.164956 0.901617 0.197412
Si Si7 0.153661 0.220492 0.536205
O O1 0.500000 0.415315 0.476647
O O2 0.727422 0.447084 0.436208
O O3 0.719291 0.413783 0.527222
O O4 0.702983 0.343066 0.456000
O O5 0.500000 0.827036 0.626014
O O6 0.756428 0.853849 0.604105
O O7 0.720464 0.774973 0.666112
O O8 0.657559 0.752455 0.584430
O O9 0.500000 0.536714 0.610803
O O10 0.302720 0.459903 0.610885
O O11 0.275235 0.554759 0.658586
O O12 0.000000 0.109056 0.419727
O O13 0.714618 0.261943 0.250000
O O14 0.500000 0.276463 0.306117
O O15 0.716974 0.338650 0.315891
O O16 0.217045 0.917787 0.250000
O O17 0.000000 0.903067 0.197346
O O18 0.250000 0.250000 0.500000
O O19 0.000000 0.219958 0.514394
#
# Coordination Sequence:
#
# PCOD8255751 Si02
#       7
#    16  16  16  16  16  16  16
#     4   9  16  27  43  62  85 114 150 188 219 257
#     4  10  19  30  46  67  92 121 151 184 223 266
#     4   9  16  26  42  63  85 114 153 189 222 263
#     4  10  19  30  44  64  92 125 154 181 217 263
#     4   8  14  26  45  68  91 115 146 186 230 271
#     4   8  13  23  41  65  90 111 138 186 239 271
#     4  10  18  28  44  66  90 115 145 182 223 266
#
# _framework density 17.022748
#
# number of rings (size 3 to 8) (size 9 to 14) (size 15 to 20)
#    0.000    2.857    1.429    2.143    0.000    5.143 
#    0.000    0.714    0.000    3.857    0.000    1.000 
#    0.000    1.143    0.000    0.000    0.000    0.000 
#
# Total GULP energy -693889.299641 kJ/mol
# GULP energy per Si atom -12390.880351 kJ/mol
# Density = 1.698400 g / cm^3
# Si number density = 17.022748 Si / 1000 Ang^3
#
#
#
# Elastic Constant Matrix: (Units=GPa)
#
#
# Indices 1 2 3 4 5 6 
#
# 1 22.2744 25.3366 18.9854 0.0000 0.0000 0.0000
# 2 25.3366 117.5428 73.8251 0.0000 0.0000 0.0000
# 3 18.9854 73.8251 126.5722 0.0000 0.0000 0.0000
# 4 0.0000 0.0000 0.0000 28.3165 0.0000 0.0000
# 5 0.0000 0.0000 0.0000 0.0000 11.9493 0.0000
# 6 0.0000 0.0000 0.0000 0.0000 0.0000 19.7463
#
#
#
# Elastic Compliance Matrix: (Units=1/GPa)
#
#
# Indices 1 2 3 4 5 6 
#
# 1 0.059897 -0.011470 -0.002294 0.000000 0.000000 0.000000
# 2 -0.011470 0.015622 -0.007391 0.000000 0.000000 0.000000
# 3 -0.002294 -0.007391 0.012556 0.000000 0.000000 0.000000
# 4 0.000000 0.000000 0.000000 0.035315 0.000000 0.000000
# 5 0.000000 0.000000 0.000000 0.000000 0.083687 0.000000
# 6 0.000000 0.000000 0.000000 0.000000 0.000000 0.050642
#
#
# Mechanical properties :
#
#
# Convention : Reuss Voigt Hill
#
# Bulk Modulus (GPa) = 21.85143 55.85375 38.85259
# Shear Modulus (GPa) = 15.85865 21.88524 18.87195
#
# Velocity S-wave (km/s) = 3.05555 3.58948 3.33322
# Velocity P-wave (km/s) = 5.03120 7.07543 6.13900
#
# Compressibility (1/GPa) = 0.04576359
#
# Stress axis : x y z
#
# Youngs Moduli (GPa) = 16.69540 64.01129 79.64339
#
# Poissons Ratio (x) = 0.73420 0.18273
# Poissons Ratio (y) = 0.19149 0.58868
# Poissons Ratio (z) = 0.03831 0.47314
#
# Static dielectric constant tensor:
#      x y z
#    x 2.637900 0.000000 0.000000 
#    y 0.000000 3.294410 0.000000 
#    z 0.000000 0.000000 3.668980 
# 
# 
# High freq. dielectric constant tensor:
#      x y z
#    x 1.584450 0.000000 0.000000 
#    y 0.000000 1.662580 0.000000 
#    z 0.000000 0.000000 1.664650 
# 
# From -- ./inp_files/68747.got.cif
#   From: 2010.03.12/outbox.cif.g09.slc.cpg/sg63_35_cif.got.tgz:68747.got - 2010.04.10 19:34:48.
