data_PCOD8255279
_publ_section_title
;
Structure prediction by ZEFSAII (Michael W. Deem and Ramdas Pophale) SiO2 
 PCOD8255279
Probable space group: P N M A
;
_chemical_formula_sum "Si O2"
_cell_formula_units_Z 56
_cell_length_a 29.490987
_cell_length_b 9.227550
_cell_length_c 13.687304
_cell_angle_alpha 90.000000
_cell_angle_beta 90.000000
_cell_angle_gamma 90.000000
_cell_volume 3724.719975
_symmetry_space_group_name_H-M "P N M A"
_symmetry_group_IT_number 62
_symmetry_cell_setting 'orthorhombic'
loop_
_space_group_symop_operation_xyz
x,y,z
1/2-x,-y,1/2+z
1/2+x,1/2-y,1/2-z
-x,1/2+y,-z
-x,-y,-z
1/2+x,y,1/2-z
1/2-x,1/2+y,1/2+z
x,1/2-y,z
loop_
_atom_site_type_symbol
_atom_site_label
_atom_site_fract_x
_atom_site_fract_y
_atom_site_fract_z
Si Si1 0.315849 0.578365 0.297966
Si Si2 0.764687 0.918325 0.389697
Si Si3 0.905152 0.581431 0.105225
Si Si4 0.910221 0.921076 0.883685
Si Si5 0.315735 0.581584 0.702217
Si Si6 0.995943 0.079626 0.897612
Si Si7 0.264288 0.582685 0.892192
O O1 0.313765 0.750000 0.308735
O O2 0.303259 0.530263 0.187227
O O3 0.365648 0.515268 0.325775
O O4 0.279978 0.512488 0.373259
O O5 0.754247 0.750000 0.375185
O O6 0.782430 0.952088 0.498926
O O7 0.717592 0.999599 0.371198
O O8 0.895562 0.750000 0.096455
O O9 0.954839 0.553390 0.153711
O O10 0.901999 0.521243 0.994300
O O11 0.920056 0.750000 0.880532
O O12 0.867361 0.965892 0.817715
O O13 0.954285 0.005059 0.839340
O O14 0.309746 0.750000 0.678900
O O15 0.303923 0.544252 0.814904
O O16 0.986724 0.250000 0.911894
O O17 0.000000 0.000000 0.000000
O O18 0.250092 0.750000 0.882025
#
# Coordination Sequence:
#
# PCOD8255279 Si02
#       7
#     8   8   8   8   8   8   8
#     4   9  16  27  42  58  76 104 136 160 187 232
#     4   9  17  27  40  59  82 103 130 167 198 225
#     4   8  14  24  38  55  75  97 125 156 186 223
#     4   9  16  26  39  56  76 101 131 160 189 229
#     4   9  17  28  42  57  78 108 136 158 191 237
#     4   9  16  26  39  56  78 102 126 157 194 233
#     4   9  17  28  39  57  83 105 127 162 199 227
#
# _framework density 15.034687999999999
#
# number of rings (size 3 to 8) (size 9 to 14) (size 15 to 20)
#    0.000    3.143    0.000    2.143    0.000    2.286 
#    0.000    5.000    0.000    0.000    0.000    1.000 
#    0.000    0.000    0.000    0.000    0.000    0.000 
#
# Total GULP energy -693898.850939 kJ/mol
# GULP energy per Si atom -12391.050910 kJ/mol
# Density = 1.500047 g / cm^3
# Si number density = 15.034688 Si / 1000 Ang^3
#
#
#
# Elastic Constant Matrix: (Units=GPa)
#
#
# Indices 1 2 3 4 5 6 
#
# 1 144.5819 37.4404 54.7302 0.0000 0.0000 0.0000
# 2 37.4404 34.1064 20.2303 0.0000 0.0000 0.0000
# 3 54.7302 20.2303 80.2433 0.0000 0.0000 0.0000
# 4 0.0000 0.0000 0.0000 14.2609 0.0000 0.0000
# 5 0.0000 0.0000 0.0000 0.0000 20.8475 0.0000
# 6 0.0000 0.0000 0.0000 0.0000 0.0000 23.6550
#
#
#
# Elastic Compliance Matrix: (Units=1/GPa)
#
#
# Indices 1 2 3 4 5 6 
#
# 1 0.011366 -0.009264 -0.005417 0.000000 0.000000 0.000000
# 2 -0.009264 0.042026 -0.004277 0.000000 0.000000 0.000000
# 3 -0.005417 -0.004277 0.017235 0.000000 0.000000 0.000000
# 4 0.000000 0.000000 0.000000 0.070122 0.000000 0.000000
# 5 0.000000 0.000000 0.000000 0.000000 0.047967 0.000000
# 6 0.000000 0.000000 0.000000 0.000000 0.000000 0.042274
#
#
# Mechanical properties :
#
#
# Convention : Reuss Voigt Hill
#
# Bulk Modulus (GPa) = 30.56958 53.74813 42.15885
# Shear Modulus (GPa) = 17.86931 21.52140 19.69535
#
# Velocity S-wave (km/s) = 3.45126 3.78755 3.62331
# Velocity P-wave (km/s) = 6.02150 7.41313 6.75325
#
# Compressibility (1/GPa) = 0.03271226
#
# Stress axis : x y z
#
# Youngs Moduli (GPa) = 87.98267 23.79452 58.02245
#
# Poissons Ratio (x) = 0.22043 0.31428
# Poissons Ratio (y) = 0.81508 0.24815
# Poissons Ratio (z) = 0.47656 0.10176
#
# Static dielectric constant tensor:
#      x y z
#    x 3.300810 0.000000 0.000000 
#    y 0.000000 2.880870 0.000000 
#    z 0.000000 0.000000 2.891440 
# 
# 
# High freq. dielectric constant tensor:
#      x y z
#    x 1.575510 0.000000 0.000000 
#    y 0.000000 1.567820 0.000000 
#    z 0.000000 0.000000 1.544530 
# 
# From -- ./inp_files/15541.got.cif
#   From: 2010.03.12/outbox.cif.g09.slc.cpg/sg62_8_cif.got.tgz:15541.got - 2010.04.10 19:12:36.
