data_PCOD8255858
_publ_section_title
;
Structure prediction by ZEFSAII (Michael W. Deem and Ramdas Pophale) SiO2 
 PCOD8255858
Probable space group: C M C M
;
_chemical_formula_sum "Si O2"
_cell_formula_units_Z 96
_cell_length_a 9.136555
_cell_length_b 23.922902
_cell_length_c 25.880461
_cell_angle_alpha 90.000000
_cell_angle_beta 90.000000
_cell_angle_gamma 90.000000
_cell_volume 5656.767670
_symmetry_space_group_name_H-M "C M C M"
_symmetry_group_IT_number 63
_symmetry_cell_setting 'orthorhombic'
loop_
_space_group_symop_operation_xyz
x,y,z
-x,-y,1/2+z
x,-y,-z
-x,y,1/2-z
-x,-y,-z
x,y,1/2-z
-x,y,z
x,-y,1/2+z
1/2+x,1/2+y,z
1/2-x,1/2-y,1/2+z
1/2+x,1/2-y,-z
1/2-x,1/2+y,1/2-z
1/2-x,1/2-y,-z
1/2+x,1/2+y,1/2-z
1/2-x,1/2+y,z
1/2+x,1/2-y,1/2+z
loop_
_atom_site_type_symbol
_atom_site_label
_atom_site_fract_x
_atom_site_fract_y
_atom_site_fract_z
Si Si1 0.333496 0.074914 0.458894
Si Si2 0.831375 0.837872 0.897232
Si Si3 0.834329 0.605314 0.925220
Si Si4 0.172839 0.006482 0.886833
Si Si5 0.669076 0.772775 0.050082
Si Si6 0.827793 0.914689 0.806856
O O1 0.500000 0.068140 0.439072
O O2 0.269570 0.134411 0.440850
O O3 0.328391 0.073131 0.520455
O O4 0.235130 0.025197 0.436834
O O5 0.813190 0.771105 0.902513
O O6 0.781321 0.860295 0.840737
O O7 0.000000 0.855980 0.907072
O O8 0.739625 0.569038 0.884545
O O9 0.767158 0.667806 0.930576
O O10 0.000000 0.608740 0.904377
O O11 0.000000 0.010868 0.892007
O O12 0.220800 0.971626 0.835933
O O13 0.500000 0.781107 0.034438
O O14 0.750000 0.750000 0.000000
O O15 0.753115 0.911737 0.750000
O O16 0.000000 0.915102 0.799842
#
# Coordination Sequence:
#
# PCOD8255858 Si02
#       6
#    16  16  16  16  16  16
#     4  10  18  29  45  65  94 130 157 183 229 281
#     4   9  17  29  48  72  94 120 158 199 229 267
#     4  10  20  31  43  63  96 134 159 183 228 279
#     4  10  20  31  46  69  91 118 158 200 235 274
#     4  10  19  31  46  67  97 131 163 191 224 271
#     4   8  15  30  51  72  91 112 147 199 251 286
#
# _framework density 16.970821999999998
#
# number of rings (size 3 to 8) (size 9 to 14) (size 15 to 20)
#    0.000    2.500    1.667    2.500    0.000    4.000 
#    0.000    0.000    0.000   13.500    0.000    2.333 
#    0.000    0.000    0.000    0.000    0.000    0.000 
#
# Total GULP energy -594953.002933 kJ/mol
# GULP energy per Si atom -12394.854228 kJ/mol
# Density = 1.693220 g / cm^3
# Si number density = 16.970822 Si / 1000 Ang^3
#
#
#
# Elastic Constant Matrix: (Units=GPa)
#
#
# Indices 1 2 3 4 5 6 
#
# 1 54.9274 33.6751 24.0554 0.0000 0.0000 0.0000
# 2 33.6751 130.5081 48.7185 0.0000 0.0000 0.0000
# 3 24.0554 48.7185 82.8227 0.0000 0.0000 0.0000
# 4 0.0000 0.0000 0.0000 15.2423 0.0000 0.0000
# 5 0.0000 0.0000 0.0000 0.0000 10.8574 0.0000
# 6 0.0000 0.0000 0.0000 0.0000 0.0000 27.4259
#
#
#
# Elastic Compliance Matrix: (Units=1/GPa)
#
#
# Indices 1 2 3 4 5 6 
#
# 1 0.022626 -0.004337 -0.004020 0.000000 0.000000 0.000000
# 2 -0.004337 0.010650 -0.005005 0.000000 0.000000 0.000000
# 3 -0.004020 -0.005005 0.016186 0.000000 0.000000 0.000000
# 4 0.000000 0.000000 0.000000 0.065607 0.000000 0.000000
# 5 0.000000 0.000000 0.000000 0.000000 0.092103 0.000000
# 6 0.000000 0.000000 0.000000 0.000000 0.000000 0.036462
#
#
# Mechanical properties :
#
#
# Convention : Reuss Voigt Hill
#
# Bulk Modulus (GPa) = 43.98218 53.46180 48.72199
# Shear Modulus (GPa) = 17.98973 21.49240 19.74106
#
# Velocity S-wave (km/s) = 3.25936 3.56256 3.41432
# Velocity P-wave (km/s) = 6.33539 6.96369 6.65696
#
# Compressibility (1/GPa) = 0.02273648
#
# Stress axis : x y z
#
# Youngs Moduli (GPa) = 44.19761 93.89851 61.78366
#
# Poissons Ratio (x) = 0.40728 0.24838
# Poissons Ratio (y) = 0.19170 0.30921
# Poissons Ratio (z) = 0.17768 0.46994
#
# Static dielectric constant tensor:
#      x y z
#    x 3.126420 0.000000 0.000000 
#    y 0.000000 3.402480 0.000000 
#    z 0.000000 0.000000 3.132810 
# 
# 
# High freq. dielectric constant tensor:
#      x y z
#    x 1.642700 0.000000 0.000000 
#    y 0.000000 1.662470 0.000000 
#    z 0.000000 0.000000 1.615640 
# 
# From -- ./inp_files/59971.got.cif
#   From: 2010.03.12/outbox.cif.g09.slc.cpg/sg63_30_cif.got.tgz:59971.got - 2010.04.10 19:34:48.
