data_PCOD8255482
_publ_section_title
;
Structure prediction by ZEFSAII (Michael W. Deem and Ramdas Pophale) SiO2 
 PCOD8255482
Probable space group: C M C M
;
_chemical_formula_sum "Si O2"
_cell_formula_units_Z 96
_cell_length_a 11.976584
_cell_length_b 25.532127
_cell_length_c 17.967497
_cell_angle_alpha 90.000000
_cell_angle_beta 90.000000
_cell_angle_gamma 90.000000
_cell_volume 5494.238930
_symmetry_space_group_name_H-M "C M C M"
_symmetry_group_IT_number 63
_symmetry_cell_setting 'orthorhombic'
loop_
_space_group_symop_operation_xyz
x,y,z
-x,-y,1/2+z
x,-y,-z
-x,y,1/2-z
-x,-y,-z
x,y,1/2-z
-x,y,z
x,-y,1/2+z
1/2+x,1/2+y,z
1/2-x,1/2-y,1/2+z
1/2+x,1/2-y,-z
1/2-x,1/2+y,1/2-z
1/2-x,1/2-y,-z
1/2+x,1/2+y,1/2-z
1/2-x,1/2+y,z
1/2+x,1/2-y,1/2+z
loop_
_atom_site_type_symbol
_atom_site_label
_atom_site_fract_x
_atom_site_fract_y
_atom_site_fract_z
Si Si1 0.720021 0.404723 0.161940
Si Si2 0.129591 0.108303 0.164551
Si Si3 0.628116 0.501347 0.087769
Si Si4 0.500000 0.231815 0.161465
Si Si5 0.000000 0.847744 0.161745
Si Si6 0.874008 0.311458 0.161433
Si Si7 0.242666 0.290281 0.838636
O O1 0.720436 0.413686 0.250000
O O2 0.718379 0.461174 0.122418
O O3 0.608690 0.376872 0.132599
O O4 0.822568 0.367606 0.136637
O O5 0.162379 0.097010 0.250000
O O6 0.194292 0.158459 0.131669
O O7 0.000000 0.121617 0.157163
O O8 0.164022 0.058459 0.115958
O O9 0.500000 0.489133 0.113574
O O10 0.638218 0.500000 0.000000
O O11 0.500000 0.233767 0.250000
O O12 0.500000 0.289955 0.127930
O O13 0.614110 0.204426 0.133517
O O14 0.000000 0.844809 0.250000
O O15 0.873357 0.308700 0.250000
O O16 0.801001 0.262758 0.129975
O O17 0.000000 0.307672 0.130181
O O18 0.248814 0.288011 0.750000
#
# Coordination Sequence:
#
# PCOD8255482 Si02
#       7
#    16  16  16   8   8  16  16
#     4  10  17  27  47  71  95 120 149 189 232 274
#     4   9  17  29  46  68  93 122 154 186 223 270
#     4  10  20  32  47  68  92 119 154 197 239 273
#     4   9  14  22  38  67 100 124 146 177 226 276
#     4   9  14  22  39  69  97 116 140 179 233 276
#     4   9  16  25  41  69  99 123 148 183 229 275
#     4   9  15  24  41  67  98 124 147 181 225 272
#
# _framework density 17.472847999999999
#
# number of rings (size 3 to 8) (size 9 to 14) (size 15 to 20)
#    0.000    2.667    2.500    1.000    0.000    2.667 
#    0.000    0.000    1.833    1.500    0.000    0.000 
#    0.000    0.000    0.000    0.000    0.000    0.000 
#
# Total GULP energy -594937.446293 kJ/mol
# GULP energy per Si atom -12394.530131 kJ/mol
# Density = 1.743308 g / cm^3
# Si number density = 17.472848 Si / 1000 Ang^3
#
#
#
# Elastic Constant Matrix: (Units=GPa)
#
#
# Indices 1 2 3 4 5 6 
#
# 1 119.4839 69.2047 17.2451 0.0000 0.0000 0.0000
# 2 69.2047 149.8155 30.7249 0.0000 0.0000 0.0000
# 3 17.2451 30.7249 26.1403 0.0000 0.0000 0.0000
# 4 0.0000 0.0000 0.0000 1.6028 0.0000 0.0000
# 5 0.0000 0.0000 0.0000 0.0000 8.0646 0.0000
# 6 0.0000 0.0000 0.0000 0.0000 0.0000 30.1922
#
#
#
# Elastic Compliance Matrix: (Units=1/GPa)
#
#
# Indices 1 2 3 4 5 6 
#
# 1 0.011488 -0.004944 -0.001767 0.000000 0.000000 0.000000
# 2 -0.004944 0.010923 -0.009577 0.000000 0.000000 0.000000
# 3 -0.001767 -0.009577 0.050677 0.000000 0.000000 0.000000
# 4 0.000000 0.000000 0.000000 0.623923 0.000000 0.000000
# 5 0.000000 0.000000 0.000000 0.000000 0.123999 0.000000
# 6 0.000000 0.000000 0.000000 0.000000 0.000000 0.033121
#
#
# Mechanical properties :
#
#
# Convention : Reuss Voigt Hill
#
# Bulk Modulus (GPa) = 24.68438 58.86547 41.77492
# Shear Modulus (GPa) = 5.55425 19.85624 12.70524
#
# Velocity S-wave (km/s) = 1.78485 3.37472 2.69948
# Velocity P-wave (km/s) = 4.29017 6.99627 5.80316
#
# Compressibility (1/GPa) = 0.04051145
#
# Stress axis : x y z
#
# Youngs Moduli (GPa) = 87.04640 91.55131 19.73266
#
# Poissons Ratio (x) = 0.45265 0.03488
# Poissons Ratio (y) = 0.43038 0.18897
# Poissons Ratio (z) = 0.15385 0.87676
#
# Static dielectric constant tensor:
#      x y z
#    x 3.375900 0.000000 0.000000 
#    y 0.000000 3.362080 0.000000 
#    z 0.000000 0.000000 2.654350 
# 
# 
# High freq. dielectric constant tensor:
#      x y z
#    x 1.663990 0.000000 0.000000 
#    y 0.000000 1.682980 0.000000 
#    z 0.000000 0.000000 1.614680 
# 
# From -- ./inp_files/42717.got.cif
#   From: 2010.03.12/outbox.cif.g09.slc.cpg/sg63_22_cif.got.tgz:42717.got - 2010.04.10 19:34:48.
