data_PCOD8255233
_publ_section_title
;
Structure prediction by ZEFSAII (Michael W. Deem and Ramdas Pophale) SiO2 
 PCOD8255233
Probable space group: P N M A
;
_chemical_formula_sum "Si O2"
_cell_formula_units_Z 48
_cell_length_a 16.377298
_cell_length_b 14.250821
_cell_length_c 8.848286
_cell_angle_alpha 90.000000
_cell_angle_beta 90.000000
_cell_angle_gamma 90.000000
_cell_volume 2065.100959
_symmetry_space_group_name_H-M "P N M A"
_symmetry_group_IT_number 62
_symmetry_cell_setting 'orthorhombic'
loop_
_space_group_symop_operation_xyz
x,y,z
1/2-x,-y,1/2+z
1/2+x,1/2-y,1/2-z
-x,1/2+y,-z
-x,-y,-z
1/2+x,y,1/2-z
1/2-x,1/2+y,1/2+z
x,1/2-y,z
loop_
_atom_site_type_symbol
_atom_site_label
_atom_site_fract_x
_atom_site_fract_y
_atom_site_fract_z
Si Si1 0.241877 0.928019 0.414503
Si Si2 0.345750 0.750000 0.908856
Si Si3 0.473640 0.250000 0.043055
Si Si4 0.572912 0.950013 0.909370
Si Si5 0.767621 0.250000 0.798132
Si Si6 0.947169 0.250000 0.796685
Si Si7 0.993302 0.456424 0.838767
Si Si8 0.668647 0.436011 0.284431
O O1 0.158008 0.946879 0.505319
O O2 0.247363 0.837439 0.310288
O O3 0.314699 0.924142 0.536344
O O4 0.246445 0.014864 0.297347
O O5 0.431151 0.750000 0.994374
O O6 0.283990 0.750000 0.048167
O O7 0.340847 0.837149 0.796207
O O8 0.449261 0.342678 0.135200
O O9 0.428782 0.250000 0.881989
O O10 0.573856 0.009857 0.753819
O O11 0.500000 0.000000 0.000000
O O12 0.857865 0.250000 0.870218
O O13 0.995223 0.343370 0.846613
O O14 0.910394 0.496835 0.761899
O O15 0.000000 0.500000 0.000000
#
# Coordination Sequence:
#
# PCOD8255233 Si02
#       8
#     8   4   4   8   4   4   8   8
#     4  12  25  43  73  99 145 192 244 294 367 440
#     4  12  27  41  72 104 145 188 245 304 363 432
#     4  12  20  41  76  97 134 189 241 290 345 436
#     4  12  21  44  72  99 133 193 242 289 359 435
#     4  12  23  47  71 103 143 194 240 296 361 444
#     4  12  24  47  71 102 140 185 238 290 359 446
#     4  12  28  46  74 107 147 182 244 313 371 432
#     4  12  26  46  66 107 145 187 241 303 361 442
#
# _framework density 23.243416
#
# number of rings (size 3 to 8) (size 9 to 14) (size 15 to 20)
#    0.000    0.000    8.333    1.500    2.333    2.667 
#    0.000    0.000    0.000    0.000    0.000    0.000 
#    0.000    0.000    0.000    0.000    0.000    0.000 
#
# Total GULP energy -594931.301882 kJ/mol
# GULP energy per Si atom -12394.402123 kJ/mol
# Density = 2.319051 g / cm^3
# Si number density = 23.243416 Si / 1000 Ang^3
#
#
#
# Elastic Constant Matrix: (Units=GPa)
#
#
# Indices 1 2 3 4 5 6 
#
# 1 32.4579 5.2878 -8.4797 0.0000 0.0000 0.0000
# 2 5.2878 197.9652 41.9284 0.0000 0.0000 0.0000
# 3 -8.4797 41.9284 112.3191 0.0000 0.0000 0.0000
# 4 0.0000 0.0000 0.0000 26.8770 0.0000 0.0000
# 5 0.0000 0.0000 0.0000 0.0000 31.9178 0.0000
# 6 0.0000 0.0000 0.0000 0.0000 0.0000 9.7604
#
#
#
# Elastic Compliance Matrix: (Units=1/GPa)
#
#
# Indices 1 2 3 4 5 6 
#
# 1 0.031821 -0.001475 0.002953 0.000000 0.000000 0.000000
# 2 -0.001475 0.005553 -0.002184 0.000000 0.000000 0.000000
# 3 0.002953 -0.002184 0.009942 0.000000 0.000000 0.000000
# 4 0.000000 0.000000 0.000000 0.037206 0.000000 0.000000
# 5 0.000000 0.000000 0.000000 0.000000 0.031330 0.000000
# 6 0.000000 0.000000 0.000000 0.000000 0.000000 0.102454
#
#
# Mechanical properties :
#
#
# Convention : Reuss Voigt Hill
#
# Bulk Modulus (GPa) = 21.78531 46.69059 34.23795
# Shear Modulus (GPa) = 21.27463 33.97811 27.62637
#
# Velocity S-wave (km/s) = 3.02867 3.82755 3.45130
# Velocity P-wave (km/s) = 4.65011 6.29800 5.53571
#
# Compressibility (1/GPa) = 0.04590250
#
# Stress axis : x y z
#
# Youngs Moduli (GPa) = 31.42582 180.06767 100.58728
#
# Poissons Ratio (x) = 0.26568 -0.29705
# Poissons Ratio (y) = 0.04637 0.21973
# Poissons Ratio (z) = -0.09280 0.39335
#
# Static dielectric constant tensor:
#      x y z
#    x 4.411140 0.000000 0.000000 
#    y 0.000000 4.365780 0.000000 
#    z 0.000000 0.000000 3.989850 
# 
# 
# High freq. dielectric constant tensor:
#      x y z
#    x 1.913330 0.000000 0.000000 
#    y 0.000000 1.935250 0.000000 
#    z 0.000000 0.000000 1.926250 
# 
# From -- ./inp_files/7737.got.cif
#   From: 2010.03.12/outbox.cif.g09.slc.cpg/sg62_4_cif.got.tgz:7737.got - 2010.04.10 19:12:36.
