data_PCOD8255423
_publ_section_title
;
Structure prediction by ZEFSAII (Michael W. Deem and Ramdas Pophale) SiO2 
 PCOD8255423
Probable space group: C M C M
;
_chemical_formula_sum "Si O2"
_cell_formula_units_Z 80
_cell_length_a 14.626163
_cell_length_b 39.069100
_cell_length_c 9.574715
_cell_angle_alpha 90.000000
_cell_angle_beta 90.000000
_cell_angle_gamma 90.000000
_cell_volume 5471.289205
_symmetry_space_group_name_H-M "C M C M"
_symmetry_group_IT_number 63
_symmetry_cell_setting 'orthorhombic'
loop_
_space_group_symop_operation_xyz
x,y,z
-x,-y,1/2+z
x,-y,-z
-x,y,1/2-z
-x,-y,-z
x,y,1/2-z
-x,y,z
x,-y,1/2+z
1/2+x,1/2+y,z
1/2-x,1/2-y,1/2+z
1/2+x,1/2-y,-z
1/2-x,1/2+y,1/2-z
1/2-x,1/2-y,-z
1/2+x,1/2+y,1/2-z
1/2-x,1/2+y,z
1/2+x,1/2-y,1/2+z
loop_
_atom_site_type_symbol
_atom_site_label
_atom_site_fract_x
_atom_site_fract_y
_atom_site_fract_z
Si Si1 0.712856 0.330070 0.415833
Si Si2 0.099304 0.698010 0.915107
Si Si3 0.891223 0.969871 0.094897
Si Si4 0.393715 0.275032 0.591178
Si Si5 0.898013 0.105174 0.916208
O O1 0.700352 0.326211 0.250000
O O2 0.819862 0.327875 0.460353
O O3 0.659431 0.299460 0.487152
O O4 0.673066 0.366270 0.469996
O O5 0.090801 0.699278 0.750000
O O6 0.122939 0.736477 0.964588
O O7 0.000000 0.686214 0.976688
O O8 0.850236 0.974464 0.250000
O O9 0.865096 0.932439 0.032145
O O10 0.000000 0.972611 0.100962
O O11 0.849010 0.000000 0.000000
O O12 0.357659 0.279563 0.750000
O O13 0.500000 0.284386 0.584318
O O14 0.901783 0.104238 0.750000
O O15 0.000000 0.113614 0.973734
#
# Coordination Sequence:
#
# PCOD8255423 Si02
#       5
#    16  16  16  16  16
#     4  10  17  25  41  59  73  95 127 158 185 219
#     4   8  15  27  40  54  73  97 125 157 193 226
#     4   8  13  22  35  49  68  94 118 139 166 203
#     4   9  17  28  39  52  75 103 124 149 190 229
#     4   8  14  23  34  52  77  97 114 144 183 213
#
# _framework density 14.621783000000001
#
# number of rings (size 3 to 8) (size 9 to 14) (size 15 to 20)
#    0.000    3.400    0.000    3.600    0.000    1.200 
#    0.000    1.000    0.000    5.400    0.000    0.000 
#    0.000    0.800    0.000    0.600    0.000    1.200 
#
# Total GULP energy -495600.989493 kJ/mol
# GULP energy per Si atom -12390.024737 kJ/mol
# Density = 1.458850 g / cm^3
# Si number density = 14.621783 Si / 1000 Ang^3
#
#
#
# Elastic Constant Matrix: (Units=GPa)
#
#
# Indices 1 2 3 4 5 6 
#
# 1 79.7378 71.4288 21.6707 0.0000 0.0000 0.0000
# 2 71.4288 117.6244 25.6428 0.0000 0.0000 0.0000
# 3 21.6707 25.6428 26.6195 0.0000 0.0000 0.0000
# 4 0.0000 0.0000 0.0000 18.9949 0.0000 0.0000
# 5 0.0000 0.0000 0.0000 0.0000 10.6479 0.0000
# 6 0.0000 0.0000 0.0000 0.0000 0.0000 14.8385
#
#
#
# Elastic Compliance Matrix: (Units=1/GPa)
#
#
# Indices 1 2 3 4 5 6 
#
# 1 0.028907 -0.015727 -0.008384 0.000000 0.000000 0.000000
# 2 -0.015727 0.019318 -0.005806 0.000000 0.000000 0.000000
# 3 -0.008384 -0.005806 0.049984 0.000000 0.000000 0.000000
# 4 0.000000 0.000000 0.000000 0.052646 0.000000 0.000000
# 5 0.000000 0.000000 0.000000 0.000000 0.093916 0.000000
# 6 0.000000 0.000000 0.000000 0.000000 0.000000 0.067392
#
#
# Mechanical properties :
#
#
# Convention : Reuss Voigt Hill
#
# Bulk Modulus (GPa) = 26.05729 51.27402 38.66566
# Shear Modulus (GPa) = 12.99420 15.91223 14.45322
#
# Velocity S-wave (km/s) = 2.98432 3.30245 3.14741
# Velocity P-wave (km/s) = 5.45293 7.04873 6.30155
#
# Compressibility (1/GPa) = 0.03837698
#
# Stress axis : x y z
#
# Youngs Moduli (GPa) = 34.59315 51.76634 20.00634
#
# Poissons Ratio (x) = 0.81411 0.16772
# Poissons Ratio (y) = 0.54404 0.11615
# Poissons Ratio (z) = 0.29001 0.30055
#
# Static dielectric constant tensor:
#      x y z
#    x 3.002720 0.000000 0.000000 
#    y 0.000000 3.057340 0.000000 
#    z 0.000000 0.000000 2.624900 
# 
# 
# High freq. dielectric constant tensor:
#      x y z
#    x 1.532220 0.000000 0.000000 
#    y 0.000000 1.552320 0.000000 
#    z 0.000000 0.000000 1.526490 
# 
# From -- ./inp_files/19859.got.cif
#   From: 2010.03.12/outbox.cif.g09.slc.cpg/sg63_10_cif.got.tgz:19859.got - 2010.04.10 19:34:48.
