data_PCOD8255966
_publ_section_title
;
Structure prediction by ZEFSAII (Michael W. Deem and Ramdas Pophale) SiO2 
 PCOD8255966
Probable space group: C M C M
;
_chemical_formula_sum "Si O2"
_cell_formula_units_Z 128
_cell_length_a 25.981655
_cell_length_b 17.394935
_cell_length_c 17.297662
_cell_angle_alpha 90.000000
_cell_angle_beta 90.000000
_cell_angle_gamma 90.000000
_cell_volume 7817.664501
_symmetry_space_group_name_H-M "C M C M"
_symmetry_group_IT_number 63
_symmetry_cell_setting 'orthorhombic'
loop_
_space_group_symop_operation_xyz
x,y,z
-x,-y,1/2+z
x,-y,-z
-x,y,1/2-z
-x,-y,-z
x,y,1/2-z
-x,y,z
x,-y,1/2+z
1/2+x,1/2+y,z
1/2-x,1/2-y,1/2+z
1/2+x,1/2-y,-z
1/2-x,1/2+y,1/2-z
1/2-x,1/2-y,-z
1/2+x,1/2+y,1/2-z
1/2-x,1/2+y,z
1/2+x,1/2-y,1/2+z
loop_
_atom_site_type_symbol
_atom_site_label
_atom_site_fract_x
_atom_site_fract_y
_atom_site_fract_z
Si Si1 0.297578 0.086819 0.480940
Si Si2 0.353117 0.784310 0.059333
Si Si3 0.197101 0.833557 0.446894
Si Si4 0.846192 0.038380 0.842013
Si Si5 0.943761 0.945406 0.658887
Si Si6 0.440431 0.730669 0.338877
Si Si7 0.232908 0.252425 0.335094
Si Si8 0.258253 0.580031 0.165642
O O1 0.345696 0.140953 0.504747
O O2 0.243359 0.116267 0.516869
O O3 0.291487 0.084795 0.388539
O O4 0.311377 0.000000 0.500000
O O5 0.409865 0.779803 0.096317
O O6 0.316044 0.798077 0.132779
O O7 0.336934 0.706566 0.013326
O O8 0.161318 0.884837 0.391611
O O9 0.219831 0.764936 0.394026
O O10 0.846938 0.055618 0.750000
O O11 0.899717 0.002066 0.872464
O O12 0.800876 0.979577 0.864273
O O13 0.946423 0.953440 0.750000
O O14 0.930339 0.857713 0.638698
O O15 0.000000 0.967859 0.623958
O O16 0.422423 0.746535 0.250000
O O17 0.500000 0.752656 0.347213
O O18 0.247215 0.284702 0.250000
O O19 0.216099 0.163873 0.330393
O O20 0.238399 0.554531 0.250000
#
# Coordination Sequence:
#
# PCOD8255966 Si02
#       8
#    16  16  16  16  16  16  16  16
#     4  11  20  34  47  67 100 131 156 195 243 291
#     4  11  20  32  48  72  96 125 162 197 247 291
#     4  11  20  30  44  66 101 130 162 198 234 283
#     4  10  19  29  45  68  92 129 171 203 238 279
#     4   8  15  29  48  69  93 121 160 204 238 273
#     4   9  18  34  55  76  96 121 156 202 251 292
#     4  10  18  30  46  65  92 126 163 198 232 277
#     4  10  18  30  46  65  92 127 165 194 229 288
#
# _framework density 16.373176000000001
#
# number of rings (size 3 to 8) (size 9 to 14) (size 15 to 20)
#    0.000    2.000    3.750    3.000    0.000    2.000 
#    0.000    1.250    0.000    1.875    0.000    0.000 
#    0.000    1.500    0.000    0.250    0.000    0.000 
#
# Total GULP energy -793104.937605 kJ/mol
# GULP energy per Si atom -12392.264650 kJ/mol
# Density = 1.633591 g / cm^3
# Si number density = 16.373176 Si / 1000 Ang^3
#
#
#
# Elastic Constant Matrix: (Units=GPa)
#
#
# Indices 1 2 3 4 5 6 
#
# 1 80.1129 37.5796 42.5182 0.0000 0.0000 0.0000
# 2 37.5796 79.7909 26.8588 0.0000 0.0000 0.0000
# 3 42.5182 26.8588 79.3932 0.0000 0.0000 0.0000
# 4 0.0000 0.0000 0.0000 21.8865 0.0000 0.0000
# 5 0.0000 0.0000 0.0000 0.0000 23.9968 0.0000
# 6 0.0000 0.0000 0.0000 0.0000 0.0000 19.5392
#
#
#
# Elastic Compliance Matrix: (Units=1/GPa)
#
#
# Indices 1 2 3 4 5 6 
#
# 1 0.020107 -0.006596 -0.008537 0.000000 0.000000 0.000000
# 2 -0.006596 0.016307 -0.001984 0.000000 0.000000 0.000000
# 3 -0.008537 -0.001984 0.017839 0.000000 0.000000 0.000000
# 4 0.000000 0.000000 0.000000 0.045690 0.000000 0.000000
# 5 0.000000 0.000000 0.000000 0.000000 0.041672 0.000000
# 6 0.000000 0.000000 0.000000 0.000000 0.000000 0.051179
#
#
# Mechanical properties :
#
#
# Convention : Reuss Voigt Hill
#
# Bulk Modulus (GPa) = 49.95339 50.35668 50.15504
# Shear Modulus (GPa) = 21.39472 21.90718 21.65095
#
# Velocity S-wave (km/s) = 3.61874 3.66183 3.64035
# Velocity P-wave (km/s) = 6.93079 6.97861 6.95474
#
# Compressibility (1/GPa) = 0.02001866
#
# Stress axis : x y z
#
# Youngs Moduli (GPa) = 49.73304 61.32167 56.05846
#
# Poissons Ratio (x) = 0.40451 0.47855
# Poissons Ratio (y) = 0.32806 0.11123
# Poissons Ratio (z) = 0.42456 0.12167
#
# Static dielectric constant tensor:
#      x y z
#    x 3.040680 0.000000 0.000000 
#    y 0.000000 3.044470 0.000000 
#    z 0.000000 0.000000 3.265090 
# 
# 
# High freq. dielectric constant tensor:
#      x y z
#    x 1.591280 0.000000 0.000000 
#    y 0.000000 1.615930 0.000000 
#    z 0.000000 0.000000 1.636170 
# 
# From -- ./inp_files/48437.got.cif
#   From: 2010.03.12/outbox.cif.g09.slc.cpg/sg63_25_cif.got.tgz:48437.got - 2010.04.10 19:34:48.
