data_PCOD8255657
_publ_section_title
;
Structure prediction by ZEFSAII (Michael W. Deem and Ramdas Pophale) SiO2 
 PCOD8255657
Probable space group: C M C M
;
_chemical_formula_sum "Si O2"
_cell_formula_units_Z 96
_cell_length_a 27.217058
_cell_length_b 29.535156
_cell_length_c 9.320149
_cell_angle_alpha 90.000000
_cell_angle_beta 90.000000
_cell_angle_gamma 90.000000
_cell_volume 7492.095477
_symmetry_space_group_name_H-M "C M C M"
_symmetry_group_IT_number 63
_symmetry_cell_setting 'orthorhombic'
loop_
_space_group_symop_operation_xyz
x,y,z
-x,-y,1/2+z
x,-y,-z
-x,y,1/2-z
-x,-y,-z
x,y,1/2-z
-x,y,z
x,-y,1/2+z
1/2+x,1/2+y,z
1/2-x,1/2-y,1/2+z
1/2+x,1/2-y,-z
1/2-x,1/2+y,1/2-z
1/2-x,1/2-y,-z
1/2+x,1/2+y,1/2-z
1/2-x,1/2+y,z
1/2+x,1/2-y,1/2+z
loop_
_atom_site_type_symbol
_atom_site_label
_atom_site_fract_x
_atom_site_fract_y
_atom_site_fract_z
Si Si1 0.000000 0.317305 0.588113
Si Si2 0.000000 0.409312 0.419722
Si Si3 0.100056 0.544768 0.583745
Si Si4 0.656691 0.866634 0.416254
Si Si5 0.105991 0.287926 0.916394
Si Si6 0.749517 0.817123 0.408908
Si Si7 0.322449 0.731807 0.411078
O O1 0.952638 0.285572 0.563114
O O2 0.000000 0.336799 0.750000
O O3 0.000000 0.359271 0.481871
O O4 0.047901 0.436383 0.472922
O O5 0.000000 0.403291 0.250000
O O6 0.115260 0.500000 0.500000
O O7 0.096111 0.532435 0.750000
O O8 0.142548 0.581549 0.554297
O O9 0.645895 0.853267 0.250000
O O10 0.623992 0.835217 0.517569
O O11 0.714904 0.859962 0.450066
O O12 0.121752 0.286103 0.750000
O O13 0.129397 0.244790 0.997466
O O14 0.771962 0.823000 0.250000
O O15 0.713950 0.774005 0.412657
O O16 0.794602 0.811326 0.518855
O O17 0.338108 0.718614 0.250000
#
# Coordination Sequence:
#
# PCOD8255657 Si02
#       7
#     8   8  16  16  16  16  16
#     4  10  20  29  39  56  73  92 120 154 187 221
#     4  10  19  31  45  54  66  90 120 154 194 231
#     4  10  20  31  42  56  71  91 118 152 191 231
#     4   9  17  29  42  55  70  89 115 145 181 222
#     4  10  18  27  39  54  72  92 116 146 180 215
#     4   8  14  24  38  54  71  89 109 137 172 211
#     4   9  16  25  37  54  73  92 112 136 168 210
#
# _framework density 12.813504999999999
#
# number of rings (size 3 to 8) (size 9 to 14) (size 15 to 20)
#    0.000    2.667    1.667    2.250    0.000    6.000 
#    0.000    0.000    0.000    0.000    0.000    0.000 
#    0.000    0.000    0.000    0.000    0.000    0.000 
#
# Total GULP energy -595041.504333 kJ/mol
# GULP energy per Si atom -12396.698007 kJ/mol
# Density = 1.278434 g / cm^3
# Si number density = 12.813505 Si / 1000 Ang^3
#
#
#
# Elastic Constant Matrix: (Units=GPa)
#
#
# Indices 1 2 3 4 5 6 
#
# 1 71.3698 46.7241 46.7394 0.0000 0.0000 0.0000
# 2 46.7241 52.5567 32.1121 0.0000 0.0000 0.0000
# 3 46.7394 32.1121 77.5834 0.0000 0.0000 0.0000
# 4 0.0000 0.0000 0.0000 18.3310 0.0000 0.0000
# 5 0.0000 0.0000 0.0000 0.0000 15.9567 0.0000
# 6 0.0000 0.0000 0.0000 0.0000 0.0000 17.4948
#
#
#
# Elastic Compliance Matrix: (Units=1/GPa)
#
#
# Indices 1 2 3 4 5 6 
#
# 1 0.041456 -0.028906 -0.013010 0.000000 0.000000 0.000000
# 2 -0.028906 0.045623 -0.001469 0.000000 0.000000 0.000000
# 3 -0.013010 -0.001469 0.021336 0.000000 0.000000 0.000000
# 4 0.000000 0.000000 0.000000 0.054552 0.000000 0.000000
# 5 0.000000 0.000000 0.000000 0.000000 0.062669 0.000000
# 6 0.000000 0.000000 0.000000 0.000000 0.000000 0.057160
#
#
# Mechanical properties :
#
#
# Convention : Reuss Voigt Hill
#
# Bulk Modulus (GPa) = 46.20468 50.29568 48.25018
# Shear Modulus (GPa) = 13.27028 15.41880 14.34454
#
# Velocity S-wave (km/s) = 3.22164 3.47266 3.34950
# Velocity P-wave (km/s) = 7.06939 7.44422 7.25923
#
# Compressibility (1/GPa) = 0.02164283
#
# Stress axis : x y z
#
# Youngs Moduli (GPa) = 24.12200 21.91887 46.87008
#
# Poissons Ratio (x) = 0.63358 0.60980
# Poissons Ratio (y) = 0.69727 0.06887
# Poissons Ratio (z) = 0.31384 0.03221
#
# Static dielectric constant tensor:
#      x y z
#    x 2.680340 0.000000 0.000000 
#    y 0.000000 2.361650 0.000000 
#    z 0.000000 0.000000 2.734860 
# 
# 
# High freq. dielectric constant tensor:
#      x y z
#    x 1.471200 0.000000 0.000000 
#    y 0.000000 1.439330 0.000000 
#    z 0.000000 0.000000 1.499850 
# 
# From -- ./inp_files/14962.got.cif
#   From: 2010.03.12/outbox.cif.g09.slc.cpg/sg63_8_cif.got.tgz:14962.got - 2010.04.10 19:34:48.
