data_PCOD8255511
_publ_section_title
;
Structure prediction by ZEFSAII (Michael W. Deem and Ramdas Pophale) SiO2 
 PCOD8255511
Probable space group: C M C M
;
_chemical_formula_sum "Si O2"
_cell_formula_units_Z 112
_cell_length_a 12.562125
_cell_length_b 28.540561
_cell_length_c 19.361627
_cell_angle_alpha 90.000000
_cell_angle_beta 90.000000
_cell_angle_gamma 90.000000
_cell_volume 6941.725965
_symmetry_space_group_name_H-M "C M C M"
_symmetry_group_IT_number 63
_symmetry_cell_setting 'orthorhombic'
loop_
_space_group_symop_operation_xyz
x,y,z
-x,-y,1/2+z
x,-y,-z
-x,y,1/2-z
-x,-y,-z
x,y,1/2-z
-x,y,z
x,-y,1/2+z
1/2+x,1/2+y,z
1/2-x,1/2-y,1/2+z
1/2+x,1/2-y,-z
1/2-x,1/2+y,1/2-z
1/2-x,1/2-y,-z
1/2+x,1/2+y,1/2-z
1/2-x,1/2+y,z
1/2+x,1/2-y,1/2+z
loop_
_atom_site_type_symbol
_atom_site_label
_atom_site_fract_x
_atom_site_fract_y
_atom_site_fract_z
Si Si1 0.748351 0.270977 0.107331
Si Si2 0.124450 0.698437 0.479446
Si Si3 0.626456 0.547354 0.672450
Si Si4 0.303583 0.368744 0.948858
Si Si5 0.620636 0.304620 0.673535
Si Si6 0.123386 0.030247 0.431860
Si Si7 0.122227 0.141421 0.601504
O O1 0.656628 0.240709 0.070614
O O2 0.802726 0.240478 0.166987
O O3 0.690318 0.317097 0.136988
O O4 0.842596 0.286176 0.055935
O O5 0.183581 0.650287 0.457448
O O6 0.000000 0.688668 0.475110
O O7 0.673069 0.546616 0.750000
O O8 0.500000 0.549085 0.672985
O O9 0.662809 0.500318 0.633232
O O10 0.668850 0.592781 0.631366
O O11 0.358326 0.343558 0.884155
O O12 0.302505 0.424098 0.934865
O O13 0.368802 0.357054 0.018458
O O14 0.640172 0.326239 0.750000
O O15 0.500000 0.287148 0.665857
O O16 0.000000 0.045719 0.425000
O O17 0.139705 0.000000 0.500000
O O18 0.000000 0.147831 0.622908
#
# Coordination Sequence:
#
# PCOD8255511 Si02
#       7
#    16  16  16  16  16  16  16
#     4   9  18  28  46  69  90 126 158 188 230 284
#     4   9  17  30  47  70  96 119 153 200 238 274
#     4   9  18  29  42  66  97 124 150 185 235 287
#     4  10  19  30  49  72  92 123 160 192 238 288
#     4  10  20  32  45  65  96 127 158 198 234 274
#     4  10  17  28  47  69  93 122 152 189 233 285
#     4  10  17  28  47  71  97 124 154 191 234 281
#
# _framework density 16.134315999999998
#
# number of rings (size 3 to 8) (size 9 to 14) (size 15 to 20)
#    0.000    2.429    1.429    3.000    0.000    1.143 
#    0.000    1.429    0.000   10.714    0.000    0.000 
#    0.000    5.714    0.000    0.000    0.000    0.000 
#
# Total GULP energy -694264.069877 kJ/mol
# GULP energy per Si atom -12397.572676 kJ/mol
# Density = 1.609759 g / cm^3
# Si number density = 16.134316 Si / 1000 Ang^3
#
#
#
# Elastic Constant Matrix: (Units=GPa)
#
#
# Indices 1 2 3 4 5 6 
#
# 1 77.0606 38.0312 21.0311 0.0000 0.0000 0.0000
# 2 38.0312 122.5122 33.7220 0.0000 0.0000 0.0000
# 3 21.0311 33.7220 90.1552 0.0000 0.0000 0.0000
# 4 0.0000 0.0000 0.0000 24.0591 0.0000 0.0000
# 5 0.0000 0.0000 0.0000 0.0000 11.4704 0.0000
# 6 0.0000 0.0000 0.0000 0.0000 0.0000 22.4474
#
#
#
# Elastic Compliance Matrix: (Units=1/GPa)
#
#
# Indices 1 2 3 4 5 6 
#
# 1 0.015656 -0.004297 -0.002045 0.000000 0.000000 0.000000
# 2 -0.004297 0.010279 -0.002842 0.000000 0.000000 0.000000
# 3 -0.002045 -0.002842 0.012632 0.000000 0.000000 0.000000
# 4 0.000000 0.000000 0.000000 0.041564 0.000000 0.000000
# 5 0.000000 0.000000 0.000000 0.000000 0.087181 0.000000
# 6 0.000000 0.000000 0.000000 0.000000 0.000000 0.044549
#
#
# Mechanical properties :
#
#
# Convention : Reuss Voigt Hill
#
# Bulk Modulus (GPa) = 49.50957 52.81073 51.16015
# Shear Modulus (GPa) = 21.10048 24.72495 22.91271
#
# Velocity S-wave (km/s) = 3.62028 3.91889 3.77254
# Velocity P-wave (km/s) = 6.94462 7.29931 7.12417
#
# Compressibility (1/GPa) = 0.02019811
#
# Stress axis : x y z
#
# Youngs Moduli (GPa) = 63.87501 97.28817 79.16325
#
# Poissons Ratio (x) = 0.41806 0.16187
# Poissons Ratio (y) = 0.27448 0.22500
# Poissons Ratio (z) = 0.13061 0.27652
#
# Static dielectric constant tensor:
#      x y z
#    x 2.742330 0.000000 0.000000 
#    y 0.000000 3.170560 0.000000 
#    z 0.000000 0.000000 3.100840 
# 
# 
# High freq. dielectric constant tensor:
#      x y z
#    x 1.581880 0.000000 0.000000 
#    y 0.000000 1.625260 0.000000 
#    z 0.000000 0.000000 1.616520 
# 
# From -- ./inp_files/53343.got.cif
#   From: 2010.03.12/outbox.cif.g09.slc.cpg/sg63_27_cif.got.tgz:53343.got - 2010.04.10 19:34:48.
