data_PCOD8255095
_publ_section_title
;
Structure prediction by ZEFSAII (Michael W. Deem and Ramdas Pophale) SiO2 
 PCOD8255095
Probable space group: P N M A
;
_chemical_formula_sum "Si O2"
_cell_formula_units_Z 56
_cell_length_a 9.242497
_cell_length_b 20.190221
_cell_length_c 13.858021
_cell_angle_alpha 90.000000
_cell_angle_beta 90.000000
_cell_angle_gamma 90.000000
_cell_volume 2586.018373
_symmetry_space_group_name_H-M "P N M A"
_symmetry_group_IT_number 62
_symmetry_cell_setting 'orthorhombic'
loop_
_space_group_symop_operation_xyz
x,y,z
1/2-x,-y,1/2+z
1/2+x,1/2-y,1/2-z
-x,1/2+y,-z
-x,-y,-z
1/2+x,y,1/2-z
1/2-x,1/2+y,1/2+z
x,1/2-y,z
loop_
_atom_site_type_symbol
_atom_site_label
_atom_site_fract_x
_atom_site_fract_y
_atom_site_fract_z
Si Si1 0.122844 0.420524 0.205281
Si Si2 0.504702 0.128154 0.482055
Si Si3 0.724314 0.441089 0.599580
Si Si4 0.698038 0.409503 0.087316
Si Si5 0.982344 0.250000 0.878009
Si Si6 0.374972 0.987859 0.209573
Si Si7 0.641751 0.250000 0.821862
Si Si8 0.493376 0.622787 0.076964
O O1 0.185329 0.385110 0.301660
O O2 0.246550 0.468833 0.162231
O O3 0.983028 0.463719 0.233151
O O4 0.080191 0.366192 0.124083
O O5 0.579483 0.065799 0.535525
O O6 0.335776 0.118788 0.467327
O O7 0.521442 0.189327 0.553070
O O8 0.800754 0.511316 0.581592
O O9 0.687126 0.435828 0.712691
O O10 0.832153 0.379575 0.576182
O O11 0.559238 0.379549 0.033280
O O12 0.097398 0.250000 0.790524
O O13 0.816338 0.250000 0.837865
O O14 0.446600 0.946056 0.126044
O O15 0.569689 0.186125 0.869922
#
# Coordination Sequence:
#
# PCOD8255095 Si02
#       8
#     8   8   8   8   4   8   4   8
#     4  11  23  41  68 103 139 176 229 289 351 416
#     4  12  25  46  70  99 142 186 238 282 348 415
#     4  11  24  38  68 105 140 181 230 285 359 412
#     4  11  23  42  68 106 140 184 226 292 354 409
#     4  12  30  54  73  99 136 192 231 289 339 422
#     4  11  22  39  64 104 142 179 226 289 355 409
#     4  12  30  50  73  97 142 184 237 281 335 428
#     4  12  25  42  67 100 143 187 234 286 343 417
#
# _framework density 21.654913000000001
#
# number of rings (size 3 to 8) (size 9 to 14) (size 15 to 20)
#    0.000    0.571    7.143    2.571    8.000    0.000 
#    0.000    1.429    0.000    0.000    0.000    0.000 
#    0.000    0.000    0.000    0.000    0.000    0.000 
#
# Total GULP energy -694197.985063 kJ/mol
# GULP energy per Si atom -12396.392590 kJ/mol
# Density = 2.160563 g / cm^3
# Si number density = 21.654913 Si / 1000 Ang^3
#
#
#
# Elastic Constant Matrix: (Units=GPa)
#
#
# Indices 1 2 3 4 5 6 
#
# 1 98.2145 17.8870 25.7916 0.0000 0.0000 0.0000
# 2 17.8870 60.8967 47.5377 0.0000 0.0000 0.0000
# 3 25.7916 47.5377 121.6441 0.0000 0.0000 0.0000
# 4 0.0000 0.0000 0.0000 33.0072 0.0000 0.0000
# 5 0.0000 0.0000 0.0000 0.0000 45.2492 0.0000
# 6 0.0000 0.0000 0.0000 0.0000 0.0000 18.6083
#
#
#
# Elastic Compliance Matrix: (Units=1/GPa)
#
#
# Indices 1 2 3 4 5 6 
#
# 1 0.010952 -0.002021 -0.001532 0.000000 0.000000 0.000000
# 2 -0.002021 0.024003 -0.008952 0.000000 0.000000 0.000000
# 3 -0.001532 -0.008952 0.012044 0.000000 0.000000 0.000000
# 4 0.000000 0.000000 0.000000 0.030296 0.000000 0.000000
# 5 0.000000 0.000000 0.000000 0.000000 0.022100 0.000000
# 6 0.000000 0.000000 0.000000 0.000000 0.000000 0.053739
#
#
# Mechanical properties :
#
#
# Convention : Reuss Voigt Hill
#
# Bulk Modulus (GPa) = 45.47690 51.46533 48.47112
# Shear Modulus (GPa) = 26.95798 32.00888 29.48343
#
# Velocity S-wave (km/s) = 3.53213 3.84882 3.69387
# Velocity P-wave (km/s) = 6.13848 6.60068 6.37377
#
# Compressibility (1/GPa) = 0.02198918
#
# Stress axis : x y z
#
# Youngs Moduli (GPa) = 91.30547 41.66194 83.02971
#
# Poissons Ratio (x) = 0.08419 0.12724
# Poissons Ratio (y) = 0.18450 0.74325
# Poissons Ratio (z) = 0.13992 0.37294
#
# Static dielectric constant tensor:
#      x y z
#    x 4.321610 0.000000 0.000000 
#    y 0.000000 3.556030 0.000000 
#    z 0.000000 0.000000 4.221300 
# 
# 
# High freq. dielectric constant tensor:
#      x y z
#    x 1.873040 0.000000 0.000000 
#    y 0.000000 1.804850 0.000000 
#    z 0.000000 0.000000 1.867250 
# 
# From -- ./inp_files/17240.got.cif
#   From: 2010.03.12/outbox.cif.g09.slc.cpg/sg62_9_cif.got.tgz:17240.got - 2010.04.10 19:12:36.
