data_PCOD8255348
_publ_section_title
;
Structure prediction by ZEFSAII (Michael W. Deem and Ramdas Pophale) SiO2 
 PCOD8255348
Probable space group: C M C M
;
_chemical_formula_sum "Si O2"
_cell_formula_units_Z 88
_cell_length_a 31.075015
_cell_length_b 5.351643
_cell_length_c 31.098288
_cell_angle_alpha 90.000000
_cell_angle_beta 90.000000
_cell_angle_gamma 90.000000
_cell_volume 5171.719510
_symmetry_space_group_name_H-M "C M C M"
_symmetry_group_IT_number 63
_symmetry_cell_setting 'orthorhombic'
loop_
_space_group_symop_operation_xyz
x,y,z
-x,-y,1/2+z
x,-y,-z
-x,y,1/2-z
-x,-y,-z
x,y,1/2-z
-x,y,z
x,-y,1/2+z
1/2+x,1/2+y,z
1/2-x,1/2-y,1/2+z
1/2+x,1/2-y,-z
1/2-x,1/2+y,1/2-z
1/2-x,1/2-y,-z
1/2+x,1/2+y,1/2-z
1/2-x,1/2+y,z
1/2+x,1/2-y,1/2+z
loop_
_atom_site_type_symbol
_atom_site_label
_atom_site_fract_x
_atom_site_fract_y
_atom_site_fract_z
Si Si1 0.314202 0.250002 0.974623
Si Si2 0.950094 0.250006 0.550354
Si Si3 0.085227 0.249994 0.455713
Si Si4 0.222304 0.235566 0.750000
Si Si5 0.300588 0.250446 0.343496
Si Si6 0.295524 0.750442 0.378817
O O1 0.364769 0.250010 0.966160
O O2 0.288601 0.250014 0.929873
O O3 0.300499 0.500000 0.000000
O O4 0.300503 0.000000 0.000000
O O5 0.927703 0.498958 0.570434
O O6 0.942637 0.250000 0.499233
O O7 0.000000 0.250013 0.561901
O O8 0.927705 0.001051 0.570435
O O9 0.254582 0.468262 0.750000
O O10 0.192454 0.251522 0.792220
O O11 0.321591 0.501125 0.364092
O O12 0.249960 0.252278 0.354755
O O13 0.321570 0.000178 0.364215
#
# Coordination Sequence:
#
# PCOD8255348 Si02
#       6
#    16  16  16   8  16  16
#     4  12  21  34  44  57  78 122 159 184 214 241
#     4  10  16  25  41  58  76  94 124 192 234 242
#     4  10  16  27  38  55  77  97 140 177 213 253
#     4  12  16  30  58  72  92 104 120 164 226 288
#     4  10  19  35  47  73  86 104 132 177 225 263
#     4  10  20  32  48  61  89 107 141 188 217 249
#
# _framework density 17.015618
#
# number of rings (size 3 to 8) (size 9 to 14) (size 15 to 20)
#    0.000    1.455    7.273    3.818    0.000    0.000 
#    0.000   10.909    0.000    0.000    0.000    0.000 
#    0.000    0.000    0.000    0.000    0.000    0.000 
#
# Total GULP energy -545230.261648 kJ/mol
# GULP energy per Si atom -12391.596856 kJ/mol
# Density = 1.697689 g / cm^3
# Si number density = 17.015618 Si / 1000 Ang^3
#
#
#
# Elastic Constant Matrix: (Units=GPa)
#
#
# Indices 1 2 3 4 5 6 
#
# 1 17.4732 2.5982 4.4898 0.0000 0.0000 0.0000
# 2 2.5982 199.5651 42.3942 0.0000 0.0000 0.0000
# 3 4.4898 42.3942 99.2508 0.0000 0.0000 0.0000
# 4 0.0000 0.0000 0.0000 23.0559 0.0000 0.0000
# 5 0.0000 0.0000 0.0000 0.0000 -0.9945 0.0000
# 6 0.0000 0.0000 0.0000 0.0000 0.0000 1.5664
#
#
#
# Elastic Compliance Matrix: (Units=1/GPa)
#
#
# Indices 1 2 3 4 5 6 
#
# 1 0.057912 -0.000217 -0.002527 0.000000 0.000000 0.000000
# 2 -0.000217 0.005512 -0.002344 0.000000 0.000000 0.000000
# 3 -0.002527 -0.002344 0.011191 0.000000 0.000000 0.000000
# 4 0.000000 0.000000 0.000000 0.043373 0.000000 0.000000
# 5 0.000000 0.000000 0.000000 0.000000 -1.005575 0.000000
# 6 0.000000 0.000000 0.000000 0.000000 0.000000 0.638406
#
#
# Mechanical properties :
#
#
# Convention : Reuss Voigt Hill
#
# Bulk Modulus (GPa) = 15.51886 46.13927 30.82907
# Shear Modulus (GPa) = -22.98588 22.51270 -0.23659
#
# Velocity S-wave (km/s) = -3.67941 3.64134 -0.37329
# Velocity P-wave (km/s) = 2.98505 6.69730 4.23930
#
# Compressibility (1/GPa) = 0.06443772
#
# Stress axis : x y z
#
# Youngs Moduli (GPa) = 17.26757 181.42993 89.35571
#
# Poissons Ratio (x) = 0.03940 0.22580
# Poissons Ratio (y) = 0.00375 0.20949
# Poissons Ratio (z) = 0.04364 0.42536
#
# Static dielectric constant tensor:
#      x y z
#    x 2.705920 0.000000 0.000000 
#    y 0.000000 5.669250 0.000000 
#    z 0.000000 0.000000 2.965560 
# 
# 
# High freq. dielectric constant tensor:
#      x y z
#    x 1.597140 0.000000 0.000000 
#    y 0.000000 1.709970 0.000000 
#    z 0.000000 0.000000 1.600240 
# 
# From -- ./inp_files/71032.got.cif
#   From: 2010.03.12/outbox.cif.g09.slc.cpg/sg63_36_cif.got.tgz:71032.got - 2010.04.10 19:34:48.
