data_PCOD8255368
_publ_section_title
;
Structure prediction by ZEFSAII (Michael W. Deem and Ramdas Pophale) SiO2 
 PCOD8255368
Probable space group: C M C M
;
_chemical_formula_sum "Si O2"
_cell_formula_units_Z 96
_cell_length_a 11.476505
_cell_length_b 25.781965
_cell_length_c 20.391520
_cell_angle_alpha 90.000000
_cell_angle_beta 90.000000
_cell_angle_gamma 90.000000
_cell_volume 6033.582624
_symmetry_space_group_name_H-M "C M C M"
_symmetry_group_IT_number 63
_symmetry_cell_setting 'orthorhombic'
loop_
_space_group_symop_operation_xyz
x,y,z
-x,-y,1/2+z
x,-y,-z
-x,y,1/2-z
-x,-y,-z
x,y,1/2-z
-x,y,z
x,-y,1/2+z
1/2+x,1/2+y,z
1/2-x,1/2-y,1/2+z
1/2+x,1/2-y,-z
1/2-x,1/2+y,1/2-z
1/2-x,1/2-y,-z
1/2+x,1/2+y,1/2-z
1/2-x,1/2+y,z
1/2+x,1/2-y,1/2+z
loop_
_atom_site_type_symbol
_atom_site_label
_atom_site_fract_x
_atom_site_fract_y
_atom_site_fract_z
Si Si1 0.867027 0.612539 0.934659
Si Si2 0.801575 0.390664 0.916108
Si Si3 0.500000 0.273242 0.324626
Si Si4 0.871038 0.500473 0.076935
Si Si5 0.134654 0.197590 0.060014
Si Si6 0.000000 0.348874 0.825553
Si Si7 0.788357 0.793275 0.412745
O O1 0.822115 0.556910 0.905704
O O2 0.791175 0.656689 0.901147
O O3 0.000000 0.620826 0.913678
O O4 0.861664 0.616810 0.013391
O O5 0.783810 0.452644 0.902175
O O6 0.680174 0.359051 0.916322
O O7 0.883866 0.369321 0.859548
O O8 0.500000 0.291342 0.250000
O O9 0.500000 0.212198 0.333167
O O10 0.384663 0.296224 0.357054
O O11 0.000000 0.510108 0.108440
O O12 0.888263 0.500000 0.000000
O O13 0.209691 0.241950 0.095759
O O14 0.000000 0.202397 0.080320
O O15 0.147049 0.205343 0.982437
O O16 0.000000 0.366624 0.750000
#
# Coordination Sequence:
#
# PCOD8255368 Si02
#       7
#    16  16   8  16  16   8  16
#     4   9  16  26  48  76 100 124 149 198 251 289
#     4  10  16  28  47  68 103 126 153 194 244 289
#     4  11  22  36  50  67  96 130 166 190 221 283
#     4   8  13  23  43  70  97 124 150 184 240 290
#     4  10  19  28  47  73 100 122 146 197 247 286
#     4  11  20  30  47  71  95 124 165 194 230 283
#     4  10  19  30  48  70  97 123 160 191 234 281
#
# _framework density 15.910945999999999
#
# number of rings (size 3 to 8) (size 9 to 14) (size 15 to 20)
#    0.000    2.333    4.167    1.500    0.000    0.000 
#    0.000    0.000    1.833    7.000    0.000    0.000 
#    0.000    0.000    0.000    0.000    0.000    0.000 
#
# Total GULP energy -594873.730615 kJ/mol
# GULP energy per Si atom -12393.202721 kJ/mol
# Density = 1.587473 g / cm^3
# Si number density = 15.910946 Si / 1000 Ang^3
#
#
#
# Elastic Constant Matrix: (Units=GPa)
#
#
# Indices 1 2 3 4 5 6 
#
# 1 105.5533 61.2879 35.6418 0.0000 0.0000 0.0000
# 2 61.2879 134.6200 33.2831 0.0000 0.0000 0.0000
# 3 35.6418 33.2831 58.1061 0.0000 0.0000 0.0000
# 4 0.0000 0.0000 0.0000 11.3457 0.0000 0.0000
# 5 0.0000 0.0000 0.0000 0.0000 14.6624 0.0000
# 6 0.0000 0.0000 0.0000 0.0000 0.0000 21.9752
#
#
#
# Elastic Compliance Matrix: (Units=1/GPa)
#
#
# Indices 1 2 3 4 5 6 
#
# 1 0.014444 -0.005109 -0.005933 0.000000 0.000000 0.000000
# 2 -0.005109 0.010461 -0.002858 0.000000 0.000000 0.000000
# 3 -0.005933 -0.002858 0.022487 0.000000 0.000000 0.000000
# 4 0.000000 0.000000 0.000000 0.088139 0.000000 0.000000
# 5 0.000000 0.000000 0.000000 0.000000 0.068202 0.000000
# 6 0.000000 0.000000 0.000000 0.000000 0.000000 0.045506
#
#
# Mechanical properties :
#
#
# Convention : Reuss Voigt Hill
#
# Bulk Modulus (GPa) = 51.04563 62.07835 56.56199
# Shear Modulus (GPa) = 17.63244 20.80112 19.21678
#
# Velocity S-wave (km/s) = 3.33257 3.61965 3.47907
# Velocity P-wave (km/s) = 6.85272 7.52130 7.19478
#
# Compressibility (1/GPa) = 0.01959031
#
# Stress axis : x y z
#
# Youngs Moduli (GPa) = 69.23429 95.59466 44.47099
#
# Poissons Ratio (x) = 0.48837 0.26386
# Poissons Ratio (y) = 0.35370 0.12711
# Poissons Ratio (z) = 0.41079 0.27323
#
# Static dielectric constant tensor:
#      x y z
#    x 2.848440 0.000000 0.000000 
#    y 0.000000 3.547830 0.000000 
#    z 0.000000 0.000000 2.625680 
# 
# 
# High freq. dielectric constant tensor:
#      x y z
#    x 1.592680 0.000000 0.000000 
#    y 0.000000 1.627650 0.000000 
#    z 0.000000 0.000000 1.560230 
# 
# From -- ./inp_files/53316.got.cif
#   From: 2010.03.12/outbox.cif.g09.slc.cpg/sg63_27_cif.got.tgz:53316.got - 2010.04.10 19:34:48.
