data_PCOD8255991
_publ_section_title
;
Structure prediction by ZEFSAII (Michael W. Deem and Ramdas Pophale) SiO2 
 PCOD8255991
Probable space group: C M C M
;
_chemical_formula_sum "Si O2"
_cell_formula_units_Z 80
_cell_length_a 7.695260
_cell_length_b 20.684382
_cell_length_c 27.974566
_cell_angle_alpha 90.000000
_cell_angle_beta 90.000000
_cell_angle_gamma 90.000000
_cell_volume 4452.759155
_symmetry_space_group_name_H-M "C M C M"
_symmetry_group_IT_number 63
_symmetry_cell_setting 'orthorhombic'
loop_
_space_group_symop_operation_xyz
x,y,z
-x,-y,1/2+z
x,-y,-z
-x,y,1/2-z
-x,-y,-z
x,y,1/2-z
-x,y,z
x,-y,1/2+z
1/2+x,1/2+y,z
1/2-x,1/2-y,1/2+z
1/2+x,1/2-y,-z
1/2-x,1/2+y,1/2-z
1/2-x,1/2-y,-z
1/2+x,1/2+y,1/2-z
1/2-x,1/2+y,z
1/2+x,1/2-y,1/2+z
loop_
_atom_site_type_symbol
_atom_site_label
_atom_site_fract_x
_atom_site_fract_y
_atom_site_fract_z
Si Si1 0.295707 0.309567 0.533024
Si Si2 0.000000 0.394138 0.303579
Si Si3 0.200837 0.108109 0.874007
Si Si4 0.793992 0.934042 0.477808
Si Si5 0.307847 0.758388 0.630955
Si Si6 0.500000 0.259210 0.697138
O O1 0.500000 0.313563 0.541523
O O2 0.250000 0.250000 0.500000
O O3 0.220407 0.374186 0.508423
O O4 0.203344 0.301938 0.583864
O O5 0.174366 0.416844 0.331390
O O6 0.000000 0.424220 0.250000
O O7 0.000000 0.317505 0.299637
O O8 0.260233 0.071915 0.922346
O O9 0.229202 0.184184 0.883299
O O10 0.000000 0.093019 0.860583
O O11 0.000000 0.932900 0.481207
O O12 0.716923 0.000000 0.500000
O O13 0.500000 0.765392 0.653255
O O14 0.171534 0.783838 0.669966
O O15 0.500000 0.289818 0.750000
#
# Coordination Sequence:
#
# PCOD8255991 Si02
#       6
#    16   8  16  16  16   8
#     4  11  19  29  49  74 102 139 173 209 248 303
#     4   9  18  30  47  71  99 128 165 212 256 305
#     4   9  17  30  48  69  99 135 163 204 255 300
#     4   9  18  32  49  72 105 139 173 208 253 303
#     4  10  18  30  47  73 102 130 170 208 248 306
#     4   9  18  32  48  71 102 132 164 210 265 305
#
# _framework density 17.966388999999999
#
# number of rings (size 3 to 8) (size 9 to 14) (size 15 to 20)
#    0.000    2.400    3.000    0.600    0.000    0.800 
#    1.800    4.500    0.000    0.000    0.000    1.400 
#    0.000    0.000    0.000    0.000    0.000    0.000 
#
# Total GULP energy -495930.150768 kJ/mol
# GULP energy per Si atom -12398.253769 kJ/mol
# Density = 1.792550 g / cm^3
# Si number density = 17.966389 Si / 1000 Ang^3
#
#
#
# Elastic Constant Matrix: (Units=GPa)
#
#
# Indices 1 2 3 4 5 6 
#
# 1 104.4520 20.1241 66.3598 0.0000 0.0000 0.0000
# 2 20.1241 77.0834 45.7568 0.0000 0.0000 0.0000
# 3 66.3598 45.7568 168.2512 0.0000 0.0000 0.0000
# 4 0.0000 0.0000 0.0000 16.0194 0.0000 0.0000
# 5 0.0000 0.0000 0.0000 0.0000 26.8327 0.0000
# 6 0.0000 0.0000 0.0000 0.0000 0.0000 10.2771
#
#
#
# Elastic Compliance Matrix: (Units=1/GPa)
#
#
# Indices 1 2 3 4 5 6 
#
# 1 0.012786 -0.000411 -0.004931 0.000000 0.000000 0.000000
# 2 -0.000411 0.015484 -0.004049 0.000000 0.000000 0.000000
# 3 -0.004931 -0.004049 0.008989 0.000000 0.000000 0.000000
# 4 0.000000 0.000000 0.000000 0.062424 0.000000 0.000000
# 5 0.000000 0.000000 0.000000 0.000000 0.037268 0.000000
# 6 0.000000 0.000000 0.000000 0.000000 0.000000 0.097303
#
#
# Mechanical properties :
#
#
# Convention : Reuss Voigt Hill
#
# Bulk Modulus (GPa) = 54.12047 68.25199 61.18623
# Shear Modulus (GPa) = 19.29050 25.12892 22.20971
#
# Velocity S-wave (km/s) = 3.28029 3.74393 3.51975
# Velocity P-wave (km/s) = 6.67350 7.53396 7.11675
#
# Compressibility (1/GPa) = 0.01847730
#
# Stress axis : x y z
#
# Youngs Moduli (GPa) = 78.21233 64.58451 111.24166
#
# Poissons Ratio (x) = 0.02654 0.54854
# Poissons Ratio (y) = 0.03213 0.45039
# Poissons Ratio (z) = 0.38567 0.26149
#
# Static dielectric constant tensor:
#      x y z
#    x 3.388720 0.000000 0.000000 
#    y 0.000000 3.091750 0.000000 
#    z 0.000000 0.000000 3.490580 
# 
# 
# High freq. dielectric constant tensor:
#      x y z
#    x 1.701820 0.000000 0.000000 
#    y 0.000000 1.642960 0.000000 
#    z 0.000000 0.000000 1.691990 
# 
# From -- ./inp_files/66701.got.cif
#   From: 2010.03.12/outbox.cif.g09.slc.cpg/sg63_34_cif.got.tgz:66701.got - 2010.04.10 19:34:48.
