data_PCOD8255327
_publ_section_title
;
Structure prediction by ZEFSAII (Michael W. Deem and Ramdas Pophale) SiO2 
 PCOD8255327
Probable space group: C M C M
;
_chemical_formula_sum "Si O2"
_cell_formula_units_Z 72
_cell_length_a 14.168505
_cell_length_b 17.784913
_cell_length_c 16.923893
_cell_angle_alpha 90.000000
_cell_angle_beta 90.000000
_cell_angle_gamma 90.000000
_cell_volume 4264.577819
_symmetry_space_group_name_H-M "C M C M"
_symmetry_group_IT_number 63
_symmetry_cell_setting 'orthorhombic'
loop_
_space_group_symop_operation_xyz
x,y,z
-x,-y,1/2+z
x,-y,-z
-x,y,1/2-z
-x,-y,-z
x,y,1/2-z
-x,y,z
x,-y,1/2+z
1/2+x,1/2+y,z
1/2-x,1/2-y,1/2+z
1/2+x,1/2-y,-z
1/2-x,1/2+y,1/2-z
1/2-x,1/2-y,-z
1/2+x,1/2+y,1/2-z
1/2-x,1/2+y,z
1/2+x,1/2-y,1/2+z
loop_
_atom_site_type_symbol
_atom_site_label
_atom_site_fract_x
_atom_site_fract_y
_atom_site_fract_z
Si Si1 0.296712 0.403154 0.338708
Si Si2 0.500000 0.622813 0.067666
Si Si3 0.685834 0.548510 0.423695
Si Si4 0.000000 0.275410 0.998892
Si Si5 0.203434 0.669648 0.986035
Si Si6 0.000000 0.858398 0.392821
O O1 0.262348 0.386141 0.250000
O O2 0.279253 0.491925 0.355662
O O3 0.233577 0.355043 0.398499
O O4 0.406974 0.381115 0.344822
O O5 0.406861 0.590826 0.109490
O O6 0.500000 0.403676 0.024467
O O7 0.500000 0.713926 0.070085
O O8 0.658886 0.500000 0.500000
O O9 0.763252 0.610776 0.447156
O O10 0.000000 0.231268 0.914225
O O11 0.090941 0.328029 0.007090
O O12 0.250000 0.750000 0.000000
#
# Coordination Sequence:
#
# PCOD8255327 Si02
#       6
#    16   8  16   8  16   8
#     4  11  22  34  52  82 113 143 176 223 282 323
#     4  10  14  27  56  81 106 125 172 225 266 313
#     4  10  17  30  53  76 105 138 172 214 261 315
#     4  10  18  31  57  88 102 128 193 227 258 313
#     4  11  18  35  58  79 105 143 183 222 263 319
#     4  10  16  31  57  83 110 133 169 237 275 320
#
# _framework density 16.883265000000002
#
# number of rings (size 3 to 8) (size 9 to 14) (size 15 to 20)
#    0.667    0.889    8.889    1.333    0.000    0.000 
#    0.000    6.667    0.000    1.333    0.000    0.000 
#    0.000    0.000    0.000    0.000    0.000    0.000 
#
# Total GULP energy -446171.559868 kJ/mol
# GULP energy per Si atom -12393.654441 kJ/mol
# Density = 1.684484 g / cm^3
# Si number density = 16.883265 Si / 1000 Ang^3
#
#
#
# Elastic Constant Matrix: (Units=GPa)
#
#
# Indices 1 2 3 4 5 6 
#
# 1 137.2663 64.9272 28.9493 0.0000 0.0000 0.0000
# 2 64.9272 109.6793 39.1819 0.0000 0.0000 0.0000
# 3 28.9493 39.1819 84.1274 0.0000 0.0000 0.0000
# 4 0.0000 0.0000 0.0000 15.7733 0.0000 0.0000
# 5 0.0000 0.0000 0.0000 0.0000 10.4477 0.0000
# 6 0.0000 0.0000 0.0000 0.0000 0.0000 35.3973
#
#
#
# Elastic Compliance Matrix: (Units=1/GPa)
#
#
# Indices 1 2 3 4 5 6 
#
# 1 0.010167 -0.005720 -0.000834 0.000000 0.000000 0.000000
# 2 -0.005720 0.014156 -0.004625 0.000000 0.000000 0.000000
# 3 -0.000834 -0.004625 0.014328 0.000000 0.000000 0.000000
# 4 0.000000 0.000000 0.000000 0.063398 0.000000 0.000000
# 5 0.000000 0.000000 0.000000 0.000000 0.095715 0.000000
# 6 0.000000 0.000000 0.000000 0.000000 0.000000 0.028251
#
#
# Mechanical properties :
#
#
# Convention : Reuss Voigt Hill
#
# Bulk Modulus (GPa) = 61.38030 66.35442 63.86736
# Shear Modulus (GPa) = 19.70027 25.52464 22.61245
#
# Velocity S-wave (km/s) = 3.41963 3.89244 3.66367
# Velocity P-wave (km/s) = 7.21293 7.71937 7.47045
#
# Compressibility (1/GPa) = 0.01629187
#
# Stress axis : x y z
#
# Youngs Moduli (GPa) = 98.35896 70.64176 69.79493
#
# Poissons Ratio (x) = 0.40410 0.05823
# Poissons Ratio (y) = 0.56266 0.32277
# Poissons Ratio (z) = 0.08206 0.32669
#
# Static dielectric constant tensor:
#      x y z
#    x 3.104770 0.000000 0.000000 
#    y 0.000000 3.343030 0.000000 
#    z 0.000000 0.000000 2.850480 
# 
# 
# High freq. dielectric constant tensor:
#      x y z
#    x 1.642290 0.000000 0.000000 
#    y 0.000000 1.655400 0.000000 
#    z 0.000000 0.000000 1.606510 
# 
# From -- ./inp_files/41935.got.cif
#   From: 2010.03.12/outbox.cif.g09.slc.cpg/sg63_21_cif.got.tgz:41935.got - 2010.04.10 19:34:48.
