data_PCOD8255492
_publ_section_title
;
Structure prediction by ZEFSAII (Michael W. Deem and Ramdas Pophale) SiO2 
 PCOD8255492
Probable space group: C M C M
;
_chemical_formula_sum "Si O2"
_cell_formula_units_Z 80
_cell_length_a 16.643555
_cell_length_b 21.125917
_cell_length_c 14.112502
_cell_angle_alpha 90.000000
_cell_angle_beta 90.000000
_cell_angle_gamma 90.000000
_cell_volume 4962.101930
_symmetry_space_group_name_H-M "C M C M"
_symmetry_group_IT_number 63
_symmetry_cell_setting 'orthorhombic'
loop_
_space_group_symop_operation_xyz
x,y,z
-x,-y,1/2+z
x,-y,-z
-x,y,1/2-z
-x,-y,-z
x,y,1/2-z
-x,y,z
x,-y,1/2+z
1/2+x,1/2+y,z
1/2-x,1/2-y,1/2+z
1/2+x,1/2-y,-z
1/2-x,1/2+y,1/2-z
1/2-x,1/2-y,-z
1/2+x,1/2+y,1/2-z
1/2-x,1/2+y,z
1/2+x,1/2-y,1/2+z
loop_
_atom_site_type_symbol
_atom_site_label
_atom_site_fract_x
_atom_site_fract_y
_atom_site_fract_z
Si Si1 0.593365 0.768140 0.854575
Si Si2 0.908909 0.925635 0.011966
Si Si3 0.674169 0.787401 0.035261
Si Si4 0.798237 0.143786 0.856489
Si Si5 0.405509 0.674463 0.144273
O O1 0.608383 0.799344 0.750000
O O2 0.500000 0.751926 0.867564
O O3 0.643677 0.704172 0.863161
O O4 0.623006 0.811818 0.942993
O O5 0.879663 0.885863 0.919612
O O6 0.000000 0.904981 0.038378
O O7 0.846757 0.912916 0.095917
O O8 0.905243 0.000000 0.000000
O O9 0.710466 0.845880 0.095087
O O10 0.622145 0.741057 0.100728
O O11 0.750000 0.750000 0.000000
O O12 0.779990 0.123744 0.750000
O O13 0.368036 0.666375 0.250000
O O14 0.500000 0.677293 0.152312
#
# Coordination Sequence:
#
# PCOD8255492 Si02
#       5
#    16  16  16  16  16
#     4   9  16  26  43  66  90 118 150 181 220 270
#     4  10  20  33  47  65  90 124 166 198 221 257
#     4  10  17  28  44  65  91 120 149 187 233 280
#     4  10  19  30  45  66  90 121 156 192 232 271
#     4  10  19  31  46  65  92 124 154 186 227 275
#
# _framework density 16.122199999999999
#
# number of rings (size 3 to 8) (size 9 to 14) (size 15 to 20)
#    0.000    2.200    4.000    1.800    0.000    2.800 
#    0.000    2.000    0.000    0.000    0.000    0.000 
#    0.000    3.200    0.000    4.800    0.000    0.000 
#
# Total GULP energy -495571.327249 kJ/mol
# GULP energy per Si atom -12389.283181 kJ/mol
# Density = 1.608550 g / cm^3
# Si number density = 16.122200 Si / 1000 Ang^3
#
#
#
# Elastic Constant Matrix: (Units=GPa)
#
#
# Indices 1 2 3 4 5 6 
#
# 1 48.1226 19.7760 50.6922 0.0000 0.0000 0.0000
# 2 19.7760 44.8593 35.4850 0.0000 0.0000 0.0000
# 3 50.6922 35.4850 150.1600 0.0000 0.0000 0.0000
# 4 0.0000 0.0000 0.0000 11.3735 0.0000 0.0000
# 5 0.0000 0.0000 0.0000 0.0000 30.8323 0.0000
# 6 0.0000 0.0000 0.0000 0.0000 0.0000 22.9178
#
#
#
# Elastic Compliance Matrix: (Units=1/GPa)
#
#
# Indices 1 2 3 4 5 6 
#
# 1 0.034080 -0.007285 -0.009783 0.000000 0.000000 0.000000
# 2 -0.007285 0.028974 -0.004388 0.000000 0.000000 0.000000
# 3 -0.009783 -0.004388 0.010999 0.000000 0.000000 0.000000
# 4 0.000000 0.000000 0.000000 0.087924 0.000000 0.000000
# 5 0.000000 0.000000 0.000000 0.000000 0.032434 0.000000
# 6 0.000000 0.000000 0.000000 0.000000 0.000000 0.043634
#
#
# Mechanical properties :
#
#
# Convention : Reuss Voigt Hill
#
# Bulk Modulus (GPa) = 32.11188 50.56092 41.33640
# Shear Modulus (GPa) = 17.16225 22.17064 19.66644
#
# Velocity S-wave (km/s) = 3.26622 3.71234 3.49640
# Velocity P-wave (km/s) = 5.84682 7.05723 6.48035
#
# Compressibility (1/GPa) = 0.03114112
#
# Stress axis : x y z
#
# Youngs Moduli (GPa) = 29.34295 34.51339 90.91579
#
# Poissons Ratio (x) = 0.25143 0.88946
# Poissons Ratio (y) = 0.21376 0.39891
# Poissons Ratio (z) = 0.28707 0.15144
#
# Static dielectric constant tensor:
#      x y z
#    x 3.274510 0.000000 0.000000 
#    y 0.000000 2.620170 0.000000 
#    z 0.000000 0.000000 3.928900 
# 
# 
# High freq. dielectric constant tensor:
#      x y z
#    x 1.616170 0.000000 0.000000 
#    y 0.000000 1.553430 0.000000 
#    z 0.000000 0.000000 1.645040 
# 
# From -- ./inp_files/31622.got.cif
#   From: 2010.03.12/outbox.cif.g09.slc.cpg/sg63_16_cif.got.tgz:31622.got - 2010.04.10 19:34:48.
