data_PCOD8255376
_publ_section_title
;
Structure prediction by ZEFSAII (Michael W. Deem and Ramdas Pophale) SiO2 
 PCOD8255376
Probable space group: C M C M
;
_chemical_formula_sum "Si O2"
_cell_formula_units_Z 104
_cell_length_a 18.886325
_cell_length_b 14.679800
_cell_length_c 21.587353
_cell_angle_alpha 90.000000
_cell_angle_beta 90.000000
_cell_angle_gamma 90.000000
_cell_volume 5985.039084
_symmetry_space_group_name_H-M "C M C M"
_symmetry_group_IT_number 63
_symmetry_cell_setting 'orthorhombic'
loop_
_space_group_symop_operation_xyz
x,y,z
-x,-y,1/2+z
x,-y,-z
-x,y,1/2-z
-x,-y,-z
x,y,1/2-z
-x,y,z
x,-y,1/2+z
1/2+x,1/2+y,z
1/2-x,1/2-y,1/2+z
1/2+x,1/2-y,-z
1/2-x,1/2+y,1/2-z
1/2-x,1/2-y,-z
1/2+x,1/2+y,1/2-z
1/2-x,1/2+y,z
1/2+x,1/2-y,1/2+z
loop_
_atom_site_type_symbol
_atom_site_label
_atom_site_fract_x
_atom_site_fract_y
_atom_site_fract_z
Si Si1 0.225604 0.219835 0.401963
Si Si2 0.422694 0.707257 0.615509
Si Si3 0.642735 0.797316 0.507065
Si Si4 0.775443 0.533026 0.372342
Si Si5 0.079511 0.396635 0.677765
Si Si6 0.328472 0.000000 0.000000
Si Si7 0.294115 0.364875 0.179083
O O1 0.288750 0.215428 0.450699
O O2 0.154986 0.250543 0.439647
O O3 0.223322 0.120681 0.369946
O O4 0.238936 0.291190 0.347160
O O5 0.500000 0.662706 0.623245
O O6 0.418151 0.743477 0.544272
O O7 0.411754 0.790658 0.662645
O O8 0.364571 0.633185 0.636072
O O9 0.625164 0.906102 0.501905
O O10 0.858401 0.550079 0.357329
O O11 0.775891 0.491314 0.441394
O O12 0.742356 0.463132 0.323944
O O13 0.090675 0.411678 0.750000
O O14 0.000000 0.429926 0.657740
O O15 0.312547 0.342260 0.250000
#
# Coordination Sequence:
#
# PCOD8255376 Si02
#       7
#    16  16  16  16  16   8  16
#     4   9  18  31  49  71 104 134 173 215 259 310
#     4  10  20  34  52  78 107 136 172 218 272 323
#     4   9  16  31  49  72 101 137 171 212 265 311
#     4  11  20  32  51  78 103 138 179 220 257 315
#     4  10  19  32  49  70 105 143 165 199 261 322
#     4  10  16  28  51  74 101 130 168 216 264 300
#     4  11  21  32  52  78 106 141 179 219 266 317
#
# _framework density 17.376660999999999
#
# number of rings (size 3 to 8) (size 9 to 14) (size 15 to 20)
#    0.000    2.000    6.154    0.923    2.154    1.538 
#    0.000    1.538    0.000    1.846    0.000    0.000 
#    0.000    0.000    0.000    0.000    0.000    0.000 
#
# Total GULP energy -644374.552463 kJ/mol
# GULP energy per Si atom -12391.818317 kJ/mol
# Density = 1.733711 g / cm^3
# Si number density = 17.376661 Si / 1000 Ang^3
#
#
#
# Elastic Constant Matrix: (Units=GPa)
#
#
# Indices 1 2 3 4 5 6 
#
# 1 68.1135 29.3221 29.3877 0.0000 0.0000 0.0000
# 2 29.3221 85.4349 31.0780 0.0000 0.0000 0.0000
# 3 29.3877 31.0780 82.6663 0.0000 0.0000 0.0000
# 4 0.0000 0.0000 0.0000 20.0714 0.0000 0.0000
# 5 0.0000 0.0000 0.0000 0.0000 16.8994 0.0000
# 6 0.0000 0.0000 0.0000 0.0000 0.0000 19.5573
#
#
#
# Elastic Compliance Matrix: (Units=1/GPa)
#
#
# Indices 1 2 3 4 5 6 
#
# 1 0.018819 -0.004663 -0.004937 0.000000 0.000000 0.000000
# 2 -0.004663 0.014714 -0.003874 0.000000 0.000000 0.000000
# 3 -0.004937 -0.003874 0.015308 0.000000 0.000000 0.000000
# 4 0.000000 0.000000 0.000000 0.049822 0.000000 0.000000
# 5 0.000000 0.000000 0.000000 0.000000 0.059174 0.000000
# 6 0.000000 0.000000 0.000000 0.000000 0.000000 0.051132
#
#
# Mechanical properties :
#
#
# Convention : Reuss Voigt Hill
#
# Bulk Modulus (GPa) = 45.67578 46.19890 45.93734
# Shear Modulus (GPa) = 20.55791 21.06741 20.81266
#
# Velocity S-wave (km/s) = 3.44332 3.48573 3.46459
# Velocity P-wave (km/s) = 6.49241 6.54560 6.51906
#
# Compressibility (1/GPa) = 0.02189344
#
# Stress axis : x y z
#
# Youngs Moduli (GPa) = 53.13831 67.96044 65.32349
#
# Poissons Ratio (x) = 0.31689 0.32251
# Poissons Ratio (y) = 0.24778 0.25307
# Poissons Ratio (z) = 0.26235 0.26329
#
# Static dielectric constant tensor:
#      x y z
#    x 3.146350 0.000000 0.000000 
#    y 0.000000 3.226200 0.000000 
#    z 0.000000 0.000000 3.412680 
# 
# 
# High freq. dielectric constant tensor:
#      x y z
#    x 1.631740 0.000000 0.000000 
#    y 0.000000 1.655390 0.000000 
#    z 0.000000 0.000000 1.676880 
# 
# From -- ./inp_files/56759.got.cif
#   From: 2010.03.12/outbox.cif.g09.slc.cpg/sg63_29_cif.got.tgz:56759.got - 2010.04.10 19:34:48.
