data_PCOD8255288
_publ_section_title
;
Structure prediction by ZEFSAII (Michael W. Deem and Ramdas Pophale) SiO2 
 PCOD8255288
Probable space group: P N M A
;
_chemical_formula_sum "Si O2"
_cell_formula_units_Z 40
_cell_length_a 15.786926
_cell_length_b 9.221429
_cell_length_c 15.872235
_cell_angle_alpha 90.000000
_cell_angle_beta 90.000000
_cell_angle_gamma 90.000000
_cell_volume 2310.648500
_symmetry_space_group_name_H-M "P N M A"
_symmetry_group_IT_number 62
_symmetry_cell_setting 'orthorhombic'
loop_
_space_group_symop_operation_xyz
x,y,z
1/2-x,-y,1/2+z
1/2+x,1/2-y,1/2-z
-x,1/2+y,-z
-x,-y,-z
1/2+x,y,1/2-z
1/2-x,1/2+y,1/2+z
x,1/2-y,z
loop_
_atom_site_type_symbol
_atom_site_label
_atom_site_fract_x
_atom_site_fract_y
_atom_site_fract_z
Si Si1 0.456943 0.081430 0.618532
Si Si2 0.452819 0.421245 0.811443
Si Si3 0.056405 0.918308 0.567266
Si Si4 0.373074 0.579389 0.471713
Si Si5 0.310157 0.083104 0.937263
O O1 0.440237 0.250000 0.602203
O O2 0.439191 0.038097 0.714565
O O3 0.553851 0.041035 0.595327
O O4 0.392127 0.992482 0.561543
O O5 0.466512 0.250000 0.824596
O O6 0.538492 0.502893 0.843453
O O7 0.372249 0.482410 0.865059
O O8 0.031016 0.750000 0.573418
O O9 0.152248 0.935949 0.532299
O O10 0.000000 0.000000 0.500000
O O11 0.365333 0.750000 0.487677
O O12 0.284147 0.514584 0.436300
O O13 0.301833 0.250000 0.913223
#
# Coordination Sequence:
#
# PCOD8255288 Si02
#       5
#     8   8   8   8   8
#     4   9  18  32  49  70  94 122 158 197 234 276
#     4   9  17  31  48  70  98 124 154 194 239 280
#     4   9  16  28  47  69  94 126 157 188 233 279
#     4   9  17  32  51  66  89 128 163 188 232 285
#     4   8  15  29  48  67  92 125 155 188 232 282
#
# _framework density 17.311157999999999
#
# number of rings (size 3 to 8) (size 9 to 14) (size 15 to 20)
#    0.000    3.200    0.000    1.800    0.000    0.800 
#    3.600    5.000    0.000    0.000    0.000    0.000 
#    0.000    0.000    0.000    0.000    0.000    0.000 
#
# Total GULP energy -495635.810549 kJ/mol
# GULP energy per Si atom -12390.895264 kJ/mol
# Density = 1.727176 g / cm^3
# Si number density = 17.311158 Si / 1000 Ang^3
#
#
#
# Elastic Constant Matrix: (Units=GPa)
#
#
# Indices 1 2 3 4 5 6 
#
# 1 110.6473 24.5545 58.8657 0.0000 0.0000 0.0000
# 2 24.5545 41.2628 34.5047 0.0000 0.0000 0.0000
# 3 58.8657 34.5047 125.0194 0.0000 0.0000 0.0000
# 4 0.0000 0.0000 0.0000 28.3048 0.0000 0.0000
# 5 0.0000 0.0000 0.0000 0.0000 16.9481 0.0000
# 6 0.0000 0.0000 0.0000 0.0000 0.0000 19.7122
#
#
#
# Elastic Compliance Matrix: (Units=1/GPa)
#
#
# Indices 1 2 3 4 5 6 
#
# 1 0.012383 -0.003241 -0.004936 0.000000 0.000000 0.000000
# 2 -0.003241 0.032355 -0.007404 0.000000 0.000000 0.000000
# 3 -0.004936 -0.007404 0.012366 0.000000 0.000000 0.000000
# 4 0.000000 0.000000 0.000000 0.035330 0.000000 0.000000
# 5 0.000000 0.000000 0.000000 0.000000 0.059004 0.000000
# 6 0.000000 0.000000 0.000000 0.000000 0.000000 0.050730
#
#
# Mechanical properties :
#
#
# Convention : Reuss Voigt Hill
#
# Bulk Modulus (GPa) = 38.54710 56.97549 47.76130
# Shear Modulus (GPa) = 20.66314 23.59330 22.12822
#
# Velocity S-wave (km/s) = 3.45865 3.69575 3.57916
# Velocity P-wave (km/s) = 6.18589 7.15510 6.68807
#
# Compressibility (1/GPa) = 0.02594229
#
# Stress axis : x y z
#
# Youngs Moduli (GPa) = 80.75558 30.90737 80.86534
#
# Poissons Ratio (x) = 0.10018 0.39915
# Poissons Ratio (y) = 0.26175 0.59869
# Poissons Ratio (z) = 0.39861 0.22882
#
# Static dielectric constant tensor:
#      x y z
#    x 3.545940 0.000000 0.000000 
#    y 0.000000 3.189760 0.000000 
#    z 0.000000 0.000000 3.534490 
# 
# 
# High freq. dielectric constant tensor:
#      x y z
#    x 1.661180 0.000000 0.000000 
#    y 0.000000 1.649720 0.000000 
#    z 0.000000 0.000000 1.659790 
# 
# From -- ./inp_files/18615.got.cif
#   From: 2010.03.12/outbox.cif.g09.slc.cpg/sg62_10_cif.got.tgz:18615.got - 2010.04.10 19:12:36.
