data_PCOD8255294
_publ_section_title
;
Structure prediction by ZEFSAII (Michael W. Deem and Ramdas Pophale) SiO2 
 PCOD8255294
Probable space group: P N M A
;
_chemical_formula_sum "Si O2"
_cell_formula_units_Z 48
_cell_length_a 16.760885
_cell_length_b 9.327156
_cell_length_c 16.934968
_cell_angle_alpha 90.000000
_cell_angle_beta 90.000000
_cell_angle_gamma 90.000000
_cell_volume 2647.467072
_symmetry_space_group_name_H-M "P N M A"
_symmetry_group_IT_number 62
_symmetry_cell_setting 'orthorhombic'
loop_
_space_group_symop_operation_xyz
x,y,z
1/2-x,-y,1/2+z
1/2+x,1/2-y,1/2-z
-x,1/2+y,-z
-x,-y,-z
1/2+x,y,1/2-z
1/2-x,1/2+y,1/2+z
x,1/2-y,z
loop_
_atom_site_type_symbol
_atom_site_label
_atom_site_fract_x
_atom_site_fract_y
_atom_site_fract_z
Si Si1 0.431396 0.416882 0.597903
Si Si2 0.596824 0.583003 0.226341
Si Si3 0.881028 0.910923 0.486655
Si Si4 0.723945 0.585030 0.099276
Si Si5 0.605203 0.414940 0.551295
Si Si6 0.484671 0.411099 0.118434
O O1 0.421550 0.250000 0.580700
O O2 0.393198 0.458471 0.682079
O O3 0.525095 0.462072 0.597194
O O4 0.383680 0.499241 0.530107
O O5 0.574468 0.750000 0.216629
O O6 0.679451 0.545440 0.181206
O O7 0.523791 0.491606 0.192296
O O8 0.856004 0.750000 0.461305
O O9 0.953887 0.904515 0.546839
O O10 0.806587 0.988537 0.527291
O O11 0.906776 0.000308 0.409125
O O12 0.705887 0.750000 0.077507
O O13 0.818659 0.556377 0.108120
O O14 0.600408 0.250000 0.526827
O O15 0.459721 0.250000 0.143467
#
# Coordination Sequence:
#
# PCOD8255294 Si02
#       6
#     8   8   8   8   8   8
#     4   9  18  33  52  72  94 124 164 204 241 287
#     4   9  17  30  48  70  97 127 160 200 245 291
#     4   9  16  26  42  65  93 126 161 194 230 279
#     4   9  17  30  48  69  95 126 157 196 247 294
#     4   9  18  33  52  71  93 124 161 200 243 290
#     4   9  16  26  42  65  94 127 161 194 232 282
#
# _framework density 18.130537
#
# number of rings (size 3 to 8) (size 9 to 14) (size 15 to 20)
#    0.000    3.000    0.000    1.000    0.000    5.333 
#    0.000    1.667    0.000    4.000    0.000    0.000 
#    0.000    0.000    0.000    0.000    0.000    0.000 
#
# Total GULP energy -595061.416373 kJ/mol
# GULP energy per Si atom -12397.112841 kJ/mol
# Density = 1.808927 g / cm^3
# Si number density = 18.130537 Si / 1000 Ang^3
#
#
#
# Elastic Constant Matrix: (Units=GPa)
#
#
# Indices 1 2 3 4 5 6 
#
# 1 78.4678 28.3028 42.4259 0.0000 0.0000 0.0000
# 2 28.3028 75.2956 38.3992 0.0000 0.0000 0.0000
# 3 42.4259 38.3992 97.7745 0.0000 0.0000 0.0000
# 4 0.0000 0.0000 0.0000 26.5574 0.0000 0.0000
# 5 0.0000 0.0000 0.0000 0.0000 17.3429 0.0000
# 6 0.0000 0.0000 0.0000 0.0000 0.0000 22.0020
#
#
#
# Elastic Compliance Matrix: (Units=1/GPa)
#
#
# Indices 1 2 3 4 5 6 
#
# 1 0.017299 -0.003344 -0.006193 0.000000 0.000000 0.000000
# 2 -0.003344 0.017254 -0.005325 0.000000 0.000000 0.000000
# 3 -0.006193 -0.005325 0.015006 0.000000 0.000000 0.000000
# 4 0.000000 0.000000 0.000000 0.037654 0.000000 0.000000
# 5 0.000000 0.000000 0.000000 0.000000 0.057660 0.000000
# 6 0.000000 0.000000 0.000000 0.000000 0.000000 0.045450
#
#
# Mechanical properties :
#
#
# Convention : Reuss Voigt Hill
#
# Bulk Modulus (GPa) = 50.41732 52.19932 51.30832
# Shear Modulus (GPa) = 22.05959 22.67446 22.36702
#
# Velocity S-wave (km/s) = 3.49192 3.54025 3.51617
# Velocity P-wave (km/s) = 6.64277 6.75015 6.69667
#
# Compressibility (1/GPa) = 0.01983445
#
# Stress axis : x y z
#
# Youngs Moduli (GPa) = 57.80809 57.95871 66.63973
#
# Poissons Ratio (x) = 0.19382 0.41269
# Poissons Ratio (y) = 0.19332 0.35486
# Poissons Ratio (z) = 0.35799 0.30863
#
# Static dielectric constant tensor:
#      x y z
#    x 3.238180 0.000000 0.000000 
#    y 0.000000 3.494480 0.000000 
#    z 0.000000 0.000000 3.143120 
# 
# 
# High freq. dielectric constant tensor:
#      x y z
#    x 1.683660 0.000000 0.000000 
#    y 0.000000 1.706580 0.000000 
#    z 0.000000 0.000000 1.676490 
# 
# From -- ./inp_files/24189.got.cif
#   From: 2010.03.12/outbox.cif.g09.slc.cpg/sg62_13_cif.got.tgz:24189.got - 2010.04.10 19:12:36.
