data_PCOD8255793
_publ_section_title
;
Structure prediction by ZEFSAII (Michael W. Deem and Ramdas Pophale) SiO2 
 PCOD8255793
Probable space group: C M C M
;
_chemical_formula_sum "Si O2"
_cell_formula_units_Z 80
_cell_length_a 8.910589
_cell_length_b 33.180058
_cell_length_c 14.653687
_cell_angle_alpha 90.000000
_cell_angle_beta 90.000000
_cell_angle_gamma 90.000000
_cell_volume 4332.419122
_symmetry_space_group_name_H-M "C M C M"
_symmetry_group_IT_number 63
_symmetry_cell_setting 'orthorhombic'
loop_
_space_group_symop_operation_xyz
x,y,z
-x,-y,1/2+z
x,-y,-z
-x,y,1/2-z
-x,-y,-z
x,y,1/2-z
-x,y,z
x,-y,1/2+z
1/2+x,1/2+y,z
1/2-x,1/2-y,1/2+z
1/2+x,1/2-y,-z
1/2-x,1/2+y,1/2-z
1/2-x,1/2-y,-z
1/2+x,1/2+y,1/2-z
1/2-x,1/2+y,z
1/2+x,1/2-y,1/2+z
loop_
_atom_site_type_symbol
_atom_site_label
_atom_site_fract_x
_atom_site_fract_y
_atom_site_fract_z
Si Si1 0.178409 0.895093 0.985733
Si Si2 0.676285 0.189624 0.493861
Si Si3 0.176474 0.240450 0.644519
Si Si4 0.678332 0.552176 0.649476
Si Si5 0.177879 0.963452 0.647474
O O1 0.242691 0.927769 0.914401
O O2 0.000000 0.889258 0.978988
O O3 0.257895 0.853218 0.965942
O O4 0.230702 0.911967 0.083904
O O5 0.500000 0.186861 0.507444
O O6 0.745679 0.203858 0.590370
O O7 0.719091 0.218716 0.409316
O O8 0.233059 0.242775 0.750000
O O9 0.000000 0.232499 0.642334
O O10 0.742387 0.561743 0.750000
O O11 0.500000 0.550315 0.651992
O O12 0.735117 0.507913 0.616155
O O13 0.232048 0.955114 0.750000
O O14 0.000000 0.962473 0.639861
#
# Coordination Sequence:
#
# PCOD8255793 Si02
#       5
#    16  16  16  16  16
#     4  10  18  28  46  71  97 126 160 198 240 286
#     4  10  21  35  51  76 105 128 156 197 245 296
#     4   9  19  38  60  75  92 125 165 201 239 288
#     4   8  14  25  42  65  92 123 162 205 242 275
#     4   8  14  25  42  66  94 123 161 208 247 276
#
# _framework density 18.465433000000001
#
# number of rings (size 3 to 8) (size 9 to 14) (size 15 to 20)
#    0.000    3.000    0.000    2.400    0.000    5.200 
#    0.000    2.000    0.000    2.400    0.000    2.800 
#    0.000    0.000    0.000    0.000    0.000    0.000 
#
# Total GULP energy -495740.866341 kJ/mol
# GULP energy per Si atom -12393.521659 kJ/mol
# Density = 1.842340 g / cm^3
# Si number density = 18.465433 Si / 1000 Ang^3
#
#
#
# Elastic Constant Matrix: (Units=GPa)
#
#
# Indices 1 2 3 4 5 6 
#
# 1 19.5153 13.9816 14.5632 0.0000 0.0000 0.0000
# 2 13.9816 74.1054 11.0281 0.0000 0.0000 0.0000
# 3 14.5632 11.0281 79.9187 0.0000 0.0000 0.0000
# 4 0.0000 0.0000 0.0000 17.7768 0.0000 0.0000
# 5 0.0000 0.0000 0.0000 0.0000 14.8623 0.0000
# 6 0.0000 0.0000 0.0000 0.0000 0.0000 24.3176
#
#
#
# Elastic Compliance Matrix: (Units=1/GPa)
#
#
# Indices 1 2 3 4 5 6 
#
# 1 0.067173 -0.011080 -0.010712 0.000000 0.000000 0.000000
# 2 -0.011080 0.015605 -0.000134 0.000000 0.000000 0.000000
# 3 -0.010712 -0.000134 0.014483 0.000000 0.000000 0.000000
# 4 0.000000 0.000000 0.000000 0.056253 0.000000 0.000000
# 5 0.000000 0.000000 0.000000 0.000000 0.067284 0.000000
# 6 0.000000 0.000000 0.000000 0.000000 0.000000 0.041123
#
#
# Mechanical properties :
#
#
# Convention : Reuss Voigt Hill
#
# Bulk Modulus (GPa) = 18.72316 28.07614 23.39965
# Shear Modulus (GPa) = 15.45234 20.32245 17.88739
#
# Velocity S-wave (km/s) = 2.89593 3.32108 3.11576
# Velocity P-wave (km/s) = 4.61990 5.47209 5.06395
#
# Compressibility (1/GPa) = 0.05340979
#
# Stress axis : x y z
#
# Youngs Moduli (GPa) = 14.88687 64.08332 69.04556
#
# Poissons Ratio (x) = 0.71002 0.73960
# Poissons Ratio (y) = 0.16494 0.00928
# Poissons Ratio (z) = 0.15946 0.00861
#
# Static dielectric constant tensor:
#      x y z
#    x 2.905320 0.000000 0.000000 
#    y 0.000000 3.518440 0.000000 
#    z 0.000000 0.000000 3.776660 
# 
# 
# High freq. dielectric constant tensor:
#      x y z
#    x 1.664250 0.000000 0.000000 
#    y 0.000000 1.720970 0.000000 
#    z 0.000000 0.000000 1.724950 
# 
# From -- ./inp_files/30027.got.cif
#   From: 2010.03.12/outbox.cif.g09.slc.cpg/sg63_16_cif.got.tgz:30027.got - 2010.04.10 19:34:48.
