data_PCOD8255262
_publ_section_title
;
Structure prediction by ZEFSAII (Michael W. Deem and Ramdas Pophale) SiO2 
 PCOD8255262
Probable space group: P N M A
;
_chemical_formula_sum "Si O2"
_cell_formula_units_Z 48
_cell_length_a 9.227395
_cell_length_b 13.300787
_cell_length_c 18.047659
_cell_angle_alpha 90.000000
_cell_angle_beta 90.000000
_cell_angle_gamma 90.000000
_cell_volume 2215.018344
_symmetry_space_group_name_H-M "P N M A"
_symmetry_group_IT_number 62
_symmetry_cell_setting 'orthorhombic'
loop_
_space_group_symop_operation_xyz
x,y,z
1/2-x,-y,1/2+z
1/2+x,1/2-y,1/2-z
-x,1/2+y,-z
-x,-y,-z
1/2+x,y,1/2-z
1/2-x,1/2+y,1/2+z
x,1/2-y,z
loop_
_atom_site_type_symbol
_atom_site_label
_atom_site_fract_x
_atom_site_fract_y
_atom_site_fract_z
Si Si1 0.315655 0.459978 0.163680
Si Si2 0.790298 0.250000 0.121124
Si Si3 0.444340 0.250000 0.126423
Si Si4 0.046149 0.750000 0.033917
Si Si5 0.697010 0.750000 0.031689
Si Si6 0.056902 0.954842 0.422752
Si Si7 0.198538 0.539493 0.829759
Si Si8 0.553581 0.535091 0.419646
O O1 0.392208 0.350917 0.168226
O O2 0.423783 0.546977 0.134736
O O3 0.261035 0.490484 0.245673
O O4 0.182257 0.461176 0.105964
O O5 0.616113 0.250000 0.113921
O O6 0.848058 0.155700 0.167884
O O7 0.873787 0.250000 0.043983
O O8 0.363930 0.250000 0.049407
O O9 0.101747 0.848631 0.077141
O O10 0.871058 0.750000 0.028713
O O11 0.633666 0.652673 0.073174
O O12 0.170076 0.032353 0.387539
O O13 0.000000 0.000000 0.500000
O O14 0.070031 0.469063 0.857844
O O15 0.500000 0.500000 0.500000
#
# Coordination Sequence:
#
# PCOD8255262 Si02
#       8
#     8   4   4   4   4   8   8   8
#     4  12  27  45  71 105 148 188 235 296 371 426
#     4  12  25  41  75 103 147 179 238 299 353 433
#     4  12  25  43  71 105 141 185 233 295 361 433
#     4  12  26  45  72 110 132 183 247 300 350 417
#     4  12  24  45  74 106 138 181 246 298 348 419
#     4  12  24  46  74 104 141 191 242 293 354 430
#     4  12  25  47  68 107 146 187 234 298 366 428
#     4  12  25  45  73 103 141 185 240 296 348 431
#
# _framework density 21.670248999999998
#
# number of rings (size 3 to 8) (size 9 to 14) (size 15 to 20)
#    0.000    0.000    6.667    3.500    2.333    0.000 
#    0.000    5.000    0.000    0.000    0.000    0.000 
#    0.000    0.000    0.000    0.000    0.000    0.000 
#
# Total GULP energy -595119.225655 kJ/mol
# GULP energy per Si atom -12398.317201 kJ/mol
# Density = 2.162093 g / cm^3
# Si number density = 21.670249 Si / 1000 Ang^3
#
#
#
# Elastic Constant Matrix: (Units=GPa)
#
#
# Indices 1 2 3 4 5 6 
#
# 1 121.6721 30.7287 56.3974 0.0000 0.0000 0.0000
# 2 30.7287 112.4629 60.9476 0.0000 0.0000 0.0000
# 3 56.3974 60.9476 128.2621 0.0000 0.0000 0.0000
# 4 0.0000 0.0000 0.0000 25.4254 0.0000 0.0000
# 5 0.0000 0.0000 0.0000 0.0000 33.2329 0.0000
# 6 0.0000 0.0000 0.0000 0.0000 0.0000 31.0258
#
#
#
# Elastic Compliance Matrix: (Units=1/GPa)
#
#
# Indices 1 2 3 4 5 6 
#
# 1 0.010342 -0.000487 -0.004316 0.000000 0.000000 0.000000
# 2 -0.000487 0.011999 -0.005488 0.000000 0.000000 0.000000
# 3 -0.004316 -0.005488 0.012302 0.000000 0.000000 0.000000
# 4 0.000000 0.000000 0.000000 0.039331 0.000000 0.000000
# 5 0.000000 0.000000 0.000000 0.000000 0.030091 0.000000
# 6 0.000000 0.000000 0.000000 0.000000 0.000000 0.032231
#
#
# Mechanical properties :
#
#
# Convention : Reuss Voigt Hill
#
# Bulk Modulus (GPa) = 71.11382 73.17163 72.14272
# Shear Modulus (GPa) = 30.94744 32.22505 31.58624
#
# Velocity S-wave (km/s) = 3.78313 3.86043 3.82198
# Velocity P-wave (km/s) = 7.20905 7.32870 7.26912
#
# Compressibility (1/GPa) = 0.01406196
#
# Stress axis : x y z
#
# Youngs Moduli (GPa) = 96.68899 83.34235 81.28759
#
# Poissons Ratio (x) = 0.04057 0.35086
# Poissons Ratio (y) = 0.04706 0.44607
# Poissons Ratio (z) = 0.41734 0.45734
#
# Static dielectric constant tensor:
#      x y z
#    x 4.273560 0.000000 0.000000 
#    y 0.000000 9.641510 0.000000 
#    z 0.000000 0.000000 3.906580 
# 
# 
# High freq. dielectric constant tensor:
#      x y z
#    x 1.864710 0.000000 0.000000 
#    y 0.000000 1.854050 0.000000 
#    z 0.000000 0.000000 1.847530 
# 
# From -- ./inp_files/22276.got.cif
#   From: 2010.03.12/outbox.cif.g09.slc.cpg/sg62_12_cif.got.tgz:22276.got - 2010.04.10 19:12:36.
