data_PCOD8255431
_publ_section_title
;
Structure prediction by ZEFSAII (Michael W. Deem and Ramdas Pophale) SiO2 
 PCOD8255431
Probable space group: C M C M
;
_chemical_formula_sum "Si O2"
_cell_formula_units_Z 112
_cell_length_a 25.069598
_cell_length_b 14.110272
_cell_length_c 14.697197
_cell_angle_alpha 90.000000
_cell_angle_beta 90.000000
_cell_angle_gamma 90.000000
_cell_volume 5198.969517
_symmetry_space_group_name_H-M "C M C M"
_symmetry_group_IT_number 63
_symmetry_cell_setting 'orthorhombic'
loop_
_space_group_symop_operation_xyz
x,y,z
-x,-y,1/2+z
x,-y,-z
-x,y,1/2-z
-x,-y,-z
x,y,1/2-z
-x,y,z
x,-y,1/2+z
1/2+x,1/2+y,z
1/2-x,1/2-y,1/2+z
1/2+x,1/2-y,-z
1/2-x,1/2+y,1/2-z
1/2-x,1/2-y,-z
1/2+x,1/2+y,1/2-z
1/2-x,1/2+y,z
1/2+x,1/2-y,1/2+z
loop_
_atom_site_type_symbol
_atom_site_label
_atom_site_fract_x
_atom_site_fract_y
_atom_site_fract_z
Si Si1 0.442617 0.641471 0.388399
Si Si2 0.942702 0.241194 0.920507
Si Si3 0.410972 0.555628 0.851672
Si Si4 0.257458 0.934641 0.854491
Si Si5 0.667649 0.716148 0.150895
Si Si6 0.701161 0.622290 0.856555
Si Si7 0.328609 0.197728 0.457845
O O1 0.500000 0.663252 0.340481
O O2 0.440836 0.689849 0.484471
O O3 0.438811 0.528616 0.406922
O O4 0.392850 0.681663 0.332448
O O5 0.942753 0.155136 0.848455
O O6 0.889129 0.305036 0.916023
O O7 0.000000 0.297094 0.908328
O O8 0.405408 0.515744 0.750000
O O9 0.353131 0.576701 0.894411
O O10 0.276673 0.922095 0.750000
O O11 0.202987 0.876199 0.870834
O O12 0.302697 0.900682 0.925350
O O13 0.247687 0.046019 0.875571
O O14 0.685078 0.761467 0.250000
O O15 0.672086 0.791682 0.067935
O O16 0.696527 0.647546 0.750000
O O17 0.708968 0.719817 0.912679
#
# Coordination Sequence:
#
# PCOD8255431 Si02
#       7
#    16  16  16  16  16  16  16
#     4  10  18  28  43  62  89 130 174 208 248 302
#     4   9  19  31  42  64  97 129 167 212 247 294
#     4  10  17  26  40  61  91 130 164 197 246 296
#     4  10  19  34  53  72  99 132 171 221 267 310
#     4  10  20  33  47  68 100 135 174 223 263 298
#     4   9  18  32  50  74 103 131 170 218 259 307
#     4  10  20  33  54  75  98 141 181 209 263 322
#
# _framework density 21.542731
#
# number of rings (size 3 to 8) (size 9 to 14) (size 15 to 20)
#    0.000    2.286    1.429    2.143    0.000    4.286 
#    0.000    0.000    0.000    0.857    0.000    0.000 
#    0.000    1.143    0.000   13.714    0.000   18.286 
#
# Total GULP energy -693732.400866 kJ/mol
# GULP energy per Si atom -12388.078587 kJ/mol
# Density = 2.149370 g / cm^3
# Si number density = 21.542731 Si / 1000 Ang^3
#
#
#
# Elastic Constant Matrix: (Units=GPa)
#
#
# Indices 1 2 3 4 5 6 
#
# 1 101.0771 33.5102 27.7349 0.0000 0.0000 0.0000
# 2 33.5102 40.6277 27.0213 0.0000 0.0000 0.0000
# 3 27.7349 27.0213 73.8800 0.0000 0.0000 0.0000
# 4 0.0000 0.0000 0.0000 10.3489 0.0000 0.0000
# 5 0.0000 0.0000 0.0000 0.0000 13.4185 0.0000
# 6 0.0000 0.0000 0.0000 0.0000 0.0000 19.5464
#
#
#
# Elastic Compliance Matrix: (Units=1/GPa)
#
#
# Indices 1 2 3 4 5 6 
#
# 1 0.013716 -0.010424 -0.001336 0.000000 0.000000 0.000000
# 2 -0.010424 0.040449 -0.010881 0.000000 0.000000 0.000000
# 3 -0.001336 -0.010881 0.018017 0.000000 0.000000 0.000000
# 4 0.000000 0.000000 0.000000 0.096628 0.000000 0.000000
# 5 0.000000 0.000000 0.000000 0.000000 0.074524 0.000000
# 6 0.000000 0.000000 0.000000 0.000000 0.000000 0.051160
#
#
# Mechanical properties :
#
#
# Convention : Reuss Voigt Hill
#
# Bulk Modulus (GPa) = 37.17656 43.56862 40.37259
# Shear Modulus (GPa) = 14.33721 17.15066 15.74394
#
# Velocity S-wave (km/s) = 2.58257 2.82463 2.70631
# Velocity P-wave (km/s) = 5.11737 5.55933 5.34293
#
# Compressibility (1/GPa) = 0.02689867
#
# Stress axis : x y z
#
# Youngs Moduli (GPa) = 72.90677 24.72279 55.50418
#
# Poissons Ratio (x) = 0.25772 0.07418
# Poissons Ratio (y) = 0.76001 0.60391
# Poissons Ratio (z) = 0.09743 0.26900
#
# Static dielectric constant tensor:
#      x y z
#    x 6.390000 0.000000 0.000000 
#    y 0.000000 3.388360 0.000000 
#    z 0.000000 0.000000 3.984700 
# 
# 
# High freq. dielectric constant tensor:
#      x y z
#    x 1.850590 0.000000 0.000000 
#    y 0.000000 1.779760 0.000000 
#    z 0.000000 0.000000 1.853860 
# 
# From -- ./inp_files/37920.got.cif
#   From: 2010.03.12/outbox.cif.g09.slc.cpg/sg63_19_cif.got.tgz:37920.got - 2010.04.10 19:34:48.
