data_PCOD8255419
_publ_section_title
;
Structure prediction by ZEFSAII (Michael W. Deem and Ramdas Pophale) SiO2 
 PCOD8255419
Probable space group: C M C M
;
_chemical_formula_sum "Si O2"
_cell_formula_units_Z 112
_cell_length_a 21.897186
_cell_length_b 17.264036
_cell_length_c 19.100413
_cell_angle_alpha 90.000000
_cell_angle_beta 90.000000
_cell_angle_gamma 90.000000
_cell_volume 7220.601849
_symmetry_space_group_name_H-M "C M C M"
_symmetry_group_IT_number 63
_symmetry_cell_setting 'orthorhombic'
loop_
_space_group_symop_operation_xyz
x,y,z
-x,-y,1/2+z
x,-y,-z
-x,y,1/2-z
-x,-y,-z
x,y,1/2-z
-x,y,z
x,-y,1/2+z
1/2+x,1/2+y,z
1/2-x,1/2-y,1/2+z
1/2+x,1/2-y,-z
1/2-x,1/2+y,1/2-z
1/2-x,1/2-y,-z
1/2+x,1/2+y,1/2-z
1/2-x,1/2+y,z
1/2+x,1/2-y,1/2+z
loop_
_atom_site_type_symbol
_atom_site_label
_atom_site_fract_x
_atom_site_fract_y
_atom_site_fract_z
Si Si1 0.645645 0.549553 0.330460
Si Si2 0.715416 0.005357 0.169152
Si Si3 0.695455 0.864718 0.567046
Si Si4 0.070926 0.903018 0.331867
Si Si5 0.208069 0.353735 0.409022
Si Si6 0.832890 0.188758 0.079780
Si Si7 0.154445 0.200559 0.577171
O O1 0.636108 0.569234 0.250000
O O2 0.712706 0.515417 0.345231
O O3 0.597763 0.485417 0.356850
O O4 0.631098 0.630083 0.369850
O O5 0.698783 0.021456 0.250000
O O6 0.678972 0.064777 0.118927
O O7 0.694586 0.918675 0.149155
O O8 0.690832 0.888486 0.485402
O O9 0.763020 0.835104 0.580170
O O10 0.650931 0.793468 0.585566
O O11 0.083940 0.890816 0.250000
O O12 0.103388 0.833749 0.372475
O O13 0.000000 0.901397 0.350091
O O14 0.165640 0.278294 0.394054
O O15 0.279092 0.331925 0.403736
O O16 0.861583 0.179739 0.002929
#
# Coordination Sequence:
#
# PCOD8255419 Si02
#       7
#    16  16  16  16  16  16  16
#     4   9  17  29  40  55  84 115 141 175 218 254
#     4  10  17  24  38  62  87 112 142 170 204 259
#     4   8  16  27  40  59  83 113 140 169 213 260
#     4  10  20  32  45  61  84 117 153 184 216 253
#     4   9  15  26  42  60  84 112 141 171 211 260
#     4   8  16  27  42  61  79 108 145 175 209 257
#     4   9  16  29  44  58  81 111 145 180 213 252
#
# _framework density 15.511172999999999
#
# number of rings (size 3 to 8) (size 9 to 14) (size 15 to 20)
#    0.000    3.000    1.429    2.143    0.000    1.714 
#    0.000    4.286    0.000    0.000    0.000    0.000 
#    0.000   10.286    0.000    5.429    0.000    0.000 
#
# Total GULP energy -694112.704481 kJ/mol
# GULP energy per Si atom -12394.869723 kJ/mol
# Density = 1.547587 g / cm^3
# Si number density = 15.511173 Si / 1000 Ang^3
#
#
#
# Elastic Constant Matrix: (Units=GPa)
#
#
# Indices 1 2 3 4 5 6 
#
# 1 42.3171 29.6593 26.4012 0.0000 0.0000 0.0000
# 2 29.6593 99.6128 50.8365 0.0000 0.0000 0.0000
# 3 26.4012 50.8365 66.3955 0.0000 0.0000 0.0000
# 4 0.0000 0.0000 0.0000 32.0139 0.0000 0.0000
# 5 0.0000 0.0000 0.0000 0.0000 15.5118 0.0000
# 6 0.0000 0.0000 0.0000 0.0000 0.0000 13.4192
#
#
#
# Elastic Compliance Matrix: (Units=1/GPa)
#
#
# Indices 1 2 3 4 5 6 
#
# 1 0.032950 -0.005128 -0.009176 0.000000 0.000000 0.000000
# 2 -0.005128 0.017275 -0.011188 0.000000 0.000000 0.000000
# 3 -0.009176 -0.011188 0.027276 0.000000 0.000000 0.000000
# 4 0.000000 0.000000 0.000000 0.031236 0.000000 0.000000
# 5 0.000000 0.000000 0.000000 0.000000 0.064467 0.000000
# 6 0.000000 0.000000 0.000000 0.000000 0.000000 0.074520
#
#
# Mechanical properties :
#
#
# Convention : Reuss Voigt Hill
#
# Bulk Modulus (GPa) = 37.71041 46.90214 42.30628
# Shear Modulus (GPa) = 16.25765 18.95088 17.60427
#
# Velocity S-wave (km/s) = 3.24099 3.49916 3.37254
# Velocity P-wave (km/s) = 6.19434 6.82852 6.51915
#
# Compressibility (1/GPa) = 0.02651788
#
# Stress axis : x y z
#
# Youngs Moduli (GPa) = 30.34916 57.88569 36.66206
#
# Poissons Ratio (x) = 0.29683 0.33640
# Poissons Ratio (y) = 0.15563 0.41018
# Poissons Ratio (z) = 0.27848 0.64763
#
# Static dielectric constant tensor:
#      x y z
#    x 2.482760 0.000000 0.000000 
#    y 0.000000 3.342300 0.000000 
#    z 0.000000 0.000000 3.060330 
# 
# 
# High freq. dielectric constant tensor:
#      x y z
#    x 1.526180 0.000000 0.000000 
#    y 0.000000 1.605180 0.000000 
#    z 0.000000 0.000000 1.598410 
# 
# From -- ./inp_files/47340.got.cif
#   From: 2010.03.12/outbox.cif.g09.slc.cpg/sg63_24_cif.got.tgz:47340.got - 2010.04.10 19:34:48.
