data_PCOD8255831
_publ_section_title
;
Structure prediction by ZEFSAII (Michael W. Deem and Ramdas Pophale) SiO2 
 PCOD8255831
Probable space group: C M C M
;
_chemical_formula_sum "Si O2"
_cell_formula_units_Z 96
_cell_length_a 16.814182
_cell_length_b 18.828743
_cell_length_c 16.922303
_cell_angle_alpha 90.000000
_cell_angle_beta 90.000000
_cell_angle_gamma 90.000000
_cell_volume 5357.430411
_symmetry_space_group_name_H-M "C M C M"
_symmetry_group_IT_number 63
_symmetry_cell_setting 'orthorhombic'
loop_
_space_group_symop_operation_xyz
x,y,z
-x,-y,1/2+z
x,-y,-z
-x,y,1/2-z
-x,-y,-z
x,y,1/2-z
-x,y,z
x,-y,1/2+z
1/2+x,1/2+y,z
1/2-x,1/2-y,1/2+z
1/2+x,1/2-y,-z
1/2-x,1/2+y,1/2-z
1/2-x,1/2-y,-z
1/2+x,1/2+y,1/2-z
1/2-x,1/2+y,z
1/2+x,1/2-y,1/2+z
loop_
_atom_site_type_symbol
_atom_site_label
_atom_site_fract_x
_atom_site_fract_y
_atom_site_fract_z
Si Si1 0.766286 0.616926 0.156941
Si Si2 0.838955 0.241836 0.343899
Si Si3 0.193261 0.398910 0.156268
Si Si4 0.000000 0.010595 0.092121
Si Si5 0.171519 0.987400 0.093124
Si Si6 0.000000 0.832902 0.656342
Si Si7 0.088481 0.469377 0.843932
O O1 0.773181 0.622472 0.250000
O O2 0.733379 0.691984 0.123339
O O3 0.702758 0.556525 0.137890
O O4 0.853546 0.593785 0.123586
O O5 0.836439 0.243378 0.250000
O O6 0.829637 0.321477 0.376853
O O7 0.923347 0.211396 0.371888
O O8 0.204453 0.399620 0.250000
O O9 0.276829 0.418990 0.116060
O O10 0.124897 0.454586 0.130291
O O11 0.918873 0.974620 0.124488
O O12 0.000000 0.093639 0.110706
O O13 0.000000 0.000000 0.000000
O O14 0.175206 0.000000 0.000000
O O15 0.000000 0.846747 0.750000
O O16 0.083687 0.466183 0.750000
O O17 0.000000 0.460782 0.880532
#
# Coordination Sequence:
#
# PCOD8255831 Si02
#       7
#    16  16  16   8  16   8  16
#     4   9  16  29  48  68  92 123 157 195 236 284
#     4   9  17  28  46  73 100 121 150 196 245 286
#     4   9  18  31  48  71  99 124 151 195 247 292
#     4  10  20  32  50  70 100 128 164 206 242 289
#     4  10  19  32  49  70  94 127 164 198 239 285
#     4  10  18  28  50  80 101 122 158 205 251 290
#     4   8  14  24  42  67  89 115 152 186 222 274
#
# _framework density 17.919039000000001
#
# number of rings (size 3 to 8) (size 9 to 14) (size 15 to 20)
#    0.000    2.833    1.667    1.500    1.167    0.667 
#    0.000    0.833    1.833    8.000    0.000    0.000 
#    0.000    0.000    0.000    0.000    0.000    0.000 
#
# Total GULP energy -594774.827206 kJ/mol
# GULP energy per Si atom -12391.142233 kJ/mol
# Density = 1.787825 g / cm^3
# Si number density = 17.919039 Si / 1000 Ang^3
#
#
#
# Elastic Constant Matrix: (Units=GPa)
#
#
# Indices 1 2 3 4 5 6 
#
# 1 194.1516 81.8778 17.6151 0.0000 0.0000 0.0000
# 2 81.8778 122.2186 20.4005 0.0000 0.0000 0.0000
# 3 17.6151 20.4005 10.7650 0.0000 0.0000 0.0000
# 4 0.0000 0.0000 0.0000 8.2918 0.0000 0.0000
# 5 0.0000 0.0000 0.0000 0.0000 17.0309 0.0000
# 6 0.0000 0.0000 0.0000 0.0000 0.0000 25.9928
#
#
#
# Elastic Compliance Matrix: (Units=1/GPa)
#
#
# Indices 1 2 3 4 5 6 
#
# 1 0.007290 -0.004231 -0.003911 0.000000 0.000000 0.000000
# 2 -0.004231 0.014423 -0.020410 0.000000 0.000000 0.000000
# 3 -0.003911 -0.020410 0.137972 0.000000 0.000000 0.000000
# 4 0.000000 0.000000 0.000000 0.120601 0.000000 0.000000
# 5 0.000000 0.000000 0.000000 0.000000 0.058717 0.000000
# 6 0.000000 0.000000 0.000000 0.000000 0.000000 0.038472
#
#
# Mechanical properties :
#
#
# Convention : Reuss Voigt Hill
#
# Bulk Modulus (GPa) = 9.74834 62.99134 36.36984
# Shear Modulus (GPa) = 10.66618 24.07921 17.37270
#
# Velocity S-wave (km/s) = 2.44241 3.66973 3.11707
# Velocity P-wave (km/s) = 3.66140 7.29284 5.77024
#
# Compressibility (1/GPa) = 0.10258155
#
# Stress axis : x y z
#
# Youngs Moduli (GPa) = 137.18121 69.33258 7.24785
#
# Poissons Ratio (x) = 0.29333 0.02834
# Poissons Ratio (y) = 0.58038 0.14793
# Poissons Ratio (z) = 0.53646 1.41509
#
# Static dielectric constant tensor:
#      x y z
#    x 3.945630 0.000000 0.000000 
#    y 0.000000 3.512180 0.000000 
#    z 0.000000 0.000000 2.882500 
# 
# 
# High freq. dielectric constant tensor:
#      x y z
#    x 1.707610 0.000000 0.000000 
#    y 0.000000 1.682280 0.000000 
#    z 0.000000 0.000000 1.648360 
# 
# From -- ./inp_files/45795.got.cif
#   From: 2010.03.12/outbox.cif.g09.slc.cpg/sg63_23_cif.got.tgz:45795.got - 2010.04.10 19:34:48.
