data_PCOD8255254
_publ_section_title
;
Structure prediction by ZEFSAII (Michael W. Deem and Ramdas Pophale) SiO2 
 PCOD8255254
Probable space group: P N M A
;
_chemical_formula_sum "Si O2"
_cell_formula_units_Z 40
_cell_length_a 9.645735
_cell_length_b 14.853027
_cell_length_c 12.872269
_cell_angle_alpha 90.000000
_cell_angle_beta 90.000000
_cell_angle_gamma 90.000000
_cell_volume 1844.188900
_symmetry_space_group_name_H-M "P N M A"
_symmetry_group_IT_number 62
_symmetry_cell_setting 'orthorhombic'
loop_
_space_group_symop_operation_xyz
x,y,z
1/2-x,-y,1/2+z
1/2+x,1/2-y,1/2-z
-x,1/2+y,-z
-x,-y,-z
1/2+x,y,1/2-z
1/2-x,1/2+y,1/2+z
x,1/2-y,z
loop_
_atom_site_type_symbol
_atom_site_label
_atom_site_fract_x
_atom_site_fract_y
_atom_site_fract_z
Si Si1 0.089882 0.418523 0.796244
Si Si2 0.786321 0.352043 0.356434
Si Si3 0.435480 0.576449 0.809528
Si Si4 0.681530 0.848744 0.355435
Si Si5 0.746926 0.503911 0.520672
O O1 0.225168 0.377764 0.742292
O O2 0.130881 0.474953 0.897588
O O3 0.010164 0.484624 0.719935
O O4 0.979357 0.340572 0.821735
O O5 0.740005 0.250000 0.383539
O O6 0.683903 0.393972 0.270415
O O7 0.789378 0.413905 0.458717
O O8 0.944664 0.347773 0.314496
O O9 0.373575 0.554152 0.922557
O O10 0.728875 0.750000 0.394739
O O11 0.684055 0.921690 0.445448
#
# Coordination Sequence:
#
# PCOD8255254 Si02
#       5
#     8   8   8   8   8
#     4  12  23  49  71  95 144 182 222 282 349 405
#     4  12  27  44  72 106 136 180 232 283 340 409
#     4  12  23  49  71  95 144 182 222 282 349 405
#     4  12  27  44  72 106 136 180 232 283 340 409
#     4  12  24  46  74  98 138 184 228 284 340 412
#
# _framework density 21.689753
#
# number of rings (size 3 to 8) (size 9 to 14) (size 15 to 20)
#    0.000    0.000    8.000    2.400    0.000    3.200 
#    0.000    0.000    0.000    0.000    0.000    0.000 
#    0.000    0.000    0.000    0.000    0.000    0.000 
#
# Total GULP energy -495938.782420 kJ/mol
# GULP energy per Si atom -12398.469561 kJ/mol
# Density = 2.164039 g / cm^3
# Si number density = 21.689753 Si / 1000 Ang^3
#
#
#
# Elastic Constant Matrix: (Units=GPa)
#
#
# Indices 1 2 3 4 5 6 
#
# 1 132.3324 23.7815 35.4063 0.0000 0.0000 0.0000
# 2 23.7815 132.2627 28.3320 0.0000 0.0000 0.0000
# 3 35.4063 28.3320 82.0639 0.0000 0.0000 0.0000
# 4 0.0000 0.0000 0.0000 14.9366 0.0000 0.0000
# 5 0.0000 0.0000 0.0000 0.0000 27.9318 0.0000
# 6 0.0000 0.0000 0.0000 0.0000 0.0000 26.8785
#
#
#
# Elastic Compliance Matrix: (Units=1/GPa)
#
#
# Indices 1 2 3 4 5 6 
#
# 1 0.008623 -0.000814 -0.003440 0.000000 0.000000 0.000000
# 2 -0.000814 0.008241 -0.002494 0.000000 0.000000 0.000000
# 3 -0.003440 -0.002494 0.014531 0.000000 0.000000 0.000000
# 4 0.000000 0.000000 0.000000 0.066950 0.000000 0.000000
# 5 0.000000 0.000000 0.000000 0.000000 0.035802 0.000000
# 6 0.000000 0.000000 0.000000 0.000000 0.000000 0.037204
#
#
# Mechanical properties :
#
#
# Convention : Reuss Voigt Hill
#
# Bulk Modulus (GPa) = 55.86480 57.96653 56.91566
# Shear Modulus (GPa) = 26.20371 31.22531 28.71451
#
# Velocity S-wave (km/s) = 3.47957 3.79837 3.64246
# Velocity P-wave (km/s) = 6.47730 6.78381 6.63233
#
# Compressibility (1/GPa) = 0.01790036
#
# Stress axis : x y z
#
# Youngs Moduli (GPa) = 115.96581 121.34008 68.81980
#
# Poissons Ratio (x) = 0.09874 0.23671
# Poissons Ratio (y) = 0.09436 0.17165
# Poissons Ratio (z) = 0.39887 0.30264
#
# Static dielectric constant tensor:
#      x y z
#    x 4.374170 0.000000 0.000000 
#    y 0.000000 4.061930 0.000000 
#    z 0.000000 0.000000 3.933600 
# 
# 
# High freq. dielectric constant tensor:
#      x y z
#    x 1.872580 0.000000 0.000000 
#    y 0.000000 1.851130 0.000000 
#    z 0.000000 0.000000 1.851130 
# 
# From -- ./inp_files/11056.got.cif
#   From: 2010.03.12/outbox.cif.g09.slc.cpg/sg62_6_cif.got.tgz:11056.got - 2010.04.10 19:12:36.
