data_PCOD8255950
_publ_section_title
;
Structure prediction by ZEFSAII (Michael W. Deem and Ramdas Pophale) SiO2 
 PCOD8255950
Probable space group: C M C M
;
_chemical_formula_sum "Si O2"
_cell_formula_units_Z 72
_cell_length_a 31.874408
_cell_length_b 18.355514
_cell_length_c 8.663978
_cell_angle_alpha 90.000000
_cell_angle_beta 90.000000
_cell_angle_gamma 90.000000
_cell_volume 5069.043505
_symmetry_space_group_name_H-M "C M C M"
_symmetry_group_IT_number 63
_symmetry_cell_setting 'orthorhombic'
loop_
_space_group_symop_operation_xyz
x,y,z
-x,-y,1/2+z
x,-y,-z
-x,y,1/2-z
-x,-y,-z
x,y,1/2-z
-x,y,z
x,-y,1/2+z
1/2+x,1/2+y,z
1/2-x,1/2-y,1/2+z
1/2+x,1/2-y,-z
1/2-x,1/2+y,1/2-z
1/2-x,1/2-y,-z
1/2+x,1/2+y,1/2-z
1/2-x,1/2+y,z
1/2+x,1/2-y,1/2+z
loop_
_atom_site_type_symbol
_atom_site_label
_atom_site_fract_x
_atom_site_fract_y
_atom_site_fract_z
Si Si1 0.584965 0.919936 0.067655
Si Si2 0.708458 0.283311 0.569321
Si Si3 0.000000 0.419254 0.566510
Si Si4 0.253676 0.077528 0.428737
Si Si5 0.837024 0.660119 0.067752
O O1 0.580741 0.926479 0.250000
O O2 0.542634 0.882828 0.997979
O O3 0.622768 0.867785 0.022547
O O4 0.593241 0.000000 0.000000
O O5 0.705167 0.266064 0.750000
O O6 0.750000 0.250000 0.500000
O O7 0.713162 0.370346 0.539651
O O8 0.669624 0.245197 0.480603
O O9 0.000000 0.500000 0.500000
O O10 0.000000 0.418341 0.750000
O O11 0.260599 0.065661 0.250000
O O12 0.296951 0.113217 0.491336
O O13 0.243829 0.000000 0.500000
O O14 0.844102 0.654350 0.250000
#
# Coordination Sequence:
#
# PCOD8255950 Si02
#       5
#    16  16   8  16  16
#     4  11  20  30  43  60  81 106 135 169 204 240
#     4   9  17  29  41  56  77 103 132 166 204 243
#     4  10  18  30  44  58  78 104 133 166 201 240
#     4   9  18  28  40  57  78 102 133 167 201 238
#     4  10  19  30  42  59  79 104 137 171 204 241
#
# _framework density 14.203863
#
# number of rings (size 3 to 8) (size 9 to 14) (size 15 to 20)
#    0.000    2.222    0.000    7.667    0.000    7.111 
#    0.000    0.000    0.000    0.000    0.000    0.000 
#    0.000    0.000    0.000    1.000    0.000   13.556 
#
# Total GULP energy -446117.875423 kJ/mol
# GULP energy per Si atom -12392.163206 kJ/mol
# Density = 1.417153 g / cm^3
# Si number density = 14.203863 Si / 1000 Ang^3
#
#
#
# Elastic Constant Matrix: (Units=GPa)
#
#
# Indices 1 2 3 4 5 6 
#
# 1 88.1811 44.2243 35.7776 0.0000 0.0000 0.0000
# 2 44.2243 77.2881 31.5501 0.0000 0.0000 0.0000
# 3 35.7776 31.5501 88.1713 0.0000 0.0000 0.0000
# 4 0.0000 0.0000 0.0000 23.6545 0.0000 0.0000
# 5 0.0000 0.0000 0.0000 0.0000 23.8329 0.0000
# 6 0.0000 0.0000 0.0000 0.0000 0.0000 5.2766
#
#
#
# Elastic Compliance Matrix: (Units=1/GPa)
#
#
# Indices 1 2 3 4 5 6 
#
# 1 0.017035 -0.008110 -0.004010 0.000000 0.000000 0.000000
# 2 -0.008110 0.019013 -0.003512 0.000000 0.000000 0.000000
# 3 -0.004010 -0.003512 0.014226 0.000000 0.000000 0.000000
# 4 0.000000 0.000000 0.000000 0.042275 0.000000 0.000000
# 5 0.000000 0.000000 0.000000 0.000000 0.041959 0.000000
# 6 0.000000 0.000000 0.000000 0.000000 0.000000 0.189515
#
#
# Mechanical properties :
#
#
# Convention : Reuss Voigt Hill
#
# Bulk Modulus (GPa) = 52.61034 52.97160 52.79097
# Shear Modulus (GPa) = 13.82650 20.02537 16.92593
#
# Velocity S-wave (km/s) = 3.12337 3.75888 3.45576
# Velocity P-wave (km/s) = 7.08005 7.49757 7.29180
#
# Compressibility (1/GPa) = 0.01900767
#
# Stress axis : x y z
#
# Youngs Moduli (GPa) = 58.70335 52.59518 70.29557
#
# Poissons Ratio (x) = 0.42656 0.28190
# Poissons Ratio (y) = 0.47610 0.24691
# Poissons Ratio (z) = 0.23541 0.18474
#
# Static dielectric constant tensor:
#      x y z
#    x 3.047730 0.000000 0.000000 
#    y 0.000000 3.369840 0.000000 
#    z 0.000000 0.000000 2.731640 
# 
# 
# High freq. dielectric constant tensor:
#      x y z
#    x 1.520120 0.000000 0.000000 
#    y 0.000000 1.513750 0.000000 
#    z 0.000000 0.000000 1.561790 
# 
# From -- ./inp_files/11892.got.cif
#   From: 2010.03.12/outbox.cif.g09.slc.cpg/sg63_6_cif.got.tgz:11892.got - 2010.04.10 19:34:48.
