data_PCOD8255312
_publ_section_title
;
Structure prediction by ZEFSAII (Michael W. Deem and Ramdas Pophale) SiO2 
 PCOD8255312
Probable space group: P N M A
;
_chemical_formula_sum "Si O2"
_cell_formula_units_Z 64
_cell_length_a 24.000000
_cell_length_b 9.000000
_cell_length_c 15.000000
_cell_angle_alpha 90.000000
_cell_angle_beta 90.000000
_cell_angle_gamma 90.000000
_cell_volume 3240.000000
_symmetry_space_group_name_H-M "P N M A"
_symmetry_group_IT_number 62
_symmetry_cell_setting 'orthorhombic'
loop_
_space_group_symop_operation_xyz
x,y,z
1/2-x,-y,1/2+z
1/2+x,1/2-y,1/2-z
-x,1/2+y,-z
-x,-y,-z
1/2+x,y,1/2-z
1/2-x,1/2+y,1/2+z
x,1/2-y,z
loop_
_atom_site_type_symbol
_atom_site_label
_atom_site_fract_x
_atom_site_fract_y
_atom_site_fract_z
Si Si1 0.962559 0.578253 0.125287
Si Si2 0.952686 0.424152 0.297422
Si Si3 0.685592 0.580785 0.188372
Si Si4 0.681759 0.920616 0.387072
Si Si5 0.073547 0.079471 0.354624
Si Si6 0.773696 0.923634 0.525057
Si Si7 0.928064 0.578360 0.931220
Si Si8 0.392734 0.918357 0.048415
O O1 0.968045 0.750000 0.146856
O O2 0.930873 0.498751 0.206505
O O3 0.024152 0.513592 0.116486
O O4 0.926913 0.547075 0.036810
O O5 0.950200 0.250000 0.286605
O O6 0.912551 0.469646 0.376790
O O7 0.015587 0.480165 0.315389
O O8 0.681415 0.750000 0.157986
O O9 0.709142 0.565672 0.288939
O O10 0.623577 0.514886 0.185779
O O11 0.728816 0.501004 0.121707
O O12 0.664181 0.750000 0.405655
O O13 0.724313 0.978794 0.461682
O O14 0.629522 0.028357 0.389704
O O15 0.084615 0.250000 0.327882
O O16 0.068968 0.064276 0.461273
O O17 0.770655 0.750000 0.543053
O O18 0.830596 0.966920 0.476466
O O19 0.939044 0.750000 0.909902
O O20 0.394795 0.750000 0.084894
#
# Coordination Sequence:
#
# PCOD8255312 Si02
#       8
#     8   8   8   8   8   8   8   8
#     4  10  21  37  55  78 112 149 180 217 272 329
#     4  11  21  32  51  81 112 143 183 225 268 325
#     4  10  20  34  56  85 110 138 180 231 277 324
#     4  10  21  38  60  84 111 146 185 227 280 333
#     4   9  19  34  52  76 108 145 181 222 271 325
#     4   9  20  40  59  77 109 150 185 227 279 330
#     4  10  21  37  58  83 109 140 181 229 272 319
#     4   9  18  34  53  72 104 147 183 221 275 327
#
# _framework density 19.753086
#
# number of rings (size 3 to 8) (size 9 to 14) (size 15 to 20)
#    0.000    2.250    0.000    3.375    0.000    8.000 
#    2.250    0.000    0.000    0.000    0.000    0.000 
#    0.000    0.000    0.000    0.000    0.000    0.000 
#
# Total GULP energy -793678.564116 kJ/mol
# GULP energy per Si atom -12401.227564 kJ/mol
# Density = 1.970813 g / cm^3
# Si number density = 19.753086 Si / 1000 Ang^3
#
#
#
# Elastic Constant Matrix: (Units=GPa)
#
#
# Indices 1 2 3 4 5 6 
#
# 1 22.4855 28.2738 31.5147 0.0000 0.0000 0.0000
# 2 28.2738 42.6394 37.3607 0.0000 0.0000 0.0000
# 3 31.5147 37.3607 105.0376 0.0000 0.0000 0.0000
# 4 0.0000 0.0000 0.0000 32.7435 0.0000 0.0000
# 5 0.0000 0.0000 0.0000 0.0000 11.2131 0.0000
# 6 0.0000 0.0000 0.0000 0.0000 0.0000 18.5096
#
#
#
# Elastic Compliance Matrix: (Units=1/GPa)
#
#
# Indices 1 2 3 4 5 6 
#
# 1 0.321657 -0.187010 -0.029990 0.000000 0.000000 0.000000
# 2 -0.187010 0.142798 0.005318 0.000000 0.000000 0.000000
# 3 -0.029990 0.005318 0.016627 0.000000 0.000000 0.000000
# 4 0.000000 0.000000 0.000000 0.030540 0.000000 0.000000
# 5 0.000000 0.000000 0.000000 0.000000 0.089181 0.000000
# 6 0.000000 0.000000 0.000000 0.000000 0.000000 0.054026
#
#
# Mechanical properties :
#
#
# Convention : Reuss Voigt Hill
#
# Bulk Modulus (GPa) = 17.32617 40.49569 28.91093
# Shear Modulus (GPa) = 4.55609 17.36079 10.95844
#
# Velocity S-wave (km/s) = 1.52037 2.96782 2.35791
# Velocity P-wave (km/s) = 3.44564 5.68238 4.69904
#
# Compressibility (1/GPa) = 0.05771615
#
# Stress axis : x y z
#
# Youngs Moduli (GPa) = 3.10891 7.00291 60.14306
#
# Poissons Ratio (x) = 1.30961 1.80370
# Poissons Ratio (y) = 0.58140 -0.31981
# Poissons Ratio (z) = 0.09324 -0.03724
#
# Static dielectric constant tensor:
#      x y z
#    x 3.357880 0.000000 0.000000 
#    y 0.000000 3.485260 0.000000 
#    z 0.000000 0.000000 3.817410 
# 
# 
# High freq. dielectric constant tensor:
#      x y z
#    x 1.736710 0.000000 0.000000 
#    y 0.000000 1.766410 0.000000 
#    z 0.000000 0.000000 1.780820 
# 
# From -- ./inp_files/20969.got.cif
#   From: 2010.03.12/outbox.ucp.g09.slc.cvg/sg62_11_cif.got.tgz:20969.got - 2010.05.04 19:35:18.
