data_PCOD8255222
_publ_section_title
;
Structure prediction by ZEFSAII (Michael W. Deem and Ramdas Pophale) SiO2 
 PCOD8255222
Probable space group: P N M A
;
_chemical_formula_sum "Si O2"
_cell_formula_units_Z 36
_cell_length_a 18.462976
_cell_length_b 9.863438
_cell_length_c 9.163862
_cell_angle_alpha 90.000000
_cell_angle_beta 90.000000
_cell_angle_gamma 90.000000
_cell_volume 1668.816421
_symmetry_space_group_name_H-M "P N M A"
_symmetry_group_IT_number 62
_symmetry_cell_setting 'orthorhombic'
loop_
_space_group_symop_operation_xyz
x,y,z
1/2-x,-y,1/2+z
1/2+x,1/2-y,1/2-z
-x,1/2+y,-z
-x,-y,-z
1/2+x,y,1/2-z
1/2-x,1/2+y,1/2+z
x,1/2-y,z
loop_
_atom_site_type_symbol
_atom_site_label
_atom_site_fract_x
_atom_site_fract_y
_atom_site_fract_z
Si Si1 0.893531 0.750000 0.207372
Si Si2 0.172361 0.459391 0.303925
Si Si3 0.577434 0.750000 0.753391
Si Si4 0.219089 0.750000 0.893190
Si Si5 0.076268 0.015405 0.577361
Si Si6 0.416672 0.750000 0.628573
Si Si7 0.271263 0.250000 0.728580
O O1 0.925872 0.621182 0.290613
O O2 0.806390 0.750000 0.192498
O O3 0.925208 0.750000 0.044703
O O4 0.249609 0.384152 0.313298
O O5 0.134680 0.437153 0.459514
O O6 0.124283 0.386877 0.179146
O O7 0.182315 0.617675 0.270741
O O8 0.632195 0.750000 0.616055
O O9 0.598516 0.626009 0.855164
O O10 0.495907 0.750000 0.698717
O O11 0.244162 0.750000 0.058598
O O12 0.000000 0.000000 0.500000
#
# Coordination Sequence:
#
# PCOD8255222 Si02
#       7
#     4   8   4   4   8   4   4
#     4  12  27  45  74 104 145 191 234 295 365 427
#     4  11  25  48  73 105 144 192 240 298 354 436
#     4  12  26  44  75 109 143 187 243 307 361 421
#     4  11  26  45  72 107 149 184 240 300 369 423
#     4  12  24  47  76 102 140 191 240 289 359 437
#     4  11  27  48  71 107 156 183 238 308 360 422
#     4  12  26  44  76 105 143 189 247 290 361 429
#
# _framework density 21.572175000000001
#
# number of rings (size 3 to 8) (size 9 to 14) (size 15 to 20)
#    0.000    0.444    4.444    3.333    6.222    4.444 
#    0.000    0.000    0.000    0.000    0.000    0.000 
#    0.000    0.000    0.000    0.000    0.000    0.000 
#
# Total GULP energy -446566.349387 kJ/mol
# GULP energy per Si atom -12404.620816 kJ/mol
# Density = 2.152308 g / cm^3
# Si number density = 21.572175 Si / 1000 Ang^3
#
#
#
# Elastic Constant Matrix: (Units=GPa)
#
#
# Indices 1 2 3 4 5 6 
#
# 1 101.2651 19.0508 18.7771 0.0000 0.0000 0.0000
# 2 19.0508 164.5079 47.0313 0.0000 0.0000 0.0000
# 3 18.7771 47.0313 127.3033 0.0000 0.0000 0.0000
# 4 0.0000 0.0000 0.0000 37.6888 0.0000 0.0000
# 5 0.0000 0.0000 0.0000 0.0000 30.5804 0.0000
# 6 0.0000 0.0000 0.0000 0.0000 0.0000 26.7753
#
#
#
# Elastic Compliance Matrix: (Units=1/GPa)
#
#
# Indices 1 2 3 4 5 6 
#
# 1 0.010257 -0.000844 -0.001201 0.000000 0.000000 0.000000
# 2 -0.000844 0.006866 -0.002412 0.000000 0.000000 0.000000
# 3 -0.001201 -0.002412 0.008924 0.000000 0.000000 0.000000
# 4 0.000000 0.000000 0.000000 0.026533 0.000000 0.000000
# 5 0.000000 0.000000 0.000000 0.000000 0.032701 0.000000
# 6 0.000000 0.000000 0.000000 0.000000 0.000000 0.037348
#
#
# Mechanical properties :
#
#
# Convention : Reuss Voigt Hill
#
# Bulk Modulus (GPa) = 58.37220 62.53275 60.45247
# Shear Modulus (GPa) = 36.42904 39.55671 37.99288
#
# Velocity S-wave (km/s) = 4.11384 4.28681 4.20122
# Velocity P-wave (km/s) = 7.04860 7.31799 7.18455
#
# Compressibility (1/GPa) = 0.01713144
#
# Stress axis : x y z
#
# Youngs Moduli (GPa) = 97.49817 145.64270 112.06349
#
# Poissons Ratio (x) = 0.12299 0.13457
# Poissons Ratio (y) = 0.08233 0.27031
# Poissons Ratio (z) = 0.11708 0.35130
#
# Static dielectric constant tensor:
#      x y z
#    x 3.926090 0.000000 0.000000 
#    y 0.000000 4.184990 0.000000 
#    z 0.000000 0.000000 1.829850 
# 
# 
# High freq. dielectric constant tensor:
#      x y z
#    x 1.852730 0.000000 0.000000 
#    y 0.000000 1.863940 0.000000 
#    z 0.000000 0.000000 1.851780 
# 
# From -- ./inp_files/8362.got.cif
#   From: 2010.03.12/outbox.cif.g09.slc.cpg/sg62_5_cif.got.tgz:8362.got - 2010.04.10 19:12:36.
