data_PCOD8255202
_publ_section_title
;
Structure prediction by ZEFSAII (Michael W. Deem and Ramdas Pophale) SiO2 
 PCOD8255202
Probable space group: P N M A
;
_chemical_formula_sum "Si O2"
_cell_formula_units_Z 40
_cell_length_a 7.807400
_cell_length_b 8.382311
_cell_length_c 28.445879
_cell_angle_alpha 90.000000
_cell_angle_beta 90.000000
_cell_angle_gamma 90.000000
_cell_volume 1861.613667
_symmetry_space_group_name_H-M "P N M A"
_symmetry_group_IT_number 62
_symmetry_cell_setting 'orthorhombic'
loop_
_space_group_symop_operation_xyz
x,y,z
1/2-x,-y,1/2+z
1/2+x,1/2-y,1/2-z
-x,1/2+y,-z
-x,-y,-z
1/2+x,y,1/2-z
1/2-x,1/2+y,1/2+z
x,1/2-y,z
loop_
_atom_site_type_symbol
_atom_site_label
_atom_site_fract_x
_atom_site_fract_y
_atom_site_fract_z
Si Si1 0.292677 0.435463 0.297495
Si Si2 0.024164 0.939181 0.947819
Si Si3 0.837871 0.434732 0.609632
Si Si4 0.664903 0.936143 0.299659
Si Si5 0.191781 0.935568 0.609315
O O1 0.312859 0.250000 0.285669
O O2 0.175167 0.460486 0.342975
O O3 0.209806 0.524069 0.253655
O O4 0.473167 0.511495 0.310611
O O5 0.043687 0.750000 0.945687
O O6 0.860958 0.997016 0.917565
O O7 0.196010 0.018005 0.928187
O O8 0.000000 0.000000 0.000000
O O9 0.819272 0.250000 0.622323
O O10 0.026408 0.471860 0.588786
O O11 0.687551 0.750000 0.308653
O O12 0.789561 0.028892 0.335144
O O13 0.163445 0.750000 0.600562
#
# Coordination Sequence:
#
# PCOD8255202 Si02
#       5
#     8   8   8   8   8
#     4  12  24  41  63  92 133 179 224 273 333 401
#     4  11  25  46  73 101 135 177 227 282 344 406
#     4  12  25  43  69 100 136 176 224 281 338 400
#     4  12  24  40  63  95 133 175 225 278 333 396
#     4  11  24  44  69  98 135 179 224 275 338 404
#
# _framework density 21.486737999999999
#
# number of rings (size 3 to 8) (size 9 to 14) (size 15 to 20)
#    0.000    0.400    2.000    7.800    0.000    3.200 
#    0.000    0.000    0.000    0.000    0.000    0.000 
#    0.000    0.000    0.000    0.000    0.000    0.000 
#
# Total GULP energy -496336.480356 kJ/mol
# GULP energy per Si atom -12408.412009 kJ/mol
# Density = 2.143783 g / cm^3
# Si number density = 21.486738 Si / 1000 Ang^3
#
#
#
# Elastic Constant Matrix: (Units=GPa)
#
#
# Indices 1 2 3 4 5 6 
#
# 1 139.5162 36.2403 24.4262 0.0000 0.0000 0.0000
# 2 36.2403 90.4435 10.7018 0.0000 0.0000 0.0000
# 3 24.4262 10.7018 107.8305 0.0000 0.0000 0.0000
# 4 0.0000 0.0000 0.0000 35.3925 0.0000 0.0000
# 5 0.0000 0.0000 0.0000 0.0000 30.1153 0.0000
# 6 0.0000 0.0000 0.0000 0.0000 0.0000 28.3541
#
#
#
# Elastic Compliance Matrix: (Units=1/GPa)
#
#
# Indices 1 2 3 4 5 6 
#
# 1 0.008252 -0.003122 -0.001559 0.000000 0.000000 0.000000
# 2 -0.003122 0.012369 -0.000520 0.000000 0.000000 0.000000
# 3 -0.001559 -0.000520 0.009679 0.000000 0.000000 0.000000
# 4 0.000000 0.000000 0.000000 0.028255 0.000000 0.000000
# 5 0.000000 0.000000 0.000000 0.000000 0.033206 0.000000
# 6 0.000000 0.000000 0.000000 0.000000 0.000000 0.035268
#
#
# Mechanical properties :
#
#
# Convention : Reuss Voigt Hill
#
# Bulk Modulus (GPa) = 50.26098 53.39185 51.82642
# Shear Modulus (GPa) = 34.70698 36.53384 35.62041
#
# Velocity S-wave (km/s) = 4.02341 4.12794 4.07601
# Velocity P-wave (km/s) = 6.71015 6.90091 6.80620
#
# Compressibility (1/GPa) = 0.01989615
#
# Stress axis : x y z
#
# Youngs Moduli (GPa) = 121.18928 80.84650 103.31975
#
# Poissons Ratio (x) = 0.25239 0.16111
# Poissons Ratio (y) = 0.37833 0.05377
# Poissons Ratio (z) = 0.18898 0.04207
#
# Static dielectric constant tensor:
#      x y z
#    x 4.134980 0.000000 0.000000 
#    y 0.000000 3.920000 0.000000 
#    z 0.000000 0.000000 3.677160 
# 
# 
# High freq. dielectric constant tensor:
#      x y z
#    x 1.862300 0.000000 0.000000 
#    y 0.000000 1.855290 0.000000 
#    z 0.000000 0.000000 1.838130 
# 
# From -- ./inp_files/30664.got.cif
#   From: 2010.03.12/outbox.cif.g09.slc.cpg/sg62_16_cif.got.tgz:30664.got - 2010.04.10 19:12:36.
