data_PCOD8255837
_publ_section_title
;
Structure prediction by ZEFSAII (Michael W. Deem and Ramdas Pophale) SiO2 
 PCOD8255837
Probable space group: C M C M
;
_chemical_formula_sum "Si O2"
_cell_formula_units_Z 64
_cell_length_a 27.797027
_cell_length_b 21.008800
_cell_length_c 8.852938
_cell_angle_alpha 90.000000
_cell_angle_beta 90.000000
_cell_angle_gamma 90.000000
_cell_volume 5169.958040
_symmetry_space_group_name_H-M "C M C M"
_symmetry_group_IT_number 63
_symmetry_cell_setting 'orthorhombic'
loop_
_space_group_symop_operation_xyz
x,y,z
-x,-y,1/2+z
x,-y,-z
-x,y,1/2-z
-x,-y,-z
x,y,1/2-z
-x,y,z
x,-y,1/2+z
1/2+x,1/2+y,z
1/2-x,1/2-y,1/2+z
1/2+x,1/2-y,-z
1/2-x,1/2+y,1/2-z
1/2-x,1/2-y,-z
1/2+x,1/2+y,1/2-z
1/2-x,1/2+y,z
1/2+x,1/2-y,1/2+z
loop_
_atom_site_type_symbol
_atom_site_label
_atom_site_fract_x
_atom_site_fract_y
_atom_site_fract_z
Si Si1 0.555093 0.932717 0.575196
Si Si2 0.729648 0.064897 0.920237
Si Si3 0.223594 0.690469 0.429030
Si Si4 0.861992 0.635668 0.920116
O O1 0.568100 0.938860 0.750000
O O2 0.500000 0.912260 0.549445
O O3 0.587619 0.878184 0.500794
O O4 0.566018 0.000000 0.500000
O O5 0.750394 0.065485 0.750000
O O6 0.671269 0.071712 0.917245
O O7 0.750392 0.125813 0.012933
O O8 0.745458 0.000000 0.000000
O O9 0.225172 0.694301 0.250000
O O10 0.250000 0.750000 0.500000
O O11 0.167970 0.689670 0.487785
O O12 0.871923 0.659908 0.750000
#
# Coordination Sequence:
#
# PCOD8255837 Si02
#       4
#    16  16  16  16
#     4  10  19  28  38  53  73  98 128 163 201 235
#     4   9  17  26  38  56  73  94 123 156 190 227
#     4  10  18  29  42  56  75  97 124 160 197 236
#     4   9  18  28  40  54  71  95 126 158 195 233
#
# _framework density 12.379211
#
# number of rings (size 3 to 8) (size 9 to 14) (size 15 to 20)
#    1.500    1.000    0.000    4.500    0.000    3.500 
#    0.000    0.000    0.000    0.000    0.000    0.000 
#    0.000    0.000    0.000    0.000    0.000    1.250 
#
# Total GULP energy -396454.198551 kJ/mol
# GULP energy per Si atom -12389.193705 kJ/mol
# Density = 1.235104 g / cm^3
# Si number density = 12.379211 Si / 1000 Ang^3
#
#
#
# Elastic Constant Matrix: (Units=GPa)
#
#
# Indices 1 2 3 4 5 6 
#
# 1 52.4883 35.6548 41.4775 0.0000 0.0000 0.0000
# 2 35.6548 78.2420 51.1437 0.0000 0.0000 0.0000
# 3 41.4775 51.1437 138.3336 0.0000 0.0000 0.0000
# 4 0.0000 0.0000 0.0000 23.1236 0.0000 0.0000
# 5 0.0000 0.0000 0.0000 0.0000 19.6327 0.0000
# 6 0.0000 0.0000 0.0000 0.0000 0.0000 22.4282
#
#
#
# Elastic Compliance Matrix: (Units=1/GPa)
#
#
# Indices 1 2 3 4 5 6 
#
# 1 0.030218 -0.010349 -0.005234 0.000000 0.000000 0.000000
# 2 -0.010349 0.020398 -0.004438 0.000000 0.000000 0.000000
# 3 -0.005234 -0.004438 0.010439 0.000000 0.000000 0.000000
# 4 0.000000 0.000000 0.000000 0.043246 0.000000 0.000000
# 5 0.000000 0.000000 0.000000 0.000000 0.050935 0.000000
# 6 0.000000 0.000000 0.000000 0.000000 0.000000 0.044587
#
#
# Mechanical properties :
#
#
# Convention : Reuss Voigt Hill
#
# Bulk Modulus (GPa) = 47.59165 58.40174 52.99670
# Shear Modulus (GPa) = 20.25351 22.42277 21.33814
#
# Velocity S-wave (km/s) = 4.04925 4.26058 4.15626
# Velocity P-wave (km/s) = 7.77111 8.45477 8.12014
#
# Compressibility (1/GPa) = 0.02101209
#
# Stress axis : x y z
#
# Youngs Moduli (GPa) = 33.09281 49.02425 95.79168
#
# Poissons Ratio (x) = 0.50734 0.50141
# Poissons Ratio (y) = 0.34247 0.42517
# Poissons Ratio (z) = 0.17322 0.21759
#
# Static dielectric constant tensor:
#      x y z
#    x 2.277530 0.000000 0.000000 
#    y 0.000000 2.289820 0.000000 
#    z 0.000000 0.000000 2.735330 
# 
# 
# High freq. dielectric constant tensor:
#      x y z
#    x 1.431430 0.000000 0.000000 
#    y 0.000000 1.438020 0.000000 
#    z 0.000000 0.000000 1.495340 
# 
# From -- ./inp_files/12180.got.cif
#   From: 2010.03.12/outbox.cif.g09.slc.cpg/sg63_7_cif.got.tgz:12180.got - 2010.04.10 19:34:48.
