data_PCOD8255986
_publ_section_title
;
Structure prediction by ZEFSAII (Michael W. Deem and Ramdas Pophale) SiO2 
 PCOD8255986
Probable space group: C M C M
;
_chemical_formula_sum "Si O2"
_cell_formula_units_Z 80
_cell_length_a 25.116067
_cell_length_b 20.756384
_cell_length_c 9.072871
_cell_angle_alpha 90.000000
_cell_angle_beta 90.000000
_cell_angle_gamma 90.000000
_cell_volume 4729.857598
_symmetry_space_group_name_H-M "C M C M"
_symmetry_group_IT_number 63
_symmetry_cell_setting 'orthorhombic'
loop_
_space_group_symop_operation_xyz
x,y,z
-x,-y,1/2+z
x,-y,-z
-x,y,1/2-z
-x,-y,-z
x,y,1/2-z
-x,y,z
x,-y,1/2+z
1/2+x,1/2+y,z
1/2-x,1/2-y,1/2+z
1/2+x,1/2-y,-z
1/2-x,1/2+y,1/2-z
1/2-x,1/2-y,-z
1/2+x,1/2+y,1/2-z
1/2-x,1/2+y,z
1/2+x,1/2-y,1/2+z
loop_
_atom_site_type_symbol
_atom_site_label
_atom_site_fract_x
_atom_site_fract_y
_atom_site_fract_z
Si Si1 0.500000 0.224514 0.911243
Si Si2 0.887587 0.737922 0.923849
Si Si3 0.104924 0.871150 0.421485
Si Si4 0.285122 0.435001 0.079864
Si Si5 0.000000 0.878015 0.914500
Si Si6 0.224607 0.310627 0.421594
O O1 0.500000 0.192954 0.750000
O O2 0.443206 0.205568 0.986370
O O3 0.500000 0.301559 0.906018
O O4 0.894862 0.754082 0.750000
O O5 0.839071 0.688832 0.949867
O O6 0.875914 0.803998 0.008317
O O7 0.092652 0.859597 0.250000
O O8 0.152566 0.921401 0.445679
O O9 0.052794 0.901054 0.499333
O O10 0.271706 0.444209 0.250000
O O11 0.249412 0.376507 0.014953
O O12 0.267972 0.500000 0.000000
O O13 0.000000 0.908081 0.750000
O O14 0.238513 0.304008 0.250000
O O15 0.250000 0.250000 0.500000
#
# Coordination Sequence:
#
# PCOD8255986 Si02
#       6
#     8  16  16  16   8  16
#     4   7  12  23  39  66  95 118 148 185 227 280
#     4   9  16  27  47  71  98 128 158 195 241 296
#     4  10  18  30  47  69  97 125 160 206 248 288
#     4  10  22  36  49  69  98 130 168 208 250 301
#     4   9  17  29  46  68  93 126 167 201 238 290
#     4  10  19  32  50  74  99 127 164 206 248 297
#
# _framework density 16.913827999999999
#
# number of rings (size 3 to 8) (size 9 to 14) (size 15 to 20)
#    0.000    2.600    2.000    2.100    0.000    2.400 
#    0.000    0.500    0.000    0.000    0.000    0.700 
#    0.000    0.000    0.000    0.000    0.000    0.000 
#
# Total GULP energy -495694.061867 kJ/mol
# GULP energy per Si atom -12392.351547 kJ/mol
# Density = 1.687533 g / cm^3
# Si number density = 16.913828 Si / 1000 Ang^3
#
#
#
# Elastic Constant Matrix: (Units=GPa)
#
#
# Indices 1 2 3 4 5 6 
#
# 1 125.1715 55.8577 37.1228 0.0000 0.0000 0.0000
# 2 55.8577 92.9956 35.1195 0.0000 0.0000 0.0000
# 3 37.1228 35.1195 63.3772 0.0000 0.0000 0.0000
# 4 0.0000 0.0000 0.0000 21.4043 0.0000 0.0000
# 5 0.0000 0.0000 0.0000 0.0000 22.3274 0.0000
# 6 0.0000 0.0000 0.0000 0.0000 0.0000 15.4188
#
#
#
# Elastic Compliance Matrix: (Units=1/GPa)
#
#
# Indices 1 2 3 4 5 6 
#
# 1 0.011561 -0.005548 -0.003698 0.000000 0.000000 0.000000
# 2 -0.005548 0.016261 -0.005761 0.000000 0.000000 0.000000
# 3 -0.003698 -0.005761 0.021137 0.000000 0.000000 0.000000
# 4 0.000000 0.000000 0.000000 0.046720 0.000000 0.000000
# 5 0.000000 0.000000 0.000000 0.000000 0.044788 0.000000
# 6 0.000000 0.000000 0.000000 0.000000 0.000000 0.064856
#
#
# Mechanical properties :
#
#
# Convention : Reuss Voigt Hill
#
# Bulk Modulus (GPa) = 52.78205 59.74936 56.26571
# Shear Modulus (GPa) = 20.69087 22.05972 21.37529
#
# Velocity S-wave (km/s) = 3.50138 3.61535 3.55882
# Velocity P-wave (km/s) = 6.90075 7.26843 7.08698
#
# Compressibility (1/GPa) = 0.01894583
#
# Stress axis : x y z
#
# Youngs Moduli (GPa) = 86.49418 61.49576 47.31038
#
# Poissons Ratio (x) = 0.34117 0.17494
# Poissons Ratio (y) = 0.47986 0.27257
# Poissons Ratio (z) = 0.31984 0.35429
#
# Static dielectric constant tensor:
#      x y z
#    x 3.777810 0.000000 0.000000 
#    y 0.000000 2.771100 0.000000 
#    z 0.000000 0.000000 3.173580 
# 
# 
# High freq. dielectric constant tensor:
#      x y z
#    x 1.672920 0.000000 0.000000 
#    y 0.000000 1.598040 0.000000 
#    z 0.000000 0.000000 1.644010 
# 
# From -- ./inp_files/12270.got.cif
#   From: 2010.03.12/outbox.cif.g09.slc.cpg/sg63_7_cif.got.tgz:12270.got - 2010.04.10 19:34:48.
