data_PCOD8255706
_publ_section_title
;
Structure prediction by ZEFSAII (Michael W. Deem and Ramdas Pophale) SiO2 
 PCOD8255706
Probable space group: C M C M
;
_chemical_formula_sum "Si O2"
_cell_formula_units_Z 96
_cell_length_a 23.258688
_cell_length_b 14.125135
_cell_length_c 18.431329
_cell_angle_alpha 90.000000
_cell_angle_beta 90.000000
_cell_angle_gamma 90.000000
_cell_volume 6055.283368
_symmetry_space_group_name_H-M "C M C M"
_symmetry_group_IT_number 63
_symmetry_cell_setting 'orthorhombic'
loop_
_space_group_symop_operation_xyz
x,y,z
-x,-y,1/2+z
x,-y,-z
-x,y,1/2-z
-x,-y,-z
x,y,1/2-z
-x,y,z
x,-y,1/2+z
1/2+x,1/2+y,z
1/2-x,1/2-y,1/2+z
1/2+x,1/2-y,-z
1/2-x,1/2+y,1/2-z
1/2-x,1/2-y,-z
1/2+x,1/2+y,1/2-z
1/2-x,1/2+y,z
1/2+x,1/2-y,1/2+z
loop_
_atom_site_type_symbol
_atom_site_label
_atom_site_fract_x
_atom_site_fract_y
_atom_site_fract_z
Si Si1 0.435072 0.607701 0.480101
Si Si2 0.829716 0.325432 0.330222
Si Si3 0.247387 0.178814 0.105763
Si Si4 0.176952 0.824267 0.458818
Si Si5 0.934817 0.799063 0.831663
Si Si6 0.736331 0.973468 0.419072
O O1 0.423251 0.500000 0.500000
O O2 0.500000 0.638055 0.500739
O O3 0.391556 0.669290 0.529463
O O4 0.423983 0.621465 0.393580
O O5 0.826081 0.369121 0.250000
O O6 0.786233 0.235547 0.331957
O O7 0.894171 0.290687 0.347603
O O8 0.813149 0.406637 0.386961
O O9 0.308149 0.230964 0.088337
O O10 0.257928 0.069685 0.128248
O O11 0.206505 0.183984 0.036370
O O12 0.202665 0.918054 0.419296
O O13 0.922447 0.840188 0.750000
O O14 0.000000 0.761675 0.836580
O O15 0.716391 0.000000 0.500000
#
# Coordination Sequence:
#
# PCOD8255706 Si02
#       6
#    16  16  16  16  16  16
#     4  10  18  27  45  68  92 121 157 192 218 259
#     4  10  19  30  46  69  93 117 152 187 224 274
#     4   9  16  28  45  63  88 122 144 184 227 269
#     4   9  16  27  44  65  90 116 153 182 222 267
#     4   9  18  31  46  65  93 124 148 181 229 270
#     4   9  18  29  47  67  89 121 151 186 227 278
#
# _framework density 15.853923999999999
#
# number of rings (size 3 to 8) (size 9 to 14) (size 15 to 20)
#    0.000    2.667    1.667    2.500    0.000    0.667 
#    0.000    0.000    0.000    1.500    0.000    0.000 
#    0.000    0.000    0.000    0.000    0.000    0.000 
#
# Total GULP energy -594815.006090 kJ/mol
# GULP energy per Si atom -12391.979294 kJ/mol
# Density = 1.581784 g / cm^3
# Si number density = 15.853924 Si / 1000 Ang^3
#
#
#
# Elastic Constant Matrix: (Units=GPa)
#
#
# Indices 1 2 3 4 5 6 
#
# 1 105.8095 41.2839 37.4951 0.0000 0.0000 0.0000
# 2 41.2839 94.1918 37.5803 0.0000 0.0000 0.0000
# 3 37.4951 37.5803 50.9513 0.0000 0.0000 0.0000
# 4 0.0000 0.0000 0.0000 20.1868 0.0000 0.0000
# 5 0.0000 0.0000 0.0000 0.0000 18.8392 0.0000
# 6 0.0000 0.0000 0.0000 0.0000 0.0000 19.3520
#
#
#
# Elastic Compliance Matrix: (Units=1/GPa)
#
#
# Indices 1 2 3 4 5 6 
#
# 1 0.013259 -0.002718 -0.007752 0.000000 0.000000 0.000000
# 2 -0.002718 0.015601 -0.009506 0.000000 0.000000 0.000000
# 3 -0.007752 -0.009506 0.032343 0.000000 0.000000 0.000000
# 4 0.000000 0.000000 0.000000 0.049537 0.000000 0.000000
# 5 0.000000 0.000000 0.000000 0.000000 0.053081 0.000000
# 6 0.000000 0.000000 0.000000 0.000000 0.000000 0.051674
#
#
# Mechanical properties :
#
#
# Convention : Reuss Voigt Hill
#
# Bulk Modulus (GPa) = 47.06115 53.74125 50.40120
# Shear Modulus (GPa) = 19.04533 20.64847 19.84690
#
# Velocity S-wave (km/s) = 3.46974 3.61282 3.54200
# Velocity P-wave (km/s) = 6.76763 7.16761 6.97049
#
# Compressibility (1/GPa) = 0.02124895
#
# Stress axis : x y z
#
# Youngs Moduli (GPa) = 75.42268 64.09898 30.91863
#
# Poissons Ratio (x) = 0.17424 0.23968
# Poissons Ratio (y) = 0.20502 0.29392
# Poissons Ratio (z) = 0.58468 0.60935
#
# Static dielectric constant tensor:
#      x y z
#    x 3.064150 0.000000 0.000000 
#    y 0.000000 3.111380 0.000000 
#    z 0.000000 0.000000 2.994230 
# 
# 
# High freq. dielectric constant tensor:
#      x y z
#    x 1.599310 0.000000 0.000000 
#    y 0.000000 1.595360 0.000000 
#    z 0.000000 0.000000 1.591750 
# 
# From -- ./inp_files/56697.got.cif
#   From: 2010.03.12/outbox.cif.g09.slc.cpg/sg63_29_cif.got.tgz:56697.got - 2010.04.10 19:34:48.
