data_PCOD8255634
_publ_section_title
;
Structure prediction by ZEFSAII (Michael W. Deem and Ramdas Pophale) SiO2 
 PCOD8255634
Probable space group: C M C M
;
_chemical_formula_sum "Si O2"
_cell_formula_units_Z 112
_cell_length_a 21.790774
_cell_length_b 17.164824
_cell_length_c 19.412604
_cell_angle_alpha 90.000000
_cell_angle_beta 90.000000
_cell_angle_gamma 90.000000
_cell_volume 7260.989465
_symmetry_space_group_name_H-M "C M C M"
_symmetry_group_IT_number 63
_symmetry_cell_setting 'orthorhombic'
loop_
_space_group_symop_operation_xyz
x,y,z
-x,-y,1/2+z
x,-y,-z
-x,y,1/2-z
-x,-y,-z
x,y,1/2-z
-x,y,z
x,-y,1/2+z
1/2+x,1/2+y,z
1/2-x,1/2-y,1/2+z
1/2+x,1/2-y,-z
1/2-x,1/2+y,1/2-z
1/2-x,1/2-y,-z
1/2+x,1/2+y,1/2-z
1/2-x,1/2+y,z
1/2+x,1/2-y,1/2+z
loop_
_atom_site_type_symbol
_atom_site_label
_atom_site_fract_x
_atom_site_fract_y
_atom_site_fract_z
Si Si1 0.285945 0.981599 0.331171
Si Si2 0.325332 0.706578 0.906501
Si Si3 0.812051 0.654286 0.924421
Si Si4 0.146770 0.936653 0.171949
Si Si5 0.346954 0.319870 0.557220
Si Si6 0.708297 0.871465 0.577412
Si Si7 0.572253 0.537878 0.071893
O O1 0.301326 0.987728 0.250000
O O2 0.307813 0.057393 0.372399
O O3 0.323197 0.908446 0.363798
O O4 0.213602 0.971791 0.344505
O O5 0.255648 0.687200 0.922259
O O6 0.353045 0.655678 0.844669
O O7 0.327665 0.798121 0.888802
O O8 0.361245 0.685908 0.976113
O O9 0.854443 0.731384 0.912893
O O10 0.819171 0.614981 0.000309
O O11 0.128443 0.947883 0.250000
O O12 0.094034 0.979223 0.130327
O O13 0.281156 0.357497 0.574737
O O14 0.398341 0.377554 0.587054
O O15 0.500000 0.547966 0.075174
O O16 0.594250 0.500000 0.000000
#
# Coordination Sequence:
#
# PCOD8255634 Si02
#       7
#    16  16  16  16  16  16  16
#     4  10  18  26  39  64  93 119 145 176 217 262
#     4   8  15  26  42  63  82 109 149 179 213 266
#     4   8  16  26  42  62  82 116 149 177 215 262
#     4  10  19  30  42  58  88 123 145 177 225 260
#     4   9  15  29  45  61  84 112 149 187 217 255
#     4   9  15  25  45  64  83 116 149 176 212 262
#     4  11  21  31  48  67  83 113 156 193 218 246
#
# _framework density 15.424894999999999
#
# number of rings (size 3 to 8) (size 9 to 14) (size 15 to 20)
#    0.000    2.714    2.857    2.143    0.000    0.857 
#    0.000    2.857    0.000    0.000    0.000    0.000 
#    0.000   10.286    0.000    1.571    0.000    0.000 
#
# Total GULP energy -693936.953560 kJ/mol
# GULP energy per Si atom -12391.731314 kJ/mol
# Density = 1.538979 g / cm^3
# Si number density = 15.424895 Si / 1000 Ang^3
#
#
#
# Elastic Constant Matrix: (Units=GPa)
#
#
# Indices 1 2 3 4 5 6 
#
# 1 33.2574 28.6735 18.2801 0.0000 0.0000 0.0000
# 2 28.6735 119.6980 57.5937 0.0000 0.0000 0.0000
# 3 18.2801 57.5937 85.2731 0.0000 0.0000 0.0000
# 4 0.0000 0.0000 0.0000 22.9810 0.0000 0.0000
# 5 0.0000 0.0000 0.0000 0.0000 11.5930 0.0000
# 6 0.0000 0.0000 0.0000 0.0000 0.0000 14.8661
#
#
#
# Elastic Compliance Matrix: (Units=1/GPa)
#
#
# Indices 1 2 3 4 5 6 
#
# 1 0.038403 -0.007760 -0.002991 0.000000 0.000000 0.000000
# 2 -0.007760 0.013944 -0.007755 0.000000 0.000000 0.000000
# 3 -0.002991 -0.007755 0.017606 0.000000 0.000000 0.000000
# 4 0.000000 0.000000 0.000000 0.043514 0.000000 0.000000
# 5 0.000000 0.000000 0.000000 0.000000 0.086259 0.000000
# 6 0.000000 0.000000 0.000000 0.000000 0.000000 0.067267
#
#
# Mechanical properties :
#
#
# Convention : Reuss Voigt Hill
#
# Bulk Modulus (GPa) = 30.35699 49.70257 40.02978
# Shear Modulus (GPa) = 15.87372 18.80011 17.33691
#
# Velocity S-wave (km/s) = 3.21143 3.49494 3.35618
# Velocity P-wave (km/s) = 5.78570 6.96982 6.40518
#
# Compressibility (1/GPa) = 0.03294134
#
# Stress axis : x y z
#
# Youngs Moduli (GPa) = 26.03949 71.71301 56.79971
#
# Poissons Ratio (x) = 0.55650 0.16990
# Poissons Ratio (y) = 0.20207 0.44046
# Poissons Ratio (z) = 0.07789 0.55610
#
# Static dielectric constant tensor:
#      x y z
#    x 2.434720 0.000000 0.000000 
#    y 0.000000 3.217410 0.000000 
#    z 0.000000 0.000000 2.937030 
# 
# 
# High freq. dielectric constant tensor:
#      x y z
#    x 1.523700 0.000000 0.000000 
#    y 0.000000 1.605720 0.000000 
#    z 0.000000 0.000000 1.585020 
# 
# From -- ./inp_files/47327.got.cif
#   From: 2010.03.12/outbox.cif.g09.slc.cpg/sg63_24_cif.got.tgz:47327.got - 2010.04.10 19:34:48.
