data_PCOD8255014
_publ_section_title
;
Structure prediction by ZEFSAII (Michael W. Deem and Ramdas Pophale) SiO2 
 PCOD8255014
Probable space group: P N M A
;
_chemical_formula_sum "Si O2"
_cell_formula_units_Z 48
_cell_length_a 20.155491
_cell_length_b 8.878288
_cell_length_c 14.768797
_cell_angle_alpha 90.000000
_cell_angle_beta 90.000000
_cell_angle_gamma 90.000000
_cell_volume 2642.820897
_symmetry_space_group_name_H-M "P N M A"
_symmetry_group_IT_number 62
_symmetry_cell_setting 'orthorhombic'
loop_
_space_group_symop_operation_xyz
x,y,z
1/2-x,-y,1/2+z
1/2+x,1/2-y,1/2-z
-x,1/2+y,-z
-x,-y,-z
1/2+x,y,1/2-z
1/2-x,1/2+y,1/2+z
x,1/2-y,z
loop_
_atom_site_type_symbol
_atom_site_label
_atom_site_fract_x
_atom_site_fract_y
_atom_site_fract_z
Si Si1 0.485896 0.077924 0.720782
Si Si2 0.167045 0.923642 0.183988
Si Si3 0.042819 0.573063 0.422479
Si Si4 0.188289 0.071842 0.001081
Si Si5 0.554102 0.572693 0.564657
Si Si6 0.187321 0.928712 0.383892
O O1 0.508757 0.250000 0.707002
O O2 0.412108 0.056902 0.681904
O O3 0.489337 0.032148 0.825800
O O4 0.536292 0.969298 0.667869
O O5 0.186359 0.750000 0.167232
O O6 0.195952 0.983421 0.279821
O O7 0.198818 0.025025 0.105262
O O8 0.043138 0.750000 0.437614
O O9 0.118201 0.509234 0.425386
O O10 0.000000 0.500000 0.500000
O O11 0.178628 0.250000 0.993943
O O12 0.252196 0.015303 0.945103
O O13 0.126161 0.988966 0.957840
O O14 0.500000 0.500000 0.500000
O O15 0.553479 0.750000 0.550289
O O16 0.181956 0.750000 0.380581
#
# Coordination Sequence:
#
# PCOD8255014 Si02
#       6
#     8   8   8   8   8   8
#     4   9  18  34  56  79 107 142 182 224 270 322
#     4   9  17  34  58  77 100 142 186 222 267 321
#     4   9  18  36  60  83 109 144 184 225 272 323
#     4  11  21  35  56  81 111 146 183 226 276 326
#     4  12  23  35  54  82 113 143 180 225 277 331
#     4   8  18  37  57  77 108 148 182 220 273 327
#
# _framework density 18.162410999999999
#
# number of rings (size 3 to 8) (size 9 to 14) (size 15 to 20)
#    0.000    2.333    1.667    4.000    0.000    0.667 
#    3.000    5.833    0.000    0.000    0.000    0.000 
#    0.000    0.000    0.000    0.000    0.000    0.000 
#
# Total GULP energy -595171.289868 kJ/mol
# GULP energy per Si atom -12399.401872 kJ/mol
# Density = 1.812107 g / cm^3
# Si number density = 18.162411 Si / 1000 Ang^3
#
#
#
# Elastic Constant Matrix: (Units=GPa)
#
#
# Indices 1 2 3 4 5 6 
#
# 1 119.1541 48.9449 91.0121 0.0000 0.0000 0.0000
# 2 48.9449 77.3800 54.8054 0.0000 0.0000 0.0000
# 3 91.0121 54.8054 155.2488 0.0000 0.0000 0.0000
# 4 0.0000 0.0000 0.0000 34.4043 0.0000 0.0000
# 5 0.0000 0.0000 0.0000 0.0000 36.0808 0.0000
# 6 0.0000 0.0000 0.0000 0.0000 0.0000 22.7662
#
#
#
# Elastic Compliance Matrix: (Units=1/GPa)
#
#
# Indices 1 2 3 4 5 6 
#
# 1 0.016413 -0.004756 -0.007943 0.000000 0.000000 0.000000
# 2 -0.004756 0.018610 -0.003781 0.000000 0.000000 0.000000
# 3 -0.007943 -0.003781 0.012433 0.000000 0.000000 0.000000
# 4 0.000000 0.000000 0.000000 0.029066 0.000000 0.000000
# 5 0.000000 0.000000 0.000000 0.000000 0.027716 0.000000
# 6 0.000000 0.000000 0.000000 0.000000 0.000000 0.043925
#
#
# Mechanical properties :
#
#
# Convention : Reuss Voigt Hill
#
# Bulk Modulus (GPa) = 68.99079 82.36753 75.67916
# Shear Modulus (GPa) = 26.88833 29.11830 28.00331
#
# Velocity S-wave (km/s) = 3.85182 4.00836 3.93087
# Velocity P-wave (km/s) = 7.60592 8.17751 7.89689
#
# Compressibility (1/GPa) = 0.01449469
#
# Stress axis : x y z
#
# Youngs Moduli (GPa) = 60.92696 53.73520 80.43367
#
# Poissons Ratio (x) = 0.25557 0.63888
# Poissons Ratio (y) = 0.28977 0.30415
# Poissons Ratio (z) = 0.48394 0.20320
#
# Static dielectric constant tensor:
#      x y z
#    x 1.332440 0.000000 0.000000 
#    y 0.000000 3.195300 0.000000 
#    z 0.000000 0.000000 3.629100 
# 
# 
# High freq. dielectric constant tensor:
#      x y z
#    x 1.690630 0.000000 0.000000 
#    y 0.000000 1.686770 0.000000 
#    z 0.000000 0.000000 1.716310 
# 
# From -- ./inp_files/19605.got.cif
#   From: 2010.03.12/outbox.cif.g09.slc.cpg/sg62_10_cif.got.tgz:19605.got - 2010.04.10 19:12:36.
