data_PCOD8255212
_publ_section_title
;
Structure prediction by ZEFSAII (Michael W. Deem and Ramdas Pophale) SiO2 
 PCOD8255212
Probable space group: P N M A
;
_chemical_formula_sum "Si O2"
_cell_formula_units_Z 40
_cell_length_a 8.911955
_cell_length_b 12.880258
_cell_length_c 14.345916
_cell_angle_alpha 90.000000
_cell_angle_beta 90.000000
_cell_angle_gamma 90.000000
_cell_volume 1646.743018
_symmetry_space_group_name_H-M "P N M A"
_symmetry_group_IT_number 62
_symmetry_cell_setting 'orthorhombic'
loop_
_space_group_symop_operation_xyz
x,y,z
1/2-x,-y,1/2+z
1/2+x,1/2-y,1/2-z
-x,1/2+y,-z
-x,-y,-z
1/2+x,y,1/2-z
1/2-x,1/2+y,1/2+z
x,1/2-y,z
loop_
_atom_site_type_symbol
_atom_site_label
_atom_site_fract_x
_atom_site_fract_y
_atom_site_fract_z
Si Si1 0.987671 0.250000 0.977146
Si Si2 0.648288 0.045198 0.168388
Si Si3 0.726292 0.076978 0.514234
Si Si4 0.326182 0.750000 0.938083
Si Si5 0.185756 0.030764 0.668072
Si Si6 0.066485 0.750000 0.423666
Si Si7 0.677375 0.750000 0.288455
O O1 0.951066 0.250000 0.867261
O O2 0.077100 0.355556 0.999627
O O3 0.851298 0.250000 0.049054
O O4 0.614204 0.155465 0.123639
O O5 0.778251 0.986643 0.110060
O O6 0.493462 0.980472 0.173369
O O7 0.724576 0.053634 0.269699
O O8 0.869309 0.151275 0.521736
O O9 0.752315 0.990352 0.435204
O O10 0.391043 0.750000 0.045200
O O11 0.220303 0.147661 0.701571
O O12 0.099181 0.750000 0.313621
#
# Coordination Sequence:
#
# PCOD8255212 Si02
#       7
#     4   8   8   4   8   4   4
#     4  11  30  46  82 116 159 204 263 334 386 484
#     4  12  29  50  79 114 157 208 266 326 393 478
#     4  11  26  51  74 110 162 204 250 325 402 462
#     4  12  28  50  81 110 157 215 266 318 409 480
#     4  12  29  49  82 113 159 207 264 334 397 475
#     4  11  24  49  79 107 160 207 260 323 408 476
#     4  12  28  47  82 117 152 204 275 327 405 476
#
# _framework density 24.290372999999999
#
# number of rings (size 3 to 8) (size 9 to 14) (size 15 to 20)
#    0.000    0.400    4.000    1.800    8.400    7.200 
#    0.000    0.000    0.000    0.000    0.000    0.000 
#    0.000    0.000    0.000    0.000    0.000    0.000 
#
# Total GULP energy -496018.355520 kJ/mol
# GULP energy per Si atom -12400.458888 kJ/mol
# Density = 2.423509 g / cm^3
# Si number density = 24.290373 Si / 1000 Ang^3
#
#
#
# Elastic Constant Matrix: (Units=GPa)
#
#
# Indices 1 2 3 4 5 6 
#
# 1 129.4983 37.4820 50.0184 0.0000 0.0000 0.0000
# 2 37.4820 133.3664 42.9479 0.0000 0.0000 0.0000
# 3 50.0184 42.9479 127.1869 0.0000 0.0000 0.0000
# 4 0.0000 0.0000 0.0000 30.3029 0.0000 0.0000
# 5 0.0000 0.0000 0.0000 0.0000 41.5872 0.0000
# 6 0.0000 0.0000 0.0000 0.0000 0.0000 29.5254
#
#
#
# Elastic Compliance Matrix: (Units=1/GPa)
#
#
# Indices 1 2 3 4 5 6 
#
# 1 0.009411 -0.001630 -0.003150 0.000000 0.000000 0.000000
# 2 -0.001630 0.008695 -0.002295 0.000000 0.000000 0.000000
# 3 -0.003150 -0.002295 0.009876 0.000000 0.000000 0.000000
# 4 0.000000 0.000000 0.000000 0.033000 0.000000 0.000000
# 5 0.000000 0.000000 0.000000 0.000000 0.024046 0.000000
# 6 0.000000 0.000000 0.000000 0.000000 0.000000 0.033869
#
#
# Mechanical properties :
#
#
# Convention : Reuss Voigt Hill
#
# Bulk Modulus (GPa) = 72.30160 72.32757 72.31459
# Shear Modulus (GPa) = 36.32141 37.58999 36.95570
#
# Velocity S-wave (km/s) = 3.87111 3.93813 3.90476
# Velocity P-wave (km/s) = 7.05768 7.10770 7.08273
#
# Compressibility (1/GPa) = 0.01383095
#
# Stress axis : x y z
#
# Youngs Moduli (GPa) = 106.26043 115.00312 101.25147
#
# Poissons Ratio (x) = 0.18749 0.31899
# Poissons Ratio (y) = 0.17324 0.23238
# Poissons Ratio (z) = 0.33477 0.26394
#
# Static dielectric constant tensor:
#      x y z
#    x 4.316790 0.000000 0.000000 
#    y 0.000000 4.696740 0.000000 
#    z 0.000000 0.000000 4.408590 
# 
# 
# High freq. dielectric constant tensor:
#      x y z
#    x 1.968280 0.000000 0.000000 
#    y 0.000000 1.980320 0.000000 
#    z 0.000000 0.000000 1.971310 
# 
# From -- ./inp_files/16725.got.cif
#   From: 2010.03.12/outbox.cif.g09.slc.cpg/sg62_9_cif.got.tgz:16725.got - 2010.04.10 19:12:36.
