data_PCOD8255681
_publ_section_title
;
Structure prediction by ZEFSAII (Michael W. Deem and Ramdas Pophale) SiO2 
 PCOD8255681
Probable space group: C M C M
;
_chemical_formula_sum "Si O2"
_cell_formula_units_Z 96
_cell_length_a 28.623750
_cell_length_b 25.941820
_cell_length_c 9.063959
_cell_angle_alpha 90.000000
_cell_angle_beta 90.000000
_cell_angle_gamma 90.000000
_cell_volume 6730.462426
_symmetry_space_group_name_H-M "C M C M"
_symmetry_group_IT_number 63
_symmetry_cell_setting 'orthorhombic'
loop_
_space_group_symop_operation_xyz
x,y,z
-x,-y,1/2+z
x,-y,-z
-x,y,1/2-z
-x,-y,-z
x,y,1/2-z
-x,y,z
x,-y,1/2+z
1/2+x,1/2+y,z
1/2-x,1/2-y,1/2+z
1/2+x,1/2-y,-z
1/2-x,1/2+y,1/2-z
1/2-x,1/2-y,-z
1/2+x,1/2+y,1/2-z
1/2-x,1/2+y,z
1/2+x,1/2-y,1/2+z
loop_
_atom_site_type_symbol
_atom_site_label
_atom_site_fract_x
_atom_site_fract_y
_atom_site_fract_z
Si Si1 0.949319 0.600323 0.425058
Si Si2 0.140363 0.249626 0.422112
Si Si3 0.052885 0.282981 0.578658
Si Si4 0.145461 0.552453 0.075267
Si Si5 0.807394 0.643967 0.582306
Si Si6 0.779013 0.206465 0.920203
O O1 0.949335 0.601666 0.250000
O O2 0.942105 0.658605 0.481168
O O3 0.907192 0.564709 0.482827
O O4 0.000000 0.579483 0.481894
O O5 0.139600 0.237888 0.250000
O O6 0.087909 0.247410 0.485360
O O7 0.163300 0.304979 0.459175
O O8 0.170389 0.204066 0.500896
O O9 0.066613 0.279763 0.750000
O O10 0.000000 0.263244 0.553482
O O11 0.147457 0.546374 0.250000
O O12 0.162511 0.500000 0.000000
O O13 0.179735 0.598307 0.028379
O O14 0.819079 0.627548 0.750000
O O15 0.751567 0.654157 0.565229
O O16 0.785831 0.221468 0.750000
O O17 0.750000 0.250000 0.000000
#
# Coordination Sequence:
#
# PCOD8255681 Si02
#       6
#    16  16  16  16  16  16
#     4   8  15  28  43  57  72  95 130 169 210 251
#     4  10  18  27  42  63  85 105 129 164 201 243
#     4   9  16  27  43  60  79 106 139 170 203 245
#     4  11  21  31  45  59  75 101 131 169 212 254
#     4   9  18  31  43  58  79 100 127 165 202 242
#     4   9  17  28  43  62  82 102 126 159 199 242
#
# _framework density 14.263507000000001
#
# number of rings (size 3 to 8) (size 9 to 14) (size 15 to 20)
#    0.000    2.667    1.667    3.500    0.000    4.000 
#    0.000    0.000    0.000    1.500    0.000    0.000 
#    0.000    0.000    0.000    0.000    0.000    0.833 
#
# Total GULP energy -594918.997196 kJ/mol
# GULP energy per Si atom -12394.145775 kJ/mol
# Density = 1.423104 g / cm^3
# Si number density = 14.263507 Si / 1000 Ang^3
#
#
#
# Elastic Constant Matrix: (Units=GPa)
#
#
# Indices 1 2 3 4 5 6 
#
# 1 85.1651 35.5983 46.9902 0.0000 0.0000 0.0000
# 2 35.5983 36.7060 27.8709 0.0000 0.0000 0.0000
# 3 46.9902 27.8709 78.4330 0.0000 0.0000 0.0000
# 4 0.0000 0.0000 0.0000 17.1758 0.0000 0.0000
# 5 0.0000 0.0000 0.0000 0.0000 24.0382 0.0000
# 6 0.0000 0.0000 0.0000 0.0000 0.0000 15.6977
#
#
#
# Elastic Compliance Matrix: (Units=1/GPa)
#
#
# Indices 1 2 3 4 5 6 
#
# 1 0.022892 -0.016143 -0.007978 0.000000 0.000000 0.000000
# 2 -0.016143 0.048694 -0.007632 0.000000 0.000000 0.000000
# 3 -0.007978 -0.007632 0.020242 0.000000 0.000000 0.000000
# 4 0.000000 0.000000 0.000000 0.058222 0.000000 0.000000
# 5 0.000000 0.000000 0.000000 0.000000 0.041600 0.000000
# 6 0.000000 0.000000 0.000000 0.000000 0.000000 0.063704
#
#
# Mechanical properties :
#
#
# Convention : Reuss Voigt Hill
#
# Bulk Modulus (GPa) = 35.30926 46.80255 41.05590
# Shear Modulus (GPa) = 15.23000 17.37198 16.30099
#
# Velocity S-wave (km/s) = 3.27120 3.49367 3.38427
# Velocity P-wave (km/s) = 6.25111 7.01130 6.64209
#
# Compressibility (1/GPa) = 0.02832118
#
# Stress axis : x y z
#
# Youngs Moduli (GPa) = 43.68419 20.53638 49.40314
#
# Poissons Ratio (x) = 0.33152 0.39416
# Poissons Ratio (y) = 0.70519 0.37704
# Poissons Ratio (z) = 0.34853 0.15673
#
# Static dielectric constant tensor:
#      x y z
#    x 2.970550 0.000000 0.000000 
#    y 0.000000 2.418130 0.000000 
#    z 0.000000 0.000000 2.746300 
# 
# 
# High freq. dielectric constant tensor:
#      x y z
#    x 1.543850 0.000000 0.000000 
#    y 0.000000 1.485860 0.000000 
#    z 0.000000 0.000000 1.547550 
# 
# From -- ./inp_files/12978.got.cif
#   From: 2010.03.12/outbox.cif.g09.slc.cpg/sg63_7_cif.got.tgz:12978.got - 2010.04.10 19:34:48.
