data_PCOD8255972
_publ_section_title
;
Structure prediction by ZEFSAII (Michael W. Deem and Ramdas Pophale) SiO2 
 PCOD8255972
Probable space group: C M C M
;
_chemical_formula_sum "Si O2"
_cell_formula_units_Z 56
_cell_length_a 14.052006
_cell_length_b 24.075872
_cell_length_c 8.672770
_cell_angle_alpha 90.000000
_cell_angle_beta 90.000000
_cell_angle_gamma 90.000000
_cell_volume 2934.122093
_symmetry_space_group_name_H-M "C M C M"
_symmetry_group_IT_number 63
_symmetry_cell_setting 'orthorhombic'
loop_
_space_group_symop_operation_xyz
x,y,z
-x,-y,1/2+z
x,-y,-z
-x,y,1/2-z
-x,-y,-z
x,y,1/2-z
-x,y,z
x,-y,1/2+z
1/2+x,1/2+y,z
1/2-x,1/2-y,1/2+z
1/2+x,1/2-y,-z
1/2-x,1/2+y,1/2-z
1/2-x,1/2-y,-z
1/2+x,1/2+y,1/2-z
1/2-x,1/2+y,z
1/2+x,1/2-y,1/2+z
loop_
_atom_site_type_symbol
_atom_site_label
_atom_site_fract_x
_atom_site_fract_y
_atom_site_fract_z
Si Si1 0.000000 0.438682 0.933420
Si Si2 0.391704 0.246718 0.429496
Si Si3 0.693200 0.060460 0.568631
Si Si4 0.228120 0.837179 0.929921
O O1 0.000000 0.436341 0.750000
O O2 0.000000 0.500000 0.000000
O O3 0.903175 0.411868 0.997466
O O4 0.378285 0.260051 0.250000
O O5 0.500000 0.229539 0.468239
O O6 0.322638 0.196769 0.479772
O O7 0.364949 0.302213 0.523484
O O8 0.683201 0.053882 0.750000
O O9 0.774781 0.104316 0.521885
O O10 0.716714 0.000000 0.500000
O O11 0.226298 0.850412 0.750000
#
# Coordination Sequence:
#
# PCOD8255972 Si02
#       4
#     8  16  16  16
#     4  10  18  30  46  68 100 136 174 212 255 308
#     4   9  19  36  56  78 106 142 179 221 269 315
#     4  11  21  34  51  75 106 142 179 219 264 319
#     4  10  20  34  54  81 109 141 179 222 266 316
#
# _framework density 19.085775999999999
#
# number of rings (size 3 to 8) (size 9 to 14) (size 15 to 20)
#    0.000    2.000    0.000    6.429    2.000    1.714 
#    0.000    0.000    0.000    0.857    0.000    0.000 
#    0.000    0.000    0.000    0.000    0.000    0.000 
#
# Total GULP energy -347166.351786 kJ/mol
# GULP energy per Si atom -12398.798278 kJ/mol
# Density = 1.904234 g / cm^3
# Si number density = 19.085776 Si / 1000 Ang^3
#
#
#
# Elastic Constant Matrix: (Units=GPa)
#
#
# Indices 1 2 3 4 5 6 
#
# 1 52.1476 13.3271 12.1341 0.0000 0.0000 0.0000
# 2 13.3271 92.0570 37.0181 0.0000 0.0000 0.0000
# 3 12.1341 37.0181 121.2056 0.0000 0.0000 0.0000
# 4 0.0000 0.0000 0.0000 32.1320 0.0000 0.0000
# 5 0.0000 0.0000 0.0000 0.0000 27.5100 0.0000
# 6 0.0000 0.0000 0.0000 0.0000 0.0000 23.6699
#
#
#
# Elastic Compliance Matrix: (Units=1/GPa)
#
#
# Indices 1 2 3 4 5 6 
#
# 1 0.020086 -0.002393 -0.001280 0.000000 0.000000 0.000000
# 2 -0.002393 0.012669 -0.003630 0.000000 0.000000 0.000000
# 3 -0.001280 -0.003630 0.009487 0.000000 0.000000 0.000000
# 4 0.000000 0.000000 0.000000 0.031122 0.000000 0.000000
# 5 0.000000 0.000000 0.000000 0.000000 0.036350 0.000000
# 6 0.000000 0.000000 0.000000 0.000000 0.000000 0.042248
#
#
# Mechanical properties :
#
#
# Convention : Reuss Voigt Hill
#
# Bulk Modulus (GPa) = 36.18433 43.37432 39.77932
# Shear Modulus (GPa) = 28.44478 30.19110 29.31794
#
# Velocity S-wave (km/s) = 3.86471 3.98158 3.92358
# Velocity P-wave (km/s) = 6.23816 6.62666 6.43534
#
# Compressibility (1/GPa) = 0.02763627
#
# Stress axis : x y z
#
# Youngs Moduli (GPa) = 49.78656 78.93359 105.40577
#
# Poissons Ratio (x) = 0.18890 0.13491
# Poissons Ratio (y) = 0.11915 0.38259
# Poissons Ratio (z) = 0.06372 0.28651
#
# Static dielectric constant tensor:
#      x y z
#    x 3.660240 0.000000 0.000000 
#    y 0.000000 3.433020 0.000000 
#    z 0.000000 0.000000 3.468760 
# 
# 
# High freq. dielectric constant tensor:
#      x y z
#    x 1.708970 0.000000 0.000000 
#    y 0.000000 1.740100 0.000000 
#    z 0.000000 0.000000 1.751650 
# 
# From -- ./inp_files/4150.got.cif
#   From: 2010.03.12/outbox.cif.g09.slc.cpg/sg63_3_cif.got.tgz:4150.got - 2010.04.10 19:34:48.
