data_PCOD8255915
_publ_section_title
;
Structure prediction by ZEFSAII (Michael W. Deem and Ramdas Pophale) SiO2 
 PCOD8255915
Probable space group: C M C M
;
_chemical_formula_sum "Si O2"
_cell_formula_units_Z 112
_cell_length_a 25.886476
_cell_length_b 15.852455
_cell_length_c 14.374034
_cell_angle_alpha 90.000000
_cell_angle_beta 90.000000
_cell_angle_gamma 90.000000
_cell_volume 5898.588904
_symmetry_space_group_name_H-M "C M C M"
_symmetry_group_IT_number 63
_symmetry_cell_setting 'orthorhombic'
loop_
_space_group_symop_operation_xyz
x,y,z
-x,-y,1/2+z
x,-y,-z
-x,y,1/2-z
-x,-y,-z
x,y,1/2-z
-x,y,z
x,-y,1/2+z
1/2+x,1/2+y,z
1/2-x,1/2-y,1/2+z
1/2+x,1/2-y,-z
1/2-x,1/2+y,1/2-z
1/2-x,1/2-y,-z
1/2+x,1/2+y,1/2-z
1/2-x,1/2+y,z
1/2+x,1/2-y,1/2+z
loop_
_atom_site_type_symbol
_atom_site_label
_atom_site_fract_x
_atom_site_fract_y
_atom_site_fract_z
Si Si1 0.149772 0.220152 0.357247
Si Si2 0.438743 0.816719 0.448557
Si Si3 0.907519 0.486579 0.145144
Si Si4 0.295992 0.962998 0.646736
Si Si5 0.241739 0.652669 0.647521
Si Si6 0.557320 0.163877 0.150945
Si Si7 0.793119 0.905122 0.523044
O O1 0.149030 0.195055 0.250000
O O2 0.092935 0.253050 0.384013
O O3 0.192624 0.290756 0.379652
O O4 0.162419 0.135464 0.414048
O O5 0.500000 0.800086 0.436851
O O6 0.426520 0.913231 0.422304
O O7 0.418678 0.800558 0.554971
O O8 0.899701 0.449206 0.250000
O O9 0.854497 0.531095 0.110046
O O10 0.948363 0.562282 0.144232
O O11 0.293561 0.922024 0.750000
O O12 0.261956 0.906154 0.577339
O O13 0.274815 0.056584 0.650029
O O14 0.263233 0.679259 0.750000
O O15 0.285805 0.655319 0.567840
O O16 0.586287 0.187866 0.250000
O O17 0.500000 0.200767 0.157170
O O18 0.811471 0.000000 0.500000
#
# Coordination Sequence:
#
# PCOD8255915 Si02
#       7
#    16  16  16  16  16  16  16
#     4  11  22  37  55  79 111 140 173 222 274 320
#     4  11  22  34  54  80 109 148 187 224 274 327
#     4  10  18  29  48  75 109 145 187 231 268 318
#     4   9  17  30  49  76 106 143 183 219 264 318
#     4   9  18  33  51  76 108 139 174 220 269 319
#     4   9  19  33  47  68 102 143 187 232 270 312
#     4  10  21  35  56  78 102 143 181 221 265 322
#
# _framework density 18.987593
#
# number of rings (size 3 to 8) (size 9 to 14) (size 15 to 20)
#    0.000    2.143    1.429    2.143    2.000    4.571 
#    0.000    0.714    0.000    0.429    0.000    0.000 
#    0.000    0.000    0.000    0.000    0.000    0.000 
#
# Total GULP energy -693902.643476 kJ/mol
# GULP energy per Si atom -12391.118634 kJ/mol
# Density = 1.894438 g / cm^3
# Si number density = 18.987593 Si / 1000 Ang^3
#
#
#
# Elastic Constant Matrix: (Units=GPa)
#
#
# Indices 1 2 3 4 5 6 
#
# 1 57.6796 32.1112 30.4610 0.0000 0.0000 0.0000
# 2 32.1112 41.2695 32.8797 0.0000 0.0000 0.0000
# 3 30.4610 32.8797 122.6833 0.0000 0.0000 0.0000
# 4 0.0000 0.0000 0.0000 20.0745 0.0000 0.0000
# 5 0.0000 0.0000 0.0000 0.0000 24.2332 0.0000
# 6 0.0000 0.0000 0.0000 0.0000 0.0000 20.1993
#
#
#
# Elastic Compliance Matrix: (Units=1/GPa)
#
#
# Indices 1 2 3 4 5 6 
#
# 1 0.030819 -0.022739 -0.001558 0.000000 0.000000 0.000000
# 2 -0.022739 0.047586 -0.007108 0.000000 0.000000 0.000000
# 3 -0.001558 -0.007108 0.010443 0.000000 0.000000 0.000000
# 4 0.000000 0.000000 0.000000 0.049814 0.000000 0.000000
# 5 0.000000 0.000000 0.000000 0.000000 0.041266 0.000000
# 6 0.000000 0.000000 0.000000 0.000000 0.000000 0.049507
#
#
# Mechanical properties :
#
#
# Convention : Reuss Voigt Hill
#
# Bulk Modulus (GPa) = 38.40293 45.83736 42.12014
# Shear Modulus (GPa) = 16.61556 21.31342 18.96449
#
# Velocity S-wave (km/s) = 2.96138 3.35400 3.16378
# Velocity P-wave (km/s) = 5.65351 6.26036 5.96466
#
# Compressibility (1/GPa) = 0.02603968
#
# Stress axis : x y z
#
# Youngs Moduli (GPa) = 32.44768 21.01449 95.76007
#
# Poissons Ratio (x) = 0.47784 0.14919
# Poissons Ratio (y) = 0.73781 0.68063
# Poissons Ratio (z) = 0.05055 0.14936
#
# Static dielectric constant tensor:
#      x y z
#    x 3.213070 0.000000 0.000000 
#    y 0.000000 3.046630 0.000000 
#    z 0.000000 0.000000 4.479290 
# 
# 
# High freq. dielectric constant tensor:
#      x y z
#    x 1.703650 0.000000 0.000000 
#    y 0.000000 1.687470 0.000000 
#    z 0.000000 0.000000 1.769940 
# 
# From -- ./inp_files/37943.got.cif
#   From: 2010.03.12/outbox.cif.g09.slc.cpg/sg63_19_cif.got.tgz:37943.got - 2010.04.10 19:34:48.
