data_PCOD8255953
_publ_section_title
;
Structure prediction by ZEFSAII (Michael W. Deem and Ramdas Pophale) SiO2 
 PCOD8255953
Probable space group: C M C M
;
_chemical_formula_sum "Si O2"
_cell_formula_units_Z 104
_cell_length_a 20.188203
_cell_length_b 32.082290
_cell_length_c 8.721126
_cell_angle_alpha 90.000000
_cell_angle_beta 90.000000
_cell_angle_gamma 90.000000
_cell_volume 5648.531882
_symmetry_space_group_name_H-M "C M C M"
_symmetry_group_IT_number 63
_symmetry_cell_setting 'orthorhombic'
loop_
_space_group_symop_operation_xyz
x,y,z
-x,-y,1/2+z
x,-y,-z
-x,y,1/2-z
-x,-y,-z
x,y,1/2-z
-x,y,z
x,-y,1/2+z
1/2+x,1/2+y,z
1/2-x,1/2-y,1/2+z
1/2+x,1/2-y,-z
1/2-x,1/2+y,1/2-z
1/2-x,1/2-y,-z
1/2+x,1/2+y,1/2-z
1/2-x,1/2+y,z
1/2+x,1/2-y,1/2+z
loop_
_atom_site_type_symbol
_atom_site_label
_atom_site_fract_x
_atom_site_fract_y
_atom_site_fract_z
Si Si1 0.269430 0.456321 0.430541
Si Si2 0.192672 0.869022 0.929211
Si Si3 0.866305 0.579923 0.569721
Si Si4 0.318080 0.167420 0.931739
Si Si5 0.924474 0.176033 0.925338
Si Si6 0.425434 0.772693 0.929355
Si Si7 0.000000 0.455350 0.067013
O O1 0.296409 0.500000 0.500000
O O2 0.282349 0.456752 0.250000
O O3 0.304510 0.415236 0.497572
O O4 0.191496 0.452703 0.472452
O O5 0.205346 0.873394 0.750000
O O6 0.244135 0.834590 0.997735
O O7 0.119812 0.851495 0.961833
O O8 0.873664 0.583194 0.750000
O O9 0.851182 0.625359 0.504393
O O10 0.935544 0.566614 0.496379
O O11 0.310385 0.169149 0.750000
O O12 0.365250 0.204837 0.983821
O O13 0.902164 0.168680 0.750000
O O14 0.917124 0.224362 0.968523
O O15 0.000000 0.161635 0.948589
O O16 0.417630 0.781174 0.750000
O O17 0.500000 0.787210 0.981780
O O18 0.000000 0.456104 0.250000
O O19 0.000000 0.500000 0.000000
#
# Coordination Sequence:
#
# PCOD8255953 Si02
#       7
#    16  16  16  16  16  16   8
#     4  10  19  34  54  78 106 139 178 219 266 321
#     4  11  22  36  56  82 111 142 178 224 272 321
#     4   8  17  30  46  67  96 133 173 219 264 308
#     4  10  20  34  52  76 105 142 186 229 273 319
#     4   9  19  38  61  82 108 142 176 215 267 326
#     4   9  19  35  54  78 109 144 182 225 273 324
#     4  10  18  30  44  62  90 124 168 216 264 310
#
# _framework density 18.411864000000001
#
# number of rings (size 3 to 8) (size 9 to 14) (size 15 to 20)
#    0.000    2.462    0.000    4.615    1.077    1.846 
#    0.000    5.385    0.000    0.462    0.000    0.000 
#    0.000    0.000    0.000    0.000    0.000    0.000 
#
# Total GULP energy -644500.773076 kJ/mol
# GULP energy per Si atom -12394.245636 kJ/mol
# Density = 1.836996 g / cm^3
# Si number density = 18.411864 Si / 1000 Ang^3
#
#
#
# Elastic Constant Matrix: (Units=GPa)
#
#
# Indices 1 2 3 4 5 6 
#
# 1 100.2944 51.6902 38.8396 0.0000 0.0000 0.0000
# 2 51.6902 80.4200 45.0327 0.0000 0.0000 0.0000
# 3 38.8396 45.0327 85.7099 0.0000 0.0000 0.0000
# 4 0.0000 0.0000 0.0000 31.1930 0.0000 0.0000
# 5 0.0000 0.0000 0.0000 0.0000 26.2591 0.0000
# 6 0.0000 0.0000 0.0000 0.0000 0.0000 21.2245
#
#
#
# Elastic Compliance Matrix: (Units=1/GPa)
#
#
# Indices 1 2 3 4 5 6 
#
# 1 0.015278 -0.008421 -0.002499 0.000000 0.000000 0.000000
# 2 -0.008421 0.022259 -0.007879 0.000000 0.000000 0.000000
# 3 -0.002499 -0.007879 0.016940 0.000000 0.000000 0.000000
# 4 0.000000 0.000000 0.000000 0.032058 0.000000 0.000000
# 5 0.000000 0.000000 0.000000 0.000000 0.038082 0.000000
# 6 0.000000 0.000000 0.000000 0.000000 0.000000 0.047115
#
#
# Mechanical properties :
#
#
# Convention : Reuss Voigt Hill
#
# Bulk Modulus (GPa) = 59.24559 59.72772 59.48665
# Shear Modulus (GPa) = 23.26035 24.45945 23.85990
#
# Velocity S-wave (km/s) = 3.55820 3.64876 3.60376
# Velocity P-wave (km/s) = 7.00920 7.08953 7.04948
#
# Compressibility (1/GPa) = 0.01687889
#
# Stress axis : x y z
#
# Youngs Moduli (GPa) = 65.45190 44.92478 59.03328
#
# Poissons Ratio (x) = 0.37830 0.14753
# Poissons Ratio (y) = 0.55116 0.46515
# Poissons Ratio (z) = 0.16357 0.35398
#
# Static dielectric constant tensor:
#      x y z
#    x 3.441070 0.000000 0.000000 
#    y 0.000000 3.368340 0.000000 
#    z 0.000000 0.000000 2.601940 
# 
# 
# High freq. dielectric constant tensor:
#      x y z
#    x 1.709570 0.000000 0.000000 
#    y 0.000000 1.709570 0.000000 
#    z 0.000000 0.000000 1.703650 
# 
# From -- ./inp_files/8805.got.cif
#   From: 2010.03.12/outbox.cif.g09.slc.cpg/sg63_5_cif.got.tgz:8805.got - 2010.04.10 19:34:48.
