data_PCOD8255868
_publ_section_title
;
Structure prediction by ZEFSAII (Michael W. Deem and Ramdas Pophale) SiO2 
 PCOD8255868
Probable space group: C M C M
;
_chemical_formula_sum "Si O2"
_cell_formula_units_Z 112
_cell_length_a 13.714660
_cell_length_b 32.033833
_cell_length_c 15.602335
_cell_angle_alpha 90.000000
_cell_angle_beta 90.000000
_cell_angle_gamma 90.000000
_cell_volume 6854.622641
_symmetry_space_group_name_H-M "C M C M"
_symmetry_group_IT_number 63
_symmetry_cell_setting 'orthorhombic'
loop_
_space_group_symop_operation_xyz
x,y,z
-x,-y,1/2+z
x,-y,-z
-x,y,1/2-z
-x,-y,-z
x,y,1/2-z
-x,y,z
x,-y,1/2+z
1/2+x,1/2+y,z
1/2-x,1/2-y,1/2+z
1/2+x,1/2-y,-z
1/2-x,1/2+y,1/2-z
1/2-x,1/2-y,-z
1/2+x,1/2+y,1/2-z
1/2-x,1/2+y,z
1/2+x,1/2-y,1/2+z
loop_
_atom_site_type_symbol
_atom_site_label
_atom_site_fract_x
_atom_site_fract_y
_atom_site_fract_z
Si Si1 0.892011 0.851001 0.148266
Si Si2 0.385677 0.048568 0.505248
Si Si3 0.890623 0.316909 0.386847
Si Si4 0.291490 0.267798 0.348552
Si Si5 0.610299 0.188035 0.085310
Si Si6 0.709430 0.900518 0.153707
Si Si7 0.115725 0.399207 0.655478
O O1 0.893110 0.847999 0.250000
O O2 0.854071 0.806415 0.113234
O O3 0.818107 0.887819 0.121031
O O4 0.000000 0.860333 0.111345
O O5 0.500000 0.057702 0.516120
O O6 0.332259 0.065370 0.589439
O O7 0.343674 0.070295 0.418857
O O8 0.362567 0.000000 0.500000
O O9 0.822959 0.278006 0.359647
O O10 0.886315 0.325905 0.487405
O O11 0.856228 0.359030 0.340780
O O12 0.000000 0.305906 0.357086
O O13 0.317191 0.259302 0.250000
O O14 0.317527 0.226620 0.401381
O O15 0.500000 0.200530 0.112612
O O16 0.648606 0.148468 0.139243
O O17 0.712423 0.919603 0.250000
O O18 0.154304 0.412930 0.750000
O O19 0.000000 0.401622 0.653080
#
# Coordination Sequence:
#
# PCOD8255868 Si02
#       7
#    16  16  16  16  16  16  16
#     4   8  15  28  45  67  96 124 152 194 240 274
#     4  10  20  33  48  69  98 126 154 193 235 279
#     4  10  19  31  45  64  95 130 159 190 227 272
#     4  10  19  28  42  67  93 122 161 196 231 273
#     4  10  18  29  46  65  89 121 158 199 235 270
#     4  10  19  31  50  73  96 126 159 189 231 288
#     4   9  17  30  47  66  89 121 159 194 232 274
#
# _framework density 16.339338999999999
#
# number of rings (size 3 to 8) (size 9 to 14) (size 15 to 20)
#    0.000    2.429    1.429    3.000    0.000    4.000 
#    0.000    1.429    0.000    0.429    0.000    0.000 
#    0.000    0.571    0.000    0.286    0.000    0.000 
#
# Total GULP energy -694278.840744 kJ/mol
# GULP energy per Si atom -12397.836442 kJ/mol
# Density = 1.630215 g / cm^3
# Si number density = 16.339339 Si / 1000 Ang^3
#
#
#
# Elastic Constant Matrix: (Units=GPa)
#
#
# Indices 1 2 3 4 5 6 
#
# 1 94.4377 42.6880 23.3436 0.0000 0.0000 0.0000
# 2 42.6880 90.4855 42.9027 0.0000 0.0000 0.0000
# 3 23.3436 42.9027 86.2817 0.0000 0.0000 0.0000
# 4 0.0000 0.0000 0.0000 19.5164 0.0000 0.0000
# 5 0.0000 0.0000 0.0000 0.0000 15.6290 0.0000
# 6 0.0000 0.0000 0.0000 0.0000 0.0000 18.9988
#
#
#
# Elastic Compliance Matrix: (Units=1/GPa)
#
#
# Indices 1 2 3 4 5 6 
#
# 1 0.013486 -0.006061 -0.000635 0.000000 0.000000 0.000000
# 2 -0.006061 0.017185 -0.006905 0.000000 0.000000 0.000000
# 3 -0.000635 -0.006905 0.015195 0.000000 0.000000 0.000000
# 4 0.000000 0.000000 0.000000 0.051239 0.000000 0.000000
# 5 0.000000 0.000000 0.000000 0.000000 0.063983 0.000000
# 6 0.000000 0.000000 0.000000 0.000000 0.000000 0.052635
#
#
# Mechanical properties :
#
#
# Convention : Reuss Voigt Hill
#
# Bulk Modulus (GPa) = 53.57990 54.34150 53.96070
# Shear Modulus (GPa) = 20.23091 21.64689 20.93890
#
# Velocity S-wave (km/s) = 3.52258 3.64377 3.58369
# Velocity P-wave (km/s) = 7.02908 7.14374 7.08664
#
# Compressibility (1/GPa) = 0.01866371
#
# Stress axis : x y z
#
# Youngs Moduli (GPa) = 74.15294 58.19048 65.81023
#
# Poissons Ratio (x) = 0.35270 0.04177
# Poissons Ratio (y) = 0.44945 0.45443
# Poissons Ratio (z) = 0.04707 0.40182
#
# Static dielectric constant tensor:
#      x y z
#    x 3.135260 0.000000 0.000000 
#    y 0.000000 2.886720 0.000000 
#    z 0.000000 0.000000 3.123990 
# 
# 
# High freq. dielectric constant tensor:
#      x y z
#    x 1.602520 0.000000 0.000000 
#    y 0.000000 1.609070 0.000000 
#    z 0.000000 0.000000 1.628890 
# 
# From -- ./inp_files/32736.got.cif
#   From: 2010.03.12/outbox.cif.g09.slc.cpg/sg63_17_cif.got.tgz:32736.got - 2010.04.10 19:34:48.
