data_PCOD8255842
_publ_section_title
;
Structure prediction by ZEFSAII (Michael W. Deem and Ramdas Pophale) SiO2 
 PCOD8255842
Probable space group: C M C M
;
_chemical_formula_sum "Si O2"
_cell_formula_units_Z 64
_cell_length_a 18.409532
_cell_length_b 26.271931
_cell_length_c 8.570092
_cell_angle_alpha 90.000000
_cell_angle_beta 90.000000
_cell_angle_gamma 90.000000
_cell_volume 4144.958886
_symmetry_space_group_name_H-M "C M C M"
_symmetry_group_IT_number 63
_symmetry_cell_setting 'orthorhombic'
loop_
_space_group_symop_operation_xyz
x,y,z
-x,-y,1/2+z
x,-y,-z
-x,y,1/2-z
-x,-y,-z
x,y,1/2-z
-x,y,z
x,-y,1/2+z
1/2+x,1/2+y,z
1/2-x,1/2-y,1/2+z
1/2+x,1/2-y,-z
1/2-x,1/2+y,1/2-z
1/2-x,1/2-y,-z
1/2+x,1/2+y,1/2-z
1/2-x,1/2+y,z
1/2+x,1/2-y,1/2+z
loop_
_atom_site_type_symbol
_atom_site_label
_atom_site_fract_x
_atom_site_fract_y
_atom_site_fract_z
Si Si1 0.917426 0.752395 0.934097
Si Si2 0.084379 0.945444 0.931752
Si Si3 0.838693 0.150132 0.567042
Si Si4 0.289291 0.799479 0.565579
O O1 0.910629 0.748248 0.750000
O O2 0.000000 0.747084 0.991148
O O3 0.887781 0.807320 0.984489
O O4 0.872924 0.705187 0.010603
O O5 0.103932 0.943287 0.750000
O O6 0.000000 0.933493 0.960759
O O7 0.131484 0.905028 0.025765
O O8 0.105526 0.000000 0.000000
O O9 0.841746 0.159822 0.750000
O O10 0.754737 0.152927 0.507501
O O11 0.284815 0.802237 0.750000
O O12 0.250000 0.750000 0.500000
#
# Coordination Sequence:
#
# PCOD8255842 Si02
#       4
#    16  16  16  16
#     4  10  19  30  44  63  88 116 146 180 217 258
#     4  10  20  33  47  64  87 114 146 183 220 256
#     4  11  20  30  45  63  86 116 149 181 216 258
#     4  10  18  29  44  61  84 112 144 180 216 256
#
# _framework density 15.440441999999999
#
# number of rings (size 3 to 8) (size 9 to 14) (size 15 to 20)
#    0.000    1.750    0.000    9.750    0.000    6.500 
#    0.000    0.000    0.000    0.000    0.000    0.000 
#    0.000    1.000    0.000    3.750    0.000    5.750 
#
# Total GULP energy -396754.567813 kJ/mol
# GULP energy per Si atom -12398.580244 kJ/mol
# Density = 1.540530 g / cm^3
# Si number density = 15.440442 Si / 1000 Ang^3
#
#
#
# Elastic Constant Matrix: (Units=GPa)
#
#
# Indices 1 2 3 4 5 6 
#
# 1 101.4251 41.4213 21.3667 0.0000 0.0000 0.0000
# 2 41.4213 60.8980 11.7109 0.0000 0.0000 0.0000
# 3 21.3667 11.7109 59.3903 0.0000 0.0000 0.0000
# 4 0.0000 0.0000 0.0000 25.1638 0.0000 0.0000
# 5 0.0000 0.0000 0.0000 0.0000 25.5060 0.0000
# 6 0.0000 0.0000 0.0000 0.0000 0.0000 14.8416
#
#
#
# Elastic Compliance Matrix: (Units=1/GPa)
#
#
# Indices 1 2 3 4 5 6 
#
# 1 0.014264 -0.009058 -0.003345 0.000000 0.000000 0.000000
# 2 -0.009058 0.022821 -0.001241 0.000000 0.000000 0.000000
# 3 -0.003345 -0.001241 0.018286 0.000000 0.000000 0.000000
# 4 0.000000 0.000000 0.000000 0.039740 0.000000 0.000000
# 5 0.000000 0.000000 0.000000 0.000000 0.039206 0.000000
# 6 0.000000 0.000000 0.000000 0.000000 0.000000 0.067378
#
#
# Mechanical properties :
#
#
# Convention : Reuss Voigt Hill
#
# Bulk Modulus (GPa) = 35.61148 41.19013 38.40081
# Shear Modulus (GPa) = 20.97801 22.91659 21.94730
#
# Velocity S-wave (km/s) = 3.68997 3.85670 3.77426
# Velocity P-wave (km/s) = 6.42405 6.82399 6.62704
#
# Compressibility (1/GPa) = 0.02808083
#
# Stress axis : x y z
#
# Youngs Moduli (GPa) = 70.10836 43.81959 54.68654
#
# Poissons Ratio (x) = 0.39694 0.18295
# Poissons Ratio (y) = 0.63507 0.06787
# Poissons Ratio (z) = 0.23454 0.05438
#
# Static dielectric constant tensor:
#      x y z
#    x 3.498080 0.000000 0.000000 
#    y 0.000000 2.853590 0.000000 
#    z 0.000000 0.000000 3.115670 
# 
# 
# High freq. dielectric constant tensor:
#      x y z
#    x 1.586510 0.000000 0.000000 
#    y 0.000000 1.555310 0.000000 
#    z 0.000000 0.000000 1.617570 
# 
# From -- ./inp_files/6010.got.cif
#   From: 2010.03.12/outbox.cif.g09.slc.cpg/sg63_4_cif.got.tgz:6010.got - 2010.04.10 19:34:48.
