data_PCOD8255473
_publ_section_title
;
Structure prediction by ZEFSAII (Michael W. Deem and Ramdas Pophale) SiO2 
 PCOD8255473
Probable space group: C M C M
;
_chemical_formula_sum "Si O2"
_cell_formula_units_Z 80
_cell_length_a 8.972239
_cell_length_b 28.162200
_cell_length_c 20.115521
_cell_angle_alpha 90.000000
_cell_angle_beta 90.000000
_cell_angle_gamma 90.000000
_cell_volume 5082.749397
_symmetry_space_group_name_H-M "C M C M"
_symmetry_group_IT_number 63
_symmetry_cell_setting 'orthorhombic'
loop_
_space_group_symop_operation_xyz
x,y,z
-x,-y,1/2+z
x,-y,-z
-x,y,1/2-z
-x,-y,-z
x,y,1/2-z
-x,y,z
x,-y,1/2+z
1/2+x,1/2+y,z
1/2-x,1/2-y,1/2+z
1/2+x,1/2-y,-z
1/2-x,1/2+y,1/2-z
1/2-x,1/2-y,-z
1/2+x,1/2+y,1/2-z
1/2-x,1/2+y,z
1/2+x,1/2-y,1/2+z
loop_
_atom_site_type_symbol
_atom_site_label
_atom_site_fract_x
_atom_site_fract_y
_atom_site_fract_z
Si Si1 0.835031 0.618018 0.960814
Si Si2 0.833858 0.633605 0.105661
Si Si3 0.824345 0.484044 0.072210
Si Si4 0.824294 0.200334 0.015462
Si Si5 0.671253 0.447215 0.826454
O O1 0.784915 0.572114 0.918866
O O2 0.000000 0.635194 0.938072
O O3 0.844154 0.601385 0.038645
O O4 0.720863 0.662676 0.956626
O O5 0.740503 0.681232 0.086293
O O6 0.752209 0.603161 0.161944
O O7 0.000000 0.647751 0.130278
O O8 0.740120 0.510681 0.130664
O O9 0.000000 0.492964 0.079526
O O10 0.766096 0.500000 0.000000
O O11 0.000000 0.206046 0.019297
O O12 0.750000 0.250000 0.000000
O O13 0.690836 0.461515 0.750000
O O14 0.500000 0.440704 0.846529
#
# Coordination Sequence:
#
# PCOD8255473 Si02
#       5
#    16  16  16  16  16
#     4   8  16  28  44  68  94 120 155 198 241 285
#     4   9  17  31  47  66  93 125 160 199 244 290
#     4  10  17  30  50  69  92 123 161 202 242 287
#     4  10  17  27  45  70  99 125 152 190 238 287
#     4  11  23  34  45  68 101 134 168 204 244 296
#
# _framework density 15.739513000000001
#
# number of rings (size 3 to 8) (size 9 to 14) (size 15 to 20)
#    1.200    1.200    2.000    2.400    0.000    2.800 
#    0.000    0.000    0.000    0.000    0.000    1.400 
#    0.000    4.800    0.000    0.000    0.000    0.000 
#
# Total GULP energy -495550.046723 kJ/mol
# GULP energy per Si atom -12388.751168 kJ/mol
# Density = 1.570369 g / cm^3
# Si number density = 15.739513 Si / 1000 Ang^3
#
#
#
# Elastic Constant Matrix: (Units=GPa)
#
#
# Indices 1 2 3 4 5 6 
#
# 1 130.6261 67.5950 34.7179 0.0000 0.0000 0.0000
# 2 67.5950 108.7318 37.4140 0.0000 0.0000 0.0000
# 3 34.7179 37.4140 50.4062 0.0000 0.0000 0.0000
# 4 0.0000 0.0000 0.0000 18.6974 0.0000 0.0000
# 5 0.0000 0.0000 0.0000 0.0000 20.1199 0.0000
# 6 0.0000 0.0000 0.0000 0.0000 0.0000 30.3018
#
#
#
# Elastic Compliance Matrix: (Units=1/GPa)
#
#
# Indices 1 2 3 4 5 6 
#
# 1 0.011750 -0.006070 -0.003587 0.000000 0.000000 0.000000
# 2 -0.006070 0.015488 -0.007315 0.000000 0.000000 0.000000
# 3 -0.003587 -0.007315 0.027739 0.000000 0.000000 0.000000
# 4 0.000000 0.000000 0.000000 0.053483 0.000000 0.000000
# 5 0.000000 0.000000 0.000000 0.000000 0.049702 0.000000
# 6 0.000000 0.000000 0.000000 0.000000 0.000000 0.033001
#
#
# Mechanical properties :
#
#
# Convention : Reuss Voigt Hill
#
# Bulk Modulus (GPa) = 47.54654 63.24642 55.39648
# Shear Modulus (GPa) = 21.54073 23.82631 22.68352
#
# Velocity S-wave (km/s) = 3.70344 3.89497 3.80041
# Velocity P-wave (km/s) = 6.96859 7.77805 7.38442
#
# Compressibility (1/GPa) = 0.02103203
#
# Stress axis : x y z
#
# Youngs Moduli (GPa) = 85.10605 64.56803 36.05037
#
# Poissons Ratio (x) = 0.39194 0.12933
# Poissons Ratio (y) = 0.51661 0.26370
# Poissons Ratio (z) = 0.30531 0.47229
#
# Static dielectric constant tensor:
#      x y z
#    x 3.030350 0.000000 0.000000 
#    y 0.000000 2.897840 0.000000 
#    z 0.000000 0.000000 2.582600 
# 
# 
# High freq. dielectric constant tensor:
#      x y z
#    x 1.614350 0.000000 0.000000 
#    y 0.000000 1.600540 0.000000 
#    z 0.000000 0.000000 1.550600 
# 
# From -- ./inp_files/51565.got.cif
#   From: 2010.03.12/outbox.cif.g09.slc.cpg/sg63_26_cif.got.tgz:51565.got - 2010.04.10 19:34:48.
