data_PCOD8255025
_publ_section_title
;
Structure prediction by ZEFSAII (Michael W. Deem and Ramdas Pophale) SiO2 
 PCOD8255025
Probable space group: P N M A
;
_chemical_formula_sum "Si O2"
_cell_formula_units_Z 48
_cell_length_a 28.130616
_cell_length_b 17.160067
_cell_length_c 4.907885
_cell_angle_alpha 90.000000
_cell_angle_beta 90.000000
_cell_angle_gamma 90.000000
_cell_volume 2369.150224
_symmetry_space_group_name_H-M "P N M A"
_symmetry_group_IT_number 62
_symmetry_cell_setting 'orthorhombic'
loop_
_space_group_symop_operation_xyz
x,y,z
1/2-x,-y,1/2+z
1/2+x,1/2-y,1/2-z
-x,1/2+y,-z
-x,-y,-z
1/2+x,y,1/2-z
1/2-x,1/2+y,1/2+z
x,1/2-y,z
loop_
_atom_site_type_symbol
_atom_site_label
_atom_site_fract_x
_atom_site_fract_y
_atom_site_fract_z
Si Si1 0.398464 0.086675 0.417062
Si Si2 0.698099 0.551971 0.804109
Si Si3 0.556429 0.839208 0.081310
Si Si4 0.900794 0.590978 0.893325
Si Si5 0.948444 0.838408 0.395202
Si Si6 0.800982 0.946164 0.809826
O O1 0.406901 0.140284 0.678858
O O2 0.345868 0.105364 0.293379
O O3 0.404877 0.997207 0.501267
O O4 0.436047 0.106908 0.182263
O O5 0.700015 0.475017 0.620092
O O6 0.749532 0.595492 0.762042
O O7 0.690668 0.520933 0.111798
O O8 0.564739 0.750000 0.994564
O O9 0.503016 0.853563 0.188263
O O10 0.915544 0.648723 0.133253
O O11 0.935022 0.602697 0.636514
O O12 0.846716 0.610675 0.791763
O O13 0.941108 0.750000 0.497487
#
# Coordination Sequence:
#
# PCOD8255025 Si02
#       6
#     8   8   8   8   8   8
#     4  11  21  36  60  87 110 138 187 239 272 311
#     4   9  17  31  53  82 113 141 173 220 277 330
#     4  11  24  40  56  77 112 155 187 219 278 342
#     4  11  21  36  60  87 110 138 187 239 272 311
#     4  11  24  40  56  77 112 155 187 219 278 342
#     4   9  17  31  53  82 113 141 173 220 277 330
#
# _framework density 20.260429999999999
#
# number of rings (size 3 to 8) (size 9 to 14) (size 15 to 20)
#    0.000    1.667    0.000    7.000    0.000    6.667 
#    0.000    0.000    0.000    6.000    0.000    0.000 
#    0.000    0.000    0.000    0.000    0.000    0.000 
#
# Total GULP energy -594988.361075 kJ/mol
# GULP energy per Si atom -12395.590856 kJ/mol
# Density = 2.021432 g / cm^3
# Si number density = 20.260430 Si / 1000 Ang^3
#
#
#
# Elastic Constant Matrix: (Units=GPa)
#
#
# Indices 1 2 3 4 5 6 
#
# 1 135.0881 55.8585 31.7914 0.0000 0.0000 0.0000
# 2 55.8585 48.6630 16.2002 0.0000 0.0000 0.0000
# 3 31.7914 16.2002 93.0319 0.0000 0.0000 0.0000
# 4 0.0000 0.0000 0.0000 22.1314 0.0000 0.0000
# 5 0.0000 0.0000 0.0000 0.0000 35.9532 0.0000
# 6 0.0000 0.0000 0.0000 0.0000 0.0000 4.4277
#
#
#
# Elastic Compliance Matrix: (Units=1/GPa)
#
#
# Indices 1 2 3 4 5 6 
#
# 1 0.014496 -0.015913 -0.002183 0.000000 0.000000 0.000000
# 2 -0.015913 0.039282 -0.001403 0.000000 0.000000 0.000000
# 3 -0.002183 -0.001403 0.011739 0.000000 0.000000 0.000000
# 4 0.000000 0.000000 0.000000 0.045185 0.000000 0.000000
# 5 0.000000 0.000000 0.000000 0.000000 0.027814 0.000000
# 6 0.000000 0.000000 0.000000 0.000000 0.000000 0.225853
#
#
# Mechanical properties :
#
#
# Convention : Reuss Voigt Hill
#
# Bulk Modulus (GPa) = 37.70582 53.83147 45.76864
# Shear Modulus (GPa) = 12.12983 24.03132 18.08058
#
# Velocity S-wave (km/s) = 2.44948 3.44775 2.99056
# Velocity P-wave (km/s) = 5.16245 6.51742 5.87910
#
# Compressibility (1/GPa) = 0.02652111
#
# Stress axis : x y z
#
# Youngs Moduli (GPa) = 68.98336 25.45671 85.18522
#
# Poissons Ratio (x) = 0.40509 0.18594
# Poissons Ratio (y) = 1.09774 0.11948
# Poissons Ratio (z) = 0.15057 0.03570
#
# Static dielectric constant tensor:
#      x y z
#    x 4.305880 0.000000 0.000000 
#    y 0.000000 3.219570 0.000000 
#    z 0.000000 0.000000 3.833390 
# 
# 
# High freq. dielectric constant tensor:
#      x y z
#    x 1.812660 0.000000 0.000000 
#    y 0.000000 1.731630 0.000000 
#    z 0.000000 0.000000 1.812520 
# 
# From -- ./inp_files/3244.got.cif
#   From: 2010.03.12/outbox.cif.g09.slc.cpg/sg62_2_cif.got.tgz:3244.got - 2010.04.10 19:12:36.
