data_PCOD8255017
_publ_section_title
;
Structure prediction by ZEFSAII (Michael W. Deem and Ramdas Pophale) SiO2 
 PCOD8255017
Probable space group: P N M A
;
_chemical_formula_sum "Si O2"
_cell_formula_units_Z 56
_cell_length_a 22.520791
_cell_length_b 8.713611
_cell_length_c 14.331778
_cell_angle_alpha 90.000000
_cell_angle_beta 90.000000
_cell_angle_gamma 90.000000
_cell_volume 2812.431027
_symmetry_space_group_name_H-M "P N M A"
_symmetry_group_IT_number 62
_symmetry_cell_setting 'orthorhombic'
loop_
_space_group_symop_operation_xyz
x,y,z
1/2-x,-y,1/2+z
1/2+x,1/2-y,1/2-z
-x,1/2+y,-z
-x,-y,-z
1/2+x,y,1/2-z
1/2-x,1/2+y,1/2+z
x,1/2-y,z
loop_
_atom_site_type_symbol
_atom_site_label
_atom_site_fract_x
_atom_site_fract_y
_atom_site_fract_z
Si Si1 0.785555 0.073308 0.394991
Si Si2 0.503213 0.570246 0.102270
Si Si3 0.611125 0.072903 0.203812
Si Si4 0.655605 0.430639 0.398190
Si Si5 0.896414 0.431260 0.283293
Si Si6 0.283523 0.075576 0.890809
Si Si7 0.354052 0.929232 0.396911
O O1 0.782901 0.250000 0.366028
O O2 0.720886 0.995992 0.376530
O O3 0.837588 0.997390 0.332804
O O4 0.803122 0.053070 0.502515
O O5 0.494770 0.750000 0.092567
O O6 0.566688 0.535627 0.148404
O O7 0.453704 0.503113 0.169577
O O8 0.500000 0.500000 0.000000
O O9 0.594434 0.250000 0.186676
O O10 0.609629 0.033657 0.314877
O O11 0.678121 0.041967 0.170157
O O12 0.667243 0.250000 0.410310
O O13 0.630374 0.488448 0.497959
O O14 0.901196 0.250000 0.295143
O O15 0.894978 0.476271 0.174391
O O16 0.296205 0.250000 0.859279
O O17 0.214779 0.034541 0.876544
O O18 0.368037 0.750000 0.385020
#
# Coordination Sequence:
#
# PCOD8255017 Si02
#       7
#     8   8   8   8   8   8   8
#     4   8  15  29  51  79 111 145 178 218 271 326
#     4  12  26  44  62  82 110 143 182 227 277 334
#     4  11  21  35  57  83 110 145 190 235 282 333
#     4   8  16  32  54  80 111 146 183 224 272 326
#     4  11  21  35  57  84 113 147 188 232 281 334
#     4   9  17  31  53  81 114 151 187 226 277 334
#     4   9  18  34  55  81 114 151 189 230 278 329
#
# _framework density 19.9116
#
# number of rings (size 3 to 8) (size 9 to 14) (size 15 to 20)
#    0.000    2.286    0.000    5.571    0.000    2.857 
#    0.000    2.857    0.000    3.429    0.000    0.000 
#    0.000    0.000    0.000    0.000    0.000    0.000 
#
# Total GULP energy -694277.695595 kJ/mol
# GULP energy per Si atom -12397.815993 kJ/mol
# Density = 1.986628 g / cm^3
# Si number density = 19.911600 Si / 1000 Ang^3
#
#
#
# Elastic Constant Matrix: (Units=GPa)
#
#
# Indices 1 2 3 4 5 6 
#
# 1 63.5811 28.3281 55.8020 0.0000 0.0000 0.0000
# 2 28.3281 70.6735 40.2515 0.0000 0.0000 0.0000
# 3 55.8020 40.2515 128.6440 0.0000 0.0000 0.0000
# 4 0.0000 0.0000 0.0000 27.7208 0.0000 0.0000
# 5 0.0000 0.0000 0.0000 0.0000 32.6852 0.0000
# 6 0.0000 0.0000 0.0000 0.0000 0.0000 28.2371
#
#
#
# Elastic Compliance Matrix: (Units=1/GPa)
#
#
# Indices 1 2 3 4 5 6 
#
# 1 0.026779 -0.005011 -0.010048 0.000000 0.000000 0.000000
# 2 -0.005011 0.018156 -0.003507 0.000000 0.000000 0.000000
# 3 -0.010048 -0.003507 0.013229 0.000000 0.000000 0.000000
# 4 0.000000 0.000000 0.000000 0.036074 0.000000 0.000000
# 5 0.000000 0.000000 0.000000 0.000000 0.030595 0.000000
# 6 0.000000 0.000000 0.000000 0.000000 0.000000 0.035414
#
#
# Mechanical properties :
#
#
# Convention : Reuss Voigt Hill
#
# Bulk Modulus (GPa) = 47.54751 56.85134 52.19942
# Shear Modulus (GPa) = 24.46292 26.96308 25.71300
#
# Velocity S-wave (km/s) = 3.50891 3.68386 3.59745
# Velocity P-wave (km/s) = 6.35199 6.83434 6.59757
#
# Compressibility (1/GPa) = 0.02103160
#
# Stress axis : x y z
#
# Youngs Moduli (GPa) = 37.34209 55.07937 75.58962
#
# Poissons Ratio (x) = 0.27601 0.75954
# Poissons Ratio (y) = 0.18713 0.26510
# Poissons Ratio (z) = 0.37522 0.19317
#
# Static dielectric constant tensor:
#      x y z
#    x 3.490150 0.000000 0.000000 
#    y 0.000000 3.289250 0.000000 
#    z 0.000000 0.000000 4.005920 
# 
# 
# High freq. dielectric constant tensor:
#      x y z
#    x 1.760350 0.000000 0.000000 
#    y 0.000000 1.747090 0.000000 
#    z 0.000000 0.000000 1.792600 
# 
# From -- ./inp_files/20406.got.cif
#   From: 2010.03.12/outbox.cif.g09.slc.cpg/sg62_11_cif.got.tgz:20406.got - 2010.04.10 19:12:36.
