data_PCOD8255771
_publ_section_title
;
Structure prediction by ZEFSAII (Michael W. Deem and Ramdas Pophale) SiO2 
 PCOD8255771
Probable space group: C M C M
;
_chemical_formula_sum "Si O2"
_cell_formula_units_Z 80
_cell_length_a 8.849088
_cell_length_b 27.879404
_cell_length_c 18.372774
_cell_angle_alpha 90.000000
_cell_angle_beta 90.000000
_cell_angle_gamma 90.000000
_cell_volume 4532.697456
_symmetry_space_group_name_H-M "C M C M"
_symmetry_group_IT_number 63
_symmetry_cell_setting 'orthorhombic'
loop_
_space_group_symop_operation_xyz
x,y,z
-x,-y,1/2+z
x,-y,-z
-x,y,1/2-z
-x,-y,-z
x,y,1/2-z
-x,y,z
x,-y,1/2+z
1/2+x,1/2+y,z
1/2-x,1/2-y,1/2+z
1/2+x,1/2-y,-z
1/2-x,1/2+y,1/2-z
1/2-x,1/2-y,-z
1/2+x,1/2+y,1/2-z
1/2-x,1/2+y,z
1/2+x,1/2-y,1/2+z
loop_
_atom_site_type_symbol
_atom_site_label
_atom_site_fract_x
_atom_site_fract_y
_atom_site_fract_z
Si Si1 0.679134 0.148899 0.536567
Si Si2 0.679307 0.210210 0.830864
Si Si3 0.321377 0.309809 0.602702
Si Si4 0.177876 0.550038 0.474104
Si Si5 0.325086 0.100462 0.168894
O O1 0.500000 0.151717 0.527451
O O2 0.731076 0.166705 0.616353
O O3 0.748660 0.184179 0.476556
O O4 0.737458 0.094429 0.523441
O O5 0.747061 0.201561 0.750000
O O6 0.500000 0.212187 0.826441
O O7 0.739349 0.260345 0.863010
O O8 0.500000 0.309713 0.594129
O O9 0.273200 0.352173 0.656979
O O10 0.254275 0.500000 0.500000
O O11 0.220696 0.559611 0.389586
O O12 0.000000 0.545940 0.484354
O O13 0.295054 0.080276 0.250000
O O14 0.500000 0.114559 0.157456
#
# Coordination Sequence:
#
# PCOD8255771 Si02
#       5
#    16  16  16  16  16
#     4   9  17  30  47  64  86 117 149 181 216 258
#     4   9  17  28  42  63  90 117 145 178 216 257
#     4  10  18  28  45  66  89 116 145 179 217 258
#     4   8  14  26  44  64  85 110 141 177 216 255
#     4   9  17  29  45  66  91 116 144 181 222 261
#
# _framework density 17.649533999999999
#
# number of rings (size 3 to 8) (size 9 to 14) (size 15 to 20)
#    0.000    3.000    0.000    3.000    0.000    1.200 
#    0.000    2.000    0.000   18.600    0.000    0.000 
#    0.000    0.000    0.000    0.000    0.000    0.000 
#
# Total GULP energy -495771.183699 kJ/mol
# GULP energy per Si atom -12394.279592 kJ/mol
# Density = 1.760936 g / cm^3
# Si number density = 17.649534 Si / 1000 Ang^3
#
#
#
# Elastic Constant Matrix: (Units=GPa)
#
#
# Indices 1 2 3 4 5 6 
#
# 1 22.3382 12.1015 16.9114 0.0000 0.0000 0.0000
# 2 12.1015 132.7894 97.9812 0.0000 0.0000 0.0000
# 3 16.9114 97.9812 174.2730 0.0000 0.0000 0.0000
# 4 0.0000 0.0000 0.0000 23.0672 0.0000 0.0000
# 5 0.0000 0.0000 0.0000 0.0000 18.0037 0.0000
# 6 0.0000 0.0000 0.0000 0.0000 0.0000 15.9340
#
#
#
# Elastic Compliance Matrix: (Units=1/GPa)
#
#
# Indices 1 2 3 4 5 6 
#
# 1 0.048519 -0.001619 -0.003798 0.000000 0.000000 0.000000
# 2 -0.001619 0.012924 -0.007109 0.000000 0.000000 0.000000
# 3 -0.003798 -0.007109 0.010104 0.000000 0.000000 0.000000
# 4 0.000000 0.000000 0.000000 0.043352 0.000000 0.000000
# 5 0.000000 0.000000 0.000000 0.000000 0.055544 0.000000
# 6 0.000000 0.000000 0.000000 0.000000 0.000000 0.062759
#
#
# Mechanical properties :
#
#
# Convention : Reuss Voigt Hill
#
# Bulk Modulus (GPa) = 21.50820 64.82098 43.16459
# Shear Modulus (GPa) = 18.26477 24.89474 21.57975
#
# Velocity S-wave (km/s) = 3.22041 3.75974 3.50048
# Velocity P-wave (km/s) = 5.10302 7.46016 6.39120
#
# Compressibility (1/GPa) = 0.04649390
#
# Stress axis : x y z
#
# Youngs Moduli (GPa) = 20.61051 77.37664 98.97531
#
# Poissons Ratio (x) = 0.12530 0.37589
# Poissons Ratio (y) = 0.03338 0.70361
# Poissons Ratio (z) = 0.07827 0.55007
#
# Static dielectric constant tensor:
#      x y z
#    x 2.888270 0.000000 0.000000 
#    y 0.000000 3.460440 0.000000 
#    z 0.000000 0.000000 3.573920 
# 
# 
# High freq. dielectric constant tensor:
#      x y z
#    x 1.640730 0.000000 0.000000 
#    y 0.000000 1.670210 0.000000 
#    z 0.000000 0.000000 1.690560 
# 
# From -- ./inp_files/40470.got.cif
#   From: 2010.03.12/outbox.cif.g09.slc.cpg/sg63_21_cif.got.tgz:40470.got - 2010.04.10 19:34:48.
