data_PCOD8255170
_publ_section_title
;
Structure prediction by ZEFSAII (Michael W. Deem and Ramdas Pophale) SiO2 
 PCOD8255170
Probable space group: P N M A
;
_chemical_formula_sum "Si O2"
_cell_formula_units_Z 32
_cell_length_a 11.791490
_cell_length_b 8.499379
_cell_length_c 15.256122
_cell_angle_alpha 90.000000
_cell_angle_beta 90.000000
_cell_angle_gamma 90.000000
_cell_volume 1528.973772
_symmetry_space_group_name_H-M "P N M A"
_symmetry_group_IT_number 62
_symmetry_cell_setting 'orthorhombic'
loop_
_space_group_symop_operation_xyz
x,y,z
1/2-x,-y,1/2+z
1/2+x,1/2-y,1/2-z
-x,1/2+y,-z
-x,-y,-z
1/2+x,y,1/2-z
1/2-x,1/2+y,1/2+z
x,1/2-y,z
loop_
_atom_site_type_symbol
_atom_site_label
_atom_site_fract_x
_atom_site_fract_y
_atom_site_fract_z
Si Si1 0.767053 0.431856 0.175378
Si Si2 0.875661 0.434254 0.518684
Si Si3 0.765101 0.428580 0.861577
Si Si4 0.982235 0.930765 0.093922
O O1 0.742205 0.250000 0.192712
O O2 0.775998 0.522226 0.266561
O O3 0.891059 0.455250 0.136476
O O4 0.670978 0.494826 0.109479
O O5 0.884976 0.250000 0.531769
O O6 0.790352 0.468411 0.438511
O O7 0.000000 0.500000 0.500000
O O8 0.728420 0.250000 0.881299
O O9 0.900037 0.445831 0.855419
O O10 0.938856 0.750000 0.091096
O O11 0.000000 0.000000 0.000000
#
# Coordination Sequence:
#
# PCOD8255170 Si02
#       4
#     8   8   8   8
#     4  12  26  44  68  99 136 177 223 272 330 395
#     4  12  26  46  70  97 135 177 221 274 333 397
#     4  11  25  45  69  99 134 175 223 274 331 393
#     4  11  23  42  70  98 132 172 220 275 331 391
#
# _framework density 20.929069999999999
#
# number of rings (size 3 to 8) (size 9 to 14) (size 15 to 20)
#    0.000    0.500    2.500    6.000    3.500    3.000 
#    0.000    0.000    0.000    0.000    0.000    0.000 
#    0.000    0.000    0.000    0.000    0.000    0.000 
#
# Total GULP energy -396915.403294 kJ/mol
# GULP energy per Si atom -12403.606353 kJ/mol
# Density = 2.088143 g / cm^3
# Si number density = 20.929070 Si / 1000 Ang^3
#
#
#
# Elastic Constant Matrix: (Units=GPa)
#
#
# Indices 1 2 3 4 5 6 
#
# 1 69.9893 48.1865 0.2359 0.0000 0.0000 0.0000
# 2 48.1865 55.5826 -6.3213 0.0000 0.0000 0.0000
# 3 0.2359 -6.3213 80.2266 0.0000 0.0000 0.0000
# 4 0.0000 0.0000 0.0000 38.4097 0.0000 0.0000
# 5 0.0000 0.0000 0.0000 0.0000 35.1580 0.0000
# 6 0.0000 0.0000 0.0000 0.0000 0.0000 38.1845
#
#
#
# Elastic Compliance Matrix: (Units=1/GPa)
#
#
# Indices 1 2 3 4 5 6 
#
# 1 0.035966 -0.031474 -0.002586 0.000000 0.000000 0.000000
# 2 -0.031474 0.045698 0.003693 0.000000 0.000000 0.000000
# 3 -0.002586 0.003693 0.012763 0.000000 0.000000 0.000000
# 4 0.000000 0.000000 0.000000 0.026035 0.000000 0.000000
# 5 0.000000 0.000000 0.000000 0.000000 0.028443 0.000000
# 6 0.000000 0.000000 0.000000 0.000000 0.000000 0.026189
#
#
# Mechanical properties :
#
#
# Convention : Reuss Voigt Hill
#
# Bulk Modulus (GPa) = 29.67964 32.22231 30.95098
# Shear Modulus (GPa) = 20.23809 33.26359 26.75084
#
# Velocity S-wave (km/s) = 3.11301 3.99099 3.57902
# Velocity P-wave (km/s) = 5.20893 6.05530 5.64799
#
# Compressibility (1/GPa) = 0.03369313
#
# Stress axis : x y z
#
# Youngs Moduli (GPa) = 27.80384 21.88303 78.34964
#
# Poissons Ratio (x) = 0.68876 0.20259
# Poissons Ratio (y) = 0.87511 -0.28936
# Poissons Ratio (z) = 0.07189 -0.08082
#
# Static dielectric constant tensor:
#      x y z
#    x 3.666870 0.000000 0.000000 
#    y 0.000000 4.001590 0.000000 
#    z 0.000000 0.000000 3.732050 
# 
# 
# High freq. dielectric constant tensor:
#      x y z
#    x 1.832760 0.000000 0.000000 
#    y 0.000000 1.836680 0.000000 
#    z 0.000000 0.000000 1.830880 
# 
# From -- ./inp_files/17573.got.cif
#   From: 2010.03.12/outbox.cif.g09.slc.cpg/sg62_9_cif.got.tgz:17573.got - 2010.04.10 19:12:36.
