data_PCOD8255800
_publ_section_title
;
Structure prediction by ZEFSAII (Michael W. Deem and Ramdas Pophale) SiO2 
 PCOD8255800
Probable space group: C M C M
;
_chemical_formula_sum "Si O2"
_cell_formula_units_Z 96
_cell_length_a 8.764984
_cell_length_b 22.473734
_cell_length_c 27.171611
_cell_angle_alpha 90.000000
_cell_angle_beta 90.000000
_cell_angle_gamma 90.000000
_cell_volume 5352.316075
_symmetry_space_group_name_H-M "C M C M"
_symmetry_group_IT_number 63
_symmetry_cell_setting 'orthorhombic'
loop_
_space_group_symop_operation_xyz
x,y,z
-x,-y,1/2+z
x,-y,-z
-x,y,1/2-z
-x,-y,-z
x,y,1/2-z
-x,y,z
x,-y,1/2+z
1/2+x,1/2+y,z
1/2-x,1/2-y,1/2+z
1/2+x,1/2-y,-z
1/2-x,1/2+y,1/2-z
1/2-x,1/2-y,-z
1/2+x,1/2+y,1/2-z
1/2-x,1/2+y,z
1/2+x,1/2-y,1/2+z
loop_
_atom_site_type_symbol
_atom_site_label
_atom_site_fract_x
_atom_site_fract_y
_atom_site_fract_z
Si Si1 0.325462 0.142008 0.250000
Si Si2 0.320835 0.039697 0.952772
Si Si3 0.174126 0.161505 0.521481
Si Si4 0.178561 0.017873 0.142438
Si Si5 0.671911 0.216065 0.070300
Si Si6 0.178557 0.016754 0.250000
Si Si7 0.173674 0.843979 0.656421
O O1 0.500000 0.122182 0.250000
O O2 0.213631 0.086042 0.250000
O O3 0.283070 0.178103 0.299141
O O4 0.500000 0.052637 0.953492
O O5 0.228218 0.100792 0.953882
O O6 0.278108 0.008722 0.901412
O O7 0.273115 0.000000 0.000000
O O8 0.286070 0.177498 0.477257
O O9 0.185366 0.213536 0.561772
O O10 0.000000 0.155166 0.502488
O O11 0.235688 0.991432 0.196513
O O12 0.208620 0.088343 0.140807
O O13 0.000000 0.003496 0.134086
O O14 0.500000 0.198283 0.085237
O O15 0.791068 0.200174 0.112217
O O16 0.000000 0.009205 0.250000
O O17 0.000000 0.836021 0.672644
#
# Coordination Sequence:
#
# PCOD8255800 Si02
#       7
#     8  16  16  16  16   8  16
#     4  10  18  28  46  73 104 133 164 208 252 290
#     4  11  23  35  49  73 105 136 168 211 255 296
#     4  10  21  36  53  73  99 133 168 201 245 301
#     4   9  18  32  51  74 101 133 168 206 251 305
#     4  10  20  34  53  76 100 127 164 208 249 294
#     4   8  16  32  50  71 100 133 170 210 254 304
#     4  10  19  32  51  75 103 135 168 203 249 301
#
# _framework density 17.936159
#
# number of rings (size 3 to 8) (size 9 to 14) (size 15 to 20)
#    0.000    2.167    0.000    4.750    0.000    9.333 
#    0.000    0.000    0.000    1.000    0.000    2.333 
#    0.000    0.000    0.000    0.000    0.000    0.000 
#
# Total GULP energy -594933.454769 kJ/mol
# GULP energy per Si atom -12394.446974 kJ/mol
# Density = 1.789534 g / cm^3
# Si number density = 17.936159 Si / 1000 Ang^3
#
#
#
# Elastic Constant Matrix: (Units=GPa)
#
#
# Indices 1 2 3 4 5 6 
#
# 1 56.1603 39.1726 30.9656 0.0000 0.0000 0.0000
# 2 39.1726 65.2824 41.8932 0.0000 0.0000 0.0000
# 3 30.9656 41.8932 118.0079 0.0000 0.0000 0.0000
# 4 0.0000 0.0000 0.0000 19.2668 0.0000 0.0000
# 5 0.0000 0.0000 0.0000 0.0000 33.2352 0.0000
# 6 0.0000 0.0000 0.0000 0.0000 0.0000 22.0518
#
#
#
# Elastic Compliance Matrix: (Units=1/GPa)
#
#
# Indices 1 2 3 4 5 6 
#
# 1 0.030977 -0.017316 -0.001981 0.000000 0.000000 0.000000
# 2 -0.017316 0.029517 -0.005935 0.000000 0.000000 0.000000
# 3 -0.001981 -0.005935 0.011101 0.000000 0.000000 0.000000
# 4 0.000000 0.000000 0.000000 0.051903 0.000000 0.000000
# 5 0.000000 0.000000 0.000000 0.000000 0.030089 0.000000
# 6 0.000000 0.000000 0.000000 0.000000 0.000000 0.045348
#
#
# Mechanical properties :
#
#
# Convention : Reuss Voigt Hill
#
# Bulk Modulus (GPa) = 47.32531 51.50150 49.41341
# Shear Modulus (GPa) = 19.49760 23.40537 21.45149
#
# Velocity S-wave (km/s) = 3.30063 3.61630 3.46206
# Velocity P-wave (km/s) = 6.40064 6.79801 6.60232
#
# Compressibility (1/GPa) = 0.02113034
#
# Stress axis : x y z
#
# Youngs Moduli (GPa) = 32.28218 33.87856 90.08398
#
# Poissons Ratio (x) = 0.58665 0.17846
# Poissons Ratio (y) = 0.55901 0.53464
# Poissons Ratio (z) = 0.06395 0.20106
#
# Static dielectric constant tensor:
#      x y z
#    x 3.320130 0.000000 0.000000 
#    y 0.000000 3.044960 0.000000 
#    z 0.000000 0.000000 3.738990 
# 
# 
# High freq. dielectric constant tensor:
#      x y z
#    x 1.703410 0.000000 0.000000 
#    y 0.000000 1.656210 0.000000 
#    z 0.000000 0.000000 1.706020 
# 
# From -- ./inp_files/60043.got.cif
#   From: 2010.03.12/outbox.cif.g09.slc.cpg/sg63_31_cif.got.tgz:60043.got - 2010.04.10 19:34:48.
