data_PCOD8255608
_publ_section_title
;
Structure prediction by ZEFSAII (Michael W. Deem and Ramdas Pophale) SiO2 
 PCOD8255608
Probable space group: C M C M
;
_chemical_formula_sum "Si O2"
_cell_formula_units_Z 80
_cell_length_a 18.020465
_cell_length_b 14.909226
_cell_length_c 16.737070
_cell_angle_alpha 90.000000
_cell_angle_beta 90.000000
_cell_angle_gamma 90.000000
_cell_volume 4496.768436
_symmetry_space_group_name_H-M "C M C M"
_symmetry_group_IT_number 63
_symmetry_cell_setting 'orthorhombic'
loop_
_space_group_symop_operation_xyz
x,y,z
-x,-y,1/2+z
x,-y,-z
-x,y,1/2-z
-x,-y,-z
x,y,1/2-z
-x,y,z
x,-y,1/2+z
1/2+x,1/2+y,z
1/2-x,1/2-y,1/2+z
1/2+x,1/2-y,-z
1/2-x,1/2+y,1/2-z
1/2-x,1/2-y,-z
1/2+x,1/2+y,1/2-z
1/2-x,1/2+y,z
1/2+x,1/2-y,1/2+z
loop_
_atom_site_type_symbol
_atom_site_label
_atom_site_fract_x
_atom_site_fract_y
_atom_site_fract_z
Si Si1 0.738298 0.522876 0.593486
Si Si2 0.793910 0.718403 0.921952
Si Si3 0.420487 0.556186 0.579676
Si Si4 0.915358 0.737696 0.036199
Si Si5 0.694845 0.151367 0.159322
O O1 0.738065 0.500000 0.500000
O O2 0.775207 0.619007 0.607283
O O3 0.652910 0.523689 0.627064
O O4 0.785127 0.451802 0.643116
O O5 0.768994 0.788014 0.853396
O O6 0.750000 0.750000 0.000000
O O7 0.880458 0.723358 0.947266
O O8 0.427795 0.500000 0.500000
O O9 0.500000 0.545783 0.626823
O O10 0.407196 0.659247 0.558613
O O11 0.872930 0.679038 0.102454
O O12 0.000000 0.705090 0.032905
O O13 0.667801 0.161757 0.250000
#
# Coordination Sequence:
#
# PCOD8255608 Si02
#       5
#    16  16  16  16  16
#     4  11  17  32  57  78 107 145 190 233 270 332
#     4  10  17  34  56  81 105 143 189 231 273 337
#     4   9  16  27  50  83 111 132 168 228 283 324
#     4  10  19  35  59  84 110 145 189 235 283 332
#     4  11  23  36  53  82 117 152 189 235 289 341
#
# _framework density 17.790554
#
# number of rings (size 3 to 8) (size 9 to 14) (size 15 to 20)
#    0.000    1.800    8.000    1.200    0.000    1.200 
#    0.000    2.000    0.000    2.400    0.000    0.000 
#    0.000    0.000    0.000    0.000    0.000    0.000 
#
# Total GULP energy -495619.421421 kJ/mol
# GULP energy per Si atom -12390.485536 kJ/mol
# Density = 1.775006 g / cm^3
# Si number density = 17.790554 Si / 1000 Ang^3
#
#
#
# Elastic Constant Matrix: (Units=GPa)
#
#
# Indices 1 2 3 4 5 6 
#
# 1 138.2139 37.6259 25.2660 0.0000 0.0000 0.0000
# 2 37.6259 119.8680 13.1159 0.0000 0.0000 0.0000
# 3 25.2660 13.1159 34.2245 0.0000 0.0000 0.0000
# 4 0.0000 0.0000 0.0000 16.9110 0.0000 0.0000
# 5 0.0000 0.0000 0.0000 0.0000 9.6284 0.0000
# 6 0.0000 0.0000 0.0000 0.0000 0.0000 30.8764
#
#
#
# Elastic Compliance Matrix: (Units=1/GPa)
#
#
# Indices 1 2 3 4 5 6 
#
# 1 0.008868 -0.002158 -0.005720 0.000000 0.000000 0.000000
# 2 -0.002158 0.009233 -0.001945 0.000000 0.000000 0.000000
# 3 -0.005720 -0.001945 0.034187 0.000000 0.000000 0.000000
# 4 0.000000 0.000000 0.000000 0.059133 0.000000 0.000000
# 5 0.000000 0.000000 0.000000 0.000000 0.103860 0.000000
# 6 0.000000 0.000000 0.000000 0.000000 0.000000 0.032387
#
#
# Mechanical properties :
#
#
# Convention : Reuss Voigt Hill
#
# Bulk Modulus (GPa) = 30.63552 49.36913 40.00232
# Shear Modulus (GPa) = 17.97301 25.90303 21.93802
#
# Velocity S-wave (km/s) = 3.18190 3.81990 3.51540
# Velocity P-wave (km/s) = 5.54588 6.87502 6.24591
#
# Compressibility (1/GPa) = 0.03264185
#
# Stress axis : x y z
#
# Youngs Moduli (GPa) = 112.76226 108.31081 29.25085
#
# Poissons Ratio (x) = 0.23371 0.16731
# Poissons Ratio (y) = 0.24332 0.05690
# Poissons Ratio (z) = 0.64500 0.21069
#
# Static dielectric constant tensor:
#      x y z
#    x 3.923990 0.000000 0.000000 
#    y 0.000000 3.339210 0.000000 
#    z 0.000000 0.000000 2.975020 
# 
# 
# High freq. dielectric constant tensor:
#      x y z
#    x 1.690830 0.000000 0.000000 
#    y 0.000000 1.701950 0.000000 
#    z 0.000000 0.000000 1.634060 
# 
# From -- ./inp_files/45413.got.cif
#   From: 2010.03.12/outbox.cif.g09.slc.cpg/sg63_23_cif.got.tgz:45413.got - 2010.04.10 19:34:48.
