data_PCOD8255171
_publ_section_title
;
Structure prediction by ZEFSAII (Michael W. Deem and Ramdas Pophale) SiO2 
 PCOD8255171
Probable space group: P N M A
;
_chemical_formula_sum "Si O2"
_cell_formula_units_Z 32
_cell_length_a 9.783852
_cell_length_b 8.468673
_cell_length_c 17.970640
_cell_angle_alpha 90.000000
_cell_angle_beta 90.000000
_cell_angle_gamma 90.000000
_cell_volume 1488.979720
_symmetry_space_group_name_H-M "P N M A"
_symmetry_group_IT_number 62
_symmetry_cell_setting 'orthorhombic'
loop_
_space_group_symop_operation_xyz
x,y,z
1/2-x,-y,1/2+z
1/2+x,1/2-y,1/2-z
-x,1/2+y,-z
-x,-y,-z
1/2+x,y,1/2-z
1/2-x,1/2+y,1/2+z
x,1/2-y,z
loop_
_atom_site_type_symbol
_atom_site_label
_atom_site_fract_x
_atom_site_fract_y
_atom_site_fract_z
Si Si1 0.691607 0.066491 0.679077
Si Si2 0.525981 0.066350 0.214534
Si Si3 0.105867 0.936500 0.559587
Si Si4 0.147255 0.564257 0.980170
O O1 0.658804 0.250000 0.685864
O O2 0.565761 0.970953 0.714066
O O3 0.706673 0.016633 0.593592
O O4 0.832575 0.028254 0.721153
O O5 0.563197 0.250000 0.212493
O O6 0.443827 0.014053 0.141221
O O7 0.121677 0.750000 0.551341
O O8 0.251853 0.019495 0.547496
O O9 0.000000 0.000000 0.500000
O O10 0.142145 0.750000 0.968163
O O11 0.000000 0.500000 0.000000
#
# Coordination Sequence:
#
# PCOD8255171 Si02
#       4
#     8   8   8   8
#     4  12  26  45  69  99 135 175 224 275 329 396
#     4  11  25  45  69  97 135 178 220 271 334 397
#     4  11  23  42  70  99 131 172 218 269 328 394
#     4  12  26  45  69  98 136 176 222 277 335 394
#
# _framework density 21.491226000000001
#
# number of rings (size 3 to 8) (size 9 to 14) (size 15 to 20)
#    0.000    0.500    2.500    6.000    3.500    3.000 
#    0.000    0.000    0.000    0.000    0.000    0.000 
#    0.000    0.000    0.000    0.000    0.000    0.000 
#
# Total GULP energy -397112.053097 kJ/mol
# GULP energy per Si atom -12409.751659 kJ/mol
# Density = 2.144231 g / cm^3
# Si number density = 21.491226 Si / 1000 Ang^3
#
#
#
# Elastic Constant Matrix: (Units=GPa)
#
#
# Indices 1 2 3 4 5 6 
#
# 1 129.9940 27.0388 5.5056 0.0000 0.0000 0.0000
# 2 27.0388 82.6034 21.2388 0.0000 0.0000 0.0000
# 3 5.5056 21.2388 47.5751 0.0000 0.0000 0.0000
# 4 0.0000 0.0000 0.0000 35.6443 0.0000 0.0000
# 5 0.0000 0.0000 0.0000 0.0000 40.1079 0.0000
# 6 0.0000 0.0000 0.0000 0.0000 0.0000 44.2193
#
#
#
# Elastic Compliance Matrix: (Units=1/GPa)
#
#
# Indices 1 2 3 4 5 6 
#
# 1 0.008258 -0.002776 0.000284 0.000000 0.000000 0.000000
# 2 -0.002776 0.014609 -0.006201 0.000000 0.000000 0.000000
# 3 0.000284 -0.006201 0.023755 0.000000 0.000000 0.000000
# 4 0.000000 0.000000 0.000000 0.028055 0.000000 0.000000
# 5 0.000000 0.000000 0.000000 0.000000 0.024933 0.000000
# 6 0.000000 0.000000 0.000000 0.000000 0.000000 0.022615
#
#
# Mechanical properties :
#
#
# Convention : Reuss Voigt Hill
#
# Bulk Modulus (GPa) = 34.20472 40.85988 37.53230
# Shear Modulus (GPa) = 33.47722 37.75359 35.61540
#
# Velocity S-wave (km/s) = 3.95107 4.19584 4.07530
# Velocity P-wave (km/s) = 6.06340 6.52128 6.29651
#
# Compressibility (1/GPa) = 0.02923573
#
# Stress axis : x y z
#
# Youngs Moduli (GPa) = 121.09364 68.45092 42.09700
#
# Poissons Ratio (x) = 0.19002 -0.01194
# Poissons Ratio (y) = 0.33616 0.26103
# Poissons Ratio (z) = -0.03435 0.42444
#
# Static dielectric constant tensor:
#      x y z
#    x 4.020590 0.000000 0.000000 
#    y 0.000000 3.879320 0.000000 
#    z 0.000000 0.000000 4.102690 
# 
# 
# High freq. dielectric constant tensor:
#      x y z
#    x 1.860990 0.000000 0.000000 
#    y 0.000000 1.856290 0.000000 
#    z 0.000000 0.000000 1.844900 
# 
# From -- ./inp_files/25533.got.cif
#   From: 2010.03.12/outbox.cif.g09.slc.cpg/sg62_13_cif.got.tgz:25533.got - 2010.04.10 19:12:36.
