data_PCOD8255404
_publ_section_title
;
Structure prediction by ZEFSAII (Michael W. Deem and Ramdas Pophale) SiO2 
 PCOD8255404
Probable space group: C M C M
;
_chemical_formula_sum "Si O2"
_cell_formula_units_Z 96
_cell_length_a 22.487030
_cell_length_b 27.472043
_cell_length_c 8.836074
_cell_angle_alpha 90.000000
_cell_angle_beta 90.000000
_cell_angle_gamma 90.000000
_cell_volume 5458.614207
_symmetry_space_group_name_H-M "C M C M"
_symmetry_group_IT_number 63
_symmetry_cell_setting 'orthorhombic'
loop_
_space_group_symop_operation_xyz
x,y,z
-x,-y,1/2+z
x,-y,-z
-x,y,1/2-z
-x,-y,-z
x,y,1/2-z
-x,y,z
x,-y,1/2+z
1/2+x,1/2+y,z
1/2-x,1/2-y,1/2+z
1/2+x,1/2-y,-z
1/2-x,1/2+y,1/2-z
1/2-x,1/2-y,-z
1/2+x,1/2+y,1/2-z
1/2-x,1/2+y,z
1/2+x,1/2-y,1/2+z
loop_
_atom_site_type_symbol
_atom_site_label
_atom_site_fract_x
_atom_site_fract_y
_atom_site_fract_z
Si Si1 0.386150 0.781551 0.074566
Si Si2 0.739232 0.551082 0.070012
Si Si3 0.500000 0.739739 0.927596
Si Si4 0.623318 0.601062 0.081110
Si Si5 0.796302 0.639794 0.923726
Si Si6 0.500000 0.632767 0.432506
Si Si7 0.803257 0.804302 0.580680
O O1 0.402845 0.772590 0.250000
O O2 0.361580 0.836590 0.049185
O O3 0.332517 0.745798 0.025925
O O4 0.443208 0.772147 0.972160
O O5 0.738046 0.548198 0.250000
O O6 0.673927 0.566932 0.003341
O O7 0.758408 0.500000 0.000000
O O8 0.788101 0.591418 0.024294
O O9 0.500000 0.730529 0.750000
O O10 0.500000 0.687801 0.008827
O O11 0.615852 0.580889 0.250000
O O12 0.557647 0.602662 0.005081
O O13 0.644270 0.656458 0.080527
O O14 0.787674 0.624922 0.750000
O O15 0.747799 0.680790 0.964324
O O16 0.500000 0.635690 0.250000
O O17 0.776165 0.800250 0.750000
#
# Coordination Sequence:
#
# PCOD8255404 Si02
#       7
#    16  16   8  16  16   8  16
#     4  10  20  35  51  69 101 143 178 202 245 309
#     4  10  20  36  54  75 100 129 168 214 269 318
#     4  12  24  32  46  75 106 139 179 221 253 279
#     4   8  15  27  49  72  93 130 175 210 246 297
#     4  10  20  32  51  78 102 130 167 211 259 307
#     4  10  16  32  53  67  95 141 183 209 247 309
#     4   9  16  29  48  71 101 138 172 204 247 299
#
# _framework density 17.586881000000002
#
# number of rings (size 3 to 8) (size 9 to 14) (size 15 to 20)
#    0.000    2.333    1.667    3.250    0.000    2.000 
#    0.000    1.250    0.000    0.000    0.000    0.583 
#    0.000    0.000    0.000    0.000    0.000    0.000 
#
# Total GULP energy -594858.376255 kJ/mol
# GULP energy per Si atom -12392.882839 kJ/mol
# Density = 1.754685 g / cm^3
# Si number density = 17.586881 Si / 1000 Ang^3
#
#
#
# Elastic Constant Matrix: (Units=GPa)
#
#
# Indices 1 2 3 4 5 6 
#
# 1 40.9369 32.8287 21.5113 0.0000 0.0000 0.0000
# 2 32.8287 91.7949 29.4013 0.0000 0.0000 0.0000
# 3 21.5113 29.4013 59.9634 0.0000 0.0000 0.0000
# 4 0.0000 0.0000 0.0000 20.9656 0.0000 0.0000
# 5 0.0000 0.0000 0.0000 0.0000 20.6088 0.0000
# 6 0.0000 0.0000 0.0000 0.0000 0.0000 12.0903
#
#
#
# Elastic Compliance Matrix: (Units=1/GPa)
#
#
# Indices 1 2 3 4 5 6 
#
# 1 0.037308 -0.010743 -0.008116 0.000000 0.000000 0.000000
# 2 -0.010743 0.016017 -0.003999 0.000000 0.000000 0.000000
# 3 -0.008116 -0.003999 0.021550 0.000000 0.000000 0.000000
# 4 0.000000 0.000000 0.000000 0.047697 0.000000 0.000000
# 5 0.000000 0.000000 0.000000 0.000000 0.048523 0.000000
# 6 0.000000 0.000000 0.000000 0.000000 0.000000 0.082711
#
#
# Mechanical properties :
#
#
# Convention : Reuss Voigt Hill
#
# Bulk Modulus (GPa) = 34.29735 40.01975 37.15855
# Shear Modulus (GPa) = 16.16860 17.99654 17.08257
#
# Velocity S-wave (km/s) = 3.03538 3.20237 3.11999
# Velocity P-wave (km/s) = 5.64169 6.03973 5.84410
#
# Compressibility (1/GPa) = 0.02915677
#
# Stress axis : x y z
#
# Youngs Moduli (GPa) = 26.80408 62.43446 46.40463
#
# Poissons Ratio (x) = 0.67072 0.37664
# Poissons Ratio (y) = 0.28795 0.18560
# Poissons Ratio (z) = 0.21755 0.24971
#
# Static dielectric constant tensor:
#      x y z
#    x 3.297100 0.000000 0.000000 
#    y 0.000000 3.129350 0.000000 
#    z 0.000000 0.000000 3.099310 
# 
# 
# High freq. dielectric constant tensor:
#      x y z
#    x 1.665240 0.000000 0.000000 
#    y 0.000000 1.659690 0.000000 
#    z 0.000000 0.000000 1.664660 
# 
# From -- ./inp_files/10775.got.cif
#   From: 2010.03.12/outbox.cif.g09.slc.cpg/sg63_6_cif.got.tgz:10775.got - 2010.04.10 19:34:48.
