data_PCOD8255846
_publ_section_title
;
Structure prediction by ZEFSAII (Michael W. Deem and Ramdas Pophale) SiO2 
 PCOD8255846
Probable space group: C M C M
;
_chemical_formula_sum "Si O2"
_cell_formula_units_Z 80
_cell_length_a 21.653819
_cell_length_b 16.001337
_cell_length_c 14.346388
_cell_angle_alpha 90.000000
_cell_angle_beta 90.000000
_cell_angle_gamma 90.000000
_cell_volume 4970.880769
_symmetry_space_group_name_H-M "C M C M"
_symmetry_group_IT_number 63
_symmetry_cell_setting 'orthorhombic'
loop_
_space_group_symop_operation_xyz
x,y,z
-x,-y,1/2+z
x,-y,-z
-x,y,1/2-z
-x,-y,-z
x,y,1/2-z
-x,y,z
x,-y,1/2+z
1/2+x,1/2+y,z
1/2-x,1/2-y,1/2+z
1/2+x,1/2-y,-z
1/2-x,1/2+y,1/2-z
1/2-x,1/2-y,-z
1/2+x,1/2+y,1/2-z
1/2-x,1/2+y,z
1/2+x,1/2-y,1/2+z
loop_
_atom_site_type_symbol
_atom_site_label
_atom_site_fract_x
_atom_site_fract_y
_atom_site_fract_z
Si Si1 0.571223 0.111092 0.358896
Si Si2 0.795264 0.864899 0.520767
Si Si3 0.858128 0.551827 0.644762
Si Si4 0.283006 0.482893 0.143463
Si Si5 0.342481 0.190290 0.001957
O O1 0.583076 0.125356 0.250000
O O2 0.500000 0.119990 0.385826
O O3 0.609834 0.181554 0.412987
O O4 0.593973 0.018727 0.388862
O O5 0.805117 0.903969 0.417649
O O6 0.725136 0.835869 0.536316
O O7 0.841446 0.786761 0.530994
O O8 0.811445 0.932117 0.600912
O O9 0.871605 0.580178 0.750000
O O10 0.790765 0.510849 0.635269
O O11 0.866323 0.633932 0.583031
O O12 0.305191 0.471230 0.250000
#
# Coordination Sequence:
#
# PCOD8255846 Si02
#       5
#    16  16  16  16  16
#     4  10  20  32  47  67  92 128 166 191 222 271
#     4   9  18  28  43  68  91 119 154 186 236 290
#     4   9  17  29  43  62  90 122 156 190 226 271
#     4   9  16  29  45  62  90 122 150 187 233 280
#     4  10  18  29  44  65  94 120 151 196 235 271
#
# _framework density 16.093727000000001
#
# number of rings (size 3 to 8) (size 9 to 14) (size 15 to 20)
#    0.000    2.600    2.000    0.600    0.000    3.200 
#    0.000    4.000    0.000    0.000    0.000    2.800 
#    0.000    1.600    0.000    0.000    0.000    0.000 
#
# Total GULP energy -495988.042462 kJ/mol
# GULP energy per Si atom -12399.701062 kJ/mol
# Density = 1.605710 g / cm^3
# Si number density = 16.093727 Si / 1000 Ang^3
#
#
#
# Elastic Constant Matrix: (Units=GPa)
#
#
# Indices 1 2 3 4 5 6 
#
# 1 52.4627 42.6846 32.4498 0.0000 0.0000 0.0000
# 2 42.6846 107.0846 47.5174 0.0000 0.0000 0.0000
# 3 32.4498 47.5174 92.3334 0.0000 0.0000 0.0000
# 4 0.0000 0.0000 0.0000 17.9304 0.0000 0.0000
# 5 0.0000 0.0000 0.0000 0.0000 19.8353 0.0000
# 6 0.0000 0.0000 0.0000 0.0000 0.0000 16.5702
#
#
#
# Elastic Compliance Matrix: (Units=1/GPa)
#
#
# Indices 1 2 3 4 5 6 
#
# 1 0.030407 -0.009562 -0.005765 0.000000 0.000000 0.000000
# 2 -0.009562 0.015109 -0.004415 0.000000 0.000000 0.000000
# 3 -0.005765 -0.004415 0.015129 0.000000 0.000000 0.000000
# 4 0.000000 0.000000 0.000000 0.055771 0.000000 0.000000
# 5 0.000000 0.000000 0.000000 0.000000 0.050415 0.000000
# 6 0.000000 0.000000 0.000000 0.000000 0.000000 0.060349
#
#
# Mechanical properties :
#
#
# Convention : Reuss Voigt Hill
#
# Bulk Modulus (GPa) = 47.25962 55.24271 51.25116
# Shear Modulus (GPa) = 18.26692 19.48244 18.87468
#
# Velocity S-wave (km/s) = 3.37268 3.48309 3.42833
# Velocity P-wave (km/s) = 6.67800 7.11168 6.89825
#
# Compressibility (1/GPa) = 0.02115972
#
# Stress axis : x y z
#
# Youngs Moduli (GPa) = 32.88699 66.18550 66.10000
#
# Poissons Ratio (x) = 0.63288 0.38109
# Poissons Ratio (y) = 0.31447 0.29183
# Poissons Ratio (z) = 0.18961 0.29221
#
# Static dielectric constant tensor:
#      x y z
#    x 2.707620 0.000000 0.000000 
#    y 0.000000 3.041810 0.000000 
#    z 0.000000 0.000000 3.218060 
# 
# 
# High freq. dielectric constant tensor:
#      x y z
#    x 1.569360 0.000000 0.000000 
#    y 0.000000 1.611360 0.000000 
#    z 0.000000 0.000000 1.628230 
# 
# From -- ./inp_files/33851.got.cif
#   From: 2010.03.12/outbox.cif.g09.slc.cpg/sg63_17_cif.got.tgz:33851.got - 2010.04.10 19:34:48.
