data_PCOD8255260
_publ_section_title
;
Structure prediction by ZEFSAII (Michael W. Deem and Ramdas Pophale) SiO2 
 PCOD8255260
Probable space group: P N M A
;
_chemical_formula_sum "Si O2"
_cell_formula_units_Z 40
_cell_length_a 8.909704
_cell_length_b 20.955953
_cell_length_c 10.003892
_cell_angle_alpha 90.000000
_cell_angle_beta 90.000000
_cell_angle_gamma 90.000000
_cell_volume 1867.840063
_symmetry_space_group_name_H-M "P N M A"
_symmetry_group_IT_number 62
_symmetry_cell_setting 'orthorhombic'
loop_
_space_group_symop_operation_xyz
x,y,z
1/2-x,-y,1/2+z
1/2+x,1/2-y,1/2-z
-x,1/2+y,-z
-x,-y,-z
1/2+x,y,1/2-z
1/2-x,1/2+y,1/2+z
x,1/2-y,z
loop_
_atom_site_type_symbol
_atom_site_label
_atom_site_fract_x
_atom_site_fract_y
_atom_site_fract_z
Si Si1 0.600797 0.961970 0.260041
Si Si2 0.944735 0.123528 0.502798
Si Si3 0.452572 0.250000 0.631374
Si Si4 0.194260 0.750000 0.416488
Si Si5 0.148740 0.946879 0.763255
Si Si6 0.705088 0.627942 0.486965
O O1 0.595602 0.913729 0.137256
O O2 0.684091 0.929349 0.383362
O O3 0.435525 0.986465 0.298706
O O4 0.679608 0.029943 0.229480
O O5 0.845110 0.187620 0.496685
O O6 0.898935 0.078951 0.380539
O O7 0.119177 0.143103 0.498425
O O8 0.410123 0.250000 0.786043
O O9 0.631915 0.250000 0.623338
O O10 0.386325 0.188804 0.559485
O O11 0.129706 0.891672 0.872727
#
# Coordination Sequence:
#
# PCOD8255260 Si02
#       6
#     8   8   4   4   8   8
#     4  12  24  44  73 103 143 187 227 286 343 420
#     4  12  26  48  71 103 144 185 233 291 341 414
#     4  12  28  47  74 103 132 186 236 288 348 409
#     4  12  28  47  74 101 136 182 238 288 344 413
#     4  12  26  44  71 105 147 181 229 284 356 408
#     4  12  26  47  73 102 142 186 235 287 345 413
#
# _framework density 21.415111
#
# number of rings (size 3 to 8) (size 9 to 14) (size 15 to 20)
#    0.000    0.000    6.000    4.200    5.600    0.800 
#    0.000    0.000    0.000    0.000    0.000    0.000 
#    0.000    0.000    0.000    0.000    0.000    0.000 
#
# Total GULP energy -496199.838021 kJ/mol
# GULP energy per Si atom -12404.995951 kJ/mol
# Density = 2.136637 g / cm^3
# Si number density = 21.415111 Si / 1000 Ang^3
#
#
#
# Elastic Constant Matrix: (Units=GPa)
#
#
# Indices 1 2 3 4 5 6 
#
# 1 111.3248 41.9116 26.5197 0.0000 0.0000 0.0000
# 2 41.9116 100.9482 9.9265 0.0000 0.0000 0.0000
# 3 26.5197 9.9265 62.2858 0.0000 0.0000 0.0000
# 4 0.0000 0.0000 0.0000 12.0567 0.0000 0.0000
# 5 0.0000 0.0000 0.0000 0.0000 27.1175 0.0000
# 6 0.0000 0.0000 0.0000 0.0000 0.0000 47.6145
#
#
#
# Elastic Compliance Matrix: (Units=1/GPa)
#
#
# Indices 1 2 3 4 5 6 
#
# 1 0.011663 -0.004423 -0.004261 0.000000 0.000000 0.000000
# 2 -0.004423 0.011741 0.000012 0.000000 0.000000 0.000000
# 3 -0.004261 0.000012 0.017867 0.000000 0.000000 0.000000
# 4 0.000000 0.000000 0.000000 0.082941 0.000000 0.000000
# 5 0.000000 0.000000 0.000000 0.000000 0.036877 0.000000
# 6 0.000000 0.000000 0.000000 0.000000 0.000000 0.021002
#
#
# Mechanical properties :
#
#
# Convention : Reuss Voigt Hill
#
# Bulk Modulus (GPa) = 41.79287 47.91937 44.85612
# Shear Modulus (GPa) = 24.10667 30.43782 27.27224
#
# Velocity S-wave (km/s) = 3.35876 3.77414 3.57249
# Velocity P-wave (km/s) = 5.88215 6.43561 6.16510
#
# Compressibility (1/GPa) = 0.02392753
#
# Stress axis : x y z
#
# Youngs Moduli (GPa) = 85.74120 85.16930 55.96828
#
# Poissons Ratio (x) = 0.37673 0.23847
# Poissons Ratio (y) = 0.37925 -0.00068
# Poissons Ratio (z) = 0.36533 -0.00103
#
# Static dielectric constant tensor:
#      x y z
#    x 4.023100 0.000000 0.000000 
#    y 0.000000 3.933640 0.000000 
#    z 0.000000 0.000000 3.838510 
# 
# 
# High freq. dielectric constant tensor:
#      x y z
#    x 1.860140 0.000000 0.000000 
#    y 0.000000 1.850160 0.000000 
#    z 0.000000 0.000000 1.839580 
# 
# From -- ./inp_files/4354.got.cif
#   From: 2010.03.12/outbox.cif.g09.slc.cpg/sg62_3_cif.got.tgz:4354.got - 2010.04.10 19:12:36.
