data_PCOD8255647
_publ_section_title
;
Structure prediction by ZEFSAII (Michael W. Deem and Ramdas Pophale) SiO2 
 PCOD8255647
Probable space group: C M C M
;
_chemical_formula_sum "Si O2"
_cell_formula_units_Z 80
_cell_length_a 8.892556
_cell_length_b 20.739543
_cell_length_c 24.903139
_cell_angle_alpha 90.000000
_cell_angle_beta 90.000000
_cell_angle_gamma 90.000000
_cell_volume 4592.824852
_symmetry_space_group_name_H-M "C M C M"
_symmetry_group_IT_number 63
_symmetry_cell_setting 'orthorhombic'
loop_
_space_group_symop_operation_xyz
x,y,z
-x,-y,1/2+z
x,-y,-z
-x,y,1/2-z
-x,-y,-z
x,y,1/2-z
-x,y,z
x,-y,1/2+z
1/2+x,1/2+y,z
1/2-x,1/2-y,1/2+z
1/2+x,1/2-y,-z
1/2-x,1/2+y,1/2-z
1/2-x,1/2-y,-z
1/2+x,1/2+y,1/2-z
1/2-x,1/2+y,z
1/2+x,1/2-y,1/2+z
loop_
_atom_site_type_symbol
_atom_site_label
_atom_site_fract_x
_atom_site_fract_y
_atom_site_fract_z
Si Si1 0.825634 0.239204 0.144322
Si Si2 0.679092 0.932522 0.023478
Si Si3 0.175878 0.615558 0.865279
Si Si4 0.824099 0.621854 0.750000
Si Si5 0.324325 0.689849 0.029268
Si Si6 0.823625 0.740451 0.250000
O O1 0.761726 0.311275 0.132301
O O2 0.796341 0.194782 0.092955
O O3 0.740884 0.207883 0.195584
O O4 0.000000 0.243655 0.159185
O O5 0.500000 0.927748 0.019790
O O6 0.740794 0.926145 0.085119
O O7 0.748301 0.876093 0.988188
O O8 0.737892 0.000000 0.000000
O O9 0.213038 0.584146 0.806048
O O10 0.000000 0.618510 0.874960
O O11 0.725268 0.685501 0.750000
O O12 0.000000 0.641702 0.750000
O O13 0.500000 0.689691 0.015261
O O14 0.250000 0.750000 0.000000
O O15 0.000000 0.732451 0.250000
#
# Coordination Sequence:
#
# PCOD8255647 Si02
#       6
#    16  16  16   8  16   8
#     4   9  17  31  49  68  97 135 170 204 251 315
#     4  10  20  34  51  73 105 140 176 217 263 312
#     4   8  13  26  46  68  92 126 168 205 247 302
#     4   8  14  26  44  63  92 127 165 205 247 311
#     4  11  21  34  54  77 103 135 175 216 258 310
#     4  10  18  26  42  73 104 125 157 209 261 301
#
# _framework density 17.418475000000001
#
# number of rings (size 3 to 8) (size 9 to 14) (size 15 to 20)
#    0.000    2.600    2.000    2.700    0.000    2.000 
#    0.000    0.000    0.000    1.200    0.000    2.800 
#    0.000    0.000    0.000    0.000    0.000    0.000 
#
# Total GULP energy -495579.952974 kJ/mol
# GULP energy per Si atom -12389.498824 kJ/mol
# Density = 1.737883 g / cm^3
# Si number density = 17.418475 Si / 1000 Ang^3
#
#
#
# Elastic Constant Matrix: (Units=GPa)
#
#
# Indices 1 2 3 4 5 6 
#
# 1 54.3669 27.1332 40.3209 0.0000 0.0000 0.0000
# 2 27.1332 92.6120 65.0120 0.0000 0.0000 0.0000
# 3 40.3209 65.0120 177.5181 0.0000 0.0000 0.0000
# 4 0.0000 0.0000 0.0000 18.2535 0.0000 0.0000
# 5 0.0000 0.0000 0.0000 0.0000 23.5103 0.0000
# 6 0.0000 0.0000 0.0000 0.0000 0.0000 17.1121
#
#
#
# Elastic Compliance Matrix: (Units=1/GPa)
#
#
# Indices 1 2 3 4 5 6 
#
# 1 0.023264 -0.004181 -0.003753 0.000000 0.000000 0.000000
# 2 -0.004181 0.015286 -0.004648 0.000000 0.000000 0.000000
# 3 -0.003753 -0.004648 0.008188 0.000000 0.000000 0.000000
# 4 0.000000 0.000000 0.000000 0.054784 0.000000 0.000000
# 5 0.000000 0.000000 0.000000 0.000000 0.042534 0.000000
# 6 0.000000 0.000000 0.000000 0.000000 0.000000 0.058438
#
#
# Mechanical properties :
#
#
# Convention : Reuss Voigt Hill
#
# Bulk Modulus (GPa) = 46.35523 65.49212 55.92367
# Shear Modulus (GPa) = 21.29021 24.57725 22.93373
#
# Velocity S-wave (km/s) = 3.49990 3.76039 3.63248
# Velocity P-wave (km/s) = 6.55766 7.51897 7.05470
#
# Compressibility (1/GPa) = 0.02157254
#
# Stress axis : x y z
#
# Youngs Moduli (GPa) = 42.98576 65.42008 122.13076
#
# Poissons Ratio (x) = 0.27355 0.45832
# Poissons Ratio (y) = 0.17974 0.56771
# Poissons Ratio (z) = 0.16131 0.30410
#
# Static dielectric constant tensor:
#      x y z
#    x 3.040680 0.000000 0.000000 
#    y 0.000000 2.965220 0.000000 
#    z 0.000000 0.000000 3.960860 
# 
# 
# High freq. dielectric constant tensor:
#      x y z
#    x 1.652010 0.000000 0.000000 
#    y 0.000000 1.613650 0.000000 
#    z 0.000000 0.000000 1.704920 
# 
# From -- ./inp_files/66688.got.cif
#   From: 2010.03.12/outbox.cif.g09.slc.cpg/sg63_34_cif.got.tgz:66688.got - 2010.04.10 19:34:48.
