data_PCOD8255959
_publ_section_title
;
Structure prediction by ZEFSAII (Michael W. Deem and Ramdas Pophale) SiO2 
 PCOD8255959
Probable space group: C M C M
;
_chemical_formula_sum "Si O2"
_cell_formula_units_Z 88
_cell_length_a 9.502365
_cell_length_b 32.904961
_cell_length_c 16.085848
_cell_angle_alpha 90.000000
_cell_angle_beta 90.000000
_cell_angle_gamma 90.000000
_cell_volume 5029.641715
_symmetry_space_group_name_H-M "C M C M"
_symmetry_group_IT_number 63
_symmetry_cell_setting 'orthorhombic'
loop_
_space_group_symop_operation_xyz
x,y,z
-x,-y,1/2+z
x,-y,-z
-x,y,1/2-z
-x,-y,-z
x,y,1/2-z
-x,y,z
x,-y,1/2+z
1/2+x,1/2+y,z
1/2-x,1/2-y,1/2+z
1/2+x,1/2-y,-z
1/2-x,1/2+y,1/2-z
1/2-x,1/2-y,-z
1/2+x,1/2+y,1/2-z
1/2-x,1/2+y,z
1/2+x,1/2-y,1/2+z
loop_
_atom_site_type_symbol
_atom_site_label
_atom_site_fract_x
_atom_site_fract_y
_atom_site_fract_z
Si Si1 0.343996 0.752706 0.885942
Si Si2 0.167840 0.467359 0.068910
Si Si3 0.840908 0.888665 0.070130
Si Si4 0.845567 0.466423 0.250000
Si Si5 0.742478 0.877723 0.250000
Si Si6 0.841174 0.711141 0.750000
Si Si7 0.845116 0.809935 0.969591
O O1 0.500000 0.759810 0.846678
O O2 0.243107 0.726025 0.829372
O O3 0.362740 0.728446 0.970587
O O4 0.270137 0.796822 0.900614
O O5 0.237795 0.424948 0.043581
O O6 0.225288 0.480503 0.162017
O O7 0.000000 0.461428 0.071724
O O8 0.213517 0.500000 0.000000
O O9 0.839109 0.878308 0.167980
O O10 0.790297 0.849576 0.018102
O O11 0.000000 0.900784 0.046872
O O12 0.856409 0.417379 0.250000
O O13 0.000000 0.485470 0.250000
O O14 0.647432 0.837605 0.250000
O O15 0.000000 0.728540 0.750000
O O16 0.000000 0.818489 0.929876
#
# Coordination Sequence:
#
# PCOD8255959 Si02
#       7
#    16  16  16   8   8   8  16
#     4  10  20  33  48  67  95 130 167 208 246 292
#     4   9  18  32  50  74 103 133 167 206 252 306
#     4  10  19  31  51  74 101 131 161 203 252 304
#     4   8  15  29  47  69  98 128 160 200 242 293
#     4  10  18  30  45  73 103 131 157 193 246 308
#     4  12  22  31  48  72  99 133 169 207 252 305
#     4   9  18  33  48  68  95 127 165 204 247 294
#
# _framework density 17.496276000000002
#
# number of rings (size 3 to 8) (size 9 to 14) (size 15 to 20)
#    0.000    2.364    1.818    1.364    0.000    3.273 
#    0.000    0.000    0.000    1.091    0.000    3.818 
#    0.000    0.000    0.000    0.000    0.000    0.000 
#
# Total GULP energy -545158.755053 kJ/mol
# GULP energy per Si atom -12389.971706 kJ/mol
# Density = 1.745645 g / cm^3
# Si number density = 17.496276 Si / 1000 Ang^3
#
#
#
# Elastic Constant Matrix: (Units=GPa)
#
#
# Indices 1 2 3 4 5 6 
#
# 1 91.9084 34.2699 27.1372 0.0000 0.0000 0.0000
# 2 34.2699 96.1511 50.7780 0.0000 0.0000 0.0000
# 3 27.1372 50.7780 75.2653 0.0000 0.0000 0.0000
# 4 0.0000 0.0000 0.0000 29.6877 0.0000 0.0000
# 5 0.0000 0.0000 0.0000 0.0000 -14.2089 0.0000
# 6 0.0000 0.0000 0.0000 0.0000 0.0000 25.9038
#
#
#
# Elastic Compliance Matrix: (Units=1/GPa)
#
#
# Indices 1 2 3 4 5 6 
#
# 1 0.012819 -0.003306 -0.002392 0.000000 0.000000 0.000000
# 2 -0.003306 0.017009 -0.010283 0.000000 0.000000 0.000000
# 3 -0.002392 -0.010283 0.021086 0.000000 0.000000 0.000000
# 4 0.000000 0.000000 0.000000 0.033684 0.000000 0.000000
# 5 0.000000 0.000000 0.000000 0.000000 -0.070378 0.000000
# 6 0.000000 0.000000 0.000000 0.000000 0.000000 0.038604
#
#
# Mechanical properties :
#
#
# Convention : Reuss Voigt Hill
#
# Bulk Modulus (GPa) = 52.76233 54.18833 53.47533
# Shear Modulus (GPa) = 54.88194 18.35252 36.61723
#
# Velocity S-wave (km/s) = 5.60677 3.24225 4.57974
# Velocity P-wave (km/s) = 8.49331 6.71229 7.65477
#
# Compressibility (1/GPa) = 0.01895292
#
# Stress axis : x y z
#
# Youngs Moduli (GPa) = 78.00765 58.79122 47.42389
#
# Poissons Ratio (x) = 0.19436 0.11342
# Poissons Ratio (y) = 0.25789 0.48768
# Poissons Ratio (z) = 0.18657 0.60458
#
# Static dielectric constant tensor:
#      x y z
#    x 3.389520 0.000000 0.000000 
#    y 0.000000 3.053750 0.000000 
#    z 0.000000 0.000000 3.293330 
# 
# 
# High freq. dielectric constant tensor:
#      x y z
#    x 1.676090 0.000000 0.000000 
#    y 0.000000 1.649660 0.000000 
#    z 0.000000 0.000000 1.659270 
# 
# From -- ./inp_files/40862.got.cif
#   From: 2010.03.12/outbox.cif.g09.slc.cpg/sg63_21_cif.got.tgz:40862.got - 2010.04.10 19:34:48.
