data_PCOD8255585
_publ_section_title
;
Structure prediction by ZEFSAII (Michael W. Deem and Ramdas Pophale) SiO2 
 PCOD8255585
Probable space group: C M C M
;
_chemical_formula_sum "Si O2"
_cell_formula_units_Z 80
_cell_length_a 23.399180
_cell_length_b 22.355445
_cell_length_c 10.053595
_cell_angle_alpha 90.000000
_cell_angle_beta 90.000000
_cell_angle_gamma 90.000000
_cell_volume 5259.026311
_symmetry_space_group_name_H-M "C M C M"
_symmetry_group_IT_number 63
_symmetry_cell_setting 'orthorhombic'
loop_
_space_group_symop_operation_xyz
x,y,z
-x,-y,1/2+z
x,-y,-z
-x,y,1/2-z
-x,-y,-z
x,y,1/2-z
-x,y,z
x,-y,1/2+z
1/2+x,1/2+y,z
1/2-x,1/2-y,1/2+z
1/2+x,1/2-y,-z
1/2-x,1/2+y,1/2-z
1/2-x,1/2-y,-z
1/2+x,1/2+y,1/2-z
1/2-x,1/2+y,z
1/2+x,1/2-y,1/2+z
loop_
_atom_site_type_symbol
_atom_site_label
_atom_site_fract_x
_atom_site_fract_y
_atom_site_fract_z
Si Si1 0.119981 0.933031 0.750000
Si Si2 0.329431 0.626521 0.000559
Si Si3 0.887914 0.072836 0.750000
Si Si4 0.882039 0.248020 0.096518
Si Si5 0.500000 0.365865 0.750000
Si Si6 0.000000 0.225729 0.486766
Si Si7 0.500000 0.650642 0.750000
Si Si8 0.768719 0.303470 0.094292
O O1 0.160247 0.914763 0.627308
O O2 0.057686 0.903978 0.750000
O O3 0.104947 0.002214 0.750000
O O4 0.360036 0.690614 0.015187
O O5 0.353840 0.590763 0.878796
O O6 0.261773 0.637643 0.967150
O O7 0.947708 0.105905 0.750000
O O8 0.888713 0.228060 0.250000
O O9 0.838219 0.304224 0.084504
O O10 0.943588 0.266697 0.036171
O O11 0.500000 0.327949 0.882907
O O12 0.000000 0.196131 0.629034
O O13 0.750793 0.293532 0.250000
O O14 0.750000 0.250000 0.000000
#
# Coordination Sequence:
#
# PCOD8255585 Si02
#       8
#     8  16   8  16   4   8   4  16
#     4  12  23  34  50  63  85 129 171 204 239 272
#     4  11  19  35  47  65  91 116 157 203 239 280
#     4  12  23  34  46  65  89 125 167 210 239 264
#     4  10  17  31  50  68  87 121 157 185 233 291
#     4  12  19  36  46  56  88 126 170 196 227 268
#     4  12  18  30  49  66  92 126 153 195 228 275
#     4  12  23  32  42  64 100 122 162 212 245 248
#     4   9  19  30  49  70  88 113 147 191 240 290
#
# _framework density 15.211940999999999
#
# number of rings (size 3 to 8) (size 9 to 14) (size 15 to 20)
#    0.000    1.200    7.000    0.900    1.400    0.000 
#    0.000    3.000    0.000    0.000    0.000    0.000 
#    0.000    0.000    0.000    5.400    0.000    0.100 
#
# Total GULP energy -495607.410456 kJ/mol
# GULP energy per Si atom -12390.185261 kJ/mol
# Density = 1.517732 g / cm^3
# Si number density = 15.211941 Si / 1000 Ang^3
#
#
#
# Elastic Constant Matrix: (Units=GPa)
#
#
# Indices 1 2 3 4 5 6 
#
# 1 131.2738 43.4088 49.2665 0.0000 0.0000 0.0000
# 2 43.4088 31.9922 28.0643 0.0000 0.0000 0.0000
# 3 49.2665 28.0643 119.2894 0.0000 0.0000 0.0000
# 4 0.0000 0.0000 0.0000 20.6606 0.0000 0.0000
# 5 0.0000 0.0000 0.0000 0.0000 22.9501 0.0000
# 6 0.0000 0.0000 0.0000 0.0000 0.0000 -34.1475
#
#
#
# Elastic Compliance Matrix: (Units=1/GPa)
#
#
# Indices 1 2 3 4 5 6 
#
# 1 0.014074 -0.017638 -0.001663 0.000000 0.000000 0.000000
# 2 -0.017638 0.061489 -0.007182 0.000000 0.000000 0.000000
# 3 -0.001663 -0.007182 0.010759 0.000000 0.000000 0.000000
# 4 0.000000 0.000000 0.000000 0.048401 0.000000 0.000000
# 5 0.000000 0.000000 0.000000 0.000000 0.043573 0.000000
# 6 0.000000 0.000000 0.000000 0.000000 0.000000 -0.029285
#
#
# Mechanical properties :
#
#
# Convention : Reuss Voigt Hill
#
# Bulk Modulus (GPa) = 29.97793 58.22606 44.10200
# Shear Modulus (GPa) = 23.46350 12.68036 18.07193
#
# Velocity S-wave (km/s) = 3.93165 2.89031 3.45049
# Velocity P-wave (km/s) = 6.35296 7.03549 6.70292
#
# Compressibility (1/GPa) = 0.03335787
#
# Stress axis : x y z
#
# Youngs Moduli (GPa) = 71.05224 16.26294 92.94142
#
# Poissons Ratio (x) = 0.28684 0.15458
# Poissons Ratio (y) = 1.25320 0.66749
# Poissons Ratio (z) = 0.11817 0.11680
#
# Static dielectric constant tensor:
#      x y z
#    x 3.619290 0.000000 0.000000 
#    y 0.000000 2.708040 0.000000 
#    z 0.000000 0.000000 3.149530 
# 
# 
# High freq. dielectric constant tensor:
#      x y z
#    x 1.589600 0.000000 0.000000 
#    y 0.000000 1.526540 0.000000 
#    z 0.000000 0.000000 1.606000 
# 
# From -- ./inp_files/10165.got.cif
#   From: 2010.03.12/outbox.cif.g09.slc.cpg/sg63_6_cif.got.tgz:10165.got - 2010.04.10 19:34:48.
