data_PCOD8255074
_publ_section_title
;
Structure prediction by ZEFSAII (Michael W. Deem and Ramdas Pophale) SiO2 
 PCOD8255074
Probable space group: P N M A
;
_chemical_formula_sum "Si O2"
_cell_formula_units_Z 56
_cell_length_a 15.582669
_cell_length_b 8.985815
_cell_length_c 22.365057
_cell_angle_alpha 90.000000
_cell_angle_beta 90.000000
_cell_angle_gamma 90.000000
_cell_volume 3131.621948
_symmetry_space_group_name_H-M "P N M A"
_symmetry_group_IT_number 62
_symmetry_cell_setting 'orthorhombic'
loop_
_space_group_symop_operation_xyz
x,y,z
1/2-x,-y,1/2+z
1/2+x,1/2-y,1/2-z
-x,1/2+y,-z
-x,-y,-z
1/2+x,y,1/2-z
1/2-x,1/2+y,1/2+z
x,1/2-y,z
loop_
_atom_site_type_symbol
_atom_site_label
_atom_site_fract_x
_atom_site_fract_y
_atom_site_fract_z
Si Si1 0.954961 0.928032 0.821225
Si Si2 0.617302 0.579041 0.015765
Si Si3 0.503306 0.574562 0.905902
Si Si4 0.081108 0.572240 0.716539
Si Si5 0.046050 0.924472 0.055048
Si Si6 0.784353 0.916298 0.950420
Si Si7 0.236931 0.082545 0.184456
O O1 0.952395 0.750000 0.828509
O O2 0.858251 0.988489 0.804207
O O3 0.025091 0.981190 0.772959
O O4 0.985159 0.000066 0.883376
O O5 0.594240 0.750000 0.026297
O O6 0.590122 0.489490 0.075343
O O7 0.568620 0.518877 0.956908
O O8 0.717877 0.555571 0.003900
O O9 0.496716 0.750000 0.901929
O O10 0.533103 0.509370 0.842216
O O11 0.085047 0.750000 0.713395
O O12 0.180265 0.509632 0.718727
O O13 0.026845 0.750000 0.057142
O O14 0.146423 0.954108 0.045327
O O15 0.000000 0.000000 0.000000
O O16 0.825333 0.750000 0.957073
O O17 0.738483 0.923676 0.885754
O O18 0.229612 0.250000 0.207811
#
# Coordination Sequence:
#
# PCOD8255074 Si02
#       7
#     8   8   8   8   8   8   8
#     4   9  18  32  53  77  99 129 168 209 253 300
#     4   9  16  27  44  69 101 136 166 201 250 294
#     4   9  16  26  43  68 101 137 171 206 239 286
#     4   9  15  27  48  72  98 133 175 212 247 294
#     4  11  22  37  56  76  99 126 161 208 257 304
#     4   9  16  30  52  74  98 131 170 207 252 302
#     4   8  13  25  46  70  95 126 167 211 249 292
#
# _framework density 17.882107000000001
#
# number of rings (size 3 to 8) (size 9 to 14) (size 15 to 20)
#    0.000    2.857    1.429    2.143    0.000    0.571 
#    0.000    2.143    0.000    6.857    0.000    0.000 
#    0.000    0.000    0.000    0.000    0.000    0.000 
#
# Total GULP energy -693815.184331 kJ/mol
# GULP energy per Si atom -12389.556863 kJ/mol
# Density = 1.784141 g / cm^3
# Si number density = 17.882107 Si / 1000 Ang^3
#
#
#
# Elastic Constant Matrix: (Units=GPa)
#
#
# Indices 1 2 3 4 5 6 
#
# 1 100.3800 23.6540 67.4884 0.0000 0.0000 0.0000
# 2 23.6540 40.5851 31.7357 0.0000 0.0000 0.0000
# 3 67.4884 31.7357 111.4149 0.0000 0.0000 0.0000
# 4 0.0000 0.0000 0.0000 21.4523 0.0000 0.0000
# 5 0.0000 0.0000 0.0000 0.0000 33.7823 0.0000
# 6 0.0000 0.0000 0.0000 0.0000 0.0000 20.9489
#
#
#
# Elastic Compliance Matrix: (Units=1/GPa)
#
#
# Indices 1 2 3 4 5 6 
#
# 1 0.016984 -0.002385 -0.009609 0.000000 0.000000 0.000000
# 2 -0.002385 0.032035 -0.007680 0.000000 0.000000 0.000000
# 3 -0.009609 -0.007680 0.016983 0.000000 0.000000 0.000000
# 4 0.000000 0.000000 0.000000 0.046615 0.000000 0.000000
# 5 0.000000 0.000000 0.000000 0.000000 0.029601 0.000000
# 6 0.000000 0.000000 0.000000 0.000000 0.000000 0.047735
#
#
# Mechanical properties :
#
#
# Convention : Reuss Voigt Hill
#
# Bulk Modulus (GPa) = 37.51664 55.34851 46.43257
# Shear Modulus (GPa) = 20.99181 23.87015 22.43098
#
# Velocity S-wave (km/s) = 3.42994 3.65754 3.54557
# Velocity P-wave (km/s) = 6.05900 6.98970 6.54093
#
# Compressibility (1/GPa) = 0.02665484
#
# Stress axis : x y z
#
# Youngs Moduli (GPa) = 58.87737 31.21553 58.88088
#
# Poissons Ratio (x) = 0.07446 0.56577
# Poissons Ratio (y) = 0.14045 0.45221
# Poissons Ratio (z) = 0.56573 0.23974
#
# Static dielectric constant tensor:
#      x y z
#    x 3.532210 0.000000 0.000000 
#    y 0.000000 3.043280 0.000000 
#    z 0.000000 0.000000 3.275680 
# 
# 
# High freq. dielectric constant tensor:
#      x y z
#    x 1.693570 0.000000 0.000000 
#    y 0.000000 1.651060 0.000000 
#    z 0.000000 0.000000 1.673430 
# 
# From -- ./inp_files/27552.got.cif
#   From: 2010.03.12/outbox.cif.g09.slc.cpg/sg62_14_cif.got.tgz:27552.got - 2010.04.10 19:12:36.
