data_PCOD8255002
_publ_section_title
;
Structure prediction by ZEFSAII (Michael W. Deem and Ramdas Pophale) SiO2 
 PCOD8255002
Probable space group: P N M A
;
_chemical_formula_sum "Si O2"
_cell_formula_units_Z 40
_cell_length_a 13.789914
_cell_length_b 8.740992
_cell_length_c 18.639415
_cell_angle_alpha 90.000000
_cell_angle_beta 90.000000
_cell_angle_gamma 90.000000
_cell_volume 2246.749007
_symmetry_space_group_name_H-M "P N M A"
_symmetry_group_IT_number 62
_symmetry_cell_setting 'orthorhombic'
loop_
_space_group_symop_operation_xyz
x,y,z
1/2-x,-y,1/2+z
1/2+x,1/2-y,1/2-z
-x,1/2+y,-z
-x,-y,-z
1/2+x,y,1/2-z
1/2-x,1/2+y,1/2+z
x,1/2-y,z
loop_
_atom_site_type_symbol
_atom_site_label
_atom_site_fract_x
_atom_site_fract_y
_atom_site_fract_z
Si Si1 0.301423 0.929561 0.860515
Si Si2 0.397533 0.931128 0.712252
Si Si3 0.893905 0.069556 0.501349
Si Si4 0.707830 0.932396 0.858934
Si Si5 0.389765 0.431367 0.284449
O O1 0.311412 0.750000 0.877269
O O2 0.367020 0.976914 0.792779
O O3 0.189750 0.976499 0.844225
O O4 0.336130 0.026008 0.927766
O O5 0.400184 0.750000 0.707060
O O6 0.318150 0.992703 0.654913
O O7 0.504355 0.999705 0.695138
O O8 0.904292 0.250000 0.495797
O O9 0.833315 0.003522 0.433659
O O10 0.000000 0.000000 0.500000
O O11 0.707718 0.750000 0.858936
O O12 0.641026 0.994065 0.793841
O O13 0.395061 0.250000 0.279159
#
# Coordination Sequence:
#
# PCOD8255002 Si02
#       5
#     8   8   8   8   8
#     4   9  17  29  47  71  94 115 147 189 228 267
#     4   8  13  25  47  70  90 116 154 193 221 255
#     4  11  21  32  47  67  93 121 150 187 231 275
#     4   8  15  26  42  67  92 115 149 189 223 260
#     4   8  13  24  45  69  89 113 149 190 223 255
#
# _framework density 17.803502000000002
#
# number of rings (size 3 to 8) (size 9 to 14) (size 15 to 20)
#    0.000    3.200    0.000    4.200    0.000    3.200 
#    0.000    1.000    0.000   15.600    0.000    0.000 
#    0.000    0.000    0.000    0.000    0.000    0.000 
#
# Total GULP energy -495670.024295 kJ/mol
# GULP energy per Si atom -12391.750607 kJ/mol
# Density = 1.776298 g / cm^3
# Si number density = 17.803502 Si / 1000 Ang^3
#
#
#
# Elastic Constant Matrix: (Units=GPa)
#
#
# Indices 1 2 3 4 5 6 
#
# 1 196.2034 19.1965 83.9715 0.0000 0.0000 0.0000
# 2 19.1965 22.0685 22.3828 0.0000 0.0000 0.0000
# 3 83.9715 22.3828 121.8829 0.0000 0.0000 0.0000
# 4 0.0000 0.0000 0.0000 23.8347 0.0000 0.0000
# 5 0.0000 0.0000 0.0000 0.0000 25.3893 0.0000
# 6 0.0000 0.0000 0.0000 0.0000 0.0000 14.6608
#
#
#
# Elastic Compliance Matrix: (Units=1/GPa)
#
#
# Indices 1 2 3 4 5 6 
#
# 1 0.007270 -0.001529 -0.004728 0.000000 0.000000 0.000000
# 2 -0.001529 0.056007 -0.009232 0.000000 0.000000 0.000000
# 3 -0.004728 -0.009232 0.013157 0.000000 0.000000 0.000000
# 4 0.000000 0.000000 0.000000 0.041956 0.000000 0.000000
# 5 0.000000 0.000000 0.000000 0.000000 0.039387 0.000000
# 6 0.000000 0.000000 0.000000 0.000000 0.000000 0.068209
#
#
# Mechanical properties :
#
#
# Convention : Reuss Voigt Hill
#
# Bulk Modulus (GPa) = 21.99895 65.69515 43.84705
# Shear Modulus (GPa) = 18.37468 27.08390 22.72929
#
# Velocity S-wave (km/s) = 3.21609 3.90458 3.57694
# Velocity P-wave (km/s) = 5.11608 7.57019 6.46073
#
# Compressibility (1/GPa) = 0.04545671
#
# Stress axis : x y z
#
# Youngs Moduli (GPa) = 137.55715 17.85506 76.00396
#
# Poissons Ratio (x) = 0.02729 0.35933
# Poissons Ratio (y) = 0.21026 0.70167
# Poissons Ratio (z) = 0.65034 0.16484
#
# Static dielectric constant tensor:
#      x y z
#    x 4.070850 0.000000 0.000000 
#    y 0.000000 2.713880 0.000000 
#    z 0.000000 0.000000 3.353340 
# 
# 
# High freq. dielectric constant tensor:
#      x y z
#    x 1.707650 0.000000 0.000000 
#    y 0.000000 1.629520 0.000000 
#    z 0.000000 0.000000 1.678260 
# 
# From -- ./inp_files/18635.got.cif
#   From: 2010.03.12/outbox.cif.g09.slc.cpg/sg62_10_cif.got.tgz:18635.got - 2010.04.10 19:12:36.
