data_PCOD8255096
_publ_section_title
;
Structure prediction by ZEFSAII (Michael W. Deem and Ramdas Pophale) SiO2 
 PCOD8255096
Probable space group: P N M A
;
_chemical_formula_sum "Si O2"
_cell_formula_units_Z 64
_cell_length_a 30.710035
_cell_length_b 8.455801
_cell_length_c 11.956852
_cell_angle_alpha 90.000000
_cell_angle_beta 90.000000
_cell_angle_gamma 90.000000
_cell_volume 3104.930752
_symmetry_space_group_name_H-M "P N M A"
_symmetry_group_IT_number 62
_symmetry_cell_setting 'orthorhombic'
loop_
_space_group_symop_operation_xyz
x,y,z
1/2-x,-y,1/2+z
1/2+x,1/2-y,1/2-z
-x,1/2+y,-z
-x,-y,-z
1/2+x,y,1/2-z
1/2-x,1/2+y,1/2+z
x,1/2-y,z
loop_
_atom_site_type_symbol
_atom_site_label
_atom_site_fract_x
_atom_site_fract_y
_atom_site_fract_z
Si Si1 0.702024 0.934841 0.726124
Si Si2 0.833821 0.062198 0.992972
Si Si3 0.069823 0.937208 0.007859
Si Si4 0.873476 0.565686 0.366315
Si Si5 0.873990 0.565515 0.624169
Si Si6 0.795187 0.064851 0.763192
Si Si7 0.043769 0.565041 0.249908
Si Si8 0.545558 0.564347 0.733755
O O1 0.692287 0.750000 0.738111
O O2 0.687494 0.001884 0.606042
O O3 0.674748 0.024594 0.821664
O O4 0.753064 0.966104 0.730859
O O5 0.835652 0.250000 0.992514
O O6 0.881960 0.990098 0.983470
O O7 0.806605 0.003468 0.886957
O O8 0.072852 0.750000 0.999590
O O9 0.047969 0.001305 0.894023
O O10 0.044681 0.989981 0.119730
O O11 0.882817 0.750000 0.351838
O O12 0.876150 0.514083 0.495110
O O13 0.909814 0.470861 0.297731
O O14 0.863616 0.750000 0.636659
O O15 0.835262 0.467762 0.680709
O O16 0.920306 0.527693 0.679734
O O17 0.784400 0.250000 0.760278
O O18 0.053358 0.750000 0.263399
O O19 0.995417 0.521467 0.293608
O O20 0.537105 0.750000 0.736694
#
# Coordination Sequence:
#
# PCOD8255096 Si02
#       8
#     8   8   8   8   8   8   8   8
#     4  11  23  41  65  93 126 163 204 250 305 366
#     4   9  18  37  63  89 122 161 196 246 308 357
#     4   9  17  35  61  91 124 158 196 245 305 361
#     4  11  25  44  63  87 122 163 208 258 308 359
#     4  11  25  44  63  87 122 163 208 258 308 359
#     4  11  23  41  65  93 126 163 204 250 305 366
#     4  11  22  39  64  92 124 160 201 250 306 369
#     4  11  22  39  64  92 124 160 201 250 306 369
#
# _framework density 20.612376999999999
#
# number of rings (size 3 to 8) (size 9 to 14) (size 15 to 20)
#    0.000    1.500    2.500    2.625    1.750    2.500 
#    0.000    5.000    0.000    0.000    0.000    0.000 
#    0.000    0.000    0.000    0.000    0.000    0.000 
#
# Total GULP energy -793736.674836 kJ/mol
# GULP energy per Si atom -12402.135544 kJ/mol
# Density = 2.056546 g / cm^3
# Si number density = 20.612377 Si / 1000 Ang^3
#
#
#
# Elastic Constant Matrix: (Units=GPa)
#
#
# Indices 1 2 3 4 5 6 
#
# 1 110.8366 7.5432 25.1677 0.0000 0.0000 0.0000
# 2 7.5432 38.6118 27.1506 0.0000 0.0000 0.0000
# 3 25.1677 27.1506 119.4755 0.0000 0.0000 0.0000
# 4 0.0000 0.0000 0.0000 25.9469 0.0000 0.0000
# 5 0.0000 0.0000 0.0000 0.0000 26.8313 0.0000
# 6 0.0000 0.0000 0.0000 0.0000 0.0000 35.7078
#
#
#
# Elastic Compliance Matrix: (Units=1/GPa)
#
#
# Indices 1 2 3 4 5 6 
#
# 1 0.009485 -0.000533 -0.001877 0.000000 0.000000 0.000000
# 2 -0.000533 0.030854 -0.006899 0.000000 0.000000 0.000000
# 3 -0.001877 -0.006899 0.010333 0.000000 0.000000 0.000000
# 4 0.000000 0.000000 0.000000 0.038540 0.000000 0.000000
# 5 0.000000 0.000000 0.000000 0.000000 0.037270 0.000000
# 6 0.000000 0.000000 0.000000 0.000000 0.000000 0.028005
#
#
# Mechanical properties :
#
#
# Convention : Reuss Voigt Hill
#
# Bulk Modulus (GPa) = 31.19774 43.18297 37.19035
# Shear Modulus (GPa) = 27.20487 31.63469 29.41978
#
# Velocity S-wave (km/s) = 3.63689 3.92183 3.78204
# Velocity P-wave (km/s) = 5.72750 6.44229 6.09538
#
# Compressibility (1/GPa) = 0.03205361
#
# Stress axis : x y z
#
# Youngs Moduli (GPa) = 105.43242 32.41036 96.77628
#
# Poissons Ratio (x) = 0.01728 0.18163
# Poissons Ratio (y) = 0.05622 0.66769
# Poissons Ratio (z) = 0.19788 0.22361
#
# Static dielectric constant tensor:
#      x y z
#    x 3.720600 0.000000 0.000000 
#    y 0.000000 3.446370 0.000000 
#    z 0.000000 0.000000 3.945430 
# 
# 
# High freq. dielectric constant tensor:
#      x y z
#    x 1.820020 0.000000 0.000000 
#    y 0.000000 1.789800 0.000000 
#    z 0.000000 0.000000 1.811290 
# 
# From -- ./inp_files/15924.got.cif
#   From: 2010.03.12/outbox.cif.g09.slc.cpg/sg62_8_cif.got.tgz:15924.got - 2010.04.10 19:12:36.
