data_PCOD8255589
_publ_section_title
;
Structure prediction by ZEFSAII (Michael W. Deem and Ramdas Pophale) SiO2 
 PCOD8255589
Probable space group: C M C M
;
_chemical_formula_sum "Si O2"
_cell_formula_units_Z 96
_cell_length_a 16.785162
_cell_length_b 12.291172
_cell_length_c 24.866846
_cell_angle_alpha 90.000000
_cell_angle_beta 90.000000
_cell_angle_gamma 90.000000
_cell_volume 5130.261919
_symmetry_space_group_name_H-M "C M C M"
_symmetry_group_IT_number 63
_symmetry_cell_setting 'orthorhombic'
loop_
_space_group_symop_operation_xyz
x,y,z
-x,-y,1/2+z
x,-y,-z
-x,y,1/2-z
-x,-y,-z
x,y,1/2-z
-x,y,z
x,-y,1/2+z
1/2+x,1/2+y,z
1/2-x,1/2-y,1/2+z
1/2+x,1/2-y,-z
1/2-x,1/2+y,1/2-z
1/2-x,1/2-y,-z
1/2+x,1/2+y,1/2-z
1/2-x,1/2+y,z
1/2+x,1/2-y,1/2+z
loop_
_atom_site_type_symbol
_atom_site_label
_atom_site_fract_x
_atom_site_fract_y
_atom_site_fract_z
Si Si1 0.214778 0.421097 0.587965
Si Si2 0.588026 0.580304 0.151049
Si Si3 0.908786 0.265654 0.941244
Si Si4 0.229267 0.199290 0.311045
Si Si5 0.871417 0.111520 0.467132
Si Si6 0.800796 0.888715 0.131488
O O1 0.128877 0.388474 0.562668
O O2 0.220558 0.378195 0.649309
O O3 0.279924 0.364463 0.549084
O O4 0.237497 0.549351 0.591607
O O5 0.500000 0.568651 0.176402
O O6 0.634541 0.679884 0.179672
O O7 0.578322 0.599571 0.087366
O O8 0.640325 0.472076 0.161735
O O9 0.855136 0.190765 0.903411
O O10 0.000000 0.271266 0.921511
O O11 0.905039 0.215573 0.000887
O O12 0.253630 0.173354 0.250000
O O13 0.250015 0.324473 0.324183
O O14 0.882179 0.000000 0.500000
#
# Coordination Sequence:
#
# PCOD8255589 Si02
#       6
#    16  16  16  16  16  16
#     4   9  20  34  50  78 104 138 174 214 250 308
#     4  10  20  33  52  82 110 129 167 219 259 298
#     4  11  19  30  52  79 107 136 169 210 253 293
#     4   9  19  35  53  73  99 133 173 215 265 313
#     4  10  17  31  54  78 105 147 175 196 242 320
#     4   9  18  33  52  74  99 136 173 204 250 311
#
# _framework density 18.712494
#
# number of rings (size 3 to 8) (size 9 to 14) (size 15 to 20)
#    0.000    2.667    3.333    1.500    0.000    3.667 
#    0.000    0.833    0.000   12.500    0.000    0.000 
#    0.000    0.000    0.000    0.000    0.000    0.000 
#
# Total GULP energy -594693.338451 kJ/mol
# GULP energy per Si atom -12389.444551 kJ/mol
# Density = 1.866990 g / cm^3
# Si number density = 18.712494 Si / 1000 Ang^3
#
#
#
# Elastic Constant Matrix: (Units=GPa)
#
#
# Indices 1 2 3 4 5 6 
#
# 1 102.2066 55.5735 20.7474 0.0000 0.0000 0.0000
# 2 55.5735 46.9613 11.6617 0.0000 0.0000 0.0000
# 3 20.7474 11.6617 65.5643 0.0000 0.0000 0.0000
# 4 0.0000 0.0000 0.0000 19.9506 0.0000 0.0000
# 5 0.0000 0.0000 0.0000 0.0000 6.6853 0.0000
# 6 0.0000 0.0000 0.0000 0.0000 0.0000 24.7780
#
#
#
# Elastic Compliance Matrix: (Units=1/GPa)
#
#
# Indices 1 2 3 4 5 6 
#
# 1 0.028034 -0.032403 -0.003108 0.000000 0.000000 0.000000
# 2 -0.032403 0.059732 -0.000371 0.000000 0.000000 0.000000
# 3 -0.003108 -0.000371 0.016302 0.000000 0.000000 0.000000
# 4 0.000000 0.000000 0.000000 0.050124 0.000000 0.000000
# 5 0.000000 0.000000 0.000000 0.000000 0.149581 0.000000
# 6 0.000000 0.000000 0.000000 0.000000 0.000000 0.040358
#
#
# Mechanical properties :
#
#
# Convention : Reuss Voigt Hill
#
# Bulk Modulus (GPa) = 30.95559 43.41083 37.18321
# Shear Modulus (GPa) = 11.71890 18.73275 15.22582
#
# Velocity S-wave (km/s) = 2.50524 3.16742 2.85559
# Velocity P-wave (km/s) = 4.99469 6.05194 5.54855
#
# Compressibility (1/GPa) = 0.03230434
#
# Stress axis : x y z
#
# Youngs Moduli (GPa) = 35.67131 16.74152 61.34398
#
# Poissons Ratio (x) = 0.54248 0.19064
# Poissons Ratio (y) = 1.15586 0.02273
# Poissons Ratio (z) = 0.11085 0.00620
#
# Static dielectric constant tensor:
#      x y z
#    x 3.407960 0.000000 0.000000 
#    y 0.000000 3.639910 0.000000 
#    z 0.000000 0.000000 3.285260 
# 
# 
# High freq. dielectric constant tensor:
#      x y z
#    x 1.711530 0.000000 0.000000 
#    y 0.000000 1.710360 0.000000 
#    z 0.000000 0.000000 1.711730 
# 
# From -- ./inp_files/63661.got.cif
#   From: 2010.03.12/outbox.cif.g09.slc.cpg/sg63_32_cif.got.tgz:63661.got - 2010.04.10 19:34:48.
