data_PCOD8255963
_publ_section_title
;
Structure prediction by ZEFSAII (Michael W. Deem and Ramdas Pophale) SiO2 
 PCOD8255963
Probable space group: C M C M
;
_chemical_formula_sum "Si O2"
_cell_formula_units_Z 80
_cell_length_a 19.386819
_cell_length_b 32.839601
_cell_length_c 8.460732
_cell_angle_alpha 90.000000
_cell_angle_beta 90.000000
_cell_angle_gamma 90.000000
_cell_volume 5386.570721
_symmetry_space_group_name_H-M "C M C M"
_symmetry_group_IT_number 63
_symmetry_cell_setting 'orthorhombic'
loop_
_space_group_symop_operation_xyz
x,y,z
-x,-y,1/2+z
x,-y,-z
-x,y,1/2-z
-x,-y,-z
x,y,1/2-z
-x,y,z
x,-y,1/2+z
1/2+x,1/2+y,z
1/2-x,1/2-y,1/2+z
1/2+x,1/2-y,-z
1/2-x,1/2+y,1/2-z
1/2-x,1/2-y,-z
1/2+x,1/2+y,1/2-z
1/2-x,1/2+y,z
1/2+x,1/2-y,1/2+z
loop_
_atom_site_type_symbol
_atom_site_label
_atom_site_fract_x
_atom_site_fract_y
_atom_site_fract_z
Si Si1 0.649117 0.765586 0.937557
Si Si2 0.579870 0.456554 0.564239
Si Si3 0.500000 0.759179 0.568217
Si Si4 0.780537 0.186717 0.065947
Si Si5 0.000000 0.172577 0.069484
Si Si6 0.624366 0.624511 0.932704
O O1 0.650510 0.756821 0.750000
O O2 0.571978 0.777712 0.999678
O O3 0.702008 0.801648 0.982254
O O4 0.669302 0.724124 0.025311
O O5 0.604716 0.500000 0.500000
O O6 0.591478 0.454569 0.750000
O O7 0.500000 0.448937 0.518732
O O8 0.627475 0.422903 0.479357
O O9 0.500000 0.769798 0.750000
O O10 0.500000 0.710773 0.546464
O O11 0.786103 0.177011 0.250000
O O12 0.802586 0.146435 0.969505
O O13 0.000000 0.187676 0.250000
O O14 0.066964 0.145465 0.040677
O O15 0.605351 0.629272 0.750000
#
# Coordination Sequence:
#
# PCOD8255963 Si02
#       6
#    16  16   8  16   8  16
#     4   9  18  30  44  61  84 112 142 181 224 263
#     4  10  20  33  48  65  87 112 141 178 217 257
#     4  10  18  30  46  63  83 110 145 183 224 266
#     4  10  19  30  43  61  85 112 144 181 220 260
#     4  12  22  30  41  63  84 108 146 187 222 258
#     4  12  22  32  46  62  84 115 147 183 220 257
#
# _framework density 14.851749
#
# number of rings (size 3 to 8) (size 9 to 14) (size 15 to 20)
#    0.000    1.600    3.000    3.900    0.000    1.600 
#    0.000    0.000    0.000    0.000    0.000    0.000 
#    0.000    0.000    0.000    0.900    0.000    9.000 
#
# Total GULP energy -495930.939072 kJ/mol
# GULP energy per Si atom -12398.273477 kJ/mol
# Density = 1.481795 g / cm^3
# Si number density = 14.851749 Si / 1000 Ang^3
#
#
#
# Elastic Constant Matrix: (Units=GPa)
#
#
# Indices 1 2 3 4 5 6 
#
# 1 110.1138 44.5664 17.9631 0.0000 0.0000 0.0000
# 2 44.5664 87.5970 20.2327 0.0000 0.0000 0.0000
# 3 17.9631 20.2327 48.2605 0.0000 0.0000 0.0000
# 4 0.0000 0.0000 0.0000 22.8363 0.0000 0.0000
# 5 0.0000 0.0000 0.0000 0.0000 16.0873 0.0000
# 6 0.0000 0.0000 0.0000 0.0000 0.0000 23.4148
#
#
#
# Elastic Compliance Matrix: (Units=1/GPa)
#
#
# Indices 1 2 3 4 5 6 
#
# 1 0.011616 -0.005438 -0.002044 0.000000 0.000000 0.000000
# 2 -0.005438 0.015185 -0.004342 0.000000 0.000000 0.000000
# 3 -0.002044 -0.004342 0.023302 0.000000 0.000000 0.000000
# 4 0.000000 0.000000 0.000000 0.043790 0.000000 0.000000
# 5 0.000000 0.000000 0.000000 0.000000 0.062161 0.000000
# 6 0.000000 0.000000 0.000000 0.000000 0.000000 0.042708
#
#
# Mechanical properties :
#
#
# Convention : Reuss Voigt Hill
#
# Bulk Modulus (GPa) = 37.79925 45.72177 41.76051
# Shear Modulus (GPa) = 21.62367 23.34828 22.48598
#
# Velocity S-wave (km/s) = 3.81985 3.96926 3.89527
# Velocity P-wave (km/s) = 6.70532 7.20132 6.95774
#
# Compressibility (1/GPa) = 0.02645555
#
# Stress axis : x y z
#
# Youngs Moduli (GPa) = 86.09044 65.85293 42.91455
#
# Poissons Ratio (x) = 0.35808 0.08771
# Poissons Ratio (y) = 0.46812 0.18635
# Poissons Ratio (z) = 0.17596 0.28596
#
# Static dielectric constant tensor:
#      x y z
#    x 3.107210 0.000000 0.000000 
#    y 0.000000 2.777340 0.000000 
#    z 0.000000 0.000000 2.891020 
# 
# 
# High freq. dielectric constant tensor:
#      x y z
#    x 1.546810 0.000000 0.000000 
#    y 0.000000 1.536950 0.000000 
#    z 0.000000 0.000000 1.580160 
# 
# From -- ./inp_files/8439.got.cif
#   From: 2010.03.12/outbox.cif.g09.slc.cpg/sg63_5_cif.got.tgz:8439.got - 2010.04.10 19:34:48.
