data_PCOD8255012
_publ_section_title
;
Structure prediction by ZEFSAII (Michael W. Deem and Ramdas Pophale) SiO2 
 PCOD8255012
Probable space group: P N M A
;
_chemical_formula_sum "Si O2"
_cell_formula_units_Z 48
_cell_length_a 10.254405
_cell_length_b 8.626275
_cell_length_c 29.269115
_cell_angle_alpha 90.000000
_cell_angle_beta 90.000000
_cell_angle_gamma 90.000000
_cell_volume 2589.067398
_symmetry_space_group_name_H-M "P N M A"
_symmetry_group_IT_number 62
_symmetry_cell_setting 'orthorhombic'
loop_
_space_group_symop_operation_xyz
x,y,z
1/2-x,-y,1/2+z
1/2+x,1/2-y,1/2-z
-x,1/2+y,-z
-x,-y,-z
1/2+x,y,1/2-z
1/2-x,1/2+y,1/2+z
x,1/2-y,z
loop_
_atom_site_type_symbol
_atom_site_label
_atom_site_fract_x
_atom_site_fract_y
_atom_site_fract_z
Si Si1 0.982151 0.568631 0.118739
Si Si2 0.710969 0.931977 0.787024
Si Si3 0.755744 0.071903 0.387946
Si Si4 0.496684 0.065552 0.284166
Si Si5 0.366020 0.069981 0.016485
Si Si6 0.616276 0.567549 0.529798
O O1 0.960775 0.750000 0.122947
O O2 0.946469 0.490379 0.166769
O O3 0.885049 0.501286 0.080750
O O4 0.129974 0.533697 0.103313
O O5 0.710077 0.750000 0.778813
O O6 0.676568 0.972889 0.839745
O O7 0.600483 0.005536 0.754222
O O8 0.855911 0.996565 0.775151
O O9 0.706616 0.250000 0.385847
O O10 0.858021 0.046880 0.428706
O O11 0.496388 0.250000 0.283703
O O12 0.355168 0.250000 0.003245
O O13 0.500000 0.000000 0.000000
O O14 0.252879 0.975166 0.992351
O O15 0.500000 0.500000 0.500000
O O16 0.598852 0.750000 0.532077
#
# Coordination Sequence:
#
# PCOD8255012 Si02
#       6
#     8   8   8   8   8   8
#     4  11  21  34  56  84 112 145 187 233 284 337
#     4   8  15  30  54  79 103 135 182 228 271 324
#     4   9  18  35  58  81 109 148 192 231 273 334
#     4   9  17  33  54  78 107 141 181 229 276 330
#     4  11  23  39  58  84 121 156 191 234 283 339
#     4  12  23  38  61  87 113 146 191 238 285 337
#
# _framework density 18.539494000000001
#
# number of rings (size 3 to 8) (size 9 to 14) (size 15 to 20)
#    0.000    2.000    1.667    4.500    0.000    0.667 
#    3.000    3.333    0.000    0.000    0.000    0.000 
#    0.000    0.000    0.000    0.000    0.000    0.000 
#
# Total GULP energy -595175.318284 kJ/mol
# GULP energy per Si atom -12399.485798 kJ/mol
# Density = 1.849730 g / cm^3
# Si number density = 18.539494 Si / 1000 Ang^3
#
#
#
# Elastic Constant Matrix: (Units=GPa)
#
#
# Indices 1 2 3 4 5 6 
#
# 1 108.7079 14.5619 75.4420 0.0000 0.0000 0.0000
# 2 14.5619 46.4398 20.7032 0.0000 0.0000 0.0000
# 3 75.4420 20.7032 146.7438 0.0000 0.0000 0.0000
# 4 0.0000 0.0000 0.0000 25.2114 0.0000 0.0000
# 5 0.0000 0.0000 0.0000 0.0000 38.1109 0.0000
# 6 0.0000 0.0000 0.0000 0.0000 0.0000 23.0944
#
#
#
# Elastic Compliance Matrix: (Units=1/GPa)
#
#
# Indices 1 2 3 4 5 6 
#
# 1 0.014374 -0.001294 -0.007207 0.000000 0.000000 0.000000
# 2 -0.001294 0.023095 -0.002593 0.000000 0.000000 0.000000
# 3 -0.007207 -0.002593 0.010886 0.000000 0.000000 0.000000
# 4 0.000000 0.000000 0.000000 0.039665 0.000000 0.000000
# 5 0.000000 0.000000 0.000000 0.000000 0.026239 0.000000
# 6 0.000000 0.000000 0.000000 0.000000 0.000000 0.043300
#
#
# Mechanical properties :
#
#
# Convention : Reuss Voigt Hill
#
# Bulk Modulus (GPa) = 38.21748 58.14507 48.18128
# Shear Modulus (GPa) = 26.52945 30.02898 28.27921
#
# Velocity S-wave (km/s) = 3.78692 4.02895 3.90981
# Velocity P-wave (km/s) = 6.30713 7.28520 6.81374
#
# Compressibility (1/GPa) = 0.02616604
#
# Stress axis : x y z
#
# Youngs Moduli (GPa) = 69.56985 43.29931 91.86367
#
# Poissons Ratio (x) = 0.05604 0.66208
# Poissons Ratio (y) = 0.09004 0.23820
# Poissons Ratio (z) = 0.50140 0.11227
#
# Static dielectric constant tensor:
#      x y z
#    x 5.676310 0.000000 0.000000 
#    y 0.000000 3.266340 0.000000 
#    z 0.000000 0.000000 3.747220 
# 
# 
# High freq. dielectric constant tensor:
#      x y z
#    x 1.701180 0.000000 0.000000 
#    y 0.000000 1.706230 0.000000 
#    z 0.000000 0.000000 1.733980 
# 
# From -- ./inp_files/31928.got.cif
#   From: 2010.03.12/outbox.cif.g09.slc.cpg/sg62_16_cif.got.tgz:31928.got - 2010.04.10 19:12:36.
