data_PCOD8255465
_publ_section_title
;
Structure prediction by ZEFSAII (Michael W. Deem and Ramdas Pophale) SiO2 
 PCOD8255465
Probable space group: C M C M
;
_chemical_formula_sum "Si O2"
_cell_formula_units_Z 80
_cell_length_a 19.291381
_cell_length_b 32.750444
_cell_length_c 9.185153
_cell_angle_alpha 90.000000
_cell_angle_beta 90.000000
_cell_angle_gamma 90.000000
_cell_volume 5803.191543
_symmetry_space_group_name_H-M "C M C M"
_symmetry_group_IT_number 63
_symmetry_cell_setting 'orthorhombic'
loop_
_space_group_symop_operation_xyz
x,y,z
-x,-y,1/2+z
x,-y,-z
-x,y,1/2-z
-x,-y,-z
x,y,1/2-z
-x,y,z
x,-y,1/2+z
1/2+x,1/2+y,z
1/2-x,1/2-y,1/2+z
1/2+x,1/2-y,-z
1/2-x,1/2+y,1/2-z
1/2-x,1/2-y,-z
1/2+x,1/2+y,1/2-z
1/2-x,1/2+y,z
1/2+x,1/2-y,1/2+z
loop_
_atom_site_type_symbol
_atom_site_label
_atom_site_fract_x
_atom_site_fract_y
_atom_site_fract_z
Si Si1 0.000000 0.665647 0.077441
Si Si2 0.729659 0.189679 0.419176
Si Si3 0.000000 0.244200 0.576945
Si Si4 0.419939 0.958058 0.420768
Si Si5 0.150726 0.228882 0.579275
Si Si6 0.867021 0.382994 0.921201
O O1 0.000000 0.710603 0.008347
O O2 0.932740 0.642203 0.022758
O O3 0.000000 0.669062 0.250000
O O4 0.745940 0.193140 0.250000
O O5 0.801932 0.194966 0.502881
O O6 0.675192 0.225259 0.463684
O O7 0.699755 0.144910 0.457294
O O8 0.071013 0.221940 0.526608
O O9 0.000000 0.247937 0.750000
O O10 0.405968 0.962879 0.250000
O O11 0.500000 0.945923 0.452384
O O12 0.367113 0.924692 0.487118
O O13 0.401610 0.000000 0.500000
O O14 0.157488 0.222075 0.750000
O O15 0.871473 0.393229 0.750000
#
# Coordination Sequence:
#
# PCOD8255465 Si02
#       6
#     8  16   8  16  16  16
#     4   9  14  22  38  58  75  97 136 173 199 232
#     4   9  17  27  39  57  79 103 131 165 206 245
#     4   9  14  24  41  58  74 101 142 175 200 236
#     4  10  20  31  42  58  80 104 131 165 203 240
#     4   9  16  26  40  56  76 103 135 170 202 237
#     4  10  17  27  44  59  75 103 137 171 203 239
#
# _framework density 13.785517
#
# number of rings (size 3 to 8) (size 9 to 14) (size 15 to 20)
#    0.000    2.600    3.000    0.600    0.000    1.600 
#    0.000    0.500    0.000    1.200    0.000    0.000 
#    0.000    0.000    0.000    0.900    0.000   11.600 
#
# Total GULP energy -495800.797310 kJ/mol
# GULP energy per Si atom -12395.019933 kJ/mol
# Density = 1.375414 g / cm^3
# Si number density = 13.785517 Si / 1000 Ang^3
#
#
#
# Elastic Constant Matrix: (Units=GPa)
#
#
# Indices 1 2 3 4 5 6 
#
# 1 103.4020 47.6819 36.0655 0.0000 0.0000 0.0000
# 2 47.6819 85.9664 41.6037 0.0000 0.0000 0.0000
# 3 36.0655 41.6037 46.7489 0.0000 0.0000 0.0000
# 4 0.0000 0.0000 0.0000 21.6538 0.0000 0.0000
# 5 0.0000 0.0000 0.0000 0.0000 19.2956 0.0000
# 6 0.0000 0.0000 0.0000 0.0000 0.0000 20.9085
#
#
#
# Elastic Compliance Matrix: (Units=1/GPa)
#
#
# Indices 1 2 3 4 5 6 
#
# 1 0.014161 -0.004510 -0.006912 0.000000 0.000000 0.000000
# 2 -0.004510 0.021869 -0.015983 0.000000 0.000000 0.000000
# 3 -0.006912 -0.015983 0.040946 0.000000 0.000000 0.000000
# 4 0.000000 0.000000 0.000000 0.046181 0.000000 0.000000
# 5 0.000000 0.000000 0.000000 0.000000 0.051825 0.000000
# 6 0.000000 0.000000 0.000000 0.000000 0.000000 0.047827
#
#
# Mechanical properties :
#
#
# Convention : Reuss Voigt Hill
#
# Bulk Modulus (GPa) = 45.10910 54.09108 49.60009
# Shear Modulus (GPa) = 17.54338 19.75600 18.64969
#
# Velocity S-wave (km/s) = 3.57122 3.78974 3.68210
# Velocity P-wave (km/s) = 7.05676 7.64672 7.35765
#
# Compressibility (1/GPa) = 0.02216848
#
# Stress axis : x y z
#
# Youngs Moduli (GPa) = 70.61504 45.72762 24.42212
#
# Poissons Ratio (x) = 0.20622 0.16880
# Poissons Ratio (y) = 0.31846 0.39033
# Poissons Ratio (z) = 0.48807 0.73084
#
# Static dielectric constant tensor:
#      x y z
#    x 2.704340 0.000000 0.000000 
#    y 0.000000 2.593870 0.000000 
#    z 0.000000 0.000000 2.559030 
# 
# 
# High freq. dielectric constant tensor:
#      x y z
#    x 1.503440 0.000000 0.000000 
#    y 0.000000 1.501580 0.000000 
#    z 0.000000 0.000000 1.513740 
# 
# From -- ./inp_files/8898.got.cif
#   From: 2010.03.12/outbox.cif.g09.slc.cpg/sg63_5_cif.got.tgz:8898.got - 2010.04.10 19:34:48.
