data_PCOD8255812
_publ_section_title
;
Structure prediction by ZEFSAII (Michael W. Deem and Ramdas Pophale) SiO2 
 PCOD8255812
Probable space group: C M C M
;
_chemical_formula_sum "Si O2"
_cell_formula_units_Z 80
_cell_length_a 24.752033
_cell_length_b 20.567402
_cell_length_c 8.686398
_cell_angle_alpha 90.000000
_cell_angle_beta 90.000000
_cell_angle_gamma 90.000000
_cell_volume 4422.115039
_symmetry_space_group_name_H-M "C M C M"
_symmetry_group_IT_number 63
_symmetry_cell_setting 'orthorhombic'
loop_
_space_group_symop_operation_xyz
x,y,z
-x,-y,1/2+z
x,-y,-z
-x,y,1/2-z
-x,-y,-z
x,y,1/2-z
-x,y,z
x,-y,1/2+z
1/2+x,1/2+y,z
1/2-x,1/2-y,1/2+z
1/2+x,1/2-y,-z
1/2-x,1/2+y,1/2-z
1/2-x,1/2-y,-z
1/2+x,1/2+y,1/2-z
1/2-x,1/2+y,z
1/2+x,1/2-y,1/2+z
loop_
_atom_site_type_symbol
_atom_site_label
_atom_site_fract_x
_atom_site_fract_y
_atom_site_fract_z
Si Si1 0.500000 0.617663 0.570963
Si Si2 0.383473 0.231476 0.923634
Si Si3 0.000000 0.252837 0.073711
Si Si4 0.279764 0.811641 0.929508
Si Si5 0.780690 0.932218 0.431449
Si Si6 0.611008 0.614786 0.071786
O O1 0.500000 0.600183 0.750000
O O2 0.500000 0.695127 0.548805
O O3 0.446331 0.588559 0.491257
O O4 0.364024 0.217024 0.750000
O O5 0.445105 0.205316 0.949514
O O6 0.382930 0.308345 0.955468
O O7 0.343871 0.194460 0.039931
O O8 0.000000 0.223659 0.250000
O O9 0.267550 0.813815 0.750000
O O10 0.250000 0.750000 0.000000
O O11 0.258170 0.876851 0.004355
O O12 0.775769 0.933586 0.250000
O O13 0.842550 0.921175 0.478139
O O14 0.759766 0.000000 0.500000
O O15 0.616498 0.596435 0.250000
#
# Coordination Sequence:
#
# PCOD8255812 Si02
#       6
#     8  16   8  16  16  16
#     4  10  18  28  47  75 106 141 185 229 273 319
#     4   9  17  31  53  80 110 144 182 226 274 324
#     4   8  16  30  48  73 110 145 178 221 276 327
#     4  12  23  36  56  83 113 147 187 232 277 326
#     4  12  25  41  59  80 109 145 185 230 282 337
#     4  10  19  34  54  76 107 144 185 228 276 326
#
# _framework density 18.090890000000002
#
# number of rings (size 3 to 8) (size 9 to 14) (size 15 to 20)
#    0.000    1.600    2.000    6.300    0.000    3.200 
#    0.000    0.500    0.000    0.000    0.000    0.700 
#    0.000    0.000    0.000    0.000    0.000    0.000 
#
# Total GULP energy -496005.016803 kJ/mol
# GULP energy per Si atom -12400.125420 kJ/mol
# Density = 1.804971 g / cm^3
# Si number density = 18.090890 Si / 1000 Ang^3
#
#
#
# Elastic Constant Matrix: (Units=GPa)
#
#
# Indices 1 2 3 4 5 6 
#
# 1 116.4061 47.0887 46.5171 0.0000 0.0000 0.0000
# 2 47.0887 87.1343 49.2369 0.0000 0.0000 0.0000
# 3 46.5171 49.2369 146.4882 0.0000 0.0000 0.0000
# 4 0.0000 0.0000 0.0000 24.1407 0.0000 0.0000
# 5 0.0000 0.0000 0.0000 0.0000 33.6235 0.0000
# 6 0.0000 0.0000 0.0000 0.0000 0.0000 11.9901
#
#
#
# Elastic Compliance Matrix: (Units=1/GPa)
#
#
# Indices 1 2 3 4 5 6 
#
# 1 0.011413 -0.005086 -0.001915 0.000000 0.000000 0.000000
# 2 -0.005086 0.016434 -0.003909 0.000000 0.000000 0.000000
# 3 -0.001915 -0.003909 0.008748 0.000000 0.000000 0.000000
# 4 0.000000 0.000000 0.000000 0.041424 0.000000 0.000000
# 5 0.000000 0.000000 0.000000 0.000000 0.029741 0.000000
# 6 0.000000 0.000000 0.000000 0.000000 0.000000 0.083402
#
#
# Mechanical properties :
#
#
# Convention : Reuss Voigt Hill
#
# Bulk Modulus (GPa) = 67.67470 70.63490 69.15480
# Shear Modulus (GPa) = 22.94567 27.76325 25.35446
#
# Velocity S-wave (km/s) = 3.56526 3.92172 3.74773
# Velocity P-wave (km/s) = 7.37818 7.72241 7.55226
#
# Compressibility (1/GPa) = 0.01477657
#
# Stress axis : x y z
#
# Youngs Moduli (GPa) = 87.61854 60.85091 114.30833
#
# Poissons Ratio (x) = 0.30948 0.21888
# Poissons Ratio (y) = 0.44561 0.44679
# Poissons Ratio (z) = 0.16777 0.23784
#
# Static dielectric constant tensor:
#      x y z
#    x 3.759740 0.000000 0.000000 
#    y 0.000000 3.026660 0.000000 
#    z 0.000000 0.000000 3.499070 
# 
# 
# High freq. dielectric constant tensor:
#      x y z
#    x 1.714910 0.000000 0.000000 
#    y 0.000000 1.649750 0.000000 
#    z 0.000000 0.000000 1.712100 
# 
# From -- ./inp_files/10105.got.cif
#   From: 2010.03.12/outbox.cif.g09.slc.cpg/sg63_6_cif.got.tgz:10105.got - 2010.04.10 19:34:48.
