data_PCOD8255217
_publ_section_title
;
Structure prediction by ZEFSAII (Michael W. Deem and Ramdas Pophale) SiO2 
 PCOD8255217
Probable space group: P N M A
;
_chemical_formula_sum "Si O2"
_cell_formula_units_Z 32
_cell_length_a 9.756726
_cell_length_b 8.497216
_cell_length_c 17.991336
_cell_angle_alpha 90.000000
_cell_angle_beta 90.000000
_cell_angle_gamma 90.000000
_cell_volume 1491.571860
_symmetry_space_group_name_H-M "P N M A"
_symmetry_group_IT_number 62
_symmetry_cell_setting 'orthorhombic'
loop_
_space_group_symop_operation_xyz
x,y,z
1/2-x,-y,1/2+z
1/2+x,1/2-y,1/2-z
-x,1/2+y,-z
-x,-y,-z
1/2+x,y,1/2-z
1/2-x,1/2+y,1/2+z
x,1/2-y,z
loop_
_atom_site_type_symbol
_atom_site_label
_atom_site_fract_x
_atom_site_fract_y
_atom_site_fract_z
Si Si1 0.850392 0.433472 0.488565
Si Si2 0.023541 0.932393 0.212171
Si Si3 0.690136 0.931001 0.817804
Si Si4 0.096293 0.565620 0.936142
O O1 0.845541 0.250000 0.508478
O O2 0.798867 0.464900 0.405206
O O3 0.753225 0.528648 0.544446
O O4 0.000000 0.500000 0.500000
O O5 0.059974 0.750000 0.207144
O O6 0.932976 0.965641 0.284891
O O7 0.936765 0.983107 0.140999
O O8 0.165419 0.026027 0.219324
O O9 0.656952 0.750000 0.800749
O O10 0.071322 0.750000 0.927474
O O11 0.000000 0.500000 0.000000
#
# Coordination Sequence:
#
# PCOD8255217 Si02
#       4
#     8   8   8   8
#     4  11  25  44  69  99 135 175 220 274 333 394
#     4  12  26  44  69  99 134 176 224 274 330 397
#     4  11  25  46  69  96 135 178 221 272 333 394
#     4  12  24  43  70  98 132 173 220 272 330 392
#
# _framework density 21.453878
#
# number of rings (size 3 to 8) (size 9 to 14) (size 15 to 20)
#    0.000    0.500    2.500    6.000    3.500    3.000 
#    0.000    0.000    0.000    0.000    0.000    0.000 
#    0.000    0.000    0.000    0.000    0.000    0.000 
#
# Total GULP energy -397114.155977 kJ/mol
# GULP energy per Si atom -12409.817374 kJ/mol
# Density = 2.140505 g / cm^3
# Si number density = 21.453878 Si / 1000 Ang^3
#
#
#
# Elastic Constant Matrix: (Units=GPa)
#
#
# Indices 1 2 3 4 5 6 
#
# 1 117.4017 3.3544 1.3481 0.0000 0.0000 0.0000
# 2 3.3544 88.7025 28.3436 0.0000 0.0000 0.0000
# 3 1.3481 28.3436 39.0043 0.0000 0.0000 0.0000
# 4 0.0000 0.0000 0.0000 34.6198 0.0000 0.0000
# 5 0.0000 0.0000 0.0000 0.0000 41.0543 0.0000
# 6 0.0000 0.0000 0.0000 0.0000 0.0000 41.8143
#
#
#
# Elastic Compliance Matrix: (Units=1/GPa)
#
#
# Indices 1 2 3 4 5 6 
#
# 1 0.008527 -0.000297 -0.000079 0.000000 0.000000 0.000000
# 2 -0.000297 0.014693 -0.010667 0.000000 0.000000 0.000000
# 3 -0.000079 -0.010667 0.033393 0.000000 0.000000 0.000000
# 4 0.000000 0.000000 0.000000 0.028885 0.000000 0.000000
# 5 0.000000 0.000000 0.000000 0.000000 0.024358 0.000000
# 6 0.000000 0.000000 0.000000 0.000000 0.000000 0.023915
#
#
# Mechanical properties :
#
#
# Convention : Reuss Voigt Hill
#
# Bulk Modulus (GPa) = 28.96298 34.57786 31.77042
# Shear Modulus (GPa) = 29.87451 37.63516 33.75484
#
# Velocity S-wave (km/s) = 3.73567 4.19290 3.97087
# Velocity P-wave (km/s) = 5.66890 6.29229 5.98871
#
# Compressibility (1/GPa) = 0.03452684
#
# Stress axis : x y z
#
# Youngs Moduli (GPa) = 117.27230 68.05767 29.94684
#
# Poissons Ratio (x) = 0.02024 0.00236
# Poissons Ratio (y) = 0.03487 0.31945
# Poissons Ratio (z) = 0.00923 0.72598
#
# Static dielectric constant tensor:
#      x y z
#    x 3.981070 0.000000 0.000000 
#    y 0.000000 4.422360 0.000000 
#    z 0.000000 0.000000 4.006880 
# 
# 
# High freq. dielectric constant tensor:
#      x y z
#    x 1.859080 0.000000 0.000000 
#    y 0.000000 1.855900 0.000000 
#    z 0.000000 0.000000 1.845120 
# 
# From -- ./inp_files/25536.got.cif
#   From: 2010.03.12/outbox.cif.g09.slc.cpg/sg62_13_cif.got.tgz:25536.got - 2010.04.10 19:12:36.
