data_PCOD8255139
_publ_section_title
;
Structure prediction by ZEFSAII (Michael W. Deem and Ramdas Pophale) SiO2 
 PCOD8255139
Probable space group: P N M A
;
_chemical_formula_sum "Si O2"
_cell_formula_units_Z 40
_cell_length_a 14.852944
_cell_length_b 8.576006
_cell_length_c 14.994135
_cell_angle_alpha 90.000000
_cell_angle_beta 90.000000
_cell_angle_gamma 90.000000
_cell_volume 1909.936975
_symmetry_space_group_name_H-M "P N M A"
_symmetry_group_IT_number 62
_symmetry_cell_setting 'orthorhombic'
loop_
_space_group_symop_operation_xyz
x,y,z
1/2-x,-y,1/2+z
1/2+x,1/2-y,1/2-z
-x,1/2+y,-z
-x,-y,-z
1/2+x,y,1/2-z
1/2-x,1/2+y,1/2+z
x,1/2-y,z
loop_
_atom_site_type_symbol
_atom_site_label
_atom_site_fract_x
_atom_site_fract_y
_atom_site_fract_z
Si Si1 0.932419 0.427932 0.569394
Si Si2 0.813418 0.431316 0.230551
Si Si3 0.481376 0.931914 0.749087
Si Si4 0.728666 0.426498 0.545041
Si Si5 0.831298 0.431402 0.863813
O O1 0.959050 0.250000 0.591830
O O2 0.933011 0.530030 0.658263
O O3 0.834600 0.437847 0.525487
O O4 0.000000 0.500000 0.500000
O O5 0.797856 0.250000 0.250556
O O6 0.798175 0.463144 0.126525
O O7 0.744706 0.526769 0.291469
O O8 0.914749 0.483039 0.254526
O O9 0.471511 0.750000 0.727959
O O10 0.430363 0.027127 0.672230
O O11 0.700882 0.250000 0.569173
O O12 0.678813 0.477189 0.455747
O O13 0.824804 0.250000 0.884220
#
# Coordination Sequence:
#
# PCOD8255139 Si02
#       5
#     8   8   8   8   8
#     4  11  23  39  63  96 129 167 217 268 326 386
#     4  11  24  43  67  96 130 171 218 270 329 389
#     4  11  24  42  66  94 129 171 216 270 327 387
#     4  11  24  42  65  94 129 172 218 268 324 387
#     4  12  25  42  66  96 131 174 218 268 328 391
#
# _framework density 20.943097999999999
#
# number of rings (size 3 to 8) (size 9 to 14) (size 15 to 20)
#    0.000    0.800    2.000    5.400    0.000   11.200 
#    0.000    0.000    0.000    0.000    0.000    0.000 
#    0.000    0.000    0.000    0.000    0.000    0.000 
#
# Total GULP energy -496299.387971 kJ/mol
# GULP energy per Si atom -12407.484699 kJ/mol
# Density = 2.089543 g / cm^3
# Si number density = 20.943098 Si / 1000 Ang^3
#
#
#
# Elastic Constant Matrix: (Units=GPa)
#
#
# Indices 1 2 3 4 5 6 
#
# 1 57.6542 35.4981 -9.7655 0.0000 0.0000 0.0000
# 2 35.4981 70.4562 -1.3231 0.0000 0.0000 0.0000
# 3 -9.7655 -1.3231 74.9931 0.0000 0.0000 0.0000
# 4 0.0000 0.0000 0.0000 36.3561 0.0000 0.0000
# 5 0.0000 0.0000 0.0000 0.0000 41.2396 0.0000
# 6 0.0000 0.0000 0.0000 0.0000 0.0000 27.4569
#
#
#
# Elastic Compliance Matrix: (Units=1/GPa)
#
#
# Indices 1 2 3 4 5 6 
#
# 1 0.025863 -0.012972 0.003139 0.000000 0.000000 0.000000
# 2 -0.012972 0.020704 -0.001324 0.000000 0.000000 0.000000
# 3 0.003139 -0.001324 0.013720 0.000000 0.000000 0.000000
# 4 0.000000 0.000000 0.000000 0.027506 0.000000 0.000000
# 5 0.000000 0.000000 0.000000 0.000000 0.024249 0.000000
# 6 0.000000 0.000000 0.000000 0.000000 0.000000 0.036421
#
#
# Mechanical properties :
#
#
# Convention : Reuss Voigt Hill
#
# Bulk Modulus (GPa) = 26.33391 27.99139 27.16265
# Shear Modulus (GPa) = 27.25783 32.92346 30.09064
#
# Velocity S-wave (km/s) = 3.61157 3.96920 3.79460
# Velocity P-wave (km/s) = 5.47655 5.86520 5.67420
#
# Compressibility (1/GPa) = 0.03797386
#
# Stress axis : x y z
#
# Youngs Moduli (GPa) = 38.66482 48.29989 72.88650
#
# Poissons Ratio (x) = 0.62654 -0.22879
# Poissons Ratio (y) = 0.50155 0.09649
# Poissons Ratio (z) = -0.12137 0.06394
#
# Static dielectric constant tensor:
#      x y z
#    x 3.912780 0.000000 0.000000 
#    y 0.000000 3.952500 0.000000 
#    z 0.000000 0.000000 3.860760 
# 
# 
# High freq. dielectric constant tensor:
#      x y z
#    x 1.828770 0.000000 0.000000 
#    y 0.000000 1.831940 0.000000 
#    z 0.000000 0.000000 1.825980 
# 
# From -- ./inp_files/18640.got.cif
#   From: 2010.03.12/outbox.cif.g09.slc.cpg/sg62_10_cif.got.tgz:18640.got - 2010.04.10 19:12:36.
