data_PCOD8255979
_publ_section_title
;
Structure prediction by ZEFSAII (Michael W. Deem and Ramdas Pophale) SiO2 
 PCOD8255979
Probable space group: C M C M
;
_chemical_formula_sum "Si O2"
_cell_formula_units_Z 112
_cell_length_a 13.368368
_cell_length_b 32.393205
_cell_length_c 15.808452
_cell_angle_alpha 90.000000
_cell_angle_beta 90.000000
_cell_angle_gamma 90.000000
_cell_volume 6845.759796
_symmetry_space_group_name_H-M "C M C M"
_symmetry_group_IT_number 63
_symmetry_cell_setting 'orthorhombic'
loop_
_space_group_symop_operation_xyz
x,y,z
-x,-y,1/2+z
x,-y,-z
-x,y,1/2-z
-x,-y,-z
x,y,1/2-z
-x,y,z
x,-y,1/2+z
1/2+x,1/2+y,z
1/2-x,1/2-y,1/2+z
1/2+x,1/2-y,-z
1/2-x,1/2+y,1/2-z
1/2-x,1/2-y,-z
1/2+x,1/2+y,1/2-z
1/2-x,1/2+y,z
1/2+x,1/2-y,1/2+z
loop_
_atom_site_type_symbol
_atom_site_label
_atom_site_fract_x
_atom_site_fract_y
_atom_site_fract_z
Si Si1 0.887331 0.090189 0.016145
Si Si2 0.616720 0.683948 0.999898
Si Si3 0.881748 0.238981 0.155945
Si Si4 0.610022 0.473418 0.655569
Si Si5 0.757852 0.467874 0.074139
Si Si6 0.736507 0.821033 0.152527
Si Si7 0.112661 0.598619 0.650406
O O1 0.868507 0.067970 0.104649
O O2 0.000000 0.084215 0.982292
O O3 0.863333 0.137738 0.030732
O O4 0.813727 0.069803 0.949748
O O5 0.500000 0.693186 0.983072
O O6 0.673136 0.690884 0.910675
O O7 0.659876 0.711657 0.077501
O O8 0.847835 0.222520 0.250000
O O9 0.846080 0.285675 0.144612
O O10 0.000000 0.238939 0.151214
O O11 0.611095 0.457784 0.750000
O O12 0.500000 0.491759 0.630530
O O13 0.695916 0.507254 0.644142
O O14 0.855749 0.445663 0.110791
O O15 0.786935 0.500000 0.000000
O O16 0.775968 0.824339 0.250000
O O17 0.684639 0.863728 0.123032
O O18 0.116325 0.593331 0.750000
O O19 0.000000 0.608112 0.619350
#
# Coordination Sequence:
#
# PCOD8255979 Si02
#       7
#    16  16  16  16  16  16  16
#     4   9  17  29  44  65  95 126 153 185 226 273
#     4  10  19  31  49  73 101 128 156 192 234 279
#     4   9  18  32  51  75  99 125 158 194 232 274
#     4   9  17  28  44  66  91 123 159 189 225 276
#     4  10  18  30  47  65  92 121 151 193 235 278
#     4  10  19  33  51  70  97 129 159 192 233 281
#     4  10  20  33  49  68  90 118 155 198 239 279
#
# _framework density 16.360493000000002
#
# number of rings (size 3 to 8) (size 9 to 14) (size 15 to 20)
#    0.000    2.429    1.429    1.714    0.000    4.571 
#    0.000    2.857    0.000    0.000    0.000    0.000 
#    0.000    1.429    0.000    0.000    0.000    0.000 
#
# Total GULP energy -693961.980981 kJ/mol
# GULP energy per Si atom -12392.178232 kJ/mol
# Density = 1.632326 g / cm^3
# Si number density = 16.360493 Si / 1000 Ang^3
#
#
#
# Elastic Constant Matrix: (Units=GPa)
#
#
# Indices 1 2 3 4 5 6 
#
# 1 49.0345 22.1642 35.2252 0.0000 0.0000 0.0000
# 2 22.1642 76.8943 32.3769 0.0000 0.0000 0.0000
# 3 35.2252 32.3769 82.2244 0.0000 0.0000 0.0000
# 4 0.0000 0.0000 0.0000 21.5495 0.0000 0.0000
# 5 0.0000 0.0000 0.0000 0.0000 24.4008 0.0000
# 6 0.0000 0.0000 0.0000 0.0000 0.0000 26.3712
#
#
#
# Elastic Compliance Matrix: (Units=1/GPa)
#
#
# Indices 1 2 3 4 5 6 
#
# 1 0.030421 -0.003933 -0.011484 0.000000 0.000000 0.000000
# 2 -0.003933 0.016098 -0.004654 0.000000 0.000000 0.000000
# 3 -0.011484 -0.004654 0.018914 0.000000 0.000000 0.000000
# 4 0.000000 0.000000 0.000000 0.046405 0.000000 0.000000
# 5 0.000000 0.000000 0.000000 0.000000 0.040982 0.000000
# 6 0.000000 0.000000 0.000000 0.000000 0.000000 0.037920
#
#
# Mechanical properties :
#
#
# Convention : Reuss Voigt Hill
#
# Bulk Modulus (GPa) = 39.53877 43.07622 41.30749
# Shear Modulus (GPa) = 20.89310 22.35675 21.62492
#
# Velocity S-wave (km/s) = 3.57745 3.70064 3.63957
# Velocity P-wave (km/s) = 6.42526 6.68178 6.55478
#
# Compressibility (1/GPa) = 0.02529163
#
# Stress axis : x y z
#
# Youngs Moduli (GPa) = 32.87149 62.11894 52.87079
#
# Poissons Ratio (x) = 0.24434 0.60716
# Poissons Ratio (y) = 0.12930 0.24605
# Poissons Ratio (z) = 0.37749 0.28909
#
# Static dielectric constant tensor:
#      x y z
#    x 3.009960 0.000000 0.000000 
#    y 0.000000 3.137360 0.000000 
#    z 0.000000 0.000000 3.166280 
# 
# 
# High freq. dielectric constant tensor:
#      x y z
#    x 1.612160 0.000000 0.000000 
#    y 0.000000 1.632860 0.000000 
#    z 0.000000 0.000000 1.628200 
# 
# From -- ./inp_files/32745.got.cif
#   From: 2010.03.12/outbox.cif.g09.slc.cpg/sg63_17_cif.got.tgz:32745.got - 2010.04.10 19:34:48.
