data_PCOD8255341
_publ_section_title
;
Structure prediction by ZEFSAII (Michael W. Deem and Ramdas Pophale) SiO2 
 PCOD8255341
Probable space group: C M C M
;
_chemical_formula_sum "Si O2"
_cell_formula_units_Z 80
_cell_length_a 8.954586
_cell_length_b 19.078889
_cell_length_c 26.336062
_cell_angle_alpha 90.000000
_cell_angle_beta 90.000000
_cell_angle_gamma 90.000000
_cell_volume 4499.346387
_symmetry_space_group_name_H-M "C M C M"
_symmetry_group_IT_number 63
_symmetry_cell_setting 'orthorhombic'
loop_
_space_group_symop_operation_xyz
x,y,z
-x,-y,1/2+z
x,-y,-z
-x,y,1/2-z
-x,-y,-z
x,y,1/2-z
-x,y,z
x,-y,1/2+z
1/2+x,1/2+y,z
1/2-x,1/2-y,1/2+z
1/2+x,1/2-y,-z
1/2-x,1/2+y,1/2-z
1/2-x,1/2-y,-z
1/2+x,1/2+y,1/2-z
1/2-x,1/2+y,z
1/2+x,1/2-y,1/2+z
loop_
_atom_site_type_symbol
_atom_site_label
_atom_site_fract_x
_atom_site_fract_y
_atom_site_fract_z
Si Si1 0.323506 0.793816 0.750000
Si Si2 0.325644 0.559954 0.250000
Si Si3 0.324943 0.047446 0.455458
Si Si4 0.164571 0.955890 0.857503
Si Si5 0.669830 0.710920 0.148481
Si Si6 0.822368 0.291973 0.545643
O O1 0.500000 0.780499 0.750000
O O2 0.290041 0.876272 0.750000
O O3 0.251068 0.759647 0.800830
O O4 0.500000 0.587051 0.250000
O O5 0.297229 0.513537 0.301106
O O6 0.500000 0.041775 0.457771
O O7 0.275893 0.016850 0.400723
O O8 0.271943 0.127346 0.461763
O O9 0.253113 0.000000 0.500000
O O10 0.173895 0.872675 0.850503
O O11 0.000000 0.979131 0.874862
O O12 0.500000 0.739028 0.146610
O O13 0.758126 0.737835 0.098664
O O14 0.750000 0.250000 0.500000
O O15 0.000000 0.283574 0.545363
#
# Coordination Sequence:
#
# PCOD8255341 Si02
#       6
#     8   8  16  16  16  16
#     4  10  16  22  36  60  87 114 145 180 221 267
#     4   8  14  24  36  54  83 114 141 174 219 265
#     4   9  18  31  45  63  89 119 149 182 219 261
#     4   8  14  24  39  59  83 111 142 177 217 261
#     4   9  16  27  41  59  86 117 147 181 223 267
#     4  10  19  31  47  67  91 119 151 187 227 269
#
# _framework density 17.780360999999999
#
# number of rings (size 3 to 8) (size 9 to 14) (size 15 to 20)
#    0.000    3.000    0.000    3.300    0.000    6.000 
#    0.000    0.000    0.000    0.000    0.000    1.400 
#    0.000    4.800    0.000    0.000    0.000    0.000 
#
# Total GULP energy -495649.754684 kJ/mol
# GULP energy per Si atom -12391.243867 kJ/mol
# Density = 1.773989 g / cm^3
# Si number density = 17.780361 Si / 1000 Ang^3
#
#
#
# Elastic Constant Matrix: (Units=GPa)
#
#
# Indices 1 2 3 4 5 6 
#
# 1 75.8728 21.2921 57.0469 0.0000 0.0000 0.0000
# 2 21.2921 22.4998 39.2881 0.0000 0.0000 0.0000
# 3 57.0469 39.2881 202.3664 0.0000 0.0000 0.0000
# 4 0.0000 0.0000 0.0000 20.6334 0.0000 0.0000
# 5 0.0000 0.0000 0.0000 0.0000 39.0782 0.0000
# 6 0.0000 0.0000 0.0000 0.0000 0.0000 10.8738
#
#
#
# Elastic Compliance Matrix: (Units=1/GPa)
#
#
# Indices 1 2 3 4 5 6 
#
# 1 0.018949 -0.013017 -0.002814 0.000000 0.000000 0.000000
# 2 -0.013017 0.076182 -0.011121 0.000000 0.000000 0.000000
# 3 -0.002814 -0.011121 0.007894 0.000000 0.000000 0.000000
# 4 0.000000 0.000000 0.000000 0.048465 0.000000 0.000000
# 5 0.000000 0.000000 0.000000 0.000000 0.025590 0.000000
# 6 0.000000 0.000000 0.000000 0.000000 0.000000 0.091964
#
#
# Mechanical properties :
#
#
# Convention : Reuss Voigt Hill
#
# Bulk Modulus (GPa) = 20.35842 59.55480 39.95661
# Shear Modulus (GPa) = 14.73527 26.32454 20.52990
#
# Velocity S-wave (km/s) = 2.88190 3.85195 3.40168
# Velocity P-wave (km/s) = 4.74854 7.30416 6.16033
#
# Compressibility (1/GPa) = 0.04911973
#
# Stress axis : x y z
#
# Youngs Moduli (GPa) = 52.77275 13.12651 126.67969
#
# Poissons Ratio (x) = 0.17087 0.35654
# Poissons Ratio (y) = 0.68697 1.40875
# Poissons Ratio (z) = 0.14853 0.14597
#
# Static dielectric constant tensor:
#      x y z
#    x 3.302300 0.000000 0.000000 
#    y 0.000000 2.712880 0.000000 
#    z 0.000000 0.000000 3.818960 
# 
# 
# High freq. dielectric constant tensor:
#      x y z
#    x 1.690970 0.000000 0.000000 
#    y 0.000000 1.598650 0.000000 
#    z 0.000000 0.000000 1.719550 
# 
# From -- ./inp_files/59768.got.cif
#   From: 2010.03.12/outbox.cif.g09.slc.cpg/sg63_30_cif.got.tgz:59768.got - 2010.04.10 19:34:48.
