data_PCOD8255603
_publ_section_title
;
Structure prediction by ZEFSAII (Michael W. Deem and Ramdas Pophale) SiO2 
 PCOD8255603
Probable space group: C M C M
;
_chemical_formula_sum "Si O2"
_cell_formula_units_Z 84
_cell_length_a 12.781028
_cell_length_b 14.357027
_cell_length_c 23.329784
_cell_angle_alpha 90.000000
_cell_angle_beta 90.000000
_cell_angle_gamma 90.000000
_cell_volume 4280.958535
_symmetry_space_group_name_H-M "C M C M"
_symmetry_group_IT_number 63
_symmetry_cell_setting 'orthorhombic'
loop_
_space_group_symop_operation_xyz
x,y,z
-x,-y,1/2+z
x,-y,-z
-x,y,1/2-z
-x,-y,-z
x,y,1/2-z
-x,y,z
x,-y,1/2+z
1/2+x,1/2+y,z
1/2-x,1/2-y,1/2+z
1/2+x,1/2-y,-z
1/2-x,1/2+y,1/2-z
1/2-x,1/2-y,-z
1/2+x,1/2+y,1/2-z
1/2-x,1/2+y,z
1/2+x,1/2-y,1/2+z
loop_
_atom_site_type_symbol
_atom_site_label
_atom_site_fract_x
_atom_site_fract_y
_atom_site_fract_z
Si Si1 0.879551 0.298845 0.250000
Si Si2 0.879837 0.621048 0.872213
Si Si3 0.771143 0.956274 0.627020
Si Si4 0.500000 0.521487 0.750000
Si Si5 0.500000 0.459653 0.372266
Si Si6 0.685417 0.292472 0.550785
Si Si7 0.000000 0.891353 0.489242
Si Si8 0.294813 0.597972 0.250000
O O1 0.853567 0.360018 0.194254
O O2 0.806549 0.208870 0.250000
O O3 0.000000 0.266605 0.250000
O O4 0.800813 0.541467 0.894880
O O5 0.862708 0.714506 0.908141
O O6 0.000000 0.588246 0.879804
O O7 0.747199 0.865603 0.588338
O O8 0.735356 0.932991 0.692131
O O9 0.895463 0.977379 0.621147
O O10 0.500000 0.584839 0.807799
O O11 0.595009 0.451679 0.750000
O O12 0.500000 0.377698 0.419640
O O13 0.750000 0.250000 0.500000
O O14 0.599095 0.347998 0.517345
O O15 0.000000 0.000000 0.500000
#
# Coordination Sequence:
#
# PCOD8255603 Si02
#       8
#     8  16  16   4   8  16   8   8
#     4  10  19  34  67  97 127 165 215 264 318 381
#     4  11  24  42  63  96 131 170 215 260 319 395
#     4  11  22  40  65  96 128 162 211 268 325 376
#     4   8  18  28  56 100 114 144 198 260 326 362
#     4  10  20  36  66  90 122 154 208 264 322 366
#     4  12  25  40  63  92 123 167 217 262 314 378
#     4  12  22  40  62  87 123 165 205 260 318 365
#     4  10  17  33  63  95 125 155 203 269 321 366
#
# _framework density 19.621773000000001
#
# number of rings (size 3 to 8) (size 9 to 14) (size 15 to 20)
#    0.000    1.143    5.238    1.714    0.000    0.000 
#    1.714    0.952    0.000    0.000    2.476    0.000 
#    0.000    0.000    0.000    0.000    0.000    0.000 
#
# Total GULP energy -520626.087051 kJ/mol
# GULP energy per Si atom -12395.859216 kJ/mol
# Density = 1.957711 g / cm^3
# Si number density = 19.621773 Si / 1000 Ang^3
#
#
#
# Elastic Constant Matrix: (Units=GPa)
#
#
# Indices 1 2 3 4 5 6 
#
# 1 84.6604 57.9549 36.1849 0.0000 0.0000 0.0000
# 2 57.9549 121.3706 58.7212 0.0000 0.0000 0.0000
# 3 36.1849 58.7212 164.4272 0.0000 0.0000 0.0000
# 4 0.0000 0.0000 0.0000 37.4139 0.0000 0.0000
# 5 0.0000 0.0000 0.0000 0.0000 35.2209 0.0000
# 6 0.0000 0.0000 0.0000 0.0000 0.0000 15.7765
#
#
#
# Elastic Compliance Matrix: (Units=1/GPa)
#
#
# Indices 1 2 3 4 5 6 
#
# 1 0.017699 -0.007939 -0.001060 0.000000 0.000000 0.000000
# 2 -0.007939 0.013521 -0.003082 0.000000 0.000000 0.000000
# 3 -0.001060 -0.003082 0.007416 0.000000 0.000000 0.000000
# 4 0.000000 0.000000 0.000000 0.026728 0.000000 0.000000
# 5 0.000000 0.000000 0.000000 0.000000 0.028392 0.000000
# 6 0.000000 0.000000 0.000000 0.000000 0.000000 0.063386
#
#
# Mechanical properties :
#
#
# Convention : Reuss Voigt Hill
#
# Bulk Modulus (GPa) = 69.08316 75.13114 72.10715
# Shear Modulus (GPa) = 26.86331 32.18873 29.52602
#
# Velocity S-wave (km/s) = 3.70409 4.05465 3.88333
# Velocity P-wave (km/s) = 7.31967 7.76486 7.54555
#
# Compressibility (1/GPa) = 0.01447531
#
# Stress axis : x y z
#
# Youngs Moduli (GPa) = 56.49893 73.95926 134.85257
#
# Poissons Ratio (x) = 0.58714 0.14293
# Poissons Ratio (y) = 0.44853 0.41557
# Poissons Ratio (z) = 0.05988 0.22792
#
# Static dielectric constant tensor:
#      x y z
#    x 3.306480 0.000000 0.000000 
#    y 0.000000 3.176970 0.000000 
#    z 0.000000 0.000000 4.379090 
# 
# 
# High freq. dielectric constant tensor:
#      x y z
#    x 1.741580 0.000000 0.000000 
#    y 0.000000 1.749100 0.000000 
#    z 0.000000 0.000000 1.792450 
# 
# From -- ./inp_files/62756.got.cif
#   From: 2010.03.12/outbox.cif.g09.slc.cpg/sg63_32_cif.got.tgz:62756.got - 2010.04.10 19:34:48.
