data_PCOD8255906
_publ_section_title
;
Structure prediction by ZEFSAII (Michael W. Deem and Ramdas Pophale) SiO2 
 PCOD8255906
Probable space group: C M C M
;
_chemical_formula_sum "Si O2"
_cell_formula_units_Z 112
_cell_length_a 21.143269
_cell_length_b 17.995991
_cell_length_c 18.494706
_cell_angle_alpha 90.000000
_cell_angle_beta 90.000000
_cell_angle_gamma 90.000000
_cell_volume 7037.126119
_symmetry_space_group_name_H-M "C M C M"
_symmetry_group_IT_number 63
_symmetry_cell_setting 'orthorhombic'
loop_
_space_group_symop_operation_xyz
x,y,z
-x,-y,1/2+z
x,-y,-z
-x,y,1/2-z
-x,-y,-z
x,y,1/2-z
-x,y,z
x,-y,1/2+z
1/2+x,1/2+y,z
1/2-x,1/2-y,1/2+z
1/2+x,1/2-y,-z
1/2-x,1/2+y,1/2-z
1/2-x,1/2-y,-z
1/2+x,1/2+y,1/2-z
1/2-x,1/2+y,z
1/2+x,1/2-y,1/2+z
loop_
_atom_site_type_symbol
_atom_site_label
_atom_site_fract_x
_atom_site_fract_y
_atom_site_fract_z
Si Si1 0.168389 0.743953 0.668941
Si Si2 0.802665 0.504086 0.086075
Si Si3 0.168616 0.802793 0.046068
Si Si4 0.572389 0.226207 0.955682
Si Si5 0.230774 0.117090 0.666585
Si Si6 0.247130 0.660550 0.079374
Si Si7 0.931356 0.442575 0.436320
O O1 0.144092 0.753813 0.750000
O O2 0.107066 0.743506 0.619272
O O3 0.207535 0.668235 0.658801
O O4 0.213905 0.812333 0.649050
O O5 0.748019 0.460730 0.129200
O O6 0.793531 0.590208 0.105602
O O7 0.871590 0.471505 0.111361
O O8 0.794955 0.500000 0.000000
O O9 0.171582 0.845577 0.123101
O O10 0.200383 0.722582 0.050105
O O11 0.098376 0.780572 0.019310
O O12 0.204471 0.855009 0.987209
O O13 0.500000 0.247695 0.946216
O O14 0.582326 0.138400 0.971226
O O15 0.210388 0.106200 0.750000
O O16 0.938821 0.500000 0.500000
O O17 0.000000 0.440396 0.394051
#
# Coordination Sequence:
#
# PCOD8255906 Si02
#       7
#    16  16  16  16  16  16  16
#     4   9  18  32  45  66  98 128 156 202 250 290
#     4  11  17  27  46  71  94 126 161 199 239 284
#     4   9  16  31  44  67  94 124 157 202 239 281
#     4  10  18  29  48  71  94 127 169 201 230 279
#     4  10  19  30  46  68  97 127 156 196 253 299
#     4   9  17  26  48  67  91 126 162 195 242 283
#     4   9  17  26  40  67 102 133 163 194 225 269
#
# _framework density 15.915588
#
# number of rings (size 3 to 8) (size 9 to 14) (size 15 to 20)
#    0.000    2.429    2.857    2.571    0.000    0.857 
#    0.000    0.000    0.000    0.857    0.000    8.000 
#    0.000   12.571    0.000    0.000    0.000    0.000 
#
# Total GULP energy -693772.110844 kJ/mol
# GULP energy per Si atom -12388.787694 kJ/mol
# Density = 1.587936 g / cm^3
# Si number density = 15.915588 Si / 1000 Ang^3
#
#
#
# Elastic Constant Matrix: (Units=GPa)
#
#
# Indices 1 2 3 4 5 6 
#
# 1 83.5303 35.5728 33.1720 0.0000 0.0000 0.0000
# 2 35.5728 70.6764 26.0739 0.0000 0.0000 0.0000
# 3 33.1720 26.0739 88.3097 0.0000 0.0000 0.0000
# 4 0.0000 0.0000 0.0000 17.4017 0.0000 0.0000
# 5 0.0000 0.0000 0.0000 0.0000 14.0952 0.0000
# 6 0.0000 0.0000 0.0000 0.0000 0.0000 20.3613
#
#
#
# Elastic Compliance Matrix: (Units=1/GPa)
#
#
# Indices 1 2 3 4 5 6 
#
# 1 0.016524 -0.006764 -0.004210 0.000000 0.000000 0.000000
# 2 -0.006764 0.018647 -0.002965 0.000000 0.000000 0.000000
# 3 -0.004210 -0.002965 0.013781 0.000000 0.000000 0.000000
# 4 0.000000 0.000000 0.000000 0.057466 0.000000 0.000000
# 5 0.000000 0.000000 0.000000 0.000000 0.070946 0.000000
# 6 0.000000 0.000000 0.000000 0.000000 0.000000 0.049113
#
#
# Mechanical properties :
#
#
# Convention : Reuss Voigt Hill
#
# Bulk Modulus (GPa) = 47.45079 48.01708 47.73394
# Shear Modulus (GPa) = 19.12934 20.21815 19.67374
#
# Velocity S-wave (km/s) = 3.47064 3.56804 3.51968
# Velocity P-wave (km/s) = 6.77785 6.87095 6.82456
#
# Compressibility (1/GPa) = 0.02107447
#
# Stress axis : x y z
#
# Youngs Moduli (GPa) = 60.51790 53.62740 72.56579
#
# Poissons Ratio (x) = 0.36272 0.30550
# Poissons Ratio (y) = 0.40933 0.21516
# Poissons Ratio (z) = 0.25478 0.15901
#
# Static dielectric constant tensor:
#      x y z
#    x 3.147180 0.000000 0.000000 
#    y 0.000000 3.039890 0.000000 
#    z 0.000000 0.000000 2.892410 
# 
# 
# High freq. dielectric constant tensor:
#      x y z
#    x 1.589770 0.000000 0.000000 
#    y 0.000000 1.606080 0.000000 
#    z 0.000000 0.000000 1.588220 
# 
# From -- ./inp_files/47350.got.cif
#   From: 2010.03.12/outbox.cif.g09.slc.cpg/sg63_24_cif.got.tgz:47350.got - 2010.04.10 19:34:48.
