data_PCOD8255967
_publ_section_title
;
Structure prediction by ZEFSAII (Michael W. Deem and Ramdas Pophale) SiO2 
 PCOD8255967
Probable space group: C M C M
;
_chemical_formula_sum "Si O2"
_cell_formula_units_Z 72
_cell_length_a 15.555237
_cell_length_b 29.321276
_cell_length_c 8.717632
_cell_angle_alpha 90.000000
_cell_angle_beta 90.000000
_cell_angle_gamma 90.000000
_cell_volume 3976.106701
_symmetry_space_group_name_H-M "C M C M"
_symmetry_group_IT_number 63
_symmetry_cell_setting 'orthorhombic'
loop_
_space_group_symop_operation_xyz
x,y,z
-x,-y,1/2+z
x,-y,-z
-x,y,1/2-z
-x,-y,-z
x,y,1/2-z
-x,y,z
x,-y,1/2+z
1/2+x,1/2+y,z
1/2-x,1/2-y,1/2+z
1/2+x,1/2-y,-z
1/2-x,1/2+y,1/2-z
1/2-x,1/2-y,-z
1/2+x,1/2+y,1/2-z
1/2-x,1/2+y,z
1/2+x,1/2-y,1/2+z
loop_
_atom_site_type_symbol
_atom_site_label
_atom_site_fract_x
_atom_site_fract_y
_atom_site_fract_z
Si Si1 0.903477 0.799293 0.931232
Si Si2 0.673497 0.048913 0.070078
Si Si3 0.500000 0.949764 0.432346
Si Si4 0.250728 0.140688 0.069561
Si Si5 0.096148 0.702352 0.432081
O O1 0.895819 0.793091 0.750000
O O2 0.837998 0.838028 0.994066
O O3 0.000000 0.814079 0.978582
O O4 0.877233 0.751985 0.008320
O O5 0.659364 0.041947 0.250000
O O6 0.746654 0.086459 0.031600
O O7 0.587314 0.071887 0.998413
O O8 0.699258 0.000000 0.000000
O O9 0.500000 0.949034 0.250000
O O10 0.500000 0.000000 0.500000
O O11 0.254102 0.147742 0.250000
O O12 0.334286 0.166647 0.000718
O O13 0.097171 0.703372 0.250000
O O14 0.000000 0.689165 0.491374
#
# Coordination Sequence:
#
# PCOD8255967 Si02
#       5
#    16  16   8  16  16
#     4   9  17  31  49  69  94 121 153 195 237 274
#     4  10  19  32  49  67  92 124 160 195 232 274
#     4  10  18  30  46  66  92 122 154 186 228 276
#     4   9  18  30  48  70  91 124 162 189 226 283
#     4   9  17  29  46  68  94 123 155 187 224 278
#
# _framework density 18.108166000000001
#
# number of rings (size 3 to 8) (size 9 to 14) (size 15 to 20)
#    0.000    2.667    0.000    3.667    1.556    0.000 
#    0.000    4.444    0.000    0.667    0.000    0.000 
#    0.000    0.000    0.000    0.000    0.000    0.889 
#
# Total GULP energy -446109.587792 kJ/mol
# GULP energy per Si atom -12391.932994 kJ/mol
# Density = 1.806695 g / cm^3
# Si number density = 18.108166 Si / 1000 Ang^3
#
#
#
# Elastic Constant Matrix: (Units=GPa)
#
#
# Indices 1 2 3 4 5 6 
#
# 1 110.0967 76.9039 17.6422 0.0000 0.0000 0.0000
# 2 76.9039 119.6041 21.7299 0.0000 0.0000 0.0000
# 3 17.6422 21.7299 50.9007 0.0000 0.0000 0.0000
# 4 0.0000 0.0000 0.0000 23.2153 0.0000 0.0000
# 5 0.0000 0.0000 0.0000 0.0000 13.6135 0.0000
# 6 0.0000 0.0000 0.0000 0.0000 0.0000 29.2419
#
#
#
# Elastic Compliance Matrix: (Units=1/GPa)
#
#
# Indices 1 2 3 4 5 6 
#
# 1 0.016567 -0.010417 -0.001295 0.000000 0.000000 0.000000
# 2 -0.010417 0.015614 -0.003055 0.000000 0.000000 0.000000
# 3 -0.001295 -0.003055 0.021399 0.000000 0.000000 0.000000
# 4 0.000000 0.000000 0.000000 0.043075 0.000000 0.000000
# 5 0.000000 0.000000 0.000000 0.000000 0.073456 0.000000
# 6 0.000000 0.000000 0.000000 0.000000 0.000000 0.034197
#
#
# Mechanical properties :
#
#
# Convention : Reuss Voigt Hill
#
# Bulk Modulus (GPa) = 41.58746 57.01706 49.30226
# Shear Modulus (GPa) = 20.67326 24.16920 22.42123
#
# Velocity S-wave (km/s) = 3.38250 3.65734 3.52260
# Velocity P-wave (km/s) = 6.18636 7.02781 6.62047
#
# Compressibility (1/GPa) = 0.02404571
#
# Stress axis : x y z
#
# Youngs Moduli (GPa) = 60.36159 64.04518 46.73069
#
# Poissons Ratio (x) = 0.66716 0.06052
# Poissons Ratio (y) = 0.62879 0.14277
# Poissons Ratio (z) = 0.07817 0.19567
#
# Static dielectric constant tensor:
#      x y z
#    x 4.037240 0.000000 0.000000 
#    y 0.000000 3.342070 0.000000 
#    z 0.000000 0.000000 3.112710 
# 
# 
# High freq. dielectric constant tensor:
#      x y z
#    x 1.691530 0.000000 0.000000 
#    y 0.000000 1.694140 0.000000 
#    z 0.000000 0.000000 1.681040 
# 
# From -- ./inp_files/4923.got.cif
#   From: 2010.03.12/outbox.cif.g09.slc.cpg/sg63_3_cif.got.tgz:4923.got - 2010.04.10 19:34:48.
