data_PCOD8255821
_publ_section_title
;
Structure prediction by ZEFSAII (Michael W. Deem and Ramdas Pophale) SiO2 
 PCOD8255821
Probable space group: C M C M
;
_chemical_formula_sum "Si O2"
_cell_formula_units_Z 64
_cell_length_a 9.110395
_cell_length_b 20.804270
_cell_length_c 18.750220
_cell_angle_alpha 90.000000
_cell_angle_beta 90.000000
_cell_angle_gamma 90.000000
_cell_volume 3553.825149
_symmetry_space_group_name_H-M "C M C M"
_symmetry_group_IT_number 63
_symmetry_cell_setting 'orthorhombic'
loop_
_space_group_symop_operation_xyz
x,y,z
-x,-y,1/2+z
x,-y,-z
-x,y,1/2-z
-x,-y,-z
x,y,1/2-z
-x,y,z
x,-y,1/2+z
1/2+x,1/2+y,z
1/2-x,1/2-y,1/2+z
1/2+x,1/2-y,-z
1/2-x,1/2+y,1/2-z
1/2-x,1/2-y,-z
1/2+x,1/2+y,1/2-z
1/2-x,1/2+y,z
1/2+x,1/2-y,1/2+z
loop_
_atom_site_type_symbol
_atom_site_label
_atom_site_fract_x
_atom_site_fract_y
_atom_site_fract_z
Si Si1 0.161791 0.495656 0.084658
Si Si2 0.826137 0.364234 0.574262
Si Si3 0.173298 0.128514 0.575933
Si Si4 0.325974 0.252366 0.170384
O O1 0.212383 0.566657 0.110685
O O2 0.274387 0.440100 0.108041
O O3 0.000000 0.478867 0.115060
O O4 0.154692 0.500000 0.000000
O O5 0.745874 0.355077 0.499296
O O6 0.767379 0.309436 0.627302
O O7 0.000000 0.359293 0.559892
O O8 0.224636 0.182750 0.631343
O O9 0.000000 0.126566 0.565702
O O10 0.258754 0.251524 0.250000
O O11 0.500000 0.249290 0.174180
#
# Coordination Sequence:
#
# PCOD8255821 Si02
#       4
#    16  16  16  16
#     4   8  15  28  46  69  94 118 148 187 228 269
#     4   9  17  31  51  70  90 120 155 191 227 265
#     4  10  18  28  48  74  95 118 149 188 231 273
#     4   9  18  32  48  67  92 123 158 190 223 269
#
# _framework density 18.008763999999999
#
# number of rings (size 3 to 8) (size 9 to 14) (size 15 to 20)
#    0.000    3.000    0.000    3.000    0.000    4.500 
#    0.000    2.500    0.000    8.250    0.000    0.000 
#    0.000    0.000    0.000    0.000    0.000    0.000 
#
# Total GULP energy -396626.807335 kJ/mol
# GULP energy per Si atom -12394.587729 kJ/mol
# Density = 1.796778 g / cm^3
# Si number density = 18.008764 Si / 1000 Ang^3
#
#
#
# Elastic Constant Matrix: (Units=GPa)
#
#
# Indices 1 2 3 4 5 6 
#
# 1 51.5880 49.2498 35.5453 0.0000 0.0000 0.0000
# 2 49.2498 184.6510 77.5849 0.0000 0.0000 0.0000
# 3 35.5453 77.5849 95.7209 0.0000 0.0000 0.0000
# 4 0.0000 0.0000 0.0000 5.5273 0.0000 0.0000
# 5 0.0000 0.0000 0.0000 0.0000 13.5793 0.0000
# 6 0.0000 0.0000 0.0000 0.0000 0.0000 22.7630
#
#
#
# Elastic Compliance Matrix: (Units=1/GPa)
#
#
# Indices 1 2 3 4 5 6 
#
# 1 0.028606 -0.004802 -0.006731 0.000000 0.000000 0.000000
# 2 -0.004802 0.009018 -0.005527 0.000000 0.000000 0.000000
# 3 -0.006731 -0.005527 0.017426 0.000000 0.000000 0.000000
# 4 0.000000 0.000000 0.000000 0.180919 0.000000 0.000000
# 5 0.000000 0.000000 0.000000 0.000000 0.073641 0.000000
# 6 0.000000 0.000000 0.000000 0.000000 0.000000 0.043931
#
#
# Mechanical properties :
#
#
# Convention : Reuss Voigt Hill
#
# Bulk Modulus (GPa) = 47.77308 72.96890 60.37099
# Shear Modulus (GPa) = 12.66985 19.67926 16.17455
#
# Velocity S-wave (km/s) = 2.65531 3.30928 3.00016
# Velocity P-wave (km/s) = 5.99885 7.43023 6.75257
#
# Compressibility (1/GPa) = 0.02093229
#
# Stress axis : x y z
#
# Youngs Moduli (GPa) = 34.95766 110.88347 57.38556
#
# Poissons Ratio (x) = 0.53243 0.38625
# Poissons Ratio (y) = 0.16786 0.31715
# Poissons Ratio (z) = 0.23529 0.61282
#
# Static dielectric constant tensor:
#      x y z
#    x 3.097900 0.000000 0.000000 
#    y 0.000000 3.965180 0.000000 
#    z 0.000000 0.000000 3.154820 
# 
# 
# High freq. dielectric constant tensor:
#      x y z
#    x 1.670250 0.000000 0.000000 
#    y 0.000000 1.721600 0.000000 
#    z 0.000000 0.000000 1.660200 
# 
# From -- ./inp_files/39820.got.cif
#   From: 2010.03.12/outbox.cif.g09.slc.cpg/sg63_20_cif.got.tgz:39820.got - 2010.04.10 19:34:48.
