data_PCOD8255718
_publ_section_title
;
Structure prediction by ZEFSAII (Michael W. Deem and Ramdas Pophale) SiO2 
 PCOD8255718
Probable space group: C M C M
;
_chemical_formula_sum "Si O2"
_cell_formula_units_Z 104
_cell_length_a 22.567081
_cell_length_b 29.955739
_cell_length_c 9.573871
_cell_angle_alpha 90.000000
_cell_angle_beta 90.000000
_cell_angle_gamma 90.000000
_cell_volume 6472.066890
_symmetry_space_group_name_H-M "C M C M"
_symmetry_group_IT_number 63
_symmetry_cell_setting 'orthorhombic'
loop_
_space_group_symop_operation_xyz
x,y,z
-x,-y,1/2+z
x,-y,-z
-x,y,1/2-z
-x,-y,-z
x,y,1/2-z
-x,y,z
x,-y,1/2+z
1/2+x,1/2+y,z
1/2-x,1/2-y,1/2+z
1/2+x,1/2-y,-z
1/2-x,1/2+y,1/2-z
1/2-x,1/2-y,-z
1/2+x,1/2+y,1/2-z
1/2-x,1/2+y,z
1/2+x,1/2-y,1/2+z
loop_
_atom_site_type_symbol
_atom_site_label
_atom_site_fract_x
_atom_site_fract_y
_atom_site_fract_z
Si Si1 0.391047 0.604962 0.085663
Si Si2 0.933970 0.378451 0.916210
Si Si3 0.929553 0.280486 0.594687
Si Si4 0.000000 0.045431 0.083586
Si Si5 0.650763 0.956584 0.586794
Si Si6 0.429887 0.300660 0.910527
Si Si7 0.286567 0.457025 0.911822
O O1 0.398496 0.609398 0.250000
O O2 0.442603 0.572541 0.031731
O O3 0.398539 0.655058 0.025569
O O4 0.327335 0.584737 0.042626
O O5 0.935949 0.378173 0.750000
O O6 0.911492 0.329410 0.965252
O O7 0.888856 0.415950 0.970943
O O8 0.000000 0.388721 0.974825
O O9 0.903256 0.273111 0.750000
O O10 0.904721 0.241840 0.494609
O O11 0.000000 0.278544 0.601102
O O12 0.000000 0.036586 0.250000
O O13 0.000000 0.000000 0.000000
O O14 0.639313 0.966150 0.750000
O O15 0.718873 0.943562 0.558448
O O16 0.632242 0.000000 0.500000
O O17 0.412856 0.292696 0.750000
O O18 0.500000 0.306683 0.928526
O O19 0.296940 0.469022 0.750000
O O20 0.305670 0.500000 0.000000
#
# Coordination Sequence:
#
# PCOD8255718 Si02
#       7
#    16  16  16   8  16  16  16
#     4   9  16  27  42  58  79 108 138 168 205 248
#     4   8  14  26  44  64  86 111 136 161 198 245
#     4   8  14  25  41  60  81 105 132 165 201 239
#     4  10  18  28  40  56  80 108 136 168 209 250
#     4   9  17  29  45  64  84 109 139 168 198 237
#     4   9  15  25  41  59  79 105 136 168 204 244
#     4   9  17  29  44  60  79 106 141 173 200 237
#
# _framework density 16.069054999999999
#
# number of rings (size 3 to 8) (size 9 to 14) (size 15 to 20)
#    0.000    3.231    0.769    1.385    0.000    0.308 
#    0.000    2.308    0.000    1.846    0.000    0.000 
#    0.000    0.000    0.000    0.000    0.000    0.000 
#
# Total GULP energy -644531.727568 kJ/mol
# GULP energy per Si atom -12394.840915 kJ/mol
# Density = 1.603248 g / cm^3
# Si number density = 16.069055 Si / 1000 Ang^3
#
#
#
# Elastic Constant Matrix: (Units=GPa)
#
#
# Indices 1 2 3 4 5 6 
#
# 1 68.3223 71.2819 25.3869 0.0000 0.0000 0.0000
# 2 71.2819 176.8876 52.3971 0.0000 0.0000 0.0000
# 3 25.3869 52.3971 41.6616 0.0000 0.0000 0.0000
# 4 0.0000 0.0000 0.0000 28.0347 0.0000 0.0000
# 5 0.0000 0.0000 0.0000 0.0000 11.5896 0.0000
# 6 0.0000 0.0000 0.0000 0.0000 0.0000 22.4660
#
#
#
# Elastic Compliance Matrix: (Units=1/GPa)
#
#
# Indices 1 2 3 4 5 6 
#
# 1 0.025708 -0.009115 -0.004201 0.000000 0.000000 0.000000
# 2 -0.009115 0.012242 -0.009842 0.000000 0.000000 0.000000
# 3 -0.004201 -0.009842 0.038941 0.000000 0.000000 0.000000
# 4 0.000000 0.000000 0.000000 0.035670 0.000000 0.000000
# 5 0.000000 0.000000 0.000000 0.000000 0.086284 0.000000
# 6 0.000000 0.000000 0.000000 0.000000 0.000000 0.044512
#
#
# Mechanical properties :
#
#
# Convention : Reuss Voigt Hill
#
# Bulk Modulus (GPa) = 32.70773 65.00037 48.85405
# Shear Modulus (GPa) = 16.67422 21.60511 19.13966
#
# Velocity S-wave (km/s) = 3.22477 3.67074 3.45496
# Velocity P-wave (km/s) = 5.85356 7.64881 6.81060
#
# Compressibility (1/GPa) = 0.03057382
#
# Stress axis : x y z
#
# Youngs Moduli (GPa) = 38.89913 81.68683 25.67983
#
# Poissons Ratio (x) = 0.74458 0.10789
# Poissons Ratio (y) = 0.35457 0.25274
# Poissons Ratio (z) = 0.16342 0.80396
#
# Static dielectric constant tensor:
#      x y z
#    x 2.955220 0.000000 0.000000 
#    y 0.000000 3.348860 0.000000 
#    z 0.000000 0.000000 2.877380 
# 
# 
# High freq. dielectric constant tensor:
#      x y z
#    x 1.591930 0.000000 0.000000 
#    y 0.000000 1.626630 0.000000 
#    z 0.000000 0.000000 1.586410 
# 
# From -- ./inp_files/11087.got.cif
#   From: 2010.03.12/outbox.cif.g09.slc.cpg/sg63_6_cif.got.tgz:11087.got - 2010.04.10 19:34:48.
