data_PCOD8255596
_publ_section_title
;
Structure prediction by ZEFSAII (Michael W. Deem and Ramdas Pophale) SiO2 
 PCOD8255596
Probable space group: C M C M
;
_chemical_formula_sum "Si O2"
_cell_formula_units_Z 88
_cell_length_a 17.651006
_cell_length_b 15.788089
_cell_length_c 17.183345
_cell_angle_alpha 90.000000
_cell_angle_beta 90.000000
_cell_angle_gamma 90.000000
_cell_volume 4788.579900
_symmetry_space_group_name_H-M "C M C M"
_symmetry_group_IT_number 63
_symmetry_cell_setting 'orthorhombic'
loop_
_space_group_symop_operation_xyz
x,y,z
-x,-y,1/2+z
x,-y,-z
-x,y,1/2-z
-x,-y,-z
x,y,1/2-z
-x,y,z
x,-y,1/2+z
1/2+x,1/2+y,z
1/2-x,1/2-y,1/2+z
1/2+x,1/2-y,-z
1/2-x,1/2+y,1/2-z
1/2-x,1/2-y,-z
1/2+x,1/2+y,1/2-z
1/2-x,1/2+y,z
1/2+x,1/2-y,1/2+z
loop_
_atom_site_type_symbol
_atom_site_label
_atom_site_fract_x
_atom_site_fract_y
_atom_site_fract_z
Si Si1 0.338440 0.000000 0.500000
Si Si2 0.656734 0.684980 0.941160
Si Si3 0.714746 0.589598 0.093187
Si Si4 0.918885 0.976249 0.089760
Si Si5 0.792439 0.738866 0.838717
Si Si6 0.410275 0.174308 0.541844
O O1 0.287533 0.968034 0.572991
O O2 0.391353 0.924520 0.468818
O O3 0.593830 0.624580 0.902443
O O4 0.722567 0.692485 0.878559
O O5 0.693582 0.639072 0.014804
O O6 0.619932 0.774423 0.965976
O O7 0.648570 0.529870 0.127924
O O8 0.726551 0.660623 0.158660
O O9 0.000000 0.998166 0.129167
O O10 0.921234 0.000000 0.000000
O O11 0.799392 0.709348 0.750000
O O12 0.870636 0.713428 0.881607
O O13 0.500000 0.186637 0.551102
#
# Coordination Sequence:
#
# PCOD8255596 Si02
#       6
#     8  16  16  16  16  16
#     4  12  17  36  57  84 114 140 196 250 271 318
#     4  10  17  35  57  80 108 142 192 233 268 326
#     4  10  17  32  57  81 109 143 188 234 272 330
#     4   9  16  27  51  85 111 132 168 230 287 318
#     4  11  22  37  57  81 115 152 186 227 281 346
#     4  11  22  35  59  87 112 148 191 240 285 323
#
# _framework density 18.377057000000001
#
# number of rings (size 3 to 8) (size 9 to 14) (size 15 to 20)
#    0.000    1.636    6.364    1.909    0.000    4.727 
#    0.000    3.636    0.000    3.273    0.000    0.000 
#    0.000    0.000    0.000    0.000    0.000    0.000 
#
# Total GULP energy -545368.196520 kJ/mol
# GULP energy per Si atom -12394.731739 kJ/mol
# Density = 1.833523 g / cm^3
# Si number density = 18.377057 Si / 1000 Ang^3
#
#
#
# Elastic Constant Matrix: (Units=GPa)
#
#
# Indices 1 2 3 4 5 6 
#
# 1 127.3912 36.4248 37.1368 0.0000 0.0000 0.0000
# 2 36.4248 111.4096 21.5854 0.0000 0.0000 0.0000
# 3 37.1368 21.5854 62.7216 0.0000 0.0000 0.0000
# 4 0.0000 0.0000 0.0000 12.1516 0.0000 0.0000
# 5 0.0000 0.0000 0.0000 0.0000 11.5816 0.0000
# 6 0.0000 0.0000 0.0000 0.0000 0.0000 27.1205
#
#
#
# Elastic Compliance Matrix: (Units=1/GPa)
#
#
# Indices 1 2 3 4 5 6 
#
# 1 0.009997 -0.002273 -0.005137 0.000000 0.000000 0.000000
# 2 -0.002273 0.010134 -0.002142 0.000000 0.000000 0.000000
# 3 -0.005137 -0.002142 0.019722 0.000000 0.000000 0.000000
# 4 0.000000 0.000000 0.000000 0.082294 0.000000 0.000000
# 5 0.000000 0.000000 0.000000 0.000000 0.086344 0.000000
# 6 0.000000 0.000000 0.000000 0.000000 0.000000 0.036873
#
#
# Mechanical properties :
#
#
# Convention : Reuss Voigt Hill
#
# Bulk Modulus (GPa) = 48.19346 54.64626 51.41986
# Shear Modulus (GPa) = 18.42410 23.92910 21.17660
#
# Velocity S-wave (km/s) = 3.16976 3.61240 3.39829
# Velocity P-wave (km/s) = 6.29906 6.87022 6.59083
#
# Compressibility (1/GPa) = 0.02074970
#
# Stress axis : x y z
#
# Youngs Moduli (GPa) = 100.02641 98.67712 50.70468
#
# Poissons Ratio (x) = 0.22432 0.26047
# Poissons Ratio (y) = 0.22739 0.10859
# Poissons Ratio (z) = 0.51383 0.21133
#
# Static dielectric constant tensor:
#      x y z
#    x 3.652360 0.000000 0.000000 
#    y 0.000000 3.780290 0.000000 
#    z 0.000000 0.000000 2.901130 
# 
# 
# High freq. dielectric constant tensor:
#      x y z
#    x 1.715200 0.000000 0.000000 
#    y 0.000000 1.732550 0.000000 
#    z 0.000000 0.000000 1.650320 
# 
# From -- ./inp_files/45535.got.cif
#   From: 2010.03.12/outbox.cif.g09.slc.cpg/sg63_23_cif.got.tgz:45535.got - 2010.04.10 19:34:48.
