data_PCOD8255430
_publ_section_title
;
Structure prediction by ZEFSAII (Michael W. Deem and Ramdas Pophale) SiO2 
 PCOD8255430
Probable space group: C M C M
;
_chemical_formula_sum "Si O2"
_cell_formula_units_Z 112
_cell_length_a 27.829493
_cell_length_b 27.704931
_cell_length_c 9.678792
_cell_angle_alpha 90.000000
_cell_angle_beta 90.000000
_cell_angle_gamma 90.000000
_cell_volume 7462.485910
_symmetry_space_group_name_H-M "C M C M"
_symmetry_group_IT_number 63
_symmetry_cell_setting 'orthorhombic'
loop_
_space_group_symop_operation_xyz
x,y,z
-x,-y,1/2+z
x,-y,-z
-x,y,1/2-z
-x,-y,-z
x,y,1/2-z
-x,y,z
x,-y,1/2+z
1/2+x,1/2+y,z
1/2-x,1/2-y,1/2+z
1/2+x,1/2-y,-z
1/2-x,1/2+y,1/2-z
1/2-x,1/2-y,-z
1/2+x,1/2+y,1/2-z
1/2-x,1/2+y,z
1/2+x,1/2-y,1/2+z
loop_
_atom_site_type_symbol
_atom_site_label
_atom_site_fract_x
_atom_site_fract_y
_atom_site_fract_z
Si Si1 0.606185 0.852601 0.914179
Si Si2 0.257566 0.955346 0.908578
Si Si3 0.209526 0.145357 0.412096
Si Si4 0.801808 0.698490 0.089828
Si Si5 0.630724 0.044598 0.090259
Si Si6 0.145726 0.795416 0.410362
Si Si7 0.052783 0.261285 0.585652
O O1 0.610006 0.849216 0.750000
O O2 0.656123 0.833451 0.979228
O O3 0.599337 0.908592 0.956551
O O4 0.564180 0.816294 0.965403
O O5 0.250315 0.969976 0.750000
O O6 0.225572 0.909010 0.946546
O O7 0.313379 0.943767 0.938372
O O8 0.239332 0.000000 0.000000
O O9 0.198804 0.151966 0.250000
O O10 0.250394 0.182230 0.469421
O O11 0.161282 0.158502 0.497798
O O12 0.800077 0.685144 0.250000
O O13 0.813764 0.754479 0.066117
O O14 0.622067 0.031871 0.250000
O O15 0.612168 0.000000 0.000000
O O16 0.142837 0.810493 0.250000
O O17 0.093733 0.776220 0.464162
O O18 0.053025 0.260875 0.750000
O O19 0.000000 0.246592 0.528231
#
# Coordination Sequence:
#
# PCOD8255430 Si02
#       7
#    16  16  16  16  16  16  16
#     4   8  12  21  38  56  74 101 136 168 199 235
#     4   9  17  27  39  55  77 108 141 168 194 226
#     4  10  17  26  40  56  80 111 136 158 190 235
#     4   8  13  23  37  54  78 107 134 160 190 228
#     4   9  15  24  38  55  75 101 134 170 203 233
#     4   9  17  26  39  60  82 103 130 164 200 232
#     4   8  14  25  42  62  80  99 130 171 205 235
#
# _framework density 15.008402999999999
#
# number of rings (size 3 to 8) (size 9 to 14) (size 15 to 20)
#    0.000    3.286    1.429    2.143    0.000    0.571 
#    0.000    0.000    0.000    4.286    0.000    0.000 
#    0.000    0.571    0.000    1.286    0.000    2.000 
#
# Total GULP energy -693745.819601 kJ/mol
# GULP energy per Si atom -12388.318207 kJ/mol
# Density = 1.497424 g / cm^3
# Si number density = 15.008403 Si / 1000 Ang^3
#
#
#
# Elastic Constant Matrix: (Units=GPa)
#
#
# Indices 1 2 3 4 5 6 
#
# 1 75.5355 38.2014 21.0991 0.0000 0.0000 0.0000
# 2 38.2014 54.9169 27.3930 0.0000 0.0000 0.0000
# 3 21.0991 27.3930 30.8368 0.0000 0.0000 0.0000
# 4 0.0000 0.0000 0.0000 23.4105 0.0000 0.0000
# 5 0.0000 0.0000 0.0000 0.0000 9.4170 0.0000
# 6 0.0000 0.0000 0.0000 0.0000 0.0000 16.0958
#
#
#
# Elastic Compliance Matrix: (Units=1/GPa)
#
#
# Indices 1 2 3 4 5 6 
#
# 1 0.020526 -0.013060 -0.002443 0.000000 0.000000 0.000000
# 2 -0.013060 0.041007 -0.027492 0.000000 0.000000 0.000000
# 3 -0.002443 -0.027492 0.058522 0.000000 0.000000 0.000000
# 4 0.000000 0.000000 0.000000 0.042716 0.000000 0.000000
# 5 0.000000 0.000000 0.000000 0.000000 0.106191 0.000000
# 6 0.000000 0.000000 0.000000 0.000000 0.000000 0.062128
#
#
# Mechanical properties :
#
#
# Convention : Reuss Voigt Hill
#
# Bulk Modulus (GPa) = 29.35485 37.18625 33.27055
# Shear Modulus (GPa) = 11.67038 14.75770 13.21404
#
# Velocity S-wave (km/s) = 2.79155 3.13916 2.97044
# Velocity P-wave (km/s) = 5.47647 6.16196 5.82930
#
# Compressibility (1/GPa) = 0.03406592
#
# Stress axis : x y z
#
# Youngs Moduli (GPa) = 48.71854 24.38598 17.08757
#
# Poissons Ratio (x) = 0.31847 0.04175
# Poissons Ratio (y) = 0.63625 0.46977
# Poissons Ratio (z) = 0.11902 0.67042
#
# Static dielectric constant tensor:
#      x y z
#    x 2.885380 0.000000 0.000000 
#    y 0.000000 2.874230 0.000000 
#    z 0.000000 0.000000 2.532990 
# 
# 
# High freq. dielectric constant tensor:
#      x y z
#    x 1.544990 0.000000 0.000000 
#    y 0.000000 1.566760 0.000000 
#    z 0.000000 0.000000 1.535360 
# 
# From -- ./inp_files/25166.got.cif
#   From: 2010.03.12/outbox.cif.g09.slc.cpg/sg63_13_cif.got.tgz:25166.got - 2010.04.10 19:34:48.
