data_PCOD8255209
_publ_section_title
;
Structure prediction by ZEFSAII (Michael W. Deem and Ramdas Pophale) SiO2 
 PCOD8255209
Probable space group: P N M A
;
_chemical_formula_sum "Si O2"
_cell_formula_units_Z 40
_cell_length_a 8.981740
_cell_length_b 13.429479
_cell_length_c 14.406728
_cell_angle_alpha 90.000000
_cell_angle_beta 90.000000
_cell_angle_gamma 90.000000
_cell_volume 1737.740809
_symmetry_space_group_name_H-M "P N M A"
_symmetry_group_IT_number 62
_symmetry_cell_setting 'orthorhombic'
loop_
_space_group_symop_operation_xyz
x,y,z
1/2-x,-y,1/2+z
1/2+x,1/2-y,1/2-z
-x,1/2+y,-z
-x,-y,-z
1/2+x,y,1/2-z
1/2-x,1/2+y,1/2+z
x,1/2-y,z
loop_
_atom_site_type_symbol
_atom_site_label
_atom_site_fract_x
_atom_site_fract_y
_atom_site_fract_z
Si Si1 0.606327 0.250000 0.625825
Si Si2 0.758880 0.583618 0.011860
Si Si3 0.807852 0.250000 0.378126
Si Si4 0.740526 0.036167 0.846146
Si Si5 0.721194 0.750000 0.306010
Si Si6 0.596648 0.250000 0.218952
Si Si7 0.089868 0.467999 0.330739
O O1 0.615402 0.350473 0.563430
O O2 0.745426 0.250000 0.696053
O O3 0.456624 0.250000 0.684156
O O4 0.663807 0.656314 0.944927
O O5 0.824537 0.501800 0.939946
O O6 0.649646 0.526479 0.080556
O O7 0.644838 0.250000 0.327821
O O8 0.917095 0.250000 0.288995
O O9 0.707534 0.153786 0.855608
O O10 0.852136 0.021359 0.761409
O O11 0.588234 0.976337 0.828460
O O12 0.647380 0.147246 0.168215
#
# Coordination Sequence:
#
# PCOD8255209 Si02
#       7
#     4   8   4   8   4   4   8
#     4  11  26  48  75 102 148 195 240 304 368 437
#     4  11  25  46  73 105 145 195 238 301 366 425
#     4  11  24  45  76 101 147 188 245 295 365 440
#     4  12  26  46  75 107 147 194 246 305 362 438
#     4  12  26  48  74 105 139 196 246 293 368 437
#     4  12  22  45  75 106 138 197 239 290 369 432
#     4  12  25  46  74 105 148 193 245 304 364 429
#
# _framework density 23.018395000000002
#
# number of rings (size 3 to 8) (size 9 to 14) (size 15 to 20)
#    0.000    0.400    6.000    1.800    0.000    2.400 
#    0.000    2.000    0.000    0.000    0.000    0.000 
#    0.000    0.000    0.000    0.000    0.000    0.000 
#
# Total GULP energy -495759.588640 kJ/mol
# GULP energy per Si atom -12393.989716 kJ/mol
# Density = 2.296600 g / cm^3
# Si number density = 23.018395 Si / 1000 Ang^3
#
#
#
# Elastic Constant Matrix: (Units=GPa)
#
#
# Indices 1 2 3 4 5 6 
#
# 1 66.6791 20.7805 53.4163 0.0000 0.0000 0.0000
# 2 20.7805 191.9090 68.0484 0.0000 0.0000 0.0000
# 3 53.4163 68.0484 166.0644 0.0000 0.0000 0.0000
# 4 0.0000 0.0000 0.0000 50.1885 0.0000 0.0000
# 5 0.0000 0.0000 0.0000 0.0000 19.2136 0.0000
# 6 0.0000 0.0000 0.0000 0.0000 0.0000 24.9738
#
#
#
# Elastic Compliance Matrix: (Units=1/GPa)
#
#
# Indices 1 2 3 4 5 6 
#
# 1 0.020206 0.000136 -0.006555 0.000000 0.000000 0.000000
# 2 0.000136 0.006098 -0.002543 0.000000 0.000000 0.000000
# 3 -0.006555 -0.002543 0.009172 0.000000 0.000000 0.000000
# 4 0.000000 0.000000 0.000000 0.019925 0.000000 0.000000
# 5 0.000000 0.000000 0.000000 0.000000 0.052046 0.000000
# 6 0.000000 0.000000 0.000000 0.000000 0.000000 0.040042
#
#
# Mechanical properties :
#
#
# Convention : Reuss Voigt Hill
#
# Bulk Modulus (GPa) = 56.97018 78.79366 67.88192
# Shear Modulus (GPa) = 29.19484 37.70234 33.44859
#
# Velocity S-wave (km/s) = 3.56522 4.05152 3.81612
# Velocity P-wave (km/s) = 6.46153 7.49609 6.99795
#
# Compressibility (1/GPa) = 0.01755304
#
# Stress axis : x y z
#
# Youngs Moduli (GPa) = 49.48978 163.99990 109.02466
#
# Poissons Ratio (x) = -0.02238 0.71471
# Poissons Ratio (y) = -0.00675 0.27720
# Poissons Ratio (z) = 0.32443 0.41697
#
# Static dielectric constant tensor:
#      x y z
#    x 3.681030 0.000000 0.000000 
#    y 0.000000 4.758600 0.000000 
#    z 0.000000 0.000000 4.259360 
# 
# 
# High freq. dielectric constant tensor:
#      x y z
#    x 1.874100 0.000000 0.000000 
#    y 0.000000 1.945540 0.000000 
#    z 0.000000 0.000000 1.912360 
# 
# From -- ./inp_files/16718.got.cif
#   From: 2010.03.12/outbox.cif.g09.slc.cpg/sg62_9_cif.got.tgz:16718.got - 2010.04.10 19:12:36.
