data_PCOD8255509
_publ_section_title
;
Structure prediction by ZEFSAII (Michael W. Deem and Ramdas Pophale) SiO2 
 PCOD8255509
Probable space group: C M C M
;
_chemical_formula_sum "Si O2"
_cell_formula_units_Z 128
_cell_length_a 16.991381
_cell_length_b 21.145452
_cell_length_c 20.013260
_cell_angle_alpha 90.000000
_cell_angle_beta 90.000000
_cell_angle_gamma 90.000000
_cell_volume 7190.572818
_symmetry_space_group_name_H-M "C M C M"
_symmetry_group_IT_number 63
_symmetry_cell_setting 'orthorhombic'
loop_
_space_group_symop_operation_xyz
x,y,z
-x,-y,1/2+z
x,-y,-z
-x,y,1/2-z
-x,-y,-z
x,y,1/2-z
-x,y,z
x,-y,1/2+z
1/2+x,1/2+y,z
1/2-x,1/2-y,1/2+z
1/2+x,1/2-y,-z
1/2-x,1/2+y,1/2-z
1/2-x,1/2-y,-z
1/2+x,1/2+y,1/2-z
1/2-x,1/2+y,z
1/2+x,1/2-y,1/2+z
loop_
_atom_site_type_symbol
_atom_site_label
_atom_site_fract_x
_atom_site_fract_y
_atom_site_fract_z
Si Si1 0.588221 0.332596 0.446667
Si Si2 0.088985 0.706225 0.527151
Si Si3 0.687641 0.723271 0.128830
Si Si4 0.153993 0.938206 0.541502
Si Si5 0.910666 0.344102 0.674770
Si Si6 0.801364 0.631339 0.439546
Si Si7 0.165468 0.788982 0.177277
Si Si8 0.091106 0.107239 0.175106
O O1 0.500000 0.351725 0.426157
O O2 0.591619 0.260829 0.471761
O O3 0.616126 0.377671 0.505926
O O4 0.644401 0.338869 0.381396
O O5 0.123825 0.730369 0.596619
O O6 0.141023 0.647653 0.500769
O O7 0.000000 0.682904 0.539336
O O8 0.741107 0.689673 0.072148
O O9 0.744502 0.765289 0.174794
O O10 0.642209 0.671153 0.172296
O O11 0.248933 0.930297 0.543386
O O12 0.120284 0.941601 0.617497
O O13 0.130573 0.000000 0.500000
O O14 0.896481 0.368545 0.750000
O O15 0.852249 0.383061 0.626895
O O16 0.894214 0.269601 0.669614
O O17 0.000000 0.356013 0.651631
O O18 0.153391 0.821161 0.250000
O O19 0.102282 0.078217 0.250000
O O20 0.000000 0.123784 0.162056
#
# Coordination Sequence:
#
# PCOD8255509 Si02
#       8
#    16  16  16  16  16  16  16  16
#     4  11  20  32  52  76 104 137 172 210 255 307
#     4  11  18  28  49  79 106 133 165 203 256 312
#     4  10  17  28  46  72 107 140 165 198 245 311
#     4  11  24  39  55  73  98 138 182 220 258 302
#     4   9  16  26  44  74 109 138 162 194 251 321
#     4  10  18  29  48  72 104 132 168 211 253 297
#     4  10  19  29  46  74 110 145 170 202 253 313
#     4  10  20  34  53  76 102 132 170 216 259 298
#
# _framework density 17.801085
#
# number of rings (size 3 to 8) (size 9 to 14) (size 15 to 20)
#    0.000    1.750    5.000    3.000    0.000    4.750 
#    0.000    0.625    0.000    1.500    0.000    0.000 
#    0.000    0.000    0.000    0.000    0.000    0.000 
#
# Total GULP energy -793428.303138 kJ/mol
# GULP energy per Si atom -12397.317237 kJ/mol
# Density = 1.776057 g / cm^3
# Si number density = 17.801085 Si / 1000 Ang^3
#
#
#
# Elastic Constant Matrix: (Units=GPa)
#
#
# Indices 1 2 3 4 5 6 
#
# 1 119.9818 24.1240 40.4171 0.0000 0.0000 0.0000
# 2 24.1240 23.8627 27.3009 0.0000 0.0000 0.0000
# 3 40.4171 27.3009 110.0210 0.0000 0.0000 0.0000
# 4 0.0000 0.0000 0.0000 14.2229 0.0000 0.0000
# 5 0.0000 0.0000 0.0000 0.0000 29.9625 0.0000
# 6 0.0000 0.0000 0.0000 0.0000 0.0000 9.4421
#
#
#
# Elastic Compliance Matrix: (Units=1/GPa)
#
#
# Indices 1 2 3 4 5 6 
#
# 1 0.010694 -0.008821 -0.001740 0.000000 0.000000 0.000000
# 2 -0.008821 0.065796 -0.013086 0.000000 0.000000 0.000000
# 3 -0.001740 -0.013086 0.012976 0.000000 0.000000 0.000000
# 4 0.000000 0.000000 0.000000 0.070309 0.000000 0.000000
# 5 0.000000 0.000000 0.000000 0.000000 0.033375 0.000000
# 6 0.000000 0.000000 0.000000 0.000000 0.000000 0.105909
#
#
# Mechanical properties :
#
#
# Convention : Reuss Voigt Hill
#
# Bulk Modulus (GPa) = 23.71261 48.61660 36.16461
# Shear Modulus (GPa) = 13.87309 21.52706 17.70008
#
# Velocity S-wave (km/s) = 2.79469 3.48129 3.15671
# Velocity P-wave (km/s) = 4.87479 6.59769 5.80056
#
# Compressibility (1/GPa) = 0.04217165
#
# Stress axis : x y z
#
# Youngs Moduli (GPa) = 93.50842 15.19853 77.06801
#
# Poissons Ratio (x) = 0.13407 0.13408
# Poissons Ratio (y) = 0.82483 1.00853
# Poissons Ratio (z) = 0.16268 0.19889
#
# Static dielectric constant tensor:
#      x y z
#    x 3.610490 0.000000 0.000000 
#    y 0.000000 2.660900 0.000000 
#    z 0.000000 0.000000 3.402090 
# 
# 
# High freq. dielectric constant tensor:
#      x y z
#    x 1.709370 0.000000 0.000000 
#    y 0.000000 1.604710 0.000000 
#    z 0.000000 0.000000 1.695540 
# 
# From -- ./inp_files/56118.got.cif
#   From: 2010.03.12/outbox.cif.g09.slc.cpg/sg63_29_cif.got.tgz:56118.got - 2010.04.10 19:34:48.
