data_PCOD8255590
_publ_section_title
;
Structure prediction by ZEFSAII (Michael W. Deem and Ramdas Pophale) SiO2 
 PCOD8255590
Probable space group: C M C M
;
_chemical_formula_sum "Si O2"
_cell_formula_units_Z 112
_cell_length_a 14.452677
_cell_length_b 13.682362
_cell_length_c 28.570179
_cell_angle_alpha 90.000000
_cell_angle_beta 90.000000
_cell_angle_gamma 90.000000
_cell_volume 5649.660289
_symmetry_space_group_name_H-M "C M C M"
_symmetry_group_IT_number 63
_symmetry_cell_setting 'orthorhombic'
loop_
_space_group_symop_operation_xyz
x,y,z
-x,-y,1/2+z
x,-y,-z
-x,y,1/2-z
-x,-y,-z
x,y,1/2-z
-x,y,z
x,-y,1/2+z
1/2+x,1/2+y,z
1/2-x,1/2-y,1/2+z
1/2+x,1/2-y,-z
1/2-x,1/2+y,1/2-z
1/2-x,1/2-y,-z
1/2+x,1/2+y,1/2-z
1/2-x,1/2+y,z
1/2+x,1/2-y,1/2+z
loop_
_atom_site_type_symbol
_atom_site_label
_atom_site_fract_x
_atom_site_fract_y
_atom_site_fract_z
Si Si1 0.237319 0.534343 0.101805
Si Si2 0.397033 0.622017 0.599903
Si Si3 0.357079 0.618768 0.800166
Si Si4 0.849525 0.303682 0.198489
Si Si5 0.255998 0.236599 0.445177
Si Si6 0.708546 0.589076 0.199061
Si Si7 0.897306 0.363738 0.101004
O O1 0.334040 0.475208 0.097004
O O2 0.237300 0.621821 0.064993
O O3 0.222869 0.574888 0.154868
O O4 0.150869 0.466287 0.088831
O O5 0.500000 0.602795 0.579053
O O6 0.411337 0.655876 0.654278
O O7 0.348619 0.709856 0.572322
O O8 0.396687 0.658416 0.750000
O O9 0.252257 0.652626 0.806706
O O10 0.362491 0.501112 0.799334
O O11 0.890236 0.330194 0.250000
O O12 0.849829 0.187185 0.191653
O O13 0.909002 0.350655 0.157052
O O14 0.250000 0.250000 0.500000
O O15 0.163960 0.276526 0.420078
O O16 0.761485 0.594756 0.250000
O O17 0.000000 0.362557 0.078789
#
# Coordination Sequence:
#
# PCOD8255590 Si02
#       7
#    16  16  16  16  16  16  16
#     4  10  20  40  60  85 118 154 188 236 294 349
#     4  10  21  37  60  90 117 147 193 240 289 349
#     4   9  16  30  52  81 117 153 189 228 280 338
#     4  10  17  31  54  83 119 161 196 232 277 339
#     4  11  24  44  64  82 112 155 198 249 307 357
#     4   9  15  27  54  81 109 153 194 220 268 337
#     4  11  23  38  59  92 121 151 195 243 295 354
#
# _framework density 19.824200999999999
#
# number of rings (size 3 to 8) (size 9 to 14) (size 15 to 20)
#    0.000    2.000    5.714    0.000    0.000    4.571 
#    0.000    1.429    0.000    2.571    0.000    2.000 
#    0.000    0.000    0.000    0.000    0.000    0.000 
#
# Total GULP energy -693879.731369 kJ/mol
# GULP energy per Si atom -12390.709489 kJ/mol
# Density = 1.977908 g / cm^3
# Si number density = 19.824201 Si / 1000 Ang^3
#
#
#
# Elastic Constant Matrix: (Units=GPa)
#
#
# Indices 1 2 3 4 5 6 
#
# 1 123.8346 45.6944 28.2505 0.0000 0.0000 0.0000
# 2 45.6944 103.7558 39.1870 0.0000 0.0000 0.0000
# 3 28.2505 39.1870 108.8331 0.0000 0.0000 0.0000
# 4 0.0000 0.0000 0.0000 25.1701 0.0000 0.0000
# 5 0.0000 0.0000 0.0000 0.0000 5.0816 0.0000
# 6 0.0000 0.0000 0.0000 0.0000 0.0000 6.0565
#
#
#
# Elastic Compliance Matrix: (Units=1/GPa)
#
#
# Indices 1 2 3 4 5 6 
#
# 1 0.009763 -0.003869 -0.001141 0.000000 0.000000 0.000000
# 2 -0.003869 0.012688 -0.003564 0.000000 0.000000 0.000000
# 3 -0.001141 -0.003564 0.010768 0.000000 0.000000 0.000000
# 4 0.000000 0.000000 0.000000 0.039730 0.000000 0.000000
# 5 0.000000 0.000000 0.000000 0.000000 0.196786 0.000000
# 6 0.000000 0.000000 0.000000 0.000000 0.000000 0.165112
#
#
# Mechanical properties :
#
#
# Convention : Reuss Voigt Hill
#
# Bulk Modulus (GPa) = 62.22538 62.52083 62.37311
# Shear Modulus (GPa) = 10.93248 22.14777 16.54013
#
# Velocity S-wave (km/s) = 2.35089 3.34609 2.89163
# Velocity P-wave (km/s) = 6.23102 6.82162 6.53300
#
# Compressibility (1/GPa) = 0.01607061
#
# Stress axis : x y z
#
# Youngs Moduli (GPa) = 102.42567 78.81483 92.86769
#
# Poissons Ratio (x) = 0.30491 0.10599
# Poissons Ratio (y) = 0.39625 0.33101
# Poissons Ratio (z) = 0.11690 0.28092
#
# Static dielectric constant tensor:
#      x y z
#    x 3.420040 0.000000 0.000000 
#    y 0.000000 3.682510 0.000000 
#    z 0.000000 0.000000 3.856310 
# 
# 
# High freq. dielectric constant tensor:
#      x y z
#    x 1.730900 0.000000 0.000000 
#    y 0.000000 1.772980 0.000000 
#    z 0.000000 0.000000 1.778120 
# 
# From -- ./inp_files/73528.got.cif
#   From: 2010.03.12/outbox.cif.g09.slc.cpg/sg63_37_cif.got.tgz:73528.got - 2010.04.10 19:34:48.
