data_PCOD8255146
_publ_section_title
;
Structure prediction by ZEFSAII (Michael W. Deem and Ramdas Pophale) SiO2 
 PCOD8255146
Probable space group: P N M A
;
_chemical_formula_sum "Si O2"
_cell_formula_units_Z 40
_cell_length_a 9.470308
_cell_length_b 25.817215
_cell_length_c 7.410924
_cell_angle_alpha 90.000000
_cell_angle_beta 90.000000
_cell_angle_gamma 90.000000
_cell_volume 1811.948520
_symmetry_space_group_name_H-M "P N M A"
_symmetry_group_IT_number 62
_symmetry_cell_setting 'orthorhombic'
loop_
_space_group_symop_operation_xyz
x,y,z
1/2-x,-y,1/2+z
1/2+x,1/2-y,1/2-z
-x,1/2+y,-z
-x,-y,-z
1/2+x,y,1/2-z
1/2-x,1/2+y,1/2+z
x,1/2-y,z
loop_
_atom_site_type_symbol
_atom_site_label
_atom_site_fract_x
_atom_site_fract_y
_atom_site_fract_z
Si Si1 0.319012 0.558904 0.132110
Si Si2 0.093096 0.532547 0.860848
Si Si3 0.504314 0.142323 0.382652
Si Si4 0.417888 0.375873 0.789414
Si Si5 0.805184 0.309932 0.399633
O O1 0.375440 0.502582 0.189298
O O2 0.208354 0.582097 0.278176
O O3 0.448532 0.598163 0.112820
O O4 0.242306 0.551288 0.942189
O O5 0.008848 0.584016 0.803361
O O6 0.000000 0.500000 0.000000
O O7 0.456140 0.144862 0.590903
O O8 0.409928 0.181675 0.267587
O O9 0.665618 0.157629 0.360635
O O10 0.373873 0.327517 0.911615
O O11 0.767208 0.250000 0.417199
#
# Coordination Sequence:
#
# PCOD8255146 Si02
#       5
#     8   8   8   8   8
#     4  11  23  41  67 104 141 185 230 274 351 423
#     4  11  23  40  67 103 139 183 224 275 345 424
#     4  11  27  46  71 106 145 177 237 295 348 425
#     4  11  24  48  69 101 144 185 233 291 345 421
#     4  12  28  48  74 101 133 188 242 300 362 408
#
# _framework density 22.075683000000001
#
# number of rings (size 3 to 8) (size 9 to 14) (size 15 to 20)
#    0.000    0.800    6.000    0.600   11.200    2.400 
#    0.000    0.000    0.000    0.000    0.000    0.000 
#    0.000    0.000    0.000    0.000    0.000    0.000 
#
# Total GULP energy -496203.315694 kJ/mol
# GULP energy per Si atom -12405.082892 kJ/mol
# Density = 2.202544 g / cm^3
# Si number density = 22.075683 Si / 1000 Ang^3
#
#
#
# Elastic Constant Matrix: (Units=GPa)
#
#
# Indices 1 2 3 4 5 6 
#
# 1 115.3549 19.7794 12.2254 0.0000 0.0000 0.0000
# 2 19.7794 89.6385 13.2327 0.0000 0.0000 0.0000
# 3 12.2254 13.2327 66.6211 0.0000 0.0000 0.0000
# 4 0.0000 0.0000 0.0000 39.4065 0.0000 0.0000
# 5 0.0000 0.0000 0.0000 0.0000 26.9753 0.0000
# 6 0.0000 0.0000 0.0000 0.0000 0.0000 33.2507
#
#
#
# Elastic Compliance Matrix: (Units=1/GPa)
#
#
# Indices 1 2 3 4 5 6 
#
# 1 0.009120 -0.001819 -0.001312 0.000000 0.000000 0.000000
# 2 -0.001819 0.011856 -0.002021 0.000000 0.000000 0.000000
# 3 -0.001312 -0.002021 0.015653 0.000000 0.000000 0.000000
# 4 0.000000 0.000000 0.000000 0.025377 0.000000 0.000000
# 5 0.000000 0.000000 0.000000 0.000000 0.037071 0.000000
# 6 0.000000 0.000000 0.000000 0.000000 0.000000 0.030075
#
#
# Mechanical properties :
#
#
# Convention : Reuss Voigt Hill
#
# Bulk Modulus (GPa) = 37.98841 40.23218 39.11029
# Shear Modulus (GPa) = 33.73168 35.01830 34.37499
#
# Velocity S-wave (km/s) = 3.91321 3.98714 3.95035
# Velocity P-wave (km/s) = 6.13704 6.28177 6.20982
#
# Compressibility (1/GPa) = 0.02632382
#
# Stress axis : x y z
#
# Youngs Moduli (GPa) = 109.65135 84.34847 63.88743
#
# Poissons Ratio (x) = 0.15340 0.08384
# Poissons Ratio (y) = 0.19942 0.12912
# Poissons Ratio (z) = 0.14390 0.17048
#
# Static dielectric constant tensor:
#      x y z
#    x 4.283890 0.000000 0.000000 
#    y 0.000000 4.042160 0.000000 
#    z 0.000000 0.000000 3.835220 
# 
# 
# High freq. dielectric constant tensor:
#      x y z
#    x 1.889790 0.000000 0.000000 
#    y 0.000000 1.861350 0.000000 
#    z 0.000000 0.000000 1.862400 
# 
# From -- ./inp_files/4262.got.cif
#   From: 2010.03.12/outbox.cif.g09.slc.cpg/sg62_3_cif.got.tgz:4262.got - 2010.04.10 19:12:36.
