data_PCOD8255698
_publ_section_title
;
Structure prediction by ZEFSAII (Michael W. Deem and Ramdas Pophale) SiO2 
 PCOD8255698
Probable space group: C M C M
;
_chemical_formula_sum "Si O2"
_cell_formula_units_Z 128
_cell_length_a 21.612256
_cell_length_b 21.439930
_cell_length_c 18.451204
_cell_angle_alpha 90.000000
_cell_angle_beta 90.000000
_cell_angle_gamma 90.000000
_cell_volume 8549.646861
_symmetry_space_group_name_H-M "C M C M"
_symmetry_group_IT_number 63
_symmetry_cell_setting 'orthorhombic'
loop_
_space_group_symop_operation_xyz
x,y,z
-x,-y,1/2+z
x,-y,-z
-x,y,1/2-z
-x,-y,-z
x,y,1/2-z
-x,y,z
x,-y,1/2+z
1/2+x,1/2+y,z
1/2-x,1/2-y,1/2+z
1/2+x,1/2-y,-z
1/2-x,1/2+y,1/2-z
1/2-x,1/2-y,-z
1/2+x,1/2+y,1/2-z
1/2-x,1/2+y,z
1/2+x,1/2-y,1/2+z
loop_
_atom_site_type_symbol
_atom_site_label
_atom_site_fract_x
_atom_site_fract_y
_atom_site_fract_z
Si Si1 0.429686 0.887855 0.956275
Si Si2 0.570276 0.258447 0.043174
Si Si3 0.249599 0.650867 0.331950
Si Si4 0.258658 0.828362 0.422070
Si Si5 0.664164 0.267373 0.166678
Si Si6 0.148267 0.445742 0.665569
Si Si7 0.825527 0.208097 0.054990
Si Si8 0.332689 0.950813 0.442858
O O1 0.500000 0.911406 0.957192
O O2 0.425655 0.814790 0.971263
O O3 0.401331 0.903812 0.877538
O O4 0.394182 0.922711 0.020886
O O5 0.500000 0.282583 0.045296
O O6 0.601852 0.273812 0.120027
O O7 0.605165 0.294699 0.977427
O O8 0.271434 0.659926 0.250000
O O9 0.198190 0.702587 0.353298
O O10 0.216783 0.584218 0.343839
O O11 0.311952 0.659146 0.379860
O O12 0.212172 0.822613 0.353626
O O13 0.223030 0.811462 0.494574
O O14 0.314439 0.778528 0.415788
O O15 0.283006 0.898340 0.424658
O O16 0.644772 0.271699 0.250000
O O17 0.128871 0.448120 0.750000
O O18 0.149653 0.515172 0.632311
O O19 0.303136 0.000000 0.500000
#
# Coordination Sequence:
#
# PCOD8255698 Si02
#       8
#    16  16  16  16  16  16  16  16
#     4  10  19  31  44  58  81 118 159 189 211 247
#     4  10  18  27  44  66  88 115 146 180 217 251
#     4   9  16  28  45  65  85 109 140 176 226 269
#     4   9  16  26  43  64  82 113 144 176 217 264
#     4   9  17  28  44  64  88 112 140 177 219 272
#     4  10  20  31  43  62  89 113 144 190 225 253
#     4   9  15  27  46  62  86 108 141 181 215 260
#     4  10  19  29  44  62  87 116 151 185 218 248
#
# _framework density 14.971378
#
# number of rings (size 3 to 8) (size 9 to 14) (size 15 to 20)
#    0.000    2.500    2.500    2.250    0.000    3.250 
#    0.000    1.250    0.000    0.375    0.000    1.750 
#    0.000   32.000    0.000    5.250    0.000    0.000 
#
# Total GULP energy -793255.590831 kJ/mol
# GULP energy per Si atom -12394.618607 kJ/mol
# Density = 1.493730 g / cm^3
# Si number density = 14.971378 Si / 1000 Ang^3
#
#
#
# Elastic Constant Matrix: (Units=GPa)
#
#
# Indices 1 2 3 4 5 6 
#
# 1 95.3917 32.1400 57.7566 0.0000 0.0000 0.0000
# 2 32.1400 45.9061 23.1567 0.0000 0.0000 0.0000
# 3 57.7566 23.1567 92.3481 0.0000 0.0000 0.0000
# 4 0.0000 0.0000 0.0000 16.2350 0.0000 0.0000
# 5 0.0000 0.0000 0.0000 0.0000 18.9103 0.0000
# 6 0.0000 0.0000 0.0000 0.0000 0.0000 18.7085
#
#
#
# Elastic Compliance Matrix: (Units=1/GPa)
#
#
# Indices 1 2 3 4 5 6 
#
# 1 0.019420 -0.008551 -0.010001 0.000000 0.000000 0.000000
# 2 -0.008551 0.028703 -0.001849 0.000000 0.000000 0.000000
# 3 -0.010001 -0.001849 0.017547 0.000000 0.000000 0.000000
# 4 0.000000 0.000000 0.000000 0.061595 0.000000 0.000000
# 5 0.000000 0.000000 0.000000 0.000000 0.052881 0.000000
# 6 0.000000 0.000000 0.000000 0.000000 0.000000 0.053452
#
#
# Mechanical properties :
#
#
# Convention : Reuss Voigt Hill
#
# Bulk Modulus (GPa) = 40.21435 51.08360 45.64897
# Shear Modulus (GPa) = 17.68715 18.81026 18.24871
#
# Velocity S-wave (km/s) = 3.44087 3.54844 3.49507
# Velocity P-wave (km/s) = 6.53493 7.14027 6.84430
#
# Compressibility (1/GPa) = 0.02486675
#
# Stress axis : x y z
#
# Youngs Moduli (GPa) = 51.49425 34.83904 56.98869
#
# Poissons Ratio (x) = 0.29792 0.56996
# Poissons Ratio (y) = 0.44034 0.10540
# Poissons Ratio (z) = 0.51501 0.06443
#
# Static dielectric constant tensor:
#      x y z
#    x 2.785260 0.000000 0.000000 
#    y 0.000000 2.844770 0.000000 
#    z 0.000000 0.000000 2.958480 
# 
# 
# High freq. dielectric constant tensor:
#      x y z
#    x 1.546740 0.000000 0.000000 
#    y 0.000000 1.552170 0.000000 
#    z 0.000000 0.000000 1.575550 
# 
# From -- ./inp_files/47512.got.cif
#   From: 2010.03.12/outbox.cif.g09.slc.cpg/sg63_24_cif.got.tgz:47512.got - 2010.04.10 19:34:48.
