data_PCOD8255561
_publ_section_title
;
Structure prediction by ZEFSAII (Michael W. Deem and Ramdas Pophale) SiO2 
 PCOD8255561
Probable space group: C M C M
;
_chemical_formula_sum "Si O2"
_cell_formula_units_Z 80
_cell_length_a 8.694783
_cell_length_b 20.868063
_cell_length_c 24.688824
_cell_angle_alpha 90.000000
_cell_angle_beta 90.000000
_cell_angle_gamma 90.000000
_cell_volume 4479.621191
_symmetry_space_group_name_H-M "C M C M"
_symmetry_group_IT_number 63
_symmetry_cell_setting 'orthorhombic'
loop_
_space_group_symop_operation_xyz
x,y,z
-x,-y,1/2+z
x,-y,-z
-x,y,1/2-z
-x,-y,-z
x,y,1/2-z
-x,y,z
x,-y,1/2+z
1/2+x,1/2+y,z
1/2-x,1/2-y,1/2+z
1/2+x,1/2-y,-z
1/2-x,1/2+y,1/2-z
1/2-x,1/2-y,-z
1/2+x,1/2+y,1/2-z
1/2-x,1/2+y,z
1/2+x,1/2-y,1/2+z
loop_
_atom_site_type_symbol
_atom_site_label
_atom_site_fract_x
_atom_site_fract_y
_atom_site_fract_z
Si Si1 0.684231 0.635913 0.366780
Si Si2 0.321331 0.998199 0.140883
Si Si3 0.317189 0.812675 0.973071
Si Si4 0.668930 0.641362 0.250000
Si Si5 0.320897 0.939022 0.469627
Si Si6 0.670166 0.510859 0.750000
O O1 0.500000 0.638820 0.368071
O O2 0.734998 0.562896 0.376676
O O3 0.756527 0.682119 0.411633
O O4 0.748162 0.660437 0.307367
O O5 0.500000 0.015259 0.146867
O O6 0.292027 0.945049 0.094595
O O7 0.259981 0.966733 0.196302
O O8 0.500000 0.809099 0.972960
O O9 0.250000 0.750000 0.000000
O O10 0.251363 0.872822 0.007666
O O11 0.500000 0.672174 0.250000
O O12 0.657918 0.565003 0.250000
O O13 0.500000 0.938213 0.484014
O O14 0.244672 0.000000 0.500000
O O15 0.500000 0.541652 0.750000
#
# Coordination Sequence:
#
# PCOD8255561 Si02
#       6
#    16  16  16   8  16   8
#     4  10  18  31  50  76 107 138 170 214 266 312
#     4  10  17  29  51  76 101 136 178 215 256 312
#     4  11  22  37  54  75 106 141 178 219 266 320
#     4   7  14  27  45  68  99 132 163 201 251 303
#     4   9  17  32  53  76 103 135 170 214 260 307
#     4   9  17  29  43  70 109 138 163 213 271 309
#
# _framework density 17.858653
#
# number of rings (size 3 to 8) (size 9 to 14) (size 15 to 20)
#    0.000    2.400    2.000    3.300    0.000    0.000 
#    0.000    6.500    0.000    1.200    0.000    4.200 
#    0.000    0.000    0.000    0.000    0.000    0.000 
#
# Total GULP energy -495708.450863 kJ/mol
# GULP energy per Si atom -12392.711272 kJ/mol
# Density = 1.781801 g / cm^3
# Si number density = 17.858653 Si / 1000 Ang^3
#
#
#
# Elastic Constant Matrix: (Units=GPa)
#
#
# Indices 1 2 3 4 5 6 
#
# 1 72.0612 26.5092 48.1088 0.0000 0.0000 0.0000
# 2 26.5092 93.1259 67.7496 0.0000 0.0000 0.0000
# 3 48.1088 67.7496 173.7383 0.0000 0.0000 0.0000
# 4 0.0000 0.0000 0.0000 21.7886 0.0000 0.0000
# 5 0.0000 0.0000 0.0000 0.0000 27.6369 0.0000
# 6 0.0000 0.0000 0.0000 0.0000 0.0000 18.2537
#
#
#
# Elastic Compliance Matrix: (Units=1/GPa)
#
#
# Indices 1 2 3 4 5 6 
#
# 1 0.017289 -0.002008 -0.004004 0.000000 0.000000 0.000000
# 2 -0.002008 0.015224 -0.005381 0.000000 0.000000 0.000000
# 3 -0.004004 -0.005381 0.008963 0.000000 0.000000 0.000000
# 4 0.000000 0.000000 0.000000 0.045896 0.000000 0.000000
# 5 0.000000 0.000000 0.000000 0.000000 0.036183 0.000000
# 6 0.000000 0.000000 0.000000 0.000000 0.000000 0.054783
#
#
# Mechanical properties :
#
#
# Convention : Reuss Voigt Hill
#
# Bulk Modulus (GPa) = 53.50545 69.29564 61.40054
# Shear Modulus (GPa) = 24.11320 26.63968 25.37644
#
# Velocity S-wave (km/s) = 3.67853 3.86644 3.77365
# Velocity P-wave (km/s) = 6.93308 7.66935 7.31049
#
# Compressibility (1/GPa) = 0.01868969
#
# Stress axis : x y z
#
# Youngs Moduli (GPa) = 57.83947 65.68448 111.57281
#
# Poissons Ratio (x) = 0.13192 0.44677
# Poissons Ratio (y) = 0.11617 0.60033
# Poissons Ratio (z) = 0.23160 0.35342
#
# Static dielectric constant tensor:
#      x y z
#    x 3.220470 0.000000 0.000000 
#    y 0.000000 2.994810 0.000000 
#    z 0.000000 0.000000 3.800600 
# 
# 
# High freq. dielectric constant tensor:
#      x y z
#    x 1.678250 0.000000 0.000000 
#    y 0.000000 1.636250 0.000000 
#    z 0.000000 0.000000 1.716730 
# 
# From -- ./inp_files/66692.got.cif
#   From: 2010.03.12/outbox.cif.g09.slc.cpg/sg63_34_cif.got.tgz:66692.got - 2010.04.10 19:34:48.
