data_PCOD8255174
_publ_section_title
;
Structure prediction by ZEFSAII (Michael W. Deem and Ramdas Pophale) SiO2 
 PCOD8255174
Probable space group: P N M A
;
_chemical_formula_sum "Si O2"
_cell_formula_units_Z 40
_cell_length_a 10.370707
_cell_length_b 14.205635
_cell_length_c 12.533074
_cell_angle_alpha 90.000000
_cell_angle_beta 90.000000
_cell_angle_gamma 90.000000
_cell_volume 1846.403523
_symmetry_space_group_name_H-M "P N M A"
_symmetry_group_IT_number 62
_symmetry_cell_setting 'orthorhombic'
loop_
_space_group_symop_operation_xyz
x,y,z
1/2-x,-y,1/2+z
1/2+x,1/2-y,1/2-z
-x,1/2+y,-z
-x,-y,-z
1/2+x,y,1/2-z
1/2-x,1/2+y,1/2+z
x,1/2-y,z
loop_
_atom_site_type_symbol
_atom_site_label
_atom_site_fract_x
_atom_site_fract_y
_atom_site_fract_z
Si Si1 0.132479 0.857334 0.306484
Si Si2 0.118122 0.462126 0.723961
Si Si3 0.309155 0.422292 0.034033
Si Si4 0.891583 0.053926 0.061903
Si Si5 0.202573 0.250000 0.165883
Si Si6 0.091335 0.750000 0.859060
O O1 0.162635 0.750000 0.279500
O O2 0.240068 0.917719 0.243041
O O3 0.124687 0.870791 0.434544
O O4 0.990456 0.882318 0.264361
O O5 0.097705 0.523708 0.616617
O O6 0.091804 0.538887 0.812934
O O7 0.224675 0.344476 0.096446
O O8 0.237730 0.511527 0.984219
O O9 0.894145 0.166296 0.054324
O O10 0.000000 0.000000 0.000000
O O11 0.295064 0.250000 0.269832
O O12 0.050565 0.250000 0.197686
#
# Coordination Sequence:
#
# PCOD8255174 Si02
#       6
#     8   8   8   8   4   4
#     4  11  24  43  67  98 134 184 228 278 346 410
#     4  11  24  43  69  95 140 176 225 290 338 407
#     4  11  23  44  69 100 140 181 227 285 352 405
#     4  11  23  43  69 101 139 182 226 281 350 411
#     4  12  24  46  74 101 137 182 236 291 343 409
#     4  12  26  44  78 103 137 184 242 291 339 413
#
# _framework density 21.663737999999999
#
# number of rings (size 3 to 8) (size 9 to 14) (size 15 to 20)
#    0.000    0.800    5.000    2.400    0.000    0.000 
#   12.600    0.000    0.000    0.000    0.000    0.000 
#    0.000    0.000    0.000    0.000    0.000    0.000 
#
# Total GULP energy -495683.833933 kJ/mol
# GULP energy per Si atom -12392.095848 kJ/mol
# Density = 2.161443 g / cm^3
# Si number density = 21.663738 Si / 1000 Ang^3
#
#
#
# Elastic Constant Matrix: (Units=GPa)
#
#
# Indices 1 2 3 4 5 6 
#
# 1 101.1247 29.0399 17.9116 0.0000 0.0000 0.0000
# 2 29.0399 157.4225 34.4979 0.0000 0.0000 0.0000
# 3 17.9116 34.4979 62.6076 0.0000 0.0000 0.0000
# 4 0.0000 0.0000 0.0000 30.8052 0.0000 0.0000
# 5 0.0000 0.0000 0.0000 0.0000 28.3769 0.0000
# 6 0.0000 0.0000 0.0000 0.0000 0.0000 27.8898
#
#
#
# Elastic Compliance Matrix: (Units=1/GPa)
#
#
# Indices 1 2 3 4 5 6 
#
# 1 0.010713 -0.001484 -0.002247 0.000000 0.000000 0.000000
# 2 -0.001484 0.007430 -0.003670 0.000000 0.000000 0.000000
# 3 -0.002247 -0.003670 0.018638 0.000000 0.000000 0.000000
# 4 0.000000 0.000000 0.000000 0.032462 0.000000 0.000000
# 5 0.000000 0.000000 0.000000 0.000000 0.035240 0.000000
# 6 0.000000 0.000000 0.000000 0.000000 0.000000 0.035855
#
#
# Mechanical properties :
#
#
# Convention : Reuss Voigt Hill
#
# Bulk Modulus (GPa) = 45.49767 53.78371 49.64069
# Shear Modulus (GPa) = 30.77566 33.39472 32.08519
#
# Velocity S-wave (km/s) = 3.77318 3.93046 3.85262
# Velocity P-wave (km/s) = 6.32692 6.74377 6.53867
#
# Compressibility (1/GPa) = 0.02197915
#
# Stress axis : x y z
#
# Youngs Moduli (GPa) = 93.34521 134.58542 53.65522
#
# Poissons Ratio (x) = 0.19969 0.12058
# Poissons Ratio (y) = 0.13850 0.19690
# Poissons Ratio (z) = 0.20978 0.49389
#
# Static dielectric constant tensor:
#      x y z
#    x 3.123220 0.000000 0.000000 
#    y 0.000000 5.962420 0.000000 
#    z 0.000000 0.000000 4.169580 
# 
# 
# High freq. dielectric constant tensor:
#      x y z
#    x 1.839810 0.000000 0.000000 
#    y 0.000000 1.868380 0.000000 
#    z 0.000000 0.000000 1.857610 
# 
# From -- ./inp_files/12079.got.cif
#   From: 2010.03.12/outbox.cif.g09.slc.cpg/sg62_7_cif.got.tgz:12079.got - 2010.04.10 19:12:36.
