data_PCOD8255849
_publ_section_title
;
Structure prediction by ZEFSAII (Michael W. Deem and Ramdas Pophale) SiO2 
 PCOD8255849
Probable space group: C M C M
;
_chemical_formula_sum "Si O2"
_cell_formula_units_Z 72
_cell_length_a 21.297806
_cell_length_b 20.310825
_cell_length_c 10.234613
_cell_angle_alpha 90.000000
_cell_angle_beta 90.000000
_cell_angle_gamma 90.000000
_cell_volume 4427.248061
_symmetry_space_group_name_H-M "C M C M"
_symmetry_group_IT_number 63
_symmetry_cell_setting 'orthorhombic'
loop_
_space_group_symop_operation_xyz
x,y,z
-x,-y,1/2+z
x,-y,-z
-x,y,1/2-z
-x,-y,-z
x,y,1/2-z
-x,y,z
x,-y,1/2+z
1/2+x,1/2+y,z
1/2-x,1/2-y,1/2+z
1/2+x,1/2-y,-z
1/2-x,1/2+y,1/2-z
1/2-x,1/2-y,-z
1/2+x,1/2+y,1/2-z
1/2-x,1/2+y,z
1/2+x,1/2-y,1/2+z
loop_
_atom_site_type_symbol
_atom_site_label
_atom_site_fract_x
_atom_site_fract_y
_atom_site_fract_z
Si Si1 0.841588 0.273753 0.250000
Si Si2 0.250092 0.922265 0.005942
Si Si3 0.882381 0.350411 0.013089
Si Si4 0.145229 0.286352 0.750000
Si Si5 0.778870 0.855732 0.750000
Si Si6 0.000000 0.563146 0.592659
Si Si7 0.289964 0.347049 0.250000
O O1 0.878988 0.293719 0.121079
O O2 0.836111 0.195309 0.250000
O O3 0.773844 0.306694 0.250000
O O4 0.320522 0.895074 0.012660
O O5 0.207937 0.894674 0.124469
O O6 0.214520 0.900613 0.876158
O O7 0.254125 0.000000 0.000000
O O8 0.939244 0.396603 0.051847
O O9 0.892632 0.312802 0.875916
O O10 0.213892 0.316912 0.750000
O O11 0.152785 0.206340 0.750000
O O12 0.000000 0.500000 0.500000
O O13 0.000000 0.546958 0.750000
#
# Coordination Sequence:
#
# PCOD8255849 Si02
#       7
#     8  16  16   8   8   8   8
#     4   9  16  31  49  66  88 122 163 206 241 281
#     4  10  18  29  44  69  99 132 160 192 234 289
#     4  10  20  34  50  67  93 128 170 208 240 271
#     4   9  18  31  49  70  88 120 163 204 245 285
#     4   9  17  28  46  68  91 122 160 195 239 291
#     4  12  26  40  52  70  96 132 171 210 242 274
#     4   9  17  28  46  68  95 122 160 197 237 289
#
# _framework density 16.262923000000001
#
# number of rings (size 3 to 8) (size 9 to 14) (size 15 to 20)
#    0.000    2.222    1.111    2.667    1.556    5.333 
#    4.000    0.000    0.000    0.000    0.000    0.000 
#    0.000    0.000    0.000   70.000    0.000    0.000 
#
# Total GULP energy -446246.497117 kJ/mol
# GULP energy per Si atom -12395.736031 kJ/mol
# Density = 1.622591 g / cm^3
# Si number density = 16.262923 Si / 1000 Ang^3
#
#
#
# Elastic Constant Matrix: (Units=GPa)
#
#
# Indices 1 2 3 4 5 6 
#
# 1 43.1036 40.3484 39.0313 0.0000 0.0000 0.0000
# 2 40.3484 118.9863 74.2999 0.0000 0.0000 0.0000
# 3 39.0313 74.2999 181.6375 0.0000 0.0000 0.0000
# 4 0.0000 0.0000 0.0000 25.3946 0.0000 0.0000
# 5 0.0000 0.0000 0.0000 0.0000 14.1370 0.0000
# 6 0.0000 0.0000 0.0000 0.0000 0.0000 9.1094
#
#
#
# Elastic Compliance Matrix: (Units=1/GPa)
#
#
# Indices 1 2 3 4 5 6 
#
# 1 0.035707 -0.009827 -0.003653 0.000000 0.000000 0.000000
# 2 -0.009827 0.013992 -0.003612 0.000000 0.000000 0.000000
# 3 -0.003653 -0.003612 0.007768 0.000000 0.000000 0.000000
# 4 0.000000 0.000000 0.000000 0.039378 0.000000 0.000000
# 5 0.000000 0.000000 0.000000 0.000000 0.070736 0.000000
# 6 0.000000 0.000000 0.000000 0.000000 0.000000 0.109776
#
#
# Mechanical properties :
#
#
# Convention : Reuss Voigt Hill
#
# Bulk Modulus (GPa) = 42.95016 72.34295 57.64655
# Shear Modulus (GPa) = 15.65911 22.39806 19.02859
#
# Velocity S-wave (km/s) = 3.10638 3.71515 3.42432
# Velocity P-wave (km/s) = 6.27163 7.93619 7.15250
#
# Compressibility (1/GPa) = 0.02328280
#
# Stress axis : x y z
#
# Youngs Moduli (GPa) = 28.00590 71.46896 128.73479
#
# Poissons Ratio (x) = 0.70233 0.47027
# Poissons Ratio (y) = 0.27522 0.46497
# Poissons Ratio (z) = 0.10231 0.25814
#
# Static dielectric constant tensor:
#      x y z
#    x 2.703660 0.000000 0.000000 
#    y 0.000000 3.150020 0.000000 
#    z 0.000000 0.000000 3.385590 
# 
# 
# High freq. dielectric constant tensor:
#      x y z
#    x 1.568480 0.000000 0.000000 
#    y 0.000000 1.627100 0.000000 
#    z 0.000000 0.000000 1.652350 
# 
# From -- ./inp_files/7924.got.cif
#   From: 2010.03.12/outbox.cif.g09.slc.cpg/sg63_4_cif.got.tgz:7924.got - 2010.04.10 19:34:48.
