data_PCOD8255497
_publ_section_title
;
Structure prediction by ZEFSAII (Michael W. Deem and Ramdas Pophale) SiO2 
 PCOD8255497
Probable space group: C M C M
;
_chemical_formula_sum "Si O2"
_cell_formula_units_Z 96
_cell_length_a 8.804874
_cell_length_b 23.914824
_cell_length_c 26.595232
_cell_angle_alpha 90.000000
_cell_angle_beta 90.000000
_cell_angle_gamma 90.000000
_cell_volume 5600.078537
_symmetry_space_group_name_H-M "C M C M"
_symmetry_group_IT_number 63
_symmetry_cell_setting 'orthorhombic'
loop_
_space_group_symop_operation_xyz
x,y,z
-x,-y,1/2+z
x,-y,-z
-x,y,1/2-z
-x,-y,-z
x,y,1/2-z
-x,y,z
x,-y,1/2+z
1/2+x,1/2+y,z
1/2-x,1/2-y,1/2+z
1/2+x,1/2-y,-z
1/2-x,1/2+y,1/2-z
1/2-x,1/2-y,-z
1/2+x,1/2+y,1/2-z
1/2-x,1/2+y,z
1/2+x,1/2-y,1/2+z
loop_
_atom_site_type_symbol
_atom_site_label
_atom_site_fract_x
_atom_site_fract_y
_atom_site_fract_z
Si Si1 0.181652 0.853455 0.436911
Si Si2 0.822464 0.083346 0.385819
Si Si3 0.820438 0.021004 0.553542
Si Si4 0.172382 0.335050 0.960747
Si Si5 0.170282 0.246459 0.622762
Si Si6 0.818909 0.340940 0.693085
O O1 0.239530 0.917258 0.431782
O O2 0.260706 0.824848 0.484464
O O3 0.235712 0.816123 0.388179
O O4 0.000000 0.849712 0.442755
O O5 0.779461 0.120098 0.433807
O O6 0.736026 0.103333 0.335611
O O7 0.000000 0.088462 0.375328
O O8 0.774829 0.020013 0.400531
O O9 0.000000 0.022560 0.547477
O O10 0.750854 0.000000 0.500000
O O11 0.176608 0.277128 0.930848
O O12 0.000000 0.357941 0.963091
O O13 0.250916 0.285238 0.665441
O O14 0.000000 0.239176 0.642376
O O15 0.758752 0.342047 0.750000
O O16 0.000000 0.340660 0.690264
#
# Coordination Sequence:
#
# PCOD8255497 Si02
#       6
#    16  16  16  16  16  16
#     4  10  17  28  45  62  89 127 160 184 218 267
#     4  10  18  30  48  69  93 122 158 193 222 265
#     4   9  16  27  43  65  93 126 160 187 218 258
#     4  10  18  28  41  64  96 123 153 189 225 264
#     4   8  16  28  44  66  88 115 150 186 226 275
#     4   9  18  34  53  71  92 114 142 190 244 284
#
# _framework density 17.142616
#
# number of rings (size 3 to 8) (size 9 to 14) (size 15 to 20)
#    0.000    2.667    1.667    2.500    0.000    0.333 
#    0.000    5.833    0.000    1.000    0.000    4.667 
#    0.000    0.000    0.000    0.000    0.000    0.000 
#
# Total GULP energy -594665.163086 kJ/mol
# GULP energy per Si atom -12388.857564 kJ/mol
# Density = 1.710360 g / cm^3
# Si number density = 17.142616 Si / 1000 Ang^3
#
#
#
# Elastic Constant Matrix: (Units=GPa)
#
#
# Indices 1 2 3 4 5 6 
#
# 1 19.7221 20.9002 21.0763 0.0000 0.0000 0.0000
# 2 20.9002 111.0850 60.3591 0.0000 0.0000 0.0000
# 3 21.0763 60.3591 116.2465 0.0000 0.0000 0.0000
# 4 0.0000 0.0000 0.0000 14.6058 0.0000 0.0000
# 5 0.0000 0.0000 0.0000 0.0000 19.3907 0.0000
# 6 0.0000 0.0000 0.0000 0.0000 0.0000 15.0182
#
#
#
# Elastic Compliance Matrix: (Units=1/GPa)
#
#
# Indices 1 2 3 4 5 6 
#
# 1 0.068224 -0.008518 -0.007947 0.000000 0.000000 0.000000
# 2 -0.008518 0.013604 -0.005519 0.000000 0.000000 0.000000
# 3 -0.007947 -0.005519 0.012909 0.000000 0.000000 0.000000
# 4 0.000000 0.000000 0.000000 0.068466 0.000000 0.000000
# 5 0.000000 0.000000 0.000000 0.000000 0.051571 0.000000
# 6 0.000000 0.000000 0.000000 0.000000 0.000000 0.066586
#
#
# Mechanical properties :
#
#
# Convention : Reuss Voigt Hill
#
# Bulk Modulus (GPa) = 19.69718 50.19166 34.94442
# Shear Modulus (GPa) = 14.60923 19.45082 17.03003
#
# Velocity S-wave (km/s) = 2.92244 3.37211 3.15530
# Velocity P-wave (km/s) = 4.78568 6.67113 5.80545
#
# Compressibility (1/GPa) = 0.05076869
#
# Stress axis : x y z
#
# Youngs Moduli (GPa) = 14.65765 73.51001 77.46627
#
# Poissons Ratio (x) = 0.62617 0.61559
# Poissons Ratio (y) = 0.12486 0.42754
# Poissons Ratio (z) = 0.11648 0.40570
#
# Static dielectric constant tensor:
#      x y z
#    x 2.937380 0.000000 0.000000 
#    y 0.000000 3.499880 0.000000 
#    z 0.000000 0.000000 3.110300 
# 
# 
# High freq. dielectric constant tensor:
#      x y z
#    x 1.632630 0.000000 0.000000 
#    y 0.000000 1.665370 0.000000 
#    z 0.000000 0.000000 1.631820 
# 
# From -- ./inp_files/67197.got.cif
#   From: 2010.03.12/outbox.cif.g09.slc.cpg/sg63_34_cif.got.tgz:67197.got - 2010.04.10 19:34:48.
