data_PCOD8255609
_publ_section_title
;
Structure prediction by ZEFSAII (Michael W. Deem and Ramdas Pophale) SiO2 
 PCOD8255609
Probable space group: C M C M
;
_chemical_formula_sum "Si O2"
_cell_formula_units_Z 44
_cell_length_a 7.719588
_cell_length_b 34.782891
_cell_length_c 9.744944
_cell_angle_alpha 90.000000
_cell_angle_beta 90.000000
_cell_angle_gamma 90.000000
_cell_volume 2616.610898
_symmetry_space_group_name_H-M "C M C M"
_symmetry_group_IT_number 63
_symmetry_cell_setting 'orthorhombic'
loop_
_space_group_symop_operation_xyz
x,y,z
-x,-y,1/2+z
x,-y,-z
-x,y,1/2-z
-x,-y,-z
x,y,1/2-z
-x,y,z
x,-y,1/2+z
1/2+x,1/2+y,z
1/2-x,1/2-y,1/2+z
1/2+x,1/2-y,-z
1/2-x,1/2+y,1/2-z
1/2-x,1/2-y,-z
1/2+x,1/2+y,1/2-z
1/2-x,1/2+y,z
1/2+x,1/2-y,1/2+z
loop_
_atom_site_type_symbol
_atom_site_label
_atom_site_fract_x
_atom_site_fract_y
_atom_site_fract_z
Si Si1 0.000000 0.275448 0.750000
Si Si2 0.802609 0.963397 0.091653
Si Si3 0.818550 0.280805 0.250000
Si Si4 0.500000 0.821206 0.028013
Si Si5 0.000000 0.406288 0.089878
O O1 0.838253 0.247531 0.750000
O O2 0.000000 0.302241 0.619534
O O3 0.773721 0.975068 0.250000
O O4 0.672656 0.929525 0.048835
O O5 0.000000 0.949528 0.065903
O O6 0.756966 0.000000 0.000000
O O7 0.826974 0.308082 0.386465
O O8 0.000000 0.256224 0.250000
O O9 0.500000 0.866837 0.005167
O O10 0.000000 0.396024 0.250000
#
# Coordination Sequence:
#
# PCOD8255609 Si02
#       5
#     4  16   8   8   8
#     4  12  18  36  58  76  98 138 168 206 266 298
#     4   9  18  32  52  74  97 133 172 202 240 294
#     4   8  20  36  52  76  99 130 166 211 246 308
#     4   9  20  36  51  79 107 126 171 217 245 308
#     4  10  17  35  49  71 107 133 163 205 247 291
#
# _framework density 16.815646000000001
#
# number of rings (size 3 to 8) (size 9 to 14) (size 15 to 20)
#    1.091    1.455    1.818    1.636    0.000    0.000 
#    6.545    0.000    0.000    0.000    0.000    0.000 
#    0.000    0.000    0.000    0.000    0.000    0.000 
#
# Total GULP energy -272584.676650 kJ/mol
# GULP energy per Si atom -12390.212575 kJ/mol
# Density = 1.677737 g / cm^3
# Si number density = 16.815646 Si / 1000 Ang^3
#
#
#
# Elastic Constant Matrix: (Units=GPa)
#
#
# Indices 1 2 3 4 5 6 
#
# 1 117.5348 84.9467 40.5654 0.0000 0.0000 0.0000
# 2 84.9467 154.6777 69.2577 0.0000 0.0000 0.0000
# 3 40.5654 69.2577 100.0273 0.0000 0.0000 0.0000
# 4 0.0000 0.0000 0.0000 6.4809 0.0000 0.0000
# 5 0.0000 0.0000 0.0000 0.0000 13.7114 0.0000
# 6 0.0000 0.0000 0.0000 0.0000 0.0000 22.5572
#
#
#
# Elastic Compliance Matrix: (Units=1/GPa)
#
#
# Indices 1 2 3 4 5 6 
#
# 1 0.014126 -0.007526 -0.000518 0.000000 0.000000 0.000000
# 2 -0.007526 0.013380 -0.006212 0.000000 0.000000 0.000000
# 3 -0.000518 -0.006212 0.014508 0.000000 0.000000 0.000000
# 4 0.000000 0.000000 0.000000 0.154299 0.000000 0.000000
# 5 0.000000 0.000000 0.000000 0.000000 0.072932 0.000000
# 6 0.000000 0.000000 0.000000 0.000000 0.000000 0.044332
#
#
# Mechanical properties :
#
#
# Convention : Reuss Voigt Hill
#
# Bulk Modulus (GPa) = 74.05890 84.64216 79.35053
# Shear Modulus (GPa) = 14.42633 20.38124 17.40378
#
# Velocity S-wave (km/s) = 2.93219 3.48521 3.22059
# Velocity P-wave (km/s) = 7.45660 8.16335 7.81797
#
# Compressibility (1/GPa) = 0.01350277
#
# Stress axis : x y z
#
# Youngs Moduli (GPa) = 70.79053 74.74082 68.92650
#
# Poissons Ratio (x) = 0.56250 0.03569
# Poissons Ratio (y) = 0.53277 0.42815
# Poissons Ratio (z) = 0.03666 0.46427
#
# Static dielectric constant tensor:
#      x y z
#    x 3.141520 0.000000 0.000000 
#    y 0.000000 2.960130 0.000000 
#    z 0.000000 0.000000 3.115240 
# 
# 
# High freq. dielectric constant tensor:
#      x y z
#    x 1.642960 0.000000 0.000000 
#    y 0.000000 1.634850 0.000000 
#    z 0.000000 0.000000 1.642010 
# 
# From -- ./inp_files/1931.got.cif
#   From: 2010.03.12/outbox.cif.g09.slc.cpg/sg63_1_cif.got.tgz:1931.got - 2010.04.10 19:34:48.
