data_PCOD8255118
_publ_section_title
;
Structure prediction by ZEFSAII (Michael W. Deem and Ramdas Pophale) SiO2 
 PCOD8255118
Probable space group: P N M A
;
_chemical_formula_sum "Si O2"
_cell_formula_units_Z 40
_cell_length_a 13.586937
_cell_length_b 21.881149
_cell_length_c 5.437176
_cell_angle_alpha 90.000000
_cell_angle_beta 90.000000
_cell_angle_gamma 90.000000
_cell_volume 1616.460425
_symmetry_space_group_name_H-M "P N M A"
_symmetry_group_IT_number 62
_symmetry_cell_setting 'orthorhombic'
loop_
_space_group_symop_operation_xyz
x,y,z
1/2-x,-y,1/2+z
1/2+x,1/2-y,1/2-z
-x,1/2+y,-z
-x,-y,-z
1/2+x,y,1/2-z
1/2-x,1/2+y,1/2+z
x,1/2-y,z
loop_
_atom_site_type_symbol
_atom_site_label
_atom_site_fract_x
_atom_site_fract_y
_atom_site_fract_z
Si Si1 0.803462 0.856783 0.132522
Si Si2 0.973434 0.862043 0.791708
Si Si3 0.346178 0.955739 0.006191
Si Si4 0.702827 0.750000 0.381041
Si Si5 0.576203 0.750000 0.889040
Si Si6 0.662976 0.578910 0.784172
O O1 0.834491 0.922713 0.232360
O O2 0.771682 0.810557 0.352016
O O3 0.713760 0.865960 0.939467
O O4 0.902844 0.832598 0.998510
O O5 0.003718 0.808124 0.606813
O O6 0.077600 0.890783 0.885400
O O7 0.921096 0.918000 0.658145
O O8 0.382095 0.025746 0.038497
O O9 0.238546 0.956603 0.886606
O O10 0.646770 0.750000 0.642109
O O11 0.633076 0.750000 0.144261
#
# Coordination Sequence:
#
# PCOD8255118 Si02
#       6
#     8   8   8   4   4   8
#     4  11  25  44  70 103 141 194 238 312 363 451
#     4  11  26  43  71 106 140 190 252 305 369 444
#     4  11  24  42  71 100 148 186 246 303 374 450
#     4  12  27  49  78 103 144 198 242 302 373 442
#     4  12  27  49  76 105 146 192 244 306 371 440
#     4  11  22  45  66 103 143 191 241 297 382 437
#
# _framework density 24.745425000000001
#
# number of rings (size 3 to 8) (size 9 to 14) (size 15 to 20)
#    0.000    0.800    4.000    2.400    5.600    3.200 
#    0.000    0.000    0.000    0.000    0.000    0.000 
#    0.000    0.000    0.000    0.000    0.000    0.000 
#
# Total GULP energy -495817.608416 kJ/mol
# GULP energy per Si atom -12395.440210 kJ/mol
# Density = 2.468910 g / cm^3
# Si number density = 24.745425 Si / 1000 Ang^3
#
#
#
# Elastic Constant Matrix: (Units=GPa)
#
#
# Indices 1 2 3 4 5 6 
#
# 1 99.3424 11.5963 6.2224 0.0000 0.0000 0.0000
# 2 11.5963 74.3674 -28.2346 0.0000 0.0000 0.0000
# 3 6.2224 -28.2346 54.6732 0.0000 0.0000 0.0000
# 4 0.0000 0.0000 0.0000 32.3371 0.0000 0.0000
# 5 0.0000 0.0000 0.0000 0.0000 22.4338 0.0000
# 6 0.0000 0.0000 0.0000 0.0000 0.0000 36.6505
#
#
#
# Elastic Compliance Matrix: (Units=1/GPa)
#
#
# Indices 1 2 3 4 5 6 
#
# 1 0.010530 -0.002608 -0.002545 0.000000 0.000000 0.000000
# 2 -0.002608 0.017372 0.009268 0.000000 0.000000 0.000000
# 3 -0.002545 0.009268 0.023367 0.000000 0.000000 0.000000
# 4 0.000000 0.000000 0.000000 0.030924 0.000000 0.000000
# 5 0.000000 0.000000 0.000000 0.000000 0.044576 0.000000
# 6 0.000000 0.000000 0.000000 0.000000 0.000000 0.027285
#
#
# Mechanical properties :
#
#
# Convention : Reuss Voigt Hill
#
# Bulk Modulus (GPa) = 16.80727 23.06123 19.93425
# Shear Modulus (GPa) = 30.18277 34.20420 32.19349
#
# Velocity S-wave (km/s) = 3.49625 3.72189 3.61083
# Velocity P-wave (km/s) = 4.80679 5.27348 5.04553
#
# Compressibility (1/GPa) = 0.05949806
#
# Stress axis : x y z
#
# Youngs Moduli (GPa) = 94.96574 57.56274 42.79609
#
# Poissons Ratio (x) = 0.15015 0.10894
# Poissons Ratio (y) = 0.24771 -0.39665
# Poissons Ratio (z) = 0.24173 -0.53351
#
# Static dielectric constant tensor:
#      x y z
#    x 4.652630 0.000000 0.000000 
#    y 0.000000 4.705730 0.000000 
#    z 0.000000 0.000000 4.148850 
# 
# 
# High freq. dielectric constant tensor:
#      x y z
#    x 1.993710 0.000000 0.000000 
#    y 0.000000 2.003050 0.000000 
#    z 0.000000 0.000000 1.957460 
# 
# From -- ./inp_files/640.got.cif
#   From: 2010.03.12/outbox.cif.g09.slc.cpg/sg62_1_cif.got.tgz:640.got - 2010.04.10 19:12:36.
