data_PCOD8255851
_publ_section_title
;
Structure prediction by ZEFSAII (Michael W. Deem and Ramdas Pophale) SiO2 
 PCOD8255851
Probable space group: C M C M
;
_chemical_formula_sum "Si O2"
_cell_formula_units_Z 96
_cell_length_a 9.004860
_cell_length_b 30.122376
_cell_length_c 21.846129
_cell_angle_alpha 90.000000
_cell_angle_beta 90.000000
_cell_angle_gamma 90.000000
_cell_volume 5925.713965
_symmetry_space_group_name_H-M "C M C M"
_symmetry_group_IT_number 63
_symmetry_cell_setting 'orthorhombic'
loop_
_space_group_symop_operation_xyz
x,y,z
-x,-y,1/2+z
x,-y,-z
-x,y,1/2-z
-x,-y,-z
x,y,1/2-z
-x,y,z
x,-y,1/2+z
1/2+x,1/2+y,z
1/2-x,1/2-y,1/2+z
1/2+x,1/2-y,-z
1/2-x,1/2+y,1/2-z
1/2-x,1/2-y,-z
1/2+x,1/2+y,1/2-z
1/2-x,1/2+y,z
1/2+x,1/2-y,1/2+z
loop_
_atom_site_type_symbol
_atom_site_label
_atom_site_fract_x
_atom_site_fract_y
_atom_site_fract_z
Si Si1 0.323887 0.345930 0.681913
Si Si2 0.327624 0.688729 0.953780
Si Si3 0.824941 0.078344 0.407220
Si Si4 0.324770 0.099587 0.534453
Si Si5 0.172807 0.773511 0.913265
Si Si6 0.335703 0.483270 0.430790
O O1 0.254294 0.343717 0.750000
O O2 0.500000 0.344802 0.685332
O O3 0.273413 0.391842 0.649998
O O4 0.269110 0.303770 0.642641
O O5 0.500000 0.682160 0.939832
O O6 0.266234 0.728343 0.911600
O O7 0.241494 0.644023 0.935610
O O8 0.297194 0.699348 0.024750
O O9 0.736669 0.094493 0.466315
O O10 0.000000 0.084403 0.421747
O O11 0.788675 0.026690 0.391014
O O12 0.500000 0.102832 0.532814
O O13 0.277734 0.057554 0.576779
O O14 0.000000 0.761450 0.907218
O O15 0.337720 0.500000 0.500000
O O16 0.500000 0.466765 0.411661
#
# Coordination Sequence:
#
# PCOD8255851 Si02
#       6
#    16  16  16  16  16  16
#     4   9  16  28  48  70  91 118 152 187 220 261
#     4  10  18  29  45  63  89 121 150 183 228 275
#     4   9  16  29  44  62  89 121 152 180 215 264
#     4  11  19  26  41  65  91 117 148 184 225 270
#     4   9  17  29  44  65  90 116 150 187 222 266
#     4   8  15  26  41  59  86 119 147 176 214 261
#
# _framework density 16.200581
#
# number of rings (size 3 to 8) (size 9 to 14) (size 15 to 20)
#    0.000    2.667    1.667    3.000    0.000    3.667 
#    0.000    0.000    0.000    2.000    0.000    1.167 
#    0.000    4.000    0.000    0.000    0.000    0.000 
#
# Total GULP energy -595005.569386 kJ/mol
# GULP energy per Si atom -12395.949362 kJ/mol
# Density = 1.616371 g / cm^3
# Si number density = 16.200581 Si / 1000 Ang^3
#
#
#
# Elastic Constant Matrix: (Units=GPa)
#
#
# Indices 1 2 3 4 5 6 
#
# 1 79.4599 64.0923 20.5686 0.0000 0.0000 0.0000
# 2 64.0923 159.3092 55.0803 0.0000 0.0000 0.0000
# 3 20.5686 55.0803 70.1919 0.0000 0.0000 0.0000
# 4 0.0000 0.0000 0.0000 18.9515 0.0000 0.0000
# 5 0.0000 0.0000 0.0000 0.0000 9.3024 0.0000
# 6 0.0000 0.0000 0.0000 0.0000 0.0000 28.4802
#
#
#
# Elastic Compliance Matrix: (Units=1/GPa)
#
#
# Indices 1 2 3 4 5 6 
#
# 1 0.018648 -0.007703 0.000580 0.000000 0.000000 0.000000
# 2 -0.007703 0.011796 -0.006999 0.000000 0.000000 0.000000
# 3 0.000580 -0.006999 0.019569 0.000000 0.000000 0.000000
# 4 0.000000 0.000000 0.000000 0.052766 0.000000 0.000000
# 5 0.000000 0.000000 0.000000 0.000000 0.107499 0.000000
# 6 0.000000 0.000000 0.000000 0.000000 0.000000 0.035112
#
#
# Mechanical properties :
#
#
# Convention : Reuss Voigt Hill
#
# Bulk Modulus (GPa) = 45.93714 65.38259 55.65987
# Shear Modulus (GPa) = 17.80049 22.62813 20.21431
#
# Velocity S-wave (km/s) = 3.31835 3.74136 3.53619
# Velocity P-wave (km/s) = 6.56496 7.68827 7.14871
#
# Compressibility (1/GPa) = 0.02176888
#
# Stress axis : x y z
#
# Youngs Moduli (GPa) = 53.62519 84.77425 51.10098
#
# Poissons Ratio (x) = 0.65301 -0.02964
# Poissons Ratio (y) = 0.41307 0.35767
# Poissons Ratio (z) = -0.03110 0.59336
#
# Static dielectric constant tensor:
#      x y z
#    x 2.901730 0.000000 0.000000 
#    y 0.000000 3.458270 0.000000 
#    z 0.000000 0.000000 2.835450 
# 
# 
# High freq. dielectric constant tensor:
#      x y z
#    x 1.607920 0.000000 0.000000 
#    y 0.000000 1.642060 0.000000 
#    z 0.000000 0.000000 1.561130 
# 
# From -- ./inp_files/60189.got.cif
#   From: 2010.03.12/outbox.cif.g09.slc.cpg/sg63_31_cif.got.tgz:60189.got - 2010.04.10 19:34:48.
