data_PCOD8255549
_publ_section_title
;
Structure prediction by ZEFSAII (Michael W. Deem and Ramdas Pophale) SiO2 
 PCOD8255549
Probable space group: C M C M
;
_chemical_formula_sum "Si O2"
_cell_formula_units_Z 80
_cell_length_a 20.117180
_cell_length_b 16.750964
_cell_length_c 13.755408
_cell_angle_alpha 90.000000
_cell_angle_beta 90.000000
_cell_angle_gamma 90.000000
_cell_volume 4635.327071
_symmetry_space_group_name_H-M "C M C M"
_symmetry_group_IT_number 63
_symmetry_cell_setting 'orthorhombic'
loop_
_space_group_symop_operation_xyz
x,y,z
-x,-y,1/2+z
x,-y,-z
-x,y,1/2-z
-x,-y,-z
x,y,1/2-z
-x,y,z
x,-y,1/2+z
1/2+x,1/2+y,z
1/2-x,1/2-y,1/2+z
1/2+x,1/2-y,-z
1/2-x,1/2+y,1/2-z
1/2-x,1/2-y,-z
1/2+x,1/2+y,1/2-z
1/2-x,1/2+y,z
1/2+x,1/2-y,1/2+z
loop_
_atom_site_type_symbol
_atom_site_label
_atom_site_fract_x
_atom_site_fract_y
_atom_site_fract_z
Si Si1 0.373527 0.298754 0.358714
Si Si2 0.572300 0.593282 0.483264
Si Si3 0.253635 0.095178 0.642812
Si Si4 0.698378 0.574360 0.137943
Si Si5 0.202743 0.679710 0.467359
O O1 0.402148 0.282157 0.250000
O O2 0.422045 0.358943 0.415106
O O3 0.300630 0.335911 0.348933
O O4 0.365117 0.215921 0.420935
O O5 0.573435 0.500000 0.500000
O O6 0.500000 0.616406 0.437472
O O7 0.634591 0.613744 0.414928
O O8 0.286465 0.081184 0.750000
O O9 0.308765 0.122499 0.562687
O O10 0.215415 0.016046 0.604901
O O11 0.680285 0.575356 0.250000
O O12 0.762039 0.628557 0.116876
O O13 0.250000 0.750000 0.500000
#
# Coordination Sequence:
#
# PCOD8255549 Si02
#       5
#    16  16  16  16  16
#     4  10  19  32  46  67  91 121 157 196 240 284
#     4  11  21  33  47  64  90 129 170 200 226 265
#     4   9  17  28  46  67  93 121 151 189 235 280
#     4  11  19  31  47  68  96 127 159 196 235 277
#     4  10  17  29  47  66  92 121 155 192 240 289
#
# _framework density 17.258759999999999
#
# number of rings (size 3 to 8) (size 9 to 14) (size 15 to 20)
#    0.000    1.800    6.000    1.200    0.000    1.600 
#    0.000    2.000    0.000    0.000    0.000    0.000 
#    0.000    3.200    0.000    4.800    0.800    0.400 
#
# Total GULP energy -495557.463268 kJ/mol
# GULP energy per Si atom -12388.936582 kJ/mol
# Density = 1.721948 g / cm^3
# Si number density = 17.258760 Si / 1000 Ang^3
#
#
#
# Elastic Constant Matrix: (Units=GPa)
#
#
# Indices 1 2 3 4 5 6 
#
# 1 43.1781 30.3879 30.7312 0.0000 0.0000 0.0000
# 2 30.3879 56.6432 45.3952 0.0000 0.0000 0.0000
# 3 30.7312 45.3952 115.8418 0.0000 0.0000 0.0000
# 4 0.0000 0.0000 0.0000 32.6235 0.0000 0.0000
# 5 0.0000 0.0000 0.0000 0.0000 11.4844 0.0000
# 6 0.0000 0.0000 0.0000 0.0000 0.0000 -36.1866
#
#
#
# Elastic Compliance Matrix: (Units=1/GPa)
#
#
# Indices 1 2 3 4 5 6 
#
# 1 0.037931 -0.017909 -0.003044 0.000000 0.000000 0.000000
# 2 -0.017909 0.034193 -0.008648 0.000000 0.000000 0.000000
# 3 -0.003044 -0.008648 0.012829 0.000000 0.000000 0.000000
# 4 0.000000 0.000000 0.000000 0.030653 0.000000 0.000000
# 5 0.000000 0.000000 0.000000 0.000000 0.087075 0.000000
# 6 0.000000 0.000000 0.000000 0.000000 0.000000 -0.027635
#
#
# Mechanical properties :
#
#
# Convention : Reuss Voigt Hill
#
# Bulk Modulus (GPa) = 38.83597 47.63242 43.23420
# Shear Modulus (GPa) = 20.59023 8.86084 14.72553
#
# Velocity S-wave (km/s) = 3.45777 2.26832 2.92416
# Velocity P-wave (km/s) = 6.20424 5.87531 6.04201
#
# Compressibility (1/GPa) = 0.02574932
#
# Stress axis : x y z
#
# Youngs Moduli (GPa) = 26.36368 29.24550 77.94770
#
# Poissons Ratio (x) = 0.52377 0.23730
# Poissons Ratio (y) = 0.47216 0.67411
# Poissons Ratio (z) = 0.08026 0.25292
#
# Static dielectric constant tensor:
#      x y z
#    x 2.872610 0.000000 0.000000 
#    y 0.000000 3.548340 0.000000 
#    z 0.000000 0.000000 3.809010 
# 
# 
# High freq. dielectric constant tensor:
#      x y z
#    x 1.595850 0.000000 0.000000 
#    y 0.000000 1.661810 0.000000 
#    z 0.000000 0.000000 1.683580 
# 
# From -- ./inp_files/33854.got.cif
#   From: 2010.03.12/outbox.cif.g09.slc.cpg/sg63_17_cif.got.tgz:33854.got - 2010.04.10 19:34:48.
