data_PCOD8255902
_publ_section_title
;
Structure prediction by ZEFSAII (Michael W. Deem and Ramdas Pophale) SiO2 
 PCOD8255902
Probable space group: C M C M
;
_chemical_formula_sum "Si O2"
_cell_formula_units_Z 80
_cell_length_a 23.444908
_cell_length_b 23.941940
_cell_length_c 9.040502
_cell_angle_alpha 90.000000
_cell_angle_beta 90.000000
_cell_angle_gamma 90.000000
_cell_volume 5074.583670
_symmetry_space_group_name_H-M "C M C M"
_symmetry_group_IT_number 63
_symmetry_cell_setting 'orthorhombic'
loop_
_space_group_symop_operation_xyz
x,y,z
-x,-y,1/2+z
x,-y,-z
-x,y,1/2-z
-x,-y,-z
x,y,1/2-z
-x,y,z
x,-y,1/2+z
1/2+x,1/2+y,z
1/2-x,1/2-y,1/2+z
1/2+x,1/2-y,-z
1/2-x,1/2+y,1/2-z
1/2-x,1/2-y,-z
1/2+x,1/2+y,1/2-z
1/2-x,1/2+y,z
1/2+x,1/2-y,1/2+z
loop_
_atom_site_type_symbol
_atom_site_label
_atom_site_fract_x
_atom_site_fract_y
_atom_site_fract_z
Si Si1 0.755817 0.056656 0.076257
Si Si2 0.387948 0.443887 0.922675
Si Si3 0.165973 0.238684 0.921034
Si Si4 0.775429 0.334315 0.077751
Si Si5 0.935255 0.160963 0.580734
O O1 0.744846 0.052570 0.250000
O O2 0.822021 0.066582 0.037680
O O3 0.719871 0.107596 0.009248
O O4 0.733987 0.000000 0.000000
O O5 0.397832 0.450901 0.750000
O O6 0.410401 0.500000 0.000000
O O7 0.425024 0.392469 0.979366
O O8 0.168416 0.256542 0.750000
O O9 0.214352 0.193146 0.956883
O O10 0.105401 0.212144 0.966268
O O11 0.174698 0.293608 0.020039
O O12 0.784380 0.345841 0.250000
O O13 0.921934 0.143952 0.750000
O O14 0.000000 0.181541 0.560469
#
# Coordination Sequence:
#
# PCOD8255902 Si02
#       5
#    16  16  16  16  16
#     4  10  19  30  46  68  94 122 152 188 230 274
#     4  10  20  32  47  64  87 119 157 197 235 272
#     4   9  18  31  46  66  91 118 151 189 230 275
#     4  10  18  29  48  69  91 119 150 187 229 276
#     4  10  20  34  50  66  88 119 156 197 236 272
#
# _framework density 15.764839
#
# number of rings (size 3 to 8) (size 9 to 14) (size 15 to 20)
#    0.000    2.200    2.000    1.800    0.000    4.000 
#    0.000    0.000    0.000    0.000    0.000    0.000 
#    0.000    0.800    0.000    2.200    0.000    3.200 
#
# Total GULP energy -496153.597494 kJ/mol
# GULP energy per Si atom -12403.839937 kJ/mol
# Density = 1.572896 g / cm^3
# Si number density = 15.764839 Si / 1000 Ang^3
#
#
#
# Elastic Constant Matrix: (Units=GPa)
#
#
# Indices 1 2 3 4 5 6 
#
# 1 65.8247 51.1611 31.6764 0.0000 0.0000 0.0000
# 2 51.1611 119.2353 58.7478 0.0000 0.0000 0.0000
# 3 31.6764 58.7478 77.9830 0.0000 0.0000 0.0000
# 4 0.0000 0.0000 0.0000 33.2583 0.0000 0.0000
# 5 0.0000 0.0000 0.0000 0.0000 16.7518 0.0000
# 6 0.0000 0.0000 0.0000 0.0000 0.0000 21.5586
#
#
#
# Elastic Compliance Matrix: (Units=1/GPa)
#
#
# Indices 1 2 3 4 5 6 
#
# 1 0.023245 -0.008463 -0.003067 0.000000 0.000000 0.000000
# 2 -0.008463 0.016418 -0.008931 0.000000 0.000000 0.000000
# 3 -0.003067 -0.008931 0.020797 0.000000 0.000000 0.000000
# 4 0.000000 0.000000 0.000000 0.030068 0.000000 0.000000
# 5 0.000000 0.000000 0.000000 0.000000 0.059695 0.000000
# 6 0.000000 0.000000 0.000000 0.000000 0.000000 0.046385
#
#
# Mechanical properties :
#
#
# Convention : Reuss Voigt Hill
#
# Bulk Modulus (GPa) = 51.17846 60.69039 55.93443
# Shear Modulus (GPa) = 20.48818 22.41095 21.44956
#
# Velocity S-wave (km/s) = 3.60892 3.77447 3.69263
# Velocity P-wave (km/s) = 7.06399 7.58791 7.33063
#
# Compressibility (1/GPa) = 0.01953947
#
# Stress axis : x y z
#
# Youngs Moduli (GPa) = 43.01933 60.90695 48.08381
#
# Poissons Ratio (x) = 0.51546 0.14745
# Poissons Ratio (y) = 0.36408 0.42944
# Poissons Ratio (z) = 0.13192 0.54396
#
# Static dielectric constant tensor:
#      x y z
#    x 2.746780 0.000000 0.000000 
#    y 0.000000 2.966890 0.000000 
#    z 0.000000 0.000000 3.040760 
# 
# 
# High freq. dielectric constant tensor:
#      x y z
#    x 1.561660 0.000000 0.000000 
#    y 0.000000 1.601500 0.000000 
#    z 0.000000 0.000000 1.617640 
# 
# From -- ./inp_files/11985.got.cif
#   From: 2010.03.12/outbox.cif.g09.slc.cpg/sg63_6_cif.got.tgz:11985.got - 2010.04.10 19:34:48.
