data_PCOD8255712
_publ_section_title
;
Structure prediction by ZEFSAII (Michael W. Deem and Ramdas Pophale) SiO2 
 PCOD8255712
Probable space group: C M C M
;
_chemical_formula_sum "Si O2"
_cell_formula_units_Z 96
_cell_length_a 29.155507
_cell_length_b 24.163632
_cell_length_c 9.211434
_cell_angle_alpha 90.000000
_cell_angle_beta 90.000000
_cell_angle_gamma 90.000000
_cell_volume 6489.482352
_symmetry_space_group_name_H-M "C M C M"
_symmetry_group_IT_number 63
_symmetry_cell_setting 'orthorhombic'
loop_
_space_group_symop_operation_xyz
x,y,z
-x,-y,1/2+z
x,-y,-z
-x,y,1/2-z
-x,-y,-z
x,y,1/2-z
-x,y,z
x,-y,1/2+z
1/2+x,1/2+y,z
1/2-x,1/2-y,1/2+z
1/2+x,1/2-y,-z
1/2-x,1/2+y,1/2-z
1/2-x,1/2-y,-z
1/2+x,1/2+y,1/2-z
1/2-x,1/2+y,z
1/2+x,1/2-y,1/2+z
loop_
_atom_site_type_symbol
_atom_site_label
_atom_site_fract_x
_atom_site_fract_y
_atom_site_fract_z
Si Si1 0.318829 0.725500 0.419531
Si Si2 0.630952 0.361392 0.078342
Si Si3 0.720238 0.174240 0.079567
Si Si4 0.785297 0.550208 0.408396
Si Si5 0.821225 0.049790 0.089153
Si Si6 0.552060 0.444425 0.081030
O O1 0.330195 0.730167 0.250000
O O2 0.362786 0.698460 0.502498
O O3 0.312416 0.786397 0.485751
O O4 0.273338 0.689084 0.448382
O O5 0.637596 0.355815 0.250000
O O6 0.583138 0.391538 0.036788
O O7 0.672199 0.396035 0.007347
O O8 0.709376 0.180866 0.250000
O O9 0.709041 0.111797 0.024798
O O10 0.808095 0.500000 0.500000
O O11 0.808665 0.548582 0.250000
O O12 0.731874 0.537563 0.390730
O O13 0.843758 0.055666 0.250000
O O14 0.845219 0.000000 0.000000
O O15 0.557284 0.456996 0.250000
O O16 0.500000 0.428821 0.038692
O O17 0.568037 0.500000 0.000000
#
# Coordination Sequence:
#
# PCOD8255712 Si02
#       6
#    16  16  16  16  16  16
#     4  10  19  30  43  59  79 104 134 170 207 247
#     4  11  20  29  43  61  78 102 133 168 210 254
#     4   9  17  31  43  56  79 106 135 168 205 245
#     4   9  17  28  40  55  76 101 130 164 200 238
#     4  10  18  28  38  54  77 100 127 164 206 244
#     4   9  19  34  48  62  81 106 137 173 216 263
#
# _framework density 14.793168
#
# number of rings (size 3 to 8) (size 9 to 14) (size 15 to 20)
#    0.000    2.333    1.667    2.000    0.000    4.667 
#    0.000    0.000    0.000    0.000    0.000    0.000 
#    0.000    0.000    0.000    0.000    0.000    0.833 
#
# Total GULP energy -594813.472750 kJ/mol
# GULP energy per Si atom -12391.947349 kJ/mol
# Density = 1.475950 g / cm^3
# Si number density = 14.793168 Si / 1000 Ang^3
#
#
#
# Elastic Constant Matrix: (Units=GPa)
#
#
# Indices 1 2 3 4 5 6 
#
# 1 39.1788 30.7337 28.4571 0.0000 0.0000 0.0000
# 2 30.7337 127.7585 59.4248 0.0000 0.0000 0.0000
# 3 28.4571 59.4248 84.5858 0.0000 0.0000 0.0000
# 4 0.0000 0.0000 0.0000 28.9018 0.0000 0.0000
# 5 0.0000 0.0000 0.0000 0.0000 11.6795 0.0000
# 6 0.0000 0.0000 0.0000 0.0000 0.0000 18.7433
#
#
#
# Elastic Compliance Matrix: (Units=1/GPa)
#
#
# Indices 1 2 3 4 5 6 
#
# 1 0.035381 -0.004419 -0.008799 0.000000 0.000000 0.000000
# 2 -0.004419 0.012178 -0.007069 0.000000 0.000000 0.000000
# 3 -0.008799 -0.007069 0.019749 0.000000 0.000000 0.000000
# 4 0.000000 0.000000 0.000000 0.034600 0.000000 0.000000
# 5 0.000000 0.000000 0.000000 0.000000 0.085620 0.000000
# 6 0.000000 0.000000 0.000000 0.000000 0.000000 0.053352
#
#
# Mechanical properties :
#
#
# Convention : Reuss Voigt Hill
#
# Bulk Modulus (GPa) = 37.40436 54.30604 45.85520
# Shear Modulus (GPa) = 17.21964 20.72542 18.97253
#
# Velocity S-wave (km/s) = 3.41548 3.74707 3.58511
# Velocity P-wave (km/s) = 6.39483 7.45055 6.94278
#
# Compressibility (1/GPa) = 0.02673485
#
# Stress axis : x y z
#
# Youngs Moduli (GPa) = 28.26356 82.11289 50.63561
#
# Poissons Ratio (x) = 0.36283 0.44554
# Poissons Ratio (y) = 0.12489 0.35795
# Poissons Ratio (z) = 0.24869 0.58047
#
# Static dielectric constant tensor:
#      x y z
#    x 2.482100 0.000000 0.000000 
#    y 0.000000 3.017580 0.000000 
#    z 0.000000 0.000000 3.180420 
# 
# 
# High freq. dielectric constant tensor:
#      x y z
#    x 1.499410 0.000000 0.000000 
#    y 0.000000 1.562930 0.000000 
#    z 0.000000 0.000000 1.579930 
# 
# From -- ./inp_files/12740.got.cif
#   From: 2010.03.12/outbox.cif.g09.slc.cpg/sg63_7_cif.got.tgz:12740.got - 2010.04.10 19:34:48.
