data_PCOD8255810
_publ_section_title
;
Structure prediction by ZEFSAII (Michael W. Deem and Ramdas Pophale) SiO2 
 PCOD8255810
Probable space group: C M C M
;
_chemical_formula_sum "Si O2"
_cell_formula_units_Z 80
_cell_length_a 20.844453
_cell_length_b 14.191183
_cell_length_c 15.076649
_cell_angle_alpha 90.000000
_cell_angle_beta 90.000000
_cell_angle_gamma 90.000000
_cell_volume 4459.785051
_symmetry_space_group_name_H-M "C M C M"
_symmetry_group_IT_number 63
_symmetry_cell_setting 'orthorhombic'
loop_
_space_group_symop_operation_xyz
x,y,z
-x,-y,1/2+z
x,-y,-z
-x,y,1/2-z
-x,-y,-z
x,y,1/2-z
-x,y,z
x,-y,1/2+z
1/2+x,1/2+y,z
1/2-x,1/2-y,1/2+z
1/2+x,1/2-y,-z
1/2-x,1/2+y,1/2-z
1/2-x,1/2-y,-z
1/2+x,1/2+y,1/2-z
1/2-x,1/2+y,z
1/2+x,1/2-y,1/2+z
loop_
_atom_site_type_symbol
_atom_site_label
_atom_site_fract_x
_atom_site_fract_y
_atom_site_fract_z
Si Si1 0.267854 0.580512 0.646518
Si Si2 0.861727 0.400204 0.033726
Si Si3 0.789262 0.725077 0.086321
Si Si4 0.572977 0.248198 0.646282
Si Si5 0.676724 0.609358 0.349168
O O1 0.251195 0.564074 0.750000
O O2 0.202775 0.585116 0.590524
O O3 0.308801 0.676941 0.634311
O O4 0.310630 0.493671 0.607856
O O5 0.914382 0.349511 0.095041
O O6 0.889111 0.500000 0.000000
O O7 0.849758 0.337190 0.944907
O O8 0.743475 0.666201 0.151501
O O9 0.750000 0.750000 0.000000
O O10 0.588075 0.231007 0.750000
O O11 0.500000 0.280262 0.631283
O O12 0.619938 0.329276 0.605012
O O13 0.653115 0.591959 0.250000
#
# Coordination Sequence:
#
# PCOD8255810 Si02
#       5
#    16  16  16  16  16
#     4  10  19  30  48  76 108 135 164 207 260 319
#     4  11  20  32  50  79 104 134 167 215 266 306
#     4  10  18  28  47  74 104 133 156 211 262 307
#     4  10  21  37  54  72 101 141 181 214 246 302
#     4  10  18  30  50  75 101 131 169 209 254 306
#
# _framework density 17.938084
#
# number of rings (size 3 to 8) (size 9 to 14) (size 15 to 20)
#    0.000    1.800    6.000    1.200    0.000    0.400 
#    0.000    0.000    0.000    2.400    0.000    0.000 
#    0.000    0.000    0.000    0.000    0.000    0.000 
#
# Total GULP energy -495678.575473 kJ/mol
# GULP energy per Si atom -12391.964387 kJ/mol
# Density = 1.789726 g / cm^3
# Si number density = 17.938084 Si / 1000 Ang^3
#
#
#
# Elastic Constant Matrix: (Units=GPa)
#
#
# Indices 1 2 3 4 5 6 
#
# 1 66.0216 43.6700 19.9329 0.0000 0.0000 0.0000
# 2 43.6700 164.4705 26.0136 0.0000 0.0000 0.0000
# 3 19.9329 26.0136 42.3210 0.0000 0.0000 0.0000
# 4 0.0000 0.0000 0.0000 30.1721 0.0000 0.0000
# 5 0.0000 0.0000 0.0000 0.0000 17.2008 0.0000
# 6 0.0000 0.0000 0.0000 0.0000 0.0000 18.3722
#
#
#
# Elastic Compliance Matrix: (Units=1/GPa)
#
#
# Indices 1 2 3 4 5 6 
#
# 1 0.020006 -0.004233 -0.006821 0.000000 0.000000 0.000000
# 2 -0.004233 0.007631 -0.002697 0.000000 0.000000 0.000000
# 3 -0.006821 -0.002697 0.028499 0.000000 0.000000 0.000000
# 4 0.000000 0.000000 0.000000 0.033143 0.000000 0.000000
# 5 0.000000 0.000000 0.000000 0.000000 0.058137 0.000000
# 6 0.000000 0.000000 0.000000 0.000000 0.000000 0.054430
#
#
# Mechanical properties :
#
#
# Convention : Reuss Voigt Hill
#
# Bulk Modulus (GPa) = 34.92263 50.22733 42.57498
# Shear Modulus (GPa) = 20.93006 25.36213 23.14610
#
# Velocity S-wave (km/s) = 3.41954 3.76423 3.59602
# Velocity P-wave (km/s) = 5.92467 6.85228 6.40529
#
# Compressibility (1/GPa) = 0.02863472
#
# Stress axis : x y z
#
# Youngs Moduli (GPa) = 49.98555 131.05144 35.08909
#
# Poissons Ratio (x) = 0.55476 0.23933
# Poissons Ratio (y) = 0.21159 0.09462
# Poissons Ratio (z) = 0.34093 0.35339
#
# Static dielectric constant tensor:
#      x y z
#    x 3.008150 0.000000 0.000000 
#    y 0.000000 4.130190 0.000000 
#    z 0.000000 0.000000 3.531710 
# 
# 
# High freq. dielectric constant tensor:
#      x y z
#    x 1.634340 0.000000 0.000000 
#    y 0.000000 1.714570 0.000000 
#    z 0.000000 0.000000 1.688370 
# 
# From -- ./inp_files/35087.got.cif
#   From: 2010.03.12/outbox.cif.g09.slc.cpg/sg63_18_cif.got.tgz:35087.got - 2010.04.10 19:34:48.
