data_PCOD8255127
_publ_section_title
;
Structure prediction by ZEFSAII (Michael W. Deem and Ramdas Pophale) SiO2 
 PCOD8255127
Probable space group: P N M A
;
_chemical_formula_sum "Si O2"
_cell_formula_units_Z 48
_cell_length_a 22.964567
_cell_length_b 8.944950
_cell_length_c 11.710144
_cell_angle_alpha 90.000000
_cell_angle_beta 90.000000
_cell_angle_gamma 90.000000
_cell_volume 2405.461521
_symmetry_space_group_name_H-M "P N M A"
_symmetry_group_IT_number 62
_symmetry_cell_setting 'orthorhombic'
loop_
_space_group_symop_operation_xyz
x,y,z
1/2-x,-y,1/2+z
1/2+x,1/2-y,1/2-z
-x,1/2+y,-z
-x,-y,-z
1/2+x,y,1/2-z
1/2-x,1/2+y,1/2+z
x,1/2-y,z
loop_
_atom_site_type_symbol
_atom_site_label
_atom_site_fract_x
_atom_site_fract_y
_atom_site_fract_z
Si Si1 0.146731 0.926374 0.313746
Si Si2 0.953729 0.588348 0.070242
Si Si3 0.618436 0.071794 0.772396
Si Si4 0.157227 0.414286 0.084857
Si Si5 0.063593 0.428232 0.491909
Si Si6 0.725509 0.072532 0.627594
O O1 0.139345 0.750000 0.332688
O O2 0.209640 0.988690 0.352895
O O3 0.142278 0.964449 0.180417
O O4 0.095592 0.012218 0.379384
O O5 0.981524 0.750000 0.097315
O O6 0.933607 0.511184 0.189470
O O7 0.897535 0.608923 0.994366
O O8 0.000000 0.500000 0.000000
O O9 0.618667 0.250000 0.763215
O O10 0.603540 0.019659 0.900556
O O11 0.680984 0.010037 0.726038
O O12 0.173788 0.250000 0.136600
O O13 0.207850 0.477120 0.000846
O O14 0.057207 0.250000 0.486499
O O15 0.000000 0.500000 0.500000
O O16 0.725043 0.250000 0.636077
#
# Coordination Sequence:
#
# PCOD8255127 Si02
#       6
#     8   8   8   8   8   8
#     4  11  23  37  59  88 118 153 193 240 293 353
#     4   9  18  33  56  82 107 140 183 230 283 335
#     4   8  17  36  59  81 109 150 189 231 287 347
#     4   9  19  37  57  81 113 148 188 235 288 343
#     4  11  24  41  61  85 119 159 202 244 294 354
#     4   8  17  36  60  85 114 147 188 239 295 347
#
# _framework density 19.95459
#
# number of rings (size 3 to 8) (size 9 to 14) (size 15 to 20)
#    0.000    2.667    0.000    3.000    4.667    0.667 
#    0.000    1.667    0.000    4.000    0.000    0.000 
#    0.000    0.000    0.000    0.000    0.000    0.000 
#
# Total GULP energy -594822.983360 kJ/mol
# GULP energy per Si atom -12392.145487 kJ/mol
# Density = 1.990917 g / cm^3
# Si number density = 19.954590 Si / 1000 Ang^3
#
#
#
# Elastic Constant Matrix: (Units=GPa)
#
#
# Indices 1 2 3 4 5 6 
#
# 1 72.7066 24.1199 26.3680 0.0000 0.0000 0.0000
# 2 24.1199 56.1768 25.2005 0.0000 0.0000 0.0000
# 3 26.3680 25.2005 105.0236 0.0000 0.0000 0.0000
# 4 0.0000 0.0000 0.0000 22.0452 0.0000 0.0000
# 5 0.0000 0.0000 0.0000 0.0000 12.8152 0.0000
# 6 0.0000 0.0000 0.0000 0.0000 0.0000 24.1776
#
#
#
# Elastic Compliance Matrix: (Units=1/GPa)
#
#
# Indices 1 2 3 4 5 6 
#
# 1 0.016730 -0.005938 -0.002776 0.000000 0.000000 0.000000
# 2 -0.005938 0.022056 -0.003801 0.000000 0.000000 0.000000
# 3 -0.002776 -0.003801 0.011131 0.000000 0.000000 0.000000
# 4 0.000000 0.000000 0.000000 0.045361 0.000000 0.000000
# 5 0.000000 0.000000 0.000000 0.000000 0.078033 0.000000
# 6 0.000000 0.000000 0.000000 0.000000 0.000000 0.041361
#
#
# Mechanical properties :
#
#
# Convention : Reuss Voigt Hill
#
# Bulk Modulus (GPa) = 40.18242 42.80933 41.49587
# Shear Modulus (GPa) = 20.16149 22.35549 21.25849
#
# Velocity S-wave (km/s) = 3.18208 3.35075 3.26750
# Velocity P-wave (km/s) = 5.80357 6.03904 5.92247
#
# Compressibility (1/GPa) = 0.02488651
#
# Stress axis : x y z
#
# Youngs Moduli (GPa) = 59.77108 45.33943 89.84172
#
# Poissons Ratio (x) = 0.26924 0.24936
# Poissons Ratio (y) = 0.35494 0.34153
# Poissons Ratio (z) = 0.16590 0.17235
#
# Static dielectric constant tensor:
#      x y z
#    x 3.555890 0.000000 0.000000 
#    y 0.000000 3.360710 0.000000 
#    z 0.000000 0.000000 3.624280 
# 
# 
# High freq. dielectric constant tensor:
#      x y z
#    x 1.783490 0.000000 0.000000 
#    y 0.000000 1.742630 0.000000 
#    z 0.000000 0.000000 1.785830 
# 
# From -- ./inp_files/15096.got.cif
#   From: 2010.03.12/outbox.cif.g09.slc.cpg/sg62_8_cif.got.tgz:15096.got - 2010.04.10 19:12:36.
