data_PCOD8255478
_publ_section_title
;
Structure prediction by ZEFSAII (Michael W. Deem and Ramdas Pophale) SiO2 
 PCOD8255478
Probable space group: C M C M
;
_chemical_formula_sum "Si O2"
_cell_formula_units_Z 96
_cell_length_a 8.909900
_cell_length_b 23.904032
_cell_length_c 25.887979
_cell_angle_alpha 90.000000
_cell_angle_beta 90.000000
_cell_angle_gamma 90.000000
_cell_volume 5513.687386
_symmetry_space_group_name_H-M "C M C M"
_symmetry_group_IT_number 63
_symmetry_cell_setting 'orthorhombic'
loop_
_space_group_symop_operation_xyz
x,y,z
-x,-y,1/2+z
x,-y,-z
-x,y,1/2-z
-x,-y,-z
x,y,1/2-z
-x,y,z
x,-y,1/2+z
1/2+x,1/2+y,z
1/2-x,1/2-y,1/2+z
1/2+x,1/2-y,-z
1/2-x,1/2+y,1/2-z
1/2-x,1/2-y,-z
1/2+x,1/2+y,1/2-z
1/2-x,1/2+y,z
1/2+x,1/2-y,1/2+z
loop_
_atom_site_type_symbol
_atom_site_label
_atom_site_fract_x
_atom_site_fract_y
_atom_site_fract_z
Si Si1 0.668904 0.320981 0.963792
Si Si2 0.321478 0.481873 0.444042
Si Si3 0.830074 0.914282 0.882275
Si Si4 0.320925 0.759417 0.377231
Si Si5 0.674045 0.170188 0.309844
Si Si6 0.179273 0.143286 0.572569
O O1 0.500000 0.301582 0.973277
O O2 0.673976 0.380419 0.935631
O O3 0.744408 0.273950 0.927493
O O4 0.744372 0.328571 0.019781
O O5 0.254335 0.500000 0.500000
O O6 0.500000 0.482606 0.448412
O O7 0.270154 0.524265 0.398362
O O8 0.264333 0.420698 0.426606
O O9 0.726782 0.885953 0.839044
O O10 0.000000 0.916198 0.860495
O O11 0.500000 0.760608 0.374814
O O12 0.262766 0.725913 0.327334
O O13 0.253415 0.822179 0.379994
O O14 0.707164 0.160633 0.250000
O O15 0.500000 0.179870 0.321428
O O16 0.000000 0.145992 0.576179
#
# Coordination Sequence:
#
# PCOD8255478 Si02
#       6
#    16  16  16  16  16  16
#     4   8  14  25  43  67  96 131 165 198 233 278
#     4   9  15  26  48  74 103 139 175 204 233 279
#     4   9  16  29  50  77 103 129 166 206 243 286
#     4  10  20  32  47  71 100 128 163 205 250 297
#     4  10  21  37  56  75  94 120 158 208 263 310
#     4  10  17  27  46  70 101 140 173 198 234 281
#
# _framework density 17.411216
#
# number of rings (size 3 to 8) (size 9 to 14) (size 15 to 20)
#    0.000    2.667    1.667    2.500    0.000    1.333 
#    0.000    4.167    0.000    2.000    0.000    2.333 
#    0.000    0.000    0.000    0.000    0.000    0.000 
#
# Total GULP energy -594847.457679 kJ/mol
# GULP energy per Si atom -12392.655368 kJ/mol
# Density = 1.737159 g / cm^3
# Si number density = 17.411216 Si / 1000 Ang^3
#
#
#
# Elastic Constant Matrix: (Units=GPa)
#
#
# Indices 1 2 3 4 5 6 
#
# 1 52.6168 35.7292 34.4123 0.0000 0.0000 0.0000
# 2 35.7292 121.3460 48.0412 0.0000 0.0000 0.0000
# 3 34.4123 48.0412 78.3717 0.0000 0.0000 0.0000
# 4 0.0000 0.0000 0.0000 14.6487 0.0000 0.0000
# 5 0.0000 0.0000 0.0000 0.0000 18.9414 0.0000
# 6 0.0000 0.0000 0.0000 0.0000 0.0000 23.2420
#
#
#
# Elastic Compliance Matrix: (Units=1/GPa)
#
#
# Indices 1 2 3 4 5 6 
#
# 1 0.028428 -0.004527 -0.009707 0.000000 0.000000 0.000000
# 2 -0.004527 0.011603 -0.005124 0.000000 0.000000 0.000000
# 3 -0.009707 -0.005124 0.020163 0.000000 0.000000 0.000000
# 4 0.000000 0.000000 0.000000 0.068265 0.000000 0.000000
# 5 0.000000 0.000000 0.000000 0.000000 0.052794 0.000000
# 6 0.000000 0.000000 0.000000 0.000000 0.000000 0.043026
#
#
# Mechanical properties :
#
#
# Convention : Reuss Voigt Hill
#
# Bulk Modulus (GPa) = 46.56335 54.29997 50.43166
# Shear Modulus (GPa) = 18.50777 20.30989 19.40883
#
# Velocity S-wave (km/s) = 3.26387 3.41909 3.34238
# Velocity P-wave (km/s) = 6.40353 6.84407 6.62746
#
# Compressibility (1/GPa) = 0.02147612
#
# Stress axis : x y z
#
# Youngs Moduli (GPa) = 35.17605 86.18681 49.59467
#
# Poissons Ratio (x) = 0.39019 0.48144
# Poissons Ratio (y) = 0.15925 0.25415
# Poissons Ratio (z) = 0.34147 0.44166
#
# Static dielectric constant tensor:
#      x y z
#    x 2.900570 0.000000 0.000000 
#    y 0.000000 3.461430 0.000000 
#    z 0.000000 0.000000 3.028810 
# 
# 
# High freq. dielectric constant tensor:
#      x y z
#    x 1.641950 0.000000 0.000000 
#    y 0.000000 1.678380 0.000000 
#    z 0.000000 0.000000 1.641870 
# 
# From -- ./inp_files/67196.got.cif
#   From: 2010.03.12/outbox.cif.g09.slc.cpg/sg63_34_cif.got.tgz:67196.got - 2010.04.10 19:34:48.
