data_PCOD8255245
_publ_section_title
;
Structure prediction by ZEFSAII (Michael W. Deem and Ramdas Pophale) SiO2 
 PCOD8255245
Probable space group: P N M A
;
_chemical_formula_sum "Si O2"
_cell_formula_units_Z 48
_cell_length_a 28.884574
_cell_length_b 8.793049
_cell_length_c 10.230890
_cell_angle_alpha 90.000000
_cell_angle_beta 90.000000
_cell_angle_gamma 90.000000
_cell_volume 2598.476990
_symmetry_space_group_name_H-M "P N M A"
_symmetry_group_IT_number 62
_symmetry_cell_setting 'orthorhombic'
loop_
_space_group_symop_operation_xyz
x,y,z
1/2-x,-y,1/2+z
1/2+x,1/2-y,1/2-z
-x,1/2+y,-z
-x,-y,-z
1/2+x,y,1/2-z
1/2-x,1/2+y,1/2+z
x,1/2-y,z
loop_
_atom_site_type_symbol
_atom_site_label
_atom_site_fract_x
_atom_site_fract_y
_atom_site_fract_z
Si Si1 0.891692 0.577390 0.215794
Si Si2 0.527951 0.929275 0.118846
Si Si3 0.218514 0.430149 0.507730
Si Si4 0.615641 0.075580 0.020618
Si Si5 0.786022 0.928315 0.199936
Si Si6 0.981113 0.428942 0.131089
O O1 0.902401 0.750000 0.172611
O O2 0.899030 0.561366 0.370183
O O3 0.839692 0.532594 0.175662
O O4 0.926498 0.464483 0.142550
O O5 0.521156 0.750000 0.117078
O O6 0.582122 0.971335 0.107388
O O7 0.509209 0.994882 0.252736
O O8 0.500000 0.000000 0.000000
O O9 0.217121 0.250000 0.511815
O O10 0.167934 0.486696 0.460531
O O11 0.257367 0.486486 0.410147
O O12 0.228750 0.487494 0.655680
O O13 0.611290 0.250000 0.067227
O O14 0.776829 0.750000 0.186913
O O15 0.989069 0.250000 0.132501
O O16 0.000000 0.500000 0.000000
#
# Coordination Sequence:
#
# PCOD8255245 Si02
#       6
#     8   8   8   8   8   8
#     4   9  18  36  60  82 111 151 194 236 283 338
#     4  12  23  37  60  89 117 149 191 237 283 336
#     4   9  19  36  57  83 114 149 188 234 283 336
#     4   9  18  35  59  84 112 148 193 240 284 332
#     4   9  19  36  58  84 113 149 188 233 284 336
#     4  12  25  41  60  85 117 153 192 237 289 345
#
# _framework density 18.472359000000001
#
# number of rings (size 3 to 8) (size 9 to 14) (size 15 to 20)
#    0.000    2.000    1.667    5.000    0.000    2.000 
#    3.000    3.333    0.000    0.000    0.000    0.000 
#    0.000    0.000    0.000    0.000    0.000    0.000 
#
# Total GULP energy -595231.598715 kJ/mol
# GULP energy per Si atom -12400.658307 kJ/mol
# Density = 1.843032 g / cm^3
# Si number density = 18.472359 Si / 1000 Ang^3
#
#
#
# Elastic Constant Matrix: (Units=GPa)
#
#
# Indices 1 2 3 4 5 6 
#
# 1 98.8335 32.0814 54.3788 0.0000 0.0000 0.0000
# 2 32.0814 93.4376 40.4237 0.0000 0.0000 0.0000
# 3 54.3788 40.4237 106.9120 0.0000 0.0000 0.0000
# 4 0.0000 0.0000 0.0000 31.4672 0.0000 0.0000
# 5 0.0000 0.0000 0.0000 0.0000 33.7500 0.0000
# 6 0.0000 0.0000 0.0000 0.0000 0.0000 36.6950
#
#
#
# Elastic Compliance Matrix: (Units=1/GPa)
#
#
# Indices 1 2 3 4 5 6 
#
# 1 0.014393 -0.002122 -0.006519 0.000000 0.000000 0.000000
# 2 -0.002122 0.013108 -0.003877 0.000000 0.000000 0.000000
# 3 -0.006519 -0.003877 0.014135 0.000000 0.000000 0.000000
# 4 0.000000 0.000000 0.000000 0.031779 0.000000 0.000000
# 5 0.000000 0.000000 0.000000 0.000000 0.029630 0.000000
# 6 0.000000 0.000000 0.000000 0.000000 0.000000 0.027252
#
#
# Mechanical properties :
#
#
# Convention : Reuss Voigt Hill
#
# Bulk Modulus (GPa) = 60.23517 61.43899 60.83708
# Shear Modulus (GPa) = 31.08184 31.86907 31.47545
#
# Velocity S-wave (km/s) = 4.10642 4.15809 4.13234
# Velocity P-wave (km/s) = 7.42715 7.50901 7.46819
#
# Compressibility (1/GPa) = 0.01660160
#
# Stress axis : x y z
#
# Youngs Moduli (GPa) = 69.47644 76.28851 70.74634
#
# Poissons Ratio (x) = 0.16186 0.46117
# Poissons Ratio (y) = 0.14741 0.27429
# Poissons Ratio (z) = 0.45290 0.29577
#
# Static dielectric constant tensor:
#      x y z
#    x 3.630610 0.000000 0.000000 
#    y 0.000000 3.639740 0.000000 
#    z 0.000000 0.000000 3.231170 
# 
# 
# High freq. dielectric constant tensor:
#      x y z
#    x 1.728550 0.000000 0.000000 
#    y 0.000000 1.711830 0.000000 
#    z 0.000000 0.000000 1.705410 
# 
# From -- ./inp_files/10167.got.cif
#   From: 2010.03.12/outbox.cif.g09.slc.cpg/sg62_6_cif.got.tgz:10167.got - 2010.04.10 19:12:36.
