data_PCOD8255829
_publ_section_title
;
Structure prediction by ZEFSAII (Michael W. Deem and Ramdas Pophale) SiO2 
 PCOD8255829
Probable space group: C M C M
;
_chemical_formula_sum "Si O2"
_cell_formula_units_Z 72
_cell_length_a 13.059713
_cell_length_b 23.414562
_cell_length_c 14.396371
_cell_angle_alpha 90.000000
_cell_angle_beta 90.000000
_cell_angle_gamma 90.000000
_cell_volume 4402.229718
_symmetry_space_group_name_H-M "C M C M"
_symmetry_group_IT_number 63
_symmetry_cell_setting 'orthorhombic'
loop_
_space_group_symop_operation_xyz
x,y,z
-x,-y,1/2+z
x,-y,-z
-x,y,1/2-z
-x,-y,-z
x,y,1/2-z
-x,y,z
x,-y,1/2+z
1/2+x,1/2+y,z
1/2-x,1/2-y,1/2+z
1/2+x,1/2-y,-z
1/2-x,1/2+y,1/2-z
1/2-x,1/2-y,-z
1/2+x,1/2+y,1/2-z
1/2-x,1/2+y,z
1/2+x,1/2-y,1/2+z
loop_
_atom_site_type_symbol
_atom_site_label
_atom_site_fract_x
_atom_site_fract_y
_atom_site_fract_z
Si Si1 0.885791 0.767073 0.065516
Si Si2 0.381008 0.942550 0.547296
Si Si3 0.380695 0.200958 0.750000
Si Si4 0.802604 0.284481 0.750000
Si Si5 0.811841 0.332401 0.443064
Si Si6 0.118267 0.593789 0.250000
O O1 0.864968 0.735654 0.161469
O O2 0.809312 0.819883 0.052083
O O3 0.000000 0.792206 0.063533
O O4 0.874452 0.720771 0.984292
O O5 0.500000 0.935684 0.524585
O O6 0.324626 0.889480 0.501087
O O7 0.360685 0.944202 0.658208
O O8 0.337606 0.000000 0.500000
O O9 0.500000 0.217983 0.750000
O O10 0.313262 0.259490 0.750000
O O11 0.352082 0.161286 0.662098
O O12 0.802894 0.353188 0.750000
O O13 0.000000 0.615616 0.250000
#
# Coordination Sequence:
#
# PCOD8255829 Si02
#       6
#    16  16   8   8  16   8
#     4  10  18  30  49  72  97 124 158 201 246 290
#     4  10  20  33  50  71  96 130 167 203 245 290
#     4  10  20  31  44  69 106 136 156 191 246 300
#     4  10  18  28  50  75  95 127 164 199 241 288
#     4  10  20  31  46  70  99 130 160 196 243 291
#     4  10  18  31  50  70  95 123 160 208 241 280
#
# _framework density 16.355347999999999
#
# number of rings (size 3 to 8) (size 9 to 14) (size 15 to 20)
#    0.000    2.000    2.222    3.000    0.000    0.889 
#    0.000    2.222    0.000    0.667    0.000    0.000 
#    0.000    0.000    0.000    0.000    0.000    0.000 
#
# Total GULP energy -446403.645608 kJ/mol
# GULP energy per Si atom -12400.101267 kJ/mol
# Density = 1.631812 g / cm^3
# Si number density = 16.355348 Si / 1000 Ang^3
#
#
#
# Elastic Constant Matrix: (Units=GPa)
#
#
# Indices 1 2 3 4 5 6 
#
# 1 111.1604 35.5990 33.6221 0.0000 0.0000 0.0000
# 2 35.5990 77.6020 44.6028 0.0000 0.0000 0.0000
# 3 33.6221 44.6028 133.0397 0.0000 0.0000 0.0000
# 4 0.0000 0.0000 0.0000 50.8819 0.0000 0.0000
# 5 0.0000 0.0000 0.0000 0.0000 17.2394 0.0000
# 6 0.0000 0.0000 0.0000 0.0000 0.0000 17.4912
#
#
#
# Elastic Compliance Matrix: (Units=1/GPa)
#
#
# Indices 1 2 3 4 5 6 
#
# 1 0.010728 -0.004166 -0.001315 0.000000 0.000000 0.000000
# 2 -0.004166 0.017580 -0.004841 0.000000 0.000000 0.000000
# 3 -0.001315 -0.004841 0.009472 0.000000 0.000000 0.000000
# 4 0.000000 0.000000 0.000000 0.019653 0.000000 0.000000
# 5 0.000000 0.000000 0.000000 0.000000 0.058007 0.000000
# 6 0.000000 0.000000 0.000000 0.000000 0.000000 0.057172
#
#
# Mechanical properties :
#
#
# Convention : Reuss Voigt Hill
#
# Bulk Modulus (GPa) = 58.35430 61.05000 59.70215
# Shear Modulus (GPa) = 25.12999 30.98770 28.05885
#
# Velocity S-wave (km/s) = 3.92407 4.35748 4.14644
# Velocity P-wave (km/s) = 7.50251 7.91992 7.71404
#
# Compressibility (1/GPa) = 0.01713670
#
# Stress axis : x y z
#
# Youngs Moduli (GPa) = 93.21705 56.88403 105.57699
#
# Poissons Ratio (x) = 0.23696 0.13879
# Poissons Ratio (y) = 0.38831 0.51110
# Poissons Ratio (z) = 0.12254 0.27538
#
# Static dielectric constant tensor:
#      x y z
#    x 3.031730 0.000000 0.000000 
#    y 0.000000 2.849420 0.000000 
#    z 0.000000 0.000000 3.388320 
# 
# 
# High freq. dielectric constant tensor:
#      x y z
#    x 1.612350 0.000000 0.000000 
#    y 0.000000 1.594520 0.000000 
#    z 0.000000 0.000000 1.657620 
# 
# From -- ./inp_files/29639.got.cif
#   From: 2010.03.12/outbox.cif.g09.slc.cpg/sg63_15_cif.got.tgz:29639.got - 2010.04.10 19:34:48.
