data_PCOD8255180
_publ_section_title
;
Structure prediction by ZEFSAII (Michael W. Deem and Ramdas Pophale) SiO2 
 PCOD8255180
Probable space group: P N M A
;
_chemical_formula_sum "Si O2"
_cell_formula_units_Z 56
_cell_length_a 8.960746
_cell_length_b 24.897994
_cell_length_c 11.085587
_cell_angle_alpha 90.000000
_cell_angle_beta 90.000000
_cell_angle_gamma 90.000000
_cell_volume 2473.245455
_symmetry_space_group_name_H-M "P N M A"
_symmetry_group_IT_number 62
_symmetry_cell_setting 'orthorhombic'
loop_
_space_group_symop_operation_xyz
x,y,z
1/2-x,-y,1/2+z
1/2+x,1/2-y,1/2-z
-x,1/2+y,-z
-x,-y,-z
1/2+x,y,1/2-z
1/2-x,1/2+y,1/2+z
x,1/2-y,z
loop_
_atom_site_type_symbol
_atom_site_label
_atom_site_fract_x
_atom_site_fract_y
_atom_site_fract_z
Si Si1 0.989044 0.952974 0.280139
Si Si2 0.568333 0.636208 0.033378
Si Si3 0.378438 0.250000 0.856774
Si Si4 0.376203 0.579426 0.474514
Si Si5 0.143509 0.364352 0.308901
Si Si6 0.528090 0.250000 0.599320
Si Si7 0.730721 0.023781 0.311757
Si Si8 0.451176 0.337819 0.406618
O O1 0.990997 0.903664 0.371465
O O2 0.906253 0.932804 0.162072
O O3 0.902763 0.006405 0.326231
O O4 0.155419 0.973430 0.256024
O O5 0.553621 0.697530 0.077807
O O6 0.741388 0.622430 0.013602
O O7 0.482605 0.626564 0.908796
O O8 0.425196 0.250000 0.717392
O O9 0.199894 0.250000 0.861465
O O10 0.333289 0.526687 0.551747
O O11 0.524108 0.602660 0.539584
O O12 0.209748 0.420414 0.258847
O O13 0.281281 0.330421 0.362927
O O14 0.066822 0.328892 0.203817
O O15 0.487601 0.300573 0.518787
#
# Coordination Sequence:
#
# PCOD8255180 Si02
#       8
#     8   8   4   8   8   4   8   8
#     4  12  25  40  69 105 143 199 250 310 377 458
#     4  12  27  46  75 104 152 195 256 311 384 443
#     4  12  30  51  77 110 146 199 252 324 372 451
#     4  11  23  45  65 101 145 194 249 312 368 457
#     4  11  26  47  74 108 151 193 246 311 378 464
#     4  12  28  49  83 106 150 193 256 312 384 441
#     4  11  24  42  68 101 147 192 245 309 382 446
#     4  11  25  47  75 106 146 192 246 312 378 441
#
# _framework density 22.642313999999999
#
# number of rings (size 3 to 8) (size 9 to 14) (size 15 to 20)
#    0.000    0.571    2.857    5.571    6.000    2.286 
#    0.000    0.000    0.000    0.000    0.000    0.000 
#    0.000    0.000    0.000    0.000    0.000    0.000 
#
# Total GULP energy -694415.674054 kJ/mol
# GULP energy per Si atom -12400.279894 kJ/mol
# Density = 2.259078 g / cm^3
# Si number density = 22.642314 Si / 1000 Ang^3
#
#
#
# Elastic Constant Matrix: (Units=GPa)
#
#
# Indices 1 2 3 4 5 6 
#
# 1 91.9351 15.1295 22.6808 0.0000 0.0000 0.0000
# 2 15.1295 85.8099 28.7071 0.0000 0.0000 0.0000
# 3 22.6808 28.7071 114.7863 0.0000 0.0000 0.0000
# 4 0.0000 0.0000 0.0000 78.6368 0.0000 0.0000
# 5 0.0000 0.0000 0.0000 0.0000 33.4307 0.0000
# 6 0.0000 0.0000 0.0000 0.0000 0.0000 22.2092
#
#
#
# Elastic Compliance Matrix: (Units=1/GPa)
#
#
# Indices 1 2 3 4 5 6 
#
# 1 0.011585 -0.001393 -0.001941 0.000000 0.000000 0.000000
# 2 -0.001393 0.012885 -0.002947 0.000000 0.000000 0.000000
# 3 -0.001941 -0.002947 0.009832 0.000000 0.000000 0.000000
# 4 0.000000 0.000000 0.000000 0.012717 0.000000 0.000000
# 5 0.000000 0.000000 0.000000 0.000000 0.029913 0.000000
# 6 0.000000 0.000000 0.000000 0.000000 0.000000 0.045026
#
#
# Mechanical properties :
#
#
# Convention : Reuss Voigt Hill
#
# Bulk Modulus (GPa) = 45.99721 47.28511 46.64116
# Shear Modulus (GPa) = 35.26887 41.92294 38.59591
#
# Velocity S-wave (km/s) = 3.95099 4.30761 4.13315
# Velocity P-wave (km/s) = 6.41659 6.75792 6.58947
#
# Compressibility (1/GPa) = 0.02174045
#
# Stress axis : x y z
#
# Youngs Moduli (GPa) = 86.31610 77.60774 101.70483
#
# Poissons Ratio (x) = 0.10814 0.19738
# Poissons Ratio (y) = 0.12027 0.29974
# Poissons Ratio (z) = 0.16751 0.22872
#
# Static dielectric constant tensor:
#      x y z
#    x 4.227260 0.000000 0.000000 
#    y 0.000000 3.997900 0.000000 
#    z 0.000000 0.000000 4.242660 
# 
# 
# High freq. dielectric constant tensor:
#      x y z
#    x 1.905590 0.000000 0.000000 
#    y 0.000000 1.881790 0.000000 
#    z 0.000000 0.000000 1.910960 
# 
# From -- ./inp_files/11467.got.cif
#   From: 2010.03.12/outbox.cif.g09.slc.cpg/sg62_6_cif.got.tgz:11467.got - 2010.04.10 19:12:36.
