data_PCOD8255937
_publ_section_title
;
Structure prediction by ZEFSAII (Michael W. Deem and Ramdas Pophale) SiO2 
 PCOD8255937
Probable space group: C M C M
;
_chemical_formula_sum "Si O2"
_cell_formula_units_Z 80
_cell_length_a 9.027286
_cell_length_b 20.592450
_cell_length_c 24.516795
_cell_angle_alpha 90.000000
_cell_angle_beta 90.000000
_cell_angle_gamma 90.000000
_cell_volume 4557.523511
_symmetry_space_group_name_H-M "C M C M"
_symmetry_group_IT_number 63
_symmetry_cell_setting 'orthorhombic'
loop_
_space_group_symop_operation_xyz
x,y,z
-x,-y,1/2+z
x,-y,-z
-x,y,1/2-z
-x,-y,-z
x,y,1/2-z
-x,y,z
x,-y,1/2+z
1/2+x,1/2+y,z
1/2-x,1/2-y,1/2+z
1/2+x,1/2-y,-z
1/2-x,1/2+y,1/2-z
1/2-x,1/2-y,-z
1/2+x,1/2+y,1/2-z
1/2-x,1/2+y,z
1/2+x,1/2-y,1/2+z
loop_
_atom_site_type_symbol
_atom_site_label
_atom_site_fract_x
_atom_site_fract_y
_atom_site_fract_z
Si Si1 0.662221 0.358881 0.750000
Si Si2 0.664819 0.486388 0.250000
Si Si3 0.675596 0.371175 0.634253
Si Si4 0.330891 0.064920 0.970146
Si Si5 0.330296 0.994807 0.356659
Si Si6 0.673131 0.685687 0.479411
O O1 0.500000 0.327143 0.750000
O O2 0.656189 0.436473 0.750000
O O3 0.737755 0.339699 0.691813
O O4 0.500000 0.455977 0.250000
O O5 0.750838 0.463260 0.304142
O O6 0.500000 0.384962 0.640186
O O7 0.754855 0.439094 0.622473
O O8 0.710161 0.322664 0.584801
O O9 0.500000 0.079222 0.988062
O O10 0.318682 0.057243 0.905100
O O11 0.228490 0.124385 0.986677
O O12 0.273586 0.000000 0.000000
O O13 0.500000 0.010162 0.341766
O O14 0.500000 0.692578 0.489240
O O15 0.750000 0.750000 0.500000
#
# Coordination Sequence:
#
# PCOD8255937 Si02
#       6
#     8   8  16  16  16  16
#     4   7  12  25  45  68  95 124 159 205 255 301
#     4   9  17  29  45  70 107 140 169 213 263 311
#     4   9  17  30  49  74 102 134 170 213 263 319
#     4  10  20  35  54  78 108 140 173 217 269 316
#     4  10  18  29  50  77 105 136 173 217 264 315
#     4  11  23  36  53  76 106 143 183 223 268 323
#
# _framework density 17.553393
#
# number of rings (size 3 to 8) (size 9 to 14) (size 15 to 20)
#    0.000    2.400    2.000    2.700    0.000    2.800 
#    0.000    0.000    0.000    1.200    0.000    7.000 
#    0.000    0.000    0.000    0.000    0.000    0.000 
#
# Total GULP energy -495768.039618 kJ/mol
# GULP energy per Si atom -12394.200990 kJ/mol
# Density = 1.751344 g / cm^3
# Si number density = 17.553393 Si / 1000 Ang^3
#
#
#
# Elastic Constant Matrix: (Units=GPa)
#
#
# Indices 1 2 3 4 5 6 
#
# 1 90.7215 42.4130 59.3992 0.0000 0.0000 0.0000
# 2 42.4130 82.4015 53.7035 0.0000 0.0000 0.0000
# 3 59.3992 53.7035 148.6030 0.0000 0.0000 0.0000
# 4 0.0000 0.0000 0.0000 17.3644 0.0000 0.0000
# 5 0.0000 0.0000 0.0000 0.0000 29.1712 0.0000
# 6 0.0000 0.0000 0.0000 0.0000 0.0000 25.8623
#
#
#
# Elastic Compliance Matrix: (Units=1/GPa)
#
#
# Indices 1 2 3 4 5 6 
#
# 1 0.016663 -0.005541 -0.004658 0.000000 0.000000 0.000000
# 2 -0.005541 0.017717 -0.004188 0.000000 0.000000 0.000000
# 3 -0.004658 -0.004188 0.010105 0.000000 0.000000 0.000000
# 4 0.000000 0.000000 0.000000 0.057589 0.000000 0.000000
# 5 0.000000 0.000000 0.000000 0.000000 0.034280 0.000000
# 6 0.000000 0.000000 0.000000 0.000000 0.000000 0.038666
#
#
# Mechanical properties :
#
#
# Convention : Reuss Voigt Hill
#
# Bulk Modulus (GPa) = 63.64972 70.30640 66.97806
# Shear Modulus (GPa) = 23.91986 25.56027 24.74007
#
# Velocity S-wave (km/s) = 3.69547 3.82009 3.75829
# Velocity P-wave (km/s) = 7.38566 7.71992 7.55464
#
# Compressibility (1/GPa) = 0.01571099
#
# Stress axis : x y z
#
# Youngs Moduli (GPa) = 60.01334 56.44279 98.96340
#
# Poissons Ratio (x) = 0.31274 0.46098
# Poissons Ratio (y) = 0.33252 0.41446
# Poissons Ratio (z) = 0.27955 0.23638
#
# Static dielectric constant tensor:
#      x y z
#    x 3.310690 0.000000 0.000000 
#    y 0.000000 2.855690 0.000000 
#    z 0.000000 0.000000 3.808420 
# 
# 
# High freq. dielectric constant tensor:
#      x y z
#    x 1.677380 0.000000 0.000000 
#    y 0.000000 1.619940 0.000000 
#    z 0.000000 0.000000 1.705680 
# 
# From -- ./inp_files/66691.got.cif
#   From: 2010.03.12/outbox.cif.g09.slc.cpg/sg63_34_cif.got.tgz:66691.got - 2010.04.10 19:34:48.
