data_PCOD8255274
_publ_section_title
;
Structure prediction by ZEFSAII (Michael W. Deem and Ramdas Pophale) SiO2 
 PCOD8255274
Probable space group: P N M A
;
_chemical_formula_sum "Si O2"
_cell_formula_units_Z 64
_cell_length_a 26.283246
_cell_length_b 14.381025
_cell_length_c 8.166737
_cell_angle_alpha 90.000000
_cell_angle_beta 90.000000
_cell_angle_gamma 90.000000
_cell_volume 3086.863397
_symmetry_space_group_name_H-M "P N M A"
_symmetry_group_IT_number 62
_symmetry_cell_setting 'orthorhombic'
loop_
_space_group_symop_operation_xyz
x,y,z
1/2-x,-y,1/2+z
1/2+x,1/2-y,1/2-z
-x,1/2+y,-z
-x,-y,-z
1/2+x,y,1/2-z
1/2-x,1/2+y,1/2+z
x,1/2-y,z
loop_
_atom_site_type_symbol
_atom_site_label
_atom_site_fract_x
_atom_site_fract_y
_atom_site_fract_z
Si Si1 0.326147 0.500000 0.530900
Si Si2 0.223915 0.500000 0.381607
Si Si3 0.526146 0.500000 0.254392
Si Si4 0.900941 0.146406 0.863167
Si Si5 0.649379 0.646393 0.008738
Si Si6 0.423472 0.500000 0.100169
Si Si7 0.400941 0.646406 0.636834
Si Si8 0.149379 0.146393 0.491262
O O1 0.285405 0.500000 0.383762
O O2 0.361790 0.408847 0.519490
O O3 0.361790 0.591154 0.519490
O O4 0.293000 0.500000 0.695064
O O5 0.202565 0.591756 0.473616
O O6 0.202565 0.408244 0.473616
O O7 0.545433 0.591538 0.351235
O O8 0.464730 0.500000 0.246795
O O9 0.545433 0.408463 0.351235
O O10 0.548820 0.500000 0.073425
O O11 0.910294 0.250000 0.933017
O O12 0.877096 0.150613 0.684031
O O13 0.659685 0.750000 0.940107
O O14 0.611762 0.591743 0.884673
O O15 0.388238 0.591743 0.115327
O O16 0.410294 0.750000 0.566983
O O17 0.377096 0.650613 0.815969
O O18 0.159685 0.250000 0.559893
#
# Coordination Sequence:
#
# PCOD8255274 Si02
#       8
#     8   8   8   8   8   8   8   8
#     4   9  17  28  41  57  77 102 132 162 192 228
#     4   9  17  28  41  57  77 102 132 162 192 228
#     4   8  13  20  31  50  75 102 131 157 183 225
#     4   8  14  24  36  51  74 102 128 156 192 230
#     4   8  14  24  36  51  74 102 128 156 192 230
#     4   8  13  20  31  50  75 102 131 157 183 225
#     4   8  14  24  36  51  74 102 128 156 192 230
#     4   8  14  24  36  51  74 102 128 156 192 230
#
# _framework density 20.73302
#
# number of rings (size 3 to 8) (size 9 to 14) (size 15 to 20)
#    0.000    3.750    0.000    3.000    0.000    2.000 
#    0.000    5.000    0.000    0.000    0.000    0.000 
#    0.000   16.000    0.000   18.000    0.000   20.000 
#
# Total GULP energy -793116.240166 kJ/mol
# GULP energy per Si atom -12392.441253 kJ/mol
# Density = 2.068583 g / cm^3
# Si number density = 20.733020 Si / 1000 Ang^3
#
#
#
# Elastic Constant Matrix: (Units=GPa)
#
#
# Indices 1 2 3 4 5 6 
#
# 1 15.0241 1.5669 -0.4582 0.0000 0.0000 0.0000
# 2 1.5669 166.7038 -0.4910 0.0000 0.0000 0.0000
# 3 -0.4582 -0.4910 7.7680 0.0000 0.0000 0.0000
# 4 0.0000 0.0000 0.0000 1.1624 0.0000 0.0000
# 5 0.0000 0.0000 0.0000 0.0000 19.2923 0.0000
# 6 0.0000 0.0000 0.0000 0.0000 0.0000 13.6232
#
#
#
# Elastic Compliance Matrix: (Units=1/GPa)
#
#
# Indices 1 2 3 4 5 6 
#
# 1 0.066743 -0.000616 0.003898 0.000000 0.000000 0.000000
# 2 -0.000616 0.006005 0.000343 0.000000 0.000000 0.000000
# 3 0.003898 0.000343 0.128985 0.000000 0.000000 0.000000
# 4 0.000000 0.000000 0.000000 0.860308 0.000000 0.000000
# 5 0.000000 0.000000 0.000000 0.000000 0.051834 0.000000
# 6 0.000000 0.000000 0.000000 0.000000 0.000000 0.073404
#
#
# Mechanical properties :
#
#
# Convention : Reuss Voigt Hill
#
# Bulk Modulus (GPa) = 4.78507 21.19238 12.98873
# Shear Modulus (GPa) = 4.00099 19.40746 11.70423
#
# Velocity S-wave (km/s) = 1.39067 3.06284 2.37854
# Velocity P-wave (km/s) = 2.21169 4.76988 3.71775
#
# Compressibility (1/GPa) = 0.20898336
#
# Stress axis : x y z
#
# Youngs Moduli (GPa) = 14.98291 166.51506 7.75284
#
# Poissons Ratio (x) = 0.10255 -0.03022
# Poissons Ratio (y) = 0.00923 -0.00266
# Poissons Ratio (z) = -0.05840 -0.05716
#
# Static dielectric constant tensor:
#      x y z
#    x 3.830120 0.000000 0.000000 
#    y 0.000000 4.289700 0.000000 
#    z 0.000000 0.000000 3.113210 
# 
# 
# High freq. dielectric constant tensor:
#      x y z
#    x 1.804030 0.000000 0.000000 
#    y 0.000000 1.810190 0.000000 
#    z 0.000000 0.000000 1.762770 
# 
# From -- ./inp_files/10527.got.cif
#   From: 2010.03.12/outbox.cif.g09.slc.cpg/sg62_6_cif.got.tgz:10527.got - 2010.04.10 19:12:36.
