data_PCOD8255136
_publ_section_title
;
Structure prediction by ZEFSAII (Michael W. Deem and Ramdas Pophale) SiO2 
 PCOD8255136
Probable space group: P N M A
;
_chemical_formula_sum "Si O2"
_cell_formula_units_Z 40
_cell_length_a 12.006935
_cell_length_b 26.416514
_cell_length_c 5.428300
_cell_angle_alpha 90.000000
_cell_angle_beta 90.000000
_cell_angle_gamma 90.000000
_cell_volume 1721.755612
_symmetry_space_group_name_H-M "P N M A"
_symmetry_group_IT_number 62
_symmetry_cell_setting 'orthorhombic'
loop_
_space_group_symop_operation_xyz
x,y,z
1/2-x,-y,1/2+z
1/2+x,1/2-y,1/2-z
-x,1/2+y,-z
-x,-y,-z
1/2+x,y,1/2-z
1/2-x,1/2+y,1/2+z
x,1/2-y,z
loop_
_atom_site_type_symbol
_atom_site_label
_atom_site_fract_x
_atom_site_fract_y
_atom_site_fract_z
Si Si1 0.522182 0.385882 0.439773
Si Si2 0.705573 0.056861 0.727881
Si Si3 0.299031 0.149135 0.595350
Si Si4 0.404003 0.462463 0.087583
Si Si5 0.706877 0.308418 0.389161
O O1 0.600478 0.427203 0.566226
O O2 0.430246 0.362936 0.624168
O O3 0.454722 0.415955 0.232312
O O4 0.594224 0.339542 0.335972
O O5 0.721139 0.098169 0.948337
O O6 0.829943 0.063907 0.619398
O O7 0.687876 0.997735 0.778383
O O8 0.285394 0.183064 0.349430
O O9 0.262003 0.175552 0.850785
O O10 0.500000 0.500000 0.000000
O O11 0.675099 0.250000 0.406978
#
# Coordination Sequence:
#
# PCOD8255136 Si02
#       5
#     8   8   8   8   8
#     4  11  23  42  67  98 136 181 227 283 345 408
#     4  11  23  39  62  98 138 179 230 278 328 406
#     4  11  24  45  68  96 134 176 222 282 346 408
#     4  12  22  38  65 100 142 191 232 278 341 412
#     4  11  26  46  70 100 132 171 228 291 352 420
#
# _framework density 23.232102000000001
#
# number of rings (size 3 to 8) (size 9 to 14) (size 15 to 20)
#    0.000    0.800    0.000    8.400    0.000    6.400 
#    0.000    0.000    0.000    0.000    0.000    0.000 
#    0.000    0.000    0.000    0.000    0.000    0.000 
#
# Total GULP energy -495649.505826 kJ/mol
# GULP energy per Si atom -12391.237646 kJ/mol
# Density = 2.317922 g / cm^3
# Si number density = 23.232102 Si / 1000 Ang^3
#
#
#
# Elastic Constant Matrix: (Units=GPa)
#
#
# Indices 1 2 3 4 5 6 
#
# 1 130.3430 36.9725 40.5466 0.0000 0.0000 0.0000
# 2 36.9725 142.1252 40.8497 0.0000 0.0000 0.0000
# 3 40.5466 40.8497 112.1093 0.0000 0.0000 0.0000
# 4 0.0000 0.0000 0.0000 31.9665 0.0000 0.0000
# 5 0.0000 0.0000 0.0000 0.0000 31.7506 0.0000
# 6 0.0000 0.0000 0.0000 0.0000 0.0000 22.7827
#
#
#
# Elastic Compliance Matrix: (Units=1/GPa)
#
#
# Indices 1 2 3 4 5 6 
#
# 1 0.008944 -0.001560 -0.002666 0.000000 0.000000 0.000000
# 2 -0.001560 0.008131 -0.002399 0.000000 0.000000 0.000000
# 3 -0.002666 -0.002399 0.010758 0.000000 0.000000 0.000000
# 4 0.000000 0.000000 0.000000 0.031283 0.000000 0.000000
# 5 0.000000 0.000000 0.000000 0.000000 0.031496 0.000000
# 6 0.000000 0.000000 0.000000 0.000000 0.000000 0.043893
#
#
# Mechanical properties :
#
#
# Convention : Reuss Voigt Hill
#
# Bulk Modulus (GPa) = 68.57165 69.03499 68.80332
# Shear Modulus (GPa) = 32.76192 35.04719 33.90456
#
# Velocity S-wave (km/s) = 3.75934 3.88824 3.82433
# Velocity P-wave (km/s) = 6.95870 7.06666 7.01289
#
# Compressibility (1/GPa) = 0.01458329
#
# Stress axis : x y z
#
# Youngs Moduli (GPa) = 111.80579 122.98087 92.95303
#
# Poissons Ratio (x) = 0.19190 0.24784
# Poissons Ratio (y) = 0.17446 0.22295
# Poissons Ratio (z) = 0.29810 0.29497
#
# Static dielectric constant tensor:
#      x y z
#    x 4.587110 0.000000 0.000000 
#    y 0.000000 4.672870 0.000000 
#    z 0.000000 0.000000 4.077170 
# 
# 
# High freq. dielectric constant tensor:
#      x y z
#    x 1.937460 0.000000 0.000000 
#    y 0.000000 1.926060 0.000000 
#    z 0.000000 0.000000 1.907890 
# 
# From -- ./inp_files/598.got.cif
#   From: 2010.03.12/outbox.cif.g09.slc.cpg/sg62_1_cif.got.tgz:598.got - 2010.04.10 19:12:36.
