data_PCOD8255556
_publ_section_title
;
Structure prediction by ZEFSAII (Michael W. Deem and Ramdas Pophale) SiO2 
 PCOD8255556
Probable space group: C M C M
;
_chemical_formula_sum "Si O2"
_cell_formula_units_Z 88
_cell_length_a 17.465143
_cell_length_b 21.574067
_cell_length_c 13.572639
_cell_angle_alpha 90.000000
_cell_angle_beta 90.000000
_cell_angle_gamma 90.000000
_cell_volume 5114.091182
_symmetry_space_group_name_H-M "C M C M"
_symmetry_group_IT_number 63
_symmetry_cell_setting 'orthorhombic'
loop_
_space_group_symop_operation_xyz
x,y,z
-x,-y,1/2+z
x,-y,-z
-x,y,1/2-z
-x,-y,-z
x,y,1/2-z
-x,y,z
x,-y,1/2+z
1/2+x,1/2+y,z
1/2-x,1/2-y,1/2+z
1/2+x,1/2-y,-z
1/2-x,1/2+y,1/2-z
1/2-x,1/2-y,-z
1/2+x,1/2+y,1/2-z
1/2-x,1/2+y,z
1/2+x,1/2-y,1/2+z
loop_
_atom_site_type_symbol
_atom_site_label
_atom_site_fract_x
_atom_site_fract_y
_atom_site_fract_z
Si Si1 0.187046 0.956255 0.636545
Si Si2 0.910888 0.410599 0.365186
Si Si3 0.590663 0.226665 0.641006
Si Si4 0.910840 0.851106 0.952224
Si Si5 0.312953 0.000000 0.500000
Si Si6 0.587679 0.575103 0.639617
O O1 0.212160 0.958113 0.750000
O O2 0.135765 0.895967 0.619432
O O3 0.262076 0.955021 0.568564
O O4 0.138978 0.017307 0.607652
O O5 0.895451 0.423381 0.250000
O O6 0.881108 0.341322 0.393223
O O7 0.864466 0.458443 0.430033
O O8 0.000000 0.418739 0.390027
O O9 0.623134 0.242137 0.750000
O O10 0.500000 0.223209 0.647161
O O11 0.617231 0.280427 0.565528
O O12 0.000000 0.858215 0.924462
O O13 0.895506 0.867767 0.066455
O O14 0.607055 0.597963 0.750000
O O15 0.500000 0.553016 0.631480
#
# Coordination Sequence:
#
# PCOD8255556 Si02
#       6
#    16  16  16  16   8  16
#     4  11  21  31  45  70 106 138 169 206 244 288
#     4   9  19  37  59  79  96 119 160 210 255 302
#     4   8  15  29  51  77  99 122 160 209 251 286
#     4  10  17  29  50  75 101 134 174 209 242 277
#     4  12  21  34  51  76  98 134 158 198 251 312
#     4   9  17  29  45  67 100 143 183 209 232 272
#
# _framework density 17.207357999999999
#
# number of rings (size 3 to 8) (size 9 to 14) (size 15 to 20)
#    0.000    2.364    1.818    3.000    0.000    3.273 
#    0.000    0.909    0.000    2.182    0.000    7.636 
#    0.000    0.000    0.000    0.000    0.000    0.000 
#
# Total GULP energy -545476.543302 kJ/mol
# GULP energy per Si atom -12397.194166 kJ/mol
# Density = 1.716819 g / cm^3
# Si number density = 17.207358 Si / 1000 Ang^3
#
#
#
# Elastic Constant Matrix: (Units=GPa)
#
#
# Indices 1 2 3 4 5 6 
#
# 1 60.2432 45.6803 45.8025 0.0000 0.0000 0.0000
# 2 45.6803 121.3224 59.2787 0.0000 0.0000 0.0000
# 3 45.8025 59.2787 92.6229 0.0000 0.0000 0.0000
# 4 0.0000 0.0000 0.0000 29.4886 0.0000 0.0000
# 5 0.0000 0.0000 0.0000 0.0000 24.9421 0.0000
# 6 0.0000 0.0000 0.0000 0.0000 0.0000 4.3878
#
#
#
# Elastic Compliance Matrix: (Units=1/GPa)
#
#
# Indices 1 2 3 4 5 6 
#
# 1 0.029086 -0.005709 -0.010729 0.000000 0.000000 0.000000
# 2 -0.005709 0.013113 -0.005569 0.000000 0.000000 0.000000
# 3 -0.010729 -0.005569 0.019667 0.000000 0.000000 0.000000
# 4 0.000000 0.000000 0.000000 0.033911 0.000000 0.000000
# 5 0.000000 0.000000 0.000000 0.000000 0.040093 0.000000
# 6 0.000000 0.000000 0.000000 0.000000 0.000000 0.227904
#
#
# Mechanical properties :
#
#
# Convention : Reuss Voigt Hill
#
# Bulk Modulus (GPa) = 56.02163 63.96794 59.99478
# Shear Modulus (GPa) = 12.08492 19.99217 16.03854
#
# Velocity S-wave (km/s) = 2.65299 3.41227 3.05630
# Velocity P-wave (km/s) = 6.48166 7.26500 6.88448
#
# Compressibility (1/GPa) = 0.01785025
#
# Stress axis : x y z
#
# Youngs Moduli (GPa) = 34.38123 76.25863 50.84769
#
# Poissons Ratio (x) = 0.43536 0.54556
# Poissons Ratio (y) = 0.19628 0.28319
# Poissons Ratio (z) = 0.36889 0.42472
#
# Static dielectric constant tensor:
#      x y z
#    x 2.992550 0.000000 0.000000 
#    y 0.000000 3.270810 0.000000 
#    z 0.000000 0.000000 3.284280 
# 
# 
# High freq. dielectric constant tensor:
#      x y z
#    x 1.639260 0.000000 0.000000 
#    y 0.000000 1.653210 0.000000 
#    z 0.000000 0.000000 1.670050 
# 
# From -- ./inp_files/34140.got.cif
#   From: 2010.03.12/outbox.cif.g09.slc.cpg/sg63_18_cif.got.tgz:34140.got - 2010.04.10 19:34:48.
