data_PCOD8255551
_publ_section_title
;
Structure prediction by ZEFSAII (Michael W. Deem and Ramdas Pophale) SiO2 
 PCOD8255551
Probable space group: C M C M
;
_chemical_formula_sum "Si O2"
_cell_formula_units_Z 64
_cell_length_a 21.684350
_cell_length_b 14.076605
_cell_length_c 12.918103
_cell_angle_alpha 90.000000
_cell_angle_beta 90.000000
_cell_angle_gamma 90.000000
_cell_volume 3943.147979
_symmetry_space_group_name_H-M "C M C M"
_symmetry_group_IT_number 63
_symmetry_cell_setting 'orthorhombic'
loop_
_space_group_symop_operation_xyz
x,y,z
-x,-y,1/2+z
x,-y,-z
-x,y,1/2-z
-x,-y,-z
x,y,1/2-z
-x,y,z
x,-y,1/2+z
1/2+x,1/2+y,z
1/2-x,1/2-y,1/2+z
1/2+x,1/2-y,-z
1/2-x,1/2+y,1/2-z
1/2-x,1/2-y,-z
1/2+x,1/2+y,1/2-z
1/2-x,1/2+y,z
1/2+x,1/2-y,1/2+z
loop_
_atom_site_type_symbol
_atom_site_label
_atom_site_fract_x
_atom_site_fract_y
_atom_site_fract_z
Si Si1 0.569802 0.138464 0.069968
Si Si2 0.613641 0.065913 0.633494
Si Si3 0.314659 0.236878 0.369558
Si Si4 0.743560 0.100720 0.533766
O O1 0.500000 0.157469 0.105923
O O2 0.612309 0.225877 0.106742
O O3 0.597130 0.044693 0.123858
O O4 0.571613 0.126743 0.945228
O O5 0.600500 0.100899 0.750000
O O6 0.684922 0.081324 0.606522
O O7 0.299996 0.220450 0.250000
O O8 0.275447 0.159265 0.432090
O O9 0.295285 0.342893 0.402384
O O10 0.772525 0.000000 0.500000
#
# Coordination Sequence:
#
# PCOD8255551 Si02
#       4
#    16  16  16  16
#     4  10  20  31  44  71 103 131 167 206 239 294
#     4  10  17  29  48  71  98 132 162 199 256 304
#     4  10  20  32  49  72  98 133 168 202 251 300
#     4  10  19  33  49  73 103 127 163 212 250 303
#
# _framework density 16.230685999999999
#
# number of rings (size 3 to 8) (size 9 to 14) (size 15 to 20)
#    0.000    2.000    5.000    3.000    0.000    4.500 
#    0.000    0.000    0.000    0.750    0.000    0.000 
#    0.000    0.000    0.000    0.000    0.000    0.000 
#
# Total GULP energy -396760.312425 kJ/mol
# GULP energy per Si atom -12398.759763 kJ/mol
# Density = 1.619374 g / cm^3
# Si number density = 16.230686 Si / 1000 Ang^3
#
#
#
# Elastic Constant Matrix: (Units=GPa)
#
#
# Indices 1 2 3 4 5 6 
#
# 1 114.1416 53.5296 25.8440 0.0000 0.0000 0.0000
# 2 53.5296 82.4986 29.8479 0.0000 0.0000 0.0000
# 3 25.8440 29.8479 126.3481 0.0000 0.0000 0.0000
# 4 0.0000 0.0000 0.0000 9.4017 0.0000 0.0000
# 5 0.0000 0.0000 0.0000 0.0000 6.5735 0.0000
# 6 0.0000 0.0000 0.0000 0.0000 0.0000 19.2262
#
#
#
# Elastic Compliance Matrix: (Units=1/GPa)
#
#
# Indices 1 2 3 4 5 6 
#
# 1 0.012651 -0.007952 -0.000709 0.000000 0.000000 0.000000
# 2 -0.007952 0.018253 -0.002685 0.000000 0.000000 0.000000
# 3 -0.000709 -0.002685 0.008694 0.000000 0.000000 0.000000
# 4 0.000000 0.000000 0.000000 0.106364 0.000000 0.000000
# 5 0.000000 0.000000 0.000000 0.000000 0.152127 0.000000
# 6 0.000000 0.000000 0.000000 0.000000 0.000000 0.052012
#
#
# Mechanical properties :
#
#
# Convention : Reuss Voigt Hill
#
# Bulk Modulus (GPa) = 59.15559 60.15905 59.65732
# Shear Modulus (GPa) = 13.21252 21.29139 17.25196
#
# Velocity S-wave (km/s) = 2.85624 3.62581 3.26379
# Velocity P-wave (km/s) = 6.88501 7.39419 7.14414
#
# Compressibility (1/GPa) = 0.01690457
#
# Stress axis : x y z
#
# Youngs Moduli (GPa) = 79.04566 54.78644 115.02079
#
# Poissons Ratio (x) = 0.43566 0.08157
# Poissons Ratio (y) = 0.62857 0.30887
# Poissons Ratio (z) = 0.05605 0.14712
#
# Static dielectric constant tensor:
#      x y z
#    x 3.030670 0.000000 0.000000 
#    y 0.000000 2.997600 0.000000 
#    z 0.000000 0.000000 3.184150 
# 
# 
# High freq. dielectric constant tensor:
#      x y z
#    x 1.606980 0.000000 0.000000 
#    y 0.000000 1.590980 0.000000 
#    z 0.000000 0.000000 1.638030 
# 
# From -- ./inp_files/22247.got.cif
#   From: 2010.03.12/outbox.cif.g09.slc.cpg/sg63_12_cif.got.tgz:22247.got - 2010.04.10 19:34:48.
