data_PCOD8255271
_publ_section_title
;
Structure prediction by ZEFSAII (Michael W. Deem and Ramdas Pophale) SiO2 
 PCOD8255271
Probable space group: P N M A
;
_chemical_formula_sum "Si O2"
_cell_formula_units_Z 24
_cell_length_a 9.889923
_cell_length_b 10.034280
_cell_length_c 9.775652
_cell_angle_alpha 90.000000
_cell_angle_beta 90.000000
_cell_angle_gamma 90.000000
_cell_volume 970.118661
_symmetry_space_group_name_H-M "P N M A"
_symmetry_group_IT_number 62
_symmetry_cell_setting 'orthorhombic'
loop_
_space_group_symop_operation_xyz
x,y,z
1/2-x,-y,1/2+z
1/2+x,1/2-y,1/2-z
-x,1/2+y,-z
-x,-y,-z
1/2+x,y,1/2-z
1/2-x,1/2+y,1/2+z
x,1/2-y,z
loop_
_atom_site_type_symbol
_atom_site_label
_atom_site_fract_x
_atom_site_fract_y
_atom_site_fract_z
Si Si1 0.855723 0.250000 0.907466
Si Si2 0.314050 0.462192 0.369012
Si Si3 0.646798 0.250000 0.676204
Si Si4 0.984434 0.598886 0.625780
O O1 0.714693 0.250000 0.826335
O O2 0.983620 0.250000 0.805155
O O3 0.864828 0.117720 0.999099
O O4 0.306271 0.619164 0.407551
O O5 0.416847 0.445807 0.245181
O O6 0.168808 0.410013 0.319195
O O7 0.016006 0.750000 0.580606
O O8 0.000000 0.500000 0.500000
#
# Coordination Sequence:
#
# PCOD8255271 Si02
#       4
#     4   8   4   8
#     4  12  26  54  76 120 158 216 268 330 418 474
#     4  12  27  51  81 113 164 210 266 332 409 477
#     4  12  28  48  80 116 158 206 274 332 390 492
#     4  12  27  51  80 118 161 213 269 333 401 481
#
# _framework density 24.739242000000001
#
# number of rings (size 3 to 8) (size 9 to 14) (size 15 to 20)
#    0.000    0.000    3.333    5.000    4.667    2.667 
#    0.000    0.000    0.000    0.000    0.000    0.000 
#    0.000    0.000    0.000    0.000    0.000    0.000 
#
# Total GULP energy -297743.028936 kJ/mol
# GULP energy per Si atom -12405.959539 kJ/mol
# Density = 2.468293 g / cm^3
# Si number density = 24.739242 Si / 1000 Ang^3
#
#
#
# Elastic Constant Matrix: (Units=GPa)
#
#
# Indices 1 2 3 4 5 6 
#
# 1 131.9113 21.2619 70.4816 0.0000 0.0000 0.0000
# 2 21.2619 251.1114 66.2790 0.0000 0.0000 0.0000
# 3 70.4816 66.2790 143.0066 0.0000 0.0000 0.0000
# 4 0.0000 0.0000 0.0000 29.2822 0.0000 0.0000
# 5 0.0000 0.0000 0.0000 0.0000 50.8817 0.0000
# 6 0.0000 0.0000 0.0000 0.0000 0.0000 37.0279
#
#
#
# Elastic Compliance Matrix: (Units=1/GPa)
#
#
# Indices 1 2 3 4 5 6 
#
# 1 0.010354 0.000536 -0.005351 0.000000 0.000000 0.000000
# 2 0.000536 0.004565 -0.002380 0.000000 0.000000 0.000000
# 3 -0.005351 -0.002380 0.010733 0.000000 0.000000 0.000000
# 4 0.000000 0.000000 0.000000 0.034150 0.000000 0.000000
# 5 0.000000 0.000000 0.000000 0.000000 0.019653 0.000000
# 6 0.000000 0.000000 0.000000 0.000000 0.000000 0.027007
#
#
# Mechanical properties :
#
#
# Convention : Reuss Voigt Hill
#
# Bulk Modulus (GPa) = 88.79980 93.56380 91.18180
# Shear Modulus (GPa) = 40.12632 47.97215 44.04924
#
# Velocity S-wave (km/s) = 4.03174 4.40831 4.22422
# Velocity P-wave (km/s) = 7.59246 7.98831 7.79290
#
# Compressibility (1/GPa) = 0.01126129
#
# Stress axis : x y z
#
# Youngs Moduli (GPa) = 96.58393 219.05483 93.17056
#
# Poissons Ratio (x) = -0.11736 0.49857
# Poissons Ratio (y) = -0.05174 0.22173
# Poissons Ratio (z) = 0.51684 0.52131
#
# Static dielectric constant tensor:
#      x y z
#    x 4.931850 0.000000 0.000000 
#    y 0.000000 6.379580 0.000000 
#    z 0.000000 0.000000 4.106880 
# 
# 
# High freq. dielectric constant tensor:
#      x y z
#    x 2.007530 0.000000 0.000000 
#    y 0.000000 2.018310 0.000000 
#    z 0.000000 0.000000 1.960940 
# 
# From -- ./inp_files/4719.got.cif
#   From: 2010.03.12/outbox.cif.g09.slc.cpg/sg62_3_cif.got.tgz:4719.got - 2010.04.10 19:12:36.
