data_PCOD8255019
_publ_section_title
;
Structure prediction by ZEFSAII (Michael W. Deem and Ramdas Pophale) SiO2 
 PCOD8255019
Probable space group: P N M A
;
_chemical_formula_sum "Si O2"
_cell_formula_units_Z 40
_cell_length_a 7.682492
_cell_length_b 20.937095
_cell_length_c 10.714963
_cell_angle_alpha 90.000000
_cell_angle_beta 90.000000
_cell_angle_gamma 90.000000
_cell_volume 1723.491778
_symmetry_space_group_name_H-M "P N M A"
_symmetry_group_IT_number 62
_symmetry_cell_setting 'orthorhombic'
loop_
_space_group_symop_operation_xyz
x,y,z
1/2-x,-y,1/2+z
1/2+x,1/2-y,1/2-z
-x,1/2+y,-z
-x,-y,-z
1/2+x,y,1/2-z
1/2-x,1/2+y,1/2+z
x,1/2-y,z
loop_
_atom_site_type_symbol
_atom_site_label
_atom_site_fract_x
_atom_site_fract_y
_atom_site_fract_z
Si Si1 0.612211 0.497783 0.123602
Si Si2 0.298364 0.678770 0.109229
Si Si3 0.536496 0.544373 0.620741
Si Si4 0.462775 0.679454 0.549759
Si Si5 0.823269 0.136413 0.631124
O O1 0.755974 0.441690 0.117338
O O2 0.501540 0.492400 0.250046
O O3 0.727825 0.562371 0.123876
O O4 0.500000 0.500000 0.000000
O O5 0.366257 0.750000 0.130128
O O6 0.185594 0.656630 0.226352
O O7 0.475534 0.639632 0.083431
O O8 0.159926 0.674359 0.998474
O O9 0.500000 0.500000 0.500000
O O10 0.437838 0.613624 0.628158
O O11 0.444553 0.750000 0.617810
O O12 0.311418 0.679408 0.446197
#
# Coordination Sequence:
#
# PCOD8255019 Si02
#       5
#     8   8   8   8   8
#     4  12  26  45  74 102 139 187 242 300 362 425
#     4  11  21  35  59  96 139 182 232 293 357 428
#     4  12  24  47  71 106 142 183 241 304 360 425
#     4  11  24  42  65  98 142 190 237 294 363 437
#     4  12  21  38  64  98 136 182 235 297 362 421
#
# _framework density 23.208701000000001
#
# number of rings (size 3 to 8) (size 9 to 14) (size 15 to 20)
#    0.000    0.400    4.000    6.600    0.000    0.000 
#    0.000    1.000    0.000    0.000    0.000    0.000 
#    0.000    0.000    0.000    0.000    0.000    0.000 
#
# Total GULP energy -495539.321939 kJ/mol
# GULP energy per Si atom -12388.483048 kJ/mol
# Density = 2.315588 g / cm^3
# Si number density = 23.208701 Si / 1000 Ang^3
#
#
#
# Elastic Constant Matrix: (Units=GPa)
#
#
# Indices 1 2 3 4 5 6 
#
# 1 125.9844 14.5452 24.7106 0.0000 0.0000 0.0000
# 2 14.5452 124.3268 38.9892 0.0000 0.0000 0.0000
# 3 24.7106 38.9892 112.7728 0.0000 0.0000 0.0000
# 4 0.0000 0.0000 0.0000 23.6324 0.0000 0.0000
# 5 0.0000 0.0000 0.0000 0.0000 24.6353 0.0000
# 6 0.0000 0.0000 0.0000 0.0000 0.0000 30.7065
#
#
#
# Elastic Compliance Matrix: (Units=1/GPa)
#
#
# Indices 1 2 3 4 5 6 
#
# 1 0.008316 -0.000450 -0.001667 0.000000 0.000000 0.000000
# 2 -0.000450 0.009046 -0.003029 0.000000 0.000000 0.000000
# 3 -0.001667 -0.003029 0.010280 0.000000 0.000000 0.000000
# 4 0.000000 0.000000 0.000000 0.042315 0.000000 0.000000
# 5 0.000000 0.000000 0.000000 0.000000 0.040592 0.000000
# 6 0.000000 0.000000 0.000000 0.000000 0.000000 0.032566
#
#
# Mechanical properties :
#
#
# Convention : Reuss Voigt Hill
#
# Bulk Modulus (GPa) = 57.63491 57.73045 57.68268
# Shear Modulus (GPa) = 31.40898 34.78410 33.09654
#
# Velocity S-wave (km/s) = 3.68275 3.87557 3.78039
# Velocity P-wave (km/s) = 6.55521 6.70487 6.63046
#
# Compressibility (1/GPa) = 0.01735059
#
# Stress axis : x y z
#
# Youngs Moduli (GPa) = 120.24488 110.54821 97.27906
#
# Poissons Ratio (x) = 0.04978 0.16212
# Poissons Ratio (y) = 0.05415 0.29464
# Poissons Ratio (z) = 0.20040 0.33482
#
# Static dielectric constant tensor:
#      x y z
#    x 4.031590 0.000000 0.000000 
#    y 0.000000 4.970870 0.000000 
#    z 0.000000 0.000000 3.389020 
# 
# 
# High freq. dielectric constant tensor:
#      x y z
#    x 1.935170 0.000000 0.000000 
#    y 0.000000 1.936250 0.000000 
#    z 0.000000 0.000000 1.876950 
# 
# From -- ./inp_files/4296.got.cif
#   From: 2010.03.12/outbox.cif.g09.slc.cpg/sg62_3_cif.got.tgz:4296.got - 2010.04.10 19:12:36.
