data_PCOD8255530
_publ_section_title
;
Structure prediction by ZEFSAII (Michael W. Deem and Ramdas Pophale) SiO2 
 PCOD8255530
Probable space group: C M C M
;
_chemical_formula_sum "Si O2"
_cell_formula_units_Z 96
_cell_length_a 19.688721
_cell_length_b 11.627503
_cell_length_c 23.933397
_cell_angle_alpha 90.000000
_cell_angle_beta 90.000000
_cell_angle_gamma 90.000000
_cell_volume 5479.088431
_symmetry_space_group_name_H-M "C M C M"
_symmetry_group_IT_number 63
_symmetry_cell_setting 'orthorhombic'
loop_
_space_group_symop_operation_xyz
x,y,z
-x,-y,1/2+z
x,-y,-z
-x,y,1/2-z
-x,-y,-z
x,y,1/2-z
-x,y,z
x,-y,1/2+z
1/2+x,1/2+y,z
1/2-x,1/2-y,1/2+z
1/2+x,1/2-y,-z
1/2-x,1/2+y,1/2-z
1/2-x,1/2-y,-z
1/2+x,1/2+y,1/2-z
1/2-x,1/2+y,z
1/2+x,1/2-y,1/2+z
loop_
_atom_site_type_symbol
_atom_site_label
_atom_site_fract_x
_atom_site_fract_y
_atom_site_fract_z
Si Si1 0.822818 0.782747 0.890504
Si Si2 0.326744 0.471234 0.057708
Si Si3 0.575409 0.165098 0.684808
Si Si4 0.673668 0.241791 0.395329
Si Si5 0.920385 0.403734 0.814313
Si Si6 0.682388 0.881806 0.487529
O O1 0.874995 0.759006 0.841122
O O2 0.748205 0.747341 0.867434
O O3 0.849827 0.706541 0.943275
O O4 0.823314 0.917802 0.903372
O O5 0.360248 0.367079 0.093086
O O6 0.253530 0.423142 0.038511
O O7 0.367531 0.500000 0.000000
O O8 0.574058 0.187796 0.750000
O O9 0.500000 0.182525 0.659953
O O10 0.600101 0.035036 0.672483
O O11 0.622276 0.175048 0.355878
O O12 0.691521 0.181521 0.453991
O O13 0.902998 0.373045 0.750000
O O14 0.000000 0.384032 0.825445
O O15 0.639230 0.000000 0.500000
#
# Coordination Sequence:
#
# PCOD8255530 Si02
#       6
#    16  16  16  16  16  16
#     4  11  19  31  55  81 112 144 178 222 269 323
#     4  10  17  31  47  80 113 149 173 205 272 331
#     4   9  20  39  59  77 103 143 186 231 281 323
#     4  11  19  30  56  84 109 145 183 223 265 329
#     4   9  20  40  60  77 105 144 185 233 283 321
#     4  10  17  28  49  81 111 142 176 219 270 319
#
# _framework density 17.521163000000001
#
# number of rings (size 3 to 8) (size 9 to 14) (size 15 to 20)
#    0.000    2.000    5.000    3.000    2.333    0.667 
#    0.000    2.500    0.000    6.000    0.000    0.000 
#    0.000    0.000    0.000    0.000    0.000    0.000 
#
# Total GULP energy -594735.032093 kJ/mol
# GULP energy per Si atom -12390.313169 kJ/mol
# Density = 1.748128 g / cm^3
# Si number density = 17.521163 Si / 1000 Ang^3
#
#
#
# Elastic Constant Matrix: (Units=GPa)
#
#
# Indices 1 2 3 4 5 6 
#
# 1 63.2546 40.6226 44.5068 0.0000 0.0000 0.0000
# 2 40.6226 140.2450 53.4526 0.0000 0.0000 0.0000
# 3 44.5068 53.4526 68.0614 0.0000 0.0000 0.0000
# 4 0.0000 0.0000 0.0000 25.8543 0.0000 0.0000
# 5 0.0000 0.0000 0.0000 0.0000 -10.7169 0.0000
# 6 0.0000 0.0000 0.0000 0.0000 0.0000 21.7817
#
#
#
# Elastic Compliance Matrix: (Units=1/GPa)
#
#
# Indices 1 2 3 4 5 6 
#
# 1 0.029565 -0.001706 -0.017994 0.000000 0.000000 0.000000
# 2 -0.001706 0.010275 -0.006954 0.000000 0.000000 0.000000
# 3 -0.017994 -0.006954 0.031921 0.000000 0.000000 0.000000
# 4 0.000000 0.000000 0.000000 0.038678 0.000000 0.000000
# 5 0.000000 0.000000 0.000000 0.000000 -0.093311 0.000000
# 6 0.000000 0.000000 0.000000 0.000000 0.000000 0.045910
#
#
# Mechanical properties :
#
#
# Convention : Reuss Voigt Hill
#
# Bulk Modulus (GPa) = 54.18991 60.96948 57.57970
# Shear Modulus (GPa) = 40.81752 16.24910 28.53331
#
# Velocity S-wave (km/s) = 4.83184 3.04863 4.03985
# Velocity P-wave (km/s) = 7.88190 6.87498 7.39560
#
# Compressibility (1/GPa) = 0.01845362
#
# Stress axis : x y z
#
# Youngs Moduli (GPa) = 33.82359 97.32458 31.32768
#
# Poissons Ratio (x) = 0.16599 0.56370
# Poissons Ratio (y) = 0.05769 0.21786
# Poissons Ratio (z) = 0.60862 0.67681
#
# Static dielectric constant tensor:
#      x y z
#    x 2.923870 0.000000 0.000000 
#    y 0.000000 3.853520 0.000000 
#    z 0.000000 0.000000 3.262320 
# 
# 
# High freq. dielectric constant tensor:
#      x y z
#    x 1.630600 0.000000 0.000000 
#    y 0.000000 1.694660 0.000000 
#    z 0.000000 0.000000 1.670120 
# 
# From -- ./inp_files/56570.got.cif
#   From: 2010.03.12/outbox.cif.g09.slc.cpg/sg63_29_cif.got.tgz:56570.got - 2010.04.10 19:34:48.
