data_PCOD8255501
_publ_section_title
;
Structure prediction by ZEFSAII (Michael W. Deem and Ramdas Pophale) SiO2 
 PCOD8255501
Probable space group: C M C M
;
_chemical_formula_sum "Si O2"
_cell_formula_units_Z 88
_cell_length_a 13.033060
_cell_length_b 27.885093
_cell_length_c 15.303018
_cell_angle_alpha 90.000000
_cell_angle_beta 90.000000
_cell_angle_gamma 90.000000
_cell_volume 5561.546606
_symmetry_space_group_name_H-M "C M C M"
_symmetry_group_IT_number 63
_symmetry_cell_setting 'orthorhombic'
loop_
_space_group_symop_operation_xyz
x,y,z
-x,-y,1/2+z
x,-y,-z
-x,y,1/2-z
-x,-y,-z
x,y,1/2-z
-x,y,z
x,-y,1/2+z
1/2+x,1/2+y,z
1/2-x,1/2-y,1/2+z
1/2+x,1/2-y,-z
1/2-x,1/2+y,1/2-z
1/2-x,1/2-y,-z
1/2+x,1/2+y,1/2-z
1/2-x,1/2+y,z
1/2+x,1/2-y,1/2+z
loop_
_atom_site_type_symbol
_atom_site_label
_atom_site_fract_x
_atom_site_fract_y
_atom_site_fract_z
Si Si1 0.622462 0.931925 0.250000
Si Si2 0.116909 0.735937 0.909828
Si Si3 0.187119 0.676061 0.750000
Si Si4 0.114555 0.236762 0.750000
Si Si5 0.194855 0.702296 0.405434
Si Si6 0.114638 0.606732 0.350699
Si Si7 0.378128 0.003460 0.098713
O O1 0.500000 0.924038 0.250000
O O2 0.680970 0.881376 0.250000
O O3 0.658883 0.960830 0.337003
O O4 0.130000 0.696140 0.835144
O O5 0.186763 0.782571 0.891712
O O6 0.000000 0.753435 0.913572
O O7 0.151842 0.712863 0.999655
O O8 0.306137 0.692413 0.750000
O O9 0.126134 0.269804 0.664782
O O10 0.000000 0.214968 0.750000
O O11 0.189132 0.645182 0.395278
O O12 0.108178 0.619126 0.250000
O O13 0.161888 0.554075 0.364245
O O14 0.000000 0.610213 0.392109
O O15 0.500000 0.002849 0.099114
O O16 0.334761 0.000000 0.000000
#
# Coordination Sequence:
#
# PCOD8255501 Si02
#       7
#     8  16   8   8  16  16  16
#     4  10  18  31  44  62  93 121 149 184 221 274
#     4  10  20  34  46  66  98 127 156 190 223 271
#     4  10  22  32  46  69  93 129 162 179 227 285
#     4  10  18  33  50  69  94 118 155 203 232 261
#     4  10  20  30  49  72  91 123 160 188 231 275
#     4  10  17  28  45  66  91 117 150 193 233 269
#     4   9  18  29  43  63  88 120 151 182 226 273
#
# _framework density 15.822937
#
# number of rings (size 3 to 8) (size 9 to 14) (size 15 to 20)
#    0.000    2.182    1.818    2.455    2.545    0.000 
#    0.000    0.000    0.000    0.000    0.000    1.273 
#    0.000    1.455    0.000    0.000    0.000    0.000 
#
# Total GULP energy -545500.413707 kJ/mol
# GULP energy per Si atom -12397.736675 kJ/mol
# Density = 1.578692 g / cm^3
# Si number density = 15.822937 Si / 1000 Ang^3
#
#
#
# Elastic Constant Matrix: (Units=GPa)
#
#
# Indices 1 2 3 4 5 6 
#
# 1 82.1357 39.3268 19.8775 0.0000 0.0000 0.0000
# 2 39.3268 121.8471 37.6809 0.0000 0.0000 0.0000
# 3 19.8775 37.6809 105.0455 0.0000 0.0000 0.0000
# 4 0.0000 0.0000 0.0000 21.9062 0.0000 0.0000
# 5 0.0000 0.0000 0.0000 0.0000 32.9169 0.0000
# 6 0.0000 0.0000 0.0000 0.0000 0.0000 20.6043
#
#
#
# Elastic Compliance Matrix: (Units=1/GPa)
#
#
# Indices 1 2 3 4 5 6 
#
# 1 0.014534 -0.004320 -0.001201 0.000000 0.000000 0.000000
# 2 -0.004320 0.010515 -0.002954 0.000000 0.000000 0.000000
# 3 -0.001201 -0.002954 0.010807 0.000000 0.000000 0.000000
# 4 0.000000 0.000000 0.000000 0.045649 0.000000 0.000000
# 5 0.000000 0.000000 0.000000 0.000000 0.030379 0.000000
# 6 0.000000 0.000000 0.000000 0.000000 0.000000 0.048533
#
#
# Mechanical properties :
#
#
# Convention : Reuss Voigt Hill
#
# Bulk Modulus (GPa) = 52.89347 55.86652 54.38000
# Shear Modulus (GPa) = 27.22294 29.22837 28.22565
#
# Velocity S-wave (km/s) = 4.15236 4.30259 4.22814
# Velocity P-wave (km/s) = 7.51601 7.75029 7.63405
#
# Compressibility (1/GPa) = 0.01890593
#
# Stress axis : x y z
#
# Youngs Moduli (GPa) = 68.80531 95.10409 92.53546
#
# Poissons Ratio (x) = 0.41080 0.11111
# Poissons Ratio (y) = 0.29721 0.27339
# Poissons Ratio (z) = 0.08262 0.28097
#
# Static dielectric constant tensor:
#      x y z
#    x 2.783870 0.000000 0.000000 
#    y 0.000000 2.994210 0.000000 
#    z 0.000000 0.000000 3.251250 
# 
# 
# High freq. dielectric constant tensor:
#      x y z
#    x 1.561670 0.000000 0.000000 
#    y 0.000000 1.602590 0.000000 
#    z 0.000000 0.000000 1.629120 
# 
# From -- ./inp_files/30295.got.cif
#   From: 2010.03.12/outbox.cif.g09.slc.cpg/sg63_16_cif.got.tgz:30295.got - 2010.04.10 19:34:48.
