data_PCOD8255855
_publ_section_title
;
Structure prediction by ZEFSAII (Michael W. Deem and Ramdas Pophale) SiO2 
 PCOD8255855
Probable space group: C M C M
;
_chemical_formula_sum "Si O2"
_cell_formula_units_Z 80
_cell_length_a 23.754182
_cell_length_b 26.250550
_cell_length_c 8.681627
_cell_angle_alpha 90.000000
_cell_angle_beta 90.000000
_cell_angle_gamma 90.000000
_cell_volume 5413.518304
_symmetry_space_group_name_H-M "C M C M"
_symmetry_group_IT_number 63
_symmetry_cell_setting 'orthorhombic'
loop_
_space_group_symop_operation_xyz
x,y,z
-x,-y,1/2+z
x,-y,-z
-x,y,1/2-z
-x,-y,-z
x,y,1/2-z
-x,y,z
x,-y,1/2+z
1/2+x,1/2+y,z
1/2-x,1/2-y,1/2+z
1/2+x,1/2-y,-z
1/2-x,1/2+y,1/2-z
1/2-x,1/2-y,-z
1/2+x,1/2+y,1/2-z
1/2-x,1/2+y,z
1/2+x,1/2-y,1/2+z
loop_
_atom_site_type_symbol
_atom_site_label
_atom_site_fract_x
_atom_site_fract_y
_atom_site_fract_z
Si Si1 0.500000 0.601772 0.568272
Si Si2 0.112175 0.054587 0.431533
Si Si3 0.681174 0.358528 0.068262
Si Si4 0.115858 0.763012 0.931538
Si Si5 0.218678 0.296489 0.428004
Si Si6 0.000000 0.219903 0.931576
O O1 0.500000 0.594730 0.750000
O O2 0.554402 0.574994 0.500652
O O3 0.500000 0.660764 0.520442
O O4 0.106004 0.050846 0.250000
O O5 0.163546 0.091416 0.476233
O O6 0.126905 0.000000 0.500000
O O7 0.672428 0.367632 0.250000
O O8 0.747475 0.347881 0.022881
O O9 0.641938 0.311357 0.019066
O O10 0.114311 0.775048 0.750000
O O11 0.152219 0.710840 0.966380
O O12 0.053954 0.752326 0.995735
O O13 0.228972 0.290321 0.250000
O O14 0.250000 0.250000 0.500000
O O15 0.000000 0.227500 0.750000
#
# Coordination Sequence:
#
# PCOD8255855 Si02
#       6
#     8  16  16  16  16   8
#     4  11  22  36  49  61  83 113 148 187 229 263
#     4  12  24  36  49  64  83 110 147 187 227 264
#     4  10  18  31  47  64  86 110 139 178 220 260
#     4  10  18  29  45  65  86 112 145 177 212 257
#     4   8  16  28  44  64  85 108 136 172 213 256
#     4  11  21  30  44  63  88 119 147 182 223 256
#
# _framework density 14.77782
#
# number of rings (size 3 to 8) (size 9 to 14) (size 15 to 20)
#    0.000    1.800    2.000    3.900    0.000    2.400 
#    0.000    0.000    0.000    0.000    0.000    0.000 
#    0.000    0.000    0.000    0.900    0.000   10.000 
#
# Total GULP energy -495628.293919 kJ/mol
# GULP energy per Si atom -12390.707348 kJ/mol
# Density = 1.474418 g / cm^3
# Si number density = 14.777820 Si / 1000 Ang^3
#
#
#
# Elastic Constant Matrix: (Units=GPa)
#
#
# Indices 1 2 3 4 5 6 
#
# 1 110.9060 59.6065 31.8517 0.0000 0.0000 0.0000
# 2 59.6065 66.1931 29.6119 0.0000 0.0000 0.0000
# 3 31.8517 29.6119 57.1879 0.0000 0.0000 0.0000
# 4 0.0000 0.0000 0.0000 19.2293 0.0000 0.0000
# 5 0.0000 0.0000 0.0000 0.0000 16.7744 0.0000
# 6 0.0000 0.0000 0.0000 0.0000 0.0000 11.3021
#
#
#
# Elastic Compliance Matrix: (Units=1/GPa)
#
#
# Indices 1 2 3 4 5 6 
#
# 1 0.017662 -0.014972 -0.002085 0.000000 0.000000 0.000000
# 2 -0.014972 0.032353 -0.008414 0.000000 0.000000 0.000000
# 3 -0.002085 -0.008414 0.023004 0.000000 0.000000 0.000000
# 4 0.000000 0.000000 0.000000 0.052004 0.000000 0.000000
# 5 0.000000 0.000000 0.000000 0.000000 0.059615 0.000000
# 6 0.000000 0.000000 0.000000 0.000000 0.000000 0.088479
#
#
# Mechanical properties :
#
#
# Convention : Reuss Voigt Hill
#
# Bulk Modulus (GPa) = 45.29257 52.93634 49.11446
# Shear Modulus (GPa) = 15.08674 17.00896 16.04785
#
# Velocity S-wave (km/s) = 3.19863 3.39629 3.29894
# Velocity P-wave (km/s) = 6.66012 7.16093 6.91506
#
# Compressibility (1/GPa) = 0.02207867
#
# Stress axis : x y z
#
# Youngs Moduli (GPa) = 56.61861 30.90870 43.47086
#
# Poissons Ratio (x) = 0.46276 0.09062
# Poissons Ratio (y) = 0.84769 0.36575
# Poissons Ratio (z) = 0.11803 0.26006
#
# Static dielectric constant tensor:
#      x y z
#    x 3.378060 0.000000 0.000000 
#    y 0.000000 2.869660 0.000000 
#    z 0.000000 0.000000 2.975650 
# 
# 
# High freq. dielectric constant tensor:
#      x y z
#    x 1.563600 0.000000 0.000000 
#    y 0.000000 1.522700 0.000000 
#    z 0.000000 0.000000 1.586090 
# 
# From -- ./inp_files/8059.got.cif
#   From: 2010.03.12/outbox.cif.g09.slc.cpg/sg63_5_cif.got.tgz:8059.got - 2010.04.10 19:34:48.
