data_PCOD8255345
_publ_section_title
;
Structure prediction by ZEFSAII (Michael W. Deem and Ramdas Pophale) SiO2 
 PCOD8255345
Probable space group: C M C M
;
_chemical_formula_sum "Si O2"
_cell_formula_units_Z 88
_cell_length_a 9.799142
_cell_length_b 20.359058
_cell_length_c 24.294862
_cell_angle_alpha 90.000000
_cell_angle_beta 90.000000
_cell_angle_gamma 90.000000
_cell_volume 4846.856560
_symmetry_space_group_name_H-M "C M C M"
_symmetry_group_IT_number 63
_symmetry_cell_setting 'orthorhombic'
loop_
_space_group_symop_operation_xyz
x,y,z
-x,-y,1/2+z
x,-y,-z
-x,y,1/2-z
-x,-y,-z
x,y,1/2-z
-x,y,z
x,-y,1/2+z
1/2+x,1/2+y,z
1/2-x,1/2-y,1/2+z
1/2+x,1/2-y,-z
1/2-x,1/2+y,1/2-z
1/2-x,1/2-y,-z
1/2+x,1/2+y,1/2-z
1/2-x,1/2+y,z
1/2+x,1/2-y,1/2+z
loop_
_atom_site_type_symbol
_atom_site_label
_atom_site_fract_x
_atom_site_fract_y
_atom_site_fract_z
Si Si1 0.848754 0.907241 0.870314
Si Si2 0.652895 0.212073 0.250000
Si Si3 0.156976 0.573505 0.750000
Si Si4 0.750548 0.927214 0.750000
Si Si5 0.841948 0.620359 0.634762
Si Si6 0.654728 0.736793 0.348372
Si Si7 0.838188 0.502469 0.562896
O O1 0.842239 0.920566 0.804777
O O2 0.827111 0.829560 0.883703
O O3 0.000000 0.928996 0.889856
O O4 0.732249 0.944282 0.903469
O O5 0.500000 0.240341 0.250000
O O6 0.643892 0.132871 0.250000
O O7 0.733012 0.239739 0.198349
O O8 0.169827 0.495070 0.750000
O O9 0.225850 0.604061 0.805318
O O10 0.000000 0.593717 0.750000
O O11 0.819099 0.696272 0.616601
O O12 0.784597 0.571792 0.587726
O O13 0.000000 0.602939 0.640120
O O14 0.500000 0.738695 0.323856
O O15 0.790221 0.500000 0.500000
O O16 0.000000 0.492071 0.568034
#
# Coordination Sequence:
#
# PCOD8255345 Si02
#       7
#    16   8   8   8  16  16  16
#     4  10  20  34  54  79 106 139 173 210 258 312
#     4  10  19  28  45  75 112 142 166 207 260 306
#     4  10  16  24  48  80 102 129 172 213 250 297
#     4  10  18  30  49  77 110 139 168 204 256 313
#     4   9  17  31  53  77 101 133 176 215 251 304
#     4   9  18  33  52  72 101 140 178 208 246 312
#     4  10  21  37  57  79 102 133 177 226 267 305
#
# _framework density 18.156096999999999
#
# number of rings (size 3 to 8) (size 9 to 14) (size 15 to 20)
#    0.000    2.364    1.818    1.364    0.000    6.909 
#    0.000    1.818    0.000    0.000    0.000    0.000 
#    0.000    0.000    0.000    0.000    0.000    0.000 
#
# Total GULP energy -545225.249885 kJ/mol
# GULP energy per Si atom -12391.482952 kJ/mol
# Density = 1.811477 g / cm^3
# Si number density = 18.156097 Si / 1000 Ang^3
#
#
#
# Elastic Constant Matrix: (Units=GPa)
#
#
# Indices 1 2 3 4 5 6 
#
# 1 71.9773 31.9888 25.8560 0.0000 0.0000 0.0000
# 2 31.9888 140.8817 55.7593 0.0000 0.0000 0.0000
# 3 25.8560 55.7593 97.3213 0.0000 0.0000 0.0000
# 4 0.0000 0.0000 0.0000 10.6971 0.0000 0.0000
# 5 0.0000 0.0000 0.0000 0.0000 15.6181 0.0000
# 6 0.0000 0.0000 0.0000 0.0000 0.0000 22.4874
#
#
#
# Elastic Compliance Matrix: (Units=1/GPa)
#
#
# Indices 1 2 3 4 5 6 
#
# 1 0.016026 -0.002527 -0.002810 0.000000 0.000000 0.000000
# 2 -0.002527 0.009578 -0.004816 0.000000 0.000000 0.000000
# 3 -0.002810 -0.004816 0.013781 0.000000 0.000000 0.000000
# 4 0.000000 0.000000 0.000000 0.093484 0.000000 0.000000
# 5 0.000000 0.000000 0.000000 0.000000 0.064028 0.000000
# 6 0.000000 0.000000 0.000000 0.000000 0.000000 0.044469
#
#
# Mechanical properties :
#
#
# Convention : Reuss Voigt Hill
#
# Bulk Modulus (GPa) = 52.41390 59.70983 56.06187
# Shear Modulus (GPa) = 18.65449 22.86560 20.76004
#
# Velocity S-wave (km/s) = 3.20886 3.55264 3.38512
# Velocity P-wave (km/s) = 6.53148 7.05596 6.79878
#
# Compressibility (1/GPa) = 0.01907891
#
# Stress axis : x y z
#
# Youngs Moduli (GPa) = 62.40010 104.40437 72.56193
#
# Poissons Ratio (x) = 0.26379 0.20390
# Poissons Ratio (y) = 0.15766 0.34949
# Poissons Ratio (z) = 0.17535 0.50286
#
# Static dielectric constant tensor:
#      x y z
#    x 3.042790 0.000000 0.000000 
#    y 0.000000 3.556400 0.000000 
#    z 0.000000 0.000000 3.252720 
# 
# 
# High freq. dielectric constant tensor:
#      x y z
#    x 1.675050 0.000000 0.000000 
#    y 0.000000 1.719850 0.000000 
#    z 0.000000 0.000000 1.669370 
# 
# From -- ./inp_files/59699.got.cif
#   From: 2010.03.12/outbox.cif.g09.slc.cpg/sg63_30_cif.got.tgz:59699.got - 2010.04.10 19:34:48.
