data_PCOD8255408
_publ_section_title
;
Structure prediction by ZEFSAII (Michael W. Deem and Ramdas Pophale) SiO2 
 PCOD8255408
Probable space group: C M C M
;
_chemical_formula_sum "Si O2"
_cell_formula_units_Z 96
_cell_length_a 16.645493
_cell_length_b 18.458426
_cell_length_c 16.741104
_cell_angle_alpha 90.000000
_cell_angle_beta 90.000000
_cell_angle_gamma 90.000000
_cell_volume 5143.697521
_symmetry_space_group_name_H-M "C M C M"
_symmetry_group_IT_number 63
_symmetry_cell_setting 'orthorhombic'
loop_
_space_group_symop_operation_xyz
x,y,z
-x,-y,1/2+z
x,-y,-z
-x,y,1/2-z
-x,-y,-z
x,y,1/2-z
-x,y,z
x,-y,1/2+z
1/2+x,1/2+y,z
1/2-x,1/2-y,1/2+z
1/2+x,1/2-y,-z
1/2-x,1/2+y,1/2-z
1/2-x,1/2-y,-z
1/2+x,1/2+y,1/2-z
1/2-x,1/2+y,z
1/2+x,1/2-y,1/2+z
loop_
_atom_site_type_symbol
_atom_site_label
_atom_site_fract_x
_atom_site_fract_y
_atom_site_fract_z
Si Si1 0.907619 0.528274 0.657734
Si Si2 0.670171 0.495134 0.905264
Si Si3 0.500000 0.325522 0.156063
Si Si4 0.168498 0.243027 0.842013
Si Si5 0.279222 0.874484 0.407128
Si Si6 0.500000 0.518490 0.907735
Si Si7 0.309303 0.897884 0.908077
O O1 0.898399 0.506398 0.750000
O O2 0.859896 0.603515 0.641011
O O3 0.874079 0.461972 0.604113
O O4 0.000000 0.541430 0.634522
O O5 0.710682 0.569803 0.877242
O O6 0.581086 0.486747 0.867156
O O7 0.722825 0.426929 0.877557
O O8 0.664357 0.500000 0.000000
O O9 0.500000 0.344584 0.250000
O O10 0.579765 0.281717 0.131025
O O11 0.500000 0.395718 0.101335
O O12 0.182598 0.225829 0.750000
O O13 0.242428 0.204653 0.888821
O O14 0.169423 0.328530 0.856427
O O15 0.303516 0.878229 0.499303
O O16 0.500000 0.500000 0.000000
#
# Coordination Sequence:
#
# PCOD8255408 Si02
#       7
#    16  16   8  16  16   8  16
#     4  10  21  37  58  83 112 145 185 232 284 337
#     4   8  16  30  53  80 106 137 173 220 266 315
#     4  10  22  36  54  84 113 142 182 227 277 331
#     4  11  22  37  56  80 115 149 183 229 284 340
#     4  10  19  36  57  79 108 147 188 226 269 337
#     4  10  16  32  58  82 110 138 180 224 266 320
#     4  10  21  35  55  84 113 142 183 233 283 329
#
# _framework density 18.663616999999999
#
# number of rings (size 3 to 8) (size 9 to 14) (size 15 to 20)
#    0.000    2.167    1.667    3.000    1.167    1.333 
#    0.000    0.833    1.833    0.000    0.000    0.000 
#    0.000    0.000    0.000    0.000    0.000    0.000 
#
# Total GULP energy -594954.883740 kJ/mol
# GULP energy per Si atom -12394.893411 kJ/mol
# Density = 1.862114 g / cm^3
# Si number density = 18.663617 Si / 1000 Ang^3
#
#
#
# Elastic Constant Matrix: (Units=GPa)
#
#
# Indices 1 2 3 4 5 6 
#
# 1 165.0821 46.5958 22.1224 0.0000 0.0000 0.0000
# 2 46.5958 86.4951 5.5467 0.0000 0.0000 0.0000
# 3 22.1224 5.5467 35.4734 0.0000 0.0000 0.0000
# 4 0.0000 0.0000 0.0000 27.9712 0.0000 0.0000
# 5 0.0000 0.0000 0.0000 0.0000 23.6634 0.0000
# 6 0.0000 0.0000 0.0000 0.0000 0.0000 25.8247
#
#
#
# Elastic Compliance Matrix: (Units=1/GPa)
#
#
# Indices 1 2 3 4 5 6 
#
# 1 0.007719 -0.003888 -0.004206 0.000000 0.000000 0.000000
# 2 -0.003888 0.013637 0.000293 0.000000 0.000000 0.000000
# 3 -0.004206 0.000293 0.030767 0.000000 0.000000 0.000000
# 4 0.000000 0.000000 0.000000 0.035751 0.000000 0.000000
# 5 0.000000 0.000000 0.000000 0.000000 0.042259 0.000000
# 6 0.000000 0.000000 0.000000 0.000000 0.000000 0.038723
#
#
# Mechanical properties :
#
#
# Convention : Reuss Voigt Hill
#
# Bulk Modulus (GPa) = 27.38206 48.39782 37.88994
# Shear Modulus (GPa) = 25.42812 29.67758 27.55285
#
# Velocity S-wave (km/s) = 3.69513 3.99197 3.84642
# Velocity P-wave (km/s) = 5.73660 6.87282 6.33025
#
# Compressibility (1/GPa) = 0.03652026
#
# Stress axis : x y z
#
# Youngs Moduli (GPa) = 129.55480 73.32808 32.50212
#
# Poissons Ratio (x) = 0.28513 0.13669
# Poissons Ratio (y) = 0.50377 -0.00951
# Poissons Ratio (z) = 0.54486 -0.02146
#
# Static dielectric constant tensor:
#      x y z
#    x 3.985540 0.000000 0.000000 
#    y 0.000000 3.313530 0.000000 
#    z 0.000000 0.000000 3.148940 
# 
# 
# High freq. dielectric constant tensor:
#      x y z
#    x 1.739010 0.000000 0.000000 
#    y 0.000000 1.707800 0.000000 
#    z 0.000000 0.000000 1.709700 
# 
# From -- ./inp_files/45817.got.cif
#   From: 2010.03.12/outbox.cif.g09.slc.cpg/sg63_23_cif.got.tgz:45817.got - 2010.04.10 19:34:48.
