data_PCOD8255337
_publ_section_title
;
Structure prediction by ZEFSAII (Michael W. Deem and Ramdas Pophale) SiO2 
 PCOD8255337
Probable space group: C M C M
;
_chemical_formula_sum "Si O2"
_cell_formula_units_Z 96
_cell_length_a 20.424704
_cell_length_b 17.348754
_cell_length_c 16.125505
_cell_angle_alpha 90.000000
_cell_angle_beta 90.000000
_cell_angle_gamma 90.000000
_cell_volume 5713.962482
_symmetry_space_group_name_H-M "C M C M"
_symmetry_group_IT_number 63
_symmetry_cell_setting 'orthorhombic'
loop_
_space_group_symop_operation_xyz
x,y,z
-x,-y,1/2+z
x,-y,-z
-x,y,1/2-z
-x,-y,-z
x,y,1/2-z
-x,y,z
x,-y,1/2+z
1/2+x,1/2+y,z
1/2-x,1/2-y,1/2+z
1/2+x,1/2-y,-z
1/2-x,1/2+y,1/2-z
1/2-x,1/2-y,-z
1/2+x,1/2+y,1/2-z
1/2-x,1/2+y,z
1/2+x,1/2-y,1/2+z
loop_
_atom_site_type_symbol
_atom_site_label
_atom_site_fract_x
_atom_site_fract_y
_atom_site_fract_z
Si Si1 0.233256 0.850142 0.341972
Si Si2 0.158193 0.456726 0.083138
Si Si3 0.122159 0.609982 0.157510
Si Si4 0.818353 0.797688 0.500818
Si Si5 0.765020 0.176138 0.160030
Si Si6 0.426381 0.172069 0.996520
O O1 0.204055 0.870026 0.250000
O O2 0.282452 0.916712 0.369600
O O3 0.177187 0.845093 0.414066
O O4 0.270442 0.768759 0.335646
O O5 0.127859 0.518255 0.146462
O O6 0.183608 0.500000 0.000000
O O7 0.102138 0.395669 0.060546
O O8 0.097085 0.627987 0.250000
O O9 0.191232 0.651296 0.139664
O O10 0.071261 0.644982 0.092248
O O11 0.750000 0.750000 0.500000
O O12 0.811665 0.851840 0.583780
O O13 0.883027 0.748003 0.512590
O O14 0.786912 0.141758 0.250000
O O15 0.500000 0.190789 0.967527
#
# Coordination Sequence:
#
# PCOD8255337 Si02
#       6
#    16  16  16  16  16  16
#     4  10  17  28  51  73  89 120 166 210 248 284
#     4  10  19  31  46  67  96 134 165 197 235 283
#     4  10  19  31  46  69  97 127 164 200 239 288
#     4  10  15  31  51  69  85 121 163 203 247 286
#     4   9  16  28  51  72  87 118 163 211 251 286
#     4  11  21  32  46  66  96 132 171 200 232 283
#
# _framework density 16.800951000000001
#
# number of rings (size 3 to 8) (size 9 to 14) (size 15 to 20)
#    0.000    2.000    6.667    1.500    0.000    3.333 
#    0.000    0.000    0.000    4.000    0.000    0.000 
#    0.000    6.000    0.000    7.833    0.000    0.000 
#
# Total GULP energy -594647.729984 kJ/mol
# GULP energy per Si atom -12388.494375 kJ/mol
# Density = 1.676271 g / cm^3
# Si number density = 16.800951 Si / 1000 Ang^3
#
#
#
# Elastic Constant Matrix: (Units=GPa)
#
#
# Indices 1 2 3 4 5 6 
#
# 1 69.1497 31.5619 28.1672 0.0000 0.0000 0.0000
# 2 31.5619 18.2536 18.1731 0.0000 0.0000 0.0000
# 3 28.1672 18.1731 122.7407 0.0000 0.0000 0.0000
# 4 0.0000 0.0000 0.0000 16.6718 0.0000 0.0000
# 5 0.0000 0.0000 0.0000 0.0000 10.5890 0.0000
# 6 0.0000 0.0000 0.0000 0.0000 0.0000 15.5850
#
#
#
# Elastic Compliance Matrix: (Units=1/GPa)
#
#
# Indices 1 2 3 4 5 6 
#
# 1 0.069084 -0.121591 0.002149 0.000000 0.000000 0.000000
# 2 -0.121591 0.278263 -0.013297 0.000000 0.000000 0.000000
# 3 0.002149 -0.013297 0.009623 0.000000 0.000000 0.000000
# 4 0.000000 0.000000 0.000000 0.059982 0.000000 0.000000
# 5 0.000000 0.000000 0.000000 0.000000 0.094438 0.000000
# 6 0.000000 0.000000 0.000000 0.000000 0.000000 0.064164
#
#
# Mechanical properties :
#
#
# Convention : Reuss Voigt Hill
#
# Bulk Modulus (GPa) = 10.92986 40.66093 25.79540
# Shear Modulus (GPa) = 5.73705 17.38525 11.56115
#
# Velocity S-wave (km/s) = 1.84990 3.22029 2.62606
# Velocity P-wave (km/s) = 3.32903 6.17099 4.95800
#
# Compressibility (1/GPa) = 0.09149244
#
# Stress axis : x y z
#
# Youngs Moduli (GPa) = 14.47520 3.59372 103.92042
#
# Poissons Ratio (x) = 0.43696 -0.22335
# Poissons Ratio (y) = 1.76006 1.38179
# Poissons Ratio (z) = -0.03111 0.04778
#
# Static dielectric constant tensor:
#      x y z
#    x 2.647580 0.000000 0.000000 
#    y 0.000000 3.029020 0.000000 
#    z 0.000000 0.000000 4.150900 
# 
# 
# High freq. dielectric constant tensor:
#      x y z
#    x 1.584720 0.000000 0.000000 
#    y 0.000000 1.621060 0.000000 
#    z 0.000000 0.000000 1.679560 
# 
# From -- ./inp_files/47225.got.cif
#   From: 2010.03.12/outbox.cif.g09.slc.cpg/sg63_24_cif.got.tgz:47225.got - 2010.04.10 19:34:48.
