data_PCOD8255203
_publ_section_title
;
Structure prediction by ZEFSAII (Michael W. Deem and Ramdas Pophale) SiO2 
 PCOD8255203
Probable space group: P N M A
;
_chemical_formula_sum "Si O2"
_cell_formula_units_Z 40
_cell_length_a 8.644359
_cell_length_b 22.920826
_cell_length_c 9.053048
_cell_angle_alpha 90.000000
_cell_angle_beta 90.000000
_cell_angle_gamma 90.000000
_cell_volume 1793.733347
_symmetry_space_group_name_H-M "P N M A"
_symmetry_group_IT_number 62
_symmetry_cell_setting 'orthorhombic'
loop_
_space_group_symop_operation_xyz
x,y,z
1/2-x,-y,1/2+z
1/2+x,1/2-y,1/2-z
-x,1/2+y,-z
-x,-y,-z
1/2+x,y,1/2-z
1/2-x,1/2+y,1/2+z
x,1/2-y,z
loop_
_atom_site_type_symbol
_atom_site_label
_atom_site_fract_x
_atom_site_fract_y
_atom_site_fract_z
Si Si1 0.696347 0.103895 0.190186
Si Si2 0.039777 0.124458 0.738759
Si Si3 0.352488 0.988446 0.400037
Si Si4 0.126162 0.910294 0.549208
Si Si5 0.199727 0.818075 0.070338
O O1 0.521510 0.083857 0.158680
O O2 0.736418 0.124043 0.359317
O O3 0.807964 0.047895 0.179316
O O4 0.744817 0.156401 0.084807
O O5 0.921349 0.122590 0.600604
O O6 0.958772 0.150485 0.883215
O O7 0.109603 0.060839 0.776808
O O8 0.175104 0.168930 0.696516
O O9 0.203977 0.971520 0.500843
O O10 0.500000 0.000000 0.500000
O O11 0.172402 0.750000 0.051628
#
# Coordination Sequence:
#
# PCOD8255203 Si02
#       5
#     8   8   8   8   8
#     4  11  26  41  66 101 139 186 222 286 349 419
#     4  11  24  44  70 102 136 183 233 294 347 415
#     4  12  24  40  69 103 145 179 227 285 356 422
#     4  11  26  43  66 100 140 179 228 275 353 421
#     4  11  24  46  69  97 135 184 242 288 343 417
#
# _framework density 22.299858
#
# number of rings (size 3 to 8) (size 9 to 14) (size 15 to 20)
#    0.000    0.800    4.000    2.400   11.200    0.000 
#    0.000    5.000    0.000    0.000    0.000    0.000 
#    0.000    0.000    0.000    0.000    0.000    0.000 
#
# Total GULP energy -495772.740421 kJ/mol
# GULP energy per Si atom -12394.318511 kJ/mol
# Density = 2.224910 g / cm^3
# Si number density = 22.299858 Si / 1000 Ang^3
#
#
#
# Elastic Constant Matrix: (Units=GPa)
#
#
# Indices 1 2 3 4 5 6 
#
# 1 95.4655 37.4464 41.4132 0.0000 0.0000 0.0000
# 2 37.4464 104.0417 18.4157 0.0000 0.0000 0.0000
# 3 41.4132 18.4157 86.9579 0.0000 0.0000 0.0000
# 4 0.0000 0.0000 0.0000 26.9376 0.0000 0.0000
# 5 0.0000 0.0000 0.0000 0.0000 57.1644 0.0000
# 6 0.0000 0.0000 0.0000 0.0000 0.0000 28.0306
#
#
#
# Elastic Compliance Matrix: (Units=1/GPa)
#
#
# Indices 1 2 3 4 5 6 
#
# 1 0.014808 -0.004240 -0.006154 0.000000 0.000000 0.000000
# 2 -0.004240 0.011200 -0.000352 0.000000 0.000000 0.000000
# 3 -0.006154 -0.000352 0.014505 0.000000 0.000000 0.000000
# 4 0.000000 0.000000 0.000000 0.037123 0.000000 0.000000
# 5 0.000000 0.000000 0.000000 0.000000 0.017493 0.000000
# 6 0.000000 0.000000 0.000000 0.000000 0.000000 0.035675
#
#
# Mechanical properties :
#
#
# Convention : Reuss Voigt Hill
#
# Bulk Modulus (GPa) = 52.57797 53.44620 53.01208
# Shear Modulus (GPa) = 31.51813 35.03917 33.27865
#
# Velocity S-wave (km/s) = 3.76357 3.96823 3.86725
# Velocity P-wave (km/s) = 6.52034 6.70931 6.61550
#
# Compressibility (1/GPa) = 0.01901937
#
# Stress axis : x y z
#
# Youngs Moduli (GPa) = 67.53116 89.28499 68.93998
#
# Poissons Ratio (x) = 0.37860 0.42427
# Poissons Ratio (y) = 0.28635 0.02430
# Poissons Ratio (z) = 0.41560 0.03147
#
# Static dielectric constant tensor:
#      x y z
#    x 4.387610 0.000000 0.000000 
#    y 0.000000 3.590730 0.000000 
#    z 0.000000 0.000000 4.533550 
# 
# 
# High freq. dielectric constant tensor:
#      x y z
#    x 1.901320 0.000000 0.000000 
#    y 0.000000 1.834040 0.000000 
#    z 0.000000 0.000000 1.895000 
# 
# From -- ./inp_files/4279.got.cif
#   From: 2010.03.12/outbox.cif.g09.slc.cpg/sg62_3_cif.got.tgz:4279.got - 2010.04.10 19:12:36.
