data_PCOD8255269
_publ_section_title
;
Structure prediction by ZEFSAII (Michael W. Deem and Ramdas Pophale) SiO2 
 PCOD8255269
Probable space group: P N M A
;
_chemical_formula_sum "Si O2"
_cell_formula_units_Z 32
_cell_length_a 17.448271
_cell_length_b 12.704381
_cell_length_c 5.500146
_cell_angle_alpha 90.000000
_cell_angle_beta 90.000000
_cell_angle_gamma 90.000000
_cell_volume 1219.214518
_symmetry_space_group_name_H-M "P N M A"
_symmetry_group_IT_number 62
_symmetry_cell_setting 'orthorhombic'
loop_
_space_group_symop_operation_xyz
x,y,z
1/2-x,-y,1/2+z
1/2+x,1/2-y,1/2-z
-x,1/2+y,-z
-x,-y,-z
1/2+x,y,1/2-z
1/2-x,1/2+y,1/2+z
x,1/2-y,z
loop_
_atom_site_type_symbol
_atom_site_label
_atom_site_fract_x
_atom_site_fract_y
_atom_site_fract_z
Si Si1 0.532402 0.750000 0.341759
Si Si2 0.435531 0.750000 0.850250
Si Si3 0.919155 0.050034 0.052597
Si Si4 0.318962 0.576659 0.735561
Si Si5 0.333123 0.368358 0.027681
O O1 0.480644 0.750000 0.590584
O O2 0.586166 0.855213 0.349461
O O3 0.486444 0.750000 0.091764
O O4 0.381590 0.647510 0.872676
O O5 0.855488 0.958787 0.024250
O O6 0.909828 0.101609 0.319028
O O7 0.000000 0.000000 0.000000
O O8 0.239903 0.639977 0.712079
O O9 0.307507 0.462651 0.855832
O O10 0.345514 0.250000 0.916082
#
# Coordination Sequence:
#
# PCOD8255269 Si02
#       5
#     4   4   8   8   8
#     4  12  28  47  77 116 162 208 265 333 400 471
#     4  12  28  51  79 118 162 210 267 333 402 481
#     4  12  26  47  75 111 155 203 268 325 404 476
#     4  12  27  48  78 112 156 215 263 338 404 483
#     4  12  27  48  75 114 157 204 272 328 407 483
#
# _framework density 26.246407000000001
#
# number of rings (size 3 to 8) (size 9 to 14) (size 15 to 20)
#    0.000    0.000    7.500    1.500    5.250    2.000 
#    2.250    0.000    0.000    0.000    0.000    0.000 
#    0.000    0.000    0.000    0.000    0.000    0.000 
#
# Total GULP energy -396520.951773 kJ/mol
# GULP energy per Si atom -12391.279743 kJ/mol
# Density = 2.618667 g / cm^3
# Si number density = 26.246407 Si / 1000 Ang^3
#
#
#
# Elastic Constant Matrix: (Units=GPa)
#
#
# Indices 1 2 3 4 5 6 
#
# 1 85.4458 24.9538 4.8900 0.0000 0.0000 0.0000
# 2 24.9538 163.7062 12.6653 0.0000 0.0000 0.0000
# 3 4.8900 12.6653 74.3629 0.0000 0.0000 0.0000
# 4 0.0000 0.0000 0.0000 41.2525 0.0000 0.0000
# 5 0.0000 0.0000 0.0000 0.0000 34.1254 0.0000
# 6 0.0000 0.0000 0.0000 0.0000 0.0000 48.5465
#
#
#
# Elastic Compliance Matrix: (Units=1/GPa)
#
#
# Indices 1 2 3 4 5 6 
#
# 1 0.012267 -0.001832 -0.000495 0.000000 0.000000 0.000000
# 2 -0.001832 0.006464 -0.000980 0.000000 0.000000 0.000000
# 3 -0.000495 -0.000980 0.013647 0.000000 0.000000 0.000000
# 4 0.000000 0.000000 0.000000 0.024241 0.000000 0.000000
# 5 0.000000 0.000000 0.000000 0.000000 0.029304 0.000000
# 6 0.000000 0.000000 0.000000 0.000000 0.000000 0.020599
#
#
# Mechanical properties :
#
#
# Convention : Reuss Voigt Hill
#
# Bulk Modulus (GPa) = 38.81401 45.39256 42.10329
# Shear Modulus (GPa) = 41.07727 43.51859 42.29793
#
# Velocity S-wave (km/s) = 3.96038 4.07637 4.01879
# Velocity P-wave (km/s) = 5.97773 6.28395 6.13275
#
# Compressibility (1/GPa) = 0.02576389
#
# Stress axis : x y z
#
# Youngs Moduli (GPa) = 81.52276 154.71418 73.27576
#
# Poissons Ratio (x) = 0.28336 0.03625
# Poissons Ratio (y) = 0.14931 0.07184
# Poissons Ratio (z) = 0.04033 0.15168
#
# Static dielectric constant tensor:
#      x y z
#    x 5.280490 0.000000 0.000000 
#    y 0.000000 5.560680 0.000000 
#    z 0.000000 0.000000 4.933410 
# 
# 
# High freq. dielectric constant tensor:
#      x y z
#    x 2.071730 0.000000 0.000000 
#    y 0.000000 2.084180 0.000000 
#    z 0.000000 0.000000 2.040700 
# 
# From -- ./inp_files/1464.got.cif
#   From: 2010.03.12/outbox.cif.g09.slc.cpg/sg62_1_cif.got.tgz:1464.got - 2010.04.10 19:12:36.
