data_PCOD8255266
_publ_section_title
;
Structure prediction by ZEFSAII (Michael W. Deem and Ramdas Pophale) SiO2 
 PCOD8255266
Probable space group: P N M A
;
_chemical_formula_sum "Si O2"
_cell_formula_units_Z 40
_cell_length_a 9.053476
_cell_length_b 23.854345
_cell_length_c 8.611637
_cell_angle_alpha 90.000000
_cell_angle_beta 90.000000
_cell_angle_gamma 90.000000
_cell_volume 1859.809945
_symmetry_space_group_name_H-M "P N M A"
_symmetry_group_IT_number 62
_symmetry_cell_setting 'orthorhombic'
loop_
_space_group_symop_operation_xyz
x,y,z
1/2-x,-y,1/2+z
1/2+x,1/2-y,1/2-z
-x,1/2+y,-z
-x,-y,-z
1/2+x,y,1/2-z
1/2-x,1/2+y,1/2+z
x,1/2-y,z
loop_
_atom_site_type_symbol
_atom_site_label
_atom_site_fract_x
_atom_site_fract_y
_atom_site_fract_z
Si Si1 0.886256 0.958037 0.932951
Si Si2 0.038257 0.150708 0.907467
Si Si3 0.447997 0.750000 0.912126
Si Si4 0.695782 0.250000 0.425578
Si Si5 0.856547 0.974388 0.570775
Si Si6 0.805463 0.644652 0.413967
O O1 0.862375 0.966898 0.752786
O O2 0.944593 0.896183 0.961803
O O3 0.743614 0.972422 0.031713
O O4 0.000000 0.000000 0.000000
O O5 0.107395 0.132664 0.744197
O O6 0.864047 0.164875 0.888111
O O7 0.140078 0.199280 0.971699
O O8 0.626602 0.750000 0.907141
O O9 0.383325 0.750000 0.739986
O O10 0.391549 0.806185 0.995980
O O11 0.806509 0.914502 0.502986
O O12 0.000000 0.000000 0.500000
#
# Coordination Sequence:
#
# PCOD8255266 Si02
#       6
#     8   8   4   4   8   8
#     4  12  25  47  68 106 142 189 240 296 360 436
#     4  12  26  46  74 102 147 184 245 296 365 429
#     4  12  27  48  75 104 144 184 244 292 369 422
#     4  12  27  48  75 106 140 190 236 304 355 434
#     4  12  27  43  74 102 146 189 241 297 364 432
#     4  12  26  47  72 106 141 191 238 302 360 434
#
# _framework density 21.507574000000002
#
# number of rings (size 3 to 8) (size 9 to 14) (size 15 to 20)
#    0.000    0.000    2.000    8.400    5.600    0.000 
#    0.000    0.000    0.000    0.000    0.000    0.000 
#    0.000    0.000    0.000    0.000    0.000    0.000 
#
# Total GULP energy -495782.615542 kJ/mol
# GULP energy per Si atom -12394.565389 kJ/mol
# Density = 2.145862 g / cm^3
# Si number density = 21.507574 Si / 1000 Ang^3
#
#
#
# Elastic Constant Matrix: (Units=GPa)
#
#
# Indices 1 2 3 4 5 6 
#
# 1 188.8718 31.8610 41.3772 0.0000 0.0000 0.0000
# 2 31.8610 108.5022 24.6201 0.0000 0.0000 0.0000
# 3 41.3772 24.6201 161.6949 0.0000 0.0000 0.0000
# 4 0.0000 0.0000 0.0000 38.3301 0.0000 0.0000
# 5 0.0000 0.0000 0.0000 0.0000 40.6945 0.0000
# 6 0.0000 0.0000 0.0000 0.0000 0.0000 50.1143
#
#
#
# Elastic Compliance Matrix: (Units=1/GPa)
#
#
# Indices 1 2 3 4 5 6 
#
# 1 0.005812 -0.001418 -0.001271 0.000000 0.000000 0.000000
# 2 -0.001418 0.009892 -0.001143 0.000000 0.000000 0.000000
# 3 -0.001271 -0.001143 0.006684 0.000000 0.000000 0.000000
# 4 0.000000 0.000000 0.000000 0.026089 0.000000 0.000000
# 5 0.000000 0.000000 0.000000 0.000000 0.024573 0.000000
# 6 0.000000 0.000000 0.000000 0.000000 0.000000 0.019954
#
#
# Mechanical properties :
#
#
# Convention : Reuss Voigt Hill
#
# Bulk Modulus (GPa) = 67.92271 72.75395 70.33833
# Shear Modulus (GPa) = 47.35788 49.90847 48.63318
#
# Velocity S-wave (km/s) = 4.69755 4.82239 4.76038
# Velocity P-wave (km/s) = 7.81486 8.05654 7.93662
#
# Compressibility (1/GPa) = 0.01472262
#
# Stress axis : x y z
#
# Youngs Moduli (GPa) = 172.04645 101.08877 149.61281
#
# Poissons Ratio (x) = 0.14337 0.19022
# Poissons Ratio (y) = 0.24401 0.17105
# Poissons Ratio (z) = 0.21874 0.11557
#
# Static dielectric constant tensor:
#      x y z
#    x 4.229840 0.000000 0.000000 
#    y 0.000000 3.975990 0.000000 
#    z 0.000000 0.000000 4.859530 
# 
# 
# High freq. dielectric constant tensor:
#      x y z
#    x 1.872030 0.000000 0.000000 
#    y 0.000000 1.861930 0.000000 
#    z 0.000000 0.000000 1.863260 
# 
# From -- ./inp_files/4325.got.cif
#   From: 2010.03.12/outbox.cif.g09.slc.cpg/sg62_3_cif.got.tgz:4325.got - 2010.04.10 19:12:36.
