data_PCOD8255857
_publ_section_title
;
Structure prediction by ZEFSAII (Michael W. Deem and Ramdas Pophale) SiO2 
 PCOD8255857
Probable space group: C M C M
;
_chemical_formula_sum "Si O2"
_cell_formula_units_Z 88
_cell_length_a 24.363560
_cell_length_b 23.441892
_cell_length_c 9.363898
_cell_angle_alpha 90.000000
_cell_angle_beta 90.000000
_cell_angle_gamma 90.000000
_cell_volume 5347.983796
_symmetry_space_group_name_H-M "C M C M"
_symmetry_group_IT_number 63
_symmetry_cell_setting 'orthorhombic'
loop_
_space_group_symop_operation_xyz
x,y,z
-x,-y,1/2+z
x,-y,-z
-x,y,1/2-z
-x,-y,-z
x,y,1/2-z
-x,y,z
x,-y,1/2+z
1/2+x,1/2+y,z
1/2-x,1/2-y,1/2+z
1/2+x,1/2-y,-z
1/2-x,1/2+y,1/2-z
1/2-x,1/2-y,-z
1/2+x,1/2+y,1/2-z
1/2-x,1/2+y,z
1/2+x,1/2-y,1/2+z
loop_
_atom_site_type_symbol
_atom_site_label
_atom_site_fract_x
_atom_site_fract_y
_atom_site_fract_z
Si Si1 0.213444 0.667949 0.916238
Si Si2 0.500000 0.560594 0.917916
Si Si3 0.108181 0.128129 0.911504
Si Si4 0.794896 0.552676 0.410457
Si Si5 0.667563 0.451127 0.904975
Si Si6 0.673976 0.731297 0.589521
O O1 0.200616 0.657409 0.750000
O O2 0.276076 0.687216 0.941093
O O3 0.198238 0.611045 0.002645
O O4 0.173617 0.717645 0.976152
O O5 0.500000 0.547218 0.750000
O O6 0.550593 0.601666 0.962116
O O7 0.500000 0.500000 0.000000
O O8 0.120863 0.108337 0.750000
O O9 0.115700 0.196939 0.922449
O O10 0.156343 0.107636 0.015803
O O11 0.821864 0.500000 0.500000
O O12 0.821005 0.557393 0.250000
O O13 0.731476 0.537916 0.389710
O O14 0.639173 0.451696 0.750000
O O15 0.638596 0.500000 0.000000
O O16 0.680896 0.756224 0.750000
#
# Coordination Sequence:
#
# PCOD8255857 Si02
#       6
#    16   8  16  16  16  16
#     4  10  18  29  45  65  88 113 146 183 224 272
#     4  10  22  36  50  66  88 118 155 200 245 282
#     4  10  19  33  48  63  83 111 148 190 235 278
#     4  10  19  29  42  61  87 116 147 180 218 261
#     4  10  19  28  41  59  80 108 143 183 224 267
#     4   9  18  30  45  62  85 114 145 184 229 274
#
# _framework density 16.454799000000001
#
# number of rings (size 3 to 8) (size 9 to 14) (size 15 to 20)
#    0.000    2.182    1.818    2.182    0.000    5.091 
#    0.000    0.000    0.000    0.000    0.000    0.000 
#    0.000    0.000    0.000    0.818    0.000    8.182 
#
# Total GULP energy -545137.894814 kJ/mol
# GULP energy per Si atom -12389.497609 kJ/mol
# Density = 1.641735 g / cm^3
# Si number density = 16.454799 Si / 1000 Ang^3
#
#
#
# Elastic Constant Matrix: (Units=GPa)
#
#
# Indices 1 2 3 4 5 6 
#
# 1 31.6525 26.3804 17.8576 0.0000 0.0000 0.0000
# 2 26.3804 117.6559 70.9463 0.0000 0.0000 0.0000
# 3 17.8576 70.9463 124.9831 0.0000 0.0000 0.0000
# 4 0.0000 0.0000 0.0000 33.8337 0.0000 0.0000
# 5 0.0000 0.0000 0.0000 0.0000 9.6225 0.0000
# 6 0.0000 0.0000 0.0000 0.0000 0.0000 23.6165
#
#
#
# Elastic Compliance Matrix: (Units=1/GPa)
#
#
# Indices 1 2 3 4 5 6 
#
# 1 0.038924 -0.008171 -0.000923 0.000000 0.000000 0.000000
# 2 -0.008171 0.014638 -0.007142 0.000000 0.000000 0.000000
# 3 -0.000923 -0.007142 0.012187 0.000000 0.000000 0.000000
# 4 0.000000 0.000000 0.000000 0.029556 0.000000 0.000000
# 5 0.000000 0.000000 0.000000 0.000000 0.103923 0.000000
# 6 0.000000 0.000000 0.000000 0.000000 0.000000 0.042343
#
#
# Mechanical properties :
#
#
# Convention : Reuss Voigt Hill
#
# Bulk Modulus (GPa) = 30.05065 56.07333 43.06199
# Shear Modulus (GPa) = 17.53558 24.02168 20.77863
#
# Velocity S-wave (km/s) = 3.26802 3.82495 3.55740
# Velocity P-wave (km/s) = 5.70457 7.32518 6.56507
#
# Compressibility (1/GPa) = 0.03327715
#
# Stress axis : x y z
#
# Youngs Moduli (GPa) = 25.69129 68.31651 82.05480
#
# Poissons Ratio (x) = 0.55818 0.07577
# Poissons Ratio (y) = 0.20991 0.58601
# Poissons Ratio (z) = 0.02372 0.48789
#
# Static dielectric constant tensor:
#      x y z
#    x 2.640790 0.000000 0.000000 
#    y 0.000000 3.113710 0.000000 
#    z 0.000000 0.000000 3.429610 
# 
# 
# High freq. dielectric constant tensor:
#      x y z
#    x 1.556480 0.000000 0.000000 
#    y 0.000000 1.633440 0.000000 
#    z 0.000000 0.000000 1.652940 
# 
# From -- ./inp_files/14346.got.cif
#   From: 2010.03.12/outbox.cif.g09.slc.cpg/sg63_8_cif.got.tgz:14346.got - 2010.04.10 19:34:48.
