data_PCOD8255333
_publ_section_title
;
Structure prediction by ZEFSAII (Michael W. Deem and Ramdas Pophale) SiO2 
 PCOD8255333
Probable space group: C M C M
;
_chemical_formula_sum "Si O2"
_cell_formula_units_Z 88
_cell_length_a 32.219690
_cell_length_b 11.635689
_cell_length_c 13.730139
_cell_angle_alpha 90.000000
_cell_angle_beta 90.000000
_cell_angle_gamma 90.000000
_cell_volume 5147.405667
_symmetry_space_group_name_H-M "C M C M"
_symmetry_group_IT_number 63
_symmetry_cell_setting 'orthorhombic'
loop_
_space_group_symop_operation_xyz
x,y,z
-x,-y,1/2+z
x,-y,-z
-x,y,1/2-z
-x,-y,-z
x,y,1/2-z
-x,y,z
x,-y,1/2+z
1/2+x,1/2+y,z
1/2-x,1/2-y,1/2+z
1/2+x,1/2-y,-z
1/2-x,1/2+y,1/2-z
1/2-x,1/2-y,-z
1/2+x,1/2+y,1/2-z
1/2-x,1/2+y,z
1/2+x,1/2-y,1/2+z
loop_
_atom_site_type_symbol
_atom_site_label
_atom_site_fract_x
_atom_site_fract_y
_atom_site_fract_z
Si Si1 0.799823 0.369597 0.479293
Si Si2 0.280268 0.312571 0.135443
Si Si3 0.925595 0.000000 0.500000
Si Si4 0.641776 0.466671 0.360036
Si Si5 0.134494 0.762135 0.859387
Si Si6 0.044941 0.183890 0.139778
O O1 0.811075 0.500000 0.500000
O O2 0.762867 0.364550 0.401313
O O3 0.788521 0.307162 0.580475
O O4 0.840709 0.312583 0.435670
O O5 0.277704 0.286153 0.250000
O O6 0.315280 0.406642 0.109782
O O7 0.895333 0.923261 0.429987
O O8 0.955138 0.921559 0.564999
O O9 0.630181 0.433656 0.250000
O O10 0.645629 0.603856 0.373780
O O11 0.146282 0.724274 0.750000
O O12 0.085317 0.737276 0.879457
O O13 0.048977 0.134799 0.250000
O O14 0.000000 0.247861 0.127424
#
# Coordination Sequence:
#
# PCOD8255333 Si02
#       6
#    16  16   8  16  16  16
#     4  11  24  35  51  73 100 132 170 210 250 290
#     4  10  22  36  51  72 100 132 169 208 248 294
#     4  10  15  24  46  68 106 132 158 190 247 302
#     4   9  18  31  51  74  98 132 168 204 246 296
#     4   9  18  34  54  74  99 131 167 209 253 299
#     4   9  17  28  45  72 100 127 163 204 248 299
#
# _framework density 17.095991000000001
#
# number of rings (size 3 to 8) (size 9 to 14) (size 15 to 20)
#    0.000    2.364    0.000    4.636    6.364    1.455 
#    0.000    0.000    0.000    0.545    0.000    0.000 
#    0.000    0.000    0.000    0.000    0.000    0.000 
#
# Total GULP energy -545323.876739 kJ/mol
# GULP energy per Si atom -12393.724471 kJ/mol
# Density = 1.705708 g / cm^3
# Si number density = 17.095991 Si / 1000 Ang^3
#
#
#
# Elastic Constant Matrix: (Units=GPa)
#
#
# Indices 1 2 3 4 5 6 
#
# 1 121.0947 30.4061 37.9604 0.0000 0.0000 0.0000
# 2 30.4061 60.8697 23.3406 0.0000 0.0000 0.0000
# 3 37.9604 23.3406 91.1332 0.0000 0.0000 0.0000
# 4 0.0000 0.0000 0.0000 18.6574 0.0000 0.0000
# 5 0.0000 0.0000 0.0000 0.0000 22.1237 0.0000
# 6 0.0000 0.0000 0.0000 0.0000 0.0000 16.6827
#
#
#
# Elastic Compliance Matrix: (Units=1/GPa)
#
#
# Indices 1 2 3 4 5 6 
#
# 1 0.010258 -0.003865 -0.003283 0.000000 0.000000 0.000000
# 2 -0.003865 0.019674 -0.003429 0.000000 0.000000 0.000000
# 3 -0.003283 -0.003429 0.013219 0.000000 0.000000 0.000000
# 4 0.000000 0.000000 0.000000 0.053598 0.000000 0.000000
# 5 0.000000 0.000000 0.000000 0.000000 0.045200 0.000000
# 6 0.000000 0.000000 0.000000 0.000000 0.000000 0.059942
#
#
# Mechanical properties :
#
#
# Convention : Reuss Voigt Hill
#
# Bulk Modulus (GPa) = 45.46140 50.72353 48.09247
# Shear Modulus (GPa) = 21.70360 23.58547 22.64453
#
# Velocity S-wave (km/s) = 3.56689 3.71831 3.64339
# Velocity P-wave (km/s) = 6.60403 6.94037 6.77429
#
# Compressibility (1/GPa) = 0.02199668
#
# Stress axis : x y z
#
# Youngs Moduli (GPa) = 97.48888 50.82825 75.65154
#
# Poissons Ratio (x) = 0.19646 0.24834
# Poissons Ratio (y) = 0.37681 0.25940
# Poissons Ratio (z) = 0.32003 0.17428
#
# Static dielectric constant tensor:
#      x y z
#    x 3.421240 0.000000 0.000000 
#    y 0.000000 2.784780 0.000000 
#    z 0.000000 0.000000 3.448780 
# 
# 
# High freq. dielectric constant tensor:
#      x y z
#    x 1.669490 0.000000 0.000000 
#    y 0.000000 1.604180 0.000000 
#    z 0.000000 0.000000 1.681950 
# 
# From -- ./inp_files/38411.got.cif
#   From: 2010.03.12/outbox.cif.g09.slc.cpg/sg63_20_cif.got.tgz:38411.got - 2010.04.10 19:34:48.
