data_PCOD8255649
_publ_section_title
;
Structure prediction by ZEFSAII (Michael W. Deem and Ramdas Pophale) SiO2 
 PCOD8255649
Probable space group: C M C M
;
_chemical_formula_sum "Si O2"
_cell_formula_units_Z 80
_cell_length_a 25.101332
_cell_length_b 20.772570
_cell_length_c 8.672635
_cell_angle_alpha 90.000000
_cell_angle_beta 90.000000
_cell_angle_gamma 90.000000
_cell_volume 4522.078196
_symmetry_space_group_name_H-M "C M C M"
_symmetry_group_IT_number 63
_symmetry_cell_setting 'orthorhombic'
loop_
_space_group_symop_operation_xyz
x,y,z
-x,-y,1/2+z
x,-y,-z
-x,y,1/2-z
-x,-y,-z
x,y,1/2-z
-x,y,z
x,-y,1/2+z
1/2+x,1/2+y,z
1/2-x,1/2-y,1/2+z
1/2+x,1/2-y,-z
1/2-x,1/2+y,1/2-z
1/2-x,1/2-y,-z
1/2+x,1/2+y,1/2-z
1/2-x,1/2+y,z
1/2+x,1/2-y,1/2+z
loop_
_atom_site_type_symbol
_atom_site_label
_atom_site_fract_x
_atom_site_fract_y
_atom_site_fract_z
Si Si1 0.776134 0.932948 0.067025
Si Si2 0.886597 0.117601 0.566858
Si Si3 0.500000 0.755915 0.429763
Si Si4 0.500000 0.616728 0.568663
Si Si5 0.894586 0.736015 0.070594
Si Si6 0.779995 0.688969 0.430766
O O1 0.774957 0.934784 0.250000
O O2 0.836325 0.921737 0.001430
O O3 0.738404 0.876281 0.010496
O O4 0.754676 0.000000 0.000000
O O5 0.884888 0.115244 0.750000
O O6 0.881700 0.191520 0.512602
O O7 0.943638 0.087751 0.504780
O O8 0.500000 0.740406 0.250000
O O9 0.500000 0.691909 0.532107
O O10 0.554530 0.793117 0.477113
O O11 0.500000 0.608149 0.750000
O O12 0.908899 0.735506 0.250000
O O13 0.842949 0.693185 0.035255
O O14 0.767910 0.686924 0.250000
O O15 0.750000 0.750000 0.500000
#
# Coordination Sequence:
#
# PCOD8255649 Si02
#       6
#    16  16   8   8  16  16
#     4  11  22  37  52  74 105 141 182 223 271 320
#     4   8  14  28  49  69  94 132 175 213 254 308
#     4  10  18  26  42  75 108 131 163 212 261 299
#     4   8  14  28  47  65  91 133 175 212 259 311
#     4   9  17  32  51  72 101 139 173 205 259 320
#     4  11  21  35  56  81 106 138 178 222 268 317
#
# _framework density 17.690981000000001
#
# number of rings (size 3 to 8) (size 9 to 14) (size 15 to 20)
#    0.000    2.400    2.000    3.300    0.000    1.600 
#    0.000    1.500    0.000    0.000    0.000    0.700 
#    0.000    0.000    0.000    0.000    0.000    0.000 
#
# Total GULP energy -495617.698526 kJ/mol
# GULP energy per Si atom -12390.442463 kJ/mol
# Density = 1.765072 g / cm^3
# Si number density = 17.690981 Si / 1000 Ang^3
#
#
#
# Elastic Constant Matrix: (Units=GPa)
#
#
# Indices 1 2 3 4 5 6 
#
# 1 116.8546 50.5719 40.6236 0.0000 0.0000 0.0000
# 2 50.5719 93.8996 31.0141 0.0000 0.0000 0.0000
# 3 40.6236 31.0141 48.1818 0.0000 0.0000 0.0000
# 4 0.0000 0.0000 0.0000 20.2043 0.0000 0.0000
# 5 0.0000 0.0000 0.0000 0.0000 24.0641 0.0000
# 6 0.0000 0.0000 0.0000 0.0000 0.0000 10.0369
#
#
#
# Elastic Compliance Matrix: (Units=1/GPa)
#
#
# Indices 1 2 3 4 5 6 
#
# 1 0.013416 -0.004432 -0.008459 0.000000 0.000000 0.000000
# 2 -0.004432 0.014989 -0.005912 0.000000 0.000000 0.000000
# 3 -0.008459 -0.005912 0.031692 0.000000 0.000000 0.000000
# 4 0.000000 0.000000 0.000000 0.049494 0.000000 0.000000
# 5 0.000000 0.000000 0.000000 0.000000 0.041556 0.000000
# 6 0.000000 0.000000 0.000000 0.000000 0.000000 0.099632
#
#
# Mechanical properties :
#
#
# Convention : Reuss Voigt Hill
#
# Bulk Modulus (GPa) = 44.45936 55.92833 50.19384
# Shear Modulus (GPa) = 16.89860 19.97615 18.43737
#
# Velocity S-wave (km/s) = 3.09400 3.36396 3.23180
# Velocity P-wave (km/s) = 6.16031 6.83893 6.50847
#
# Compressibility (1/GPa) = 0.02249245
#
# Stress axis : x y z
#
# Youngs Moduli (GPa) = 74.53605 66.71522 31.55350
#
# Poissons Ratio (x) = 0.29566 0.26691
# Poissons Ratio (y) = 0.33032 0.18654
# Poissons Ratio (z) = 0.63051 0.39440
#
# Static dielectric constant tensor:
#      x y z
#    x 3.977150 0.000000 0.000000 
#    y 0.000000 2.915830 0.000000 
#    z 0.000000 0.000000 3.101770 
# 
# 
# High freq. dielectric constant tensor:
#      x y z
#    x 1.704750 0.000000 0.000000 
#    y 0.000000 1.631160 0.000000 
#    z 0.000000 0.000000 1.672030 
# 
# From -- ./inp_files/10095.got.cif
#   From: 2010.03.12/outbox.cif.g09.slc.cpg/sg63_6_cif.got.tgz:10095.got - 2010.04.10 19:34:48.
