data_PCOD8255406
_publ_section_title
;
Structure prediction by ZEFSAII (Michael W. Deem and Ramdas Pophale) SiO2 
 PCOD8255406
Probable space group: C M C M
;
_chemical_formula_sum "Si O2"
_cell_formula_units_Z 72
_cell_length_a 24.976536
_cell_length_b 15.575216
_cell_length_c 10.149030
_cell_angle_alpha 90.000000
_cell_angle_beta 90.000000
_cell_angle_gamma 90.000000
_cell_volume 3948.124328
_symmetry_space_group_name_H-M "C M C M"
_symmetry_group_IT_number 63
_symmetry_cell_setting 'orthorhombic'
loop_
_space_group_symop_operation_xyz
x,y,z
-x,-y,1/2+z
x,-y,-z
-x,y,1/2-z
-x,-y,-z
x,y,1/2-z
-x,y,z
x,-y,1/2+z
1/2+x,1/2+y,z
1/2-x,1/2-y,1/2+z
1/2+x,1/2-y,-z
1/2-x,1/2+y,1/2-z
1/2-x,1/2-y,-z
1/2+x,1/2+y,1/2-z
1/2-x,1/2+y,z
1/2+x,1/2-y,1/2+z
loop_
_atom_site_type_symbol
_atom_site_label
_atom_site_fract_x
_atom_site_fract_y
_atom_site_fract_z
Si Si1 0.835174 0.107683 0.250000
Si Si2 0.828644 0.913389 0.250000
Si Si3 0.000000 0.418512 0.904607
Si Si4 0.557224 0.353088 0.250000
Si Si5 0.918576 0.275965 0.976589
Si Si6 0.058715 0.192777 0.250000
Si Si7 0.806379 0.794835 0.010368
O O1 0.899941 0.113248 0.250000
O O2 0.813935 0.156054 0.124169
O O3 0.811438 0.012156 0.250000
O O4 0.893299 0.917773 0.250000
O O5 0.805133 0.865901 0.376167
O O6 0.000000 0.445125 0.750000
O O7 0.000000 0.500000 0.000000
O O8 0.054591 0.365941 0.935766
O O9 0.500000 0.402746 0.250000
O O10 0.558312 0.295829 0.380468
O O11 0.934369 0.254688 0.125252
O O12 0.853502 0.275532 0.963480
O O13 0.000000 0.150854 0.250000
O O14 0.750000 0.750000 0.000000
#
# Coordination Sequence:
#
# PCOD8255406 Si02
#       7
#     8   8   8   8  16   8  16
#     4  10  21  36  52  89 118 136 180 238 280 327
#     4  10  21  34  58  85 114 144 180 236 292 319
#     4  12  24  38  58  86 117 149 190 246 301 339
#     4  10  16  32  56  81 104 151 181 210 271 348
#     4  10  19  35  57  78 109 144 191 229 271 342
#     4  10  18  30  56  81 110 151 175 210 275 340
#     4  10  21  38  62  81 106 155 197 225 279 352
#
# _framework density 18.236508000000001
#
# number of rings (size 3 to 8) (size 9 to 14) (size 15 to 20)
#    0.000    1.778    3.333    1.333    1.556    0.444 
#    0.000    2.222    0.000    8.000    0.000    0.000 
#    0.000    0.000    0.000    0.000    0.000    0.000 
#
# Total GULP energy -446236.087919 kJ/mol
# GULP energy per Si atom -12395.446887 kJ/mol
# Density = 1.819500 g / cm^3
# Si number density = 18.236508 Si / 1000 Ang^3
#
#
#
# Elastic Constant Matrix: (Units=GPa)
#
#
# Indices 1 2 3 4 5 6 
#
# 1 163.9538 55.6522 36.3448 0.0000 0.0000 0.0000
# 2 55.6522 101.4838 43.3531 0.0000 0.0000 0.0000
# 3 36.3448 43.3531 154.0593 0.0000 0.0000 0.0000
# 4 0.0000 0.0000 0.0000 14.5682 0.0000 0.0000
# 5 0.0000 0.0000 0.0000 0.0000 20.3232 0.0000
# 6 0.0000 0.0000 0.0000 0.0000 0.0000 19.0416
#
#
#
# Elastic Compliance Matrix: (Units=1/GPa)
#
#
# Indices 1 2 3 4 5 6 
#
# 1 0.007560 -0.003846 -0.000701 0.000000 0.000000 0.000000
# 2 -0.003846 0.013157 -0.002795 0.000000 0.000000 0.000000
# 3 -0.000701 -0.002795 0.007443 0.000000 0.000000 0.000000
# 4 0.000000 0.000000 0.000000 0.068643 0.000000 0.000000
# 5 0.000000 0.000000 0.000000 0.000000 0.049205 0.000000
# 6 0.000000 0.000000 0.000000 0.000000 0.000000 0.052516
#
#
# Mechanical properties :
#
#
# Convention : Reuss Voigt Hill
#
# Bulk Modulus (GPa) = 74.21101 76.68859 75.44980
# Shear Modulus (GPa) = 22.96722 29.72973 26.34848
#
# Velocity S-wave (km/s) = 3.55267 4.04199 3.80520
# Velocity P-wave (km/s) = 7.59016 7.99544 7.79544
#
# Compressibility (1/GPa) = 0.01347509
#
# Stress axis : x y z
#
# Youngs Moduli (GPa) = 132.26916 76.00433 134.35495
#
# Poissons Ratio (x) = 0.29235 0.09421
# Poissons Ratio (y) = 0.50876 0.37553
# Poissons Ratio (z) = 0.09275 0.21244
#
# Static dielectric constant tensor:
#      x y z
#    x 3.489860 0.000000 0.000000 
#    y 0.000000 3.010480 0.000000 
#    z 0.000000 0.000000 3.717200 
# 
# 
# High freq. dielectric constant tensor:
#      x y z
#    x 1.710730 0.000000 0.000000 
#    y 0.000000 1.669490 0.000000 
#    z 0.000000 0.000000 1.737250 
# 
# From -- ./inp_files/11815.got.cif
#   From: 2010.03.12/outbox.cif.g09.slc.cpg/sg63_6_cif.got.tgz:11815.got - 2010.04.10 19:34:48.
