data_PCOD8255930
_publ_section_title
;
Structure prediction by ZEFSAII (Michael W. Deem and Ramdas Pophale) SiO2 
 PCOD8255930
Probable space group: C M C M
;
_chemical_formula_sum "Si O2"
_cell_formula_units_Z 80
_cell_length_a 13.924131
_cell_length_b 23.058733
_cell_length_c 14.523582
_cell_angle_alpha 90.000000
_cell_angle_beta 90.000000
_cell_angle_gamma 90.000000
_cell_volume 4663.127415
_symmetry_space_group_name_H-M "C M C M"
_symmetry_group_IT_number 63
_symmetry_cell_setting 'orthorhombic'
loop_
_space_group_symop_operation_xyz
x,y,z
-x,-y,1/2+z
x,-y,-z
-x,y,1/2-z
-x,-y,-z
x,y,1/2-z
-x,y,z
x,-y,1/2+z
1/2+x,1/2+y,z
1/2-x,1/2-y,1/2+z
1/2+x,1/2-y,-z
1/2-x,1/2+y,1/2-z
1/2-x,1/2-y,-z
1/2+x,1/2+y,1/2-z
1/2-x,1/2+y,z
1/2+x,1/2-y,1/2+z
loop_
_atom_site_type_symbol
_atom_site_label
_atom_site_fract_x
_atom_site_fract_y
_atom_site_fract_z
Si Si1 0.111040 0.098461 0.250000
Si Si2 0.386695 0.766176 0.148371
Si Si3 0.290485 0.442320 0.439425
Si Si4 0.609833 0.103986 0.641696
Si Si5 0.886014 0.150389 0.436794
Si Si6 0.111341 0.035380 0.750000
O O1 0.155358 0.125209 0.158503
O O2 0.000000 0.114414 0.250000
O O3 0.133374 0.031682 0.250000
O O4 0.343885 0.750069 0.250000
O O5 0.500000 0.766807 0.159847
O O6 0.354243 0.830570 0.119353
O O7 0.359251 0.719056 0.069311
O O8 0.313503 0.500000 0.500000
O O9 0.176516 0.438536 0.419117
O O10 0.327797 0.383372 0.485845
O O11 0.343694 0.439608 0.342286
O O12 0.621221 0.090751 0.750000
O O13 0.500000 0.093868 0.610741
O O14 0.000000 0.139837 0.451024
O O15 0.000000 0.050797 0.750000
#
# Coordination Sequence:
#
# PCOD8255930 Si02
#       6
#     8  16  16  16  16   8
#     4   9  16  28  47  69 103 137 162 199 237 279
#     4   8  14  28  52  76  99 130 167 208 251 290
#     4  12  23  33  51  77 103 137 173 203 251 305
#     4   9  19  37  56  72  96 130 171 220 260 289
#     4  10  18  29  49  80 108 131 163 204 248 300
#     4  11  22  36  48  69 111 147 167 195 240 303
#
# _framework density 17.155868999999999
#
# number of rings (size 3 to 8) (size 9 to 14) (size 15 to 20)
#    0.000    2.200    4.000    1.800    0.000    2.000 
#    0.000    0.000    0.000    0.000    0.000    0.000 
#    0.000    0.000    0.000    0.000    0.000    0.000 
#
# Total GULP energy -495594.787516 kJ/mol
# GULP energy per Si atom -12389.869688 kJ/mol
# Density = 1.711682 g / cm^3
# Si number density = 17.155869 Si / 1000 Ang^3
#
#
#
# Elastic Constant Matrix: (Units=GPa)
#
#
# Indices 1 2 3 4 5 6 
#
# 1 77.1440 20.3512 39.2627 0.0000 0.0000 0.0000
# 2 20.3512 48.5585 28.8234 0.0000 0.0000 0.0000
# 3 39.2627 28.8234 96.0872 0.0000 0.0000 0.0000
# 4 0.0000 0.0000 0.0000 18.8849 0.0000 0.0000
# 5 0.0000 0.0000 0.0000 0.0000 169.3170 0.0000
# 6 0.0000 0.0000 0.0000 0.0000 0.0000 22.4306
#
#
#
# Elastic Compliance Matrix: (Units=1/GPa)
#
#
# Indices 1 2 3 4 5 6 
#
# 1 0.016875 -0.003625 -0.005808 0.000000 0.000000 0.000000
# 2 -0.003625 0.025834 -0.006268 0.000000 0.000000 0.000000
# 3 -0.005808 -0.006268 0.014661 0.000000 0.000000 0.000000
# 4 0.000000 0.000000 0.000000 0.052952 0.000000 0.000000
# 5 0.000000 0.000000 0.000000 0.000000 0.005906 0.000000
# 6 0.000000 0.000000 0.000000 0.000000 0.000000 0.044582
#
#
# Mechanical properties :
#
#
# Convention : Reuss Voigt Hill
#
# Bulk Modulus (GPa) = 38.51013 44.29604 41.40309
# Shear Modulus (GPa) = 24.89199 51.01665 37.95432
#
# Velocity S-wave (km/s) = 3.81324 5.45909 4.70864
# Velocity P-wave (km/s) = 6.47176 8.10009 7.33127
#
# Compressibility (1/GPa) = 0.02596719
#
# Stress axis : x y z
#
# Youngs Moduli (GPa) = 59.25892 38.70930 68.20939
#
# Poissons Ratio (x) = 0.14032 0.39616
# Poissons Ratio (y) = 0.21481 0.42755
# Poissons Ratio (z) = 0.34418 0.24263
#
# Static dielectric constant tensor:
#      x y z
#    x 2.914190 0.000000 0.000000 
#    y 0.000000 3.374290 0.000000 
#    z 0.000000 0.000000 2.807160 
# 
# 
# High freq. dielectric constant tensor:
#      x y z
#    x 1.628180 0.000000 0.000000 
#    y 0.000000 1.665540 0.000000 
#    z 0.000000 0.000000 1.654430 
# 
# From -- ./inp_files/29786.got.cif
#   From: 2010.03.12/outbox.cif.g09.slc.cpg/sg63_15_cif.got.tgz:29786.got - 2010.04.10 19:34:48.
