data_PCOD8255464
_publ_section_title
;
Structure prediction by ZEFSAII (Michael W. Deem and Ramdas Pophale) SiO2 
 PCOD8255464
Probable space group: C M C M
;
_chemical_formula_sum "Si O2"
_cell_formula_units_Z 88
_cell_length_a 26.668621
_cell_length_b 13.055848
_cell_length_c 13.446981
_cell_angle_alpha 90.000000
_cell_angle_beta 90.000000
_cell_angle_gamma 90.000000
_cell_volume 4681.989506
_symmetry_space_group_name_H-M "C M C M"
_symmetry_group_IT_number 63
_symmetry_cell_setting 'orthorhombic'
loop_
_space_group_symop_operation_xyz
x,y,z
-x,-y,1/2+z
x,-y,-z
-x,y,1/2-z
-x,-y,-z
x,y,1/2-z
-x,y,z
x,-y,1/2+z
1/2+x,1/2+y,z
1/2-x,1/2-y,1/2+z
1/2+x,1/2-y,-z
1/2-x,1/2+y,1/2-z
1/2-x,1/2-y,-z
1/2+x,1/2+y,1/2-z
1/2-x,1/2+y,z
1/2+x,1/2-y,1/2+z
loop_
_atom_site_type_symbol
_atom_site_label
_atom_site_fract_x
_atom_site_fract_y
_atom_site_fract_z
Si Si1 0.946327 0.612131 0.460719
Si Si2 0.556607 0.261553 0.861955
Si Si3 0.151202 0.570126 0.137667
Si Si4 0.694561 0.871528 0.057510
Si Si5 0.283337 0.500000 0.500000
Si Si6 0.661738 0.655169 0.137125
O O1 0.953630 0.500000 0.500000
O O2 0.929694 0.677428 0.556324
O O3 0.905311 0.386801 0.626463
O O4 0.000000 0.651831 0.418097
O O5 0.559599 0.214164 0.750000
O O6 0.500000 0.307031 0.878818
O O7 0.601011 0.344626 0.873639
O O8 0.169556 0.588165 0.250000
O O9 0.154477 0.449392 0.108445
O O10 0.185476 0.635172 0.061855
O O11 0.689141 0.760712 0.105124
O O12 0.749945 0.921587 0.067276
O O13 0.319086 0.438649 0.573234
O O14 0.677543 0.635394 0.250000
#
# Coordination Sequence:
#
# PCOD8255464 Si02
#       6
#    16  16  16  16   8  16
#     4  10  17  27  43  73 114 147 181 227 274 322
#     4   9  18  33  56  83 109 143 187 228 272 334
#     4  10  18  31  51  77 109 149 190 225 271 326
#     4  10  21  39  54  79 112 151 185 231 271 334
#     4  10  24  38  55  86 117 134 188 242 276 328
#     4  11  21  38  63  83 108 148 184 226 283 333
#
# _framework density 18.795428000000001
#
# number of rings (size 3 to 8) (size 9 to 14) (size 15 to 20)
#    0.000    2.182    3.636    1.091    0.000    6.182 
#    0.000    3.182    0.000    0.000    0.000    0.000 
#    0.000    0.000    0.000    0.000    0.000    0.000 
#
# Total GULP energy -545135.213606 kJ/mol
# GULP energy per Si atom -12389.436673 kJ/mol
# Density = 1.875265 g / cm^3
# Si number density = 18.795428 Si / 1000 Ang^3
#
#
#
# Elastic Constant Matrix: (Units=GPa)
#
#
# Indices 1 2 3 4 5 6 
#
# 1 110.1418 54.0086 57.6651 0.0000 0.0000 0.0000
# 2 54.0086 80.0699 53.5375 0.0000 0.0000 0.0000
# 3 57.6651 53.5375 129.3847 0.0000 0.0000 0.0000
# 4 0.0000 0.0000 0.0000 21.0361 0.0000 0.0000
# 5 0.0000 0.0000 0.0000 0.0000 21.9806 0.0000
# 6 0.0000 0.0000 0.0000 0.0000 0.0000 20.0639
#
#
#
# Elastic Compliance Matrix: (Units=1/GPa)
#
#
# Indices 1 2 3 4 5 6 
#
# 1 0.014546 -0.007572 -0.003350 0.000000 0.000000 0.000000
# 2 -0.007572 0.021207 -0.005401 0.000000 0.000000 0.000000
# 3 -0.003350 -0.005401 0.011457 0.000000 0.000000 0.000000
# 4 0.000000 0.000000 0.000000 0.047537 0.000000 0.000000
# 5 0.000000 0.000000 0.000000 0.000000 0.045495 0.000000
# 6 0.000000 0.000000 0.000000 0.000000 0.000000 0.049841
#
#
# Mechanical properties :
#
#
# Convention : Reuss Voigt Hill
#
# Bulk Modulus (GPa) = 68.65572 72.22433 70.44002
# Shear Modulus (GPa) = 21.97008 22.90846 22.43927
#
# Velocity S-wave (km/s) = 3.42264 3.49496 3.45899
# Velocity P-wave (km/s) = 7.22679 7.40245 7.31515
#
# Compressibility (1/GPa) = 0.01456543
#
# Stress axis : x y z
#
# Youngs Moduli (GPa) = 68.74833 47.15333 87.28565
#
# Poissons Ratio (x) = 0.35703 0.29240
# Poissons Ratio (y) = 0.52053 0.47141
# Poissons Ratio (z) = 0.23030 0.25466
#
# Static dielectric constant tensor:
#      x y z
#    x 4.013800 0.000000 0.000000 
#    y 0.000000 3.142510 0.000000 
#    z 0.000000 0.000000 3.319570 
# 
# 
# High freq. dielectric constant tensor:
#      x y z
#    x 1.748540 0.000000 0.000000 
#    y 0.000000 1.679350 0.000000 
#    z 0.000000 0.000000 1.721790 
# 
# From -- ./inp_files/37856.got.cif
#   From: 2010.03.12/outbox.cif.g09.slc.cpg/sg63_19_cif.got.tgz:37856.got - 2010.04.10 19:34:48.
