data_PCOD8255671
_publ_section_title
;
Structure prediction by ZEFSAII (Michael W. Deem and Ramdas Pophale) SiO2 
 PCOD8255671
Probable space group: C M C M
;
_chemical_formula_sum "Si O2"
_cell_formula_units_Z 56
_cell_length_a 13.662582
_cell_length_b 31.313382
_cell_length_c 9.482251
_cell_angle_alpha 90.000000
_cell_angle_beta 90.000000
_cell_angle_gamma 90.000000
_cell_volume 4056.712262
_symmetry_space_group_name_H-M "C M C M"
_symmetry_group_IT_number 63
_symmetry_cell_setting 'orthorhombic'
loop_
_space_group_symop_operation_xyz
x,y,z
-x,-y,1/2+z
x,-y,-z
-x,y,1/2-z
-x,-y,-z
x,y,1/2-z
-x,y,z
x,-y,1/2+z
1/2+x,1/2+y,z
1/2-x,1/2-y,1/2+z
1/2+x,1/2-y,-z
1/2-x,1/2+y,1/2-z
1/2-x,1/2-y,-z
1/2+x,1/2+y,1/2-z
1/2-x,1/2+y,z
1/2+x,1/2-y,1/2+z
loop_
_atom_site_type_symbol
_atom_site_label
_atom_site_fract_x
_atom_site_fract_y
_atom_site_fract_z
Si Si1 0.386943 0.770669 0.587493
Si Si2 0.728761 0.314743 0.413947
Si Si3 0.500000 0.541974 0.409326
Si Si4 0.608490 0.377015 0.590954
O O1 0.370071 0.783293 0.750000
O O2 0.500000 0.771974 0.545260
O O3 0.347619 0.723230 0.558331
O O4 0.331155 0.804588 0.489815
O O5 0.749172 0.322458 0.250000
O O6 0.683731 0.357727 0.479072
O O7 0.500000 0.500000 0.500000
O O8 0.500000 0.525844 0.250000
O O9 0.596243 0.571806 0.436890
O O10 0.647309 0.368739 0.750000
O O11 0.500000 0.355863 0.574918
#
# Coordination Sequence:
#
# PCOD8255671 Si02
#       4
#    16  16   8  16
#     4   9  18  30  41  54  78 110 142 176 210 246
#     4  10  18  27  41  61  80 103 140 178 211 245
#     4   8  16  28  42  62  86 112 138 166 204 248
#     4   8  16  28  41  58  82 111 137 163 199 247
#
# _framework density 13.804282000000001
#
# number of rings (size 3 to 8) (size 9 to 14) (size 15 to 20)
#    0.857    2.286    0.000    1.714    0.000    4.571 
#    0.000    0.000    0.000    0.000    0.000    0.000 
#    0.000    1.143    0.000    3.714    0.000    4.571 
#
# Total GULP energy -346960.656464 kJ/mol
# GULP energy per Si atom -12391.452017 kJ/mol
# Density = 1.377286 g / cm^3
# Si number density = 13.804282 Si / 1000 Ang^3
#
#
#
# Elastic Constant Matrix: (Units=GPa)
#
#
# Indices 1 2 3 4 5 6 
#
# 1 83.7518 36.5690 51.6747 0.0000 0.0000 0.0000
# 2 36.5690 70.9049 53.5005 0.0000 0.0000 0.0000
# 3 51.6747 53.5005 95.9067 0.0000 0.0000 0.0000
# 4 0.0000 0.0000 0.0000 27.5194 0.0000 0.0000
# 5 0.0000 0.0000 0.0000 0.0000 22.6120 0.0000
# 6 0.0000 0.0000 0.0000 0.0000 0.0000 11.9253
#
#
#
# Elastic Compliance Matrix: (Units=1/GPa)
#
#
# Indices 1 2 3 4 5 6 
#
# 1 0.018366 -0.003463 -0.007964 0.000000 0.000000 0.000000
# 2 -0.003463 0.025008 -0.012084 0.000000 0.000000 0.000000
# 3 -0.007964 -0.012084 0.021459 0.000000 0.000000 0.000000
# 4 0.000000 0.000000 0.000000 0.036338 0.000000 0.000000
# 5 0.000000 0.000000 0.000000 0.000000 0.044224 0.000000
# 6 0.000000 0.000000 0.000000 0.000000 0.000000 0.083855
#
#
# Mechanical properties :
#
#
# Convention : Reuss Voigt Hill
#
# Bulk Modulus (GPa) = 56.14854 59.33910 57.74382
# Shear Modulus (GPa) = 17.71742 19.66595 18.69169
#
# Velocity S-wave (km/s) = 3.58645 3.77852 3.68373
# Velocity P-wave (km/s) = 7.61007 7.88134 7.74689
#
# Compressibility (1/GPa) = 0.01780990
#
# Stress axis : x y z
#
# Youngs Moduli (GPa) = 54.44937 39.98789 46.60141
#
# Poissons Ratio (x) = 0.13849 0.37111
# Poissons Ratio (y) = 0.18857 0.56314
# Poissons Ratio (z) = 0.43361 0.48322
#
# Static dielectric constant tensor:
#      x y z
#    x 2.558220 0.000000 0.000000 
#    y 0.000000 2.429240 0.000000 
#    z 0.000000 0.000000 2.732200 
# 
# 
# High freq. dielectric constant tensor:
#      x y z
#    x 1.503470 0.000000 0.000000 
#    y 0.000000 1.495910 0.000000 
#    z 0.000000 0.000000 1.537410 
# 
# From -- ./inp_files/3015.got.cif
#   From: 2010.03.12/outbox.cif.g09.slc.cpg/sg63_2_cif.got.tgz:3015.got - 2010.04.10 19:34:48.
