data_PCOD8255931
_publ_section_title
;
Structure prediction by ZEFSAII (Michael W. Deem and Ramdas Pophale) SiO2 
 PCOD8255931
Probable space group: C M C M
;
_chemical_formula_sum "Si O2"
_cell_formula_units_Z 128
_cell_length_a 22.586205
_cell_length_b 18.821647
_cell_length_c 19.327351
_cell_angle_alpha 90.000000
_cell_angle_beta 90.000000
_cell_angle_gamma 90.000000
_cell_volume 8216.242019
_symmetry_space_group_name_H-M "C M C M"
_symmetry_group_IT_number 63
_symmetry_cell_setting 'orthorhombic'
loop_
_space_group_symop_operation_xyz
x,y,z
-x,-y,1/2+z
x,-y,-z
-x,y,1/2-z
-x,-y,-z
x,y,1/2-z
-x,y,z
x,-y,1/2+z
1/2+x,1/2+y,z
1/2-x,1/2-y,1/2+z
1/2+x,1/2-y,-z
1/2-x,1/2+y,1/2-z
1/2-x,1/2-y,-z
1/2+x,1/2+y,1/2-z
1/2-x,1/2+y,z
1/2+x,1/2-y,1/2+z
loop_
_atom_site_type_symbol
_atom_site_label
_atom_site_fract_x
_atom_site_fract_y
_atom_site_fract_z
Si Si1 0.935581 0.839287 0.330446
Si Si2 0.744389 0.171669 0.570575
Si Si3 0.261614 0.885951 0.830798
Si Si4 0.318728 0.689917 0.436106
Si Si5 0.067388 0.106270 0.047697
Si Si6 0.250786 0.482389 0.077244
Si Si7 0.890401 0.034655 0.591690
Si Si8 0.331058 0.751927 0.829622
O O1 0.945403 0.833223 0.250000
O O2 0.902598 0.914291 0.343574
O O3 0.896178 0.771977 0.355952
O O4 0.000000 0.835649 0.367604
O O5 0.688575 0.224382 0.559594
O O6 0.781530 0.157276 0.500127
O O7 0.723025 0.094520 0.596748
O O8 0.784483 0.206809 0.628111
O O9 0.246865 0.898647 0.750000
O O10 0.206390 0.845103 0.865838
O O11 0.320072 0.836182 0.839868
O O12 0.274505 0.960583 0.868249
O O13 0.388341 0.672282 0.439592
O O14 0.000000 0.133727 0.054101
O O15 0.078697 0.042136 0.102355
O O16 0.080535 0.075004 0.972636
O O17 0.321491 0.479423 0.081241
O O18 0.229765 0.500000 0.000000
O O19 0.322295 0.730180 0.750000
#
# Coordination Sequence:
#
# PCOD8255931 Si02
#       8
#    16  16  16  16  16  16  16  16
#     4  10  19  29  42  62  91 123 153 185 221 267
#     4  10  18  29  50  65  91 118 152 196 230 268
#     4  10  20  32  48  67  94 123 151 191 236 277
#     4  10  18  32  46  69  89 119 158 191 228 266
#     4  11  19  29  45  63  91 125 155 187 219 260
#     4  12  18  31  48  70  92 121 156 190 229 277
#     4  11  17  29  41  64  90 120 155 182 213 263
#     4   9  18  31  45  67  94 123 155 190 231 273
#
# _framework density 15.578898000000001
#
# number of rings (size 3 to 8) (size 9 to 14) (size 15 to 20)
#    0.000    1.625    6.250    1.500    0.000    1.000 
#    0.000    0.000    0.000    0.375    0.000    0.875 
#    0.000    1.000    0.000    0.000    0.000    0.000 
#
# Total GULP energy -793175.311969 kJ/mol
# GULP energy per Si atom -12393.364250 kJ/mol
# Density = 1.554344 g / cm^3
# Si number density = 15.578898 Si / 1000 Ang^3
#
#
#
# Elastic Constant Matrix: (Units=GPa)
#
#
# Indices 1 2 3 4 5 6 
#
# 1 81.2704 50.6115 20.5673 0.0000 0.0000 0.0000
# 2 50.6115 121.7193 36.5296 0.0000 0.0000 0.0000
# 3 20.5673 36.5296 54.1736 0.0000 0.0000 0.0000
# 4 0.0000 0.0000 0.0000 24.7580 0.0000 0.0000
# 5 0.0000 0.0000 0.0000 0.0000 11.0990 0.0000
# 6 0.0000 0.0000 0.0000 0.0000 0.0000 20.4988
#
#
#
# Elastic Compliance Matrix: (Units=1/GPa)
#
#
# Indices 1 2 3 4 5 6 
#
# 1 0.016791 -0.006354 -0.002090 0.000000 0.000000 0.000000
# 2 -0.006354 0.012705 -0.006154 0.000000 0.000000 0.000000
# 3 -0.002090 -0.006154 0.023403 0.000000 0.000000 0.000000
# 4 0.000000 0.000000 0.000000 0.040391 0.000000 0.000000
# 5 0.000000 0.000000 0.000000 0.000000 0.090098 0.000000
# 6 0.000000 0.000000 0.000000 0.000000 0.000000 0.048783
#
#
# Mechanical properties :
#
#
# Convention : Reuss Voigt Hill
#
# Bulk Modulus (GPa) = 42.19293 52.50890 47.35091
# Shear Modulus (GPa) = 18.56883 21.23483 19.90183
#
# Velocity S-wave (km/s) = 3.45617 3.69596 3.57807
# Velocity P-wave (km/s) = 6.56270 7.21053 6.89423
#
# Compressibility (1/GPa) = 0.02370066
#
# Stress axis : x y z
#
# Youngs Moduli (GPa) = 59.55652 78.70979 42.73027
#
# Poissons Ratio (x) = 0.50016 0.08930
# Poissons Ratio (y) = 0.37845 0.26298
# Poissons Ratio (z) = 0.12446 0.48442
#
# Static dielectric constant tensor:
#      x y z
#    x 3.036600 0.000000 0.000000 
#    y 0.000000 3.332620 0.000000 
#    z 0.000000 0.000000 3.004800 
# 
# 
# High freq. dielectric constant tensor:
#      x y z
#    x 1.563290 0.000000 0.000000 
#    y 0.000000 1.596690 0.000000 
#    z 0.000000 0.000000 1.593510 
# 
# From -- ./inp_files/48460.got.cif
#   From: 2010.03.12/outbox.cif.g09.slc.cpg/sg63_25_cif.got.tgz:48460.got - 2010.04.10 19:34:48.
