data_PCOD8255644
_publ_section_title
;
Structure prediction by ZEFSAII (Michael W. Deem and Ramdas Pophale) SiO2 
 PCOD8255644
Probable space group: C M C M
;
_chemical_formula_sum "Si O2"
_cell_formula_units_Z 96
_cell_length_a 9.512816
_cell_length_b 22.765915
_cell_length_c 26.928536
_cell_angle_alpha 90.000000
_cell_angle_beta 90.000000
_cell_angle_gamma 90.000000
_cell_volume 5831.858120
_symmetry_space_group_name_H-M "C M C M"
_symmetry_group_IT_number 63
_symmetry_cell_setting 'orthorhombic'
loop_
_space_group_symop_operation_xyz
x,y,z
-x,-y,1/2+z
x,-y,-z
-x,y,1/2-z
-x,-y,-z
x,y,1/2-z
-x,y,z
x,-y,1/2+z
1/2+x,1/2+y,z
1/2-x,1/2-y,1/2+z
1/2+x,1/2-y,-z
1/2-x,1/2+y,1/2-z
1/2-x,1/2-y,-z
1/2+x,1/2+y,1/2-z
1/2-x,1/2+y,z
1/2+x,1/2-y,1/2+z
loop_
_atom_site_type_symbol
_atom_site_label
_atom_site_fract_x
_atom_site_fract_y
_atom_site_fract_z
Si Si1 0.340245 0.483151 0.140765
Si Si2 0.158049 0.151937 0.839008
Si Si3 0.658806 0.714934 0.938331
Si Si4 0.836905 0.337848 0.519861
Si Si5 0.334471 0.033521 0.449895
Si Si6 0.661953 0.523029 0.750000
Si Si7 0.166797 0.359436 0.250000
O O1 0.500000 0.496224 0.124501
O O2 0.310626 0.413567 0.141374
O O3 0.238794 0.510707 0.099923
O O4 0.313419 0.510463 0.197009
O O5 0.176039 0.200166 0.881189
O O6 0.271950 0.172555 0.798527
O O7 0.000000 0.153821 0.817073
O O8 0.500000 0.705247 0.957100
O O9 0.702587 0.783091 0.944661
O O10 0.755532 0.670051 0.968448
O O11 0.791482 0.398260 0.545792
O O12 0.000000 0.340115 0.506263
O O13 0.500000 0.024416 0.442589
O O14 0.284035 0.000000 0.500000
O O15 0.500000 0.546612 0.750000
O O16 0.772576 0.575268 0.750000
O O17 0.000000 0.358759 0.250000
#
# Coordination Sequence:
#
# PCOD8255644 Si02
#       7
#    16  16  16  16  16   8   8
#     4   9  17  29  47  68  89 116 151 188 222 264
#     4   9  17  30  46  65  90 118 147 182 225 264
#     4   9  17  30  49  67  84 114 153 186 218 263
#     4   9  18  31  45  65  92 118 147 184 223 263
#     4  10  20  31  43  64  97 128 148 177 226 274
#     4   8  16  32  48  65  92 121 151 190 232 266
#     4  10  18  26  42  69  94 115 143 180 222 268
#
# _framework density 16.461306
#
# number of rings (size 3 to 8) (size 9 to 14) (size 15 to 20)
#    0.000    2.833    0.000    2.750    0.000    4.333 
#    0.000    0.000    0.000    1.000    0.000    4.667 
#    0.000    0.000    0.000    0.000    0.000    0.000 
#
# Total GULP energy -594807.485207 kJ/mol
# GULP energy per Si atom -12391.822608 kJ/mol
# Density = 1.642384 g / cm^3
# Si number density = 16.461306 Si / 1000 Ang^3
#
#
#
# Elastic Constant Matrix: (Units=GPa)
#
#
# Indices 1 2 3 4 5 6 
#
# 1 77.0293 35.2018 58.1319 0.0000 0.0000 0.0000
# 2 35.2018 63.0504 47.8554 0.0000 0.0000 0.0000
# 3 58.1319 47.8554 125.2732 0.0000 0.0000 0.0000
# 4 0.0000 0.0000 0.0000 19.8934 0.0000 0.0000
# 5 0.0000 0.0000 0.0000 0.0000 33.1243 0.0000
# 6 0.0000 0.0000 0.0000 0.0000 0.0000 16.5628
#
#
#
# Elastic Compliance Matrix: (Units=1/GPa)
#
#
# Indices 1 2 3 4 5 6 
#
# 1 0.021607 -0.006272 -0.007631 0.000000 0.000000 0.000000
# 2 -0.006272 0.024157 -0.006318 0.000000 0.000000 0.000000
# 3 -0.007631 -0.006318 0.013937 0.000000 0.000000 0.000000
# 4 0.000000 0.000000 0.000000 0.050268 0.000000 0.000000
# 5 0.000000 0.000000 0.000000 0.000000 0.030189 0.000000
# 6 0.000000 0.000000 0.000000 0.000000 0.000000 0.060376
#
#
# Mechanical properties :
#
#
# Convention : Reuss Voigt Hill
#
# Bulk Modulus (GPa) = 51.91966 60.85902 56.38934
# Shear Modulus (GPa) = 20.21060 22.19370 21.20215
#
# Velocity S-wave (km/s) = 3.50775 3.67581 3.59276
# Velocity P-wave (km/s) = 6.92926 7.42069 7.17918
#
# Compressibility (1/GPa) = 0.01926053
#
# Stress axis : x y z
#
# Youngs Moduli (GPa) = 46.28175 41.39545 71.75164
#
# Poissons Ratio (x) = 0.25962 0.54751
# Poissons Ratio (y) = 0.29027 0.45332
# Poissons Ratio (z) = 0.35316 0.26153
#
# Static dielectric constant tensor:
#      x y z
#    x 3.094690 0.000000 0.000000 
#    y 0.000000 2.954200 0.000000 
#    z 0.000000 0.000000 3.276590 
# 
# 
# High freq. dielectric constant tensor:
#      x y z
#    x 1.633410 0.000000 0.000000 
#    y 0.000000 1.602400 0.000000 
#    z 0.000000 0.000000 1.639050 
# 
# From -- ./inp_files/67321.got.cif
#   From: 2010.03.12/outbox.cif.g09.slc.cpg/sg63_34_cif.got.tgz:67321.got - 2010.04.10 19:34:48.
