data_PCOD8255449
_publ_section_title
;
Structure prediction by ZEFSAII (Michael W. Deem and Ramdas Pophale) SiO2 
 PCOD8255449
Probable space group: C M C M
;
_chemical_formula_sum "Si O2"
_cell_formula_units_Z 88
_cell_length_a 25.063031
_cell_length_b 17.687145
_cell_length_c 13.849446
_cell_angle_alpha 90.000000
_cell_angle_beta 90.000000
_cell_angle_gamma 90.000000
_cell_volume 6139.368884
_symmetry_space_group_name_H-M "C M C M"
_symmetry_group_IT_number 63
_symmetry_cell_setting 'orthorhombic'
loop_
_space_group_symop_operation_xyz
x,y,z
-x,-y,1/2+z
x,-y,-z
-x,y,1/2-z
-x,-y,-z
x,y,1/2-z
-x,y,z
x,-y,1/2+z
1/2+x,1/2+y,z
1/2-x,1/2-y,1/2+z
1/2+x,1/2-y,-z
1/2-x,1/2+y,1/2-z
1/2-x,1/2-y,-z
1/2+x,1/2+y,1/2-z
1/2-x,1/2+y,z
1/2+x,1/2-y,1/2+z
loop_
_atom_site_type_symbol
_atom_site_label
_atom_site_fract_x
_atom_site_fract_y
_atom_site_fract_z
Si Si1 0.704590 0.936557 0.140148
Si Si2 0.561414 0.888504 0.861844
Si Si3 0.252468 0.102281 0.356429
Si Si4 0.779598 0.175849 0.533403
Si Si5 0.879375 0.500000 0.000000
Si Si6 0.347302 0.782345 0.859616
O O1 0.684019 0.922824 0.250000
O O2 0.743845 0.868596 0.111355
O O3 0.737367 0.013945 0.134751
O O4 0.656021 0.941824 0.064005
O O5 0.570754 0.911556 0.750000
O O6 0.500000 0.872068 0.884603
O O7 0.593641 0.811576 0.885736
O O8 0.582315 0.956000 0.927469
O O9 0.230315 0.122905 0.250000
O O10 0.209160 0.124771 0.438232
O O11 0.307341 0.146991 0.378532
O O12 0.750000 0.250000 0.500000
O O13 0.834572 0.206143 0.579952
O O14 0.343253 0.756167 0.750000
#
# Coordination Sequence:
#
# PCOD8255449 Si02
#       6
#    16  16  16  16   8  16
#     4  11  19  28  44  65  89 118 146 172 212 263
#     4  10  20  32  45  60  80 111 151 190 223 253
#     4   9  16  27  42  60  87 115 140 169 206 255
#     4  10  17  27  39  61  85 115 143 173 209 254
#     4  12  17  30  44  66  84 114 141 182 220 256
#     4   9  16  28  42  58  82 110 141 178 215 252
#
# _framework density 14.33372
#
# number of rings (size 3 to 8) (size 9 to 14) (size 15 to 20)
#    0.000    2.000    3.636    2.455    0.000    0.727 
#    0.000    0.000    0.000    0.000    0.000    0.000 
#    0.000    2.909    0.000    4.364    0.000    1.818 
#
# Total GULP energy -545297.857106 kJ/mol
# GULP energy per Si atom -12393.133116 kJ/mol
# Density = 1.430110 g / cm^3
# Si number density = 14.333720 Si / 1000 Ang^3
#
#
#
# Elastic Constant Matrix: (Units=GPa)
#
#
# Indices 1 2 3 4 5 6 
#
# 1 80.8362 42.0684 47.4774 0.0000 0.0000 0.0000
# 2 42.0684 60.9444 38.0322 0.0000 0.0000 0.0000
# 3 47.4774 38.0322 100.3286 0.0000 0.0000 0.0000
# 4 0.0000 0.0000 0.0000 27.3282 0.0000 0.0000
# 5 0.0000 0.0000 0.0000 0.0000 18.4347 0.0000
# 6 0.0000 0.0000 0.0000 0.0000 0.0000 18.5468
#
#
#
# Elastic Compliance Matrix: (Units=1/GPa)
#
#
# Indices 1 2 3 4 5 6 
#
# 1 0.021779 -0.011267 -0.006035 0.000000 0.000000 0.000000
# 2 -0.011267 0.027322 -0.005025 0.000000 0.000000 0.000000
# 3 -0.006035 -0.005025 0.014728 0.000000 0.000000 0.000000
# 4 0.000000 0.000000 0.000000 0.036592 0.000000 0.000000
# 5 0.000000 0.000000 0.000000 0.000000 0.054246 0.000000
# 6 0.000000 0.000000 0.000000 0.000000 0.000000 0.053918
#
#
# Mechanical properties :
#
#
# Convention : Reuss Voigt Hill
#
# Bulk Modulus (GPa) = 52.15437 55.25168 53.70303
# Shear Modulus (GPa) = 19.25812 20.49734 19.87773
#
# Velocity S-wave (km/s) = 3.66943 3.78565 3.72799
# Velocity P-wave (km/s) = 7.37684 7.59859 7.48853
#
# Compressibility (1/GPa) = 0.01917385
#
# Stress axis : x y z
#
# Youngs Moduli (GPa) = 45.91593 36.60068 67.89754
#
# Poissons Ratio (x) = 0.41239 0.40976
# Poissons Ratio (y) = 0.51735 0.34120
# Poissons Ratio (z) = 0.27710 0.18393
#
# Static dielectric constant tensor:
#      x y z
#    x 2.633620 0.000000 0.000000 
#    y 0.000000 2.881390 0.000000 
#    z 0.000000 0.000000 3.395310 
# 
# 
# High freq. dielectric constant tensor:
#      x y z
#    x 1.498050 0.000000 0.000000 
#    y 0.000000 1.537460 0.000000 
#    z 0.000000 0.000000 1.572120 
# 
# From -- ./inp_files/37028.got.cif
#   From: 2010.03.12/outbox.cif.g09.slc.cpg/sg63_19_cif.got.tgz:37028.got - 2010.04.10 19:34:48.
