data_PCOD8255988
_publ_section_title
;
Structure prediction by ZEFSAII (Michael W. Deem and Ramdas Pophale) SiO2 
 PCOD8255988
Probable space group: C M C M
;
_chemical_formula_sum "Si O2"
_cell_formula_units_Z 64
_cell_length_a 27.920788
_cell_length_b 14.595998
_cell_length_c 8.595526
_cell_angle_alpha 90.000000
_cell_angle_beta 90.000000
_cell_angle_gamma 90.000000
_cell_volume 3502.949889
_symmetry_space_group_name_H-M "C M C M"
_symmetry_group_IT_number 63
_symmetry_cell_setting 'orthorhombic'
loop_
_space_group_symop_operation_xyz
x,y,z
-x,-y,1/2+z
x,-y,-z
-x,y,1/2-z
-x,-y,-z
x,y,1/2-z
-x,y,z
x,-y,1/2+z
1/2+x,1/2+y,z
1/2-x,1/2-y,1/2+z
1/2+x,1/2-y,-z
1/2-x,1/2+y,1/2-z
1/2-x,1/2-y,-z
1/2+x,1/2+y,1/2-z
1/2-x,1/2+y,z
1/2+x,1/2-y,1/2+z
loop_
_atom_site_type_symbol
_atom_site_label
_atom_site_fract_x
_atom_site_fract_y
_atom_site_fract_z
Si Si1 0.640895 0.216433 0.066157
Si Si2 0.233269 0.653849 0.934962
Si Si3 0.446544 0.096319 0.433117
Si Si4 0.673636 0.407936 0.934031
O O1 0.648083 0.221710 0.250000
O O2 0.588826 0.178495 0.017047
O O3 0.678996 0.142747 0.996345
O O4 0.646727 0.318180 0.997640
O O5 0.234777 0.649481 0.750000
O O6 0.250000 0.750000 0.000000
O O7 0.271220 0.583141 0.006874
O O8 0.446772 0.086005 0.250000
O O9 0.500000 0.119381 0.495894
O O10 0.428109 0.000000 0.500000
O O11 0.671646 0.405449 0.750000
O O12 0.647876 0.500000 0.000000
#
# Coordination Sequence:
#
# PCOD8255988 Si02
#       4
#    16  16  16  16
#     4  10  19  33  52  75 104 136 171 210 253 299
#     4  10  18  30  47  69  98 131 168 205 244 288
#     4   9  19  35  55  78 103 131 164 205 253 303
#     4  11  21  34  51  73 102 136 174 211 252 299
#
# _framework density 18.270313999999999
#
# number of rings (size 3 to 8) (size 9 to 14) (size 15 to 20)
#    0.000    2.000    0.000    8.250    0.000    3.000 
#    0.000    2.500    0.000    0.750    0.000    0.000 
#    0.000    0.000    0.000    0.000    0.000    0.000 
#
# Total GULP energy -396577.883958 kJ/mol
# GULP energy per Si atom -12393.058874 kJ/mol
# Density = 1.822873 g / cm^3
# Si number density = 18.270314 Si / 1000 Ang^3
#
#
#
# Elastic Constant Matrix: (Units=GPa)
#
#
# Indices 1 2 3 4 5 6 
#
# 1 108.7255 63.4505 41.4920 0.0000 0.0000 0.0000
# 2 63.4505 116.8285 42.4096 0.0000 0.0000 0.0000
# 3 41.4920 42.4096 116.8626 0.0000 0.0000 0.0000
# 4 0.0000 0.0000 0.0000 29.1947 0.0000 0.0000
# 5 0.0000 0.0000 0.0000 0.0000 22.4283 0.0000
# 6 0.0000 0.0000 0.0000 0.0000 0.0000 18.4687
#
#
#
# Elastic Compliance Matrix: (Units=1/GPa)
#
#
# Indices 1 2 3 4 5 6 
#
# 1 0.014103 -0.006728 -0.002566 0.000000 0.000000 0.000000
# 2 -0.006728 0.013068 -0.002354 0.000000 0.000000 0.000000
# 3 -0.002566 -0.002354 0.010322 0.000000 0.000000 0.000000
# 4 0.000000 0.000000 0.000000 0.034253 0.000000 0.000000
# 5 0.000000 0.000000 0.000000 0.000000 0.044587 0.000000
# 6 0.000000 0.000000 0.000000 0.000000 0.000000 0.054146
#
#
# Mechanical properties :
#
#
# Convention : Reuss Voigt Hill
#
# Bulk Modulus (GPa) = 70.43012 70.79120 70.61066
# Shear Modulus (GPa) = 25.18820 27.02263 26.10542
#
# Velocity S-wave (km/s) = 3.71703 3.85001 3.78411
# Velocity P-wave (km/s) = 7.55344 7.65468 7.60423
#
# Compressibility (1/GPa) = 0.01419847
#
# Stress axis : x y z
#
# Youngs Moduli (GPa) = 70.90703 76.52279 96.87952
#
# Poissons Ratio (x) = 0.51485 0.24856
# Poissons Ratio (y) = 0.47707 0.22802
# Poissons Ratio (z) = 0.18192 0.18010
#
# Static dielectric constant tensor:
#      x y z
#    x 4.053010 0.000000 0.000000 
#    y 0.000000 4.627980 0.000000 
#    z 0.000000 0.000000 3.425720 
# 
# 
# High freq. dielectric constant tensor:
#      x y z
#    x 1.688050 0.000000 0.000000 
#    y 0.000000 1.703540 0.000000 
#    z 0.000000 0.000000 1.722100 
# 
# From -- ./inp_files/9623.got.cif
#   From: 2010.03.12/outbox.cif.g09.slc.cpg/sg63_5_cif.got.tgz:9623.got - 2010.04.10 19:34:48.
