data_PCOD8255141
_publ_section_title
;
Structure prediction by ZEFSAII (Michael W. Deem and Ramdas Pophale) SiO2 
 PCOD8255141
Probable space group: P N M A
;
_chemical_formula_sum "Si O2"
_cell_formula_units_Z 48
_cell_length_a 9.278823
_cell_length_b 8.872603
_cell_length_c 28.437115
_cell_angle_alpha 90.000000
_cell_angle_beta 90.000000
_cell_angle_gamma 90.000000
_cell_volume 2341.151261
_symmetry_space_group_name_H-M "P N M A"
_symmetry_group_IT_number 62
_symmetry_cell_setting 'orthorhombic'
loop_
_space_group_symop_operation_xyz
x,y,z
1/2-x,-y,1/2+z
1/2+x,1/2-y,1/2-z
-x,1/2+y,-z
-x,-y,-z
1/2+x,y,1/2-z
1/2-x,1/2+y,1/2+z
x,1/2-y,z
loop_
_atom_site_type_symbol
_atom_site_label
_atom_site_fract_x
_atom_site_fract_y
_atom_site_fract_z
Si Si1 0.213355 0.573933 0.720310
Si Si2 0.717138 0.074767 0.617888
Si Si3 0.593306 0.081476 0.961431
Si Si4 0.633799 0.918624 0.522027
Si Si5 0.989065 0.425307 0.367838
Si Si6 0.980271 0.925649 0.203015
O O1 0.218372 0.750000 0.733277
O O2 0.115199 0.541853 0.675395
O O3 0.375126 0.519652 0.710580
O O4 0.146675 0.481385 0.763094
O O5 0.748193 0.250000 0.611893
O O6 0.576560 0.046775 0.649991
O O7 0.696117 0.005661 0.566614
O O8 0.857039 0.001361 0.642194
O O9 0.533065 0.250000 0.953277
O O10 0.589541 0.991651 0.913123
O O11 0.755286 0.086316 0.979310
O O12 0.500000 0.000000 0.000000
O O13 0.592889 0.750000 0.538229
O O14 0.500000 0.000000 0.500000
O O15 0.016174 0.250000 0.376114
O O16 0.011151 0.750000 0.212361
#
# Coordination Sequence:
#
# PCOD8255141 Si02
#       6
#     8   8   8   8   8   8
#     4  11  25  44  68  98 130 168 211 261 318 380
#     4  11  24  42  65  94 127 168 213 262 318 376
#     4  11  23  40  64  93 126 168 215 261 313 374
#     4  11  25  42  63  92 128 169 214 263 318 376
#     4  11  24  41  64  95 128 167 213 261 317 377
#     4  11  25  44  68  97 130 167 211 262 319 380
#
# _framework density 20.502732999999999
#
# number of rings (size 3 to 8) (size 9 to 14) (size 15 to 20)
#    0.000    1.000    1.667    4.000    2.333   10.000 
#    0.000    0.000    0.000    0.000    0.000    0.000 
#    0.000    0.000    0.000    0.000    0.000    0.000 
#
# Total GULP energy -595439.833063 kJ/mol
# GULP energy per Si atom -12404.996522 kJ/mol
# Density = 2.045607 g / cm^3
# Si number density = 20.502733 Si / 1000 Ang^3
#
#
#
# Elastic Constant Matrix: (Units=GPa)
#
#
# Indices 1 2 3 4 5 6 
#
# 1 110.3889 36.6556 19.7560 0.0000 0.0000 0.0000
# 2 36.6556 114.7919 42.3183 0.0000 0.0000 0.0000
# 3 19.7560 42.3183 75.9076 0.0000 0.0000 0.0000
# 4 0.0000 0.0000 0.0000 34.5417 0.0000 0.0000
# 5 0.0000 0.0000 0.0000 0.0000 35.8864 0.0000
# 6 0.0000 0.0000 0.0000 0.0000 0.0000 40.2734
#
#
#
# Elastic Compliance Matrix: (Units=1/GPa)
#
#
# Indices 1 2 3 4 5 6 
#
# 1 0.010200 -0.002868 -0.001056 0.000000 0.000000 0.000000
# 2 -0.002868 0.011771 -0.005816 0.000000 0.000000 0.000000
# 3 -0.001056 -0.005816 0.016691 0.000000 0.000000 0.000000
# 4 0.000000 0.000000 0.000000 0.028951 0.000000 0.000000
# 5 0.000000 0.000000 0.000000 0.000000 0.027866 0.000000
# 6 0.000000 0.000000 0.000000 0.000000 0.000000 0.024830
#
#
# Mechanical properties :
#
#
# Convention : Reuss Voigt Hill
#
# Bulk Modulus (GPa) = 52.12965 55.39426 53.76196
# Shear Modulus (GPa) = 34.20366 35.63086 34.91726
#
# Velocity S-wave (km/s) = 4.08885 4.17329 4.13128
# Velocity P-wave (km/s) = 6.91177 7.09214 7.00253
#
# Compressibility (1/GPa) = 0.01918294
#
# Stress axis : x y z
#
# Youngs Moduli (GPa) = 98.03763 84.95230 59.91187
#
# Poissons Ratio (x) = 0.24363 0.06326
# Poissons Ratio (y) = 0.28116 0.34845
# Poissons Ratio (z) = 0.10352 0.49409
#
# Static dielectric constant tensor:
#      x y z
#    x 3.899620 0.000000 0.000000 
#    y 0.000000 3.986900 0.000000 
#    z 0.000000 0.000000 3.811600 
# 
# 
# High freq. dielectric constant tensor:
#      x y z
#    x 1.812640 0.000000 0.000000 
#    y 0.000000 1.822340 0.000000 
#    z 0.000000 0.000000 1.811660 
# 
# From -- ./inp_files/31970.got.cif
#   From: 2010.03.12/outbox.cif.g09.slc.cpg/sg62_16_cif.got.tgz:31970.got - 2010.04.10 19:12:36.
