data_PCOD8255156
_publ_section_title
;
Structure prediction by ZEFSAII (Michael W. Deem and Ramdas Pophale) SiO2 
 PCOD8255156
Probable space group: P N M A
;
_chemical_formula_sum "Si O2"
_cell_formula_units_Z 24
_cell_length_a 7.428954
_cell_length_b 8.421830
_cell_length_c 18.786182
_cell_angle_alpha 90.000000
_cell_angle_beta 90.000000
_cell_angle_gamma 90.000000
_cell_volume 1175.364760
_symmetry_space_group_name_H-M "P N M A"
_symmetry_group_IT_number 62
_symmetry_cell_setting 'orthorhombic'
loop_
_space_group_symop_operation_xyz
x,y,z
1/2-x,-y,1/2+z
1/2+x,1/2-y,1/2-z
-x,1/2+y,-z
-x,-y,-z
1/2+x,y,1/2-z
1/2-x,1/2+y,1/2+z
x,1/2-y,z
loop_
_atom_site_type_symbol
_atom_site_label
_atom_site_fract_x
_atom_site_fract_y
_atom_site_fract_z
Si Si1 0.164003 0.567020 0.326287
Si Si2 0.458391 0.437352 0.422442
Si Si3 0.717077 0.566217 0.820757
O O1 0.194384 0.750000 0.306712
O O2 0.276162 0.520841 0.396142
O O3 0.230332 0.459821 0.261023
O O4 0.955290 0.536412 0.342917
O O5 0.500000 0.500000 0.500000
O O6 0.430526 0.250000 0.422942
O O7 0.619481 0.489123 0.370346
O O8 0.670336 0.750000 0.831905
#
# Coordination Sequence:
#
# PCOD8255156 Si02
#       3
#     8   8   8
#     4  12  24  39  66  98 129 167 216 268 319 382
#     4  11  25  44  67  94 132 172 214 268 327 385
#     4  11  23  41  66  94 128 171 215 263 321 382
#
# _framework density 20.419194000000001
#
# number of rings (size 3 to 8) (size 9 to 14) (size 15 to 20)
#    0.000    0.667    3.333    5.000    0.000    5.333 
#    0.000    0.000    0.000    0.000    0.000    0.000 
#    0.000    0.000    0.000    0.000    0.000    0.000 
#
# Total GULP energy -297829.303472 kJ/mol
# GULP energy per Si atom -12409.554311 kJ/mol
# Density = 2.037272 g / cm^3
# Si number density = 20.419194 Si / 1000 Ang^3
#
#
#
# Elastic Constant Matrix: (Units=GPa)
#
#
# Indices 1 2 3 4 5 6 
#
# 1 105.5518 36.4388 12.8020 0.0000 0.0000 0.0000
# 2 36.4388 74.5348 19.5693 0.0000 0.0000 0.0000
# 3 12.8020 19.5693 82.9558 0.0000 0.0000 0.0000
# 4 0.0000 0.0000 0.0000 32.4673 0.0000 0.0000
# 5 0.0000 0.0000 0.0000 0.0000 34.1672 0.0000
# 6 0.0000 0.0000 0.0000 0.0000 0.0000 32.4349
#
#
#
# Elastic Compliance Matrix: (Units=1/GPa)
#
#
# Indices 1 2 3 4 5 6 
#
# 1 0.011415 -0.005456 -0.000475 0.000000 0.000000 0.000000
# 2 -0.005456 0.016910 -0.003147 0.000000 0.000000 0.000000
# 3 -0.000475 -0.003147 0.012870 0.000000 0.000000 0.000000
# 4 0.000000 0.000000 0.000000 0.030800 0.000000 0.000000
# 5 0.000000 0.000000 0.000000 0.000000 0.029268 0.000000
# 6 0.000000 0.000000 0.000000 0.000000 0.000000 0.030831
#
#
# Mechanical properties :
#
#
# Convention : Reuss Voigt Hill
#
# Bulk Modulus (GPa) = 43.40252 44.51807 43.96029
# Shear Modulus (GPa) = 31.65956 32.76270 32.21113
#
# Velocity S-wave (km/s) = 3.94189 4.00997 3.97608
# Velocity P-wave (km/s) = 6.48227 6.57946 6.53104
#
# Compressibility (1/GPa) = 0.02304014
#
# Stress axis : x y z
#
# Youngs Moduli (GPa) = 87.60299 59.13578 77.69855
#
# Poissons Ratio (x) = 0.32265 0.03687
# Poissons Ratio (y) = 0.47797 0.24453
# Poissons Ratio (z) = 0.04157 0.18611
#
# Static dielectric constant tensor:
#      x y z
#    x 4.102310 0.000000 0.000000 
#    y 0.000000 3.701090 0.000000 
#    z 0.000000 0.000000 3.613700 
# 
# 
# High freq. dielectric constant tensor:
#      x y z
#    x 1.814030 0.000000 0.000000 
#    y 0.000000 1.809850 0.000000 
#    z 0.000000 0.000000 1.791190 
# 
# From -- ./inp_files/16357.got.cif
#   From: 2010.03.12/outbox.cif.g09.slc.cpg/sg62_9_cif.got.tgz:16357.got - 2010.04.10 19:12:36.
