data_PCOD8255567
_publ_section_title
;
Structure prediction by ZEFSAII (Michael W. Deem and Ramdas Pophale) SiO2 
 PCOD8255567
Probable space group: C M C M
;
_chemical_formula_sum "Si O2"
_cell_formula_units_Z 80
_cell_length_a 17.820369
_cell_length_b 14.336948
_cell_length_c 17.480991
_cell_angle_alpha 90.000000
_cell_angle_beta 90.000000
_cell_angle_gamma 90.000000
_cell_volume 4466.213211
_symmetry_space_group_name_H-M "C M C M"
_symmetry_group_IT_number 63
_symmetry_cell_setting 'orthorhombic'
loop_
_space_group_symop_operation_xyz
x,y,z
-x,-y,1/2+z
x,-y,-z
-x,y,1/2-z
-x,-y,-z
x,y,1/2-z
-x,y,z
x,-y,1/2+z
1/2+x,1/2+y,z
1/2-x,1/2-y,1/2+z
1/2+x,1/2-y,-z
1/2-x,1/2+y,1/2-z
1/2-x,1/2-y,-z
1/2+x,1/2+y,1/2-z
1/2-x,1/2+y,z
1/2+x,1/2-y,1/2+z
loop_
_atom_site_type_symbol
_atom_site_label
_atom_site_fract_x
_atom_site_fract_y
_atom_site_fract_z
Si Si1 0.414765 0.909499 0.052668
Si Si2 0.300357 0.007936 0.839650
Si Si3 0.650198 0.832025 0.913741
Si Si4 0.840256 0.135648 0.659266
Si Si5 0.000000 0.885055 0.332725
Si Si6 0.000000 0.335507 0.832771
O O1 0.500000 0.875695 0.070799
O O2 0.370729 0.930266 0.131243
O O3 0.366464 0.831478 0.005161
O O4 0.415349 0.000000 0.000000
O O5 0.310362 0.989141 0.750000
O O6 0.224201 0.062857 0.858018
O O7 0.290542 0.910331 0.885587
O O8 0.677441 0.731228 0.885686
O O9 0.572880 0.869600 0.876869
O O10 0.847809 0.158460 0.750000
O O11 0.919797 0.091214 0.627502
O O12 0.000000 0.934589 0.250000
O O13 0.000000 0.774410 0.324516
O O14 0.000000 0.384039 0.750000
#
# Coordination Sequence:
#
# PCOD8255567 Si02
#       6
#    16  16  16  16   8   8
#     4   9  18  31  44  67  98 126 154 187 229 284
#     4  10  20  30  44  70  98 127 155 186 233 282
#     4  10  17  30  48  67  95 126 150 191 235 276
#     4   9  17  29  46  72  96 117 155 197 232 274
#     4   7  12  24  42  63  89 110 140 195 237 255
#     4   9  14  22  43  71  87 110 147 183 233 275
#
# _framework density 17.912265999999999
#
# number of rings (size 3 to 8) (size 9 to 14) (size 15 to 20)
#    0.000    2.800    1.000    3.000    1.400    1.200 
#    0.000    0.000    0.000    0.000    2.600    6.300 
#    0.000    0.000    0.000    0.000    0.000    0.000 
#
# Total GULP energy -495531.807190 kJ/mol
# GULP energy per Si atom -12388.295180 kJ/mol
# Density = 1.787150 g / cm^3
# Si number density = 17.912266 Si / 1000 Ang^3
#
#
#
# Elastic Constant Matrix: (Units=GPa)
#
#
# Indices 1 2 3 4 5 6 
#
# 1 113.6290 45.0215 26.6872 0.0000 0.0000 0.0000
# 2 45.0215 47.2121 6.2371 0.0000 0.0000 0.0000
# 3 26.6872 6.2371 37.5972 0.0000 0.0000 0.0000
# 4 0.0000 0.0000 0.0000 15.9095 0.0000 0.0000
# 5 0.0000 0.0000 0.0000 0.0000 25.4751 0.0000
# 6 0.0000 0.0000 0.0000 0.0000 0.0000 26.0635
#
#
#
# Elastic Compliance Matrix: (Units=1/GPa)
#
#
# Indices 1 2 3 4 5 6 
#
# 1 0.016949 -0.014900 -0.009559 0.000000 0.000000 0.000000
# 2 -0.014900 0.034754 0.004811 0.000000 0.000000 0.000000
# 3 -0.009559 0.004811 0.032585 0.000000 0.000000 0.000000
# 4 0.000000 0.000000 0.000000 0.062855 0.000000 0.000000
# 5 0.000000 0.000000 0.000000 0.000000 0.039254 0.000000
# 6 0.000000 0.000000 0.000000 0.000000 0.000000 0.038368
#
#
# Mechanical properties :
#
#
# Convention : Reuss Voigt Hill
#
# Bulk Modulus (GPa) = 22.22636 39.36999 30.79817
# Shear Modulus (GPa) = 17.91737 21.52246 19.71991
#
# Velocity S-wave (km/s) = 3.16616 3.47010 3.32161
# Velocity P-wave (km/s) = 5.07952 6.17110 5.65172
#
# Compressibility (1/GPa) = 0.04499162
#
# Stress axis : x y z
#
# Youngs Moduli (GPa) = 58.99984 28.77363 30.68916
#
# Poissons Ratio (x) = 0.42873 0.29336
# Poissons Ratio (y) = 0.87909 -0.14764
# Poissons Ratio (z) = 0.56398 -0.13842
#
# Static dielectric constant tensor:
#      x y z
#    x 3.806770 0.000000 0.000000 
#    y 0.000000 2.921190 0.000000 
#    z 0.000000 0.000000 3.380600 
# 
# 
# High freq. dielectric constant tensor:
#      x y z
#    x 1.698080 0.000000 0.000000 
#    y 0.000000 1.652480 0.000000 
#    z 0.000000 0.000000 1.676920 
# 
# From -- ./inp_files/45655.got.cif
#   From: 2010.03.12/outbox.cif.g09.slc.cpg/sg63_23_cif.got.tgz:45655.got - 2010.04.10 19:34:48.
