data_PCOD8255662
_publ_section_title
;
Structure prediction by ZEFSAII (Michael W. Deem and Ramdas Pophale) SiO2 
 PCOD8255662
Probable space group: C M C M
;
_chemical_formula_sum "Si O2"
_cell_formula_units_Z 80
_cell_length_a 23.223272
_cell_length_b 29.221840
_cell_length_c 8.606445
_cell_angle_alpha 90.000000
_cell_angle_beta 90.000000
_cell_angle_gamma 90.000000
_cell_volume 5840.563702
_symmetry_space_group_name_H-M "C M C M"
_symmetry_group_IT_number 63
_symmetry_cell_setting 'orthorhombic'
loop_
_space_group_symop_operation_xyz
x,y,z
-x,-y,1/2+z
x,-y,-z
-x,y,1/2-z
-x,-y,-z
x,y,1/2-z
-x,y,z
x,-y,1/2+z
1/2+x,1/2+y,z
1/2-x,1/2-y,1/2+z
1/2+x,1/2-y,-z
1/2-x,1/2+y,1/2-z
1/2-x,1/2-y,-z
1/2+x,1/2+y,1/2-z
1/2-x,1/2+y,z
1/2+x,1/2-y,1/2+z
loop_
_atom_site_type_symbol
_atom_site_label
_atom_site_fract_x
_atom_site_fract_y
_atom_site_fract_z
Si Si1 0.132790 0.364395 0.066964
Si Si2 0.434508 0.219849 0.069799
Si Si3 0.272069 0.812909 0.568479
Si Si4 0.839376 0.230448 0.072452
Si Si5 0.434859 0.952557 0.066107
O O1 0.142420 0.366147 0.250000
O O2 0.104403 0.411093 0.004339
O O3 0.090092 0.322661 0.026877
O O4 0.195258 0.359533 0.981642
O O5 0.429295 0.207948 0.250000
O O6 0.500000 0.229288 0.020101
O O7 0.397164 0.265878 0.031792
O O8 0.283582 0.802062 0.750000
O O9 0.202600 0.813366 0.536797
O O10 0.300376 0.774787 0.458847
O O11 0.859582 0.229886 0.250000
O O12 0.433993 0.954382 0.250000
O O13 0.500000 0.944911 0.004717
O O14 0.409673 0.000000 0.000000
#
# Coordination Sequence:
#
# PCOD8255662 Si02
#       5
#    16  16  16  16  16
#     4  10  18  27  40  55  70  90 117 149 183 217
#     4  10  19  27  36  52  72  94 120 149 180 212
#     4   9  16  25  37  53  70  88 113 144 177 211
#     4   9  16  25  37  51  68  91 116 143 175 209
#     4   9  18  30  41  53  69  90 117 148 182 219
#
# _framework density 13.697309000000001
#
# number of rings (size 3 to 8) (size 9 to 14) (size 15 to 20)
#    0.000    2.600    0.000    5.400    0.000    6.400 
#    0.000    2.000    0.000    0.000    0.000    0.000 
#    0.000    0.000    0.000    0.000    0.000    1.000 
#
# Total GULP energy -495579.816839 kJ/mol
# GULP energy per Si atom -12389.495421 kJ/mol
# Density = 1.366613 g / cm^3
# Si number density = 13.697309 Si / 1000 Ang^3
#
#
#
# Elastic Constant Matrix: (Units=GPa)
#
#
# Indices 1 2 3 4 5 6 
#
# 1 99.0335 51.9885 20.7051 0.0000 0.0000 0.0000
# 2 51.9885 59.9820 14.7217 0.0000 0.0000 0.0000
# 3 20.7051 14.7217 32.7479 0.0000 0.0000 0.0000
# 4 0.0000 0.0000 0.0000 16.8126 0.0000 0.0000
# 5 0.0000 0.0000 0.0000 0.0000 21.5387 0.0000
# 6 0.0000 0.0000 0.0000 0.0000 0.0000 23.4099
#
#
#
# Elastic Compliance Matrix: (Units=1/GPa)
#
#
# Indices 1 2 3 4 5 6 
#
# 1 0.019303 -0.015438 -0.005264 0.000000 0.000000 0.000000
# 2 -0.015438 0.031087 -0.004214 0.000000 0.000000 0.000000
# 3 -0.005264 -0.004214 0.035759 0.000000 0.000000 0.000000
# 4 0.000000 0.000000 0.000000 0.059479 0.000000 0.000000
# 5 0.000000 0.000000 0.000000 0.000000 0.046428 0.000000
# 6 0.000000 0.000000 0.000000 0.000000 0.000000 0.042717
#
#
# Mechanical properties :
#
#
# Convention : Reuss Voigt Hill
#
# Bulk Modulus (GPa) = 27.53621 40.73265 34.13443
# Shear Modulus (GPa) = 16.85146 19.30879 18.08013
#
# Velocity S-wave (km/s) = 3.51133 3.75864 3.63709
# Velocity P-wave (km/s) = 6.04866 6.97415 6.52783
#
# Compressibility (1/GPa) = 0.03631582
#
# Stress axis : x y z
#
# Youngs Moduli (GPa) = 51.80658 32.16801 27.96506
#
# Poissons Ratio (x) = 0.49662 0.14721
# Poissons Ratio (y) = 0.79980 0.11784
# Poissons Ratio (z) = 0.27271 0.13556
#
# Static dielectric constant tensor:
#      x y z
#    x 3.159280 0.000000 0.000000 
#    y 0.000000 2.624250 0.000000 
#    z 0.000000 0.000000 2.725490 
# 
# 
# High freq. dielectric constant tensor:
#      x y z
#    x 1.516020 0.000000 0.000000 
#    y 0.000000 1.468240 0.000000 
#    z 0.000000 0.000000 1.535810 
# 
# From -- ./inp_files/10962.got.cif
#   From: 2010.03.12/outbox.cif.g09.slc.cpg/sg63_6_cif.got.tgz:10962.got - 2010.04.10 19:34:48.
