data_PCOD8255529
_publ_section_title
;
Structure prediction by ZEFSAII (Michael W. Deem and Ramdas Pophale) SiO2 
 PCOD8255529
Probable space group: C M C M
;
_chemical_formula_sum "Si O2"
_cell_formula_units_Z 128
_cell_length_a 20.703333
_cell_length_b 20.989415
_cell_length_c 18.303617
_cell_angle_alpha 90.000000
_cell_angle_beta 90.000000
_cell_angle_gamma 90.000000
_cell_volume 7953.852293
_symmetry_space_group_name_H-M "C M C M"
_symmetry_group_IT_number 63
_symmetry_cell_setting 'orthorhombic'
loop_
_space_group_symop_operation_xyz
x,y,z
-x,-y,1/2+z
x,-y,-z
-x,y,1/2-z
-x,-y,-z
x,y,1/2-z
-x,y,z
x,-y,1/2+z
1/2+x,1/2+y,z
1/2-x,1/2-y,1/2+z
1/2+x,1/2-y,-z
1/2-x,1/2+y,1/2-z
1/2-x,1/2-y,-z
1/2+x,1/2+y,1/2-z
1/2-x,1/2+y,z
1/2+x,1/2-y,1/2+z
loop_
_atom_site_type_symbol
_atom_site_label
_atom_site_fract_x
_atom_site_fract_y
_atom_site_fract_z
Si Si1 0.319209 0.147181 0.421709
Si Si2 0.426255 0.379163 0.167628
Si Si3 0.648890 0.046056 0.669474
Si Si4 0.231392 0.633859 0.578003
Si Si5 0.074650 0.459978 0.570668
Si Si6 0.262726 0.445293 0.831069
Si Si7 0.821353 0.225675 0.665284
Si Si8 0.656853 0.468424 0.075177
O O1 0.293816 0.164040 0.502539
O O2 0.382895 0.103561 0.424931
O O3 0.261270 0.113826 0.378428
O O4 0.337198 0.210503 0.378395
O O5 0.416838 0.405893 0.250000
O O6 0.500000 0.362162 0.151000
O O7 0.386262 0.314797 0.158324
O O8 0.403211 0.431499 0.109867
O O9 0.630386 0.071039 0.750000
O O10 0.668824 0.105905 0.619640
O O11 0.587754 0.007276 0.638313
O O12 0.708953 0.999081 0.673846
O O13 0.261624 0.688550 0.628678
O O14 0.282460 0.577998 0.560711
O O15 0.095628 0.500000 0.500000
O O16 0.000000 0.439619 0.569431
O O17 0.281291 0.421336 0.750000
O O18 0.325286 0.475247 0.869062
O O19 0.804314 0.239650 0.750000
O O20 0.633918 0.500000 0.000000
#
# Coordination Sequence:
#
# PCOD8255529 Si02
#       8
#    16  16  16  16  16  16  16  16
#     4  11  19  31  51  72  98 131 164 198 246 294
#     4   9  19  35  51  67  94 131 164 196 236 281
#     4   9  17  29  48  69  94 131 168 200 241 289
#     4  10  18  31  49  71  98 130 159 201 245 292
#     4  10  20  33  49  71 102 135 166 204 249 292
#     4   9  17  27  44  71 101 127 154 191 240 292
#     4  10  21  34  49  71  99 128 165 203 239 289
#     4  10  17  28  49  74  98 124 156 194 239 289
#
# _framework density 16.092831
#
# number of rings (size 3 to 8) (size 9 to 14) (size 15 to 20)
#    0.000    2.250    2.500    1.500    0.000    4.500 
#    0.000    0.000    0.000    0.000    0.000    0.000 
#    0.000    0.000    0.000    0.000    0.000    0.000 
#
# Total GULP energy -793574.644683 kJ/mol
# GULP energy per Si atom -12399.603823 kJ/mol
# Density = 1.605620 g / cm^3
# Si number density = 16.092831 Si / 1000 Ang^3
#
#
#
# Elastic Constant Matrix: (Units=GPa)
#
#
# Indices 1 2 3 4 5 6 
#
# 1 68.2254 39.0824 42.5431 0.0000 0.0000 0.0000
# 2 39.0824 86.0948 55.8895 0.0000 0.0000 0.0000
# 3 42.5431 55.8895 145.9364 0.0000 0.0000 0.0000
# 4 0.0000 0.0000 0.0000 29.2995 0.0000 0.0000
# 5 0.0000 0.0000 0.0000 0.0000 19.1211 0.0000
# 6 0.0000 0.0000 0.0000 0.0000 0.0000 12.5678
#
#
#
# Elastic Compliance Matrix: (Units=1/GPa)
#
#
# Indices 1 2 3 4 5 6 
#
# 1 0.020923 -0.007371 -0.003277 0.000000 0.000000 0.000000
# 2 -0.007371 0.018055 -0.004766 0.000000 0.000000 0.000000
# 3 -0.003277 -0.004766 0.009633 0.000000 0.000000 0.000000
# 4 0.000000 0.000000 0.000000 0.034130 0.000000 0.000000
# 5 0.000000 0.000000 0.000000 0.000000 0.052298 0.000000
# 6 0.000000 0.000000 0.000000 0.000000 0.000000 0.079569
#
#
# Mechanical properties :
#
#
# Convention : Reuss Voigt Hill
#
# Bulk Modulus (GPa) = 56.23041 63.92073 60.07557
# Shear Modulus (GPa) = 19.89168 23.04712 21.46940
#
# Velocity S-wave (km/s) = 3.51958 3.78846 3.65649
# Velocity P-wave (km/s) = 7.17870 7.67742 7.43224
#
# Compressibility (1/GPa) = 0.01778397
#
# Stress axis : x y z
#
# Youngs Moduli (GPa) = 47.79489 55.38702 103.81391
#
# Poissons Ratio (x) = 0.40824 0.34015
# Poissons Ratio (y) = 0.35228 0.49475
# Poissons Ratio (z) = 0.15660 0.26396
#
# Static dielectric constant tensor:
#      x y z
#    x 2.793170 0.000000 0.000000 
#    y 0.000000 2.896340 0.000000 
#    z 0.000000 0.000000 3.303040 
# 
# 
# High freq. dielectric constant tensor:
#      x y z
#    x 1.592350 0.000000 0.000000 
#    y 0.000000 1.601290 0.000000 
#    z 0.000000 0.000000 1.637530 
# 
# From -- ./inp_files/47569.got.cif
#   From: 2010.03.12/outbox.cif.g09.slc.cpg/sg63_24_cif.got.tgz:47569.got - 2010.04.10 19:34:48.
