data_PCOD8255883
_publ_section_title
;
Structure prediction by ZEFSAII (Michael W. Deem and Ramdas Pophale) SiO2 
 PCOD8255883
Probable space group: C M C M
;
_chemical_formula_sum "Si O2"
_cell_formula_units_Z 96
_cell_length_a 15.648171
_cell_length_b 18.216103
_cell_length_c 18.890420
_cell_angle_alpha 90.000000
_cell_angle_beta 90.000000
_cell_angle_gamma 90.000000
_cell_volume 5384.689563
_symmetry_space_group_name_H-M "C M C M"
_symmetry_group_IT_number 63
_symmetry_cell_setting 'orthorhombic'
loop_
_space_group_symop_operation_xyz
x,y,z
-x,-y,1/2+z
x,-y,-z
-x,y,1/2-z
-x,-y,-z
x,y,1/2-z
-x,y,z
x,-y,1/2+z
1/2+x,1/2+y,z
1/2-x,1/2-y,1/2+z
1/2+x,1/2-y,-z
1/2-x,1/2+y,1/2-z
1/2-x,1/2-y,-z
1/2+x,1/2+y,1/2-z
1/2-x,1/2+y,z
1/2+x,1/2-y,1/2+z
loop_
_atom_site_type_symbol
_atom_site_label
_atom_site_fract_x
_atom_site_fract_y
_atom_site_fract_z
Si Si1 0.399921 0.226639 0.170506
Si Si2 0.304169 0.077620 0.170588
Si Si3 0.733127 0.579757 0.028124
Si Si4 0.838352 0.218938 0.971871
Si Si5 0.902071 0.570860 0.672347
Si Si6 0.405059 0.143307 0.968745
O O1 0.378461 0.255066 0.250000
O O2 0.500000 0.232654 0.154786
O O3 0.373276 0.142179 0.161821
O O4 0.348992 0.276104 0.113301
O O5 0.265418 0.078414 0.250000
O O6 0.227240 0.085324 0.113733
O O7 0.349027 0.001036 0.152915
O O8 0.709370 0.500000 0.000000
O O9 0.661554 0.633543 0.994149
O O10 0.832129 0.599894 0.011318
O O11 0.750000 0.250000 0.000000
O O12 0.908324 0.270168 0.010688
O O13 0.876110 0.601498 0.750000
O O14 0.884035 0.634365 0.614815
O O15 0.000000 0.546312 0.671994
O O16 0.500000 0.111116 0.985504
#
# Coordination Sequence:
#
# PCOD8255883 Si02
#       6
#    16  16  16  16  16  16
#     4  10  19  32  53  78 103 134 174 222 271 311
#     4  10  18  29  46  73 107 136 167 205 256 309
#     4  11  21  35  50  72 105 140 175 210 256 315
#     4  10  20  34  48  72 106 137 170 211 258 319
#     4   9  17  28  43  70 105 134 164 205 254 306
#     4  10  19  31  51  74  97 132 172 213 258 302
#
# _framework density 17.828325
#
# number of rings (size 3 to 8) (size 9 to 14) (size 15 to 20)
#    0.000    2.000    5.000    1.000    0.000    3.000 
#    0.000    5.000    0.000    2.000    0.000    0.000 
#    0.000    2.667    0.000    0.000    0.000    0.000 
#
# Total GULP energy -594768.074653 kJ/mol
# GULP energy per Si atom -12391.001555 kJ/mol
# Density = 1.778775 g / cm^3
# Si number density = 17.828325 Si / 1000 Ang^3
#
#
#
# Elastic Constant Matrix: (Units=GPa)
#
#
# Indices 1 2 3 4 5 6 
#
# 1 25.7145 14.9983 30.9756 0.0000 0.0000 0.0000
# 2 14.9983 105.8035 57.2334 0.0000 0.0000 0.0000
# 3 30.9756 57.2334 166.5507 0.0000 0.0000 0.0000
# 4 0.0000 0.0000 0.0000 28.9698 0.0000 0.0000
# 5 0.0000 0.0000 0.0000 0.0000 24.7175 0.0000
# 6 0.0000 0.0000 0.0000 0.0000 0.0000 17.7122
#
#
#
# Elastic Compliance Matrix: (Units=1/GPa)
#
#
# Indices 1 2 3 4 5 6 
#
# 1 0.050675 -0.002561 -0.008545 0.000000 0.000000 0.000000
# 2 -0.002561 0.011739 -0.003558 0.000000 0.000000 0.000000
# 3 -0.008545 -0.003558 0.008816 0.000000 0.000000 0.000000
# 4 0.000000 0.000000 0.000000 0.034519 0.000000 0.000000
# 5 0.000000 0.000000 0.000000 0.000000 0.040457 0.000000
# 6 0.000000 0.000000 0.000000 0.000000 0.000000 0.056458
#
#
# Mechanical properties :
#
#
# Convention : Reuss Voigt Hill
#
# Bulk Modulus (GPa) = 23.86461 56.05370 39.95916
# Shear Modulus (GPa) = 20.32857 27.27066 23.79962
#
# Velocity S-wave (km/s) = 3.38041 3.91529 3.65764
# Velocity P-wave (km/s) = 5.35267 7.20752 6.34820
#
# Compressibility (1/GPa) = 0.04190304
#
# Stress axis : x y z
#
# Youngs Moduli (GPa) = 19.73346 85.18587 113.43204
#
# Poissons Ratio (x) = 0.21820 0.96922
# Poissons Ratio (y) = 0.05055 0.40355
# Poissons Ratio (z) = 0.16861 0.30306
#
# Static dielectric constant tensor:
#      x y z
#    x 3.080930 0.000000 0.000000 
#    y 0.000000 3.596880 0.000000 
#    z 0.000000 0.000000 3.818070 
# 
# 
# High freq. dielectric constant tensor:
#      x y z
#    x 1.640850 0.000000 0.000000 
#    y 0.000000 1.667880 0.000000 
#    z 0.000000 0.000000 1.714590 
# 
# From -- ./inp_files/45750.got.cif
#   From: 2010.03.12/outbox.cif.g09.slc.cpg/sg63_23_cif.got.tgz:45750.got - 2010.04.10 19:34:48.
