data_PCOD8255767
_publ_section_title
;
Structure prediction by ZEFSAII (Michael W. Deem and Ramdas Pophale) SiO2 
 PCOD8255767
Probable space group: C M C M
;
_chemical_formula_sum "Si O2"
_cell_formula_units_Z 80
_cell_length_a 25.195085
_cell_length_b 20.735548
_cell_length_c 8.739587
_cell_angle_alpha 90.000000
_cell_angle_beta 90.000000
_cell_angle_gamma 90.000000
_cell_volume 4565.856472
_symmetry_space_group_name_H-M "C M C M"
_symmetry_group_IT_number 63
_symmetry_cell_setting 'orthorhombic'
loop_
_space_group_symop_operation_xyz
x,y,z
-x,-y,1/2+z
x,-y,-z
-x,y,1/2-z
-x,-y,-z
x,y,1/2-z
-x,y,z
x,-y,1/2+z
1/2+x,1/2+y,z
1/2-x,1/2-y,1/2+z
1/2+x,1/2-y,-z
1/2-x,1/2+y,1/2-z
1/2-x,1/2-y,-z
1/2+x,1/2+y,1/2-z
1/2-x,1/2+y,z
1/2+x,1/2-y,1/2+z
loop_
_atom_site_type_symbol
_atom_site_label
_atom_site_fract_x
_atom_site_fract_y
_atom_site_fract_z
Si Si1 0.000000 0.769418 0.070820
Si Si2 0.108453 0.770782 0.931647
Si Si3 0.280189 0.933744 0.429992
Si Si4 0.613725 0.123793 0.927866
Si Si5 0.500000 0.132668 0.572253
Si Si6 0.215914 0.807810 0.069252
O O1 0.000000 0.783505 0.250000
O O2 0.946851 0.799929 0.995907
O O3 0.000000 0.693452 0.038287
O O4 0.108718 0.776444 0.750000
O O5 0.114787 0.696957 0.989641
O O6 0.156942 0.810759 0.001412
O O7 0.282018 0.942570 0.250000
O O8 0.339259 0.918867 0.500810
O O9 0.242075 0.875509 0.477993
O O10 0.258485 0.000000 0.500000
O O11 0.626527 0.127510 0.750000
O O12 0.554696 0.093011 0.959184
O O13 0.500000 0.157139 0.750000
O O14 0.214341 0.798450 0.250000
O O15 0.250000 0.750000 0.000000
#
# Coordination Sequence:
#
# PCOD8255767 Si02
#       6
#     8  16  16  16   8  16
#     4  10  18  28  44  75 110 135 165 208 259 309
#     4  10  18  32  52  75 103 137 173 212 262 312
#     4  10  21  36  50  70 102 138 176 217 264 313
#     4   8  14  28  47  68  95 130 170 212 255 302
#     4   8  14  26  47  67  91 133 175 212 261 305
#     4  11  21  34  53  78 106 135 174 223 268 314
#
# _framework density 17.521356000000001
#
# number of rings (size 3 to 8) (size 9 to 14) (size 15 to 20)
#    0.000    2.400    2.000    3.300    0.000    1.600 
#    0.000    1.500    0.000    0.000    0.000    0.700 
#    0.000    0.000    0.000    0.000    0.000    0.000 
#
# Total GULP energy -495682.810332 kJ/mol
# GULP energy per Si atom -12392.070258 kJ/mol
# Density = 1.748148 g / cm^3
# Si number density = 17.521356 Si / 1000 Ang^3
#
#
#
# Elastic Constant Matrix: (Units=GPa)
#
#
# Indices 1 2 3 4 5 6 
#
# 1 164.1818 61.3528 48.4874 0.0000 0.0000 0.0000
# 2 61.3528 89.8775 34.9491 0.0000 0.0000 0.0000
# 3 48.4874 34.9491 64.3216 0.0000 0.0000 0.0000
# 4 0.0000 0.0000 0.0000 19.5207 0.0000 0.0000
# 5 0.0000 0.0000 0.0000 0.0000 29.3673 0.0000
# 6 0.0000 0.0000 0.0000 0.0000 0.0000 16.9975
#
#
#
# Elastic Compliance Matrix: (Units=1/GPa)
#
#
# Indices 1 2 3 4 5 6 
#
# 1 0.009063 -0.004475 -0.004400 0.000000 0.000000 0.000000
# 2 -0.004475 0.016317 -0.005492 0.000000 0.000000 0.000000
# 3 -0.004400 -0.005492 0.021848 0.000000 0.000000 0.000000
# 4 0.000000 0.000000 0.000000 0.051228 0.000000 0.000000
# 5 0.000000 0.000000 0.000000 0.000000 0.034052 0.000000
# 6 0.000000 0.000000 0.000000 0.000000 0.000000 0.058832
#
#
# Mechanical properties :
#
#
# Convention : Reuss Voigt Hill
#
# Bulk Modulus (GPa) = 54.07617 67.55106 60.81361
# Shear Modulus (GPa) = 22.10065 24.74988 23.42527
#
# Velocity S-wave (km/s) = 3.55541 3.76247 3.66041
# Velocity P-wave (km/s) = 6.91264 7.58368 7.25592
#
# Compressibility (1/GPa) = 0.01849243
#
# Stress axis : x y z
#
# Youngs Moduli (GPa) = 110.34271 61.28600 45.77123
#
# Poissons Ratio (x) = 0.27429 0.20139
# Poissons Ratio (y) = 0.49384 0.25138
# Poissons Ratio (z) = 0.48550 0.33659
#
# Static dielectric constant tensor:
#      x y z
#    x 3.836220 0.000000 0.000000 
#    y 0.000000 2.930150 0.000000 
#    z 0.000000 0.000000 3.075420 
# 
# 
# High freq. dielectric constant tensor:
#      x y z
#    x 1.699620 0.000000 0.000000 
#    y 0.000000 1.620030 0.000000 
#    z 0.000000 0.000000 1.666360 
# 
# From -- ./inp_files/10062.got.cif
#   From: 2010.03.12/outbox.cif.g09.slc.cpg/sg63_6_cif.got.tgz:10062.got - 2010.04.10 19:34:48.
