data_PCOD8255080
_publ_section_title
;
Structure prediction by ZEFSAII (Michael W. Deem and Ramdas Pophale) SiO2 
 PCOD8255080
Probable space group: P N M A
;
_chemical_formula_sum "Si O2"
_cell_formula_units_Z 40
_cell_length_a 12.818766
_cell_length_b 8.958038
_cell_length_c 15.742186
_cell_angle_alpha 90.000000
_cell_angle_beta 90.000000
_cell_angle_gamma 90.000000
_cell_volume 1807.690849
_symmetry_space_group_name_H-M "P N M A"
_symmetry_group_IT_number 62
_symmetry_cell_setting 'orthorhombic'
loop_
_space_group_symop_operation_xyz
x,y,z
1/2-x,-y,1/2+z
1/2+x,1/2-y,1/2-z
-x,1/2+y,-z
-x,-y,-z
1/2+x,y,1/2-z
1/2-x,1/2+y,1/2+z
x,1/2-y,z
loop_
_atom_site_type_symbol
_atom_site_label
_atom_site_fract_x
_atom_site_fract_y
_atom_site_fract_z
Si Si1 0.154883 0.413655 0.997604
Si Si2 0.461994 0.412954 0.623031
Si Si3 0.488802 0.424010 0.909525
Si Si4 0.215662 0.072952 0.357116
Si Si5 0.123369 0.423571 0.743151
O O1 0.207526 0.250000 0.008203
O O2 0.133307 0.482767 0.091355
O O3 0.229295 0.521827 0.944118
O O4 0.044654 0.394677 0.952324
O O5 0.414463 0.250000 0.645368
O O6 0.521476 0.480696 0.704583
O O7 0.463511 0.250000 0.921479
O O8 0.398380 0.501555 0.854980
O O9 0.596864 0.445503 0.856466
O O10 0.500000 0.500000 0.000000
O O11 0.208363 0.250000 0.356263
O O12 0.276196 0.017289 0.272619
O O13 0.143317 0.250000 0.766552
#
# Coordination Sequence:
#
# PCOD8255080 Si02
#       5
#     8   8   8   8   8
#     4   9  16  28  49  80 119 160 199 248 308 369
#     4   8  14  27  49  80 115 152 197 248 307 369
#     4  11  24  45  69  94 129 172 216 266 324 387
#     4  11  22  38  63  93 126 167 213 263 316 380
#     4   9  20  40  65  91 123 166 210 262 321 381
#
# _framework density 22.127676000000001
#
# number of rings (size 3 to 8) (size 9 to 14) (size 15 to 20)
#    0.000    2.400    0.000    4.200    0.000    6.400 
#    3.600    0.000    0.000    0.000    0.000    0.000 
#    0.000    0.000    0.000    0.000    0.000    0.000 
#
# Total GULP energy -495839.049478 kJ/mol
# GULP energy per Si atom -12395.976237 kJ/mol
# Density = 2.207731 g / cm^3
# Si number density = 22.127676 Si / 1000 Ang^3
#
#
#
# Elastic Constant Matrix: (Units=GPa)
#
#
# Indices 1 2 3 4 5 6 
#
# 1 76.9214 50.9498 31.8754 0.0000 0.0000 0.0000
# 2 50.9498 162.0983 48.3530 0.0000 0.0000 0.0000
# 3 31.8754 48.3530 96.1637 0.0000 0.0000 0.0000
# 4 0.0000 0.0000 0.0000 30.9804 0.0000 0.0000
# 5 0.0000 0.0000 0.0000 0.0000 20.4306 0.0000
# 6 0.0000 0.0000 0.0000 0.0000 0.0000 30.1340
#
#
#
# Elastic Compliance Matrix: (Units=1/GPa)
#
#
# Indices 1 2 3 4 5 6 
#
# 1 0.017390 -0.004408 -0.003548 0.000000 0.000000 0.000000
# 2 -0.004408 0.008375 -0.002750 0.000000 0.000000 0.000000
# 3 -0.003548 -0.002750 0.012958 0.000000 0.000000 0.000000
# 4 0.000000 0.000000 0.000000 0.032278 0.000000 0.000000
# 5 0.000000 0.000000 0.000000 0.000000 0.048946 0.000000
# 6 0.000000 0.000000 0.000000 0.000000 0.000000 0.033185
#
#
# Mechanical properties :
#
#
# Convention : Reuss Voigt Hill
#
# Bulk Modulus (GPa) = 57.76590 66.39330 62.07960
# Shear Modulus (GPa) = 27.72942 29.90934 28.81938
#
# Velocity S-wave (km/s) = 3.54383 3.68050 3.61281
# Velocity P-wave (km/s) = 6.55037 6.93766 6.74680
#
# Compressibility (1/GPa) = 0.01731125
#
# Stress axis : x y z
#
# Youngs Moduli (GPa) = 57.50446 119.40627 77.17377
#
# Poissons Ratio (x) = 0.52629 0.27382
# Poissons Ratio (y) = 0.25345 0.21223
# Poissons Ratio (z) = 0.20403 0.32837
#
# Static dielectric constant tensor:
#      x y z
#    x 3.868960 0.000000 0.000000 
#    y 0.000000 4.158160 0.000000 
#    z 0.000000 0.000000 3.967380 
# 
# 
# High freq. dielectric constant tensor:
#      x y z
#    x 1.848110 0.000000 0.000000 
#    y 0.000000 1.867780 0.000000 
#    z 0.000000 0.000000 1.864740 
# 
# From -- ./inp_files/23458.got.cif
#   From: 2010.03.12/outbox.cif.g09.slc.cpg/sg62_12_cif.got.tgz:23458.got - 2010.04.10 19:12:36.
