data_PCOD8255623
_publ_section_title
;
Structure prediction by ZEFSAII (Michael W. Deem and Ramdas Pophale) SiO2 
 PCOD8255623
Probable space group: C M C M
;
_chemical_formula_sum "Si O2"
_cell_formula_units_Z 96
_cell_length_a 32.313500
_cell_length_b 27.054106
_cell_length_c 9.138909
_cell_angle_alpha 90.000000
_cell_angle_beta 90.000000
_cell_angle_gamma 90.000000
_cell_volume 7989.351721
_symmetry_space_group_name_H-M "C M C M"
_symmetry_group_IT_number 63
_symmetry_cell_setting 'orthorhombic'
loop_
_space_group_symop_operation_xyz
x,y,z
-x,-y,1/2+z
x,-y,-z
-x,y,1/2-z
-x,-y,-z
x,y,1/2-z
-x,y,z
x,-y,1/2+z
1/2+x,1/2+y,z
1/2-x,1/2-y,1/2+z
1/2+x,1/2-y,-z
1/2-x,1/2+y,1/2-z
1/2-x,1/2-y,-z
1/2+x,1/2+y,1/2-z
1/2-x,1/2+y,z
1/2+x,1/2-y,1/2+z
loop_
_atom_site_type_symbol
_atom_site_label
_atom_site_fract_x
_atom_site_fract_y
_atom_site_fract_z
Si Si1 0.662678 0.304342 0.412133
Si Si2 0.453244 0.550752 0.421549
Si Si3 0.620885 0.616100 0.080487
Si Si4 0.784486 0.717519 0.076843
Si Si5 0.298796 0.447575 0.923020
Si Si6 0.246720 0.134006 0.582500
O O1 0.644651 0.308705 0.250000
O O2 0.628279 0.329471 0.513959
O O3 0.671813 0.246455 0.449669
O O4 0.705778 0.333144 0.425094
O O5 0.441819 0.500000 0.500000
O O6 0.447006 0.541630 0.250000
O O7 0.500000 0.567547 0.458730
O O8 0.421985 0.592945 0.479329
O O9 0.617587 0.625606 0.250000
O O10 0.657834 0.578817 0.041225
O O11 0.775073 0.712742 0.250000
O O12 0.750000 0.750000 0.000000
O O13 0.783954 0.663596 0.999895
O O14 0.291399 0.452999 0.750000
O O15 0.300071 0.500000 0.000000
O O16 0.261207 0.416697 0.994698
O O17 0.259524 0.122710 0.750000
#
# Coordination Sequence:
#
# PCOD8255623 Si02
#       6
#    16  16  16  16  16  16
#     4   8  15  24  34  48  64  80  97 120 150 185
#     4   9  17  28  39  50  63  79 101 129 161 197
#     4   9  17  26  36  49  63  80 101 127 160 196
#     4   9  15  23  34  48  64  81 100 121 148 181
#     4  10  18  26  35  47  63  82 105 132 161 193
#     4   9  16  25  35  47  62  81 103 125 152 184
#
# _framework density 12.015993999999999
#
# number of rings (size 3 to 8) (size 9 to 14) (size 15 to 20)
#    0.000    3.000    0.000    3.000    0.000    6.000 
#    0.000    0.000    0.000    0.000    0.000    0.000 
#    0.000    0.000    0.000    0.000    0.000    0.000 
#
# Total GULP energy -594785.345009 kJ/mol
# GULP energy per Si atom -12391.361354 kJ/mol
# Density = 1.198864 g / cm^3
# Si number density = 12.015994 Si / 1000 Ang^3
#
#
#
# Elastic Constant Matrix: (Units=GPa)
#
#
# Indices 1 2 3 4 5 6 
#
# 1 46.9088 41.3717 30.0021 0.0000 0.0000 0.0000
# 2 41.3717 56.3997 42.8140 0.0000 0.0000 0.0000
# 3 30.0021 42.8140 66.2870 0.0000 0.0000 0.0000
# 4 0.0000 0.0000 0.0000 23.7098 0.0000 0.0000
# 5 0.0000 0.0000 0.0000 0.0000 11.7231 0.0000
# 6 0.0000 0.0000 0.0000 0.0000 0.0000 20.4234
#
#
#
# Elastic Compliance Matrix: (Units=1/GPa)
#
#
# Indices 1 2 3 4 5 6 
#
# 1 0.060597 -0.046362 0.002518 0.000000 0.000000 0.000000
# 2 -0.046362 0.070258 -0.024395 0.000000 0.000000 0.000000
# 3 0.002518 -0.024395 0.029703 0.000000 0.000000 0.000000
# 4 0.000000 0.000000 0.000000 0.042177 0.000000 0.000000
# 5 0.000000 0.000000 0.000000 0.000000 0.085302 0.000000
# 6 0.000000 0.000000 0.000000 0.000000 0.000000 0.048963
#
#
# Mechanical properties :
#
#
# Convention : Reuss Voigt Hill
#
# Bulk Modulus (GPa) = 41.52895 44.21902 42.87399
# Shear Modulus (GPa) = 10.38414 14.86511 12.62463
#
# Velocity S-wave (km/s) = 2.94291 3.52107 3.24489
# Velocity P-wave (km/s) = 6.79588 7.30826 7.05672
#
# Compressibility (1/GPa) = 0.02407959
#
# Stress axis : x y z
#
# Youngs Moduli (GPa) = 16.50246 14.23333 33.66716
#
# Poissons Ratio (x) = 0.65989 -0.08477
# Poissons Ratio (y) = 0.76509 0.82130
# Poissons Ratio (z) = -0.04155 0.34722
#
# Static dielectric constant tensor:
#      x y z
#    x 2.392870 0.000000 0.000000 
#    y 0.000000 2.718640 0.000000 
#    z 0.000000 0.000000 2.623370 
# 
# 
# High freq. dielectric constant tensor:
#      x y z
#    x 1.403320 0.000000 0.000000 
#    y 0.000000 1.441930 0.000000 
#    z 0.000000 0.000000 1.470390 
# 
# From -- ./inp_files/12992.got.cif
#   From: 2010.03.12/outbox.cif.g09.slc.cpg/sg63_7_cif.got.tgz:12992.got - 2010.04.10 19:34:48.
