data_PCOD8255715
_publ_section_title
;
Structure prediction by ZEFSAII (Michael W. Deem and Ramdas Pophale) SiO2 
 PCOD8255715
Probable space group: C M C M
;
_chemical_formula_sum "Si O2"
_cell_formula_units_Z 72
_cell_length_a 23.326477
_cell_length_b 22.647334
_cell_length_c 9.822379
_cell_angle_alpha 90.000000
_cell_angle_beta 90.000000
_cell_angle_gamma 90.000000
_cell_volume 5188.991088
_symmetry_space_group_name_H-M "C M C M"
_symmetry_group_IT_number 63
_symmetry_cell_setting 'orthorhombic'
loop_
_space_group_symop_operation_xyz
x,y,z
-x,-y,1/2+z
x,-y,-z
-x,y,1/2-z
-x,-y,-z
x,y,1/2-z
-x,y,z
x,-y,1/2+z
1/2+x,1/2+y,z
1/2-x,1/2-y,1/2+z
1/2+x,1/2-y,-z
1/2-x,1/2+y,1/2-z
1/2-x,1/2-y,-z
1/2+x,1/2+y,1/2-z
1/2-x,1/2+y,z
1/2+x,1/2-y,1/2+z
loop_
_atom_site_type_symbol
_atom_site_label
_atom_site_fract_x
_atom_site_fract_y
_atom_site_fract_z
Si Si1 0.729308 0.555412 0.589808
Si Si2 0.000000 0.058405 0.588704
Si Si3 0.667501 0.737764 0.901612
Si Si4 0.711049 0.174057 0.600328
Si Si5 0.883241 0.120076 0.589287
O O1 0.748475 0.500000 0.500000
O O2 0.728139 0.539179 0.750000
O O3 0.775594 0.606635 0.559302
O O4 0.666526 0.576239 0.536651
O O5 0.944914 0.096250 0.544808
O O6 0.000000 0.043437 0.750000
O O7 0.000000 0.000000 0.500000
O O8 0.648053 0.756910 0.750000
O O9 0.730368 0.710263 0.896184
O O10 0.625381 0.687272 0.964699
O O11 0.666477 0.796121 0.995462
O O12 0.682723 0.175903 0.750000
O O13 0.876013 0.123948 0.750000
#
# Coordination Sequence:
#
# PCOD8255715 Si02
#       5
#    16   8  16  16  16
#     4   9  16  25  35  49  71  95 119 145 173 206
#     4  10  18  28  40  52  70  96 125 154 183 208
#     4   8  13  23  37  50  64  84 113 144 174 209
#     4   8  14  23  34  49  68  87 108 140 177 207
#     4   8  15  26  38  51  68  92 120 152 183 206
#
# _framework density 13.875529
#
# number of rings (size 3 to 8) (size 9 to 14) (size 15 to 20)
#    0.000    3.556    0.000    3.333    0.000    0.889 
#    0.000    4.444    0.000    0.000    0.000    0.000 
#    0.000    0.000    0.000    1.000    0.000   10.444 
#
# Total GULP energy -446093.217526 kJ/mol
# GULP energy per Si atom -12391.478265 kJ/mol
# Density = 1.384395 g / cm^3
# Si number density = 13.875529 Si / 1000 Ang^3
#
#
#
# Elastic Constant Matrix: (Units=GPa)
#
#
# Indices 1 2 3 4 5 6 
#
# 1 39.7034 42.6363 26.4106 0.0000 0.0000 0.0000
# 2 42.6363 117.1935 62.6175 0.0000 0.0000 0.0000
# 3 26.4106 62.6175 62.7054 0.0000 0.0000 0.0000
# 4 0.0000 0.0000 0.0000 27.4088 0.0000 0.0000
# 5 0.0000 0.0000 0.0000 0.0000 10.2060 0.0000
# 6 0.0000 0.0000 0.0000 0.0000 0.0000 19.2148
#
#
#
# Elastic Compliance Matrix: (Units=1/GPa)
#
#
# Indices 1 2 3 4 5 6 
#
# 1 0.042121 -0.012531 -0.005227 0.000000 0.000000 0.000000
# 2 -0.012531 0.022022 -0.016713 0.000000 0.000000 0.000000
# 3 -0.005227 -0.016713 0.034839 0.000000 0.000000 0.000000
# 4 0.000000 0.000000 0.000000 0.036485 0.000000 0.000000
# 5 0.000000 0.000000 0.000000 0.000000 0.097981 0.000000
# 6 0.000000 0.000000 0.000000 0.000000 0.000000 0.052043
#
#
# Mechanical properties :
#
#
# Convention : Reuss Voigt Hill
#
# Bulk Modulus (GPa) = 33.29028 53.65900 43.47464
# Shear Modulus (GPa) = 13.71949 17.22845 15.47397
#
# Velocity S-wave (km/s) = 3.14786 3.52752 3.34308
# Velocity P-wave (km/s) = 6.10378 7.43954 6.80452
#
# Compressibility (1/GPa) = 0.03003880
#
# Stress axis : x y z
#
# Youngs Moduli (GPa) = 23.74137 45.40975 28.70371
#
# Poissons Ratio (x) = 0.56903 0.15004
# Poissons Ratio (y) = 0.29750 0.47972
# Poissons Ratio (z) = 0.12410 0.75893
#
# Static dielectric constant tensor:
#      x y z
#    x 2.571630 0.000000 0.000000 
#    y 0.000000 2.861560 0.000000 
#    z 0.000000 0.000000 2.797710 
# 
# 
# High freq. dielectric constant tensor:
#      x y z
#    x 1.477660 0.000000 0.000000 
#    y 0.000000 1.527060 0.000000 
#    z 0.000000 0.000000 1.517990 
# 
# From -- ./inp_files/7992.got.cif
#   From: 2010.03.12/outbox.cif.g09.slc.cpg/sg63_4_cif.got.tgz:7992.got - 2010.04.10 19:34:48.
