data_PCOD8255133
_publ_section_title
;
Structure prediction by ZEFSAII (Michael W. Deem and Ramdas Pophale) SiO2 
 PCOD8255133
Probable space group: P N M A
;
_chemical_formula_sum "Si O2"
_cell_formula_units_Z 64
_cell_length_a 23.107179
_cell_length_b 8.643235
_cell_length_c 15.302800
_cell_angle_alpha 90.000000
_cell_angle_beta 90.000000
_cell_angle_gamma 90.000000
_cell_volume 3056.287126
_symmetry_space_group_name_H-M "P N M A"
_symmetry_group_IT_number 62
_symmetry_cell_setting 'orthorhombic'
loop_
_space_group_symop_operation_xyz
x,y,z
1/2-x,-y,1/2+z
1/2+x,1/2-y,1/2-z
-x,1/2+y,-z
-x,-y,-z
1/2+x,y,1/2-z
1/2-x,1/2+y,1/2+z
x,1/2-y,z
loop_
_atom_site_type_symbol
_atom_site_label
_atom_site_fract_x
_atom_site_fract_y
_atom_site_fract_z
Si Si1 0.067975 0.567875 0.749381
Si Si2 0.313012 0.072297 0.706292
Si Si3 0.493417 0.429866 0.904691
Si Si4 0.693669 0.928571 0.809544
Si Si5 0.952823 0.568443 0.065845
Si Si6 0.834729 0.927585 0.973869
Si Si7 0.293607 0.075721 0.988569
Si Si8 0.376376 0.573506 0.858682
O O1 0.060225 0.750000 0.754871
O O2 0.135464 0.521473 0.740748
O O3 0.039518 0.495982 0.836281
O O4 0.036394 0.509661 0.663062
O O5 0.323715 0.250000 0.730987
O O6 0.245876 0.033804 0.724996
O O7 0.332348 0.042500 0.607574
O O8 0.352688 0.960328 0.762978
O O9 0.508189 0.250000 0.907843
O O10 0.428154 0.455881 0.874991
O O11 0.500000 0.500000 0.000000
O O12 0.709300 0.750000 0.791765
O O13 0.686499 0.955960 0.912700
O O14 0.962415 0.750000 0.069047
O O15 0.888522 0.523602 0.033887
O O16 0.000000 0.500000 0.000000
O O17 0.840373 0.750000 0.941268
O O18 0.774987 0.948490 0.026552
O O19 0.310903 0.250000 0.960999
O O20 0.325888 0.952823 0.928764
O O21 0.398034 0.750000 0.864378
#
# Coordination Sequence:
#
# PCOD8255133 Si02
#       8
#     8   8   8   8   8   8   8   8
#     4  11  24  43  69 100 134 174 218 271 327 389
#     4  11  23  38  62  93 126 164 210 263 316 377
#     4  12  26  46  70  98 131 172 219 267 323 386
#     4   9  20  40  64  92 128 166 205 254 317 382
#     4  11  25  44  66  93 127 172 221 276 330 389
#     4   9  21  42  65  88 124 167 209 261 323 381
#     4   9  18  37  63  93 127 164 206 259 316 379
#     4  12  25  40  62  92 129 168 210 259 316 382
#
# _framework density 20.940441
#
# number of rings (size 3 to 8) (size 9 to 14) (size 15 to 20)
#    0.000    1.500    0.000    5.625    3.500    5.000 
#    0.000    0.000    0.000    0.000    0.000    0.000 
#    0.000    0.000    0.000    0.000    0.000    0.000 
#
# Total GULP energy -793852.332974 kJ/mol
# GULP energy per Si atom -12403.942703 kJ/mol
# Density = 2.089278 g / cm^3
# Si number density = 20.940441 Si / 1000 Ang^3
#
#
#
# Elastic Constant Matrix: (Units=GPa)
#
#
# Indices 1 2 3 4 5 6 
#
# 1 94.6181 38.1518 44.3052 0.0000 0.0000 0.0000
# 2 38.1518 87.4638 36.1110 0.0000 0.0000 0.0000
# 3 44.3052 36.1110 100.3168 0.0000 0.0000 0.0000
# 4 0.0000 0.0000 0.0000 34.7269 0.0000 0.0000
# 5 0.0000 0.0000 0.0000 0.0000 36.4976 0.0000
# 6 0.0000 0.0000 0.0000 0.0000 0.0000 33.8406
#
#
#
# Elastic Compliance Matrix: (Units=1/GPa)
#
#
# Indices 1 2 3 4 5 6 
#
# 1 0.014613 -0.004357 -0.004886 0.000000 0.000000 0.000000
# 2 -0.004357 0.014728 -0.003377 0.000000 0.000000 0.000000
# 3 -0.004886 -0.003377 0.013342 0.000000 0.000000 0.000000
# 4 0.000000 0.000000 0.000000 0.028796 0.000000 0.000000
# 5 0.000000 0.000000 0.000000 0.000000 0.027399 0.000000
# 6 0.000000 0.000000 0.000000 0.000000 0.000000 0.029550
#
#
# Mechanical properties :
#
#
# Convention : Reuss Voigt Hill
#
# Bulk Modulus (GPa) = 57.32878 57.72608 57.52743
# Shear Modulus (GPa) = 31.35109 31.93505 31.64307
#
# Velocity S-wave (km/s) = 3.87351 3.90942 3.89150
# Velocity P-wave (km/s) = 6.88781 6.92854 6.90820
#
# Compressibility (1/GPa) = 0.01744325
#
# Stress axis : x y z
#
# Youngs Moduli (GPa) = 68.43018 67.89619 74.95186
#
# Poissons Ratio (x) = 0.29584 0.36618
# Poissons Ratio (y) = 0.29817 0.25314
# Poissons Ratio (z) = 0.33432 0.22931
#
# Static dielectric constant tensor:
#      x y z
#    x 3.899170 0.000000 0.000000 
#    y 0.000000 3.537810 0.000000 
#    z 0.000000 0.000000 3.733680 
# 
# 
# High freq. dielectric constant tensor:
#      x y z
#    x 1.828920 0.000000 0.000000 
#    y 0.000000 1.821180 0.000000 
#    z 0.000000 0.000000 1.823590 
# 
# From -- ./inp_files/20799.got.cif
#   From: 2010.03.12/outbox.cif.g09.slc.cpg/sg62_11_cif.got.tgz:20799.got - 2010.04.10 19:12:36.
