data_PCOD8255200
_publ_section_title
;
Structure prediction by ZEFSAII (Michael W. Deem and Ramdas Pophale) SiO2 
 PCOD8255200
Probable space group: P N M A
;
_chemical_formula_sum "Si O2"
_cell_formula_units_Z 40
_cell_length_a 8.805291
_cell_length_b 10.715937
_cell_length_c 19.683327
_cell_angle_alpha 90.000000
_cell_angle_beta 90.000000
_cell_angle_gamma 90.000000
_cell_volume 1857.258576
_symmetry_space_group_name_H-M "P N M A"
_symmetry_group_IT_number 62
_symmetry_cell_setting 'orthorhombic'
loop_
_space_group_symop_operation_xyz
x,y,z
1/2-x,-y,1/2+z
1/2+x,1/2-y,1/2-z
-x,1/2+y,-z
-x,-y,-z
1/2+x,y,1/2-z
1/2-x,1/2+y,1/2+z
x,1/2-y,z
loop_
_atom_site_type_symbol
_atom_site_label
_atom_site_fract_x
_atom_site_fract_y
_atom_site_fract_z
Si Si1 0.814257 0.894244 0.051138
Si Si2 0.813692 0.891020 0.291146
Si Si3 0.135350 0.250000 0.163163
Si Si4 0.493800 0.250000 0.192726
Si Si5 0.629671 0.997599 0.411031
Si Si6 0.372835 0.010655 0.825922
O O1 0.793811 0.750000 0.031371
O O2 0.685286 0.932610 0.104049
O O3 0.794428 0.980150 0.984567
O O4 0.979100 0.914604 0.083901
O O5 0.773199 0.750000 0.269848
O O6 0.754991 0.986535 0.233198
O O7 0.993670 0.904430 0.295743
O O8 0.747064 0.923062 0.364749
O O9 0.313827 0.250000 0.180521
O O10 0.026869 0.250000 0.227846
O O11 0.086161 0.369625 0.120414
O O12 0.569850 0.371051 0.158611
#
# Coordination Sequence:
#
# PCOD8255200 Si02
#       6
#     8   8   4   4   8   8
#     4  11  25  45  68  99 135 179 224 274 334 406
#     4  12  24  43  67  97 133 175 222 277 332 399
#     4  12  24  46  68  98 138 169 229 286 328 402
#     4  12  24  44  70 102 134 175 223 280 336 396
#     4  11  24  44  69  95 135 177 223 279 335 393
#     4  12  25  43  68  99 133 176 223 275 337 395
#
# _framework density 21.537120999999999
#
# number of rings (size 3 to 8) (size 9 to 14) (size 15 to 20)
#    0.000    0.400    5.000    3.600    2.800    0.800 
#    3.600    0.000    0.000    0.000    0.000    0.000 
#    0.000    0.000    0.000    0.000    0.000    0.000 
#
# Total GULP energy -496288.033353 kJ/mol
# GULP energy per Si atom -12407.200834 kJ/mol
# Density = 2.148810 g / cm^3
# Si number density = 21.537121 Si / 1000 Ang^3
#
#
#
# Elastic Constant Matrix: (Units=GPa)
#
#
# Indices 1 2 3 4 5 6 
#
# 1 40.8066 9.3734 16.7309 0.0000 0.0000 0.0000
# 2 9.3734 104.1466 3.5615 0.0000 0.0000 0.0000
# 3 16.7309 3.5615 63.7025 0.0000 0.0000 0.0000
# 4 0.0000 0.0000 0.0000 29.9547 0.0000 0.0000
# 5 0.0000 0.0000 0.0000 0.0000 38.2821 0.0000
# 6 0.0000 0.0000 0.0000 0.0000 0.0000 32.6564
#
#
#
# Elastic Compliance Matrix: (Units=1/GPa)
#
#
# Indices 1 2 3 4 5 6 
#
# 1 0.027990 -0.002272 -0.007224 0.000000 0.000000 0.000000
# 2 -0.002272 0.009805 0.000049 0.000000 0.000000 0.000000
# 3 -0.007224 0.000049 0.017593 0.000000 0.000000 0.000000
# 4 0.000000 0.000000 0.000000 0.033384 0.000000 0.000000
# 5 0.000000 0.000000 0.000000 0.000000 0.026122 0.000000
# 6 0.000000 0.000000 0.000000 0.000000 0.000000 0.030622
#
#
# Mechanical properties :
#
#
# Convention : Reuss Voigt Hill
#
# Bulk Modulus (GPa) = 27.40361 29.77639 28.59000
# Shear Modulus (GPa) = 28.31677 32.11131 30.21404
#
# Velocity S-wave (km/s) = 3.62994 3.86550 3.74957
# Velocity P-wave (km/s) = 5.50637 5.81192 5.66121
#
# Compressibility (1/GPa) = 0.03649154
#
# Stress axis : x y z
#
# Youngs Moduli (GPa) = 35.72741 101.99211 56.84198
#
# Poissons Ratio (x) = 0.23174 0.41064
# Poissons Ratio (y) = 0.08118 -0.00276
# Poissons Ratio (z) = 0.25810 -0.00495
#
# Static dielectric constant tensor:
#      x y z
#    x 3.816230 0.000000 0.000000 
#    y 0.000000 4.034240 0.000000 
#    z 0.000000 0.000000 3.914210 
# 
# 
# High freq. dielectric constant tensor:
#      x y z
#    x 1.845240 0.000000 0.000000 
#    y 0.000000 1.859120 0.000000 
#    z 0.000000 0.000000 1.849500 
# 
# From -- ./inp_files/21952.got.cif
#   From: 2010.03.12/outbox.cif.g09.slc.cpg/sg62_11_cif.got.tgz:21952.got - 2010.04.10 19:12:36.
