data_PCOD8255458
_publ_section_title
;
Structure prediction by ZEFSAII (Michael W. Deem and Ramdas Pophale) SiO2 
 PCOD8255458
Probable space group: C M C M
;
_chemical_formula_sum "Si O2"
_cell_formula_units_Z 96
_cell_length_a 28.889295
_cell_length_b 26.508397
_cell_length_c 8.961555
_cell_angle_alpha 90.000000
_cell_angle_beta 90.000000
_cell_angle_gamma 90.000000
_cell_volume 6862.838585
_symmetry_space_group_name_H-M "C M C M"
_symmetry_group_IT_number 63
_symmetry_cell_setting 'orthorhombic'
loop_
_space_group_symop_operation_xyz
x,y,z
-x,-y,1/2+z
x,-y,-z
-x,y,1/2-z
-x,-y,-z
x,y,1/2-z
-x,y,z
x,-y,1/2+z
1/2+x,1/2+y,z
1/2-x,1/2-y,1/2+z
1/2+x,1/2-y,-z
1/2-x,1/2+y,1/2-z
1/2-x,1/2-y,-z
1/2+x,1/2+y,1/2-z
1/2-x,1/2+y,z
1/2+x,1/2-y,1/2+z
loop_
_atom_site_type_symbol
_atom_site_label
_atom_site_fract_x
_atom_site_fract_y
_atom_site_fract_z
Si Si1 0.857778 0.947188 0.575314
Si Si2 0.139740 0.240090 0.425154
Si Si3 0.810009 0.145091 0.926107
Si Si4 0.447940 0.714697 0.575352
Si Si5 0.225914 0.704664 0.921054
Si Si6 0.051615 0.889806 0.920524
O O1 0.848010 0.951143 0.750000
O O2 0.823159 0.906442 0.506128
O O3 0.911179 0.932819 0.541347
O O4 0.846574 0.000000 0.500000
O O5 0.136956 0.228298 0.250000
O O6 0.160432 0.191120 0.507176
O O7 0.088445 0.250637 0.489541
O O8 0.170808 0.290835 0.458145
O O9 0.820160 0.141297 0.750000
O O10 0.754445 0.153572 0.959826
O O11 0.439436 0.719400 0.750000
O O12 0.500000 0.731510 0.531738
O O13 0.439184 0.657080 0.528201
O O14 0.233334 0.716487 0.750000
O O15 0.250000 0.750000 0.000000
O O16 0.057608 0.871096 0.750000
O O17 0.000000 0.911999 0.946772
#
# Coordination Sequence:
#
# PCOD8255458 Si02
#       6
#    16  16  16  16  16  16
#     4  11  22  33  45  60  77 101 133 169 209 253
#     4  10  17  27  43  62  82 104 130 160 196 240
#     4  10  18  30  45  60  80 102 127 164 202 240
#     4  10  19  28  40  59  81 106 135 165 200 239
#     4   8  16  27  41  61  81 101 125 155 195 237
#     4   9  18  32  46  57  72  97 129 167 210 250
#
# _framework density 13.988381
#
# number of rings (size 3 to 8) (size 9 to 14) (size 15 to 20)
#    0.000    2.333    1.667    2.000    0.000    3.333 
#    0.000    0.000    0.000    0.000    0.000    0.000 
#    0.000    0.000    0.000    0.000    0.000    0.833 
#
# Total GULP energy -594693.933869 kJ/mol
# GULP energy per Si atom -12389.456956 kJ/mol
# Density = 1.395654 g / cm^3
# Si number density = 13.988381 Si / 1000 Ang^3
#
#
#
# Elastic Constant Matrix: (Units=GPa)
#
#
# Indices 1 2 3 4 5 6 
#
# 1 111.4344 58.3986 51.4756 0.0000 0.0000 0.0000
# 2 58.3986 53.5560 32.5332 0.0000 0.0000 0.0000
# 3 51.4756 32.5332 70.5977 0.0000 0.0000 0.0000
# 4 0.0000 0.0000 0.0000 15.3403 0.0000 0.0000
# 5 0.0000 0.0000 0.0000 0.0000 21.3211 0.0000
# 6 0.0000 0.0000 0.0000 0.0000 0.0000 18.9579
#
#
#
# Elastic Compliance Matrix: (Units=1/GPa)
#
#
# Indices 1 2 3 4 5 6 
#
# 1 0.023409 -0.021050 -0.007368 0.000000 0.000000 0.000000
# 2 -0.021050 0.044859 -0.005324 0.000000 0.000000 0.000000
# 3 -0.007368 -0.005324 0.021991 0.000000 0.000000 0.000000
# 4 0.000000 0.000000 0.000000 0.065188 0.000000 0.000000
# 5 0.000000 0.000000 0.000000 0.000000 0.046902 0.000000
# 6 0.000000 0.000000 0.000000 0.000000 0.000000 0.052748
#
#
# Mechanical properties :
#
#
# Convention : Reuss Voigt Hill
#
# Bulk Modulus (GPa) = 43.90793 57.82255 50.86524
# Shear Modulus (GPa) = 15.14363 17.33591 16.23977
#
# Velocity S-wave (km/s) = 3.29384 3.52420 3.41096
# Velocity P-wave (km/s) = 6.77664 7.61484 7.20794
#
# Compressibility (1/GPa) = 0.02277493
#
# Stress axis : x y z
#
# Youngs Moduli (GPa) = 42.71896 22.29201 45.47387
#
# Poissons Ratio (x) = 0.46924 0.33506
# Poissons Ratio (y) = 0.89922 0.24211
# Poissons Ratio (z) = 0.31476 0.11869
#
# Static dielectric constant tensor:
#      x y z
#    x 3.350220 0.000000 0.000000 
#    y 0.000000 2.488310 0.000000 
#    z 0.000000 0.000000 2.881320 
# 
# 
# High freq. dielectric constant tensor:
#      x y z
#    x 1.538550 0.000000 0.000000 
#    y 0.000000 1.474210 0.000000 
#    z 0.000000 0.000000 1.552590 
# 
# From -- ./inp_files/12967.got.cif
#   From: 2010.03.12/outbox.cif.g09.slc.cpg/sg63_7_cif.got.tgz:12967.got - 2010.04.10 19:34:48.
