data_PCOD8255208
_publ_section_title
;
Structure prediction by ZEFSAII (Michael W. Deem and Ramdas Pophale) SiO2 
 PCOD8255208
Probable space group: P N M A
;
_chemical_formula_sum "Si O2"
_cell_formula_units_Z 40
_cell_length_a 16.349302
_cell_length_b 9.593519
_cell_length_c 11.676541
_cell_angle_alpha 90.000000
_cell_angle_beta 90.000000
_cell_angle_gamma 90.000000
_cell_volume 1831.434389
_symmetry_space_group_name_H-M "P N M A"
_symmetry_group_IT_number 62
_symmetry_cell_setting 'orthorhombic'
loop_
_space_group_symop_operation_xyz
x,y,z
1/2-x,-y,1/2+z
1/2+x,1/2-y,1/2-z
-x,1/2+y,-z
-x,-y,-z
1/2+x,y,1/2-z
1/2-x,1/2+y,1/2+z
x,1/2-y,z
loop_
_atom_site_type_symbol
_atom_site_label
_atom_site_fract_x
_atom_site_fract_y
_atom_site_fract_z
Si Si1 0.775449 0.750000 0.961200
Si Si2 0.299867 0.750000 0.941124
Si Si3 0.182267 0.478237 0.617890
Si Si4 0.601179 0.250000 0.274446
Si Si5 0.445652 0.250000 0.691896
Si Si6 0.033067 0.967059 0.769123
Si Si7 0.108182 0.750000 0.934905
Si Si8 0.235008 0.750000 0.274034
O O1 0.734196 0.612124 0.913378
O O2 0.867930 0.750000 0.907376
O O3 0.772833 0.750000 0.098535
O O4 0.321478 0.750000 0.808273
O O5 0.203886 0.750000 0.938786
O O6 0.334083 0.613087 0.004779
O O7 0.095435 0.532525 0.663308
O O8 0.231931 0.388473 0.711809
O O9 0.549047 0.115377 0.240636
O O10 0.507042 0.376627 0.708693
O O11 0.417078 0.250000 0.564018
O O12 0.364809 0.250000 0.774006
O O13 0.075961 0.891457 0.876732
#
# Coordination Sequence:
#
# PCOD8255208 Si02
#       8
#     4   4   8   4   4   8   4   4
#     4  12  27  44  78 103 139 192 248 290 352 435
#     4  11  25  47  77  97 146 189 239 296 352 433
#     4  11  25  48  69 104 141 188 236 298 354 431
#     4  11  26  46  68 106 142 195 231 290 364 420
#     4  12  23  44  71 107 143 184 237 296 355 414
#     4  11  26  44  69 105 145 181 237 293 361 422
#     4  11  24  45  72  99 143 188 235 290 352 430
#     4  11  27  46  72 108 141 184 246 294 353 428
#
# _framework density 21.840803999999999
#
# number of rings (size 3 to 8) (size 9 to 14) (size 15 to 20)
#    0.000    0.800    2.000    5.400    8.400    4.000 
#    3.600    0.000    0.000    0.000    0.000    0.000 
#    0.000    0.000    0.000    0.000    0.000    0.000 
#
# Total GULP energy -496022.281578 kJ/mol
# GULP energy per Si atom -12400.557039 kJ/mol
# Density = 2.179109 g / cm^3
# Si number density = 21.840804 Si / 1000 Ang^3
#
#
#
# Elastic Constant Matrix: (Units=GPa)
#
#
# Indices 1 2 3 4 5 6 
#
# 1 128.2614 33.3247 29.4889 0.0000 0.0000 0.0000
# 2 33.3247 158.0308 33.6043 0.0000 0.0000 0.0000
# 3 29.4889 33.6043 113.7544 0.0000 0.0000 0.0000
# 4 0.0000 0.0000 0.0000 10.8594 0.0000 0.0000
# 5 0.0000 0.0000 0.0000 0.0000 41.9071 0.0000
# 6 0.0000 0.0000 0.0000 0.0000 0.0000 41.6772
#
#
#
# Elastic Compliance Matrix: (Units=1/GPa)
#
#
# Indices 1 2 3 4 5 6 
#
# 1 0.008582 -0.001426 -0.001803 0.000000 0.000000 0.000000
# 2 -0.001426 0.006989 -0.001695 0.000000 0.000000 0.000000
# 3 -0.001803 -0.001695 0.009759 0.000000 0.000000 0.000000
# 4 0.000000 0.000000 0.000000 0.092086 0.000000 0.000000
# 5 0.000000 0.000000 0.000000 0.000000 0.023862 0.000000
# 6 0.000000 0.000000 0.000000 0.000000 0.000000 0.023994
#
#
# Mechanical properties :
#
#
# Convention : Reuss Voigt Hill
#
# Bulk Modulus (GPa) = 64.59578 65.87583 65.23581
# Shear Modulus (GPa) = 27.73436 39.13064 33.43250
#
# Velocity S-wave (km/s) = 3.56735 4.23736 3.91671
# Velocity P-wave (km/s) = 6.82700 7.35986 7.09843
#
# Compressibility (1/GPa) = 0.01548089
#
# Stress axis : x y z
#
# Youngs Moduli (GPa) = 116.52647 143.08106 102.46894
#
# Poissons Ratio (x) = 0.20406 0.18479
# Poissons Ratio (y) = 0.16619 0.17368
# Poissons Ratio (z) = 0.21014 0.24251
#
# Static dielectric constant tensor:
#      x y z
#    x 4.000420 0.000000 0.000000 
#    y 0.000000 3.875780 0.000000 
#    z 0.000000 0.000000 3.762380 
# 
# 
# High freq. dielectric constant tensor:
#      x y z
#    x 1.871130 0.000000 0.000000 
#    y 0.000000 1.880420 0.000000 
#    z 0.000000 0.000000 1.856470 
# 
# From -- ./inp_files/13934.got.cif
#   From: 2010.03.12/outbox.cif.g09.slc.cpg/sg62_7_cif.got.tgz:13934.got - 2010.04.10 19:12:36.
