data_PCOD8255802
_publ_section_title
;
Structure prediction by ZEFSAII (Michael W. Deem and Ramdas Pophale) SiO2 
 PCOD8255802
Probable space group: C M C M
;
_chemical_formula_sum "Si O2"
_cell_formula_units_Z 104
_cell_length_a 30.447226
_cell_length_b 21.888897
_cell_length_c 8.860202
_cell_angle_alpha 90.000000
_cell_angle_beta 90.000000
_cell_angle_gamma 90.000000
_cell_volume 5904.936502
_symmetry_space_group_name_H-M "C M C M"
_symmetry_group_IT_number 63
_symmetry_cell_setting 'orthorhombic'
loop_
_space_group_symop_operation_xyz
x,y,z
-x,-y,1/2+z
x,-y,-z
-x,y,1/2-z
-x,-y,-z
x,y,1/2-z
-x,y,z
x,-y,1/2+z
1/2+x,1/2+y,z
1/2-x,1/2-y,1/2+z
1/2+x,1/2-y,-z
1/2-x,1/2+y,1/2-z
1/2-x,1/2-y,-z
1/2+x,1/2+y,1/2-z
1/2-x,1/2+y,z
1/2+x,1/2-y,1/2+z
loop_
_atom_site_type_symbol
_atom_site_label
_atom_site_fract_x
_atom_site_fract_y
_atom_site_fract_z
Si Si1 0.151543 0.197763 0.572560
Si Si2 0.067037 0.154094 0.428168
Si Si3 0.000000 0.745348 0.926903
Si Si4 0.159139 0.669429 0.572243
Si Si5 0.000000 0.934195 0.429065
Si Si6 0.746481 0.686257 0.576805
Si Si7 0.000000 0.610435 0.929604
Si Si8 0.406405 0.063367 0.571053
O O1 0.140956 0.198494 0.750000
O O2 0.116800 0.157131 0.482783
O O3 0.150374 0.267405 0.513917
O O4 0.197678 0.161520 0.537045
O O5 0.063847 0.142383 0.250000
O O6 0.043395 0.217547 0.474906
O O7 0.043772 0.099013 0.513859
O O8 0.000000 0.678487 0.002214
O O9 0.000000 0.735596 0.750000
O O10 0.151705 0.681214 0.750000
O O11 0.209758 0.646444 0.537242
O O12 0.125854 0.617344 0.514120
O O13 0.000000 0.937506 0.250000
O O14 0.000000 0.000000 0.500000
O O15 0.747717 0.702238 0.750000
O O16 0.750000 0.750000 0.500000
O O17 0.956092 0.576353 0.986238
O O18 0.000000 0.613834 0.750000
O O19 0.404200 0.057990 0.750000
O O20 0.390060 0.000000 0.500000
#
# Coordination Sequence:
#
# PCOD8255802 Si02
#       8
#    16  16   8  16   8  16   8  16
#     4  10  18  28  46  75 104 127 153 198 252 297
#     4  10  19  32  51  76 104 135 166 196 234 286
#     4   8  15  28  47  69  93 121 156 191 224 269
#     4   9  17  31  49  67  90 127 166 201 246 303
#     4  11  22  38  57  77 102 133 169 206 242 286
#     4   8  15  27  44  67  94 121 153 190 236 291
#     4   9  16  28  45  66  90 118 151 191 237 283
#     4  10  20  32  47  64  86 119 160 201 242 287
#
# _framework density 17.612382
#
# number of rings (size 3 to 8) (size 9 to 14) (size 15 to 20)
#    0.000    2.615    0.000    3.231    0.000    3.692 
#    0.000    0.000    0.000    2.769    0.000    2.154 
#    0.000    0.000    0.000    0.000    0.000    0.000 
#
# Total GULP energy -644256.923087 kJ/mol
# GULP energy per Si atom -12389.556213 kJ/mol
# Density = 1.757230 g / cm^3
# Si number density = 17.612382 Si / 1000 Ang^3
#
#
#
# Elastic Constant Matrix: (Units=GPa)
#
#
# Indices 1 2 3 4 5 6 
#
# 1 156.1742 47.7859 39.5653 0.0000 0.0000 0.0000
# 2 47.7859 86.2177 28.8422 0.0000 0.0000 0.0000
# 3 39.5653 28.8422 59.0916 0.0000 0.0000 0.0000
# 4 0.0000 0.0000 0.0000 23.5829 0.0000 0.0000
# 5 0.0000 0.0000 0.0000 0.0000 23.8400 0.0000
# 6 0.0000 0.0000 0.0000 0.0000 0.0000 20.4695
#
#
#
# Elastic Compliance Matrix: (Units=1/GPa)
#
#
# Indices 1 2 3 4 5 6 
#
# 1 0.008443 -0.003332 -0.004026 0.000000 0.000000 0.000000
# 2 -0.003332 0.015177 -0.005177 0.000000 0.000000 0.000000
# 3 -0.004026 -0.005177 0.022145 0.000000 0.000000 0.000000
# 4 0.000000 0.000000 0.000000 0.042404 0.000000 0.000000
# 5 0.000000 0.000000 0.000000 0.000000 0.041946 0.000000
# 6 0.000000 0.000000 0.000000 0.000000 0.000000 0.048853
#
#
# Mechanical properties :
#
#
# Convention : Reuss Voigt Hill
#
# Bulk Modulus (GPa) = 48.32192 59.31894 53.82043
# Shear Modulus (GPa) = 23.70365 25.93115 24.81740
#
# Velocity S-wave (km/s) = 3.67256 3.84125 3.75785
# Velocity P-wave (km/s) = 6.74385 7.30938 7.03230
#
# Compressibility (1/GPa) = 0.02069454
#
# Stress axis : x y z
#
# Youngs Moduli (GPa) = 118.44381 65.88797 45.15593
#
# Poissons Ratio (x) = 0.21957 0.18182
# Poissons Ratio (y) = 0.39471 0.23376
# Poissons Ratio (z) = 0.47690 0.34108
#
# Static dielectric constant tensor:
#      x y z
#    x 4.462260 0.000000 0.000000 
#    y 0.000000 2.966440 0.000000 
#    z 0.000000 0.000000 3.140060 
# 
# 
# High freq. dielectric constant tensor:
#      x y z
#    x 1.701240 0.000000 0.000000 
#    y 0.000000 1.643630 0.000000 
#    z 0.000000 0.000000 1.670940 
# 
# From -- ./inp_files/14534.got.cif
#   From: 2010.03.12/outbox.cif.g09.slc.cpg/sg63_8_cif.got.tgz:14534.got - 2010.04.10 19:34:48.
