data_PCOD8255435
_publ_section_title
;
Structure prediction by ZEFSAII (Michael W. Deem and Ramdas Pophale) SiO2 
 PCOD8255435
Probable space group: C M C M
;
_chemical_formula_sum "Si O2"
_cell_formula_units_Z 96
_cell_length_a 21.339049
_cell_length_b 30.375081
_cell_length_c 9.416169
_cell_angle_alpha 90.000000
_cell_angle_beta 90.000000
_cell_angle_gamma 90.000000
_cell_volume 6103.328560
_symmetry_space_group_name_H-M "C M C M"
_symmetry_group_IT_number 63
_symmetry_cell_setting 'orthorhombic'
loop_
_space_group_symop_operation_xyz
x,y,z
-x,-y,1/2+z
x,-y,-z
-x,y,1/2-z
-x,-y,-z
x,y,1/2-z
-x,y,z
x,-y,1/2+z
1/2+x,1/2+y,z
1/2-x,1/2-y,1/2+z
1/2+x,1/2-y,-z
1/2-x,1/2+y,1/2-z
1/2-x,1/2-y,-z
1/2+x,1/2+y,1/2-z
1/2-x,1/2+y,z
1/2+x,1/2-y,1/2+z
loop_
_atom_site_type_symbol
_atom_site_label
_atom_site_fract_x
_atom_site_fract_y
_atom_site_fract_z
Si Si1 0.067694 0.926618 0.587796
Si Si2 0.299968 0.779341 0.915745
Si Si3 0.432715 0.248922 0.086819
Si Si4 0.701091 0.540616 0.086892
Si Si5 0.894785 0.153410 0.913109
Si Si6 0.275683 0.638034 0.412678
O O1 0.076872 0.911046 0.750000
O O2 0.127034 0.956582 0.546135
O O3 0.064898 0.883842 0.489521
O O4 0.000000 0.951119 0.569225
O O5 0.297560 0.764679 0.750000
O O6 0.369881 0.772347 0.981617
O O7 0.285642 0.831567 0.931652
O O8 0.250000 0.750000 0.000000
O O9 0.432924 0.234601 0.250000
O O10 0.500000 0.233200 0.018761
O O11 0.431673 0.301349 0.072040
O O12 0.711077 0.528909 0.250000
O O13 0.735903 0.586623 0.046728
O O14 0.730727 0.500000 0.000000
O O15 0.884589 0.139981 0.750000
O O16 0.827535 0.159102 0.986382
O O17 0.299821 0.639540 0.250000
#
# Coordination Sequence:
#
# PCOD8255435 Si02
#       6
#    16  16  16  16  16  16
#     4   9  18  31  43  56  80 113 145 178 221 269
#     4  10  18  30  48  67  90 121 152 183 216 259
#     4   9  17  27  40  63  93 119 145 181 221 253
#     4   9  18  31  44  60  80 105 138 181 227 268
#     4  10  17  26  42  63  86 113 148 187 218 251
#     4   9  18  31  46  63  86 114 146 181 220 263
#
# _framework density 15.729122
#
# number of rings (size 3 to 8) (size 9 to 14) (size 15 to 20)
#    0.000    2.667    1.667    2.000    0.000    4.000 
#    0.000    0.000    0.000    1.500    0.000    0.000 
#    0.000    0.667    0.000    0.500    0.000    1.000 
#
# Total GULP energy -594637.128123 kJ/mol
# GULP energy per Si atom -12388.273503 kJ/mol
# Density = 1.569332 g / cm^3
# Si number density = 15.729122 Si / 1000 Ang^3
#
#
#
# Elastic Constant Matrix: (Units=GPa)
#
#
# Indices 1 2 3 4 5 6 
#
# 1 96.8292 43.9534 24.2746 0.0000 0.0000 0.0000
# 2 43.9534 84.5292 29.8337 0.0000 0.0000 0.0000
# 3 24.2746 29.8337 47.0390 0.0000 0.0000 0.0000
# 4 0.0000 0.0000 0.0000 21.6502 0.0000 0.0000
# 5 0.0000 0.0000 0.0000 0.0000 12.9480 0.0000
# 6 0.0000 0.0000 0.0000 0.0000 0.0000 10.7374
#
#
#
# Elastic Compliance Matrix: (Units=1/GPa)
#
#
# Indices 1 2 3 4 5 6 
#
# 1 0.013914 -0.006056 -0.003339 0.000000 0.000000 0.000000
# 2 -0.006056 0.017878 -0.008214 0.000000 0.000000 0.000000
# 3 -0.003339 -0.008214 0.028191 0.000000 0.000000 0.000000
# 4 0.000000 0.000000 0.000000 0.046189 0.000000 0.000000
# 5 0.000000 0.000000 0.000000 0.000000 0.077232 0.000000
# 6 0.000000 0.000000 0.000000 0.000000 0.000000 0.093133
#
#
# Mechanical properties :
#
#
# Convention : Reuss Voigt Hill
#
# Bulk Modulus (GPa) = 40.37892 47.16896 43.77394
# Shear Modulus (GPa) = 15.62451 17.75617 16.69034
#
# Velocity S-wave (km/s) = 3.15516 3.36351 3.26100
# Velocity P-wave (km/s) = 6.24504 6.71846 6.48607
#
# Compressibility (1/GPa) = 0.02476540
#
# Stress axis : x y z
#
# Youngs Moduli (GPa) = 71.87171 55.93377 35.47177
#
# Poissons Ratio (x) = 0.33875 0.11844
# Poissons Ratio (y) = 0.43528 0.29135
# Poissons Ratio (z) = 0.23998 0.45942
#
# Static dielectric constant tensor:
#      x y z
#    x 3.083240 0.000000 0.000000 
#    y 0.000000 2.877770 0.000000 
#    z 0.000000 0.000000 2.942470 
# 
# 
# High freq. dielectric constant tensor:
#      x y z
#    x 1.578400 0.000000 0.000000 
#    y 0.000000 1.586120 0.000000 
#    z 0.000000 0.000000 1.594220 
# 
# From -- ./inp_files/10716.got.cif
#   From: 2010.03.12/outbox.cif.g09.slc.cpg/sg63_6_cif.got.tgz:10716.got - 2010.04.10 19:34:48.
