data_PCOD8255708
_publ_section_title
;
Structure prediction by ZEFSAII (Michael W. Deem and Ramdas Pophale) SiO2 
 PCOD8255708
Probable space group: C M C M
;
_chemical_formula_sum "Si O2"
_cell_formula_units_Z 96
_cell_length_a 25.226638
_cell_length_b 23.819791
_cell_length_c 9.064675
_cell_angle_alpha 90.000000
_cell_angle_beta 90.000000
_cell_angle_gamma 90.000000
_cell_volume 5446.901974
_symmetry_space_group_name_H-M "C M C M"
_symmetry_group_IT_number 63
_symmetry_cell_setting 'orthorhombic'
loop_
_space_group_symop_operation_xyz
x,y,z
-x,-y,1/2+z
x,-y,-z
-x,y,1/2-z
-x,-y,-z
x,y,1/2-z
-x,y,z
x,-y,1/2+z
1/2+x,1/2+y,z
1/2-x,1/2-y,1/2+z
1/2+x,1/2-y,-z
1/2-x,1/2+y,1/2-z
1/2-x,1/2-y,-z
1/2+x,1/2+y,1/2-z
1/2-x,1/2+y,z
1/2+x,1/2-y,1/2+z
loop_
_atom_site_type_symbol
_atom_site_label
_atom_site_fract_x
_atom_site_fract_y
_atom_site_fract_z
Si Si1 0.313334 0.442157 0.576428
Si Si2 0.692060 0.056995 0.077424
Si Si3 0.901538 0.633199 0.424806
Si Si4 0.000000 0.059181 0.577479
Si Si5 0.000000 0.559700 0.075028
Si Si6 0.897982 0.869733 0.424036
Si Si7 0.059821 0.751090 0.425518
O O1 0.331398 0.500000 0.500000
O O2 0.322881 0.448356 0.750000
O O3 0.252474 0.428141 0.537461
O O4 0.346995 0.391073 0.512020
O O5 0.684688 0.046975 0.250000
O O6 0.654718 0.107893 0.021334
O O7 0.673529 0.000000 0.000000
O O8 0.903480 0.636411 0.250000
O O9 0.909639 0.696168 0.487779
O O10 0.948655 0.593423 0.481014
O O11 0.948495 0.093646 0.528846
O O12 0.000000 0.048530 0.750000
O O13 0.000000 0.000000 0.500000
O O14 0.000000 0.552082 0.250000
O O15 0.000000 0.500000 0.000000
O O16 0.887196 0.873704 0.250000
O O17 0.908115 0.806022 0.476324
O O18 0.056383 0.750032 0.250000
O O19 0.000000 0.752427 0.489235
#
# Coordination Sequence:
#
# PCOD8255708 Si02
#       7
#    16  16  16   8   8  16  16
#     4  10  20  34  51  71  98 131 165 201 242 290
#     4   9  18  32  50  72  99 131 165 201 243 289
#     4   9  16  28  48  74  99 126 163 203 242 284
#     4  10  20  31  45  69  97 120 147 190 242 290
#     4  10  18  27  45  73 101 126 157 200 247 292
#     4  10  19  32  51  74  98 124 160 203 245 289
#     4   9  15  28  50  74  98 127 164 203 238 282
#
# _framework density 17.624697999999999
#
# number of rings (size 3 to 8) (size 9 to 14) (size 15 to 20)
#    0.000    2.500    1.667    1.500    0.000    2.667 
#    0.000    0.833    0.000    2.000    0.000    0.000 
#    0.000    0.000    0.000    0.000    0.000    0.000 
#
# Total GULP energy -595168.939723 kJ/mol
# GULP energy per Si atom -12399.352911 kJ/mol
# Density = 1.758458 g / cm^3
# Si number density = 17.624698 Si / 1000 Ang^3
#
#
#
# Elastic Constant Matrix: (Units=GPa)
#
#
# Indices 1 2 3 4 5 6 
#
# 1 119.8832 89.1100 31.1138 0.0000 0.0000 0.0000
# 2 89.1100 184.3838 36.6225 0.0000 0.0000 0.0000
# 3 31.1138 36.6225 29.4734 0.0000 0.0000 0.0000
# 4 0.0000 0.0000 0.0000 21.8079 0.0000 0.0000
# 5 0.0000 0.0000 0.0000 0.0000 16.4408 0.0000
# 6 0.0000 0.0000 0.0000 0.0000 0.0000 30.3598
#
#
#
# Elastic Compliance Matrix: (Units=1/GPa)
#
#
# Indices 1 2 3 4 5 6 
#
# 1 0.014554 -0.005287 -0.008794 0.000000 0.000000 0.000000
# 2 -0.005287 0.009121 -0.005752 0.000000 0.000000 0.000000
# 3 -0.008794 -0.005752 0.050361 0.000000 0.000000 0.000000
# 4 0.000000 0.000000 0.000000 0.045855 0.000000 0.000000
# 5 0.000000 0.000000 0.000000 0.000000 0.060824 0.000000
# 6 0.000000 0.000000 0.000000 0.000000 0.000000 0.032938
#
#
# Mechanical properties :
#
#
# Convention : Reuss Voigt Hill
#
# Bulk Modulus (GPa) = 29.09693 71.93701 50.51697
# Shear Modulus (GPa) = 18.88386 25.51463 22.19925
#
# Velocity S-wave (km/s) = 3.27684 3.80894 3.55287
# Velocity P-wave (km/s) = 5.55535 7.76200 6.74947
#
# Compressibility (1/GPa) = 0.03436788
#
# Stress axis : x y z
#
# Youngs Moduli (GPa) = 68.71139 109.63655 19.85677
#
# Poissons Ratio (x) = 0.57962 0.17463
# Poissons Ratio (y) = 0.36326 0.11423
# Poissons Ratio (z) = 0.60428 0.63068
#
# Static dielectric constant tensor:
#      x y z
#    x 3.417190 0.000000 0.000000 
#    y 0.000000 3.489520 0.000000 
#    z 0.000000 0.000000 2.909710 
# 
# 
# High freq. dielectric constant tensor:
#      x y z
#    x 1.685860 0.000000 0.000000 
#    y 0.000000 1.686870 0.000000 
#    z 0.000000 0.000000 1.643830 
# 
# From -- ./inp_files/12799.got.cif
#   From: 2010.03.12/outbox.cif.g09.slc.cpg/sg63_7_cif.got.tgz:12799.got - 2010.04.10 19:34:48.
