data_PCOD8255075
_publ_section_title
;
Structure prediction by ZEFSAII (Michael W. Deem and Ramdas Pophale) SiO2 
 PCOD8255075
Probable space group: P N M A
;
_chemical_formula_sum "Si O2"
_cell_formula_units_Z 64
_cell_length_a 18.558714
_cell_length_b 20.348098
_cell_length_c 8.604500
_cell_angle_alpha 90.000000
_cell_angle_beta 90.000000
_cell_angle_gamma 90.000000
_cell_volume 3249.356324
_symmetry_space_group_name_H-M "P N M A"
_symmetry_group_IT_number 62
_symmetry_cell_setting 'orthorhombic'
loop_
_space_group_symop_operation_xyz
x,y,z
1/2-x,-y,1/2+z
1/2+x,1/2-y,1/2-z
-x,1/2+y,-z
-x,-y,-z
1/2+x,y,1/2-z
1/2-x,1/2+y,1/2+z
x,1/2-y,z
loop_
_atom_site_type_symbol
_atom_site_label
_atom_site_fract_x
_atom_site_fract_y
_atom_site_fract_z
Si Si1 0.801756 0.822294 0.939967
Si Si2 0.035621 0.173706 0.075726
Si Si3 0.544446 0.559923 0.071462
Si Si4 0.797072 0.439418 0.442152
Si Si5 0.205750 0.178310 0.428784
Si Si6 0.950354 0.057035 0.935582
Si Si7 0.793858 0.443446 0.073791
Si Si8 0.543423 0.174225 0.063235
O O1 0.782305 0.750000 0.007718
O O2 0.883691 0.841000 0.986478
O O3 0.745886 0.875524 0.006049
O O4 0.797256 0.819648 0.755799
O O5 0.015536 0.250000 0.048181
O O6 0.029743 0.155820 0.257296
O O7 0.979919 0.128703 0.981642
O O8 0.554997 0.548577 0.252549
O O9 0.500000 0.500000 0.000000
O O10 0.620971 0.565062 0.990611
O O11 0.504853 0.628864 0.045403
O O12 0.794209 0.444412 0.258175
O O13 0.761340 0.502248 0.517652
O O14 0.228925 0.250000 0.492601
O O15 0.263627 0.126041 0.489786
O O16 0.125709 0.160518 0.487184
O O17 0.872087 0.044960 0.005899
O O18 0.000000 0.000000 0.000000
O O19 0.522841 0.250000 0.033220
#
# Coordination Sequence:
#
# PCOD8255075 Si02
#       8
#     8   8   8   8   8   8   8   8
#     4   8  16  33  58  85 111 143 184 227 273 333
#     4   9  18  36  62  89 117 150 189 234 287 347
#     4  12  25  40  58  82 115 153 197 247 297 347
#     4  11  22  37  59  86 116 150 190 237 290 346
#     4   8  16  33  58  85 111 143 184 227 273 333
#     4  12  25  40  58  82 115 153 197 247 297 347
#     4  11  22  37  59  86 116 150 190 237 290 346
#     4   9  18  36  62  89 117 150 189 234 287 347
#
# _framework density 19.696209
#
# number of rings (size 3 to 8) (size 9 to 14) (size 15 to 20)
#    0.000    2.000    0.000    6.000    0.000    3.500 
#    0.000    3.750    0.000    5.250    0.000    0.000 
#    0.000    0.000    0.000    0.000    0.000    0.000 
#
# Total GULP energy -793635.799659 kJ/mol
# GULP energy per Si atom -12400.559370 kJ/mol
# Density = 1.965138 g / cm^3
# Si number density = 19.696209 Si / 1000 Ang^3
#
#
#
# Elastic Constant Matrix: (Units=GPa)
#
#
# Indices 1 2 3 4 5 6 
#
# 1 72.1623 30.7985 5.5072 0.0000 0.0000 0.0000
# 2 30.7985 98.0410 21.2752 0.0000 0.0000 0.0000
# 3 5.5072 21.2752 62.2266 0.0000 0.0000 0.0000
# 4 0.0000 0.0000 0.0000 23.0488 0.0000 0.0000
# 5 0.0000 0.0000 0.0000 0.0000 30.0637 0.0000
# 6 0.0000 0.0000 0.0000 0.0000 0.0000 40.4894
#
#
#
# Elastic Compliance Matrix: (Units=1/GPa)
#
#
# Indices 1 2 3 4 5 6 
#
# 1 0.016009 -0.005100 0.000327 0.000000 0.000000 0.000000
# 2 -0.005100 0.012642 -0.003871 0.000000 0.000000 0.000000
# 3 0.000327 -0.003871 0.017365 0.000000 0.000000 0.000000
# 4 0.000000 0.000000 0.000000 0.043386 0.000000 0.000000
# 5 0.000000 0.000000 0.000000 0.000000 0.033263 0.000000
# 6 0.000000 0.000000 0.000000 0.000000 0.000000 0.024698
#
#
# Mechanical properties :
#
#
# Convention : Reuss Voigt Hill
#
# Bulk Modulus (GPa) = 34.80938 38.62130 36.71534
# Shear Modulus (GPa) = 28.69814 30.37696 29.53755
#
# Velocity S-wave (km/s) = 3.82126 3.93144 3.87674
# Velocity P-wave (km/s) = 6.09761 6.34503 6.22255
#
# Compressibility (1/GPa) = 0.02872789
#
# Stress axis : x y z
#
# Youngs Moduli (GPa) = 62.46322 79.10166 57.58763
#
# Poissons Ratio (x) = 0.40343 -0.01882
# Poissons Ratio (y) = 0.31857 0.22292
# Poissons Ratio (z) = -0.02042 0.30620
#
# Static dielectric constant tensor:
#      x y z
#    x 3.704980 0.000000 0.000000 
#    y 0.000000 4.070450 0.000000 
#    z 0.000000 0.000000 3.382640 
# 
# 
# High freq. dielectric constant tensor:
#      x y z
#    x 1.773370 0.000000 0.000000 
#    y 0.000000 1.785630 0.000000 
#    z 0.000000 0.000000 1.745320 
# 
# From -- ./inp_files/8860.got.cif
#   From: 2010.03.12/outbox.cif.g09.slc.cpg/sg62_5_cif.got.tgz:8860.got - 2010.04.10 19:12:36.
