data_PCOD8255028
_publ_section_title
;
Structure prediction by ZEFSAII (Michael W. Deem and Ramdas Pophale) SiO2 
 PCOD8255028
Probable space group: P N M A
;
_chemical_formula_sum "Si O2"
_cell_formula_units_Z 48
_cell_length_a 8.423046
_cell_length_b 19.349946
_cell_length_c 13.851986
_cell_angle_alpha 90.000000
_cell_angle_beta 90.000000
_cell_angle_gamma 90.000000
_cell_volume 2257.672660
_symmetry_space_group_name_H-M "P N M A"
_symmetry_group_IT_number 62
_symmetry_cell_setting 'orthorhombic'
loop_
_space_group_symop_operation_xyz
x,y,z
1/2-x,-y,1/2+z
1/2+x,1/2-y,1/2-z
-x,1/2+y,-z
-x,-y,-z
1/2+x,y,1/2-z
1/2-x,1/2+y,1/2+z
x,1/2-y,z
loop_
_atom_site_type_symbol
_atom_site_label
_atom_site_fract_x
_atom_site_fract_y
_atom_site_fract_z
Si Si1 0.719220 0.579073 0.114304
Si Si2 0.295334 0.327055 0.188251
Si Si3 0.990300 0.170943 0.494626
Si Si4 0.044805 0.953190 0.193033
Si Si5 0.760791 0.442229 0.992730
Si Si6 0.023259 0.600010 0.845448
O O1 0.663917 0.645999 0.054515
O O2 0.606006 0.577697 0.207672
O O3 0.695750 0.509661 0.049396
O O4 0.900083 0.591643 0.148626
O O5 0.228576 0.250000 0.196958
O O6 0.351887 0.349712 0.293938
O O7 0.153540 0.372115 0.146195
O O8 0.447275 0.331705 0.118449
O O9 0.034024 0.250000 0.524357
O O10 0.132857 0.118539 0.514080
O O11 0.188158 0.960703 0.115939
O O12 0.976520 0.029263 0.215710
O O13 0.917619 0.413817 0.046194
#
# Coordination Sequence:
#
# PCOD8255028 Si02
#       6
#     8   8   8   8   8   8
#     4  11  22  40  64  89 120 156 199 250 298 355
#     4  11  22  36  57  86 124 163 197 238 299 368
#     4  11  24  41  60  86 119 158 201 247 302 362
#     4  11  22  39  63  91 118 153 204 251 299 350
#     4  11  23  39  64  92 122 157 199 251 304 357
#     4  11  21  37  59  90 122 155 196 245 296 356
#
# _framework density 21.260833999999999
#
# number of rings (size 3 to 8) (size 9 to 14) (size 15 to 20)
#    0.000    1.000    0.000   10.000    0.000    2.667 
#    0.000    4.167    0.000    0.000    0.000    0.000 
#    0.000    0.000    0.000    0.000    0.000    0.000 
#
# Total GULP energy -595340.508789 kJ/mol
# GULP energy per Si atom -12402.927266 kJ/mol
# Density = 2.121244 g / cm^3
# Si number density = 21.260834 Si / 1000 Ang^3
#
#
#
# Elastic Constant Matrix: (Units=GPa)
#
#
# Indices 1 2 3 4 5 6 
#
# 1 72.6764 27.2176 -2.2964 0.0000 0.0000 0.0000
# 2 27.2176 81.1622 26.5180 0.0000 0.0000 0.0000
# 3 -2.2964 26.5180 72.2264 0.0000 0.0000 0.0000
# 4 0.0000 0.0000 0.0000 25.3604 0.0000 0.0000
# 5 0.0000 0.0000 0.0000 0.0000 41.3081 0.0000
# 6 0.0000 0.0000 0.0000 0.0000 0.0000 24.9854
#
#
#
# Elastic Compliance Matrix: (Units=1/GPa)
#
#
# Indices 1 2 3 4 5 6 
#
# 1 0.016239 -0.006380 0.002859 0.000000 0.000000 0.000000
# 2 -0.006380 0.016507 -0.006263 0.000000 0.000000 0.000000
# 3 0.002859 -0.006263 0.016236 0.000000 0.000000 0.000000
# 4 0.000000 0.000000 0.000000 0.039432 0.000000 0.000000
# 5 0.000000 0.000000 0.000000 0.000000 0.024208 0.000000
# 6 0.000000 0.000000 0.000000 0.000000 0.000000 0.040023
#
#
# Mechanical properties :
#
#
# Convention : Reuss Voigt Hill
#
# Bulk Modulus (GPa) = 33.99862 36.54926 35.27394
# Shear Modulus (GPa) = 27.46976 29.97252 28.72114
#
# Velocity S-wave (km/s) = 3.59839 3.75874 3.67944
# Velocity P-wave (km/s) = 5.76979 6.00547 5.88881
#
# Compressibility (1/GPa) = 0.02941296
#
# Stress axis : x y z
#
# Youngs Moduli (GPa) = 61.57931 60.58085 61.59216
#
# Poissons Ratio (x) = 0.38649 -0.17607
# Poissons Ratio (y) = 0.39286 0.38577
# Poissons Ratio (z) = -0.17604 0.37944
#
# Static dielectric constant tensor:
#      x y z
#    x 3.891940 0.000000 0.000000 
#    y 0.000000 3.765440 0.000000 
#    z 0.000000 0.000000 3.806000 
# 
# 
# High freq. dielectric constant tensor:
#      x y z
#    x 1.843130 0.000000 0.000000 
#    y 0.000000 1.816910 0.000000 
#    z 0.000000 0.000000 1.838180 
# 
# From -- ./inp_files/16986.got.cif
#   From: 2010.03.12/outbox.cif.g09.slc.cpg/sg62_9_cif.got.tgz:16986.got - 2010.04.10 19:12:36.
