data_PCOD8255388
_publ_section_title
;
Structure prediction by ZEFSAII (Michael W. Deem and Ramdas Pophale) SiO2 
 PCOD8255388
Probable space group: C M C M
;
_chemical_formula_sum "Si O2"
_cell_formula_units_Z 72
_cell_length_a 23.317819
_cell_length_b 10.983769
_cell_length_c 16.252561
_cell_angle_alpha 90.000000
_cell_angle_beta 90.000000
_cell_angle_gamma 90.000000
_cell_volume 4162.565901
_symmetry_space_group_name_H-M "C M C M"
_symmetry_group_IT_number 63
_symmetry_cell_setting 'orthorhombic'
loop_
_space_group_symop_operation_xyz
x,y,z
-x,-y,1/2+z
x,-y,-z
-x,y,1/2-z
-x,-y,-z
x,y,1/2-z
-x,y,z
x,-y,1/2+z
1/2+x,1/2+y,z
1/2-x,1/2-y,1/2+z
1/2+x,1/2-y,-z
1/2-x,1/2+y,1/2-z
1/2-x,1/2-y,-z
1/2+x,1/2+y,1/2-z
1/2-x,1/2+y,z
1/2+x,1/2-y,1/2+z
loop_
_atom_site_type_symbol
_atom_site_label
_atom_site_fract_x
_atom_site_fract_y
_atom_site_fract_z
Si Si1 0.745808 0.000000 0.500000
Si Si2 0.661958 0.851157 0.900859
Si Si3 0.063838 0.643830 0.512382
Si Si4 0.640929 0.884512 0.339924
Si Si5 0.230701 0.868670 0.157957
O O1 0.704581 0.113243 0.476117
O O2 0.783202 0.039131 0.580950
O O3 0.602448 0.799975 0.939336
O O4 0.689191 0.747048 0.845023
O O5 0.649705 0.970054 0.846905
O O6 0.061161 0.500000 0.500000
O O7 0.094428 0.672577 0.598773
O O8 0.000000 0.700998 0.510716
O O9 0.616283 0.855737 0.250000
O O10 0.703562 0.824005 0.351953
O O11 0.222511 0.928242 0.250000
#
# Coordination Sequence:
#
# PCOD8255388 Si02
#       5
#     8  16  16  16  16
#     4  10  18  30  45  68  97 124 150 192 240 280
#     4  10  16  30  44  65  94 124 150 189 228 277
#     4   9  16  27  42  61  88 123 155 181 222 274
#     4   9  17  28  41  65  94 119 151 189 230 274
#     4  10  19  29  47  69  93 125 156 191 239 283
#
# _framework density 17.297021999999998
#
# number of rings (size 3 to 8) (size 9 to 14) (size 15 to 20)
#    0.000    2.444    5.556    1.333    0.000    1.333 
#    0.000    0.000    0.000    2.000    0.000    0.778 
#    0.000    0.000    0.000    0.000    0.000    0.000 
#
# Total GULP energy -445999.656649 kJ/mol
# GULP energy per Si atom -12388.879351 kJ/mol
# Density = 1.725765 g / cm^3
# Si number density = 17.297022 Si / 1000 Ang^3
#
#
#
# Elastic Constant Matrix: (Units=GPa)
#
#
# Indices 1 2 3 4 5 6 
#
# 1 103.9479 26.0407 42.1042 0.0000 0.0000 0.0000
# 2 26.0407 22.3541 13.2211 0.0000 0.0000 0.0000
# 3 42.1042 13.2211 108.5942 0.0000 0.0000 0.0000
# 4 0.0000 0.0000 0.0000 22.8876 0.0000 0.0000
# 5 0.0000 0.0000 0.0000 0.0000 16.1700 0.0000
# 6 0.0000 0.0000 0.0000 0.0000 0.0000 15.0130
#
#
#
# Elastic Compliance Matrix: (Units=1/GPa)
#
#
# Indices 1 2 3 4 5 6 
#
# 1 0.015029 -0.015152 -0.003982 0.000000 0.000000 0.000000
# 2 -0.015152 0.063482 -0.001854 0.000000 0.000000 0.000000
# 3 -0.003982 -0.001854 0.010978 0.000000 0.000000 0.000000
# 4 0.000000 0.000000 0.000000 0.043692 0.000000 0.000000
# 5 0.000000 0.000000 0.000000 0.000000 0.061843 0.000000
# 6 0.000000 0.000000 0.000000 0.000000 0.000000 0.066609
#
#
# Mechanical properties :
#
#
# Convention : Reuss Voigt Hill
#
# Bulk Modulus (GPa) = 21.04715 44.18093 32.61404
# Shear Modulus (GPa) = 15.65197 21.04946 18.35072
#
# Velocity S-wave (km/s) = 3.01141 3.49225 3.26071
# Velocity P-wave (km/s) = 4.92808 6.46986 5.75087
#
# Compressibility (1/GPa) = 0.04751238
#
# Stress axis : x y z
#
# Youngs Moduli (GPa) = 66.53708 15.75242 91.08837
#
# Poissons Ratio (x) = 0.23869 0.36275
# Poissons Ratio (y) = 1.00820 0.16887
# Poissons Ratio (z) = 0.26497 0.02920
#
# Static dielectric constant tensor:
#      x y z
#    x 3.316180 0.000000 0.000000 
#    y 0.000000 2.666680 0.000000 
#    z 0.000000 0.000000 3.504140 
# 
# 
# High freq. dielectric constant tensor:
#      x y z
#    x 1.639910 0.000000 0.000000 
#    y 0.000000 1.600030 0.000000 
#    z 0.000000 0.000000 1.689940 
# 
# From -- ./inp_files/36388.got.cif
#   From: 2010.03.12/outbox.cif.g09.slc.cpg/sg63_19_cif.got.tgz:36388.got - 2010.04.10 19:34:48.
