data_PCOD8255120
_publ_section_title
;
Structure prediction by ZEFSAII (Michael W. Deem and Ramdas Pophale) SiO2 
 PCOD8255120
Probable space group: P N M A
;
_chemical_formula_sum "Si O2"
_cell_formula_units_Z 64
_cell_length_a 8.870880
_cell_length_b 29.103075
_cell_length_c 11.069205
_cell_angle_alpha 90.000000
_cell_angle_beta 90.000000
_cell_angle_gamma 90.000000
_cell_volume 2857.735392
_symmetry_space_group_name_H-M "P N M A"
_symmetry_group_IT_number 62
_symmetry_cell_setting 'orthorhombic'
loop_
_space_group_symop_operation_xyz
x,y,z
1/2-x,-y,1/2+z
1/2+x,1/2-y,1/2-z
-x,1/2+y,-z
-x,-y,-z
1/2+x,y,1/2-z
1/2-x,1/2+y,1/2+z
x,1/2-y,z
loop_
_atom_site_type_symbol
_atom_site_label
_atom_site_fract_x
_atom_site_fract_y
_atom_site_fract_z
Si Si1 0.991023 0.650945 0.300341
Si Si2 0.794132 0.072293 0.420323
Si Si3 0.206288 0.198180 0.873444
Si Si4 0.547830 0.196987 0.375073
Si Si5 0.290026 0.026017 0.651383
Si Si6 0.737432 0.645139 0.717213
Si Si7 0.594815 0.432844 0.646069
Si Si8 0.614637 0.407618 0.006847
O O1 0.157989 0.662795 0.347727
O O2 0.912841 0.694823 0.236901
O O3 0.993876 0.611094 0.199274
O O4 0.890006 0.634904 0.413197
O O5 0.811443 0.115705 0.332772
O O6 0.657659 0.079731 0.514335
O O7 0.951898 0.068092 0.489948
O O8 0.764406 0.026278 0.344898
O O9 0.268703 0.250000 0.879905
O O10 0.126432 0.184495 0.998341
O O11 0.498104 0.250000 0.371409
O O12 0.402689 0.164615 0.358385
O O13 0.663109 0.187756 0.265183
O O14 0.234175 0.050897 0.772706
O O15 0.471360 0.026556 0.642552
O O16 0.228614 0.052630 0.533861
O O17 0.836373 0.611725 0.635131
#
# Coordination Sequence:
#
# PCOD8255120 Si02
#       8
#     8   8   8   8   8   8   8   8
#     4  11  22  45  68  97 142 178 226 283 343 428
#     4  12  26  45  71  99 149 181 248 291 344 429
#     4  11  25  43  73 106 138 177 228 291 354 422
#     4  11  26  49  72 102 142 182 235 294 354 423
#     4  11  26  41  70 102 142 186 233 297 352 408
#     4  12  26  45  72 104 136 189 237 289 354 424
#     4  11  24  44  69 102 134 193 230 285 356 411
#     4  11  25  44  67 100 137 190 233 287 352 419
#
# _framework density 22.395356
#
# number of rings (size 3 to 8) (size 9 to 14) (size 15 to 20)
#    0.000    0.750    1.250    6.750    8.750    0.000 
#    0.000    1.250    0.000    0.000    0.000    0.000 
#    0.000    0.000    0.000    0.000    0.000    0.000 
#
# Total GULP energy -793931.996561 kJ/mol
# GULP energy per Si atom -12405.187446 kJ/mol
# Density = 2.234438 g / cm^3
# Si number density = 22.395356 Si / 1000 Ang^3
#
#
#
# Elastic Constant Matrix: (Units=GPa)
#
#
# Indices 1 2 3 4 5 6 
#
# 1 117.3409 27.7318 34.3356 0.0000 0.0000 0.0000
# 2 27.7318 98.5025 32.9617 0.0000 0.0000 0.0000
# 3 34.3356 32.9617 85.0775 0.0000 0.0000 0.0000
# 4 0.0000 0.0000 0.0000 31.8907 0.0000 0.0000
# 5 0.0000 0.0000 0.0000 0.0000 38.3975 0.0000
# 6 0.0000 0.0000 0.0000 0.0000 0.0000 36.1840
#
#
#
# Elastic Compliance Matrix: (Units=1/GPa)
#
#
# Indices 1 2 3 4 5 6 
#
# 1 0.009896 -0.001665 -0.003348 0.000000 0.000000 0.000000
# 2 -0.001665 0.011945 -0.003956 0.000000 0.000000 0.000000
# 3 -0.003348 -0.003956 0.014638 0.000000 0.000000 0.000000
# 4 0.000000 0.000000 0.000000 0.031357 0.000000 0.000000
# 5 0.000000 0.000000 0.000000 0.000000 0.026043 0.000000
# 6 0.000000 0.000000 0.000000 0.000000 0.000000 0.027637
#
#
# Mechanical properties :
#
#
# Convention : Reuss Voigt Hill
#
# Bulk Modulus (GPa) = 53.93994 54.55321 54.24657
# Shear Modulus (GPa) = 34.33277 35.02057 34.67667
#
# Velocity S-wave (km/s) = 3.91964 3.95871 3.93922
# Velocity P-wave (km/s) = 6.68000 6.73106 6.70558
#
# Compressibility (1/GPa) = 0.01853914
#
# Stress axis : x y z
#
# Youngs Moduli (GPa) = 101.05525 83.72022 68.31614
#
# Poissons Ratio (x) = 0.13943 0.22875
# Poissons Ratio (y) = 0.16830 0.27023
# Poissons Ratio (z) = 0.33837 0.33116
#
# Static dielectric constant tensor:
#      x y z
#    x 4.014970 0.000000 0.000000 
#    y 0.000000 3.965520 0.000000 
#    z 0.000000 0.000000 4.018770 
# 
# 
# High freq. dielectric constant tensor:
#      x y z
#    x 1.887900 0.000000 0.000000 
#    y 0.000000 1.882500 0.000000 
#    z 0.000000 0.000000 1.889000 
# 
# From -- ./inp_files/11555.got.cif
#   From: 2010.03.12/outbox.cif.g09.slc.cpg/sg62_6_cif.got.tgz:11555.got - 2010.04.10 19:12:36.
