data_PCOD8255892
_publ_section_title
;
Structure prediction by ZEFSAII (Michael W. Deem and Ramdas Pophale) SiO2 
 PCOD8255892
Probable space group: C M C M
;
_chemical_formula_sum "Si O2"
_cell_formula_units_Z 80
_cell_length_a 10.374196
_cell_length_b 17.098225
_cell_length_c 23.305000
_cell_angle_alpha 90.000000
_cell_angle_beta 90.000000
_cell_angle_gamma 90.000000
_cell_volume 4133.848763
_symmetry_space_group_name_H-M "C M C M"
_symmetry_group_IT_number 63
_symmetry_cell_setting 'orthorhombic'
loop_
_space_group_symop_operation_xyz
x,y,z
-x,-y,1/2+z
x,-y,-z
-x,y,1/2-z
-x,-y,-z
x,y,1/2-z
-x,y,z
x,-y,1/2+z
1/2+x,1/2+y,z
1/2-x,1/2-y,1/2+z
1/2+x,1/2-y,-z
1/2-x,1/2+y,1/2-z
1/2-x,1/2-y,-z
1/2+x,1/2+y,1/2-z
1/2-x,1/2+y,z
1/2+x,1/2-y,1/2+z
loop_
_atom_site_type_symbol
_atom_site_label
_atom_site_fract_x
_atom_site_fract_y
_atom_site_fract_z
Si Si1 0.354050 0.218099 0.250000
Si Si2 0.000000 0.717098 0.057457
Si Si3 0.245967 0.467709 0.870562
Si Si4 0.647871 0.968259 0.750000
Si Si5 0.500000 0.031949 0.437392
Si Si6 0.258330 0.218301 0.128904
Si Si7 0.500000 0.467192 0.935549
Si Si8 0.500000 0.280994 0.569377
O O1 0.500000 0.250480 0.250000
O O2 0.358746 0.124908 0.250000
O O3 0.279337 0.249278 0.193719
O O4 0.000000 0.624676 0.062902
O O5 0.126837 0.750805 0.088799
O O6 0.000000 0.741518 0.992071
O O7 0.228303 0.498138 0.805304
O O8 0.126091 0.501410 0.906162
O O9 0.243899 0.374709 0.871309
O O10 0.376658 0.498801 0.900097
O O11 0.500000 0.000010 0.750000
O O12 0.500000 0.000000 0.500000
O O13 0.123519 0.249804 0.104476
O O14 0.500000 0.373845 0.938945
O O15 0.500000 0.500000 0.000000
#
# Coordination Sequence:
#
# PCOD8255892 Si02
#       8
#     8   8  16   8   8  16   8   8
#     4   9  14  25  45  67  92 120 147 188 240 277
#     4  10  18  31  47  67  95 124 153 188 224 272
#     4   9  17  28  45  68  94 120 151 190 233 275
#     4   9  14  25  45  69  94 116 145 194 242 275
#     4  10  18  29  47  71  93 122 157 186 222 274
#     4   9  17  28  45  68  93 119 152 190 232 275
#     4  10  20  33  45  65  97 128 155 190 230 274
#     4  10  20  31  45  69  95 124 155 190 232 270
#
# _framework density 19.352425
#
# number of rings (size 3 to 8) (size 9 to 14) (size 15 to 20)
#    0.000    2.600    2.000    1.200    0.000    0.800 
#    0.000    4.000    0.000    0.000    0.000    8.400 
#    0.000    0.000    0.000    0.000    0.000    0.000 
#
# Total GULP energy -495852.219918 kJ/mol
# GULP energy per Si atom -12396.305498 kJ/mol
# Density = 1.930838 g / cm^3
# Si number density = 19.352425 Si / 1000 Ang^3
#
#
#
# Elastic Constant Matrix: (Units=GPa)
#
#
# Indices 1 2 3 4 5 6 
#
# 1 207.5102 9.8144 120.5654 0.0000 0.0000 0.0000
# 2 9.8144 2.6721 5.3459 0.0000 0.0000 0.0000
# 3 120.5654 5.3459 221.0894 0.0000 0.0000 0.0000
# 4 0.0000 0.0000 0.0000 24.2019 0.0000 0.0000
# 5 0.0000 0.0000 0.0000 0.0000 41.4067 0.0000
# 6 0.0000 0.0000 0.0000 0.0000 0.0000 6.1339
#
#
#
# Elastic Compliance Matrix: (Units=1/GPa)
#
#
# Indices 1 2 3 4 5 6 
#
# 1 0.008127 -0.022051 -0.003899 0.000000 0.000000 0.000000
# 2 -0.022051 0.453094 0.001069 0.000000 0.000000 0.000000
# 3 -0.003899 0.001069 0.006623 0.000000 0.000000 0.000000
# 4 0.000000 0.000000 0.000000 0.041319 0.000000 0.000000
# 5 0.000000 0.000000 0.000000 0.000000 0.024151 0.000000
# 6 0.000000 0.000000 0.000000 0.000000 0.000000 0.163029
#
#
# Mechanical properties :
#
#
# Convention : Reuss Voigt Hill
#
# Bulk Modulus (GPa) = 2.39187 78.08036 40.23612
# Shear Modulus (GPa) = 5.64675 34.05155 19.84915
#
# Velocity S-wave (km/s) = 1.71003 4.19925 3.20608
# Velocity P-wave (km/s) = 2.26662 7.99661 5.87721
#
# Compressibility (1/GPa) = 0.41808315
#
# Stress axis : x y z
#
# Youngs Moduli (GPa) = 123.04423 2.20705 150.98224
#
# Poissons Ratio (x) = 0.04867 0.58864
# Poissons Ratio (y) = 2.71319 -0.16139
# Poissons Ratio (z) = 0.47972 -0.00236
#
# Static dielectric constant tensor:
#      x y z
#    x 3.987470 0.000000 0.000000 
#    y 0.000000 2.764180 0.000000 
#    z 0.000000 0.000000 3.836020 
# 
# 
# High freq. dielectric constant tensor:
#      x y z
#    x 1.766900 0.000000 0.000000 
#    y 0.000000 1.677320 0.000000 
#    z 0.000000 0.000000 1.773450 
# 
# From -- ./inp_files/42234.got.cif
#   From: 2010.03.12/outbox.cif.g09.slc.cpg/sg63_22_cif.got.tgz:42234.got - 2010.04.10 19:34:48.
