data_PCOD8255221
_publ_section_title
;
Structure prediction by ZEFSAII (Michael W. Deem and Ramdas Pophale) SiO2 
 PCOD8255221
Probable space group: P N M A
;
_chemical_formula_sum "Si O2"
_cell_formula_units_Z 40
_cell_length_a 9.339242
_cell_length_b 15.543615
_cell_length_c 12.188480
_cell_angle_alpha 90.000000
_cell_angle_beta 90.000000
_cell_angle_gamma 90.000000
_cell_volume 1769.347793
_symmetry_space_group_name_H-M "P N M A"
_symmetry_group_IT_number 62
_symmetry_cell_setting 'orthorhombic'
loop_
_space_group_symop_operation_xyz
x,y,z
1/2-x,-y,1/2+z
1/2+x,1/2-y,1/2-z
-x,1/2+y,-z
-x,-y,-z
1/2+x,y,1/2-z
1/2-x,1/2+y,1/2+z
x,1/2-y,z
loop_
_atom_site_type_symbol
_atom_site_label
_atom_site_fract_x
_atom_site_fract_y
_atom_site_fract_z
Si Si1 0.560807 0.596512 0.516072
Si Si2 0.160370 0.451913 0.382567
Si Si3 0.332691 0.654747 0.671738
Si Si4 0.436621 0.750000 0.131230
Si Si5 0.398998 0.388191 0.999077
Si Si6 0.404141 0.250000 0.640930
O O1 0.500000 0.500000 0.500000
O O2 0.730828 0.595562 0.535469
O O3 0.489511 0.636705 0.624289
O O4 0.537665 0.662576 0.416064
O O5 0.198184 0.420802 0.259608
O O6 0.180252 0.554043 0.405585
O O7 0.993694 0.438077 0.410500
O O8 0.331998 0.750000 0.727540
O O9 0.223330 0.657621 0.569785
O O10 0.485531 0.830128 0.060020
O O11 0.267460 0.750000 0.152063
O O12 0.524612 0.750000 0.242043
#
# Coordination Sequence:
#
# PCOD8255221 Si02
#       6
#     8   8   8   4   8   4
#     4  12  26  49  72 106 149 189 249 307 368 446
#     4  11  26  45  72 105 148 194 242 304 378 440
#     4  12  26  44  77 109 145 195 246 308 379 455
#     4  12  28  48  81 107 148 194 247 305 379 444
#     4  11  25  48  71 108 149 188 247 309 367 453
#     4  12  30  50  77 107 148 198 249 309 375 448
#
# _framework density 22.607199999999999
#
# number of rings (size 3 to 8) (size 9 to 14) (size 15 to 20)
#    0.000    0.400    6.000    1.200    8.400    1.600 
#    0.000    0.000    0.000    0.000    0.000    0.000 
#    0.000    0.000    0.000    0.000    0.000    0.000 
#
# Total GULP energy -495693.267175 kJ/mol
# GULP energy per Si atom -12392.331679 kJ/mol
# Density = 2.255575 g / cm^3
# Si number density = 22.607200 Si / 1000 Ang^3
#
#
#
# Elastic Constant Matrix: (Units=GPa)
#
#
# Indices 1 2 3 4 5 6 
#
# 1 101.4131 35.0815 29.1807 0.0000 0.0000 0.0000
# 2 35.0815 127.7189 52.9322 0.0000 0.0000 0.0000
# 3 29.1807 52.9322 106.8950 0.0000 0.0000 0.0000
# 4 0.0000 0.0000 0.0000 34.3426 0.0000 0.0000
# 5 0.0000 0.0000 0.0000 0.0000 40.1520 0.0000
# 6 0.0000 0.0000 0.0000 0.0000 0.0000 40.8088
#
#
#
# Elastic Compliance Matrix: (Units=1/GPa)
#
#
# Indices 1 2 3 4 5 6 
#
# 1 0.011204 -0.002277 -0.001931 0.000000 0.000000 0.000000
# 2 -0.002277 0.010314 -0.004486 0.000000 0.000000 0.000000
# 3 -0.001931 -0.004486 0.012103 0.000000 0.000000 0.000000
# 4 0.000000 0.000000 0.000000 0.029118 0.000000 0.000000
# 5 0.000000 0.000000 0.000000 0.000000 0.024905 0.000000
# 6 0.000000 0.000000 0.000000 0.000000 0.000000 0.024505
#
#
# Mechanical properties :
#
#
# Convention : Reuss Voigt Hill
#
# Bulk Modulus (GPa) = 61.59968 63.37952 62.48960
# Shear Modulus (GPa) = 37.05105 37.64952 37.35028
#
# Velocity S-wave (km/s) = 4.05273 4.08533 4.06906
# Velocity P-wave (km/s) = 7.01473 7.09572 7.05534
#
# Compressibility (1/GPa) = 0.01623385
#
# Stress axis : x y z
#
# Youngs Moduli (GPa) = 89.25372 96.95278 82.62185
#
# Poissons Ratio (x) = 0.22079 0.15953
# Poissons Ratio (y) = 0.20325 0.37062
# Poissons Ratio (z) = 0.17234 0.43491
#
# Static dielectric constant tensor:
#      x y z
#    x 4.103920 0.000000 0.000000 
#    y 0.000000 30.930850 0.000000 
#    z 0.000000 0.000000 3.834060 
# 
# 
# High freq. dielectric constant tensor:
#      x y z
#    x 1.909850 0.000000 0.000000 
#    y 0.000000 1.898940 0.000000 
#    z 0.000000 0.000000 1.877880 
# 
# From -- ./inp_files/11120.got.cif
#   From: 2010.03.12/outbox.cif.g09.slc.cpg/sg62_6_cif.got.tgz:11120.got - 2010.04.10 19:12:36.
