data_PCOD8255512
_publ_section_title
;
Structure prediction by ZEFSAII (Michael W. Deem and Ramdas Pophale) SiO2 
 PCOD8255512
Probable space group: C M C M
;
_chemical_formula_sum "Si O2"
_cell_formula_units_Z 56
_cell_length_a 5.207372
_cell_length_b 32.515038
_cell_length_c 17.932039
_cell_angle_alpha 90.000000
_cell_angle_beta 90.000000
_cell_angle_gamma 90.000000
_cell_volume 3036.215159
_symmetry_space_group_name_H-M "C M C M"
_symmetry_group_IT_number 63
_symmetry_cell_setting 'orthorhombic'
loop_
_space_group_symop_operation_xyz
x,y,z
-x,-y,1/2+z
x,-y,-z
-x,y,1/2-z
-x,-y,-z
x,y,1/2-z
-x,y,z
x,-y,1/2+z
1/2+x,1/2+y,z
1/2-x,1/2-y,1/2+z
1/2+x,1/2-y,-z
1/2-x,1/2+y,1/2-z
1/2-x,1/2-y,-z
1/2+x,1/2+y,1/2-z
1/2-x,1/2+y,z
1/2+x,1/2-y,1/2+z
loop_
_atom_site_type_symbol
_atom_site_label
_atom_site_fract_x
_atom_site_fract_y
_atom_site_fract_z
Si Si1 0.000000 0.574135 0.130607
Si Si2 0.500000 0.896059 0.037369
Si Si3 0.500000 0.301753 0.750000
Si Si4 0.000000 0.643041 0.250000
Si Si5 0.500000 0.559511 0.561410
Si Si6 0.000000 0.776610 0.586600
Si Si7 0.000000 0.695592 0.493037
Si Si8 0.500000 0.529821 0.391698
O O1 0.750506 0.547071 0.150310
O O2 0.000000 0.615813 0.176366
O O3 0.000000 0.586691 0.045379
O O4 0.751101 0.912911 0.079732
O O5 0.500000 0.846853 0.037879
O O6 0.749004 0.329651 0.750000
O O7 0.500000 0.273422 0.676206
O O8 0.500000 0.544786 0.476492
O O9 0.500000 0.519511 0.614062
O O10 0.750437 0.801427 0.558981
O O11 0.000000 0.730541 0.555901
#
# Coordination Sequence:
#
# PCOD8255512 Si02
#       8
#     8   8   4   4   8   8   8   8
#     4  10  19  30  45  66  96 131 161 198 238 285
#     4  10  17  28  47  70  96 124 159 204 251 286
#     4  12  22  36  54  76 105 136 175 212 252 312
#     4  12  24  34  50  76 103 136 175 202 242 306
#     4   9  17  27  45  70  92 121 154 194 242 287
#     4  10  21  35  53  74 103 141 172 210 265 320
#     4  10  20  35  52  76 106 135 172 215 266 319
#     4   9  17  30  44  64  96 125 156 191 235 286
#
# _framework density 18.444015
#
# number of rings (size 3 to 8) (size 9 to 14) (size 15 to 20)
#    0.000    2.000    0.000    5.143    0.000    5.714 
#    0.000    0.000    0.000    0.000    0.000    6.000 
#    0.000    0.000    0.000    0.000    0.000    0.000 
#
# Total GULP energy -347256.692912 kJ/mol
# GULP energy per Si atom -12402.024747 kJ/mol
# Density = 1.840204 g / cm^3
# Si number density = 18.444015 Si / 1000 Ang^3
#
#
#
# Elastic Constant Matrix: (Units=GPa)
#
#
# Indices 1 2 3 4 5 6 
#
# 1 180.5080 58.3960 29.5276 0.0000 0.0000 0.0000
# 2 58.3960 113.9695 21.9074 0.0000 0.0000 0.0000
# 3 29.5276 21.9074 61.4272 0.0000 0.0000 0.0000
# 4 0.0000 0.0000 0.0000 17.2252 0.0000 0.0000
# 5 0.0000 0.0000 0.0000 0.0000 13.3545 0.0000
# 6 0.0000 0.0000 0.0000 0.0000 0.0000 23.7001
#
#
#
# Elastic Compliance Matrix: (Units=1/GPa)
#
#
# Indices 1 2 3 4 5 6 
#
# 1 0.006909 -0.003115 -0.002210 0.000000 0.000000 0.000000
# 2 -0.003115 0.010825 -0.002363 0.000000 0.000000 0.000000
# 3 -0.002210 -0.002363 0.018185 0.000000 0.000000 0.000000
# 4 0.000000 0.000000 0.000000 0.058055 0.000000 0.000000
# 5 0.000000 0.000000 0.000000 0.000000 0.074881 0.000000
# 6 0.000000 0.000000 0.000000 0.000000 0.000000 0.042194
#
#
# Mechanical properties :
#
#
# Convention : Reuss Voigt Hill
#
# Bulk Modulus (GPa) = 48.68185 63.95184 56.31684
# Shear Modulus (GPa) = 21.43414 27.26088 24.34751
#
# Velocity S-wave (km/s) = 3.41268 3.84869 3.63723
# Velocity P-wave (km/s) = 6.47922 7.38232 6.94546
#
# Compressibility (1/GPa) = 0.02054154
#
# Stress axis : x y z
#
# Youngs Moduli (GPa) = 144.73225 92.38090 54.99165
#
# Poissons Ratio (x) = 0.28780 0.12154
# Poissons Ratio (y) = 0.45089 0.12995
# Poissons Ratio (z) = 0.31989 0.21830
#
# Static dielectric constant tensor:
#      x y z
#    x 3.837770 0.000000 0.000000 
#    y 0.000000 3.383140 0.000000 
#    z 0.000000 0.000000 3.004900 
# 
# 
# High freq. dielectric constant tensor:
#      x y z
#    x 1.743430 0.000000 0.000000 
#    y 0.000000 1.715720 0.000000 
#    z 0.000000 0.000000 1.665980 
# 
# From -- ./inp_files/38992.got.cif
#   From: 2010.03.12/outbox.cif.g09.slc.cpg/sg63_20_cif.got.tgz:38992.got - 2010.04.10 19:34:48.
