data_PCOD8255996
_publ_section_title
;
Structure prediction by ZEFSAII (Michael W. Deem and Ramdas Pophale) SiO2 
 PCOD8255996
Probable space group: C M C M
;
_chemical_formula_sum "Si O2"
_cell_formula_units_Z 72
_cell_length_a 16.512281
_cell_length_b 27.338952
_cell_length_c 9.263865
_cell_angle_alpha 90.000000
_cell_angle_beta 90.000000
_cell_angle_gamma 90.000000
_cell_volume 4181.972289
_symmetry_space_group_name_H-M "C M C M"
_symmetry_group_IT_number 63
_symmetry_cell_setting 'orthorhombic'
loop_
_space_group_symop_operation_xyz
x,y,z
-x,-y,1/2+z
x,-y,-z
-x,y,1/2-z
-x,-y,-z
x,y,1/2-z
-x,y,z
x,-y,1/2+z
1/2+x,1/2+y,z
1/2-x,1/2-y,1/2+z
1/2+x,1/2-y,-z
1/2-x,1/2+y,1/2-z
1/2-x,1/2-y,-z
1/2+x,1/2+y,1/2-z
1/2-x,1/2+y,z
1/2+x,1/2-y,1/2+z
loop_
_atom_site_type_symbol
_atom_site_label
_atom_site_fract_x
_atom_site_fract_y
_atom_site_fract_z
Si Si1 0.000000 0.947238 0.077173
Si Si2 0.756581 0.301033 0.078253
Si Si3 0.411975 0.857275 0.419727
Si Si4 0.336518 0.395050 0.420812
Si Si5 0.819028 0.548410 0.581371
O O1 0.076962 0.915048 0.024218
O O2 0.000000 0.955335 0.250000
O O3 0.000000 0.000000 0.000000
O O4 0.755105 0.293735 0.250000
O O5 0.842507 0.321648 0.021325
O O6 0.685039 0.339174 0.030330
O O7 0.750000 0.250000 0.000000
O O8 0.416258 0.850061 0.250000
O O9 0.500000 0.845270 0.489427
O O10 0.389192 0.913026 0.454892
O O11 0.334218 0.395352 0.250000
O O12 0.267037 0.431540 0.478011
O O13 0.844057 0.500000 0.500000
O O14 0.812856 0.537417 0.750000
#
# Coordination Sequence:
#
# PCOD8255996 Si02
#       5
#     8  16  16  16  16
#     4  10  18  30  48  68  94 126 156 188 227 276
#     4   9  17  32  51  68  88 116 152 190 229 273
#     4   8  15  29  47  64  86 119 152 177 211 268
#     4   8  16  30  46  64  89 122 154 180 220 279
#     4   9  16  27  44  65  88 116 149 181 214 258
#
# _framework density 17.216757999999999
#
# number of rings (size 3 to 8) (size 9 to 14) (size 15 to 20)
#    0.000    3.333    0.000    3.333    0.000    0.444 
#    2.000    5.556    0.000    1.333    0.000    0.000 
#    0.000    0.000    0.000    0.000    0.000    0.000 
#
# Total GULP energy -446017.458835 kJ/mol
# GULP energy per Si atom -12389.373857 kJ/mol
# Density = 1.717757 g / cm^3
# Si number density = 17.216758 Si / 1000 Ang^3
#
#
#
# Elastic Constant Matrix: (Units=GPa)
#
#
# Indices 1 2 3 4 5 6 
#
# 1 139.4469 67.6119 21.9789 0.0000 0.0000 0.0000
# 2 67.6119 153.2344 38.7860 0.0000 0.0000 0.0000
# 3 21.9789 38.7860 26.0100 0.0000 0.0000 0.0000
# 4 0.0000 0.0000 0.0000 34.3703 0.0000 0.0000
# 5 0.0000 0.0000 0.0000 0.0000 12.1621 0.0000
# 6 0.0000 0.0000 0.0000 0.0000 0.0000 19.6011
#
#
#
# Elastic Compliance Matrix: (Units=1/GPa)
#
#
# Indices 1 2 3 4 5 6 
#
# 1 0.009246 -0.003377 -0.002778 0.000000 0.000000 0.000000
# 2 -0.003377 0.011716 -0.014617 0.000000 0.000000 0.000000
# 3 -0.002778 -0.014617 0.062591 0.000000 0.000000 0.000000
# 4 0.000000 0.000000 0.000000 0.029095 0.000000 0.000000
# 5 0.000000 0.000000 0.000000 0.000000 0.082222 0.000000
# 6 0.000000 0.000000 0.000000 0.000000 0.000000 0.051018
#
#
# Mechanical properties :
#
#
# Convention : Reuss Voigt Hill
#
# Bulk Modulus (GPa) = 23.80414 63.93834 43.87124
# Shear Modulus (GPa) = 16.58738 25.91435 21.25087
#
# Velocity S-wave (km/s) = 3.10731 3.88388 3.51709
# Velocity P-wave (km/s) = 5.17010 7.57169 6.48307
#
# Compressibility (1/GPa) = 0.04200950
#
# Stress axis : x y z
#
# Youngs Moduli (GPa) = 108.15257 85.35657 15.97675
#
# Poissons Ratio (x) = 0.28821 0.04439
# Poissons Ratio (y) = 0.36518 0.23353
# Poissons Ratio (z) = 0.30046 1.24765
#
# Static dielectric constant tensor:
#      x y z
#    x 3.888710 0.000000 0.000000 
#    y 0.000000 3.230140 0.000000 
#    z 0.000000 0.000000 2.722810 
# 
# 
# High freq. dielectric constant tensor:
#      x y z
#    x 1.672700 0.000000 0.000000 
#    y 0.000000 1.666470 0.000000 
#    z 0.000000 0.000000 1.614780 
# 
# From -- ./inp_files/6150.got.cif
#   From: 2010.03.12/outbox.cif.g09.slc.cpg/sg63_4_cif.got.tgz:6150.got - 2010.04.10 19:34:48.
