data_PCOD8255378
_publ_section_title
;
Structure prediction by ZEFSAII (Michael W. Deem and Ramdas Pophale) SiO2 
 PCOD8255378
Probable space group: C M C M
;
_chemical_formula_sum "Si O2"
_cell_formula_units_Z 96
_cell_length_a 21.671626
_cell_length_b 12.456463
_cell_length_c 17.559721
_cell_angle_alpha 90.000000
_cell_angle_beta 90.000000
_cell_angle_gamma 90.000000
_cell_volume 4740.278422
_symmetry_space_group_name_H-M "C M C M"
_symmetry_group_IT_number 63
_symmetry_cell_setting 'orthorhombic'
loop_
_space_group_symop_operation_xyz
x,y,z
-x,-y,1/2+z
x,-y,-z
-x,y,1/2-z
-x,-y,-z
x,y,1/2-z
-x,y,z
x,-y,1/2+z
1/2+x,1/2+y,z
1/2-x,1/2-y,1/2+z
1/2+x,1/2-y,-z
1/2-x,1/2+y,1/2-z
1/2-x,1/2-y,-z
1/2+x,1/2+y,1/2-z
1/2-x,1/2+y,z
1/2+x,1/2-y,1/2+z
loop_
_atom_site_type_symbol
_atom_site_label
_atom_site_fract_x
_atom_site_fract_y
_atom_site_fract_z
Si Si1 0.379568 0.120051 0.164006
Si Si2 0.500000 0.472713 0.087551
Si Si3 0.334598 0.727756 0.338545
Si Si4 0.500000 0.740655 0.666612
Si Si5 0.134993 0.989625 0.909902
Si Si6 0.430364 0.097448 0.840757
Si Si7 0.297764 0.693443 0.660640
O O1 0.358381 0.096831 0.250000
O O2 0.442163 0.184216 0.158783
O O3 0.326986 0.195622 0.126231
O O4 0.392416 0.004533 0.124323
O O5 0.500000 0.344882 0.099021
O O6 0.564426 0.516333 0.123584
O O7 0.500000 0.500000 0.000000
O O8 0.337429 0.696606 0.250000
O O9 0.330365 0.618769 0.386329
O O10 0.394748 0.794516 0.364284
O O11 0.275101 0.801914 0.355307
O O12 0.500000 0.683288 0.750000
O O13 0.172666 0.090152 0.878174
O O14 0.133078 0.000000 0.000000
O O15 0.433183 0.084396 0.750000
O O16 0.500000 0.102898 0.873927
O O17 0.313235 0.685305 0.750000
#
# Coordination Sequence:
#
# PCOD8255378 Si02
#       7
#    16   8  16   8  16  16  16
#     4   9  16  28  51  83 114 143 182 236 289 338
#     4  10  22  38  55  82 116 162 201 244 290 332
#     4  10  23  38  59  88 118 151 189 239 295 354
#     4  10  16  28  53  88 115 142 196 248 291 345
#     4  11  24  41  60  83 117 162 202 242 292 348
#     4   9  17  31  52  82 117 147 178 227 292 350
#     4  10  21  37  60  88 116 147 192 247 291 342
#
# _framework density 20.251975000000002
#
# number of rings (size 3 to 8) (size 9 to 14) (size 15 to 20)
#    0.000    2.167    2.500    0.500    3.500    1.333 
#    0.000    0.000    0.000    0.000    0.000    3.500 
#    0.000    0.000    0.000    0.000    0.000    0.000 
#
# Total GULP energy -594863.374484 kJ/mol
# GULP energy per Si atom -12392.986968 kJ/mol
# Density = 2.020588 g / cm^3
# Si number density = 20.251975 Si / 1000 Ang^3
#
#
#
# Elastic Constant Matrix: (Units=GPa)
#
#
# Indices 1 2 3 4 5 6 
#
# 1 120.3393 61.4590 25.6379 0.0000 0.0000 0.0000
# 2 61.4590 146.3849 40.6819 0.0000 0.0000 0.0000
# 3 25.6379 40.6819 41.4182 0.0000 0.0000 0.0000
# 4 0.0000 0.0000 0.0000 13.1749 0.0000 0.0000
# 5 0.0000 0.0000 0.0000 0.0000 16.4751 0.0000
# 6 0.0000 0.0000 0.0000 0.0000 0.0000 80.5564
#
#
#
# Elastic Compliance Matrix: (Units=1/GPa)
#
#
# Indices 1 2 3 4 5 6 
#
# 1 0.010857 -0.003701 -0.003086 0.000000 0.000000 0.000000
# 2 -0.003701 0.010658 -0.008177 0.000000 0.000000 0.000000
# 3 -0.003086 -0.008177 0.034086 0.000000 0.000000 0.000000
# 4 0.000000 0.000000 0.000000 0.075902 0.000000 0.000000
# 5 0.000000 0.000000 0.000000 0.000000 0.060698 0.000000
# 6 0.000000 0.000000 0.000000 0.000000 0.000000 0.012414
#
#
# Mechanical properties :
#
#
# Convention : Reuss Voigt Hill
#
# Bulk Modulus (GPa) = 38.95100 62.63333 50.79216
# Shear Modulus (GPa) = 20.56767 34.06550 27.31659
#
# Velocity S-wave (km/s) = 3.19029 4.10577 3.67663
# Velocity P-wave (km/s) = 5.73110 7.31236 6.56948
#
# Compressibility (1/GPa) = 0.02567328
#
# Stress axis : x y z
#
# Youngs Moduli (GPa) = 92.10397 93.82908 29.33753
#
# Poissons Ratio (x) = 0.34725 0.09052
# Poissons Ratio (y) = 0.34086 0.23990
# Poissons Ratio (z) = 0.28420 0.76728
#
# Static dielectric constant tensor:
#      x y z
#    x 3.875880 0.000000 0.000000 
#    y 0.000000 3.733310 0.000000 
#    z 0.000000 0.000000 3.202010 
# 
# 
# High freq. dielectric constant tensor:
#      x y z
#    x 1.808370 0.000000 0.000000 
#    y 0.000000 1.800080 0.000000 
#    z 0.000000 0.000000 1.730990 
# 
# From -- ./inp_files/56595.got.cif
#   From: 2010.03.12/outbox.cif.g09.slc.cpg/sg63_29_cif.got.tgz:56595.got - 2010.04.10 19:34:48.
