data_PCOD8255688
_publ_section_title
;
Structure prediction by ZEFSAII (Michael W. Deem and Ramdas Pophale) SiO2 
 PCOD8255688
Probable space group: C M C M
;
_chemical_formula_sum "Si O2"
_cell_formula_units_Z 96
_cell_length_a 19.002270
_cell_length_b 32.641078
_cell_length_c 9.108989
_cell_angle_alpha 90.000000
_cell_angle_beta 90.000000
_cell_angle_gamma 90.000000
_cell_volume 5649.892121
_symmetry_space_group_name_H-M "C M C M"
_symmetry_group_IT_number 63
_symmetry_cell_setting 'orthorhombic'
loop_
_space_group_symop_operation_xyz
x,y,z
-x,-y,1/2+z
x,-y,-z
-x,y,1/2-z
-x,-y,-z
x,y,1/2-z
-x,y,z
x,-y,1/2+z
1/2+x,1/2+y,z
1/2-x,1/2-y,1/2+z
1/2+x,1/2-y,-z
1/2-x,1/2+y,1/2-z
1/2-x,1/2-y,-z
1/2+x,1/2+y,1/2-z
1/2-x,1/2+y,z
1/2+x,1/2-y,1/2+z
loop_
_atom_site_type_symbol
_atom_site_label
_atom_site_fract_x
_atom_site_fract_y
_atom_site_fract_z
Si Si1 0.156782 0.163409 0.575455
Si Si2 0.788768 0.958619 0.919645
Si Si3 0.784274 0.376393 0.923467
Si Si4 0.078078 0.242556 0.575934
Si Si5 0.079753 0.907179 0.580015
Si Si6 0.422227 0.166432 0.424262
O O1 0.162196 0.159987 0.750000
O O2 0.232090 0.154784 0.504069
O O3 0.133417 0.208600 0.520953
O O4 0.097970 0.131620 0.519842
O O5 0.781450 0.968243 0.750000
O O6 0.734198 0.922984 0.967637
O O7 0.868199 0.944653 0.960132
O O8 0.767878 0.000000 0.000000
O O9 0.774603 0.369879 0.750000
O O10 0.863528 0.366125 0.977161
O O11 0.076560 0.242166 0.750000
O O12 0.099222 0.288020 0.519644
O O13 0.000000 0.231702 0.516610
O O14 0.091088 0.894765 0.750000
O O15 0.000000 0.921350 0.548627
O O16 0.425342 0.166796 0.250000
O O17 0.500000 0.154192 0.485224
#
# Coordination Sequence:
#
# PCOD8255688 Si02
#       6
#    16  16  16  16  16  16
#     4  10  18  27  42  66  95 126 157 184 213 255
#     4   9  18  31  46  65  88 114 144 180 222 267
#     4   9  18  32  48  67  90 114 145 186 226 264
#     4   8  14  24  39  63  93 120 150 189 222 246
#     4   9  18  32  47  64  90 122 154 189 224 253
#     4   8  14  27  48  69  87 113 149 185 222 264
#
# _framework density 16.991475000000001
#
# number of rings (size 3 to 8) (size 9 to 14) (size 15 to 20)
#    0.000    3.167    0.000    3.000    0.000    4.667 
#    0.000    0.000    0.000    2.000    0.000    4.667 
#    0.000    0.000    0.000    0.000    0.000    0.333 
#
# Total GULP energy -594878.920228 kJ/mol
# GULP energy per Si atom -12393.310838 kJ/mol
# Density = 1.695280 g / cm^3
# Si number density = 16.991475 Si / 1000 Ang^3
#
#
#
# Elastic Constant Matrix: (Units=GPa)
#
#
# Indices 1 2 3 4 5 6 
#
# 1 135.9885 91.9506 29.6356 0.0000 0.0000 0.0000
# 2 91.9506 125.5475 30.0566 0.0000 0.0000 0.0000
# 3 29.6356 30.0566 30.1219 0.0000 0.0000 0.0000
# 4 0.0000 0.0000 0.0000 18.8957 0.0000 0.0000
# 5 0.0000 0.0000 0.0000 0.0000 16.5222 0.0000
# 6 0.0000 0.0000 0.0000 0.0000 0.0000 18.1001
#
#
#
# Elastic Compliance Matrix: (Units=1/GPa)
#
#
# Indices 1 2 3 4 5 6 
#
# 1 0.015126 -0.009874 -0.005029 0.000000 0.000000 0.000000
# 2 -0.009874 0.016911 -0.007159 0.000000 0.000000 0.000000
# 3 -0.005029 -0.007159 0.045290 0.000000 0.000000 0.000000
# 4 0.000000 0.000000 0.000000 0.052922 0.000000 0.000000
# 5 0.000000 0.000000 0.000000 0.000000 0.060524 0.000000
# 6 0.000000 0.000000 0.000000 0.000000 0.000000 0.055248
#
#
# Mechanical properties :
#
#
# Convention : Reuss Voigt Hill
#
# Bulk Modulus (GPa) = 30.11887 66.10481 48.11184
# Shear Modulus (GPa) = 16.59941 20.03795 18.31868
#
# Velocity S-wave (km/s) = 3.12897 3.43781 3.28702
# Velocity P-wave (km/s) = 5.55142 7.39914 6.54085
#
# Compressibility (1/GPa) = 0.03320178
#
# Stress axis : x y z
#
# Youngs Moduli (GPa) = 66.10998 59.13257 22.07985
#
# Poissons Ratio (x) = 0.58390 0.11104
# Poissons Ratio (y) = 0.65280 0.15808
# Poissons Ratio (z) = 0.33247 0.42335
#
# Static dielectric constant tensor:
#      x y z
#    x 3.413080 0.000000 0.000000 
#    y 0.000000 3.191640 0.000000 
#    z 0.000000 0.000000 2.858320 
# 
# 
# High freq. dielectric constant tensor:
#      x y z
#    x 1.651770 0.000000 0.000000 
#    y 0.000000 1.645290 0.000000 
#    z 0.000000 0.000000 1.623040 
# 
# From -- ./inp_files/8635.got.cif
#   From: 2010.03.12/outbox.cif.g09.slc.cpg/sg63_5_cif.got.tgz:8635.got - 2010.04.10 19:34:48.
