data_PCOD8255564
_publ_section_title
;
Structure prediction by ZEFSAII (Michael W. Deem and Ramdas Pophale) SiO2 
 PCOD8255564
Probable space group: C M C M
;
_chemical_formula_sum "Si O2"
_cell_formula_units_Z 104
_cell_length_a 22.753862
_cell_length_b 20.239113
_cell_length_c 13.831786
_cell_angle_alpha 90.000000
_cell_angle_beta 90.000000
_cell_angle_gamma 90.000000
_cell_volume 6369.786207
_symmetry_space_group_name_H-M "C M C M"
_symmetry_group_IT_number 63
_symmetry_cell_setting 'orthorhombic'
loop_
_space_group_symop_operation_xyz
x,y,z
-x,-y,1/2+z
x,-y,-z
-x,y,1/2-z
-x,-y,-z
x,y,1/2-z
-x,y,z
x,-y,1/2+z
1/2+x,1/2+y,z
1/2-x,1/2-y,1/2+z
1/2+x,1/2-y,-z
1/2-x,1/2+y,1/2-z
1/2-x,1/2-y,-z
1/2+x,1/2+y,1/2-z
1/2-x,1/2+y,z
1/2+x,1/2-y,1/2+z
loop_
_atom_site_type_symbol
_atom_site_label
_atom_site_fract_x
_atom_site_fract_y
_atom_site_fract_z
Si Si1 0.250000 0.500000 0.500000
Si Si2 0.933562 0.674633 0.636477
Si Si3 0.675844 0.617324 0.452184
Si Si4 0.066438 0.825367 0.636477
Si Si5 0.717328 0.325627 0.358684
Si Si6 0.324156 0.117324 0.547816
Si Si7 0.217328 0.325627 0.641316
O O1 0.293634 0.454383 0.565158
O O2 0.206366 0.454383 0.434842
O O3 0.925390 0.666416 0.750000
O O4 0.919067 0.750000 0.605520
O O5 0.891061 0.622368 0.583204
O O6 0.000000 0.656861 0.606062
O O7 0.608939 0.622368 0.416796
O O8 0.677301 0.632464 0.567279
O O9 0.714433 0.670030 0.391694
O O10 0.074610 0.833584 0.750000
O O11 0.000000 0.843139 0.606062
O O12 0.709515 0.353668 0.250000
O O13 0.785567 0.329971 0.391693
O O14 0.697400 0.250000 0.362424
O O15 0.322699 0.132464 0.432721
O O16 0.209515 0.353668 0.750000
#
# Coordination Sequence:
#
# PCOD8255564 Si02
#       7
#     8  16  16  16  16  16  16
#     4   8  20  32  42  64  88 118 160 180 202 256
#     4   9  17  29  48  73  93 110 139 180 226 271
#     4  10  17  30  44  61  90 121 144 180 220 254
#     4   9  17  29  48  73  93 110 139 180 226 271
#     4   9  16  25  42  67  88 110 143 182 227 272
#     4  10  17  30  44  61  90 121 144 180 220 254
#     4   9  16  25  42  67  88 110 143 182 227 272
#
# _framework density 16.327079000000001
#
# number of rings (size 3 to 8) (size 9 to 14) (size 15 to 20)
#    0.000    3.077    0.000    5.538    0.000    2.462 
#    0.000   20.000    0.000    0.923    0.000    4.308 
#    0.000    0.000    0.000    0.000    0.000    0.000 
#
# Total GULP energy -644372.802205 kJ/mol
# GULP energy per Si atom -12391.784658 kJ/mol
# Density = 1.628992 g / cm^3
# Si number density = 16.327079 Si / 1000 Ang^3
#
#
#
# Elastic Constant Matrix: (Units=GPa)
#
#
# Indices 1 2 3 4 5 6 
#
# 1 128.9984 47.6407 40.9207 0.0000 0.0000 0.0000
# 2 47.6407 76.5180 30.2032 0.0000 0.0000 0.0000
# 3 40.9207 30.2032 97.7348 0.0000 0.0000 0.0000
# 4 0.0000 0.0000 0.0000 10.4419 0.0000 0.0000
# 5 0.0000 0.0000 0.0000 0.0000 23.4100 0.0000
# 6 0.0000 0.0000 0.0000 0.0000 0.0000 23.9885
#
#
#
# Elastic Compliance Matrix: (Units=1/GPa)
#
#
# Indices 1 2 3 4 5 6 
#
# 1 0.010680 -0.005563 -0.002752 0.000000 0.000000 0.000000
# 2 -0.005563 0.017782 -0.003166 0.000000 0.000000 0.000000
# 3 -0.002752 -0.003166 0.012363 0.000000 0.000000 0.000000
# 4 0.000000 0.000000 0.000000 0.095768 0.000000 0.000000
# 5 0.000000 0.000000 0.000000 0.000000 0.042717 0.000000
# 6 0.000000 0.000000 0.000000 0.000000 0.000000 0.041687
#
#
# Mechanical properties :
#
#
# Convention : Reuss Voigt Hill
#
# Bulk Modulus (GPa) = 55.98596 60.08672 58.03634
# Shear Modulus (GPa) = 20.00709 23.86721 21.93715
#
# Velocity S-wave (km/s) = 3.50436 3.82752 3.66950
# Velocity P-wave (km/s) = 7.12311 7.51099 7.31962
#
# Compressibility (1/GPa) = 0.01786162
#
# Stress axis : x y z
#
# Youngs Moduli (GPa) = 93.63715 56.23679 80.88919
#
# Poissons Ratio (x) = 0.31283 0.22264
# Poissons Ratio (y) = 0.52088 0.25610
# Poissons Ratio (z) = 0.25772 0.17805
#
# Static dielectric constant tensor:
#      x y z
#    x 2.936220 0.000000 0.000000 
#    y 0.000000 2.945720 0.000000 
#    z 0.000000 0.000000 3.037010 
# 
# 
# High freq. dielectric constant tensor:
#      x y z
#    x 1.605660 0.000000 0.000000 
#    y 0.000000 1.608430 0.000000 
#    z 0.000000 0.000000 1.618140 
# 
# From -- ./inp_files/37161.got.cif
#   From: 2010.03.12/outbox.cif.g09.slc.cpg/sg63_19_cif.got.tgz:37161.got - 2010.04.10 19:34:48.
