data_PCOD8255298
_publ_section_title
;
Structure prediction by ZEFSAII (Michael W. Deem and Ramdas Pophale) SiO2 
 PCOD8255298
Probable space group: P N M A
;
_chemical_formula_sum "Si O2"
_cell_formula_units_Z 64
_cell_length_a 14.581955
_cell_length_b 13.906479
_cell_length_c 17.123614
_cell_angle_alpha 90.000000
_cell_angle_beta 90.000000
_cell_angle_gamma 90.000000
_cell_volume 3472.388965
_symmetry_space_group_name_H-M "P N M A"
_symmetry_group_IT_number 62
_symmetry_cell_setting 'orthorhombic'
loop_
_space_group_symop_operation_xyz
x,y,z
1/2-x,-y,1/2+z
1/2+x,1/2-y,1/2-z
-x,1/2+y,-z
-x,-y,-z
1/2+x,y,1/2-z
1/2-x,1/2+y,1/2+z
x,1/2-y,z
loop_
_atom_site_type_symbol
_atom_site_label
_atom_site_fract_x
_atom_site_fract_y
_atom_site_fract_z
Si Si1 0.845788 0.539840 0.197837
Si Si2 0.027104 0.357165 0.689575
Si Si3 0.492974 0.861358 0.566207
Si Si4 0.324411 0.356078 0.825588
Si Si5 0.142179 0.005463 0.978576
Si Si6 0.056354 0.859012 0.761749
Si Si7 0.986672 0.453781 0.394875
Si Si8 0.348868 0.034132 0.978330
O O1 0.741702 0.568749 0.218167
O O2 0.863465 0.552499 0.106493
O O3 0.857472 0.430999 0.229171
O O4 0.914421 0.615829 0.235382
O O5 0.052440 0.250000 0.659156
O O6 0.921634 0.361390 0.717616
O O7 0.041955 0.435190 0.621784
O O8 0.486367 0.750000 0.541006
O O9 0.403349 0.919868 0.539022
O O10 0.494425 0.870243 0.660735
O O11 0.584705 0.905486 0.525289
O O12 0.281597 0.250000 0.819737
O O13 0.334475 0.380316 0.917104
O O14 0.249540 0.988189 0.001547
O O15 0.092187 0.750000 0.752951
O O16 0.001319 0.890359 0.683627
O O17 0.084339 0.452044 0.440191
O O18 0.901679 0.417609 0.447940
#
# Coordination Sequence:
#
# PCOD8255298 Si02
#       8
#     8   8   8   8   8   8   8   8
#     4   9  17  31  52  73 101 136 169 211 257 302
#     4   9  17  30  48  71 100 132 165 205 256 309
#     4   9  18  34  53  74 103 135 169 211 254 302
#     4   9  17  29  49  76 102 130 169 214 260 311
#     4   9  18  33  52  74  99 131 169 209 256 305
#     4   9  18  34  54  75 103 141 179 214 257 309
#     4   9  18  34  53  73 102 136 170 214 262 311
#     4   9  18  33  52  74 102 133 169 213 261 308
#
# _framework density 18.431114999999998
#
# number of rings (size 3 to 8) (size 9 to 14) (size 15 to 20)
#    0.000    3.000    0.000    0.375    0.000    3.000 
#    0.000   19.375    0.000   21.000    0.000    0.000 
#    0.000    0.000    0.000    0.000    0.000    0.000 
#
# Total GULP energy -793014.700836 kJ/mol
# GULP energy per Si atom -12390.854701 kJ/mol
# Density = 1.838917 g / cm^3
# Si number density = 18.431115 Si / 1000 Ang^3
#
#
#
# Elastic Constant Matrix: (Units=GPa)
#
#
# Indices 1 2 3 4 5 6 
#
# 1 127.6373 48.6418 45.4256 0.0000 0.0000 0.0000
# 2 48.6418 112.6843 33.9852 0.0000 0.0000 0.0000
# 3 45.4256 33.9852 71.3713 0.0000 0.0000 0.0000
# 4 0.0000 0.0000 0.0000 19.8310 0.0000 0.0000
# 5 0.0000 0.0000 0.0000 0.0000 25.2849 0.0000
# 6 0.0000 0.0000 0.0000 0.0000 0.0000 19.6006
#
#
#
# Elastic Compliance Matrix: (Units=1/GPa)
#
#
# Indices 1 2 3 4 5 6 
#
# 1 0.010969 -0.003070 -0.005520 0.000000 0.000000 0.000000
# 2 -0.003070 0.011222 -0.003389 0.000000 0.000000 0.000000
# 3 -0.005520 -0.003389 0.019138 0.000000 0.000000 0.000000
# 4 0.000000 0.000000 0.000000 0.050426 0.000000 0.000000
# 5 0.000000 0.000000 0.000000 0.000000 0.039549 0.000000
# 6 0.000000 0.000000 0.000000 0.000000 0.000000 0.051019
#
#
# Mechanical properties :
#
#
# Convention : Reuss Voigt Hill
#
# Bulk Modulus (GPa) = 57.56807 63.08868 60.32838
# Shear Modulus (GPa) = 23.57685 25.18598 24.38141
#
# Velocity S-wave (km/s) = 3.58045 3.70062 3.64103
# Velocity P-wave (km/s) = 6.95664 7.25005 7.10486
#
# Compressibility (1/GPa) = 0.01737074
#
# Stress axis : x y z
#
# Youngs Moduli (GPa) = 91.16473 89.11106 52.25154
#
# Poissons Ratio (x) = 0.27360 0.28840
# Poissons Ratio (y) = 0.27991 0.17710
# Poissons Ratio (z) = 0.50318 0.30204
#
# Static dielectric constant tensor:
#      x y z
#    x 3.515830 0.000000 0.000000 
#    y 0.000000 3.416310 0.000000 
#    z 0.000000 0.000000 3.337010 
# 
# 
# High freq. dielectric constant tensor:
#      x y z
#    x 1.706980 0.000000 0.000000 
#    y 0.000000 1.703260 0.000000 
#    z 0.000000 0.000000 1.705720 
# 
# From -- ./inp_files/24111.got.cif
#   From: 2010.03.12/outbox.cif.g09.slc.cpg/sg62_13_cif.got.tgz:24111.got - 2010.04.10 19:12:36.
