data_PCOD8255833
_publ_section_title
;
Structure prediction by ZEFSAII (Michael W. Deem and Ramdas Pophale) SiO2 
 PCOD8255833
Probable space group: C M C M
;
_chemical_formula_sum "Si O2"
_cell_formula_units_Z 96
_cell_length_a 12.101781
_cell_length_b 21.365438
_cell_length_c 21.121140
_cell_angle_alpha 90.000000
_cell_angle_beta 90.000000
_cell_angle_gamma 90.000000
_cell_volume 5461.078825
_symmetry_space_group_name_H-M "C M C M"
_symmetry_group_IT_number 63
_symmetry_cell_setting 'orthorhombic'
loop_
_space_group_symop_operation_xyz
x,y,z
-x,-y,1/2+z
x,-y,-z
-x,y,1/2-z
-x,-y,-z
x,y,1/2-z
-x,y,z
x,-y,1/2+z
1/2+x,1/2+y,z
1/2-x,1/2-y,1/2+z
1/2+x,1/2-y,-z
1/2-x,1/2+y,1/2-z
1/2-x,1/2-y,-z
1/2+x,1/2+y,1/2-z
1/2-x,1/2+y,z
1/2+x,1/2-y,1/2+z
loop_
_atom_site_type_symbol
_atom_site_label
_atom_site_fract_x
_atom_site_fract_y
_atom_site_fract_z
Si Si1 0.238782 0.531471 0.568640
Si Si2 0.874038 0.919015 0.884749
Si Si3 0.216795 0.328335 0.819217
Si Si4 0.694196 0.350205 0.492444
Si Si5 0.000000 0.410403 0.681389
Si Si6 0.000000 0.510026 0.925031
Si Si7 0.873900 0.722666 0.438218
O O1 0.231369 0.500000 0.500000
O O2 0.308051 0.485142 0.613953
O O3 0.294786 0.599654 0.564413
O O4 0.114214 0.544190 0.594521
O O5 0.821047 0.873013 0.833006
O O6 0.000000 0.933446 0.865739
O O7 0.872511 0.883896 0.951878
O O8 0.234885 0.297158 0.750000
O O9 0.197563 0.275311 0.872871
O O10 0.107857 0.368932 0.820452
O O11 0.815860 0.327901 0.515577
O O12 0.624827 0.291433 0.468070
O O13 0.000000 0.447559 0.616303
O O14 0.000000 0.447230 0.750000
O O15 0.000000 0.500000 0.000000
O O16 0.000000 0.700987 0.427431
#
# Coordination Sequence:
#
# PCOD8255833 Si02
#       7
#    16  16  16  16   8   8  16
#     4   9  18  29  47  74 103 132 163 204 257 308
#     4  10  19  32  50  72 104 137 166 201 254 312
#     4  10  20  33  52  76  99 127 169 215 256 296
#     4   9  20  32  45  76 105 133 166 206 255 303
#     4  10  18  32  52  78 106 128 161 214 266 308
#     4  10  18  28  52  80 104 130 162 214 263 310
#     4  10  19  31  50  70 101 134 170 208 251 302
#
# _framework density 17.578944
#
# number of rings (size 3 to 8) (size 9 to 14) (size 15 to 20)
#    0.000    2.333    2.500    0.500    3.500    4.000 
#    0.000    0.000    0.000    2.000    0.000    2.333 
#    0.000    0.000    0.000    0.000    0.000    0.000 
#
# Total GULP energy -594763.401924 kJ/mol
# GULP energy per Si atom -12390.904207 kJ/mol
# Density = 1.753893 g / cm^3
# Si number density = 17.578944 Si / 1000 Ang^3
#
#
#
# Elastic Constant Matrix: (Units=GPa)
#
#
# Indices 1 2 3 4 5 6 
#
# 1 113.9604 10.3046 9.3406 0.0000 0.0000 0.0000
# 2 10.3046 57.8431 21.4018 0.0000 0.0000 0.0000
# 3 9.3406 21.4018 70.5856 0.0000 0.0000 0.0000
# 4 0.0000 0.0000 0.0000 18.3775 0.0000 0.0000
# 5 0.0000 0.0000 0.0000 0.0000 18.3524 0.0000
# 6 0.0000 0.0000 0.0000 0.0000 0.0000 16.0572
#
#
#
# Elastic Compliance Matrix: (Units=1/GPa)
#
#
# Indices 1 2 3 4 5 6 
#
# 1 0.008958 -0.001303 -0.000790 0.000000 0.000000 0.000000
# 2 -0.001303 0.019662 -0.005789 0.000000 0.000000 0.000000
# 3 -0.000790 -0.005789 0.016027 0.000000 0.000000 0.000000
# 4 0.000000 0.000000 0.000000 0.054414 0.000000 0.000000
# 5 0.000000 0.000000 0.000000 0.000000 0.054489 0.000000
# 6 0.000000 0.000000 0.000000 0.000000 0.000000 0.062277
#
#
# Mechanical properties :
#
#
# Convention : Reuss Voigt Hill
#
# Bulk Modulus (GPa) = 34.62431 36.05368 35.33899
# Shear Modulus (GPa) = 20.72795 23.98022 22.35408
#
# Velocity S-wave (km/s) = 3.43758 3.69744 3.56987
# Velocity P-wave (km/s) = 5.95778 6.22753 6.09415
#
# Compressibility (1/GPa) = 0.02888144
#
# Stress axis : x y z
#
# Youngs Moduli (GPa) = 111.63699 50.85862 62.39445
#
# Poissons Ratio (x) = 0.06629 0.04930
# Poissons Ratio (y) = 0.14551 0.36121
# Poissons Ratio (z) = 0.08821 0.29443
#
# Static dielectric constant tensor:
#      x y z
#    x 3.360280 0.000000 0.000000 
#    y 0.000000 3.097610 0.000000 
#    z 0.000000 0.000000 3.602330 
# 
# 
# High freq. dielectric constant tensor:
#      x y z
#    x 1.691020 0.000000 0.000000 
#    y 0.000000 1.652200 0.000000 
#    z 0.000000 0.000000 1.652330 
# 
# From -- ./inp_files/52904.got.cif
#   From: 2010.03.12/outbox.cif.g09.slc.cpg/sg63_27_cif.got.tgz:52904.got - 2010.04.10 19:34:48.
