data_PCOD8255334
_publ_section_title
;
Structure prediction by ZEFSAII (Michael W. Deem and Ramdas Pophale) SiO2 
 PCOD8255334
Probable space group: C M C M
;
_chemical_formula_sum "Si O2"
_cell_formula_units_Z 104
_cell_length_a 11.888389
_cell_length_b 24.840020
_cell_length_c 18.674258
_cell_angle_alpha 90.000000
_cell_angle_beta 90.000000
_cell_angle_gamma 90.000000
_cell_volume 5514.654430
_symmetry_space_group_name_H-M "C M C M"
_symmetry_group_IT_number 63
_symmetry_cell_setting 'orthorhombic'
loop_
_space_group_symop_operation_xyz
x,y,z
-x,-y,1/2+z
x,-y,-z
-x,y,1/2-z
-x,-y,-z
x,y,1/2-z
-x,y,z
x,-y,1/2+z
1/2+x,1/2+y,z
1/2-x,1/2-y,1/2+z
1/2+x,1/2-y,-z
1/2-x,1/2+y,1/2-z
1/2-x,1/2-y,-z
1/2+x,1/2+y,1/2-z
1/2-x,1/2+y,z
1/2+x,1/2-y,1/2+z
loop_
_atom_site_type_symbol
_atom_site_label
_atom_site_fract_x
_atom_site_fract_y
_atom_site_fract_z
Si Si1 0.000000 0.319261 0.884648
Si Si2 0.255686 0.813063 0.928637
Si Si3 0.772801 0.808755 0.409895
Si Si4 0.500000 0.933785 0.668771
Si Si5 0.786051 0.491607 0.834718
Si Si6 0.500000 0.297699 0.331780
Si Si7 0.871448 0.899721 0.665356
Si Si8 0.368618 0.104667 0.666380
O O1 0.890236 0.321010 0.934828
O O2 0.000000 0.369638 0.831908
O O3 0.000000 0.266842 0.834829
O O4 0.231465 0.752689 0.901005
O O5 0.199984 0.853597 0.872831
O O6 0.204679 0.822568 0.007058
O O7 0.672732 0.844168 0.377700
O O8 0.889138 0.821371 0.369412
O O9 0.500000 0.953758 0.750000
O O10 0.610740 0.957802 0.630845
O O11 0.797126 0.492037 0.750000
O O12 0.672688 0.459578 0.856922
O O13 0.794552 0.553332 0.861015
O O14 0.500000 0.317048 0.250000
O O15 0.857094 0.890610 0.750000
O O16 0.000000 0.895799 0.640848
O O17 0.349008 0.115926 0.750000
O O18 0.500000 0.093694 0.650670
#
# Coordination Sequence:
#
# PCOD8255334 Si02
#       8
#     8  16  16   8  16   8  16  16
#     4  10  19  32  57  86 108 146 190 240 289 338
#     4  10  22  38  58  82 116 153 191 232 293 350
#     4  10  23  39  56  81 115 157 188 235 288 344
#     4  10  15  26  53  83 108 138 178 231 290 328
#     4   9  17  32  54  82 114 145 182 231 289 341
#     4  10  21  38  58  83 109 144 204 249 277 334
#     4  10  21  36  58  87 115 147 190 239 287 345
#     4  10  20  36  59  86 115 149 191 238 285 338
#
# _framework density 18.858841000000002
#
# number of rings (size 3 to 8) (size 9 to 14) (size 15 to 20)
#    0.000    2.154    2.308    0.692    2.154    3.692 
#    1.385    2.308    0.000    2.769    0.000    0.000 
#    0.000    0.000    0.000    0.000    0.000    0.000 
#
# Total GULP energy -644646.734071 kJ/mol
# GULP energy per Si atom -12397.052578 kJ/mol
# Density = 1.881592 g / cm^3
# Si number density = 18.858841 Si / 1000 Ang^3
#
#
#
# Elastic Constant Matrix: (Units=GPa)
#
#
# Indices 1 2 3 4 5 6 
#
# 1 112.7837 55.0067 43.9682 0.0000 0.0000 0.0000
# 2 55.0067 118.7221 34.1159 0.0000 0.0000 0.0000
# 3 43.9682 34.1159 68.4133 0.0000 0.0000 0.0000
# 4 0.0000 0.0000 0.0000 16.5809 0.0000 0.0000
# 5 0.0000 0.0000 0.0000 0.0000 24.4925 0.0000
# 6 0.0000 0.0000 0.0000 0.0000 0.0000 33.6318
#
#
#
# Elastic Compliance Matrix: (Units=1/GPa)
#
#
# Indices 1 2 3 4 5 6 
#
# 1 0.013556 -0.004409 -0.006514 0.000000 0.000000 0.000000
# 2 -0.004409 0.011266 -0.002784 0.000000 0.000000 0.000000
# 3 -0.006514 -0.002784 0.020192 0.000000 0.000000 0.000000
# 4 0.000000 0.000000 0.000000 0.060310 0.000000 0.000000
# 5 0.000000 0.000000 0.000000 0.000000 0.040829 0.000000
# 6 0.000000 0.000000 0.000000 0.000000 0.000000 0.029734
#
#
# Mechanical properties :
#
#
# Convention : Reuss Voigt Hill
#
# Bulk Modulus (GPa) = 56.81928 62.90007 59.85967
# Shear Modulus (GPa) = 23.90424 26.06294 24.98359
#
# Velocity S-wave (km/s) = 3.56411 3.72156 3.64369
# Velocity P-wave (km/s) = 6.86522 7.20362 7.03646
#
# Compressibility (1/GPa) = 0.01759966
#
# Stress axis : x y z
#
# Youngs Moduli (GPa) = 73.76638 88.76255 49.52509
#
# Poissons Ratio (x) = 0.39137 0.32259
# Poissons Ratio (y) = 0.32525 0.13789
# Poissons Ratio (z) = 0.48049 0.24715
#
# Static dielectric constant tensor:
#      x y z
#    x 3.580490 0.000000 0.000000 
#    y 0.000000 3.543970 0.000000 
#    z 0.000000 0.000000 3.120950 
# 
# 
# High freq. dielectric constant tensor:
#      x y z
#    x 1.736250 0.000000 0.000000 
#    y 0.000000 1.736210 0.000000 
#    z 0.000000 0.000000 1.701640 
# 
# From -- ./inp_files/42826.got.cif
#   From: 2010.03.12/outbox.cif.g09.slc.cpg/sg63_22_cif.got.tgz:42826.got - 2010.04.10 19:34:48.
