data_PCOD8255984
_publ_section_title
;
Structure prediction by ZEFSAII (Michael W. Deem and Ramdas Pophale) SiO2 
 PCOD8255984
Probable space group: C M C M
;
_chemical_formula_sum "Si O2"
_cell_formula_units_Z 88
_cell_length_a 24.072791
_cell_length_b 23.825383
_cell_length_c 8.945339
_cell_angle_alpha 90.000000
_cell_angle_beta 90.000000
_cell_angle_gamma 90.000000
_cell_volume 5130.540730
_symmetry_space_group_name_H-M "C M C M"
_symmetry_group_IT_number 63
_symmetry_cell_setting 'orthorhombic'
loop_
_space_group_symop_operation_xyz
x,y,z
-x,-y,1/2+z
x,-y,-z
-x,y,1/2-z
-x,-y,-z
x,y,1/2-z
-x,y,z
x,-y,1/2+z
1/2+x,1/2+y,z
1/2-x,1/2-y,1/2+z
1/2+x,1/2-y,-z
1/2-x,1/2+y,1/2-z
1/2-x,1/2-y,-z
1/2+x,1/2+y,1/2-z
1/2-x,1/2+y,z
1/2+x,1/2-y,1/2+z
loop_
_atom_site_type_symbol
_atom_site_label
_atom_site_fract_x
_atom_site_fract_y
_atom_site_fract_z
Si Si1 0.211938 0.669664 0.925368
Si Si2 0.500000 0.562190 0.072932
Si Si3 0.098648 0.127743 0.921304
Si Si4 0.800715 0.554173 0.415737
Si Si5 0.671107 0.447841 0.915340
Si Si6 0.673255 0.724855 0.577406
O O1 0.207187 0.661525 0.750000
O O2 0.274564 0.686043 0.975762
O O3 0.189912 0.612176 0.997962
O O4 0.170569 0.719085 0.978805
O O5 0.500000 0.554063 0.250000
O O6 0.500000 0.500000 0.000000
O O7 0.551990 0.600776 0.025658
O O8 0.084506 0.113272 0.750000
O O9 0.112893 0.193947 0.940790
O O10 0.157821 0.103431 0.974973
O O11 0.827285 0.500000 0.500000
O O12 0.827287 0.558434 0.250000
O O13 0.735792 0.542912 0.399504
O O14 0.644292 0.440916 0.750000
O O15 0.642298 0.500000 0.000000
O O16 0.683194 0.741106 0.750000
#
# Coordination Sequence:
#
# PCOD8255984 Si02
#       6
#    16   8  16  16  16  16
#     4  10  18  30  47  69  95 123 157 195 238 286
#     4  12  26  42  56  72  94 124 165 212 263 306
#     4  11  21  36  53  69  90 118 156 201 250 296
#     4  10  19  29  43  63  91 123 157 193 233 278
#     4  10  19  29  43  62  85 115 151 193 237 283
#     4   9  19  32  48  68  92 122 155 195 241 291
#
# _framework density 17.152187999999999
#
# number of rings (size 3 to 8) (size 9 to 14) (size 15 to 20)
#    0.000    1.818    1.818    3.545    0.000    3.636 
#    0.000    0.000    0.000    0.000    0.000    0.000 
#    0.000    0.000    0.000    0.818    0.000   10.727 
#
# Total GULP energy -545133.244188 kJ/mol
# GULP energy per Si atom -12389.391913 kJ/mol
# Density = 1.711315 g / cm^3
# Si number density = 17.152188 Si / 1000 Ang^3
#
#
#
# Elastic Constant Matrix: (Units=GPa)
#
#
# Indices 1 2 3 4 5 6 
#
# 1 31.2347 23.8153 22.6400 0.0000 0.0000 0.0000
# 2 23.8153 128.7526 64.7142 0.0000 0.0000 0.0000
# 3 22.6400 64.7142 109.9147 0.0000 0.0000 0.0000
# 4 0.0000 0.0000 0.0000 34.1636 0.0000 0.0000
# 5 0.0000 0.0000 0.0000 0.0000 17.0541 0.0000
# 6 0.0000 0.0000 0.0000 0.0000 0.0000 20.3560
#
#
#
# Elastic Compliance Matrix: (Units=1/GPa)
#
#
# Indices 1 2 3 4 5 6 
#
# 1 0.039435 -0.004561 -0.005437 0.000000 0.000000 0.000000
# 2 -0.004561 0.011559 -0.005866 0.000000 0.000000 0.000000
# 3 -0.005437 -0.005866 0.013672 0.000000 0.000000 0.000000
# 4 0.000000 0.000000 0.000000 0.029271 0.000000 0.000000
# 5 0.000000 0.000000 0.000000 0.000000 0.058637 0.000000
# 6 0.000000 0.000000 0.000000 0.000000 0.000000 0.049126
#
#
# Mechanical properties :
#
#
# Convention : Reuss Voigt Hill
#
# Bulk Modulus (GPa) = 30.36171 54.69343 42.52757
# Shear Modulus (GPa) = 20.45775 24.89690 22.67733
#
# Velocity S-wave (km/s) = 3.45732 3.81403 3.64005
# Velocity P-wave (km/s) = 5.80321 7.16604 6.52033
#
# Compressibility (1/GPa) = 0.03293622
#
# Stress axis : x y z
#
# Youngs Moduli (GPa) = 25.35849 86.51321 73.14449
#
# Poissons Ratio (x) = 0.39462 0.39769
# Poissons Ratio (y) = 0.11567 0.42906
# Poissons Ratio (z) = 0.13788 0.50748
#
# Static dielectric constant tensor:
#      x y z
#    x 2.701220 0.000000 0.000000 
#    y 0.000000 3.303100 0.000000 
#    z 0.000000 0.000000 3.451540 
# 
# 
# High freq. dielectric constant tensor:
#      x y z
#    x 1.586710 0.000000 0.000000 
#    y 0.000000 1.666790 0.000000 
#    z 0.000000 0.000000 1.681630 
# 
# From -- ./inp_files/14345.got.cif
#   From: 2010.03.12/outbox.cif.g09.slc.cpg/sg63_8_cif.got.tgz:14345.got - 2010.04.10 19:34:48.
