data_PCOD8255507
_publ_section_title
;
Structure prediction by ZEFSAII (Michael W. Deem and Ramdas Pophale) SiO2 
 PCOD8255507
Probable space group: C M C M
;
_chemical_formula_sum "Si O2"
_cell_formula_units_Z 96
_cell_length_a 10.405791
_cell_length_b 27.533959
_cell_length_c 19.787437
_cell_angle_alpha 90.000000
_cell_angle_beta 90.000000
_cell_angle_gamma 90.000000
_cell_volume 5669.350473
_symmetry_space_group_name_H-M "C M C M"
_symmetry_group_IT_number 63
_symmetry_cell_setting 'orthorhombic'
loop_
_space_group_symop_operation_xyz
x,y,z
-x,-y,1/2+z
x,-y,-z
-x,y,1/2-z
-x,-y,-z
x,y,1/2-z
-x,y,z
x,-y,1/2+z
1/2+x,1/2+y,z
1/2-x,1/2-y,1/2+z
1/2+x,1/2-y,-z
1/2-x,1/2+y,1/2-z
1/2-x,1/2-y,-z
1/2+x,1/2+y,1/2-z
1/2-x,1/2+y,z
1/2+x,1/2-y,1/2+z
loop_
_atom_site_type_symbol
_atom_site_label
_atom_site_fract_x
_atom_site_fract_y
_atom_site_fract_z
Si Si1 0.741896 0.131079 0.444522
Si Si2 0.647887 0.056082 0.671961
Si Si3 0.500000 0.299681 0.091825
Si Si4 0.500000 0.209929 0.909739
Si Si5 0.500000 0.682308 0.066758
Si Si6 0.742255 0.850970 0.396704
Si Si7 0.500000 0.192110 0.068427
Si Si8 0.349841 0.026351 0.431453
O O1 0.736683 0.134022 0.525289
O O2 0.626591 0.162031 0.411778
O O3 0.730705 0.075367 0.422239
O O4 0.874250 0.151523 0.414187
O O5 0.673425 0.045090 0.750000
O O6 0.500000 0.069740 0.656945
O O7 0.734641 0.100776 0.648146
O O8 0.685212 0.007688 0.631529
O O9 0.625829 0.324515 0.123233
O O10 0.500000 0.242559 0.109744
O O11 0.500000 0.306017 0.011939
O O12 0.500000 0.267129 0.891922
O O13 0.373645 0.185354 0.878038
O O14 0.500000 0.203173 0.989527
O O15 0.500000 0.039811 0.434867
O O16 0.306707 0.000000 0.500000
#
# Coordination Sequence:
#
# PCOD8255507 Si02
#       8
#    16  16   8   8   8  16   8  16
#     4  10  17  28  46  72 101 131 160 197 248 292
#     4  10  20  33  50  74  98 125 166 209 243 294
#     4   9  18  28  42  69 105 132 154 196 240 290
#     4   9  16  26  46  67  97 134 160 192 232 284
#     4   9  18  28  40  70 108 129 156 196 242 291
#     4  10  17  29  47  70  98 132 161 194 246 290
#     4   9  16  26  44  70  98 129 166 192 230 285
#     4  10  18  29  50  73  95 126 164 206 250 296
#
# _framework density 16.933157000000001
#
# number of rings (size 3 to 8) (size 9 to 14) (size 15 to 20)
#    0.000    2.333    3.333    1.000    0.000    4.000 
#    0.000    1.667    0.000    0.000    0.000    7.000 
#    0.000    0.000    0.000    0.000    0.000    0.000 
#
# Total GULP energy -595265.704372 kJ/mol
# GULP energy per Si atom -12401.368841 kJ/mol
# Density = 1.689462 g / cm^3
# Si number density = 16.933157 Si / 1000 Ang^3
#
#
#
# Elastic Constant Matrix: (Units=GPa)
#
#
# Indices 1 2 3 4 5 6 
#
# 1 135.0474 81.1796 24.2208 0.0000 0.0000 0.0000
# 2 81.1796 171.0381 37.4381 0.0000 0.0000 0.0000
# 3 24.2208 37.4381 48.3649 0.0000 0.0000 0.0000
# 4 0.0000 0.0000 0.0000 14.8882 0.0000 0.0000
# 5 0.0000 0.0000 0.0000 0.0000 9.0905 0.0000
# 6 0.0000 0.0000 0.0000 0.0000 0.0000 20.0535
#
#
#
# Elastic Compliance Matrix: (Units=1/GPa)
#
#
# Indices 1 2 3 4 5 6 
#
# 1 0.010473 -0.004603 -0.001682 0.000000 0.000000 0.000000
# 2 -0.004603 0.009062 -0.004710 0.000000 0.000000 0.000000
# 3 -0.001682 -0.004710 0.025164 0.000000 0.000000 0.000000
# 4 0.000000 0.000000 0.000000 0.067167 0.000000 0.000000
# 5 0.000000 0.000000 0.000000 0.000000 0.110005 0.000000
# 6 0.000000 0.000000 0.000000 0.000000 0.000000 0.049867
#
#
# Mechanical properties :
#
#
# Convention : Reuss Voigt Hill
#
# Bulk Modulus (GPa) = 44.03248 71.12527 57.57887
# Shear Modulus (GPa) = 16.59487 22.91390 19.75439
#
# Velocity S-wave (km/s) = 3.13393 3.68257 3.41927
# Velocity P-wave (km/s) = 6.25743 7.75735 7.04741
#
# Compressibility (1/GPa) = 0.02271051
#
# Stress axis : x y z
#
# Youngs Moduli (GPa) = 95.48113 110.34907 39.73887
#
# Poissons Ratio (x) = 0.50791 0.06684
# Poissons Ratio (y) = 0.43947 0.18716
# Poissons Ratio (z) = 0.16061 0.51972
#
# Static dielectric constant tensor:
#      x y z
#    x 3.189160 0.000000 0.000000 
#    y 0.000000 3.273860 0.000000 
#    z 0.000000 0.000000 2.649220 
# 
# 
# High freq. dielectric constant tensor:
#      x y z
#    x 1.646900 0.000000 0.000000 
#    y 0.000000 1.668670 0.000000 
#    z 0.000000 0.000000 1.592710 
# 
# From -- ./inp_files/53123.got.cif
#   From: 2010.03.12/outbox.cif.g09.slc.cpg/sg63_27_cif.got.tgz:53123.got - 2010.04.10 19:34:48.
