data_PCOD8255199
_publ_section_title
;
Structure prediction by ZEFSAII (Michael W. Deem and Ramdas Pophale) SiO2 
 PCOD8255199
Probable space group: P N M A
;
_chemical_formula_sum "Si O2"
_cell_formula_units_Z 40
_cell_length_a 13.067908
_cell_length_b 25.467762
_cell_length_c 5.220525
_cell_angle_alpha 90.000000
_cell_angle_beta 90.000000
_cell_angle_gamma 90.000000
_cell_volume 1737.444861
_symmetry_space_group_name_H-M "P N M A"
_symmetry_group_IT_number 62
_symmetry_cell_setting 'orthorhombic'
loop_
_space_group_symop_operation_xyz
x,y,z
1/2-x,-y,1/2+z
1/2+x,1/2-y,1/2-z
-x,1/2+y,-z
-x,-y,-z
1/2+x,y,1/2-z
1/2-x,1/2+y,1/2+z
x,1/2-y,z
loop_
_atom_site_type_symbol
_atom_site_label
_atom_site_fract_x
_atom_site_fract_y
_atom_site_fract_z
Si Si1 0.056344 0.810085 0.452558
Si Si2 0.686234 0.492895 0.881884
Si Si3 0.154029 0.647565 0.969723
Si Si4 0.526228 0.553728 0.640231
Si Si5 0.878815 0.886885 0.517299
O O1 0.021164 0.750000 0.463765
O O2 0.105024 0.825296 0.722823
O O3 0.956040 0.845014 0.393744
O O4 0.137537 0.817479 0.223067
O O5 0.766172 0.508382 0.663257
O O6 0.594284 0.535348 0.886417
O O7 0.643084 0.434278 0.817163
O O8 0.100503 0.591242 0.026817
O O9 0.274074 0.642300 0.910851
O O10 0.500000 0.500000 0.500000
O O11 0.427009 0.585933 0.729185
#
# Coordination Sequence:
#
# PCOD8255199 Si02
#       5
#     8   8   8   8   8
#     4  11  27  50  72 101 136 180 244 310 361 422
#     4  12  25  41  69 103 149 193 226 276 346 419
#     4  11  26  45  72 103 140 181 236 295 360 424
#     4  11  24  44  68 108 147 194 233 286 336 431
#     4  11  26  44  74 105 145 190 242 286 361 427
#
# _framework density 23.022311999999999
#
# number of rings (size 3 to 8) (size 9 to 14) (size 15 to 20)
#    0.000    0.800    2.000    3.600    5.600    6.400 
#    0.000    0.000    0.000    0.000    0.000    0.000 
#    0.000    0.000    0.000    0.000    0.000    0.000 
#
# Total GULP energy -495980.575692 kJ/mol
# GULP energy per Si atom -12399.514392 kJ/mol
# Density = 2.296991 g / cm^3
# Si number density = 23.022312 Si / 1000 Ang^3
#
#
#
# Elastic Constant Matrix: (Units=GPa)
#
#
# Indices 1 2 3 4 5 6 
#
# 1 132.2423 52.5713 27.6099 0.0000 0.0000 0.0000
# 2 52.5713 139.3483 24.6223 0.0000 0.0000 0.0000
# 3 27.6099 24.6223 94.2190 0.0000 0.0000 0.0000
# 4 0.0000 0.0000 0.0000 27.7915 0.0000 0.0000
# 5 0.0000 0.0000 0.0000 0.0000 21.1784 0.0000
# 6 0.0000 0.0000 0.0000 0.0000 0.0000 28.9105
#
#
#
# Elastic Compliance Matrix: (Units=1/GPa)
#
#
# Indices 1 2 3 4 5 6 
#
# 1 0.009202 -0.003140 -0.001876 0.000000 0.000000 0.000000
# 2 -0.003140 0.008595 -0.001326 0.000000 0.000000 0.000000
# 3 -0.001876 -0.001326 0.011510 0.000000 0.000000 0.000000
# 4 0.000000 0.000000 0.000000 0.035982 0.000000 0.000000
# 5 0.000000 0.000000 0.000000 0.000000 0.047218 0.000000
# 6 0.000000 0.000000 0.000000 0.000000 0.000000 0.034590
#
#
# Mechanical properties :
#
#
# Convention : Reuss Voigt Hill
#
# Bulk Modulus (GPa) = 60.15812 63.93516 62.04664
# Shear Modulus (GPa) = 30.24413 32.97650 31.61031
#
# Velocity S-wave (km/s) = 3.62841 3.78877 3.70946
# Velocity P-wave (km/s) = 6.61369 6.85354 6.73468
#
# Compressibility (1/GPa) = 0.01662286
#
# Stress axis : x y z
#
# Youngs Moduli (GPa) = 108.67405 116.34399 86.88239
#
# Poissons Ratio (x) = 0.36533 0.16298
# Poissons Ratio (y) = 0.34124 0.11521
# Poissons Ratio (z) = 0.20386 0.15427
#
# Static dielectric constant tensor:
#      x y z
#    x 4.513890 0.000000 0.000000 
#    y 0.000000 4.354630 0.000000 
#    z 0.000000 0.000000 3.841720 
# 
# 
# High freq. dielectric constant tensor:
#      x y z
#    x 1.924110 0.000000 0.000000 
#    y 0.000000 1.909490 0.000000 
#    z 0.000000 0.000000 1.896940 
# 
# From -- ./inp_files/611.got.cif
#   From: 2010.03.12/outbox.cif.g09.slc.cpg/sg62_1_cif.got.tgz:611.got - 2010.04.10 19:12:36.
