data_PCOD8255240
_publ_section_title
;
Structure prediction by ZEFSAII (Michael W. Deem and Ramdas Pophale) SiO2 
 PCOD8255240
Probable space group: P N M A
;
_chemical_formula_sum "Si O2"
_cell_formula_units_Z 40
_cell_length_a 22.611074
_cell_length_b 15.910946
_cell_length_c 5.011716
_cell_angle_alpha 90.000000
_cell_angle_beta 90.000000
_cell_angle_gamma 90.000000
_cell_volume 1803.032877
_symmetry_space_group_name_H-M "P N M A"
_symmetry_group_IT_number 62
_symmetry_cell_setting 'orthorhombic'
loop_
_space_group_symop_operation_xyz
x,y,z
1/2-x,-y,1/2+z
1/2+x,1/2-y,1/2-z
-x,1/2+y,-z
-x,-y,-z
1/2+x,y,1/2-z
1/2-x,1/2+y,1/2+z
x,1/2-y,z
loop_
_atom_site_type_symbol
_atom_site_label
_atom_site_fract_x
_atom_site_fract_y
_atom_site_fract_z
Si Si1 0.625399 0.933748 0.014633
Si Si2 0.902678 0.750000 0.589720
Si Si3 0.689055 0.395572 0.023902
Si Si4 0.953826 0.076031 0.013884
Si Si5 0.980647 0.750000 0.090594
Si Si6 0.257911 0.345414 0.986078
O O1 0.572028 0.919869 0.810766
O O2 0.671397 0.856760 0.000699
O O3 0.662963 0.015543 0.940073
O O4 0.598828 0.942616 0.309169
O O5 0.865542 0.667192 0.536909
O O6 0.958865 0.750000 0.394730
O O7 0.924554 0.750000 0.894221
O O8 0.737076 0.365996 0.810618
O O9 0.722592 0.403672 0.305903
O O10 0.981697 0.166180 0.952255
O O11 0.000000 0.000000 0.000000
O O12 0.242630 0.250000 0.062926
#
# Coordination Sequence:
#
# PCOD8255240 Si02
#       6
#     8   4   8   8   4   8
#     4  12  26  43  72  94 140 176 220 274 342 393
#     4  12  22  42  67  96 127 178 222 278 332 384
#     4  12  23  44  67 101 133 176 220 272 331 405
#     4  12  26  47  67 101 132 180 232 280 330 394
#     4  12  26  42  69  94 135 172 232 284 336 388
#     4  12  24  42  66 103 138 172 220 270 331 410
#
# _framework density 22.184843999999998
#
# number of rings (size 3 to 8) (size 9 to 14) (size 15 to 20)
#    0.000    0.000    2.000    9.000    2.800    0.000 
#    0.000    0.000    0.000    0.000    0.000    0.000 
#    0.000    0.000    0.000    0.000    0.000    0.000 
#
# Total GULP energy -496393.329269 kJ/mol
# GULP energy per Si atom -12409.833232 kJ/mol
# Density = 2.213435 g / cm^3
# Si number density = 22.184844 Si / 1000 Ang^3
#
#
#
# Elastic Constant Matrix: (Units=GPa)
#
#
# Indices 1 2 3 4 5 6 
#
# 1 104.4819 41.8797 24.5778 0.0000 0.0000 0.0000
# 2 41.8797 109.4584 10.2939 0.0000 0.0000 0.0000
# 3 24.5778 10.2939 91.2247 0.0000 0.0000 0.0000
# 4 0.0000 0.0000 0.0000 29.3107 0.0000 0.0000
# 5 0.0000 0.0000 0.0000 0.0000 53.2069 0.0000
# 6 0.0000 0.0000 0.0000 0.0000 0.0000 41.1772
#
#
#
# Elastic Compliance Matrix: (Units=1/GPa)
#
#
# Indices 1 2 3 4 5 6 
#
# 1 0.011942 -0.004312 -0.002731 0.000000 0.000000 0.000000
# 2 -0.004312 0.010791 -0.000056 0.000000 0.000000 0.000000
# 3 -0.002731 -0.000056 0.011704 0.000000 0.000000 0.000000
# 4 0.000000 0.000000 0.000000 0.034117 0.000000 0.000000
# 5 0.000000 0.000000 0.000000 0.000000 0.018795 0.000000
# 6 0.000000 0.000000 0.000000 0.000000 0.000000 0.024285
#
#
# Mechanical properties :
#
#
# Convention : Reuss Voigt Hill
#
# Bulk Modulus (GPa) = 49.40930 50.96309 50.18620
# Shear Modulus (GPa) = 37.71360 39.96654 38.84007
#
# Velocity S-wave (km/s) = 4.12754 4.24904 4.18873
# Velocity P-wave (km/s) = 6.71085 6.86253 6.78711
#
# Compressibility (1/GPa) = 0.02023910
#
# Stress axis : x y z
#
# Youngs Moduli (GPa) = 83.73877 92.66937 85.44108
#
# Poissons Ratio (x) = 0.39961 0.23332
# Poissons Ratio (y) = 0.36110 0.00477
# Poissons Ratio (z) = 0.22867 0.00518
#
# Static dielectric constant tensor:
#      x y z
#    x 3.941890 0.000000 0.000000 
#    y 0.000000 4.105100 0.000000 
#    z 0.000000 0.000000 4.141450 
# 
# 
# High freq. dielectric constant tensor:
#      x y z
#    x 1.886310 0.000000 0.000000 
#    y 0.000000 1.884550 0.000000 
#    z 0.000000 0.000000 1.888230 
# 
# From -- ./inp_files/1579.got.cif
#   From: 2010.03.12/outbox.cif.g09.slc.cpg/sg62_1_cif.got.tgz:1579.got - 2010.04.10 19:12:36.
