data_PCOD8255287
_publ_section_title
;
Structure prediction by ZEFSAII (Michael W. Deem and Ramdas Pophale) SiO2 
 PCOD8255287
Probable space group: P N M A
;
_chemical_formula_sum "Si O2"
_cell_formula_units_Z 56
_cell_length_a 18.620896
_cell_length_b 9.331283
_cell_length_c 18.857720
_cell_angle_alpha 90.000000
_cell_angle_beta 90.000000
_cell_angle_gamma 90.000000
_cell_volume 3276.658031
_symmetry_space_group_name_H-M "P N M A"
_symmetry_group_IT_number 62
_symmetry_cell_setting 'orthorhombic'
loop_
_space_group_symop_operation_xyz
x,y,z
1/2-x,-y,1/2+z
1/2+x,1/2-y,1/2-z
-x,1/2+y,-z
-x,-y,-z
1/2+x,y,1/2-z
1/2-x,1/2+y,1/2+z
x,1/2-y,z
loop_
_atom_site_type_symbol
_atom_site_label
_atom_site_fract_x
_atom_site_fract_y
_atom_site_fract_z
Si Si1 0.190738 0.581033 0.384408
Si Si2 0.166852 0.080148 0.957204
Si Si3 0.648263 0.084440 0.243248
Si Si4 0.392846 0.917095 0.605408
Si Si5 0.466392 0.412529 0.936802
Si Si6 0.510429 0.911658 0.215634
Si Si7 0.962734 0.585060 0.136765
O O1 0.195103 0.750000 0.372532
O O2 0.254761 0.523058 0.434367
O O3 0.200810 0.507616 0.306986
O O4 0.114768 0.535675 0.419208
O O5 0.167647 0.250000 0.954284
O O6 0.106836 0.020694 0.902510
O O7 0.149449 0.026310 0.036369
O O8 0.657041 0.250000 0.223043
O O9 0.660560 0.057860 0.327454
O O10 0.567388 0.035272 0.229170
O O11 0.412982 0.750000 0.598803
O O12 0.466858 0.002242 0.611597
O O13 0.464496 0.250000 0.962961
O O14 0.516329 0.430502 0.865800
O O15 0.500000 0.500000 0.000000
O O16 0.544718 0.750000 0.221183
O O17 0.450525 0.928793 0.277393
O O18 0.973962 0.750000 0.114999
#
# Coordination Sequence:
#
# PCOD8255287 Si02
#       7
#     8   8   8   8   8   8   8
#     4   9  18  33  49  64  87 122 158 187 223 273
#     4   9  17  30  48  68  92 123 154 183 221 271
#     4   9  16  27  45  66  87 113 146 184 222 261
#     4   9  17  29  46  69  95 121 149 183 224 268
#     4   9  17  29  46  65  85 112 147 189 230 266
#     4   8  15  28  45  66  89 112 142 179 220 266
#     4   9  16  28  48  70  91 119 154 187 217 259
#
# _framework density 17.090582999999999
#
# number of rings (size 3 to 8) (size 9 to 14) (size 15 to 20)
#    0.000    3.143    0.000    1.714    0.000    2.857 
#    0.000    2.857    0.000    0.000    0.000    0.000 
#    0.000    0.000    0.000    0.000    0.000    0.000 
#
# Total GULP energy -693744.937263 kJ/mol
# GULP energy per Si atom -12388.302451 kJ/mol
# Density = 1.705168 g / cm^3
# Si number density = 17.090583 Si / 1000 Ang^3
#
#
#
# Elastic Constant Matrix: (Units=GPa)
#
#
# Indices 1 2 3 4 5 6 
#
# 1 77.7810 28.6995 71.4352 0.0000 0.0000 0.0000
# 2 28.6995 43.1376 45.0225 0.0000 0.0000 0.0000
# 3 71.4352 45.0225 170.0218 0.0000 0.0000 0.0000
# 4 0.0000 0.0000 0.0000 25.4286 0.0000 0.0000
# 5 0.0000 0.0000 0.0000 0.0000 24.5753 0.0000
# 6 0.0000 0.0000 0.0000 0.0000 0.0000 15.9797
#
#
#
# Elastic Compliance Matrix: (Units=1/GPa)
#
#
# Indices 1 2 3 4 5 6 
#
# 1 0.022371 -0.007011 -0.007543 0.000000 0.000000 0.000000
# 2 -0.007011 0.034233 -0.006119 0.000000 0.000000 0.000000
# 3 -0.007543 -0.006119 0.010671 0.000000 0.000000 0.000000
# 4 0.000000 0.000000 0.000000 0.039326 0.000000 0.000000
# 5 0.000000 0.000000 0.000000 0.000000 0.040691 0.000000
# 6 0.000000 0.000000 0.000000 0.000000 0.000000 0.062579
#
#
# Mechanical properties :
#
#
# Convention : Reuss Voigt Hill
#
# Bulk Modulus (GPa) = 38.56740 64.58389 51.57564
# Shear Modulus (GPa) = 19.24115 22.91561 21.07838
#
# Velocity S-wave (km/s) = 3.35898 3.66571 3.51569
# Velocity P-wave (km/s) = 6.13671 7.46912 6.83546
#
# Compressibility (1/GPa) = 0.02592863
#
# Stress axis : x y z
#
# Youngs Moduli (GPa) = 44.70119 29.21180 93.71181
#
# Poissons Ratio (x) = 0.20481 0.70683
# Poissons Ratio (y) = 0.31341 0.57344
# Poissons Ratio (z) = 0.33716 0.17875
#
# Static dielectric constant tensor:
#      x y z
#    x 3.026150 0.000000 0.000000 
#    y 0.000000 3.072250 0.000000 
#    z 0.000000 0.000000 3.662570 
# 
# 
# High freq. dielectric constant tensor:
#      x y z
#    x 1.616020 0.000000 0.000000 
#    y 0.000000 1.645690 0.000000 
#    z 0.000000 0.000000 1.677880 
# 
# From -- ./inp_files/24622.got.cif
#   From: 2010.03.12/outbox.cif.g09.slc.cpg/sg62_13_cif.got.tgz:24622.got - 2010.04.10 19:12:36.
