data_PCOD8255041
_publ_section_title
;
Structure prediction by ZEFSAII (Michael W. Deem and Ramdas Pophale) SiO2 
 PCOD8255041
Probable space group: P N M A
;
_chemical_formula_sum "Si O2"
_cell_formula_units_Z 48
_cell_length_a 7.956297
_cell_length_b 15.191054
_cell_length_c 18.568553
_cell_angle_alpha 90.000000
_cell_angle_beta 90.000000
_cell_angle_gamma 90.000000
_cell_volume 2244.279568
_symmetry_space_group_name_H-M "P N M A"
_symmetry_group_IT_number 62
_symmetry_cell_setting 'orthorhombic'
loop_
_space_group_symop_operation_xyz
x,y,z
1/2-x,-y,1/2+z
1/2+x,1/2-y,1/2-z
-x,1/2+y,-z
-x,-y,-z
1/2+x,y,1/2-z
1/2-x,1/2+y,1/2+z
x,1/2-y,z
loop_
_atom_site_type_symbol
_atom_site_label
_atom_site_fract_x
_atom_site_fract_y
_atom_site_fract_z
Si Si1 0.908804 0.497805 0.833882
Si Si2 0.437585 0.437439 0.189288
Si Si3 0.860991 0.009264 0.560536
Si Si4 0.615891 0.149982 0.596777
Si Si5 0.943623 0.102980 0.046796
Si Si6 0.222155 0.750000 0.697595
Si Si7 0.607255 0.750000 0.648701
O O1 0.710697 0.489113 0.817488
O O2 0.991345 0.556105 0.770119
O O3 0.005834 0.404640 0.844138
O O4 0.914149 0.551928 0.908265
O O5 0.583219 0.460098 0.132972
O O6 0.373812 0.338434 0.172494
O O7 0.802136 0.107886 0.584108
O O8 0.694678 0.968551 0.523983
O O9 0.000000 0.000000 0.500000
O O10 0.637930 0.250000 0.624761
O O11 0.518278 0.153267 0.521111
O O12 0.846263 0.167602 0.099965
O O13 0.409529 0.750000 0.667724
O O14 0.232436 0.750000 0.784046
#
# Coordination Sequence:
#
# PCOD8255041 Si02
#       7
#     8   8   8   8   8   4   4
#     4  11  22  41  65  93 128 166 211 260 327 376
#     4  12  23  41  66  97 130 170 209 263 323 398
#     4  11  25  43  65  93 131 170 212 266 331 385
#     4  11  24  44  67  90 124 173 224 270 316 378
#     4  11  21  40  64  90 130 166 210 257 321 380
#     4  12  24  38  64  98 138 165 211 252 330 394
#     4  12  24  36  62 102 132 169 207 260 310 400
#
# _framework density 21.387709999999998
#
# number of rings (size 3 to 8) (size 9 to 14) (size 15 to 20)
#    0.000    0.667    4.167    6.000    2.333    0.000 
#    1.500    4.167    0.000    0.000    0.000    0.000 
#    0.000    0.000    0.000    0.000    0.000    0.000 
#
# Total GULP energy -595021.104767 kJ/mol
# GULP energy per Si atom -12396.273016 kJ/mol
# Density = 2.133903 g / cm^3
# Si number density = 21.387710 Si / 1000 Ang^3
#
#
#
# Elastic Constant Matrix: (Units=GPa)
#
#
# Indices 1 2 3 4 5 6 
#
# 1 66.9833 8.3757 23.4857 0.0000 0.0000 0.0000
# 2 8.3757 125.6682 20.0900 0.0000 0.0000 0.0000
# 3 23.4857 20.0900 81.2126 0.0000 0.0000 0.0000
# 4 0.0000 0.0000 0.0000 30.8712 0.0000 0.0000
# 5 0.0000 0.0000 0.0000 0.0000 36.7439 0.0000
# 6 0.0000 0.0000 0.0000 0.0000 0.0000 19.0969
#
#
#
# Elastic Compliance Matrix: (Units=1/GPa)
#
#
# Indices 1 2 3 4 5 6 
#
# 1 0.016629 -0.000354 -0.004721 0.000000 0.000000 0.000000
# 2 -0.000354 0.008293 -0.001949 0.000000 0.000000 0.000000
# 3 -0.004721 -0.001949 0.014161 0.000000 0.000000 0.000000
# 4 0.000000 0.000000 0.000000 0.032393 0.000000 0.000000
# 5 0.000000 0.000000 0.000000 0.000000 0.027215 0.000000
# 6 0.000000 0.000000 0.000000 0.000000 0.000000 0.052365
#
#
# Mechanical properties :
#
#
# Convention : Reuss Voigt Hill
#
# Bulk Modulus (GPa) = 39.94544 41.97411 40.95977
# Shear Modulus (GPa) = 28.82715 32.13658 30.48186
#
# Velocity S-wave (km/s) = 3.67527 3.88051 3.77928
# Velocity P-wave (km/s) = 6.06032 6.30442 6.18358
#
# Compressibility (1/GPa) = 0.02503415
#
# Stress axis : x y z
#
# Youngs Moduli (GPa) = 60.13697 120.58908 70.61700
#
# Poissons Ratio (x) = 0.04263 0.33341
# Poissons Ratio (y) = 0.02126 0.13764
# Poissons Ratio (z) = 0.28393 0.23505
#
# Static dielectric constant tensor:
#      x y z
#    x 3.980310 0.000000 0.000000 
#    y 0.000000 3.979150 0.000000 
#    z 0.000000 0.000000 3.950660 
# 
# 
# High freq. dielectric constant tensor:
#      x y z
#    x 1.838130 0.000000 0.000000 
#    y 0.000000 1.830800 0.000000 
#    z 0.000000 0.000000 1.841670 
# 
# From -- ./inp_files/22241.got.cif
#   From: 2010.03.12/outbox.cif.g09.slc.cpg/sg62_12_cif.got.tgz:22241.got - 2010.04.10 19:12:36.
