data_PCOD8255108
_publ_section_title
;
Structure prediction by ZEFSAII (Michael W. Deem and Ramdas Pophale) SiO2 
 PCOD8255108
Probable space group: P N M A
;
_chemical_formula_sum "Si O2"
_cell_formula_units_Z 48
_cell_length_a 8.728807
_cell_length_b 27.656676
_cell_length_c 9.364804
_cell_angle_alpha 90.000000
_cell_angle_beta 90.000000
_cell_angle_gamma 90.000000
_cell_volume 2260.755340
_symmetry_space_group_name_H-M "P N M A"
_symmetry_group_IT_number 62
_symmetry_cell_setting 'orthorhombic'
loop_
_space_group_symop_operation_xyz
x,y,z
1/2-x,-y,1/2+z
1/2+x,1/2-y,1/2-z
-x,1/2+y,-z
-x,-y,-z
1/2+x,y,1/2-z
1/2-x,1/2+y,1/2+z
x,1/2-y,z
loop_
_atom_site_type_symbol
_atom_site_label
_atom_site_fract_x
_atom_site_fract_y
_atom_site_fract_z
Si Si1 0.427688 0.995585 0.654020
Si Si2 0.523350 0.386476 0.346845
Si Si3 0.518744 0.193384 0.851539
Si Si4 0.300032 0.858924 0.373388
Si Si5 0.645240 0.055988 0.833347
Si Si6 0.174169 0.131338 0.433290
O O1 0.453904 0.941431 0.705982
O O2 0.500000 0.000000 0.500000
O O3 0.491148 0.035020 0.765718
O O4 0.249995 0.008983 0.641364
O O5 0.640421 0.374971 0.472931
O O6 0.572869 0.357033 0.206450
O O7 0.351940 0.374331 0.393643
O O8 0.490779 0.250000 0.856956
O O9 0.362788 0.166483 0.892562
O O10 0.576156 0.177994 0.694475
O O11 0.650713 0.177685 0.964061
O O12 0.277319 0.905661 0.274071
O O13 0.615511 0.083036 0.983826
#
# Coordination Sequence:
#
# PCOD8255108 Si02
#       6
#     8   8   8   8   8   8
#     4  12  23  39  61  94 131 168 229 253 298 369
#     4  12  24  42  63  97 133 174 212 266 317 373
#     4  11  24  44  70  98 122 163 213 264 325 400
#     4  11  22  42  69  94 132 161 211 264 324 377
#     4  11  22  41  61  92 127 177 210 262 303 369
#     4  11  24  42  64  92 132 170 212 264 332 374
#
# _framework density 21.231842
#
# number of rings (size 3 to 8) (size 9 to 14) (size 15 to 20)
#    0.000    0.667    3.333    6.500    0.000    0.667 
#    0.000    5.000    0.000    0.000    0.000    0.000 
#    0.000    0.000    0.000    0.000    0.000    0.000 
#
# Total GULP energy -595264.306518 kJ/mol
# GULP energy per Si atom -12401.339719 kJ/mol
# Density = 2.118352 g / cm^3
# Si number density = 21.231842 Si / 1000 Ang^3
#
#
#
# Elastic Constant Matrix: (Units=GPa)
#
#
# Indices 1 2 3 4 5 6 
#
# 1 90.9749 36.3055 43.5678 0.0000 0.0000 0.0000
# 2 36.3055 103.2105 19.6440 0.0000 0.0000 0.0000
# 3 43.5678 19.6440 117.4313 0.0000 0.0000 0.0000
# 4 0.0000 0.0000 0.0000 18.2396 0.0000 0.0000
# 5 0.0000 0.0000 0.0000 0.0000 35.2692 0.0000
# 6 0.0000 0.0000 0.0000 0.0000 0.0000 30.4284
#
#
#
# Elastic Compliance Matrix: (Units=1/GPa)
#
#
# Indices 1 2 3 4 5 6 
#
# 1 0.015064 -0.004374 -0.004857 0.000000 0.000000 0.000000
# 2 -0.004374 0.011278 -0.000264 0.000000 0.000000 0.000000
# 3 -0.004857 -0.000264 0.010362 0.000000 0.000000 0.000000
# 4 0.000000 0.000000 0.000000 0.054826 0.000000 0.000000
# 5 0.000000 0.000000 0.000000 0.000000 0.028353 0.000000
# 6 0.000000 0.000000 0.000000 0.000000 0.000000 0.032864
#
#
# Mechanical properties :
#
#
# Convention : Reuss Voigt Hill
#
# Bulk Modulus (GPa) = 56.45499 56.73901 56.59700
# Shear Modulus (GPa) = 28.14664 30.92738 29.53701
#
# Velocity S-wave (km/s) = 3.64494 3.82075 3.73388
# Velocity P-wave (km/s) = 6.66045 6.80042 6.73080
#
# Compressibility (1/GPa) = 0.01771323
#
# Stress axis : x y z
#
# Youngs Moduli (GPa) = 66.38446 88.66929 96.50928
#
# Poissons Ratio (x) = 0.38788 0.46875
# Poissons Ratio (y) = 0.29039 0.02544
# Poissons Ratio (z) = 0.32243 0.02338
#
# Static dielectric constant tensor:
#      x y z
#    x 3.827770 0.000000 0.000000 
#    y 0.000000 3.774120 0.000000 
#    z 0.000000 0.000000 3.968090 
# 
# 
# High freq. dielectric constant tensor:
#      x y z
#    x 1.840390 0.000000 0.000000 
#    y 0.000000 1.813870 0.000000 
#    z 0.000000 0.000000 1.843100 
# 
# From -- ./inp_files/4502.got.cif
#   From: 2010.03.12/outbox.cif.g09.slc.cpg/sg62_3_cif.got.tgz:4502.got - 2010.04.10 19:12:36.
