data_PCOD8255313
_publ_section_title
;
Structure prediction by ZEFSAII (Michael W. Deem and Ramdas Pophale) SiO2 
 PCOD8255313
Probable space group: P N M A
;
_chemical_formula_sum "Si O2"
_cell_formula_units_Z 56
_cell_length_a 15.000000
_cell_length_b 9.000000
_cell_length_c 21.000000
_cell_angle_alpha 90.000000
_cell_angle_beta 90.000000
_cell_angle_gamma 90.000000
_cell_volume 2835.000000
_symmetry_space_group_name_H-M "P N M A"
_symmetry_group_IT_number 62
_symmetry_cell_setting 'orthorhombic'
loop_
_space_group_symop_operation_xyz
x,y,z
1/2-x,-y,1/2+z
1/2+x,1/2-y,1/2-z
-x,1/2+y,-z
-x,-y,-z
1/2+x,y,1/2-z
1/2-x,1/2+y,1/2+z
x,1/2-y,z
loop_
_atom_site_type_symbol
_atom_site_label
_atom_site_fract_x
_atom_site_fract_y
_atom_site_fract_z
Si Si1 0.601704 0.424309 0.648072
Si Si2 0.716343 0.073327 0.883459
Si Si3 0.095951 0.075320 0.499852
Si Si4 0.407675 0.424107 0.642027
Si Si5 0.792309 0.419608 0.604178
Si Si6 0.401734 0.426159 0.217015
Si Si7 0.921593 0.421337 0.715426
O O1 0.602929 0.250000 0.666923
O O2 0.506296 0.465502 0.613408
O O3 0.686818 0.460619 0.603566
O O4 0.608491 0.522897 0.710584
O O5 0.711273 0.250000 0.874590
O O6 0.819675 0.018222 0.895836
O O7 0.681766 0.994163 0.820209
O O8 0.654221 0.019109 0.940817
O O9 0.080532 0.250000 0.501165
O O10 0.153434 0.032405 0.438882
O O11 0.000000 0.000000 0.500000
O O12 0.398117 0.250000 0.643904
O O13 0.401568 0.483922 0.714301
O O14 0.806496 0.250000 0.580839
O O15 0.831835 0.441303 0.674809
O O16 0.399996 0.250000 0.212092
O O17 0.494699 0.486766 0.186859
O O18 0.952057 0.250000 0.716854
#
# Coordination Sequence:
#
# PCOD8255313 Si02
#       7
#     8   8   8   8   8   8   8
#     4   9  18  35  57  79 104 137 173 210 254 314
#     4  10  20  36  55  74 100 140 182 216 256 311
#     4  11  24  39  56  77 105 139 177 221 265 311
#     4   8  15  31  56  79  99 128 173 216 248 298
#     4  10  20  35  57  80 104 138 179 217 259 311
#     4  11  21  31  49  80 112 139 168 213 265 309
#     4   9  17  31  52  77 103 135 170 207 253 310
#
# _framework density 19.753086
#
# number of rings (size 3 to 8) (size 9 to 14) (size 15 to 20)
#    0.000    2.286    0.000    4.286    0.000    8.000 
#    0.000    6.429    0.000    0.000    0.000    0.000 
#    0.000    0.000    0.000    0.000    0.000    0.000 
#
# Total GULP energy -693989.523058 kJ/mol
# GULP energy per Si atom -12392.670055 kJ/mol
# Density = 1.970813 g / cm^3
# Si number density = 19.753086 Si / 1000 Ang^3
#
#
#
# Elastic Constant Matrix: (Units=GPa)
#
#
# Indices 1 2 3 4 5 6 
#
# 1 205.2384 33.5978 49.4411 0.0000 0.0000 0.0000
# 2 33.5978 50.4169 16.2088 0.0000 0.0000 0.0000
# 3 49.4411 16.2088 47.5204 0.0000 0.0000 0.0000
# 4 0.0000 0.0000 0.0000 20.5175 0.0000 0.0000
# 5 0.0000 0.0000 0.0000 0.0000 31.3001 0.0000
# 6 0.0000 0.0000 0.0000 0.0000 0.0000 20.1274
#
#
#
# Elastic Compliance Matrix: (Units=1/GPa)
#
#
# Indices 1 2 3 4 5 6 
#
# 1 0.006777 -0.002526 -0.006189 0.000000 0.000000 0.000000
# 2 -0.002526 0.023219 -0.005291 0.000000 0.000000 0.000000
# 3 -0.006189 -0.005291 0.029288 0.000000 0.000000 0.000000
# 4 0.000000 0.000000 0.000000 0.048739 0.000000 0.000000
# 5 0.000000 0.000000 0.000000 0.000000 0.031949 0.000000
# 6 0.000000 0.000000 0.000000 0.000000 0.000000 0.049683
#
#
# Mechanical properties :
#
#
# Convention : Reuss Voigt Hill
#
# Bulk Modulus (GPa) = 31.97937 55.74123 43.86030
# Shear Modulus (GPa) = 21.92097 27.98421 24.95259
#
# Velocity S-wave (km/s) = 3.33490 3.76799 3.55804
# Velocity P-wave (km/s) = 5.57256 6.87100 6.25556
#
# Compressibility (1/GPa) = 0.03127016
#
# Stress axis : x y z
#
# Youngs Moduli (GPa) = 147.56086 43.06747 34.14405
#
# Poissons Ratio (x) = 0.10880 0.21132
# Poissons Ratio (y) = 0.37279 0.18067
# Poissons Ratio (z) = 0.91326 0.22789
#
# Static dielectric constant tensor:
#      x y z
#    x 4.344680 0.000000 0.000000 
#    y 0.000000 3.345560 0.000000 
#    z 0.000000 0.000000 3.326720 
# 
# 
# High freq. dielectric constant tensor:
#      x y z
#    x 1.802960 0.000000 0.000000 
#    y 0.000000 1.744790 0.000000 
#    z 0.000000 0.000000 1.732550 
# 
# From -- ./inp_files/27058.got.cif
#   From: 2010.03.12/outbox.ucp.g09.slc.cvg/sg62_14_cif.got.tgz:27058.got - 2010.05.04 19:35:18.
