data_PCOD8255595
_publ_section_title
;
Structure prediction by ZEFSAII (Michael W. Deem and Ramdas Pophale) SiO2 
 PCOD8255595
Probable space group: C M C M
;
_chemical_formula_sum "Si O2"
_cell_formula_units_Z 64
_cell_length_a 15.385080
_cell_length_b 10.433517
_cell_length_c 22.108429
_cell_angle_alpha 90.000000
_cell_angle_beta 90.000000
_cell_angle_gamma 90.000000
_cell_volume 3548.855939
_symmetry_space_group_name_H-M "C M C M"
_symmetry_group_IT_number 63
_symmetry_cell_setting 'orthorhombic'
loop_
_space_group_symop_operation_xyz
x,y,z
-x,-y,1/2+z
x,-y,-z
-x,y,1/2-z
-x,-y,-z
x,y,1/2-z
-x,y,z
x,-y,1/2+z
1/2+x,1/2+y,z
1/2-x,1/2-y,1/2+z
1/2+x,1/2-y,-z
1/2-x,1/2+y,1/2-z
1/2-x,1/2-y,-z
1/2+x,1/2+y,1/2-z
1/2-x,1/2+y,z
1/2+x,1/2-y,1/2+z
loop_
_atom_site_type_symbol
_atom_site_label
_atom_site_fract_x
_atom_site_fract_y
_atom_site_fract_z
Si Si1 0.099325 0.628873 0.031584
Si Si2 0.179190 0.355347 0.317550
Si Si3 0.903599 0.793913 0.916336
Si Si4 0.763888 0.621716 0.133702
O O1 0.157933 0.657464 0.089240
O O2 0.000000 0.612797 0.053239
O O3 0.133309 0.500000 0.000000
O O4 0.108657 0.744564 0.984345
O O5 0.139284 0.351811 0.250000
O O6 0.105744 0.325012 0.368287
O O7 0.219829 0.494709 0.328162
O O8 0.253922 0.245386 0.322506
O O9 0.827793 0.897605 0.903078
O O10 0.000000 0.854172 0.908438
#
# Coordination Sequence:
#
# PCOD8255595 Si02
#       4
#    16  16  16  16
#     4  10  17  32  56  85 113 140 182 232 280 330
#     4  10  21  35  55  79 110 149 190 226 267 327
#     4   9  20  34  55  83 110 144 183 221 275 342
#     4  10  20  35  58  81 114 145 183 229 283 320
#
# _framework density 18.033981000000001
#
# number of rings (size 3 to 8) (size 9 to 14) (size 15 to 20)
#    1.500    0.750    2.500    1.500    0.000    0.500 
#    0.000    1.250    0.000    7.500    0.000    0.000 
#    0.000    0.000    0.000    0.000    0.000    0.000 
#
# Total GULP energy -396468.322716 kJ/mol
# GULP energy per Si atom -12389.635085 kJ/mol
# Density = 1.799293 g / cm^3
# Si number density = 18.033981 Si / 1000 Ang^3
#
#
#
# Elastic Constant Matrix: (Units=GPa)
#
#
# Indices 1 2 3 4 5 6 
#
# 1 76.7661 5.0591 23.6174 0.0000 0.0000 0.0000
# 2 5.0591 47.1872 19.2584 0.0000 0.0000 0.0000
# 3 23.6174 19.2584 72.1974 0.0000 0.0000 0.0000
# 4 0.0000 0.0000 0.0000 25.6509 0.0000 0.0000
# 5 0.0000 0.0000 0.0000 0.0000 11.0345 0.0000
# 6 0.0000 0.0000 0.0000 0.0000 0.0000 18.4147
#
#
#
# Elastic Compliance Matrix: (Units=1/GPa)
#
#
# Indices 1 2 3 4 5 6 
#
# 1 0.014492 0.000428 -0.004855 0.000000 0.000000 0.000000
# 2 0.000428 0.023794 -0.006487 0.000000 0.000000 0.000000
# 3 -0.004855 -0.006487 0.017169 0.000000 0.000000 0.000000
# 4 0.000000 0.000000 0.000000 0.038985 0.000000 0.000000
# 5 0.000000 0.000000 0.000000 0.000000 0.090624 0.000000
# 6 0.000000 0.000000 0.000000 0.000000 0.000000 0.054304
#
#
# Mechanical properties :
#
#
# Convention : Reuss Voigt Hill
#
# Bulk Modulus (GPa) = 29.73774 32.44670 31.09222
# Shear Modulus (GPa) = 18.35497 20.90108 19.62803
#
# Velocity S-wave (km/s) = 3.19376 3.40808 3.30266
# Velocity P-wave (km/s) = 5.48869 5.78945 5.64107
#
# Compressibility (1/GPa) = 0.03362730
#
# Stress axis : x y z
#
# Youngs Moduli (GPa) = 69.00370 42.02781 58.24339
#
# Poissons Ratio (x) = -0.01797 0.28275
# Poissons Ratio (y) = -0.02951 0.37781
# Poissons Ratio (z) = 0.33499 0.27263
#
# Static dielectric constant tensor:
#      x y z
#    x 3.197690 0.000000 0.000000 
#    y 0.000000 3.052570 0.000000 
#    z 0.000000 0.000000 3.197070 
# 
# 
# High freq. dielectric constant tensor:
#      x y z
#    x 1.687780 0.000000 0.000000 
#    y 0.000000 1.675850 0.000000 
#    z 0.000000 0.000000 1.695390 
# 
# From -- ./inp_files/45142.got.cif
#   From: 2010.03.12/outbox.cif.g09.slc.cpg/sg63_23_cif.got.tgz:45142.got - 2010.04.10 19:34:48.
