data_PCOD8255974
_publ_section_title
;
Structure prediction by ZEFSAII (Michael W. Deem and Ramdas Pophale) SiO2 
 PCOD8255974
Probable space group: C M C M
;
_chemical_formula_sum "Si O2"
_cell_formula_units_Z 56
_cell_length_a 23.912132
_cell_length_b 13.389174
_cell_length_c 8.853721
_cell_angle_alpha 90.000000
_cell_angle_beta 90.000000
_cell_angle_gamma 90.000000
_cell_volume 2834.640039
_symmetry_space_group_name_H-M "C M C M"
_symmetry_group_IT_number 63
_symmetry_cell_setting 'orthorhombic'
loop_
_space_group_symop_operation_xyz
x,y,z
-x,-y,1/2+z
x,-y,-z
-x,y,1/2-z
-x,-y,-z
x,y,1/2-z
-x,y,z
x,-y,1/2+z
1/2+x,1/2+y,z
1/2-x,1/2-y,1/2+z
1/2+x,1/2-y,-z
1/2-x,1/2+y,1/2-z
1/2-x,1/2-y,-z
1/2+x,1/2+y,1/2-z
1/2-x,1/2+y,z
1/2+x,1/2-y,1/2+z
loop_
_atom_site_type_symbol
_atom_site_label
_atom_site_fract_x
_atom_site_fract_y
_atom_site_fract_z
Si Si1 0.829462 0.190566 0.573025
Si Si2 0.500000 0.892537 0.570790
Si Si3 0.938863 0.227907 0.076715
Si Si4 0.224122 0.600472 0.427066
O O1 0.828780 0.169899 0.750000
O O2 0.890588 0.164705 0.505666
O O3 0.815193 0.305684 0.532967
O O4 0.785568 0.117105 0.495703
O O5 0.500000 0.898136 0.750000
O O6 0.555192 0.834247 0.510487
O O7 0.500000 0.000000 0.500000
O O8 0.921934 0.247083 0.250000
O O9 0.000000 0.172623 0.066904
O O10 0.198222 0.500000 0.500000
O O11 0.230001 0.585548 0.250000
#
# Coordination Sequence:
#
# PCOD8255974 Si02
#       4
#    16   8  16  16
#     4  10  20  35  56  80 108 144 181 222 270 322
#     4  10  18  30  46  68  99 134 173 214 258 312
#     4   9  19  33  50  74 103 139 175 214 261 315
#     4  10  21  36  55  80 108 140 180 226 272 322
#
# _framework density 19.755595
#
# number of rings (size 3 to 8) (size 9 to 14) (size 15 to 20)
#    0.857    1.429    0.000    3.429    0.000    4.571 
#    0.000    2.857    0.000    0.857    0.000    0.000 
#    0.000    0.000    0.000    0.000    0.000    0.000 
#
# Total GULP energy -347050.601731 kJ/mol
# GULP energy per Si atom -12394.664348 kJ/mol
# Density = 1.971063 g / cm^3
# Si number density = 19.755595 Si / 1000 Ang^3
#
#
#
# Elastic Constant Matrix: (Units=GPa)
#
#
# Indices 1 2 3 4 5 6 
#
# 1 81.8480 -9.5631 22.1358 0.0000 0.0000 0.0000
# 2 -9.5631 33.3885 13.1641 0.0000 0.0000 0.0000
# 3 22.1358 13.1641 117.1493 0.0000 0.0000 0.0000
# 4 0.0000 0.0000 0.0000 30.2960 0.0000 0.0000
# 5 0.0000 0.0000 0.0000 0.0000 35.3094 0.0000
# 6 0.0000 0.0000 0.0000 0.0000 0.0000 17.7730
#
#
#
# Elastic Compliance Matrix: (Units=1/GPa)
#
#
# Indices 1 2 3 4 5 6 
#
# 1 0.013677 0.005165 -0.003165 0.000000 0.000000 0.000000
# 2 0.005165 0.033290 -0.004717 0.000000 0.000000 0.000000
# 3 -0.003165 -0.004717 0.009664 0.000000 0.000000 0.000000
# 4 0.000000 0.000000 0.000000 0.033008 0.000000 0.000000
# 5 0.000000 0.000000 0.000000 0.000000 0.028321 0.000000
# 6 0.000000 0.000000 0.000000 0.000000 0.000000 0.056265
#
#
# Mechanical properties :
#
#
# Convention : Reuss Voigt Hill
#
# Bulk Modulus (GPa) = 19.53194 31.53993 25.53593
# Shear Modulus (GPa) = 25.41640 30.45228 27.93434
#
# Velocity S-wave (km/s) = 3.59073 3.93039 3.76439
# Velocity P-wave (km/s) = 5.20571 6.04955 5.64342
#
# Compressibility (1/GPa) = 0.05119819
#
# Stress axis : x y z
#
# Youngs Moduli (GPa) = 73.11446 30.03947 103.47537
#
# Poissons Ratio (x) = -0.15516 0.32748
# Poissons Ratio (y) = -0.37765 0.48807
# Poissons Ratio (z) = 0.23139 0.14169
#
# Static dielectric constant tensor:
#      x y z
#    x 3.587640 0.000000 0.000000 
#    y 0.000000 3.261860 0.000000 
#    z 0.000000 0.000000 3.630940 
# 
# 
# High freq. dielectric constant tensor:
#      x y z
#    x 1.765090 0.000000 0.000000 
#    y 0.000000 1.732110 0.000000 
#    z 0.000000 0.000000 1.788810 
# 
# From -- ./inp_files/9534.got.cif
#   From: 2010.03.12/outbox.cif.g09.slc.cpg/sg63_5_cif.got.tgz:9534.got - 2010.04.10 19:34:48.
