data_PCOD8255690
_publ_section_title
;
Structure prediction by ZEFSAII (Michael W. Deem and Ramdas Pophale) SiO2 
 PCOD8255690
Probable space group: C M C M
;
_chemical_formula_sum "Si O2"
_cell_formula_units_Z 96
_cell_length_a 13.866773
_cell_length_b 23.081682
_cell_length_c 19.767173
_cell_angle_alpha 90.000000
_cell_angle_beta 90.000000
_cell_angle_gamma 90.000000
_cell_volume 6326.848319
_symmetry_space_group_name_H-M "C M C M"
_symmetry_group_IT_number 63
_symmetry_cell_setting 'orthorhombic'
loop_
_space_group_symop_operation_xyz
x,y,z
-x,-y,1/2+z
x,-y,-z
-x,y,1/2-z
-x,-y,-z
x,y,1/2-z
-x,y,z
x,-y,1/2+z
1/2+x,1/2+y,z
1/2-x,1/2-y,1/2+z
1/2+x,1/2-y,-z
1/2-x,1/2+y,1/2-z
1/2-x,1/2-y,-z
1/2+x,1/2+y,1/2-z
1/2-x,1/2+y,z
1/2+x,1/2-y,1/2+z
loop_
_atom_site_type_symbol
_atom_site_label
_atom_site_fract_x
_atom_site_fract_y
_atom_site_fract_z
Si Si1 0.110357 0.427571 0.828175
Si Si2 0.708181 0.174891 0.400688
Si Si3 0.387806 0.028503 0.570885
Si Si4 0.893745 0.211342 0.927172
Si Si5 0.292116 0.852227 0.057704
Si Si6 0.106153 0.761554 0.584258
O O1 0.125943 0.442007 0.750000
O O2 0.178099 0.374442 0.848557
O O3 0.139120 0.484696 0.869348
O O4 0.000000 0.410414 0.844582
O O5 0.641334 0.231102 0.388196
O O6 0.697286 0.151343 0.476798
O O7 0.818524 0.192931 0.383505
O O8 0.500000 0.046018 0.571099
O O9 0.324218 0.085281 0.583487
O O10 0.358801 0.000000 0.500000
O O11 0.818313 0.158623 0.918153
O O12 0.000000 0.192863 0.900618
O O13 0.897386 0.227322 0.005129
O O14 0.358747 0.804354 0.094321
O O15 0.000000 0.769845 0.617082
#
# Coordination Sequence:
#
# PCOD8255690 Si02
#       6
#    16  16  16  16  16  16
#     4  10  20  31  43  62  88 115 143 178 219 261
#     4   9  15  25  42  63  87 114 141 171 215 262
#     4  10  18  27  43  64  85 112 145 180 217 260
#     4   8  14  23  39  64  91 113 134 168 215 259
#     4   9  15  24  41  65  89 113 141 177 215 254
#     4   8  14  23  39  65  92 112 134 169 212 257
#
# _framework density 15.173432
#
# number of rings (size 3 to 8) (size 9 to 14) (size 15 to 20)
#    0.000    3.000    1.667    3.000    0.000    1.333 
#    0.000    0.000    0.000    6.000    0.000    0.000 
#    0.000    0.000    0.000    0.000    0.000    0.000 
#
# Total GULP energy -594963.311602 kJ/mol
# GULP energy per Si atom -12395.068992 kJ/mol
# Density = 1.513890 g / cm^3
# Si number density = 15.173432 Si / 1000 Ang^3
#
#
#
# Elastic Constant Matrix: (Units=GPa)
#
#
# Indices 1 2 3 4 5 6 
#
# 1 126.3536 68.4540 26.6728 0.0000 0.0000 0.0000
# 2 68.4540 122.1364 38.0377 0.0000 0.0000 0.0000
# 3 26.6728 38.0377 51.5308 0.0000 0.0000 0.0000
# 4 0.0000 0.0000 0.0000 17.1086 0.0000 0.0000
# 5 0.0000 0.0000 0.0000 0.0000 11.3434 0.0000
# 6 0.0000 0.0000 0.0000 0.0000 0.0000 26.1929
#
#
#
# Elastic Compliance Matrix: (Units=1/GPa)
#
#
# Indices 1 2 3 4 5 6 
#
# 1 0.011459 -0.005941 -0.001546 0.000000 0.000000 0.000000
# 2 -0.005941 0.013712 -0.007046 0.000000 0.000000 0.000000
# 3 -0.001546 -0.007046 0.025407 0.000000 0.000000 0.000000
# 4 0.000000 0.000000 0.000000 0.058450 0.000000 0.000000
# 5 0.000000 0.000000 0.000000 0.000000 0.088157 0.000000
# 6 0.000000 0.000000 0.000000 0.000000 0.000000 0.038178
#
#
# Mechanical properties :
#
#
# Convention : Reuss Voigt Hill
#
# Bulk Modulus (GPa) = 46.48629 62.92776 54.70703
# Shear Modulus (GPa) = 18.40931 22.05273 20.23102
#
# Velocity S-wave (km/s) = 3.48697 3.81646 3.65543
# Velocity P-wave (km/s) = 6.84946 7.80915 7.34499
#
# Compressibility (1/GPa) = 0.02151172
#
# Stress axis : x y z
#
# Youngs Moduli (GPa) = 87.26481 72.92930 39.35874
#
# Poissons Ratio (x) = 0.43329 0.06085
# Poissons Ratio (y) = 0.51846 0.27733
# Poissons Ratio (z) = 0.13491 0.51388
#
# Static dielectric constant tensor:
#      x y z
#    x 3.351940 0.000000 0.000000 
#    y 0.000000 2.809840 0.000000 
#    z 0.000000 0.000000 2.487340 
# 
# 
# High freq. dielectric constant tensor:
#      x y z
#    x 1.581060 0.000000 0.000000 
#    y 0.000000 1.574350 0.000000 
#    z 0.000000 0.000000 1.533600 
# 
# From -- ./inp_files/54604.got.cif
#   From: 2010.03.12/outbox.cif.g09.slc.cpg/sg63_28_cif.got.tgz:54604.got - 2010.04.10 19:34:48.
