data_PCOD8255361
_publ_section_title
;
Structure prediction by ZEFSAII (Michael W. Deem and Ramdas Pophale) SiO2 
 PCOD8255361
Probable space group: C M C M
;
_chemical_formula_sum "Si O2"
_cell_formula_units_Z 96
_cell_length_a 27.889734
_cell_length_b 10.472739
_cell_length_c 18.133982
_cell_angle_alpha 90.000000
_cell_angle_beta 90.000000
_cell_angle_gamma 90.000000
_cell_volume 5296.608007
_symmetry_space_group_name_H-M "C M C M"
_symmetry_group_IT_number 63
_symmetry_cell_setting 'orthorhombic'
loop_
_space_group_symop_operation_xyz
x,y,z
-x,-y,1/2+z
x,-y,-z
-x,y,1/2-z
-x,-y,-z
x,y,1/2-z
-x,y,z
x,-y,1/2+z
1/2+x,1/2+y,z
1/2-x,1/2-y,1/2+z
1/2+x,1/2-y,-z
1/2-x,1/2+y,1/2-z
1/2-x,1/2-y,-z
1/2+x,1/2+y,1/2-z
1/2-x,1/2+y,z
1/2+x,1/2-y,1/2+z
loop_
_atom_site_type_symbol
_atom_site_label
_atom_site_fract_x
_atom_site_fract_y
_atom_site_fract_z
Si Si1 0.856040 0.264936 0.580102
Si Si2 0.645470 0.248013 0.592313
Si Si3 0.797650 0.504624 0.912099
Si Si4 0.688823 0.507113 0.912070
Si Si5 0.053838 0.578279 0.072060
Si Si6 0.946271 0.662334 0.665383
O O1 0.846155 0.251385 0.494169
O O2 0.822324 0.373974 0.616286
O O3 0.842128 0.129041 0.616681
O O4 0.912006 0.301895 0.590351
O O5 0.673259 0.123647 0.623044
O O6 0.666885 0.379547 0.624447
O O7 0.589687 0.244116 0.615011
O O8 0.743378 0.517762 0.884002
O O9 0.800080 0.500000 0.000000
O O10 0.687376 0.500000 0.000000
O O11 0.054865 0.485661 0.142110
O O12 0.000000 0.629434 0.056372
O O13 0.073008 0.500000 0.000000
O O14 0.930335 0.671709 0.750000
O O15 0.000000 0.717139 0.653503
#
# Coordination Sequence:
#
# PCOD8255361 Si02
#       6
#    16  16  16  16  16  16
#     4  10  16  27  45  73 101 126 157 196 244 285
#     4  10  17  29  46  70  98 129 160 196 238 281
#     4   9  15  26  44  69  99 132 163 194 233 279
#     4   9  18  26  41  71 107 130 154 195 239 284
#     4  10  17  29  50  73  96 121 156 205 252 290
#     4  10  20  33  51  73  94 123 165 205 242 293
#
# _framework density 18.124807000000001
#
# number of rings (size 3 to 8) (size 9 to 14) (size 15 to 20)
#    0.000    2.333    3.333    1.500    0.000    4.000 
#    0.000    0.833    0.000    5.000    0.000    2.333 
#    0.000    0.000    0.000    0.000    0.000    0.000 
#
# Total GULP energy -594950.361030 kJ/mol
# GULP energy per Si atom -12394.799188 kJ/mol
# Density = 1.808355 g / cm^3
# Si number density = 18.124807 Si / 1000 Ang^3
#
#
#
# Elastic Constant Matrix: (Units=GPa)
#
#
# Indices 1 2 3 4 5 6 
#
# 1 141.7769 76.6264 8.1526 0.0000 0.0000 0.0000
# 2 76.6264 148.4249 13.0161 0.0000 0.0000 0.0000
# 3 8.1526 13.0161 17.5755 0.0000 0.0000 0.0000
# 4 0.0000 0.0000 0.0000 6.3011 0.0000 0.0000
# 5 0.0000 0.0000 0.0000 0.0000 7.6420 0.0000
# 6 0.0000 0.0000 0.0000 0.0000 0.0000 19.4383
#
#
#
# Elastic Compliance Matrix: (Units=1/GPa)
#
#
# Indices 1 2 3 4 5 6 
#
# 1 0.009795 -0.004982 -0.000854 0.000000 0.000000 0.000000
# 2 -0.004982 0.009739 -0.004902 0.000000 0.000000 0.000000
# 3 -0.000854 -0.004902 0.060924 0.000000 0.000000 0.000000
# 4 0.000000 0.000000 0.000000 0.158703 0.000000 0.000000
# 5 0.000000 0.000000 0.000000 0.000000 0.130856 0.000000
# 6 0.000000 0.000000 0.000000 0.000000 0.000000 0.051445
#
#
# Mechanical properties :
#
#
# Convention : Reuss Voigt Hill
#
# Bulk Modulus (GPa) = 16.95420 55.92971 36.44196
# Shear Modulus (GPa) = 10.80853 20.67509 15.74181
#
# Velocity S-wave (km/s) = 2.44465 3.38110 2.95027
# Velocity P-wave (km/s) = 4.16448 6.79467 5.63518
#
# Compressibility (1/GPa) = 0.05898243
#
# Stress axis : x y z
#
# Youngs Moduli (GPa) = 102.09251 102.67713 16.41401
#
# Poissons Ratio (x) = 0.51153 0.01402
# Poissons Ratio (y) = 0.50862 0.08046
# Poissons Ratio (z) = 0.08719 0.50330
#
# Static dielectric constant tensor:
#      x y z
#    x 3.514460 0.000000 0.000000 
#    y 0.000000 3.556990 0.000000 
#    z 0.000000 0.000000 2.765390 
# 
# 
# High freq. dielectric constant tensor:
#      x y z
#    x 1.716860 0.000000 0.000000 
#    y 0.000000 1.689740 0.000000 
#    z 0.000000 0.000000 1.635270 
# 
# From -- ./inp_files/58277.got.cif
#   From: 2010.03.12/outbox.cif.g09.slc.cpg/sg63_30_cif.got.tgz:58277.got - 2010.04.10 19:34:48.
