data_PCOD8255907
_publ_section_title
;
Structure prediction by ZEFSAII (Michael W. Deem and Ramdas Pophale) SiO2 
 PCOD8255907
Probable space group: C M C M
;
_chemical_formula_sum "Si O2"
_cell_formula_units_Z 96
_cell_length_a 26.296788
_cell_length_b 14.214293
_cell_length_c 14.144839
_cell_angle_alpha 90.000000
_cell_angle_beta 90.000000
_cell_angle_gamma 90.000000
_cell_volume 5287.202900
_symmetry_space_group_name_H-M "C M C M"
_symmetry_group_IT_number 63
_symmetry_cell_setting 'orthorhombic'
loop_
_space_group_symop_operation_xyz
x,y,z
-x,-y,1/2+z
x,-y,-z
-x,y,1/2-z
-x,-y,-z
x,y,1/2-z
-x,y,z
x,-y,1/2+z
1/2+x,1/2+y,z
1/2-x,1/2-y,1/2+z
1/2+x,1/2-y,-z
1/2-x,1/2+y,1/2-z
1/2-x,1/2-y,-z
1/2+x,1/2+y,1/2-z
1/2-x,1/2+y,z
1/2+x,1/2-y,1/2+z
loop_
_atom_site_type_symbol
_atom_site_label
_atom_site_fract_x
_atom_site_fract_y
_atom_site_fract_z
Si Si1 0.000000 0.107229 0.028107
Si Si2 0.175565 0.739517 0.965860
Si Si3 0.899139 0.137104 0.362513
Si Si4 0.741958 0.400838 0.455028
Si Si5 0.355907 0.554355 0.857004
Si Si6 0.500000 0.738650 0.643316
Si Si7 0.111102 0.255660 0.859111
O O1 0.953773 0.142101 0.091428
O O2 0.000000 0.152917 0.926240
O O3 0.000000 0.000000 0.000000
O O4 0.131582 0.769821 0.893746
O O5 0.206509 0.651566 0.921450
O O6 0.213202 0.829159 0.974246
O O7 0.151276 0.701432 0.066090
O O8 0.903594 0.137038 0.250000
O O9 0.872209 0.043010 0.407804
O O10 0.757542 0.500000 0.500000
O O11 0.703646 0.422378 0.369377
O O12 0.366920 0.531960 0.750000
O O13 0.390220 0.643932 0.887362
O O14 0.500000 0.697833 0.750000
O O15 0.446701 0.796691 0.628891
O O16 0.130097 0.269865 0.750000
#
# Coordination Sequence:
#
# PCOD8255907 Si02
#       7
#     8  16  16  16  16   8  16
#     4  12  23  31  52  77 109 150 178 215 262 329
#     4  10  20  33  53  76 100 147 174 218 278 315
#     4  11  22  35  50  77 112 147 183 219 265 324
#     4  10  19  33  53  74 102 133 185 224 267 322
#     4   9  18  31  48  67 100 139 174 215 257 308
#     4  10  18  29  48  71  96 130 172 211 256 313
#     4   9  17  30  48  72  99 128 169 213 260 317
#
# _framework density 18.157048
#
# number of rings (size 3 to 8) (size 9 to 14) (size 15 to 20)
#    0.000    2.000    3.333    1.250    2.333    2.667 
#    0.000    3.333    0.000    0.000    0.000    2.333 
#    0.000    2.667    0.000    0.000    0.000    0.000 
#
# Total GULP energy -594629.054735 kJ/mol
# GULP energy per Si atom -12388.105307 kJ/mol
# Density = 1.811572 g / cm^3
# Si number density = 18.157048 Si / 1000 Ang^3
#
#
#
# Elastic Constant Matrix: (Units=GPa)
#
#
# Indices 1 2 3 4 5 6 
#
# 1 131.3953 39.7884 30.1519 0.0000 0.0000 0.0000
# 2 39.7884 45.1596 6.3074 0.0000 0.0000 0.0000
# 3 30.1519 6.3074 46.6771 0.0000 0.0000 0.0000
# 4 0.0000 0.0000 0.0000 13.0870 0.0000 0.0000
# 5 0.0000 0.0000 0.0000 0.0000 24.1051 0.0000
# 6 0.0000 0.0000 0.0000 0.0000 0.0000 24.0737
#
#
#
# Elastic Compliance Matrix: (Units=1/GPa)
#
#
# Indices 1 2 3 4 5 6 
#
# 1 0.012029 -0.009696 -0.006460 0.000000 0.000000 0.000000
# 2 -0.009696 0.030385 0.002158 0.000000 0.000000 0.000000
# 3 -0.006460 0.002158 0.025305 0.000000 0.000000 0.000000
# 4 0.000000 0.000000 0.000000 0.076412 0.000000 0.000000
# 5 0.000000 0.000000 0.000000 0.000000 0.041485 0.000000
# 6 0.000000 0.000000 0.000000 0.000000 0.000000 0.041539
#
#
# Mechanical properties :
#
#
# Convention : Reuss Voigt Hill
#
# Bulk Modulus (GPa) = 25.17498 41.74750 33.46124
# Shear Modulus (GPa) = 18.62932 22.05212 20.34072
#
# Velocity S-wave (km/s) = 3.20661 3.48878 3.35067
# Velocity P-wave (km/s) = 5.25405 6.26667 5.78257
#
# Compressibility (1/GPa) = 0.03972197
#
# Stress axis : x y z
#
# Youngs Moduli (GPa) = 83.13073 32.91065 39.51733
#
# Poissons Ratio (x) = 0.31911 0.25529
# Poissons Ratio (y) = 0.80605 -0.08526
# Poissons Ratio (z) = 0.53705 -0.07101
#
# Static dielectric constant tensor:
#      x y z
#    x 3.491200 0.000000 0.000000 
#    y 0.000000 3.013240 0.000000 
#    z 0.000000 0.000000 3.644800 
# 
# 
# High freq. dielectric constant tensor:
#      x y z
#    x 1.713200 0.000000 0.000000 
#    y 0.000000 1.646150 0.000000 
#    z 0.000000 0.000000 1.700450 
# 
# From -- ./inp_files/37893.got.cif
#   From: 2010.03.12/outbox.cif.g09.slc.cpg/sg63_19_cif.got.tgz:37893.got - 2010.04.10 19:34:48.
