data_PCOD8255862
_publ_section_title
;
Structure prediction by ZEFSAII (Michael W. Deem and Ramdas Pophale) SiO2 
 PCOD8255862
Probable space group: C M C M
;
_chemical_formula_sum "Si O2"
_cell_formula_units_Z 112
_cell_length_a 13.746524
_cell_length_b 34.039741
_cell_length_c 14.712038
_cell_angle_alpha 90.000000
_cell_angle_beta 90.000000
_cell_angle_gamma 90.000000
_cell_volume 6884.176233
_symmetry_space_group_name_H-M "C M C M"
_symmetry_group_IT_number 63
_symmetry_cell_setting 'orthorhombic'
loop_
_space_group_symop_operation_xyz
x,y,z
-x,-y,1/2+z
x,-y,-z
-x,y,1/2-z
-x,-y,-z
x,y,1/2-z
-x,y,z
x,-y,1/2+z
1/2+x,1/2+y,z
1/2-x,1/2-y,1/2+z
1/2+x,1/2-y,-z
1/2-x,1/2+y,1/2-z
1/2-x,1/2-y,-z
1/2+x,1/2+y,1/2-z
1/2-x,1/2+y,z
1/2+x,1/2-y,1/2+z
loop_
_atom_site_type_symbol
_atom_site_label
_atom_site_fract_x
_atom_site_fract_y
_atom_site_fract_z
Si Si1 0.215922 0.054520 0.354506
Si Si2 0.887579 0.179769 0.502118
Si Si3 0.226653 0.677875 0.143778
Si Si4 0.107314 0.603180 0.144585
Si Si5 0.386923 0.524931 0.645134
Si Si6 0.389066 0.407980 0.488157
Si Si7 0.385792 0.742916 0.852059
O O1 0.186088 0.062114 0.250000
O O2 0.331507 0.062571 0.369332
O O3 0.162085 0.086817 0.414934
O O4 0.182508 0.011120 0.384518
O O5 0.827295 0.183453 0.409585
O O6 0.874529 0.136460 0.545698
O O7 0.848416 0.209992 0.577801
O O8 0.000000 0.187789 0.477313
O O9 0.251849 0.672678 0.250000
O O10 0.166729 0.640401 0.104751
O O11 0.162141 0.715838 0.124099
O O12 0.092461 0.611826 0.250000
O O13 0.000000 0.598964 0.098683
O O14 0.372032 0.535633 0.750000
O O15 0.500000 0.514149 0.625554
O O16 0.348919 0.562262 0.588397
O O17 0.500000 0.418356 0.505158
O O18 0.357857 0.729321 0.750000
O O19 0.500000 0.749012 0.861272
#
# Coordination Sequence:
#
# PCOD8255862 Si02
#       7
#    16  16  16  16  16  16  16
#     4  10  18  29  45  67  93 119 151 190 231 274
#     4  10  20  31  45  70  99 125 153 187 231 277
#     4  10  18  31  49  69  94 124 154 185 225 278
#     4   9  17  29  46  68  91 116 149 188 230 274
#     4   9  18  31  47  67  90 122 162 194 222 264
#     4  10  19  30  45  66  95 128 155 183 223 273
#     4   9  18  32  50  70  92 121 158 197 231 264
#
# _framework density 16.269193999999999
#
# number of rings (size 3 to 8) (size 9 to 14) (size 15 to 20)
#    0.000    2.429    1.429    1.714    0.000    4.571 
#    0.000    4.286    0.000    1.714    0.000    0.000 
#    0.000    1.143    0.000    0.000    0.000    0.000 
#
# Total GULP energy -694157.883087 kJ/mol
# GULP energy per Si atom -12395.676484 kJ/mol
# Density = 1.623216 g / cm^3
# Si number density = 16.269194 Si / 1000 Ang^3
#
#
#
# Elastic Constant Matrix: (Units=GPa)
#
#
# Indices 1 2 3 4 5 6 
#
# 1 70.3456 44.2933 36.7348 0.0000 0.0000 0.0000
# 2 44.2933 94.3068 38.8536 0.0000 0.0000 0.0000
# 3 36.7348 38.8536 55.8083 0.0000 0.0000 0.0000
# 4 0.0000 0.0000 0.0000 23.6579 0.0000 0.0000
# 5 0.0000 0.0000 0.0000 0.0000 18.5798 0.0000
# 6 0.0000 0.0000 0.0000 0.0000 0.0000 21.1827
#
#
#
# Elastic Compliance Matrix: (Units=1/GPa)
#
#
# Indices 1 2 3 4 5 6 
#
# 1 0.024416 -0.006795 -0.011341 0.000000 0.000000 0.000000
# 2 -0.006795 0.016760 -0.007195 0.000000 0.000000 0.000000
# 3 -0.011341 -0.007195 0.030392 0.000000 0.000000 0.000000
# 4 0.000000 0.000000 0.000000 0.042269 0.000000 0.000000
# 5 0.000000 0.000000 0.000000 0.000000 0.053822 0.000000
# 6 0.000000 0.000000 0.000000 0.000000 0.000000 0.047208
#
#
# Mechanical properties :
#
#
# Convention : Reuss Voigt Hill
#
# Bulk Modulus (GPa) = 47.83280 51.13602 49.48441
# Shear Modulus (GPa) = 18.34870 19.38935 18.86903
#
# Velocity S-wave (km/s) = 3.36194 3.45597 3.40928
# Velocity P-wave (km/s) = 6.67345 6.88654 6.78083
#
# Compressibility (1/GPa) = 0.02090616
#
# Stress axis : x y z
#
# Youngs Moduli (GPa) = 40.95593 59.66717 32.90292
#
# Poissons Ratio (x) = 0.40547 0.37314
# Poissons Ratio (y) = 0.27832 0.23674
# Poissons Ratio (z) = 0.46447 0.42931
#
# Static dielectric constant tensor:
#      x y z
#    x 3.107310 0.000000 0.000000 
#    y 0.000000 3.220330 0.000000 
#    z 0.000000 0.000000 2.996560 
# 
# 
# High freq. dielectric constant tensor:
#      x y z
#    x 1.611980 0.000000 0.000000 
#    y 0.000000 1.630890 0.000000 
#    z 0.000000 0.000000 1.609010 
# 
# From -- ./inp_files/32768.got.cif
#   From: 2010.03.12/outbox.cif.g09.slc.cpg/sg63_17_cif.got.tgz:32768.got - 2010.04.10 19:34:48.
