data_PCOD8255875
_publ_section_title
;
Structure prediction by ZEFSAII (Michael W. Deem and Ramdas Pophale) SiO2 
 PCOD8255875
Probable space group: C M C M
;
_chemical_formula_sum "Si O2"
_cell_formula_units_Z 64
_cell_length_a 14.417040
_cell_length_b 28.262026
_cell_length_c 8.680680
_cell_angle_alpha 90.000000
_cell_angle_beta 90.000000
_cell_angle_gamma 90.000000
_cell_volume 3536.984380
_symmetry_space_group_name_H-M "C M C M"
_symmetry_group_IT_number 63
_symmetry_cell_setting 'orthorhombic'
loop_
_space_group_symop_operation_xyz
x,y,z
-x,-y,1/2+z
x,-y,-z
-x,y,1/2-z
-x,-y,-z
x,y,1/2-z
-x,y,z
x,-y,1/2+z
1/2+x,1/2+y,z
1/2-x,1/2-y,1/2+z
1/2+x,1/2-y,-z
1/2-x,1/2+y,1/2-z
1/2-x,1/2-y,-z
1/2+x,1/2+y,1/2-z
1/2-x,1/2+y,z
1/2+x,1/2-y,1/2+z
loop_
_atom_site_type_symbol
_atom_site_label
_atom_site_fract_x
_atom_site_fract_y
_atom_site_fract_z
Si Si1 0.846551 0.233213 0.932880
Si Si2 0.895091 0.049007 0.068244
Si Si3 0.101072 0.675858 0.927330
Si Si4 0.711764 0.641208 0.432262
O O1 0.851509 0.233944 0.750000
O O2 0.750000 0.250000 0.000000
O O3 0.916968 0.271700 0.001561
O O4 0.858936 0.179685 0.993547
O O5 0.894091 0.045114 0.250000
O O6 0.826562 0.090561 0.012573
O O7 0.000000 0.058818 0.008871
O O8 0.856650 0.000000 0.000000
O O9 0.131703 0.680570 0.750000
O O10 0.000000 0.650247 0.942244
O O11 0.181357 0.646593 0.013864
O O12 0.708379 0.647169 0.250000
#
# Coordination Sequence:
#
# PCOD8255875 Si02
#       4
#    16  16  16  16
#     4  10  18  29  46  68  96 129 165 202 239 282
#     4   9  19  35  54  76 100 126 157 196 245 297
#     4  10  20  33  49  70  99 135 171 207 246 287
#     4  10  19  32  51  74 101 132 165 202 245 293
#
# _framework density 18.094511000000001
#
# number of rings (size 3 to 8) (size 9 to 14) (size 15 to 20)
#    0.000    2.250    0.000    6.750    0.000    5.000 
#    0.000    2.500    0.000    0.750    0.000    0.000 
#    0.000    0.000    0.000    0.000    0.000    0.000 
#
# Total GULP energy -396510.025748 kJ/mol
# GULP energy per Si atom -12390.938305 kJ/mol
# Density = 1.805333 g / cm^3
# Si number density = 18.094511 Si / 1000 Ang^3
#
#
#
# Elastic Constant Matrix: (Units=GPa)
#
#
# Indices 1 2 3 4 5 6 
#
# 1 84.4569 54.6225 22.8596 0.0000 0.0000 0.0000
# 2 54.6225 143.1960 41.1449 0.0000 0.0000 0.0000
# 3 22.8596 41.1449 97.1215 0.0000 0.0000 0.0000
# 4 0.0000 0.0000 0.0000 30.2960 0.0000 0.0000
# 5 0.0000 0.0000 0.0000 0.0000 22.0342 0.0000
# 6 0.0000 0.0000 0.0000 0.0000 0.0000 23.2853
#
#
#
# Elastic Compliance Matrix: (Units=1/GPa)
#
#
# Indices 1 2 3 4 5 6 
#
# 1 0.015868 -0.005670 -0.001333 0.000000 0.000000 0.000000
# 2 -0.005670 0.009977 -0.002892 0.000000 0.000000 0.000000
# 3 -0.001333 -0.002892 0.011835 0.000000 0.000000 0.000000
# 4 0.000000 0.000000 0.000000 0.033008 0.000000 0.000000
# 5 0.000000 0.000000 0.000000 0.000000 0.045384 0.000000
# 6 0.000000 0.000000 0.000000 0.000000 0.000000 0.042946
#
#
# Mechanical properties :
#
#
# Convention : Reuss Voigt Hill
#
# Bulk Modulus (GPa) = 55.89510 62.44759 59.17135
# Shear Modulus (GPa) = 27.06039 28.86626 27.96333
#
# Velocity S-wave (km/s) = 3.87137 3.99846 3.93543
# Velocity P-wave (km/s) = 7.13730 7.47688 7.30906
#
# Compressibility (1/GPa) = 0.01789065
#
# Stress axis : x y z
#
# Youngs Moduli (GPa) = 63.01922 100.22742 84.49234
#
# Poissons Ratio (x) = 0.56829 0.11262
# Poissons Ratio (y) = 0.35732 0.24438
# Poissons Ratio (z) = 0.08400 0.28989
#
# Static dielectric constant tensor:
#      x y z
#    x 3.603760 0.000000 0.000000 
#    y 0.000000 3.764020 0.000000 
#    z 0.000000 0.000000 3.386230 
# 
# 
# High freq. dielectric constant tensor:
#      x y z
#    x 1.693200 0.000000 0.000000 
#    y 0.000000 1.681080 0.000000 
#    z 0.000000 0.000000 1.712720 
# 
# From -- ./inp_files/6211.got.cif
#   From: 2010.03.12/outbox.cif.g09.slc.cpg/sg63_4_cif.got.tgz:6211.got - 2010.04.10 19:34:48.
