data_PCOD8255069
_publ_section_title
;
Structure prediction by ZEFSAII (Michael W. Deem and Ramdas Pophale) SiO2 
 PCOD8255069
Probable space group: P N M A
;
_chemical_formula_sum "Si O2"
_cell_formula_units_Z 48
_cell_length_a 18.458696
_cell_length_b 10.148521
_cell_length_c 12.960587
_cell_angle_alpha 90.000000
_cell_angle_beta 90.000000
_cell_angle_gamma 90.000000
_cell_volume 2427.886855
_symmetry_space_group_name_H-M "P N M A"
_symmetry_group_IT_number 62
_symmetry_cell_setting 'orthorhombic'
loop_
_space_group_symop_operation_xyz
x,y,z
1/2-x,-y,1/2+z
1/2+x,1/2-y,1/2-z
-x,1/2+y,-z
-x,-y,-z
1/2+x,y,1/2-z
1/2-x,1/2+y,1/2+z
x,1/2-y,z
loop_
_atom_site_type_symbol
_atom_site_label
_atom_site_fract_x
_atom_site_fract_y
_atom_site_fract_z
Si Si1 0.886949 0.250000 0.952897
Si Si2 0.965031 0.250000 0.157627
Si Si3 0.157411 0.596468 0.569856
Si Si4 0.031648 0.001935 0.700575
Si Si5 0.806997 0.003102 0.866062
Si Si6 0.957798 0.750000 0.161190
Si Si7 0.884663 0.750000 0.952562
Si Si8 0.374573 0.097049 0.837073
O O1 0.838486 0.124242 0.929299
O O2 0.961272 0.250000 0.886841
O O3 0.899874 0.250000 0.075523
O O4 0.963007 0.377619 0.226451
O O5 0.036772 0.250000 0.092825
O O6 0.158731 0.750000 0.604855
O O7 0.083571 0.524640 0.603580
O O8 0.221034 0.512569 0.622829
O O9 0.164821 0.586909 0.446658
O O10 0.056623 0.124576 0.768173
O O11 0.951662 0.024872 0.656366
O O12 0.824807 0.021156 0.745294
O O13 0.841822 0.875247 0.914850
O O14 0.894472 0.750000 0.075798
O O15 0.385405 0.250000 0.804058
#
# Coordination Sequence:
#
# PCOD8255069 Si02
#       8
#     4   4   8   8   8   4   4   8
#     4  11  22  41  64 101 137 169 219 275 331 396
#     4  11  22  35  69 100 131 168 218 285 329 371
#     4  11  27  44  65  99 134 175 225 276 329 393
#     4  12  21  44  66  99 133 176 222 277 323 391
#     4  12  22  44  66  94 134 179 215 270 340 395
#     4  11  22  39  69 104 129 174 222 271 329 393
#     4  11  22  37  66  99 135 171 221 265 337 398
#     4  11  23  46  71  94 133 179 218 276 336 390
#
# _framework density 19.770278999999999
#
# number of rings (size 3 to 8) (size 9 to 14) (size 15 to 20)
#    0.000    0.667    6.667    1.500    0.000    6.000 
#    0.000    2.500    0.000    0.000    0.000    0.000 
#    0.000    0.000    0.000    0.000    0.000    0.000 
#
# Total GULP energy -595331.809573 kJ/mol
# GULP energy per Si atom -12402.746033 kJ/mol
# Density = 1.972528 g / cm^3
# Si number density = 19.770279 Si / 1000 Ang^3
#
#
#
# Elastic Constant Matrix: (Units=GPa)
#
#
# Indices 1 2 3 4 5 6 
#
# 1 113.0551 39.7704 48.8228 0.0000 0.0000 0.0000
# 2 39.7704 142.7614 41.3169 0.0000 0.0000 0.0000
# 3 48.8228 41.3169 89.2351 0.0000 0.0000 0.0000
# 4 0.0000 0.0000 0.0000 31.7795 0.0000 0.0000
# 5 0.0000 0.0000 0.0000 0.0000 29.5640 0.0000
# 6 0.0000 0.0000 0.0000 0.0000 0.0000 31.3744
#
#
#
# Elastic Compliance Matrix: (Units=1/GPa)
#
#
# Indices 1 2 3 4 5 6 
#
# 1 0.011910 -0.001654 -0.005751 0.000000 0.000000 0.000000
# 2 -0.001654 0.008318 -0.002947 0.000000 0.000000 0.000000
# 3 -0.005751 -0.002947 0.015717 0.000000 0.000000 0.000000
# 4 0.000000 0.000000 0.000000 0.031467 0.000000 0.000000
# 5 0.000000 0.000000 0.000000 0.000000 0.033825 0.000000
# 6 0.000000 0.000000 0.000000 0.000000 0.000000 0.031873
#
#
# Mechanical properties :
#
#
# Convention : Reuss Voigt Hill
#
# Bulk Modulus (GPa) = 65.60200 67.20797 66.40498
# Shear Modulus (GPa) = 31.46750 32.88636 32.17693
#
# Velocity S-wave (km/s) = 3.99389 4.08293 4.03866
# Velocity P-wave (km/s) = 7.38392 7.50302 7.44371
#
# Compressibility (1/GPa) = 0.01524344
#
# Stress axis : x y z
#
# Youngs Moduli (GPa) = 83.95976 120.21885 63.62483
#
# Poissons Ratio (x) = 0.19880 0.36590
# Poissons Ratio (y) = 0.13884 0.18748
# Poissons Ratio (z) = 0.48284 0.35424
#
# Static dielectric constant tensor:
#      x y z
#    x 3.761370 0.000000 0.000000 
#    y 0.000000 3.660940 0.000000 
#    z 0.000000 0.000000 3.842340 
# 
# 
# High freq. dielectric constant tensor:
#      x y z
#    x 1.766900 0.000000 0.000000 
#    y 0.000000 1.783300 0.000000 
#    z 0.000000 0.000000 1.782150 
# 
# From -- ./inp_files/19723.got.cif
#   From: 2010.03.12/outbox.cif.g09.slc.cpg/sg62_10_cif.got.tgz:19723.got - 2010.04.10 19:12:36.
