data_PCOD8255409
_publ_section_title
;
Structure prediction by ZEFSAII (Michael W. Deem and Ramdas Pophale) SiO2 
 PCOD8255409
Probable space group: C M C M
;
_chemical_formula_sum "Si O2"
_cell_formula_units_Z 56
_cell_length_a 7.654649
_cell_length_b 26.182200
_cell_length_c 14.764213
_cell_angle_alpha 90.000000
_cell_angle_beta 90.000000
_cell_angle_gamma 90.000000
_cell_volume 2958.977884
_symmetry_space_group_name_H-M "C M C M"
_symmetry_group_IT_number 63
_symmetry_cell_setting 'orthorhombic'
loop_
_space_group_symop_operation_xyz
x,y,z
-x,-y,1/2+z
x,-y,-z
-x,y,1/2-z
-x,-y,-z
x,y,1/2-z
-x,y,z
x,-y,1/2+z
1/2+x,1/2+y,z
1/2-x,1/2-y,1/2+z
1/2+x,1/2-y,-z
1/2-x,1/2+y,1/2-z
1/2-x,1/2-y,-z
1/2+x,1/2+y,1/2-z
1/2-x,1/2+y,z
1/2+x,1/2-y,1/2+z
loop_
_atom_site_type_symbol
_atom_site_label
_atom_site_fract_x
_atom_site_fract_y
_atom_site_fract_z
Si Si1 0.500000 0.181154 0.250000
Si Si2 0.818120 0.743377 0.750000
Si Si3 0.198426 0.004623 0.750000
Si Si4 0.500000 0.126540 0.440646
Si Si5 0.500000 0.823172 0.379038
Si Si6 0.200325 0.047458 0.437366
Si Si7 0.500000 0.914287 0.250000
O O1 0.337388 0.218279 0.250000
O O2 0.500000 0.146618 0.338493
O O3 0.827114 0.706464 0.839737
O O4 0.000000 0.776256 0.750000
O O5 0.325640 0.052349 0.750000
O O6 0.000000 0.025860 0.750000
O O7 0.234142 0.968421 0.665309
O O8 0.500000 0.173834 0.511852
O O9 0.325361 0.094518 0.460080
O O10 0.500000 0.880803 0.340956
O O11 0.000000 0.064367 0.454470
O O12 0.251521 0.000000 0.500000
#
# Coordination Sequence:
#
# PCOD8255409 Si02
#       7
#     4   8   8   8   8  16   4
#     4  12  24  37  64  84 110 146 192 213 300 338
#     4   7  20  45  56  80 108 140 169 244 282 341
#     4  10  19  31  51  76 111 156 183 220 273 317
#     4  12  22  35  58  90 106 150 188 232 261 343
#     4   8  20  41  58  78 116 134 185 236 294 318
#     4  10  21  36  52  80 121 151 184 223 268 315
#     4  10  16  33  56  80 100 146 192 229 264 332
#
# _framework density 18.925453999999998
#
# number of rings (size 3 to 8) (size 9 to 14) (size 15 to 20)
#    0.857    1.429    0.000    3.857    0.000    2.286 
#    7.714    0.000    0.000    0.000    0.000    0.000 
#    0.000    0.000    0.000    0.000    0.000    0.000 
#
# Total GULP energy -346972.992635 kJ/mol
# GULP energy per Si atom -12391.892594 kJ/mol
# Density = 1.888238 g / cm^3
# Si number density = 18.925454 Si / 1000 Ang^3
#
#
#
# Elastic Constant Matrix: (Units=GPa)
#
#
# Indices 1 2 3 4 5 6 
#
# 1 121.4709 60.7054 28.5722 0.0000 0.0000 0.0000
# 2 60.7054 81.6752 35.1519 0.0000 0.0000 0.0000
# 3 28.5722 35.1519 138.2526 0.0000 0.0000 0.0000
# 4 0.0000 0.0000 0.0000 17.9657 0.0000 0.0000
# 5 0.0000 0.0000 0.0000 0.0000 16.1809 0.0000
# 6 0.0000 0.0000 0.0000 0.0000 0.0000 23.0258
#
#
#
# Elastic Compliance Matrix: (Units=1/GPa)
#
#
# Indices 1 2 3 4 5 6 
#
# 1 0.013106 -0.009629 -0.000260 0.000000 0.000000 0.000000
# 2 -0.009629 0.020822 -0.003304 0.000000 0.000000 0.000000
# 3 -0.000260 -0.003304 0.008127 0.000000 0.000000 0.000000
# 4 0.000000 0.000000 0.000000 0.055661 0.000000 0.000000
# 5 0.000000 0.000000 0.000000 0.000000 0.061801 0.000000
# 6 0.000000 0.000000 0.000000 0.000000 0.000000 0.043430
#
#
# Mechanical properties :
#
#
# Convention : Reuss Voigt Hill
#
# Bulk Modulus (GPa) = 63.82310 65.58417 64.70364
# Shear Modulus (GPa) = 21.31678 25.89911 23.60795
#
# Velocity S-wave (km/s) = 3.35976 3.70331 3.53571
# Velocity P-wave (km/s) = 6.98908 7.28115 7.13661
#
# Compressibility (1/GPa) = 0.01566831
#
# Stress axis : x y z
#
# Youngs Moduli (GPa) = 76.30289 48.02519 123.04536
#
# Poissons Ratio (x) = 0.46243 0.03203
# Poissons Ratio (y) = 0.73471 0.40658
# Poissons Ratio (z) = 0.01986 0.15869
#
# Static dielectric constant tensor:
#      x y z
#    x 3.432070 0.000000 0.000000 
#    y 0.000000 3.192890 0.000000 
#    z 0.000000 0.000000 3.613510 
# 
# 
# High freq. dielectric constant tensor:
#      x y z
#    x 1.732230 0.000000 0.000000 
#    y 0.000000 1.716750 0.000000 
#    z 0.000000 0.000000 1.747290 
# 
# From -- ./inp_files/27460.got.cif
#   From: 2010.03.12/outbox.cif.g09.slc.cpg/sg63_14_cif.got.tgz:27460.got - 2010.04.10 19:34:48.
