data_PCOD8255686
_publ_section_title
;
Structure prediction by ZEFSAII (Michael W. Deem and Ramdas Pophale) SiO2 
 PCOD8255686
Probable space group: C M C M
;
_chemical_formula_sum "Si O2"
_cell_formula_units_Z 112
_cell_length_a 15.084688
_cell_length_b 31.296118
_cell_length_c 13.628610
_cell_angle_alpha 90.000000
_cell_angle_beta 90.000000
_cell_angle_gamma 90.000000
_cell_volume 6433.960146
_symmetry_space_group_name_H-M "C M C M"
_symmetry_group_IT_number 63
_symmetry_cell_setting 'orthorhombic'
loop_
_space_group_symop_operation_xyz
x,y,z
-x,-y,1/2+z
x,-y,-z
-x,y,1/2-z
-x,-y,-z
x,y,1/2-z
-x,y,z
x,-y,1/2+z
1/2+x,1/2+y,z
1/2-x,1/2-y,1/2+z
1/2+x,1/2-y,-z
1/2-x,1/2+y,1/2-z
1/2-x,1/2-y,-z
1/2+x,1/2+y,1/2-z
1/2-x,1/2+y,z
1/2+x,1/2-y,1/2+z
loop_
_atom_site_type_symbol
_atom_site_label
_atom_site_fract_x
_atom_site_fract_y
_atom_site_fract_z
Si Si1 0.603619 0.727410 0.952423
Si Si2 0.337322 0.566284 0.506044
Si Si3 0.100579 0.820293 0.858798
Si Si4 0.104549 0.141972 0.642057
Si Si5 0.898583 0.313821 0.864416
Si Si6 0.599533 0.496731 0.638982
Si Si7 0.759433 0.615255 0.138294
O O1 0.500000 0.731076 0.929985
O O2 0.643267 0.688353 0.888124
O O3 0.643958 0.773221 0.921724
O O4 0.623955 0.718032 0.066601
O O5 0.370352 0.608836 0.558187
O O6 0.403165 0.547391 0.422373
O O7 0.329694 0.529775 0.590281
O O8 0.247216 0.577314 0.443598
O O9 0.109347 0.800637 0.750000
O O10 0.166137 0.860019 0.870370
O O11 0.000000 0.836773 0.879472
O O12 0.142175 0.129288 0.750000
O O13 0.000000 0.144590 0.646630
O O14 0.890020 0.303307 0.750000
O O15 0.841442 0.355115 0.892505
O O16 0.000000 0.323395 0.894577
O O17 0.629711 0.487427 0.750000
O O18 0.500000 0.516665 0.636848
O O19 0.772457 0.598029 0.250000
#
# Coordination Sequence:
#
# PCOD8255686 Si02
#       7
#    16  16  16  16  16  16  16
#     4   9  16  28  46  66  90 127 168 205 246 283
#     4  11  19  31  46  66  94 125 155 194 237 284
#     4   9  17  28  41  62  94 128 160 196 238 284
#     4  10  18  27  42  65  94 129 167 205 239 272
#     4   9  18  33  51  70  94 124 162 209 254 290
#     4  10  21  34  49  69  95 130 167 197 228 276
#     4  10  20  32  48  71  95 125 165 203 241 285
#
# _framework density 17.407629
#
# number of rings (size 3 to 8) (size 9 to 14) (size 15 to 20)
#    0.000    2.286    1.429    3.000    0.000    4.571 
#    0.000    1.429    0.000    0.857    0.000    2.000 
#    0.000    1.143    0.000    0.000    0.000    0.000 
#
# Total GULP energy -693752.354415 kJ/mol
# GULP energy per Si atom -12388.434900 kJ/mol
# Density = 1.736801 g / cm^3
# Si number density = 17.407629 Si / 1000 Ang^3
#
#
#
# Elastic Constant Matrix: (Units=GPa)
#
#
# Indices 1 2 3 4 5 6 
#
# 1 41.3187 26.8079 20.2412 0.0000 0.0000 0.0000
# 2 26.8079 77.3579 47.3006 0.0000 0.0000 0.0000
# 3 20.2412 47.3006 129.4077 0.0000 0.0000 0.0000
# 4 0.0000 0.0000 0.0000 29.7648 0.0000 0.0000
# 5 0.0000 0.0000 0.0000 0.0000 14.1173 0.0000
# 6 0.0000 0.0000 0.0000 0.0000 0.0000 21.7662
#
#
#
# Elastic Compliance Matrix: (Units=1/GPa)
#
#
# Indices 1 2 3 4 5 6 
#
# 1 0.031367 -0.010135 -0.001202 0.000000 0.000000 0.000000
# 2 -0.010135 0.019922 -0.005697 0.000000 0.000000 0.000000
# 3 -0.001202 -0.005697 0.009998 0.000000 0.000000 0.000000
# 4 0.000000 0.000000 0.000000 0.033597 0.000000 0.000000
# 5 0.000000 0.000000 0.000000 0.000000 0.070835 0.000000
# 6 0.000000 0.000000 0.000000 0.000000 0.000000 0.045943
#
#
# Mechanical properties :
#
#
# Convention : Reuss Voigt Hill
#
# Bulk Modulus (GPa) = 36.73802 48.53152 42.63477
# Shear Modulus (GPa) = 19.62314 23.37864 21.50089
#
# Velocity S-wave (km/s) = 3.36113 3.66869 3.51827
# Velocity P-wave (km/s) = 6.01775 6.77390 6.40699
#
# Compressibility (1/GPa) = 0.02721976
#
# Stress axis : x y z
#
# Youngs Moduli (GPa) = 31.88113 50.19460 100.02298
#
# Poissons Ratio (x) = 0.50873 0.12019
# Poissons Ratio (y) = 0.32312 0.56980
# Poissons Ratio (z) = 0.03831 0.28594
#
# Static dielectric constant tensor:
#      x y z
#    x 2.890950 0.000000 0.000000 
#    y 0.000000 3.233470 0.000000 
#    z 0.000000 0.000000 3.671070 
# 
# 
# High freq. dielectric constant tensor:
#      x y z
#    x 1.610320 0.000000 0.000000 
#    y 0.000000 1.658170 0.000000 
#    z 0.000000 0.000000 1.693820 
# 
# From -- ./inp_files/32732.got.cif
#   From: 2010.03.12/outbox.cif.g09.slc.cpg/sg63_17_cif.got.tgz:32732.got - 2010.04.10 19:34:48.
