data_PCOD8255840
_publ_section_title
;
Structure prediction by ZEFSAII (Michael W. Deem and Ramdas Pophale) SiO2 
 PCOD8255840
Probable space group: C M C M
;
_chemical_formula_sum "Si O2"
_cell_formula_units_Z 64
_cell_length_a 26.503572
_cell_length_b 18.456656
_cell_length_c 8.572203
_cell_angle_alpha 90.000000
_cell_angle_beta 90.000000
_cell_angle_gamma 90.000000
_cell_volume 4193.241492
_symmetry_space_group_name_H-M "C M C M"
_symmetry_group_IT_number 63
_symmetry_cell_setting 'orthorhombic'
loop_
_space_group_symop_operation_xyz
x,y,z
-x,-y,1/2+z
x,-y,-z
-x,y,1/2-z
-x,-y,-z
x,y,1/2-z
-x,y,z
x,-y,1/2+z
1/2+x,1/2+y,z
1/2-x,1/2-y,1/2+z
1/2+x,1/2-y,-z
1/2-x,1/2+y,1/2-z
1/2-x,1/2-y,-z
1/2+x,1/2+y,1/2-z
1/2-x,1/2+y,z
1/2+x,1/2-y,1/2+z
loop_
_atom_site_type_symbol
_atom_site_label
_atom_site_fract_x
_atom_site_fract_y
_atom_site_fract_z
Si Si1 0.556236 0.076459 0.933842
Si Si2 0.756982 0.420178 0.934874
Si Si3 0.297027 0.705811 0.935025
Si Si4 0.850412 0.331418 0.065267
O O1 0.555966 0.069199 0.750000
O O2 0.500000 0.095477 0.996631
O O3 0.594886 0.138922 0.986644
O O4 0.575157 0.000000 0.000000
O O5 0.758733 0.421097 0.750000
O O6 0.750921 0.500000 0.000000
O O7 0.707848 0.374786 0.993626
O O8 0.808229 0.385088 0.998373
O O9 0.296364 0.701875 0.750000
O O10 0.250000 0.750000 0.000000
O O11 0.346129 0.750019 0.994374
O O12 0.843985 0.328178 0.250000
#
# Coordination Sequence:
#
# PCOD8255840 Si02
#       4
#    16  16  16  16
#     4   9  18  30  43  60  83 111 143 178 212 245
#     4  11  20  30  43  61  85 111 141 173 208 248
#     4  10  18  29  43  60  82 108 139 172 208 247
#     4  10  18  29  44  61  83 112 144 175 210 248
#
# _framework density 15.262656
#
# number of rings (size 3 to 8) (size 9 to 14) (size 15 to 20)
#    0.000    2.000    0.000    9.000    0.000    4.000 
#    0.000    0.000    0.000    0.000    0.000    0.000 
#    0.000    1.000    0.000    2.750    0.000    4.000 
#
# Total GULP energy -396653.338755 kJ/mol
# GULP energy per Si atom -12395.416836 kJ/mol
# Density = 1.522792 g / cm^3
# Si number density = 15.262656 Si / 1000 Ang^3
#
#
#
# Elastic Constant Matrix: (Units=GPa)
#
#
# Indices 1 2 3 4 5 6 
#
# 1 76.6819 54.4871 26.9542 0.0000 0.0000 0.0000
# 2 54.4871 117.5081 42.4670 0.0000 0.0000 0.0000
# 3 26.9542 42.4670 89.7510 0.0000 0.0000 0.0000
# 4 0.0000 0.0000 0.0000 28.5016 0.0000 0.0000
# 5 0.0000 0.0000 0.0000 0.0000 16.5980 0.0000
# 6 0.0000 0.0000 0.0000 0.0000 0.0000 26.9718
#
#
#
# Elastic Compliance Matrix: (Units=1/GPa)
#
#
# Indices 1 2 3 4 5 6 
#
# 1 0.019721 -0.008449 -0.001925 0.000000 0.000000 0.000000
# 2 -0.008449 0.013885 -0.004033 0.000000 0.000000 0.000000
# 3 -0.001925 -0.004033 0.013628 0.000000 0.000000 0.000000
# 4 0.000000 0.000000 0.000000 0.035086 0.000000 0.000000
# 5 0.000000 0.000000 0.000000 0.000000 0.060248 0.000000
# 6 0.000000 0.000000 0.000000 0.000000 0.000000 0.037076
#
#
# Mechanical properties :
#
#
# Convention : Reuss Voigt Hill
#
# Bulk Modulus (GPa) = 54.28438 59.08416 56.68427
# Shear Modulus (GPa) = 23.29957 25.08312 24.19135
#
# Velocity S-wave (km/s) = 3.91138 4.05832 3.98553
# Velocity P-wave (km/s) = 7.48615 7.79459 7.64193
#
# Compressibility (1/GPa) = 0.01842151
#
# Stress axis : x y z
#
# Youngs Moduli (GPa) = 50.70796 72.02058 73.37766
#
# Poissons Ratio (x) = 0.60847 0.14125
# Poissons Ratio (y) = 0.42841 0.29590
# Poissons Ratio (z) = 0.09761 0.29043
#
# Static dielectric constant tensor:
#      x y z
#    x 3.152760 0.000000 0.000000 
#    y 0.000000 3.386180 0.000000 
#    z 0.000000 0.000000 3.044600 
# 
# 
# High freq. dielectric constant tensor:
#      x y z
#    x 1.549890 0.000000 0.000000 
#    y 0.000000 1.579020 0.000000 
#    z 0.000000 0.000000 1.604660 
# 
# From -- ./inp_files/11839.got.cif
#   From: 2010.03.12/outbox.cif.g09.slc.cpg/sg63_6_cif.got.tgz:11839.got - 2010.04.10 19:34:48.
