data_PCOD8255215
_publ_section_title
;
Structure prediction by ZEFSAII (Michael W. Deem and Ramdas Pophale) SiO2 
 PCOD8255215
Probable space group: P N M A
;
_chemical_formula_sum "Si O2"
_cell_formula_units_Z 32
_cell_length_a 18.227531
_cell_length_b 8.328497
_cell_length_c 9.797546
_cell_angle_alpha 90.000000
_cell_angle_beta 90.000000
_cell_angle_gamma 90.000000
_cell_volume 1487.345248
_symmetry_space_group_name_H-M "P N M A"
_symmetry_group_IT_number 62
_symmetry_cell_setting 'orthorhombic'
loop_
_space_group_symop_operation_xyz
x,y,z
1/2-x,-y,1/2+z
1/2+x,1/2-y,1/2-z
-x,1/2+y,-z
-x,-y,-z
1/2+x,y,1/2-z
1/2-x,1/2+y,1/2+z
x,1/2-y,z
loop_
_atom_site_type_symbol
_atom_site_label
_atom_site_fract_x
_atom_site_fract_y
_atom_site_fract_z
Si Si1 0.985299 0.935739 0.350897
Si Si2 0.562749 0.063685 0.401821
Si Si3 0.214098 0.565087 0.002384
Si Si4 0.329167 0.065302 0.203182
O O1 0.006400 0.750000 0.339838
O O2 0.900725 0.956201 0.309904
O O3 0.000000 0.000000 0.500000
O O4 0.038400 0.037144 0.253314
O O5 0.577761 0.250000 0.429942
O O6 0.500000 0.000000 0.500000
O O7 0.635830 0.964453 0.429239
O O8 0.235699 0.750000 0.021395
O O9 0.275788 0.458736 0.075102
O O10 0.212519 0.517250 0.842726
O O11 0.354603 0.250000 0.209194
#
# Coordination Sequence:
#
# PCOD8255215 Si02
#       4
#     8   8   8   8
#     4  12  26  45  70  99 135 176 222 277 334 394
#     4  12  24  43  70  99 132 173 222 272 329 393
#     4  11  25  44  68  97 134 177 223 272 332 397
#     4  11  25  45  68  97 135 176 223 273 329 397
#
# _framework density 21.514844
#
# number of rings (size 3 to 8) (size 9 to 14) (size 15 to 20)
#    0.000    0.500    2.500    6.000    3.500    3.000 
#    0.000    0.000    0.000    0.000    0.000    0.000 
#    0.000    0.000    0.000    0.000    0.000    0.000 
#
# Total GULP energy -397094.383981 kJ/mol
# GULP energy per Si atom -12409.199499 kJ/mol
# Density = 2.146588 g / cm^3
# Si number density = 21.514844 Si / 1000 Ang^3
#
#
#
# Elastic Constant Matrix: (Units=GPa)
#
#
# Indices 1 2 3 4 5 6 
#
# 1 52.9479 13.3848 7.2959 0.0000 0.0000 0.0000
# 2 13.3848 74.2773 35.2485 0.0000 0.0000 0.0000
# 3 7.2959 35.2485 130.7927 0.0000 0.0000 0.0000
# 4 0.0000 0.0000 0.0000 38.6633 0.0000 0.0000
# 5 0.0000 0.0000 0.0000 0.0000 43.5461 0.0000
# 6 0.0000 0.0000 0.0000 0.0000 0.0000 36.2202
#
#
#
# Elastic Compliance Matrix: (Units=1/GPa)
#
#
# Indices 1 2 3 4 5 6 
#
# 1 0.019791 -0.003489 -0.000164 0.000000 0.000000 0.000000
# 2 -0.003489 0.016052 -0.004131 0.000000 0.000000 0.000000
# 3 -0.000164 -0.004131 0.008768 0.000000 0.000000 0.000000
# 4 0.000000 0.000000 0.000000 0.025864 0.000000 0.000000
# 5 0.000000 0.000000 0.000000 0.000000 0.022964 0.000000
# 6 0.000000 0.000000 0.000000 0.000000 0.000000 0.027609
#
#
# Mechanical properties :
#
#
# Convention : Reuss Voigt Hill
#
# Bulk Modulus (GPa) = 34.43083 41.09737 37.76410
# Shear Modulus (GPa) = 34.17682 37.15850 35.66766
#
# Velocity S-wave (km/s) = 3.98995 4.16036 4.07605
# Velocity P-wave (km/s) = 6.10445 6.49780 6.30420
#
# Compressibility (1/GPa) = 0.02904374
#
# Stress axis : x y z
#
# Youngs Moduli (GPa) = 50.52813 62.29623 114.04781
#
# Poissons Ratio (x) = 0.21733 0.01868
# Poissons Ratio (y) = 0.17627 0.47119
# Poissons Ratio (z) = 0.00828 0.25738
#
# Static dielectric constant tensor:
#      x y z
#    x 3.840680 0.000000 0.000000 
#    y 0.000000 -0.940100 0.000000 
#    z 0.000000 0.000000 5.117190 
# 
# 
# High freq. dielectric constant tensor:
#      x y z
#    x 1.845150 0.000000 0.000000 
#    y 0.000000 1.855450 0.000000 
#    z 0.000000 0.000000 1.862280 
# 
# From -- ./inp_files/8240.got.cif
#   From: 2010.03.12/outbox.cif.g09.slc.cpg/sg62_5_cif.got.tgz:8240.got - 2010.04.10 19:12:36.
