data_PCOD8255653
_publ_section_title
;
Structure prediction by ZEFSAII (Michael W. Deem and Ramdas Pophale) SiO2 
 PCOD8255653
Probable space group: C M C M
;
_chemical_formula_sum "Si O2"
_cell_formula_units_Z 88
_cell_length_a 34.001373
_cell_length_b 22.745955
_cell_length_c 9.550309
_cell_angle_alpha 90.000000
_cell_angle_beta 90.000000
_cell_angle_gamma 90.000000
_cell_volume 7386.148816
_symmetry_space_group_name_H-M "C M C M"
_symmetry_group_IT_number 63
_symmetry_cell_setting 'orthorhombic'
loop_
_space_group_symop_operation_xyz
x,y,z
-x,-y,1/2+z
x,-y,-z
-x,y,1/2-z
-x,-y,-z
x,y,1/2-z
-x,y,z
x,-y,1/2+z
1/2+x,1/2+y,z
1/2-x,1/2-y,1/2+z
1/2+x,1/2-y,-z
1/2-x,1/2+y,1/2-z
1/2-x,1/2-y,-z
1/2+x,1/2+y,1/2-z
1/2-x,1/2+y,z
1/2+x,1/2-y,1/2+z
loop_
_atom_site_type_symbol
_atom_site_label
_atom_site_fract_x
_atom_site_fract_y
_atom_site_fract_z
Si Si1 0.650060 0.123906 0.085961
Si Si2 0.726182 0.671240 0.404467
Si Si3 0.414452 0.939038 0.085092
Si Si4 0.270238 0.057922 0.413894
Si Si5 0.807410 0.739692 0.096097
Si Si6 0.000000 0.444314 0.406131
O O1 0.638437 0.120387 0.250000
O O2 0.685698 0.079494 0.053956
O O3 0.661977 0.190344 0.043497
O O4 0.614293 0.107895 0.984802
O O5 0.707994 0.664649 0.250000
O O6 0.738760 0.607298 0.462770
O O7 0.764630 0.711211 0.397158
O O8 0.692920 0.702541 0.498590
O O9 0.404096 0.949040 0.250000
O O10 0.458568 0.910528 0.068575
O O11 0.410712 0.000000 0.000000
O O12 0.265513 0.044974 0.250000
O O13 0.260639 0.000000 0.500000
O O14 0.819823 0.761280 0.250000
O O15 0.000000 0.500000 0.500000
O O16 0.000000 0.469444 0.250000
#
# Coordination Sequence:
#
# PCOD8255653 Si02
#       6
#    16  16  16  16  16   8
#     4   9  17  27  36  49  68  84 102 132 166 197
#     4   8  14  24  35  46  61  80 103 130 157 187
#     4  10  18  27  38  50  64  83 106 132 164 198
#     4   9  17  26  34  46  65  86 106 132 164 195
#     4   8  14  24  36  48  62  80 101 127 159 191
#     4   8  16  28  38  48  62  80 104 132 159 192
#
# _framework density 11.914192
#
# number of rings (size 3 to 8) (size 9 to 14) (size 15 to 20)
#    0.000    3.273    0.000    3.273    0.000    4.364 
#    0.000    3.636    0.000    0.000    0.000    0.000 
#    0.000    0.000    0.000    0.000    0.000    0.000 
#
# Total GULP energy -545075.267221 kJ/mol
# GULP energy per Si atom -12388.074255 kJ/mol
# Density = 1.188707 g / cm^3
# Si number density = 11.914192 Si / 1000 Ang^3
#
#
#
# Elastic Constant Matrix: (Units=GPa)
#
#
# Indices 1 2 3 4 5 6 
#
# 1 55.5784 39.8430 39.8728 0.0000 0.0000 0.0000
# 2 39.8430 73.0903 45.7429 0.0000 0.0000 0.0000
# 3 39.8728 45.7429 66.2648 0.0000 0.0000 0.0000
# 4 0.0000 0.0000 0.0000 21.9083 0.0000 0.0000
# 5 0.0000 0.0000 0.0000 0.0000 16.1987 0.0000
# 6 0.0000 0.0000 0.0000 0.0000 0.0000 13.1330
#
#
#
# Elastic Compliance Matrix: (Units=1/GPa)
#
#
# Indices 1 2 3 4 5 6 
#
# 1 0.035803 -0.010624 -0.014209 0.000000 0.000000 0.000000
# 2 -0.010624 0.027241 -0.012412 0.000000 0.000000 0.000000
# 3 -0.014209 -0.012412 0.032209 0.000000 0.000000 0.000000
# 4 0.000000 0.000000 0.000000 0.045645 0.000000 0.000000
# 5 0.000000 0.000000 0.000000 0.000000 0.061733 0.000000
# 6 0.000000 0.000000 0.000000 0.000000 0.000000 0.076144
#
#
# Mechanical properties :
#
#
# Convention : Reuss Voigt Hill
#
# Bulk Modulus (GPa) = 48.16456 49.53897 48.85176
# Shear Modulus (GPa) = 13.88171 14.87966 14.38068
#
# Velocity S-wave (km/s) = 3.41712 3.53781 3.47799
# Velocity P-wave (km/s) = 7.48885 7.63926 7.56443
#
# Compressibility (1/GPa) = 0.02076215
#
# Stress axis : x y z
#
# Youngs Moduli (GPa) = 27.93075 36.70952 31.04721
#
# Poissons Ratio (x) = 0.39000 0.44116
# Poissons Ratio (y) = 0.29674 0.38535
# Poissons Ratio (z) = 0.39688 0.45563
#
# Static dielectric constant tensor:
#      x y z
#    x 2.484980 0.000000 0.000000 
#    y 0.000000 1.918170 0.000000 
#    z 0.000000 0.000000 2.693210 
# 
# 
# High freq. dielectric constant tensor:
#      x y z
#    x 1.415550 0.000000 0.000000 
#    y 0.000000 1.425560 0.000000 
#    z 0.000000 0.000000 1.463030 
# 
# From -- ./inp_files/14609.got.cif
#   From: 2010.03.12/outbox.cif.g09.slc.cpg/sg63_8_cif.got.tgz:14609.got - 2010.04.10 19:34:48.
