data_PCOD8255633
_publ_section_title
;
Structure prediction by ZEFSAII (Michael W. Deem and Ramdas Pophale) SiO2 
 PCOD8255633
Probable space group: C M C M
;
_chemical_formula_sum "Si O2"
_cell_formula_units_Z 96
_cell_length_a 23.494260
_cell_length_b 25.678975
_cell_length_c 9.376293
_cell_angle_alpha 90.000000
_cell_angle_beta 90.000000
_cell_angle_gamma 90.000000
_cell_volume 5656.797408
_symmetry_space_group_name_H-M "C M C M"
_symmetry_group_IT_number 63
_symmetry_cell_setting 'orthorhombic'
loop_
_space_group_symop_operation_xyz
x,y,z
-x,-y,1/2+z
x,-y,-z
-x,y,1/2-z
-x,-y,-z
x,y,1/2-z
-x,y,z
x,-y,1/2+z
1/2+x,1/2+y,z
1/2-x,1/2-y,1/2+z
1/2+x,1/2-y,-z
1/2-x,1/2+y,1/2-z
1/2-x,1/2-y,-z
1/2+x,1/2+y,1/2-z
1/2-x,1/2+y,z
1/2+x,1/2-y,1/2+z
loop_
_atom_site_type_symbol
_atom_site_label
_atom_site_fract_x
_atom_site_fract_y
_atom_site_fract_z
Si Si1 0.563535 0.948459 0.585393
Si Si2 0.434424 0.551495 0.583433
Si Si3 0.156110 0.866867 0.407107
Si Si4 0.674746 0.105636 0.413356
Si Si5 0.240777 0.803201 0.581604
Si Si6 0.244805 0.956638 0.095363
O O1 0.564909 0.964747 0.750000
O O2 0.500000 0.930094 0.539714
O O3 0.606534 0.899151 0.559876
O O4 0.582054 0.000000 0.500000
O O5 0.413930 0.500000 0.500000
O O6 0.422991 0.540899 0.750000
O O7 0.500000 0.563330 0.549981
O O8 0.400095 0.603329 0.534367
O O9 0.144386 0.840789 0.250000
O O10 0.180858 0.826431 0.522631
O O11 0.203681 0.909257 0.382579
O O12 0.690392 0.093837 0.250000
O O13 0.703712 0.161039 0.453522
O O14 0.699103 0.059890 0.510622
O O15 0.233963 0.793758 0.750000
O O16 0.250000 0.750000 0.500000
O O17 0.262402 0.979100 0.250000
O O18 0.213056 0.000000 0.000000
#
# Coordination Sequence:
#
# PCOD8255633 Si02
#       6
#    16  16  16  16  16  16
#     4   9  17  29  45  66  93 123 152 180 211 252
#     4   9  17  29  46  69  98 131 163 193 226 268
#     4   9  18  31  46  66  92 121 154 191 230 274
#     4   9  18  31  46  65  88 115 148 184 222 268
#     4  10  20  34  52  71  90 115 149 192 242 288
#     4  10  18  26  39  61  90 121 149 181 221 265
#
# _framework density 16.970732999999999
#
# number of rings (size 3 to 8) (size 9 to 14) (size 15 to 20)
#    0.000    2.667    0.000    2.000    0.000    4.000 
#    0.000    0.000    0.000    1.000    0.000    4.667 
#    0.000    0.000    0.000    0.000    0.000    0.000 
#
# Total GULP energy -594676.099413 kJ/mol
# GULP energy per Si atom -12389.085404 kJ/mol
# Density = 1.693211 g / cm^3
# Si number density = 16.970733 Si / 1000 Ang^3
#
#
#
# Elastic Constant Matrix: (Units=GPa)
#
#
# Indices 1 2 3 4 5 6 
#
# 1 97.7529 44.8916 33.7231 0.0000 0.0000 0.0000
# 2 44.8916 85.5413 51.3672 0.0000 0.0000 0.0000
# 3 33.7231 51.3672 94.0906 0.0000 0.0000 0.0000
# 4 0.0000 0.0000 0.0000 28.0508 0.0000 0.0000
# 5 0.0000 0.0000 0.0000 0.0000 22.8125 0.0000
# 6 0.0000 0.0000 0.0000 0.0000 0.0000 21.7105
#
#
#
# Elastic Compliance Matrix: (Units=1/GPa)
#
#
# Indices 1 2 3 4 5 6 
#
# 1 0.013611 -0.006269 -0.001456 0.000000 0.000000 0.000000
# 2 -0.006269 0.020279 -0.008824 0.000000 0.000000 0.000000
# 3 -0.001456 -0.008824 0.015967 0.000000 0.000000 0.000000
# 4 0.000000 0.000000 0.000000 0.035650 0.000000 0.000000
# 5 0.000000 0.000000 0.000000 0.000000 0.043836 0.000000
# 6 0.000000 0.000000 0.000000 0.000000 0.000000 0.046061
#
#
# Mechanical properties :
#
#
# Convention : Reuss Voigt Hill
#
# Bulk Modulus (GPa) = 59.66775 59.70539 59.68657
# Shear Modulus (GPa) = 23.35496 24.34162 23.84829
#
# Velocity S-wave (km/s) = 3.71373 3.79136 3.75275
# Velocity P-wave (km/s) = 7.32288 7.37724 7.35011
#
# Compressibility (1/GPa) = 0.01675947
#
# Stress axis : x y z
#
# Youngs Moduli (GPa) = 73.47028 49.31249 62.62788
#
# Poissons Ratio (x) = 0.30912 0.09119
# Poissons Ratio (y) = 0.46055 0.55264
# Poissons Ratio (z) = 0.10698 0.43514
#
# Static dielectric constant tensor:
#      x y z
#    x 3.389670 0.000000 0.000000 
#    y 0.000000 3.210090 0.000000 
#    z 0.000000 0.000000 4.058100 
# 
# 
# High freq. dielectric constant tensor:
#      x y z
#    x 1.650320 0.000000 0.000000 
#    y 0.000000 1.620290 0.000000 
#    z 0.000000 0.000000 1.664180 
# 
# From -- ./inp_files/10713.got.cif
#   From: 2010.03.12/outbox.cif.g09.slc.cpg/sg63_6_cif.got.tgz:10713.got - 2010.04.10 19:34:48.
