data_PCOD8255061
_publ_section_title
;
Structure prediction by ZEFSAII (Michael W. Deem and Ramdas Pophale) SiO2 
 PCOD8255061
Probable space group: P N M A
;
_chemical_formula_sum "Si O2"
_cell_formula_units_Z 48
_cell_length_a 15.989287
_cell_length_b 15.702560
_cell_length_c 7.848938
_cell_angle_alpha 90.000000
_cell_angle_beta 90.000000
_cell_angle_gamma 90.000000
_cell_volume 1970.654358
_symmetry_space_group_name_H-M "P N M A"
_symmetry_group_IT_number 62
_symmetry_cell_setting 'orthorhombic'
loop_
_space_group_symop_operation_xyz
x,y,z
1/2-x,-y,1/2+z
1/2+x,1/2-y,1/2-z
-x,1/2+y,-z
-x,-y,-z
1/2+x,y,1/2-z
1/2-x,1/2+y,1/2+z
x,1/2-y,z
loop_
_atom_site_type_symbol
_atom_site_label
_atom_site_fract_x
_atom_site_fract_y
_atom_site_fract_z
Si Si1 0.863996 0.152967 0.625029
Si Si2 0.623192 0.156925 0.027864
Si Si3 0.753115 0.550584 0.340197
Si Si4 0.118470 0.507669 0.910845
Si Si5 0.040640 0.648713 0.709745
Si Si6 0.525878 0.156728 0.676070
O O1 0.840663 0.250000 0.596546
O O2 0.777761 0.108609 0.681367
O O3 0.901480 0.117633 0.448007
O O4 0.929243 0.140374 0.779542
O O5 0.655488 0.250000 0.083968
O O6 0.555778 0.123735 0.166287
O O7 0.704952 0.098516 0.003415
O O8 0.576674 0.163665 0.849256
O O9 0.822635 0.491004 0.256801
O O10 0.672005 0.504246 0.416099
O O11 0.064908 0.595414 0.880674
O O12 0.059626 0.424514 0.928135
O O13 0.049774 0.750000 0.741820
O O14 0.535299 0.250000 0.581247
#
# Coordination Sequence:
#
# PCOD8255061 Si02
#       6
#     8   8   8   8   8   8
#     4   9  18  35  59  83 109 143 183 228 279 336
#     4   8  16  33  56  78 103 142 186 222 267 334
#     4  11  22  34  53  82 114 145 185 234 284 326
#     4  11  23  36  55  82 113 149 188 233 280 329
#     4   9  19  37  59  82 109 145 187 228 273 331
#     4   8  17  35  57  79 104 142 189 228 273 338
#
# _framework density 24.357391
#
# number of rings (size 3 to 8) (size 9 to 14) (size 15 to 20)
#    0.000    2.667    0.000    3.500    0.000   10.000 
#    0.000    0.833    0.000    2.000    0.000    1.167 
#    0.000    0.000    0.000    0.000    0.000    0.000 
#
# Total GULP energy -594791.044002 kJ/mol
# GULP energy per Si atom -12391.480083 kJ/mol
# Density = 2.430195 g / cm^3
# Si number density = 24.357391 Si / 1000 Ang^3
#
#
#
# Elastic Constant Matrix: (Units=GPa)
#
#
# Indices 1 2 3 4 5 6 
#
# 1 67.4942 34.6645 9.8346 0.0000 0.0000 0.0000
# 2 34.6645 96.3268 0.8766 0.0000 0.0000 0.0000
# 3 9.8346 0.8766 52.6222 0.0000 0.0000 0.0000
# 4 0.0000 0.0000 0.0000 -15.1576 0.0000 0.0000
# 5 0.0000 0.0000 0.0000 0.0000 45.5206 0.0000
# 6 0.0000 0.0000 0.0000 0.0000 0.0000 24.8226
#
#
#
# Elastic Compliance Matrix: (Units=1/GPa)
#
#
# Indices 1 2 3 4 5 6 
#
# 1 0.018763 -0.006721 -0.003395 0.000000 0.000000 0.000000
# 2 -0.006721 0.012790 0.001043 0.000000 0.000000 0.000000
# 3 -0.003395 0.001043 0.019620 0.000000 0.000000 0.000000
# 4 0.000000 0.000000 0.000000 -0.065973 0.000000 0.000000
# 5 0.000000 0.000000 0.000000 0.000000 0.021968 0.000000
# 6 0.000000 0.000000 0.000000 0.000000 0.000000 0.040286
#
#
# Mechanical properties :
#
#
# Convention : Reuss Voigt Hill
#
# Bulk Modulus (GPa) = 30.27711 34.13274 32.20492
# Shear Modulus (GPa) = 65.26662 22.44161 43.85412
#
# Velocity S-wave (km/s) = 5.18204 3.03866 4.24777
# Velocity P-wave (km/s) = 6.94709 5.13371 6.10807
#
# Compressibility (1/GPa) = 0.03302826
#
# Stress axis : x y z
#
# Youngs Moduli (GPa) = 53.29750 78.18303 50.96727
#
# Poissons Ratio (x) = 0.52547 0.17301
# Poissons Ratio (y) = 0.35822 -0.05316
# Poissons Ratio (z) = 0.18092 -0.08155
#
# Static dielectric constant tensor:
#      x y z
#    x 4.538320 0.000000 0.000000 
#    y 0.000000 4.739950 0.000000 
#    z 0.000000 0.000000 3.967040 
# 
# 
# High freq. dielectric constant tensor:
#      x y z
#    x 1.971860 0.000000 0.000000 
#    y 0.000000 1.961120 0.000000 
#    z 0.000000 0.000000 1.950950 
# 
# From -- ./inp_files/6418.got.cif
#   From: 2010.03.12/outbox.cif.g09.slc.cpg/sg62_4_cif.got.tgz:6418.got - 2010.04.10 19:12:36.
