data_PCOD8255291
_publ_section_title
;
Structure prediction by ZEFSAII (Michael W. Deem and Ramdas Pophale) SiO2 
 PCOD8255291
Probable space group: P N M A
;
_chemical_formula_sum "Si O2"
_cell_formula_units_Z 48
_cell_length_a 8.448622
_cell_length_b 24.268457
_cell_length_c 15.640814
_cell_angle_alpha 90.000000
_cell_angle_beta 90.000000
_cell_angle_gamma 90.000000
_cell_volume 3206.914607
_symmetry_space_group_name_H-M "P N M A"
_symmetry_group_IT_number 62
_symmetry_cell_setting 'orthorhombic'
loop_
_space_group_symop_operation_xyz
x,y,z
1/2-x,-y,1/2+z
1/2+x,1/2-y,1/2-z
-x,1/2+y,-z
-x,-y,-z
1/2+x,y,1/2-z
1/2-x,1/2+y,1/2+z
x,1/2-y,z
loop_
_atom_site_type_symbol
_atom_site_label
_atom_site_fract_x
_atom_site_fract_y
_atom_site_fract_z
Si Si1 0.778518 0.689117 0.720309
Si Si2 0.037698 0.310888 0.122609
Si Si3 0.549585 0.580679 0.534832
Si Si4 0.884412 0.014146 0.282248
Si Si5 0.412719 0.019778 0.630677
Si Si6 0.171569 0.421977 0.344549
O O1 0.841461 0.750000 0.693280
O O2 0.594472 0.683049 0.696718
O O3 0.874005 0.642115 0.668218
O O4 0.800431 0.681378 0.823232
O O5 0.030765 0.250000 0.079034
O O6 0.013929 0.357362 0.050481
O O7 0.549097 0.570044 0.433266
O O8 0.432285 0.538654 0.582515
O O9 0.728982 0.570722 0.568277
O O10 0.769082 0.975850 0.338423
O O11 0.969515 0.975918 0.211362
O O12 0.781862 0.061504 0.236221
O O13 0.013680 0.041324 0.345626
#
# Coordination Sequence:
#
# PCOD8255291 Si02
#       6
#     8   8   8   8   8   8
#     4   9  15  22  34  53  77 105 132 148 167 212
#     4   9  16  25  38  56  78 104 130 153 179 216
#     4   9  17  27  39  58  81 100 124 159 194 222
#     4   9  16  26  40  54  73 102 131 155 189 229
#     4   9  17  28  41  57  77 100 126 159 193 228
#     4   9  15  24  37  54  78 105 129 156 184 217
#
# _framework density 14.967658
#
# number of rings (size 3 to 8) (size 9 to 14) (size 15 to 20)
#    0.000    3.000    0.000    4.000    0.000    0.667 
#    0.000    0.000    0.000    0.000    0.000    1.167 
#    0.000    0.000    0.000    0.000    0.000    0.000 
#
# Total GULP energy -594825.315938 kJ/mol
# GULP energy per Si atom -12392.194082 kJ/mol
# Density = 1.493359 g / cm^3
# Si number density = 14.967658 Si / 1000 Ang^3
#
#
#
# Elastic Constant Matrix: (Units=GPa)
#
#
# Indices 1 2 3 4 5 6 
#
# 1 60.2117 23.2777 28.3275 0.0000 0.0000 0.0000
# 2 23.2777 82.5220 40.8332 0.0000 0.0000 0.0000
# 3 28.3275 40.8332 63.3633 0.0000 0.0000 0.0000
# 4 0.0000 0.0000 0.0000 21.6590 0.0000 0.0000
# 5 0.0000 0.0000 0.0000 0.0000 15.4521 0.0000
# 6 0.0000 0.0000 0.0000 0.0000 0.0000 13.2802
#
#
#
# Elastic Compliance Matrix: (Units=1/GPa)
#
#
# Indices 1 2 3 4 5 6 
#
# 1 0.021232 -0.001897 -0.008269 0.000000 0.000000 0.000000
# 2 -0.001897 0.017961 -0.010726 0.000000 0.000000 0.000000
# 3 -0.008269 -0.010726 0.026391 0.000000 0.000000 0.000000
# 4 0.000000 0.000000 0.000000 0.046170 0.000000 0.000000
# 5 0.000000 0.000000 0.000000 0.000000 0.064716 0.000000
# 6 0.000000 0.000000 0.000000 0.000000 0.000000 0.075300
#
#
# Mechanical properties :
#
#
# Convention : Reuss Voigt Hill
#
# Bulk Modulus (GPa) = 42.02002 43.44152 42.73077
# Shear Modulus (GPa) = 16.58437 17.65551 17.11994
#
# Velocity S-wave (km/s) = 3.33230 3.43822 3.38567
# Velocity P-wave (km/s) = 6.55289 6.69690 6.62529
#
# Compressibility (1/GPa) = 0.02379818
#
# Stress axis : x y z
#
# Youngs Moduli (GPa) = 47.09864 55.67733 37.89131
#
# Poissons Ratio (x) = 0.10563 0.31334
# Poissons Ratio (y) = 0.08936 0.40643
# Poissons Ratio (z) = 0.38948 0.59721
#
# Static dielectric constant tensor:
#      x y z
#    x 2.950260 0.000000 0.000000 
#    y 0.000000 2.845660 0.000000 
#    z 0.000000 0.000000 2.653490 
# 
# 
# High freq. dielectric constant tensor:
#      x y z
#    x 1.574590 0.000000 0.000000 
#    y 0.000000 1.555460 0.000000 
#    z 0.000000 0.000000 1.530670 
# 
# From -- ./inp_files/11473.got.cif
#   From: 2010.03.12/outbox.cif.g09.slc.cpg/sg62_6_cif.got.tgz:11473.got - 2010.04.10 19:12:36.
