data_PCOD8255401
_publ_section_title
;
Structure prediction by ZEFSAII (Michael W. Deem and Ramdas Pophale) SiO2 
 PCOD8255401
Probable space group: C M C M
;
_chemical_formula_sum "Si O2"
_cell_formula_units_Z 96
_cell_length_a 21.617080
_cell_length_b 13.912311
_cell_length_c 15.341451
_cell_angle_alpha 90.000000
_cell_angle_beta 90.000000
_cell_angle_gamma 90.000000
_cell_volume 4613.842281
_symmetry_space_group_name_H-M "C M C M"
_symmetry_group_IT_number 63
_symmetry_cell_setting 'orthorhombic'
loop_
_space_group_symop_operation_xyz
x,y,z
-x,-y,1/2+z
x,-y,-z
-x,y,1/2-z
-x,-y,-z
x,y,1/2-z
-x,y,z
x,-y,1/2+z
1/2+x,1/2+y,z
1/2-x,1/2-y,1/2+z
1/2+x,1/2-y,-z
1/2-x,1/2+y,1/2-z
1/2-x,1/2-y,-z
1/2+x,1/2+y,1/2-z
1/2-x,1/2+y,z
1/2+x,1/2-y,1/2+z
loop_
_atom_site_type_symbol
_atom_site_label
_atom_site_fract_x
_atom_site_fract_y
_atom_site_fract_z
Si Si1 0.691998 0.777874 0.651103
Si Si2 0.071044 0.093250 0.146220
Si Si3 0.831647 0.251675 0.150416
Si Si4 0.500000 0.256035 0.147926
Si Si5 0.000000 0.611954 0.008725
Si Si6 0.634593 0.113356 0.508055
Si Si7 0.609580 0.388298 0.148929
O O1 0.669298 0.801754 0.750000
O O2 0.764759 0.798267 0.643330
O O3 0.655913 0.845458 0.584658
O O4 0.675706 0.664336 0.631685
O O5 0.072108 0.092081 0.250000
O O6 0.115974 0.178808 0.114000
O O7 0.000000 0.107219 0.113171
O O8 0.100460 0.994121 0.106754
O O9 0.845152 0.283213 0.250000
O O10 0.826742 0.345145 0.088953
O O11 0.500000 0.241869 0.250000
O O12 0.500000 0.148937 0.108505
O O13 0.558762 0.314675 0.112017
O O14 0.064412 0.646382 0.966519
O O15 0.000000 0.500000 0.000000
O O16 0.642830 0.000000 0.500000
O O17 0.596489 0.404271 0.250000
#
# Coordination Sequence:
#
# PCOD8255401 Si02
#       7
#    16  16  16   8   8  16  16
#     4  10  21  39  64  91 120 159 204 254 314 375
#     4   9  17  32  56  86 120 156 196 245 305 370
#     4  10  23  41  61  88 122 164 207 248 306 379
#     4  10  16  30  59  87 115 151 198 258 320 373
#     4  10  22  38  55  83 119 161 207 260 308 349
#     4  11  24  41  61  86 122 163 209 261 305 354
#     4   9  16  29  56  90 117 146 191 249 311 370
#
# _framework density 20.806951999999999
#
# number of rings (size 3 to 8) (size 9 to 14) (size 15 to 20)
#    0.000    2.167    2.500    0.500    1.167    2.000 
#    0.000    6.667    0.000    2.000    0.000    0.000 
#    0.000    0.000    0.000    0.000    0.000    0.000 
#
# Total GULP energy -594647.627518 kJ/mol
# GULP energy per Si atom -12388.492240 kJ/mol
# Density = 2.075959 g / cm^3
# Si number density = 20.806952 Si / 1000 Ang^3
#
#
#
# Elastic Constant Matrix: (Units=GPa)
#
#
# Indices 1 2 3 4 5 6 
#
# 1 112.6347 48.5817 25.7546 0.0000 0.0000 0.0000
# 2 48.5817 132.8260 52.1585 0.0000 0.0000 0.0000
# 3 25.7546 52.1585 71.1684 0.0000 0.0000 0.0000
# 4 0.0000 0.0000 0.0000 29.2470 0.0000 0.0000
# 5 0.0000 0.0000 0.0000 0.0000 18.0593 0.0000
# 6 0.0000 0.0000 0.0000 0.0000 0.0000 29.4132
#
#
#
# Elastic Compliance Matrix: (Units=1/GPa)
#
#
# Indices 1 2 3 4 5 6 
#
# 1 0.010640 -0.003341 -0.001402 0.000000 0.000000 0.000000
# 2 -0.003341 0.011620 -0.007307 0.000000 0.000000 0.000000
# 3 -0.001402 -0.007307 0.019914 0.000000 0.000000 0.000000
# 4 0.000000 0.000000 0.000000 0.034192 0.000000 0.000000
# 5 0.000000 0.000000 0.000000 0.000000 0.055373 0.000000
# 6 0.000000 0.000000 0.000000 0.000000 0.000000 0.033998
#
#
# Mechanical properties :
#
#
# Convention : Reuss Voigt Hill
#
# Bulk Modulus (GPa) = 55.32884 63.29096 59.30990
# Shear Modulus (GPa) = 25.52827 28.01950 26.77389
#
# Velocity S-wave (km/s) = 3.50653 3.67364 3.59106
# Velocity P-wave (km/s) = 6.56076 6.96264 6.76469
#
# Compressibility (1/GPa) = 0.01807376
#
# Stress axis : x y z
#
# Youngs Moduli (GPa) = 93.98602 86.05798 50.21664
#
# Poissons Ratio (x) = 0.28753 0.07039
# Poissons Ratio (y) = 0.31402 0.36694
# Poissons Ratio (z) = 0.13174 0.62884
#
# Static dielectric constant tensor:
#      x y z
#    x 4.174280 0.000000 0.000000 
#    y 0.000000 3.744010 0.000000 
#    z 0.000000 0.000000 3.450690 
# 
# 
# High freq. dielectric constant tensor:
#      x y z
#    x 1.825150 0.000000 0.000000 
#    y 0.000000 1.804930 0.000000 
#    z 0.000000 0.000000 1.791350 
# 
# From -- ./inp_files/35450.got.cif
#   From: 2010.03.12/outbox.cif.g09.slc.cpg/sg63_18_cif.got.tgz:35450.got - 2010.04.10 19:34:48.
