data_PCOD8255524
_publ_section_title
;
Structure prediction by ZEFSAII (Michael W. Deem and Ramdas Pophale) SiO2 
 PCOD8255524
Probable space group: C M C M
;
_chemical_formula_sum "Si O2"
_cell_formula_units_Z 120
_cell_length_a 21.697445
_cell_length_b 16.135193
_cell_length_c 20.928609
_cell_angle_alpha 90.000000
_cell_angle_beta 90.000000
_cell_angle_gamma 90.000000
_cell_volume 7326.948265
_symmetry_space_group_name_H-M "C M C M"
_symmetry_group_IT_number 63
_symmetry_cell_setting 'orthorhombic'
loop_
_space_group_symop_operation_xyz
x,y,z
-x,-y,1/2+z
x,-y,-z
-x,y,1/2-z
-x,-y,-z
x,y,1/2-z
-x,y,z
x,-y,1/2+z
1/2+x,1/2+y,z
1/2-x,1/2-y,1/2+z
1/2+x,1/2-y,-z
1/2-x,1/2+y,1/2-z
1/2-x,1/2-y,-z
1/2+x,1/2+y,1/2-z
1/2-x,1/2+y,z
1/2+x,1/2-y,1/2+z
loop_
_atom_site_type_symbol
_atom_site_label
_atom_site_fract_x
_atom_site_fract_y
_atom_site_fract_z
Si Si1 0.182347 0.416537 0.410498
Si Si2 0.302496 0.584487 0.176603
Si Si3 0.568409 0.857113 0.587766
Si Si4 0.820429 0.040819 0.567261
Si Si5 0.158424 0.442438 0.820937
Si Si6 0.904845 0.500000 0.000000
Si Si7 0.660418 0.277442 0.048286
Si Si8 0.708789 0.266866 0.908557
O O1 0.247449 0.447705 0.436486
O O2 0.154041 0.467461 0.352092
O O3 0.136800 0.427885 0.469431
O O4 0.184835 0.322644 0.387828
O O5 0.327016 0.575377 0.250000
O O6 0.333806 0.514938 0.130651
O O7 0.229017 0.583805 0.175842
O O8 0.317924 0.673608 0.146411
O O9 0.500000 0.829333 0.610297
O O10 0.613974 0.875609 0.646199
O O11 0.599437 0.779549 0.550620
O O12 0.556763 0.942793 0.548267
O O13 0.852927 0.130634 0.577275
O O14 0.842644 0.000000 0.500000
O O15 0.133399 0.450501 0.750000
O O16 0.716637 0.232191 0.085694
O O17 0.680247 0.294607 0.975673
#
# Coordination Sequence:
#
# PCOD8255524 Si02
#       8
#    16  16  16  16  16   8  16  16
#     4   9  17  25  47  71  99 124 154 204 241 296
#     4  10  19  31  47  74 107 131 160 205 258 311
#     4  11  21  33  49  70  99 133 171 212 251 289
#     4  10  17  28  48  73  97 133 164 195 251 312
#     4   9  19  33  45  63  96 135 169 200 240 295
#     4  10  17  30  46  74 100 122 159 200 252 294
#     4  10  19  29  48  75 100 126 170 208 248 304
#     4  10  17  28  48  76 101 128 161 201 255 315
#
# _framework density 16.377896
#
# number of rings (size 3 to 8) (size 9 to 14) (size 15 to 20)
#    0.000    2.133    4.667    0.200    0.000    0.800 
#    0.000    2.667    0.000    0.400    0.000    0.000 
#    0.000    1.600    0.000    0.000    0.000    0.000 
#
# Total GULP energy -743414.533227 kJ/mol
# GULP energy per Si atom -12390.242220 kJ/mol
# Density = 1.634062 g / cm^3
# Si number density = 16.377896 Si / 1000 Ang^3
#
#
#
# Elastic Constant Matrix: (Units=GPa)
#
#
# Indices 1 2 3 4 5 6 
#
# 1 45.6079 21.2709 8.9035 0.0000 0.0000 0.0000
# 2 21.2709 98.7397 38.7181 0.0000 0.0000 0.0000
# 3 8.9035 38.7181 93.3957 0.0000 0.0000 0.0000
# 4 0.0000 0.0000 0.0000 22.2524 0.0000 0.0000
# 5 0.0000 0.0000 0.0000 0.0000 4.8831 0.0000
# 6 0.0000 0.0000 0.0000 0.0000 0.0000 34.7745
#
#
#
# Elastic Compliance Matrix: (Units=1/GPa)
#
#
# Indices 1 2 3 4 5 6 
#
# 1 0.024377 -0.005183 -0.000175 0.000000 0.000000 0.000000
# 2 -0.005183 0.013195 -0.004976 0.000000 0.000000 0.000000
# 3 -0.000175 -0.004976 0.012787 0.000000 0.000000 0.000000
# 4 0.000000 0.000000 0.000000 0.044939 0.000000 0.000000
# 5 0.000000 0.000000 0.000000 0.000000 0.204790 0.000000
# 6 0.000000 0.000000 0.000000 0.000000 0.000000 0.028757
#
#
# Mechanical properties :
#
#
# Convention : Reuss Voigt Hill
#
# Bulk Modulus (GPa) = 33.68023 41.72537 37.70280
# Shear Modulus (GPa) = 13.91166 23.63872 18.77519
#
# Velocity S-wave (km/s) = 2.91764 3.80324 3.38949
# Velocity P-wave (km/s) = 5.65325 6.69463 6.19586
#
# Compressibility (1/GPa) = 0.02969101
#
# Stress axis : x y z
#
# Youngs Moduli (GPa) = 41.02153 75.78399 78.20579
#
# Poissons Ratio (x) = 0.39277 0.01372
# Poissons Ratio (y) = 0.21260 0.38917
# Poissons Ratio (z) = 0.00719 0.37712
#
# Static dielectric constant tensor:
#      x y z
#    x 2.639880 0.000000 0.000000 
#    y 0.000000 3.258270 0.000000 
#    z 0.000000 0.000000 3.181360 
# 
# 
# High freq. dielectric constant tensor:
#      x y z
#    x 1.576070 0.000000 0.000000 
#    y 0.000000 1.640320 0.000000 
#    z 0.000000 0.000000 1.621060 
# 
# From -- ./inp_files/57753.got.cif
#   From: 2010.03.12/outbox.cif.g09.slc.cpg/sg63_29_cif.got.tgz:57753.got - 2010.04.10 19:34:48.
