data_PCOD8255375
_publ_section_title
;
Structure prediction by ZEFSAII (Michael W. Deem and Ramdas Pophale) SiO2 
 PCOD8255375
Probable space group: C M C M
;
_chemical_formula_sum "Si O2"
_cell_formula_units_Z 112
_cell_length_a 19.935927
_cell_length_b 17.042911
_cell_length_c 19.393719
_cell_angle_alpha 90.000000
_cell_angle_beta 90.000000
_cell_angle_gamma 90.000000
_cell_volume 6589.330782
_symmetry_space_group_name_H-M "C M C M"
_symmetry_group_IT_number 63
_symmetry_cell_setting 'orthorhombic'
loop_
_space_group_symop_operation_xyz
x,y,z
-x,-y,1/2+z
x,-y,-z
-x,y,1/2-z
-x,-y,-z
x,y,1/2-z
-x,y,z
x,-y,1/2+z
1/2+x,1/2+y,z
1/2-x,1/2-y,1/2+z
1/2+x,1/2-y,-z
1/2-x,1/2+y,1/2-z
1/2-x,1/2-y,-z
1/2+x,1/2+y,1/2-z
1/2-x,1/2+y,z
1/2+x,1/2-y,1/2+z
loop_
_atom_site_type_symbol
_atom_site_label
_atom_site_fract_x
_atom_site_fract_y
_atom_site_fract_z
Si Si1 0.208395 0.917674 0.827260
Si Si2 0.336139 0.096961 0.923431
Si Si3 0.862635 0.456287 0.670176
Si Si4 0.315543 0.545003 0.567138
Si Si5 0.295256 0.265590 0.595067
Si Si6 0.423047 0.861228 0.552150
Si Si7 0.341688 0.712124 0.555578
O O1 0.184450 0.930244 0.750000
O O2 0.288143 0.922444 0.835626
O O3 0.183071 0.831997 0.850786
O O4 0.173415 0.987615 0.868818
O O5 0.261736 0.070168 0.943852
O O6 0.335986 0.185026 0.892205
O O7 0.367555 0.042454 0.864218
O O8 0.378739 0.094419 0.994318
O O9 0.886139 0.461090 0.750000
O O10 0.911110 0.399102 0.627212
O O11 0.341740 0.500000 0.500000
O O12 0.359453 0.623902 0.580998
O O13 0.310426 0.299835 0.519994
O O14 0.215611 0.250683 0.603612
O O15 0.500000 0.870011 0.530844
O O16 0.406069 0.768472 0.556010
#
# Coordination Sequence:
#
# PCOD8255375 Si02
#       7
#    16  16  16  16  16  16  16
#     4  10  18  28  45  75 106 128 153 193 244 297
#     4   9  19  30  50  75  98 123 160 203 245 285
#     4  10  20  33  46  66 101 134 161 195 241 290
#     4  10  16  28  51  73  98 127 154 188 246 311
#     4   9  15  28  48  72  96 125 152 191 245 304
#     4  11  21  34  51  69  93 128 174 211 236 273
#     4   9  17  29  48  71  93 121 163 195 241 289
#
# _framework density 16.997173
#
# number of rings (size 3 to 8) (size 9 to 14) (size 15 to 20)
#    0.000    2.286    2.857    3.000    0.000    2.000 
#    0.000    2.857    0.000    0.429    0.000    0.000 
#    0.000    4.571    0.000    0.000    0.000    0.000 
#
# Total GULP energy -694282.334521 kJ/mol
# GULP energy per Si atom -12397.898831 kJ/mol
# Density = 1.695849 g / cm^3
# Si number density = 16.997173 Si / 1000 Ang^3
#
#
#
# Elastic Constant Matrix: (Units=GPa)
#
#
# Indices 1 2 3 4 5 6 
#
# 1 27.6386 9.5404 17.2236 0.0000 0.0000 0.0000
# 2 9.5404 129.5935 61.9794 0.0000 0.0000 0.0000
# 3 17.2236 61.9794 112.8022 0.0000 0.0000 0.0000
# 4 0.0000 0.0000 0.0000 25.0276 0.0000 0.0000
# 5 0.0000 0.0000 0.0000 0.0000 9.7785 0.0000
# 6 0.0000 0.0000 0.0000 0.0000 0.0000 12.6583
#
#
#
# Elastic Compliance Matrix: (Units=1/GPa)
#
#
# Indices 1 2 3 4 5 6 
#
# 1 0.039986 -0.000032 -0.006088 0.000000 0.000000 0.000000
# 2 -0.000032 0.010467 -0.005746 0.000000 0.000000 0.000000
# 3 -0.006088 -0.005746 0.012952 0.000000 0.000000 0.000000
# 4 0.000000 0.000000 0.000000 0.039956 0.000000 0.000000
# 5 0.000000 0.000000 0.000000 0.000000 0.102266 0.000000
# 6 0.000000 0.000000 0.000000 0.000000 0.000000 0.079000
#
#
# Mechanical properties :
#
#
# Convention : Reuss Voigt Hill
#
# Bulk Modulus (GPa) = 25.20626 49.72460 37.46543
# Shear Modulus (GPa) = 15.54811 21.57894 18.56352
#
# Velocity S-wave (km/s) = 3.02776 3.56695 3.30836
# Velocity P-wave (km/s) = 5.20432 6.80311 6.05670
#
# Compressibility (1/GPa) = 0.03967269
#
# Stress axis : x y z
#
# Youngs Moduli (GPa) = 25.00870 95.53856 77.20892
#
# Poissons Ratio (x) = 0.00307 0.47003
# Poissons Ratio (y) = 0.00080 0.44366
# Poissons Ratio (z) = 0.15225 0.54898
#
# Static dielectric constant tensor:
#      x y z
#    x 2.633540 0.000000 0.000000 
#    y 0.000000 3.423700 0.000000 
#    z 0.000000 0.000000 3.080620 
# 
# 
# High freq. dielectric constant tensor:
#      x y z
#    x 1.590280 0.000000 0.000000 
#    y 0.000000 1.677820 0.000000 
#    z 0.000000 0.000000 1.642600 
# 
# From -- ./inp_files/47346.got.cif
#   From: 2010.03.12/outbox.cif.g09.slc.cpg/sg63_24_cif.got.tgz:47346.got - 2010.04.10 19:34:48.
