data_PCOD8255206
_publ_section_title
;
Structure prediction by ZEFSAII (Michael W. Deem and Ramdas Pophale) SiO2 
 PCOD8255206
Probable space group: P N M A
;
_chemical_formula_sum "Si O2"
_cell_formula_units_Z 48
_cell_length_a 18.426557
_cell_length_b 8.369253
_cell_length_c 14.604409
_cell_angle_alpha 90.000000
_cell_angle_beta 90.000000
_cell_angle_gamma 90.000000
_cell_volume 2252.241095
_symmetry_space_group_name_H-M "P N M A"
_symmetry_group_IT_number 62
_symmetry_cell_setting 'orthorhombic'
loop_
_space_group_symop_operation_xyz
x,y,z
1/2-x,-y,1/2+z
1/2+x,1/2-y,1/2-z
-x,1/2+y,-z
-x,-y,-z
1/2+x,y,1/2-z
1/2-x,1/2+y,1/2+z
x,1/2-y,z
loop_
_atom_site_type_symbol
_atom_site_label
_atom_site_fract_x
_atom_site_fract_y
_atom_site_fract_z
Si Si1 0.175986 0.067455 0.659963
Si Si2 0.777054 0.933058 0.990883
Si Si3 0.524979 0.935503 0.902981
Si Si4 0.586284 0.934757 0.238416
Si Si5 0.930668 0.065578 0.948406
Si Si6 0.762116 0.565218 0.683629
O O1 0.180677 0.250000 0.691860
O O2 0.232495 0.043317 0.577993
O O3 0.095482 0.031213 0.627143
O O4 0.194758 0.958012 0.747396
O O5 0.761915 0.750000 0.964983
O O6 0.862044 0.967842 0.984374
O O7 0.749324 0.963996 0.092709
O O8 0.544124 0.750000 0.910937
O O9 0.461660 0.960832 0.829813
O O10 0.500000 0.000000 0.000000
O O11 0.583815 0.750000 0.208565
O O12 0.556467 0.958527 0.340589
O O13 0.667739 0.999890 0.236272
O O14 0.917969 0.250000 0.972887
O O15 0.000000 0.000000 0.000000
O O16 0.770449 0.750000 0.657801
#
# Coordination Sequence:
#
# PCOD8255206 Si02
#       6
#     8   8   8   8   8   8
#     4  12  25  45  69  99 136 174 222 277 332 395
#     4  12  25  44  70  99 135 176 222 275 333 396
#     4  12  26  45  69  99 135 177 224 276 334 399
#     4  11  24  45  70  99 137 179 222 274 336 396
#     4  11  25  44  68  97 136 178 224 276 332 399
#     4  12  25  43  69 100 133 175 223 273 333 397
#
# _framework density 21.312104999999999
#
# number of rings (size 3 to 8) (size 9 to 14) (size 15 to 20)
#    0.000    0.333    1.667    8.000    2.333    2.000 
#    0.000    0.000    0.000    0.000    0.000    0.000 
#    0.000    0.000    0.000    0.000    0.000    0.000 
#
# Total GULP energy -595690.325659 kJ/mol
# GULP energy per Si atom -12410.215118 kJ/mol
# Density = 2.126360 g / cm^3
# Si number density = 21.312105 Si / 1000 Ang^3
#
#
#
# Elastic Constant Matrix: (Units=GPa)
#
#
# Indices 1 2 3 4 5 6 
#
# 1 85.9796 22.4712 18.1453 0.0000 0.0000 0.0000
# 2 22.4712 104.3500 33.8059 0.0000 0.0000 0.0000
# 3 18.1453 33.8059 85.7296 0.0000 0.0000 0.0000
# 4 0.0000 0.0000 0.0000 37.8222 0.0000 0.0000
# 5 0.0000 0.0000 0.0000 0.0000 38.5091 0.0000
# 6 0.0000 0.0000 0.0000 0.0000 0.0000 33.3110
#
#
#
# Elastic Compliance Matrix: (Units=1/GPa)
#
#
# Indices 1 2 3 4 5 6 
#
# 1 0.012569 -0.002115 -0.001826 0.000000 0.000000 0.000000
# 2 -0.002115 0.011343 -0.004025 0.000000 0.000000 0.000000
# 3 -0.001826 -0.004025 0.013638 0.000000 0.000000 0.000000
# 4 0.000000 0.000000 0.000000 0.026439 0.000000 0.000000
# 5 0.000000 0.000000 0.000000 0.000000 0.025968 0.000000
# 6 0.000000 0.000000 0.000000 0.000000 0.000000 0.030020
#
#
# Mechanical properties :
#
#
# Convention : Reuss Voigt Hill
#
# Bulk Modulus (GPa) = 46.25974 47.21156 46.73565
# Shear Modulus (GPa) = 34.93678 35.37092 35.15385
#
# Velocity S-wave (km/s) = 4.05321 4.07832 4.06578
# Velocity P-wave (km/s) = 6.60739 6.66164 6.63457
#
# Compressibility (1/GPa) = 0.02161707
#
# Stress axis : x y z
#
# Youngs Moduli (GPa) = 79.56177 88.16335 73.32265
#
# Poissons Ratio (x) = 0.18646 0.13391
# Poissons Ratio (y) = 0.16827 0.29513
# Poissons Ratio (z) = 0.14530 0.35487
#
# Static dielectric constant tensor:
#      x y z
#    x 3.973980 0.000000 0.000000 
#    y 0.000000 0.323910 0.000000 
#    z 0.000000 0.000000 3.828960 
# 
# 
# High freq. dielectric constant tensor:
#      x y z
#    x 1.845580 0.000000 0.000000 
#    y 0.000000 1.851970 0.000000 
#    z 0.000000 0.000000 1.850160 
# 
# From -- ./inp_files/19632.got.cif
#   From: 2010.03.12/outbox.cif.g09.slc.cpg/sg62_10_cif.got.tgz:19632.got - 2010.04.10 19:12:36.
