data_PCOD8255661
_publ_section_title
;
Structure prediction by ZEFSAII (Michael W. Deem and Ramdas Pophale) SiO2 
 PCOD8255661
Probable space group: C M C M
;
_chemical_formula_sum "Si O2"
_cell_formula_units_Z 96
_cell_length_a 27.585016
_cell_length_b 30.936120
_cell_length_c 9.088930
_cell_angle_alpha 90.000000
_cell_angle_beta 90.000000
_cell_angle_gamma 90.000000
_cell_volume 7756.250780
_symmetry_space_group_name_H-M "C M C M"
_symmetry_group_IT_number 63
_symmetry_cell_setting 'orthorhombic'
loop_
_space_group_symop_operation_xyz
x,y,z
-x,-y,1/2+z
x,-y,-z
-x,y,1/2-z
-x,-y,-z
x,y,1/2-z
-x,y,z
x,-y,1/2+z
1/2+x,1/2+y,z
1/2-x,1/2-y,1/2+z
1/2+x,1/2-y,-z
1/2-x,1/2+y,1/2-z
1/2-x,1/2-y,-z
1/2+x,1/2+y,1/2-z
1/2-x,1/2+y,z
1/2+x,1/2-y,1/2+z
loop_
_atom_site_type_symbol
_atom_site_label
_atom_site_fract_x
_atom_site_fract_y
_atom_site_fract_z
Si Si1 0.688998 0.337415 0.413413
Si Si2 0.892348 0.121811 0.078772
Si Si3 0.055495 0.789299 0.578507
Si Si4 0.863044 0.254540 0.915880
Si Si5 0.555867 0.544130 0.577450
Si Si6 0.778615 0.712051 0.577817
O O1 0.681150 0.356767 0.250000
O O2 0.663289 0.368656 0.531265
O O3 0.665729 0.290139 0.421484
O O4 0.746803 0.331895 0.445787
O O5 0.893810 0.110212 0.250000
O O6 0.925576 0.162874 0.039865
O O7 0.911418 0.082000 0.985718
O O8 0.062157 0.780025 0.750000
O O9 0.084805 0.752421 0.491472
O O10 0.000000 0.786398 0.528257
O O11 0.870980 0.270877 0.750000
O O12 0.831963 0.290995 0.003968
O O13 0.572067 0.500000 0.500000
O O14 0.564967 0.539442 0.750000
O O15 0.500000 0.554608 0.541257
O O16 0.784186 0.722699 0.750000
O O17 0.750000 0.750000 0.500000
#
# Coordination Sequence:
#
# PCOD8255661 Si02
#       6
#    16  16  16  16  16  16
#     4   8  15  25  35  49  67  85 104 126 156 194
#     4  10  18  27  40  55  69  84 104 132 166 203
#     4   9  17  27  37  49  66  88 112 138 168 201
#     4   9  16  24  34  48  65  85 108 133 161 194
#     4  10  20  32  44  55  67  84 106 133 165 202
#     4   9  15  23  35  49  65  84 105 129 157 191
#
# _framework density 12.377114000000001
#
# number of rings (size 3 to 8) (size 9 to 14) (size 15 to 20)
#    0.000    2.833    0.000    3.500    0.000    7.333 
#    0.000    0.000    0.000    0.000    0.000    0.000 
#    0.000    0.000    0.000    0.000    0.000    0.000 
#
# Total GULP energy -594933.120804 kJ/mol
# GULP energy per Si atom -12394.440017 kJ/mol
# Density = 1.234894 g / cm^3
# Si number density = 12.377114 Si / 1000 Ang^3
#
#
#
# Elastic Constant Matrix: (Units=GPa)
#
#
# Indices 1 2 3 4 5 6 
#
# 1 83.7926 38.3443 46.8160 0.0000 0.0000 0.0000
# 2 38.3443 31.4444 29.0543 0.0000 0.0000 0.0000
# 3 46.8160 29.0543 78.0989 0.0000 0.0000 0.0000
# 4 0.0000 0.0000 0.0000 16.3775 0.0000 0.0000
# 5 0.0000 0.0000 0.0000 0.0000 21.5673 0.0000
# 6 0.0000 0.0000 0.0000 0.0000 0.0000 14.8106
#
#
#
# Elastic Compliance Matrix: (Units=1/GPa)
#
#
# Indices 1 2 3 4 5 6 
#
# 1 0.028981 -0.029392 -0.006438 0.000000 0.000000 0.000000
# 2 -0.029392 0.078268 -0.011498 0.000000 0.000000 0.000000
# 3 -0.006438 -0.011498 0.020941 0.000000 0.000000 0.000000
# 4 0.000000 0.000000 0.000000 0.061059 0.000000 0.000000
# 5 0.000000 0.000000 0.000000 0.000000 0.046366 0.000000
# 6 0.000000 0.000000 0.000000 0.000000 0.000000 0.067519
#
#
# Mechanical properties :
#
#
# Convention : Reuss Voigt Hill
#
# Bulk Modulus (GPa) = 29.82102 46.86278 38.34190
# Shear Modulus (GPa) = 12.22580 15.82583 14.02582
#
# Velocity S-wave (km/s) = 3.14630 3.57968 3.36996
# Velocity P-wave (km/s) = 6.11105 7.41823 6.79614
#
# Compressibility (1/GPa) = 0.03353340
#
# Stress axis : x y z
#
# Youngs Moduli (GPa) = 34.50485 12.77662 47.75226
#
# Poissons Ratio (x) = 0.37553 0.30745
# Poissons Ratio (y) = 1.01416 0.54908
# Poissons Ratio (z) = 0.22216 0.14691
#
# Static dielectric constant tensor:
#      x y z
#    x 2.861220 0.000000 0.000000 
#    y 0.000000 2.236720 0.000000 
#    z 0.000000 0.000000 2.698620 
# 
# 
# High freq. dielectric constant tensor:
#      x y z
#    x 1.461150 0.000000 0.000000 
#    y 0.000000 1.409790 0.000000 
#    z 0.000000 0.000000 1.488010 
# 
# From -- ./inp_files/12973.got.cif
#   From: 2010.03.12/outbox.cif.g09.slc.cpg/sg63_7_cif.got.tgz:12973.got - 2010.04.10 19:34:48.
