data_PCOD8255545
_publ_section_title
;
Structure prediction by ZEFSAII (Michael W. Deem and Ramdas Pophale) SiO2 
 PCOD8255545
Probable space group: C M C M
;
_chemical_formula_sum "Si O2"
_cell_formula_units_Z 80
_cell_length_a 23.655770
_cell_length_b 26.355411
_cell_length_c 8.500200
_cell_angle_alpha 90.000000
_cell_angle_beta 90.000000
_cell_angle_gamma 90.000000
_cell_volume 5299.513789
_symmetry_space_group_name_H-M "C M C M"
_symmetry_group_IT_number 63
_symmetry_cell_setting 'orthorhombic'
loop_
_space_group_symop_operation_xyz
x,y,z
-x,-y,1/2+z
x,-y,-z
-x,y,1/2-z
-x,-y,-z
x,y,1/2-z
-x,y,z
x,-y,1/2+z
1/2+x,1/2+y,z
1/2-x,1/2-y,1/2+z
1/2+x,1/2-y,-z
1/2-x,1/2+y,1/2-z
1/2-x,1/2-y,-z
1/2+x,1/2+y,1/2-z
1/2-x,1/2+y,z
1/2+x,1/2-y,1/2+z
loop_
_atom_site_type_symbol
_atom_site_label
_atom_site_fract_x
_atom_site_fract_y
_atom_site_fract_z
Si Si1 0.500000 0.399396 0.063303
Si Si2 0.000000 0.785724 0.063415
Si Si3 0.184329 0.852931 0.934731
Si Si4 0.882235 0.055283 0.563064
Si Si5 0.378999 0.743862 0.934986
Si Si6 0.718396 0.201006 0.935015
O O1 0.500000 0.397327 0.250000
O O2 0.500000 0.342604 0.991912
O O3 0.555487 0.428711 0.002432
O O4 0.944205 0.755533 0.007560
O O5 0.000000 0.791137 0.250000
O O6 0.177337 0.845536 0.750000
O O7 0.164392 0.907987 0.988514
O O8 0.147144 0.810576 0.022184
O O9 0.250636 0.847103 0.984239
O O10 0.878033 0.057412 0.750000
O O11 0.867894 0.000000 0.500000
O O12 0.373941 0.751353 0.750000
O O13 0.347346 0.791522 0.017665
O O14 0.724597 0.196356 0.750000
O O15 0.750000 0.250000 0.000000
#
# Coordination Sequence:
#
# PCOD8255545 Si02
#       6
#     8   8  16  16  16  16
#     4   9  17  31  47  61  82 114 150 187 227 263
#     4   9  16  27  45  65  86 117 148 180 220 259
#     4  11  20  31  45  63  83 109 144 182 223 265
#     4  11  21  34  48  63  84 112 148 189 229 266
#     4  10  17  29  46  64  86 113 144 178 216 261
#     4  10  18  29  44  63  84 108 138 176 219 263
#
# _framework density 15.095725
#
# number of rings (size 3 to 8) (size 9 to 14) (size 15 to 20)
#    0.000    1.800    2.000    7.500    0.000    0.000 
#    0.000    4.500    0.000    0.000    0.000    0.000 
#    0.000    0.000    0.000    0.900    0.000   11.400 
#
# Total GULP energy -495879.828531 kJ/mol
# GULP energy per Si atom -12396.995713 kJ/mol
# Density = 1.506137 g / cm^3
# Si number density = 15.095725 Si / 1000 Ang^3
#
#
#
# Elastic Constant Matrix: (Units=GPa)
#
#
# Indices 1 2 3 4 5 6 
#
# 1 109.1280 58.7781 18.4157 0.0000 0.0000 0.0000
# 2 58.7781 70.7939 15.7558 0.0000 0.0000 0.0000
# 3 18.4157 15.7558 59.7527 0.0000 0.0000 0.0000
# 4 0.0000 0.0000 0.0000 20.4826 0.0000 0.0000
# 5 0.0000 0.0000 0.0000 0.0000 19.4846 0.0000
# 6 0.0000 0.0000 0.0000 0.0000 0.0000 24.5555
#
#
#
# Elastic Compliance Matrix: (Units=1/GPa)
#
#
# Indices 1 2 3 4 5 6 
#
# 1 0.016717 -0.013527 -0.001585 0.000000 0.000000 0.000000
# 2 -0.013527 0.025951 -0.002674 0.000000 0.000000 0.000000
# 3 -0.001585 -0.002674 0.017929 0.000000 0.000000 0.000000
# 4 0.000000 0.000000 0.000000 0.048822 0.000000 0.000000
# 5 0.000000 0.000000 0.000000 0.000000 0.051323 0.000000
# 6 0.000000 0.000000 0.000000 0.000000 0.000000 0.040724
#
#
# Mechanical properties :
#
#
# Convention : Reuss Voigt Hill
#
# Bulk Modulus (GPa) = 39.95932 47.28600 43.62266
# Shear Modulus (GPa) = 20.37659 22.68621 21.53140
#
# Velocity S-wave (km/s) = 3.67798 3.88083 3.78077
# Velocity P-wave (km/s) = 6.67569 7.17449 6.92958
#
# Compressibility (1/GPa) = 0.02502545
#
# Stress axis : x y z
#
# Youngs Moduli (GPa) = 59.82053 38.53370 55.77447
#
# Poissons Ratio (x) = 0.52123 0.08842
# Poissons Ratio (y) = 0.80916 0.14915
# Poissons Ratio (z) = 0.09484 0.10304
#
# Static dielectric constant tensor:
#      x y z
#    x 3.473320 0.000000 0.000000 
#    y 0.000000 2.793200 0.000000 
#    z 0.000000 0.000000 2.889910 
# 
# 
# High freq. dielectric constant tensor:
#      x y z
#    x 1.574010 0.000000 0.000000 
#    y 0.000000 1.534670 0.000000 
#    z 0.000000 0.000000 1.585480 
# 
# From -- ./inp_files/10376.got.cif
#   From: 2010.03.12/outbox.cif.g09.slc.cpg/sg63_6_cif.got.tgz:10376.got - 2010.04.10 19:34:48.
