data_PCOD8255339
_publ_section_title
;
Structure prediction by ZEFSAII (Michael W. Deem and Ramdas Pophale) SiO2 
 PCOD8255339
Probable space group: C M C M
;
_chemical_formula_sum "Si O2"
_cell_formula_units_Z 96
_cell_length_a 27.990011
_cell_length_b 12.640163
_cell_length_c 18.509269
_cell_angle_alpha 90.000000
_cell_angle_beta 90.000000
_cell_angle_gamma 90.000000
_cell_volume 6548.547933
_symmetry_space_group_name_H-M "C M C M"
_symmetry_group_IT_number 63
_symmetry_cell_setting 'orthorhombic'
loop_
_space_group_symop_operation_xyz
x,y,z
-x,-y,1/2+z
x,-y,-z
-x,y,1/2-z
-x,-y,-z
x,y,1/2-z
-x,y,z
x,-y,1/2+z
1/2+x,1/2+y,z
1/2-x,1/2-y,1/2+z
1/2+x,1/2-y,-z
1/2-x,1/2+y,1/2-z
1/2-x,1/2-y,-z
1/2+x,1/2+y,1/2-z
1/2-x,1/2+y,z
1/2+x,1/2-y,1/2+z
loop_
_atom_site_type_symbol
_atom_site_label
_atom_site_fract_x
_atom_site_fract_y
_atom_site_fract_z
Si Si1 0.898835 0.078393 0.670904
Si Si2 0.811602 0.788914 0.943522
Si Si3 0.500000 0.620370 0.025429
Si Si4 0.000000 0.034494 0.170798
Si Si5 0.746780 0.907382 0.446738
Si Si6 0.100712 0.873284 0.016699
Si Si7 0.197784 0.962142 0.831489
O O1 0.896158 0.136539 0.750000
O O2 0.952140 0.034042 0.659354
O O3 0.887631 0.151582 0.601298
O O4 0.858615 0.987565 0.669675
O O5 0.799176 0.665947 0.929776
O O6 0.867115 0.805044 0.962311
O O7 0.796137 0.850236 0.871220
O O8 0.785900 0.835614 0.014032
O O9 0.500000 0.627665 0.112563
O O10 0.547871 0.673714 0.995966
O O11 0.500000 0.500000 0.000000
O O12 0.000000 0.086344 0.250000
O O13 0.729524 0.000000 0.500000
O O14 0.770694 0.950184 0.373326
O O15 0.106106 0.000000 0.000000
O O16 0.217839 0.953415 0.750000
#
# Coordination Sequence:
#
# PCOD8255339 Si02
#       7
#    16  16   8   8  16  16  16
#     4  10  17  24  36  55  83 113 135 163 205 245
#     4  10  17  28  46  60  76 110 142 172 207 250
#     4  10  16  22  36  58  81 114 137 168 210 248
#     4  10  16  22  32  52  80 112 140 158 194 252
#     4   9  18  31  44  59  79 104 142 178 210 246
#     4  11  15  26  40  58  85 109 141 175 202 254
#     4  10  18  28  41  60  85 109 134 169 211 252
#
# _framework density 14.659738000000001
#
# number of rings (size 3 to 8) (size 9 to 14) (size 15 to 20)
#    0.000    2.000    6.667    0.500    0.000    0.667 
#    0.000    0.000    0.000    0.000    0.000    0.583 
#    0.000    0.000    0.000    0.000    0.000   10.750 
#
# Total GULP energy -594642.983671 kJ/mol
# GULP energy per Si atom -12388.395493 kJ/mol
# Density = 1.462637 g / cm^3
# Si number density = 14.659738 Si / 1000 Ang^3
#
#
#
# Elastic Constant Matrix: (Units=GPa)
#
#
# Indices 1 2 3 4 5 6 
#
# 1 83.6164 39.4233 25.9107 0.0000 0.0000 0.0000
# 2 39.4233 55.2333 27.2588 0.0000 0.0000 0.0000
# 3 25.9107 27.2588 130.4351 0.0000 0.0000 0.0000
# 4 0.0000 0.0000 0.0000 7.6985 0.0000 0.0000
# 5 0.0000 0.0000 0.0000 0.0000 20.6209 0.0000
# 6 0.0000 0.0000 0.0000 0.0000 0.0000 9.2858
#
#
#
# Elastic Compliance Matrix: (Units=1/GPa)
#
#
# Indices 1 2 3 4 5 6 
#
# 1 0.018142 -0.012455 -0.001001 0.000000 0.000000 0.000000
# 2 -0.012455 0.028738 -0.003532 0.000000 0.000000 0.000000
# 3 -0.001001 -0.003532 0.008604 0.000000 0.000000 0.000000
# 4 0.000000 0.000000 0.000000 0.129896 0.000000 0.000000
# 5 0.000000 0.000000 0.000000 0.000000 0.048494 0.000000
# 6 0.000000 0.000000 0.000000 0.000000 0.000000 0.107691
#
#
# Mechanical properties :
#
#
# Convention : Reuss Voigt Hill
#
# Bulk Modulus (GPa) = 46.49391 50.49670 48.49531
# Shear Modulus (GPa) = 13.06477 19.30051 16.18264
#
# Velocity S-wave (km/s) = 2.98854 3.63239 3.32608
# Velocity P-wave (km/s) = 6.61005 7.21893 6.92119
#
# Compressibility (1/GPa) = 0.02150819
#
# Stress axis : x y z
#
# Youngs Moduli (GPa) = 55.12161 34.79760 116.23137
#
# Poissons Ratio (x) = 0.43340 0.11634
# Poissons Ratio (y) = 0.68653 0.41048
# Poissons Ratio (z) = 0.05518 0.12289
#
# Static dielectric constant tensor:
#      x y z
#    x 3.059190 0.000000 0.000000 
#    y 0.000000 2.449500 0.000000 
#    z 0.000000 0.000000 3.260050 
# 
# 
# High freq. dielectric constant tensor:
#      x y z
#    x 1.564730 0.000000 0.000000 
#    y 0.000000 1.483080 0.000000 
#    z 0.000000 0.000000 1.583200 
# 
# From -- ./inp_files/48994.got.cif
#   From: 2010.03.12/outbox.cif.g09.slc.cpg/sg63_25_cif.got.tgz:48994.got - 2010.04.10 19:34:48.
