data_PCOD8255801
_publ_section_title
;
Structure prediction by ZEFSAII (Michael W. Deem and Ramdas Pophale) SiO2 
 PCOD8255801
Probable space group: C M C M
;
_chemical_formula_sum "Si O2"
_cell_formula_units_Z 80
_cell_length_a 9.022102
_cell_length_b 20.465710
_cell_length_c 24.430276
_cell_angle_alpha 90.000000
_cell_angle_beta 90.000000
_cell_angle_gamma 90.000000
_cell_volume 4510.897118
_symmetry_space_group_name_H-M "C M C M"
_symmetry_group_IT_number 63
_symmetry_cell_setting 'orthorhombic'
loop_
_space_group_symop_operation_xyz
x,y,z
-x,-y,1/2+z
x,-y,-z
-x,y,1/2-z
-x,-y,-z
x,y,1/2-z
-x,y,z
x,-y,1/2+z
1/2+x,1/2+y,z
1/2-x,1/2-y,1/2+z
1/2+x,1/2-y,-z
1/2-x,1/2+y,1/2-z
1/2-x,1/2-y,-z
1/2+x,1/2+y,1/2-z
1/2-x,1/2+y,z
1/2+x,1/2-y,1/2+z
loop_
_atom_site_type_symbol
_atom_site_label
_atom_site_fract_x
_atom_site_fract_y
_atom_site_fract_z
Si Si1 0.825751 0.492672 0.250000
Si Si2 0.331236 0.625799 0.250000
Si Si3 0.326390 0.486762 0.358930
Si Si4 0.168632 0.138941 0.369103
Si Si5 0.327451 0.060354 0.962599
Si Si6 0.673255 0.810328 0.971271
O O1 0.790001 0.569326 0.250000
O O2 0.754241 0.461015 0.195801
O O3 0.000000 0.480446 0.250000
O O4 0.500000 0.595516 0.250000
O O5 0.310929 0.666476 0.193486
O O6 0.500000 0.476708 0.351809
O O7 0.286420 0.562574 0.370402
O O8 0.267804 0.441521 0.407625
O O9 0.271584 0.180844 0.409036
O O10 0.000000 0.147933 0.388800
O O11 0.500000 0.056732 0.947317
O O12 0.285438 0.125793 0.994368
O O13 0.279412 0.000000 0.000000
O O14 0.500000 0.797273 0.969367
O O15 0.750000 0.750000 0.000000
#
# Coordination Sequence:
#
# PCOD8255801 Si02
#       6
#     8   8  16  16  16  16
#     4  10  18  28  46  73 108 143 174 215 267 317
#     4   8  16  30  48  75 106 137 172 217 265 313
#     4  10  19  31  51  78 108 139 176 221 267 318
#     4   9  17  31  51  76 107 138 173 215 264 315
#     4  10  20  35  54  78 107 137 175 221 269 315
#     4  11  23  37  54  76 108 144 179 221 267 319
#
# _framework density 17.734829999999999
#
# number of rings (size 3 to 8) (size 9 to 14) (size 15 to 20)
#    0.000    2.200    2.000    3.300    0.000    5.200 
#    0.000    0.000    0.000    1.200    0.000    2.800 
#    0.000    0.000    0.000    0.000    0.000    0.000 
#
# Total GULP energy -495940.623128 kJ/mol
# GULP energy per Si atom -12398.515578 kJ/mol
# Density = 1.769447 g / cm^3
# Si number density = 17.734830 Si / 1000 Ang^3
#
#
#
# Elastic Constant Matrix: (Units=GPa)
#
#
# Indices 1 2 3 4 5 6 
#
# 1 94.5298 41.3379 75.1675 0.0000 0.0000 0.0000
# 2 41.3379 72.4626 51.1190 0.0000 0.0000 0.0000
# 3 75.1675 51.1190 168.6766 0.0000 0.0000 0.0000
# 4 0.0000 0.0000 0.0000 19.3605 0.0000 0.0000
# 5 0.0000 0.0000 0.0000 0.0000 37.7744 0.0000
# 6 0.0000 0.0000 0.0000 0.0000 0.0000 23.5297
#
#
#
# Elastic Compliance Matrix: (Units=1/GPa)
#
#
# Indices 1 2 3 4 5 6 
#
# 1 0.018186 -0.005924 -0.006309 0.000000 0.000000 0.000000
# 2 -0.005924 0.019483 -0.003265 0.000000 0.000000 0.000000
# 3 -0.006309 -0.003265 0.009729 0.000000 0.000000 0.000000
# 4 0.000000 0.000000 0.000000 0.051652 0.000000 0.000000
# 5 0.000000 0.000000 0.000000 0.000000 0.026473 0.000000
# 6 0.000000 0.000000 0.000000 0.000000 0.000000 0.042499
#
#
# Mechanical properties :
#
#
# Convention : Reuss Voigt Hill
#
# Bulk Modulus (GPa) = 60.96392 74.54643 67.75517
# Shear Modulus (GPa) = 24.45179 27.33590 25.89385
#
# Velocity S-wave (km/s) = 3.71717 3.93029 3.82521
# Velocity P-wave (km/s) = 7.27138 7.91968 7.60245
#
# Compressibility (1/GPa) = 0.01640315
#
# Stress axis : x y z
#
# Youngs Moduli (GPa) = 54.98788 51.32784 102.78261
#
# Poissons Ratio (x) = 0.30406 0.64844
# Poissons Ratio (y) = 0.32574 0.33554
# Poissons Ratio (z) = 0.34691 0.16756
#
# Static dielectric constant tensor:
#      x y z
#    x 3.257310 0.000000 0.000000 
#    y 0.000000 2.538520 0.000000 
#    z 0.000000 0.000000 3.228390 
# 
# 
# High freq. dielectric constant tensor:
#      x y z
#    x 1.692580 0.000000 0.000000 
#    y 0.000000 1.628540 0.000000 
#    z 0.000000 0.000000 1.708100 
# 
# From -- ./inp_files/59533.got.cif
#   From: 2010.03.12/outbox.cif.g09.slc.cpg/sg63_30_cif.got.tgz:59533.got - 2010.04.10 19:34:48.
