data_PCOD8255597
_publ_section_title
;
Structure prediction by ZEFSAII (Michael W. Deem and Ramdas Pophale) SiO2 
 PCOD8255597
Probable space group: C M C M
;
_chemical_formula_sum "Si O2"
_cell_formula_units_Z 88
_cell_length_a 20.101670
_cell_length_b 9.142909
_cell_length_c 22.647909
_cell_angle_alpha 90.000000
_cell_angle_beta 90.000000
_cell_angle_gamma 90.000000
_cell_volume 4162.408001
_symmetry_space_group_name_H-M "C M C M"
_symmetry_group_IT_number 63
_symmetry_cell_setting 'orthorhombic'
loop_
_space_group_symop_operation_xyz
x,y,z
-x,-y,1/2+z
x,-y,-z
-x,y,1/2-z
-x,-y,-z
x,y,1/2-z
-x,y,z
x,-y,1/2+z
1/2+x,1/2+y,z
1/2-x,1/2-y,1/2+z
1/2+x,1/2-y,-z
1/2-x,1/2+y,1/2-z
1/2-x,1/2-y,-z
1/2+x,1/2+y,1/2-z
1/2-x,1/2+y,z
1/2+x,1/2-y,1/2+z
loop_
_atom_site_type_symbol
_atom_site_label
_atom_site_fract_x
_atom_site_fract_y
_atom_site_fract_z
Si Si1 0.923175 0.378916 0.625110
Si Si2 0.573107 0.462802 0.124153
Si Si3 0.602478 0.560806 0.750000
Si Si4 0.806494 0.476278 0.433064
Si Si5 0.279592 0.626313 0.250000
Si Si6 0.806573 0.836933 0.620267
Si Si7 0.623215 0.108525 0.250000
O O1 0.904307 0.206816 0.620106
O O2 0.881180 0.464060 0.575791
O O3 0.905484 0.455182 0.688550
O O4 0.000000 0.404454 0.611026
O O5 0.500000 0.487850 0.094654
O O6 0.566939 0.506514 0.192963
O O7 0.629045 0.570182 0.097675
O O8 0.682310 0.530131 0.750000
O O9 0.592535 0.731521 0.750000
O O10 0.783640 0.500000 0.500000
O O11 0.803312 0.305196 0.419653
O O12 0.757948 0.563245 0.389457
O O13 0.304761 0.708319 0.309914
O O14 0.202050 0.596760 0.250000
#
# Coordination Sequence:
#
# PCOD8255597 Si02
#       7
#    16  16   8  16   8  16   8
#     4  10  21  38  62  91 123 162 205 252 312 375
#     4   9  18  36  60  89 123 157 196 243 302 370
#     4   8  17  28  51  86 124 163 190 228 295 375
#     4  12  26  44  63  85 122 167 213 260 302 363
#     4  10  20  32  59  93 124 153 192 257 315 377
#     4  11  24  39  64  93 122 158 205 255 316 371
#     4  10  17  32  58  87 128 154 196 245 318 380
#
# _framework density 21.141608000000002
#
# number of rings (size 3 to 8) (size 9 to 14) (size 15 to 20)
#    0.000    1.818    1.818    2.182    5.091    4.000 
#    0.000    0.000    0.000    4.909    0.000    0.000 
#    0.000    0.000    0.000    0.000    0.000    0.000 
#
# Total GULP energy -545342.597050 kJ/mol
# GULP energy per Si atom -12394.149933 kJ/mol
# Density = 2.109349 g / cm^3
# Si number density = 21.141608 Si / 1000 Ang^3
#
#
#
# Elastic Constant Matrix: (Units=GPa)
#
#
# Indices 1 2 3 4 5 6 
#
# 1 124.8566 36.9289 6.3316 0.0000 0.0000 0.0000
# 2 36.9289 76.2603 12.3842 0.0000 0.0000 0.0000
# 3 6.3316 12.3842 67.3545 0.0000 0.0000 0.0000
# 4 0.0000 0.0000 0.0000 25.3928 0.0000 0.0000
# 5 0.0000 0.0000 0.0000 0.0000 12.2627 0.0000
# 6 0.0000 0.0000 0.0000 0.0000 0.0000 34.5303
#
#
#
# Elastic Compliance Matrix: (Units=1/GPa)
#
#
# Indices 1 2 3 4 5 6 
#
# 1 0.009348 -0.004519 -0.000048 0.000000 0.000000 0.000000
# 2 -0.004519 0.015701 -0.002462 0.000000 0.000000 0.000000
# 3 -0.000048 -0.002462 0.015304 0.000000 0.000000 0.000000
# 4 0.000000 0.000000 0.000000 0.039381 0.000000 0.000000
# 5 0.000000 0.000000 0.000000 0.000000 0.081548 0.000000
# 6 0.000000 0.000000 0.000000 0.000000 0.000000 0.028960
#
#
# Mechanical properties :
#
#
# Convention : Reuss Voigt Hill
#
# Bulk Modulus (GPa) = 38.02962 42.19567 40.11264
# Shear Modulus (GPa) = 23.46687 28.62560 26.04624
#
# Velocity S-wave (km/s) = 3.33526 3.68366 3.51378
# Velocity P-wave (km/s) = 5.73228 6.17206 5.95623
#
# Compressibility (1/GPa) = 0.02629530
#
# Stress axis : x y z
#
# Youngs Moduli (GPa) = 106.97218 63.68953 65.34233
#
# Poissons Ratio (x) = 0.28782 0.00313
# Poissons Ratio (y) = 0.48342 0.16088
# Poissons Ratio (z) = 0.00512 0.15681
#
# Static dielectric constant tensor:
#      x y z
#    x 3.858940 0.000000 0.000000 
#    y 0.000000 3.566810 0.000000 
#    z 0.000000 0.000000 3.731210 
# 
# 
# High freq. dielectric constant tensor:
#      x y z
#    x 1.837800 0.000000 0.000000 
#    y 0.000000 1.803430 0.000000 
#    z 0.000000 0.000000 1.811270 
# 
# From -- ./inp_files/57409.got.cif
#   From: 2010.03.12/outbox.cif.g09.slc.cpg/sg63_29_cif.got.tgz:57409.got - 2010.04.10 19:34:48.
