data_PCOD8255324
_publ_section_title
;
Structure prediction by ZEFSAII (Michael W. Deem and Ramdas Pophale) SiO2 
 PCOD8255324
Probable space group: P N M A
;
_chemical_formula_sum "Si O2"
_cell_formula_units_Z 32
_cell_length_a 12.000000
_cell_length_b 15.000000
_cell_length_c 9.000000
_cell_angle_alpha 90.000000
_cell_angle_beta 90.000000
_cell_angle_gamma 90.000000
_cell_volume 1620.000000
_symmetry_space_group_name_H-M "P N M A"
_symmetry_group_IT_number 62
_symmetry_cell_setting 'orthorhombic'
loop_
_space_group_symop_operation_xyz
x,y,z
1/2-x,-y,1/2+z
1/2+x,1/2-y,1/2-z
-x,1/2+y,-z
-x,-y,-z
1/2+x,y,1/2-z
1/2-x,1/2+y,1/2+z
x,1/2-y,z
loop_
_atom_site_type_symbol
_atom_site_label
_atom_site_fract_x
_atom_site_fract_y
_atom_site_fract_z
Si Si1 0.460286 0.250000 0.056403
Si Si2 0.693761 0.250000 0.217932
Si Si3 0.285109 0.596590 0.259373
Si Si4 0.210284 0.902889 0.599074
Si Si5 0.829083 0.250000 0.924253
Si Si6 0.039042 0.250000 0.768661
O O1 0.582391 0.250000 0.123158
O O2 0.400259 0.158738 0.109076
O O3 0.463222 0.250000 0.878455
O O4 0.697626 0.340303 0.318245
O O5 0.793316 0.250000 0.095976
O O6 0.304678 0.499243 0.181146
O O7 0.239921 0.579878 0.426279
O O8 0.205748 0.658056 0.158228
O O9 0.395537 0.656506 0.271790
O O10 0.962905 0.250000 0.916183
#
# Coordination Sequence:
#
# PCOD8255324 Si02
#       6
#     4   4   8   8   4   4
#     4  11  22  43  69  93 127 176 213 259 330 384
#     4  11  23  42  68  94 130 168 215 267 323 380
#     4  11  23  41  64  95 129 168 214 265 318 379
#     4  11  25  43  64  98 131 170 214 269 316 383
#     4  11  21  42  65  95 127 165 213 267 317 379
#     4  11  22  41  70  94 128 173 211 265 324 381
#
# _framework density 19.753086
#
# number of rings (size 3 to 8) (size 9 to 14) (size 15 to 20)
#    0.000    1.000    5.000    3.750    0.000    7.000 
#    0.000    3.750    0.000    0.000    0.000    0.000 
#    0.000    0.000    0.000    0.000    0.000    0.000 
#
# Total GULP energy -396479.103407 kJ/mol
# GULP energy per Si atom -12389.971981 kJ/mol
# Density = 1.970813 g / cm^3
# Si number density = 19.753086 Si / 1000 Ang^3
#
#
#
# Elastic Constant Matrix: (Units=GPa)
#
#
# Indices 1 2 3 4 5 6 
#
# 1 60.9585 35.5706 4.8264 0.0000 0.0000 0.0000
# 2 35.5706 217.8568 52.1244 0.0000 0.0000 0.0000
# 3 4.8264 52.1244 123.4647 0.0000 0.0000 0.0000
# 4 0.0000 0.0000 0.0000 47.1669 0.0000 0.0000
# 5 0.0000 0.0000 0.0000 0.0000 35.6595 0.0000
# 6 0.0000 0.0000 0.0000 0.0000 0.0000 19.2594
#
#
#
# Elastic Compliance Matrix: (Units=1/GPa)
#
#
# Indices 1 2 3 4 5 6 
#
# 1 0.018172 -0.003111 0.000603 0.000000 0.000000 0.000000
# 2 -0.003111 0.005639 -0.002259 0.000000 0.000000 0.000000
# 3 0.000603 -0.002259 0.009030 0.000000 0.000000 0.000000
# 4 0.000000 0.000000 0.000000 0.021201 0.000000 0.000000
# 5 0.000000 0.000000 0.000000 0.000000 0.028043 0.000000
# 6 0.000000 0.000000 0.000000 0.000000 0.000000 0.051923
#
#
# Mechanical properties :
#
#
# Convention : Reuss Voigt Hill
#
# Bulk Modulus (GPa) = 42.90670 65.25807 54.08239
# Shear Modulus (GPa) = 33.04458 41.06775 37.05616
#
# Velocity S-wave (km/s) = 4.09453 4.56461 4.33594
# Velocity P-wave (km/s) = 6.64245 7.80317 7.24609
#
# Compressibility (1/GPa) = 0.02330638
#
# Stress axis : x y z
#
# Youngs Moduli (GPa) = 55.02846 177.34736 110.74734
#
# Poissons Ratio (x) = 0.55180 -0.06680
# Poissons Ratio (y) = 0.17122 0.25017
# Poissons Ratio (z) = -0.03319 0.40061
#
# Static dielectric constant tensor:
#      x y z
#    x 3.514830 0.000000 0.000000 
#    y 0.000000 4.066700 0.000000 
#    z 0.000000 0.000000 4.032340 
# 
# 
# High freq. dielectric constant tensor:
#      x y z
#    x 1.762430 0.000000 0.000000 
#    y 0.000000 1.804500 0.000000 
#    z 0.000000 0.000000 1.805010 
# 
# From -- ./inp_files/4881.got.cif
#   From: 2010.03.12/outbox.ucp.g09.slc.cvg/sg62_3_cif.got.tgz:4881.got - 2010.05.04 19:35:18.
