data_PCOD8255525
_publ_section_title
;
Structure prediction by ZEFSAII (Michael W. Deem and Ramdas Pophale) SiO2 
 PCOD8255525
Probable space group: C M C M
;
_chemical_formula_sum "Si O2"
_cell_formula_units_Z 128
_cell_length_a 22.567856
_cell_length_b 19.157501
_cell_length_c 18.200541
_cell_angle_alpha 90.000000
_cell_angle_beta 90.000000
_cell_angle_gamma 90.000000
_cell_volume 7868.889673
_symmetry_space_group_name_H-M "C M C M"
_symmetry_group_IT_number 63
_symmetry_cell_setting 'orthorhombic'
loop_
_space_group_symop_operation_xyz
x,y,z
-x,-y,1/2+z
x,-y,-z
-x,y,1/2-z
-x,-y,-z
x,y,1/2-z
-x,y,z
x,-y,1/2+z
1/2+x,1/2+y,z
1/2-x,1/2-y,1/2+z
1/2+x,1/2-y,-z
1/2-x,1/2+y,1/2-z
1/2-x,1/2-y,-z
1/2+x,1/2+y,1/2-z
1/2-x,1/2+y,z
1/2+x,1/2-y,1/2+z
loop_
_atom_site_type_symbol
_atom_site_label
_atom_site_fract_x
_atom_site_fract_y
_atom_site_fract_z
Si Si1 0.874089 0.421343 0.164427
Si Si2 0.069182 0.724071 0.664354
Si Si3 0.226791 0.084609 0.334650
Si Si4 0.844660 0.667874 0.334166
Si Si5 0.323153 0.708421 0.418306
Si Si6 0.294568 0.706507 0.912690
Si Si7 0.065101 0.557471 0.337707
Si Si8 0.242198 0.074015 0.836904
O O1 0.865287 0.435653 0.250000
O O2 0.917850 0.357131 0.149771
O O3 0.902834 0.489829 0.127909
O O4 0.808293 0.410628 0.132012
O O5 0.082979 0.742565 0.750000
O O6 0.112436 0.765892 0.609250
O O7 0.000000 0.739587 0.646292
O O8 0.208377 0.092145 0.250000
O O9 0.292911 0.111991 0.348081
O O10 0.183131 0.132350 0.381968
O O11 0.222316 0.003994 0.359777
O O12 0.847529 0.689973 0.250000
O O13 0.840513 0.739145 0.378609
O O14 0.903391 0.628895 0.361766
O O15 0.316260 0.697891 0.504645
O O16 0.271505 0.763183 0.396362
O O17 0.300325 0.630785 0.875106
O O18 0.064316 0.551164 0.250000
O O19 0.000000 0.560624 0.371397
O O20 0.238075 0.084192 0.750000
#
# Coordination Sequence:
#
# PCOD8255525 Si02
#       8
#    16  16  16  16  16  16  16  16
#     4   9  15  25  42  70 102 127 157 194 235 285
#     4  10  19  31  51  76 100 129 164 203 249 297
#     4   9  17  29  48  70  94 121 154 199 249 294
#     4   9  16  28  44  66  92 123 164 206 240 279
#     4  10  20  33  46  68  98 129 162 198 240 293
#     4  10  20  31  46  66  95 133 165 196 241 290
#     4   9  15  24  41  66  96 128 162 198 233 273
#     4  10  17  28  48  74  98 126 160 198 247 296
#
# _framework density 16.266590000000001
#
# number of rings (size 3 to 8) (size 9 to 14) (size 15 to 20)
#    0.000    2.500    2.500    1.125    0.000    3.000 
#    0.000    0.625    0.000    0.750    0.000    4.375 
#    0.000    4.000    0.000    0.000    0.000    0.000 
#
# Total GULP energy -793210.318723 kJ/mol
# GULP energy per Si atom -12393.911230 kJ/mol
# Density = 1.622957 g / cm^3
# Si number density = 16.266590 Si / 1000 Ang^3
#
#
#
# Elastic Constant Matrix: (Units=GPa)
#
#
# Indices 1 2 3 4 5 6 
#
# 1 80.5587 46.7751 29.5756 0.0000 0.0000 0.0000
# 2 46.7751 132.3233 50.5696 0.0000 0.0000 0.0000
# 3 29.5756 50.5696 47.8570 0.0000 0.0000 0.0000
# 4 0.0000 0.0000 0.0000 11.6773 0.0000 0.0000
# 5 0.0000 0.0000 0.0000 0.0000 15.2184 0.0000
# 6 0.0000 0.0000 0.0000 0.0000 0.0000 23.6882
#
#
#
# Elastic Compliance Matrix: (Units=1/GPa)
#
#
# Indices 1 2 3 4 5 6 
#
# 1 0.016884 -0.003322 -0.006924 0.000000 0.000000 0.000000
# 2 -0.003322 0.013330 -0.012032 0.000000 0.000000 0.000000
# 3 -0.006924 -0.012032 0.037889 0.000000 0.000000 0.000000
# 4 0.000000 0.000000 0.000000 0.085636 0.000000 0.000000
# 5 0.000000 0.000000 0.000000 0.000000 0.065710 0.000000
# 6 0.000000 0.000000 0.000000 0.000000 0.000000 0.042215
#
#
# Mechanical properties :
#
#
# Convention : Reuss Voigt Hill
#
# Bulk Modulus (GPa) = 42.46984 57.17553 49.82268
# Shear Modulus (GPa) = 15.91999 19.03802 17.47901
#
# Velocity S-wave (km/s) = 3.13180 3.42479 3.28156
# Velocity P-wave (km/s) = 6.26441 7.13192 6.71219
#
# Compressibility (1/GPa) = 0.02354612
#
# Stress axis : x y z
#
# Youngs Moduli (GPa) = 59.22635 75.01828 26.39297
#
# Poissons Ratio (x) = 0.24924 0.18274
# Poissons Ratio (y) = 0.19678 0.31757
# Poissons Ratio (z) = 0.41007 0.90265
#
# Static dielectric constant tensor:
#      x y z
#    x 2.971780 0.000000 0.000000 
#    y 0.000000 3.133570 0.000000 
#    z 0.000000 0.000000 2.574900 
# 
# 
# High freq. dielectric constant tensor:
#      x y z
#    x 1.597680 0.000000 0.000000 
#    y 0.000000 1.629530 0.000000 
#    z 0.000000 0.000000 1.598380 
# 
# From -- ./inp_files/57765.got.cif
#   From: 2010.03.12/outbox.cif.g09.slc.cpg/sg63_29_cif.got.tgz:57765.got - 2010.04.10 19:34:48.
