data_PCOD8255230
_publ_section_title
;
Structure prediction by ZEFSAII (Michael W. Deem and Ramdas Pophale) SiO2 
 PCOD8255230
Probable space group: P N M A
;
_chemical_formula_sum "Si O2"
_cell_formula_units_Z 40
_cell_length_a 20.157772
_cell_length_b 9.549270
_cell_length_c 11.012842
_cell_angle_alpha 90.000000
_cell_angle_beta 90.000000
_cell_angle_gamma 90.000000
_cell_volume 2119.884064
_symmetry_space_group_name_H-M "P N M A"
_symmetry_group_IT_number 62
_symmetry_cell_setting 'orthorhombic'
loop_
_space_group_symop_operation_xyz
x,y,z
1/2-x,-y,1/2+z
1/2+x,1/2-y,1/2-z
-x,1/2+y,-z
-x,-y,-z
1/2+x,y,1/2-z
1/2-x,1/2+y,1/2+z
x,1/2-y,z
loop_
_atom_site_type_symbol
_atom_site_label
_atom_site_fract_x
_atom_site_fract_y
_atom_site_fract_z
Si Si1 0.526632 0.750000 0.595573
Si Si2 0.102075 0.250000 0.945474
Si Si3 0.337076 0.976313 0.610005
Si Si4 0.910740 0.750000 0.574381
Si Si5 0.532883 0.477817 0.238608
Si Si6 0.322817 0.250000 0.479805
Si Si7 0.220622 0.250000 0.275372
Si Si8 0.950394 0.750000 0.308181
O O1 0.474907 0.750000 0.484710
O O2 0.515961 0.889220 0.674971
O O3 0.598591 0.750000 0.537858
O O4 0.139118 0.113673 0.994984
O O5 0.103225 0.250000 0.800058
O O6 0.400415 0.018335 0.690081
O O7 0.285006 0.887966 0.690889
O O8 0.301222 0.114199 0.557791
O O9 0.949069 0.612772 0.620684
O O10 0.836547 0.750000 0.624392
O O11 0.907185 0.750000 0.429841
O O12 0.497067 0.615628 0.193996
O O13 0.289854 0.250000 0.346583
#
# Coordination Sequence:
#
# PCOD8255230 Si02
#       8
#     4   4   8   4   8   4   4   4
#     4   9  18  33  53  84 111 132 166 227 286 315
#     4   9  18  33  55  86 116 134 164 228 292 332
#     4   9  19  38  58  76 109 145 176 224 280 314
#     4   9  20  37  49  66 111 157 171 211 268 322
#     4   9  18  33  54  78 111 137 168 220 282 329
#     4  12  20  34  61  86 102 139 193 228 256 322
#     4   9  22  43  52  71 111 152 182 217 268 316
#     4  12  18  26  52  89 105 132 182 217 262 333
#
# _framework density 18.868957000000002
#
# number of rings (size 3 to 8) (size 9 to 14) (size 15 to 20)
#    0.000    2.400    0.000    6.000    0.000    3.200 
#    7.200    1.000    0.000    0.000    0.000    0.000 
#    0.000    0.000    0.000    0.000    0.000    0.000 
#
# Total GULP energy -496045.071798 kJ/mol
# GULP energy per Si atom -12401.126795 kJ/mol
# Density = 1.882601 g / cm^3
# Si number density = 18.868957 Si / 1000 Ang^3
#
#
#
# Elastic Constant Matrix: (Units=GPa)
#
#
# Indices 1 2 3 4 5 6 
#
# 1 40.2951 37.5009 29.5855 0.0000 0.0000 0.0000
# 2 37.5009 127.5152 54.2173 0.0000 0.0000 0.0000
# 3 29.5855 54.2173 144.4079 0.0000 0.0000 0.0000
# 4 0.0000 0.0000 0.0000 10.4771 0.0000 0.0000
# 5 0.0000 0.0000 0.0000 0.0000 22.0094 0.0000
# 6 0.0000 0.0000 0.0000 0.0000 0.0000 9.4907
#
#
#
# Elastic Compliance Matrix: (Units=1/GPa)
#
#
# Indices 1 2 3 4 5 6 
#
# 1 0.036058 -0.008881 -0.004053 0.000000 0.000000 0.000000
# 2 -0.008881 0.011519 -0.002505 0.000000 0.000000 0.000000
# 3 -0.004053 -0.002505 0.008696 0.000000 0.000000 0.000000
# 4 0.000000 0.000000 0.000000 0.095446 0.000000 0.000000
# 5 0.000000 0.000000 0.000000 0.000000 0.045435 0.000000
# 6 0.000000 0.000000 0.000000 0.000000 0.000000 0.105366
#
#
# Mechanical properties :
#
#
# Convention : Reuss Voigt Hill
#
# Bulk Modulus (GPa) = 39.37908 61.64728 50.51318
# Shear Modulus (GPa) = 14.62569 21.12307 17.87438
#
# Velocity S-wave (km/s) = 2.78712 3.34946 3.08115
# Velocity P-wave (km/s) = 5.59218 6.90657 6.28384
#
# Compressibility (1/GPa) = 0.02539420
#
# Stress axis : x y z
#
# Youngs Moduli (GPa) = 27.73326 86.81125 114.99787
#
# Poissons Ratio (x) = 0.77097 0.46609
# Poissons Ratio (y) = 0.24630 0.28811
# Poissons Ratio (z) = 0.11240 0.21749
#
# Static dielectric constant tensor:
#      x y z
#    x 3.056390 0.000000 0.000000 
#    y 0.000000 3.588900 0.000000 
#    z 0.000000 0.000000 3.443470 
# 
# 
# High freq. dielectric constant tensor:
#      x y z
#    x 1.697880 0.000000 0.000000 
#    y 0.000000 1.745690 0.000000 
#    z 0.000000 0.000000 1.733940 
# 
# From -- ./inp_files/13932.got.cif
#   From: 2010.03.12/outbox.cif.g09.slc.cpg/sg62_7_cif.got.tgz:13932.got - 2010.04.10 19:12:36.
