data_PCOD8255587
_publ_section_title
;
Structure prediction by ZEFSAII (Michael W. Deem and Ramdas Pophale) SiO2 
 PCOD8255587
Probable space group: C M C M
;
_chemical_formula_sum "Si O2"
_cell_formula_units_Z 80
_cell_length_a 25.749457
_cell_length_b 9.827714
_cell_length_c 17.747354
_cell_angle_alpha 90.000000
_cell_angle_beta 90.000000
_cell_angle_gamma 90.000000
_cell_volume 4491.115216
_symmetry_space_group_name_H-M "C M C M"
_symmetry_group_IT_number 63
_symmetry_cell_setting 'orthorhombic'
loop_
_space_group_symop_operation_xyz
x,y,z
-x,-y,1/2+z
x,-y,-z
-x,y,1/2-z
-x,-y,-z
x,y,1/2-z
-x,y,z
x,-y,1/2+z
1/2+x,1/2+y,z
1/2-x,1/2-y,1/2+z
1/2+x,1/2-y,-z
1/2-x,1/2+y,1/2-z
1/2-x,1/2-y,-z
1/2+x,1/2+y,1/2-z
1/2-x,1/2+y,z
1/2+x,1/2-y,1/2+z
loop_
_atom_site_type_symbol
_atom_site_label
_atom_site_fract_x
_atom_site_fract_y
_atom_site_fract_z
Si Si1 0.147781 0.805732 0.448809
Si Si2 0.297010 0.041858 0.412838
Si Si3 0.370276 0.171591 0.665328
Si Si4 0.680057 0.580340 0.396765
Si Si5 0.060151 0.347476 0.473631
O O1 0.178336 0.690968 0.402490
O O2 0.180143 0.838604 0.524198
O O3 0.090084 0.755521 0.470645
O O4 0.144893 0.943274 0.399323
O O5 0.239230 0.041229 0.379181
O O6 0.299292 0.000000 0.500000
O O7 0.328604 0.936761 0.362832
O O8 0.388006 0.136340 0.750000
O O9 0.343974 0.321128 0.666120
O O10 0.420910 0.169639 0.612182
O O11 0.072212 0.500000 0.500000
O O12 0.000000 0.310410 0.478502
#
# Coordination Sequence:
#
# PCOD8255587 Si02
#       5
#    16  16  16  16  16
#     4  10  17  31  53  85 103 129 177 228 264 303
#     4  12  17  33  57  82 105 142 187 222 252 306
#     4  11  23  37  50  77 116 146 177 215 267 327
#     4  10  20  30  54  80 111 142 169 215 268 316
#     4  10  19  36  61  83 101 129 182 237 271 309
#
# _framework density 17.812947000000001
#
# number of rings (size 3 to 8) (size 9 to 14) (size 15 to 20)
#    0.000    1.400    8.000    1.800    0.000    1.200 
#    0.000    9.000    0.000    0.000    0.000    0.000 
#    0.000    0.000    0.000    0.000    0.000    0.000 
#
# Total GULP energy -496043.927709 kJ/mol
# GULP energy per Si atom -12401.098193 kJ/mol
# Density = 1.777240 g / cm^3
# Si number density = 17.812947 Si / 1000 Ang^3
#
#
#
# Elastic Constant Matrix: (Units=GPa)
#
#
# Indices 1 2 3 4 5 6 
#
# 1 119.6423 57.5622 28.7804 0.0000 0.0000 0.0000
# 2 57.5622 133.1111 36.2435 0.0000 0.0000 0.0000
# 3 28.7804 36.2435 66.2100 0.0000 0.0000 0.0000
# 4 0.0000 0.0000 0.0000 11.3244 0.0000 0.0000
# 5 0.0000 0.0000 0.0000 0.0000 8.9763 0.0000
# 6 0.0000 0.0000 0.0000 0.0000 0.0000 17.9337
#
#
#
# Elastic Compliance Matrix: (Units=1/GPa)
#
#
# Indices 1 2 3 4 5 6 
#
# 1 0.010905 -0.004025 -0.002537 0.000000 0.000000 0.000000
# 2 -0.004025 0.010314 -0.003896 0.000000 0.000000 0.000000
# 3 -0.002537 -0.003896 0.018339 0.000000 0.000000 0.000000
# 4 0.000000 0.000000 0.000000 0.088305 0.000000 0.000000
# 5 0.000000 0.000000 0.000000 0.000000 0.111404 0.000000
# 6 0.000000 0.000000 0.000000 0.000000 0.000000 0.055761
#
#
# Mechanical properties :
#
#
# Convention : Reuss Voigt Hill
#
# Bulk Modulus (GPa) = 53.64344 62.68172 58.16258
# Shear Modulus (GPa) = 15.52033 20.73871 18.12952
#
# Velocity S-wave (km/s) = 2.95497 3.41581 3.19372
# Velocity P-wave (km/s) = 6.46705 7.12897 6.80606
#
# Compressibility (1/GPa) = 0.01864161
#
# Stress axis : x y z
#
# Youngs Moduli (GPa) = 91.70091 96.95610 54.52836
#
# Poissons Ratio (x) = 0.39025 0.13834
# Poissons Ratio (y) = 0.36909 0.21246
# Poissons Ratio (z) = 0.23264 0.37777
#
# Static dielectric constant tensor:
#      x y z
#    x 3.215620 0.000000 0.000000 
#    y 0.000000 3.695020 0.000000 
#    z 0.000000 0.000000 3.036950 
# 
# 
# High freq. dielectric constant tensor:
#      x y z
#    x 1.678030 0.000000 0.000000 
#    y 0.000000 1.708740 0.000000 
#    z 0.000000 0.000000 1.646670 
# 
# From -- ./inp_files/48805.got.cif
#   From: 2010.03.12/outbox.cif.g09.slc.cpg/sg63_25_cif.got.tgz:48805.got - 2010.04.10 19:34:48.
