data_PCOD8255632
_publ_section_title
;
Structure prediction by ZEFSAII (Michael W. Deem and Ramdas Pophale) SiO2 
 PCOD8255632
Probable space group: C M C M
;
_chemical_formula_sum "Si O2"
_cell_formula_units_Z 56
_cell_length_a 13.610964
_cell_length_b 31.653851
_cell_length_c 9.533074
_cell_angle_alpha 90.000000
_cell_angle_beta 90.000000
_cell_angle_gamma 90.000000
_cell_volume 4107.224134
_symmetry_space_group_name_H-M "C M C M"
_symmetry_group_IT_number 63
_symmetry_cell_setting 'orthorhombic'
loop_
_space_group_symop_operation_xyz
x,y,z
-x,-y,1/2+z
x,-y,-z
-x,y,1/2-z
-x,-y,-z
x,y,1/2-z
-x,y,z
x,-y,1/2+z
1/2+x,1/2+y,z
1/2-x,1/2-y,1/2+z
1/2+x,1/2-y,-z
1/2-x,1/2+y,1/2-z
1/2-x,1/2-y,-z
1/2+x,1/2+y,1/2-z
1/2-x,1/2+y,z
1/2+x,1/2-y,1/2+z
loop_
_atom_site_type_symbol
_atom_site_label
_atom_site_fract_x
_atom_site_fract_y
_atom_site_fract_z
Si Si1 0.609325 0.121360 0.592667
Si Si2 0.889435 0.760347 0.909375
Si Si3 0.500000 0.958422 0.090152
Si Si4 0.202757 0.311927 0.587213
O O1 0.650734 0.127973 0.750000
O O2 0.500000 0.142377 0.581957
O O3 0.596622 0.070969 0.560726
O O4 0.683690 0.142466 0.482501
O O5 0.875259 0.743689 0.750000
O O6 0.816565 0.799670 0.936864
O O7 0.000000 0.776714 0.934924
O O8 0.867071 0.722363 0.014462
O O9 0.500000 0.973388 0.250000
O O10 0.500000 0.000000 0.000000
O O11 0.174810 0.314317 0.750000
#
# Coordination Sequence:
#
# PCOD8255632 Si02
#       4
#    16  16   8  16
#     4   8  16  28  40  55  79 109 129 148 190 242
#     4   9  18  30  40  50  74 108 134 164 205 240
#     4   8  16  28  42  60  82 108 132 154 190 238
#     4  10  18  26  39  59  75  96 137 174 196 226
#
# _framework density 13.634512000000001
#
# number of rings (size 3 to 8) (size 9 to 14) (size 15 to 20)
#    0.857    2.286    0.000    1.714    0.000    6.857 
#    0.000    0.000    0.000    0.000    0.000    0.000 
#    0.000    1.143    0.000    2.571    0.000    4.000 
#
# Total GULP energy -346905.079811 kJ/mol
# GULP energy per Si atom -12389.467136 kJ/mol
# Density = 1.360348 g / cm^3
# Si number density = 13.634512 Si / 1000 Ang^3
#
#
#
# Elastic Constant Matrix: (Units=GPa)
#
#
# Indices 1 2 3 4 5 6 
#
# 1 72.4073 39.0549 43.1103 0.0000 0.0000 0.0000
# 2 39.0549 91.5455 65.6976 0.0000 0.0000 0.0000
# 3 43.1103 65.6976 103.5143 0.0000 0.0000 0.0000
# 4 0.0000 0.0000 0.0000 29.6059 0.0000 0.0000
# 5 0.0000 0.0000 0.0000 0.0000 18.7395 0.0000
# 6 0.0000 0.0000 0.0000 0.0000 0.0000 13.5032
#
#
#
# Elastic Compliance Matrix: (Units=1/GPa)
#
#
# Indices 1 2 3 4 5 6 
#
# 1 0.019339 -0.004537 -0.005175 0.000000 0.000000 0.000000
# 2 -0.004537 0.021125 -0.011518 0.000000 0.000000 0.000000
# 3 -0.005175 -0.011518 0.019126 0.000000 0.000000 0.000000
# 4 0.000000 0.000000 0.000000 0.033777 0.000000 0.000000
# 5 0.000000 0.000000 0.000000 0.000000 0.053363 0.000000
# 6 0.000000 0.000000 0.000000 0.000000 0.000000 0.074056
#
#
# Mechanical properties :
#
#
# Convention : Reuss Voigt Hill
#
# Bulk Modulus (GPa) = 58.37480 62.57697 60.47589
# Shear Modulus (GPa) = 18.59052 20.34336 19.46694
#
# Velocity S-wave (km/s) = 3.69655 3.86690 3.78268
# Velocity P-wave (km/s) = 7.81833 8.11990 7.97054
#
# Compressibility (1/GPa) = 0.01713068
#
# Stress axis : x y z
#
# Youngs Moduli (GPa) = 51.71006 47.33776 52.28570
#
# Poissons Ratio (x) = 0.21475 0.27056
# Poissons Ratio (y) = 0.23459 0.60222
# Poissons Ratio (z) = 0.26758 0.54523
#
# Static dielectric constant tensor:
#      x y z
#    x 2.584150 0.000000 0.000000 
#    y 0.000000 2.459260 0.000000 
#    z 0.000000 0.000000 2.791070 
# 
# 
# High freq. dielectric constant tensor:
#      x y z
#    x 1.493080 0.000000 0.000000 
#    y 0.000000 1.491760 0.000000 
#    z 0.000000 0.000000 1.531330 
# 
# From -- ./inp_files/4807.got.cif
#   From: 2010.03.12/outbox.cif.g09.slc.cpg/sg63_3_cif.got.tgz:4807.got - 2010.04.10 19:34:48.
