data_PCOD8255420
_publ_section_title
;
Structure prediction by ZEFSAII (Michael W. Deem and Ramdas Pophale) SiO2 
 PCOD8255420
Probable space group: C M C M
;
_chemical_formula_sum "Si O2"
_cell_formula_units_Z 80
_cell_length_a 35.140836
_cell_length_b 5.229197
_cell_length_c 26.780422
_cell_angle_alpha 90.000000
_cell_angle_beta 90.000000
_cell_angle_gamma 90.000000
_cell_volume 4921.126271
_symmetry_space_group_name_H-M "C M C M"
_symmetry_group_IT_number 63
_symmetry_cell_setting 'orthorhombic'
loop_
_space_group_symop_operation_xyz
x,y,z
-x,-y,1/2+z
x,-y,-z
-x,y,1/2-z
-x,-y,-z
x,y,1/2-z
-x,y,z
x,-y,1/2+z
1/2+x,1/2+y,z
1/2-x,1/2-y,1/2+z
1/2+x,1/2-y,-z
1/2-x,1/2+y,1/2-z
1/2-x,1/2-y,-z
1/2+x,1/2+y,1/2-z
1/2-x,1/2+y,z
1/2+x,1/2-y,1/2+z
loop_
_atom_site_type_symbol
_atom_site_label
_atom_site_fract_x
_atom_site_fract_y
_atom_site_fract_z
Si Si1 0.147982 0.023462 0.443582
Si Si2 0.455025 0.577927 0.194371
Si Si3 0.955141 0.580362 0.134672
Si Si4 0.891778 0.521556 0.440444
Si Si5 0.234792 0.188142 0.055863
O O1 0.125568 0.258609 0.418132
O O2 0.192512 0.081308 0.441646
O O3 0.134053 0.000000 0.500000
O O4 0.136144 0.749311 0.420532
O O5 0.437126 0.569340 0.250000
O O6 0.500000 0.565541 0.198742
O O7 0.440941 0.334131 0.163024
O O8 0.442620 0.839821 0.168070
O O9 0.933825 0.565085 0.081615
O O10 0.000000 0.583347 0.123348
O O11 0.894616 0.500000 0.500000
O O12 0.239413 0.465627 0.082404
O O13 0.250000 0.250000 0.000000
#
# Coordination Sequence:
#
# PCOD8255420 Si02
#       5
#    16  16  16  16  16
#     4  10  18  29  41  58  85 114 154 195 219 259
#     4   9  17  30  50  72  89 105 136 191 251 296
#     4  10  19  32  48  66  89 118 157 196 230 266
#     4  10  21  31  43  60  88 128 164 193 213 258
#     4  10  17  24  41  61  80 104 142 198 221 263
#
# _framework density 16.256443000000001
#
# number of rings (size 3 to 8) (size 9 to 14) (size 15 to 20)
#    0.000    2.200    2.000    3.000    5.600    2.800 
#    0.000    0.000    0.000    7.200    0.000    0.000 
#    0.000    0.000    0.000    0.000    0.000  252.000 
#
# Total GULP energy -495530.644412 kJ/mol
# GULP energy per Si atom -12388.266110 kJ/mol
# Density = 1.621944 g / cm^3
# Si number density = 16.256443 Si / 1000 Ang^3
#
#
#
# Elastic Constant Matrix: (Units=GPa)
#
#
# Indices 1 2 3 4 5 6 
#
# 1 78.5426 41.3522 28.5399 0.0000 0.0000 0.0000
# 2 41.3522 168.7574 26.1854 0.0000 0.0000 0.0000
# 3 28.5399 26.1854 36.4617 0.0000 0.0000 0.0000
# 4 0.0000 0.0000 0.0000 11.8535 0.0000 0.0000
# 5 0.0000 0.0000 0.0000 0.0000 3.5935 0.0000
# 6 0.0000 0.0000 0.0000 0.0000 0.0000 20.6227
#
#
#
# Elastic Compliance Matrix: (Units=1/GPa)
#
#
# Indices 1 2 3 4 5 6 
#
# 1 0.018761 -0.002609 -0.012811 0.000000 0.000000 0.000000
# 2 -0.002609 0.007032 -0.003007 0.000000 0.000000 0.000000
# 3 -0.012811 -0.003007 0.039614 0.000000 0.000000 0.000000
# 4 0.000000 0.000000 0.000000 0.084363 0.000000 0.000000
# 5 0.000000 0.000000 0.000000 0.000000 0.278279 0.000000
# 6 0.000000 0.000000 0.000000 0.000000 0.000000 0.048490
#
#
# Mechanical properties :
#
#
# Convention : Reuss Voigt Hill
#
# Bulk Modulus (GPa) = 35.02551 52.87964 43.95257
# Shear Modulus (GPa) = 9.56186 19.72621 14.64404
#
# Velocity S-wave (km/s) = 2.42789 3.48723 3.00461
# Velocity P-wave (km/s) = 5.42696 6.98666 6.25561
#
# Compressibility (1/GPa) = 0.02855062
#
# Stress axis : x y z
#
# Youngs Moduli (GPa) = 53.30255 142.21282 25.24391
#
# Poissons Ratio (x) = 0.37108 0.32340
# Poissons Ratio (y) = 0.13908 0.07592
# Poissons Ratio (z) = 0.68285 0.42770
#
# Static dielectric constant tensor:
#      x y z
#    x 2.862070 0.000000 0.000000 
#    y 0.000000 6.353450 0.000000 
#    z 0.000000 0.000000 2.676960 
# 
# 
# High freq. dielectric constant tensor:
#      x y z
#    x 1.604170 0.000000 0.000000 
#    y 0.000000 1.666910 0.000000 
#    z 0.000000 0.000000 1.558010 
# 
# From -- ./inp_files/65627.got.cif
#   From: 2010.03.12/outbox.cif.g09.slc.cpg/sg63_33_cif.got.tgz:65627.got - 2010.04.10 19:34:48.
