data_PCOD8255229
_publ_section_title
;
Structure prediction by ZEFSAII (Michael W. Deem and Ramdas Pophale) SiO2 
 PCOD8255229
Probable space group: P N M A
;
_chemical_formula_sum "Si O2"
_cell_formula_units_Z 36
_cell_length_a 9.737753
_cell_length_b 18.000839
_cell_length_c 8.601673
_cell_angle_alpha 90.000000
_cell_angle_beta 90.000000
_cell_angle_gamma 90.000000
_cell_volume 1507.767683
_symmetry_space_group_name_H-M "P N M A"
_symmetry_group_IT_number 62
_symmetry_cell_setting 'orthorhombic'
loop_
_space_group_symop_operation_xyz
x,y,z
1/2-x,-y,1/2+z
1/2+x,1/2-y,1/2-z
-x,1/2+y,-z
-x,-y,-z
1/2+x,y,1/2-z
1/2-x,1/2+y,1/2+z
x,1/2-y,z
loop_
_atom_site_type_symbol
_atom_site_label
_atom_site_fract_x
_atom_site_fract_y
_atom_site_fract_z
Si Si1 0.982409 0.981042 0.677372
Si Si2 0.103925 0.250000 0.015995
Si Si3 0.867695 0.750000 0.649792
Si Si4 0.894632 0.250000 0.600609
Si Si5 0.444121 0.373847 0.656270
Si Si6 0.791464 0.400420 0.144835
O O1 0.824026 0.958678 0.697458
O O2 0.079928 0.914307 0.738519
O O3 0.000000 0.000000 0.500000
O O4 0.019921 0.054730 0.773614
O O5 0.043905 0.250000 0.191061
O O6 0.268990 0.250000 0.018873
O O7 0.055401 0.175442 0.932585
O O8 0.963223 0.750000 0.496511
O O9 0.765468 0.681621 0.657320
O O10 0.879310 0.176629 0.707480
O O11 0.332760 0.407329 0.536479
#
# Coordination Sequence:
#
# PCOD8255229 Si02
#       6
#     8   4   4   4   8   8
#     4  12  28  48  80 111 159 207 263 324 397 460
#     4  11  28  46  81 111 158 203 259 326 383 460
#     4  12  28  49  76 116 151 195 271 303 400 460
#     4  11  28  47  83 113 155 214 248 333 385 468
#     4  11  27  49  77 116 155 202 267 317 388 468
#     4  12  28  49  77 115 153 212 252 334 384 471
#
# _framework density 23.876358
#
# number of rings (size 3 to 8) (size 9 to 14) (size 15 to 20)
#    0.000    0.444    0.000    6.000   21.778    0.000 
#    0.000    0.000    0.000    0.000    0.000    0.000 
#    0.000    0.000    0.000    0.000    0.000    0.000 
#
# Total GULP energy -446434.226780 kJ/mol
# GULP energy per Si atom -12400.950744 kJ/mol
# Density = 2.382201 g / cm^3
# Si number density = 23.876358 Si / 1000 Ang^3
#
#
#
# Elastic Constant Matrix: (Units=GPa)
#
#
# Indices 1 2 3 4 5 6 
#
# 1 128.2244 47.1748 59.4321 0.0000 0.0000 0.0000
# 2 47.1748 137.6759 57.9850 0.0000 0.0000 0.0000
# 3 59.4321 57.9850 170.1461 0.0000 0.0000 0.0000
# 4 0.0000 0.0000 0.0000 31.7354 0.0000 0.0000
# 5 0.0000 0.0000 0.0000 0.0000 47.9304 0.0000
# 6 0.0000 0.0000 0.0000 0.0000 0.0000 88.1641
#
#
#
# Elastic Compliance Matrix: (Units=1/GPa)
#
#
# Indices 1 2 3 4 5 6 
#
# 1 0.009870 -0.002253 -0.002680 0.000000 0.000000 0.000000
# 2 -0.002253 0.008995 -0.002278 0.000000 0.000000 0.000000
# 3 -0.002680 -0.002278 0.007590 0.000000 0.000000 0.000000
# 4 0.000000 0.000000 0.000000 0.031511 0.000000 0.000000
# 5 0.000000 0.000000 0.000000 0.000000 0.020864 0.000000
# 6 0.000000 0.000000 0.000000 0.000000 0.000000 0.011342
#
#
# Mechanical properties :
#
#
# Convention : Reuss Voigt Hill
#
# Bulk Modulus (GPa) = 83.11152 85.02558 84.06855
# Shear Modulus (GPa) = 46.03849 51.66295 48.85072
#
# Velocity S-wave (km/s) = 4.39590 4.65668 4.52817
# Velocity P-wave (km/s) = 7.78780 8.03747 7.91362
#
# Compressibility (1/GPa) = 0.01203203
#
# Stress axis : x y z
#
# Youngs Moduli (GPa) = 101.31864 111.17110 131.75636
#
# Poissons Ratio (x) = 0.25051 0.35306
# Poissons Ratio (y) = 0.22831 0.30020
# Poissons Ratio (z) = 0.27149 0.25329
#
# Static dielectric constant tensor:
#      x y z
#    x 4.341610 0.000000 0.000000 
#    y 0.000000 4.869240 0.000000 
#    z 0.000000 0.000000 4.896820 
# 
# 
# High freq. dielectric constant tensor:
#      x y z
#    x 1.943510 0.000000 0.000000 
#    y 0.000000 1.962300 0.000000 
#    z 0.000000 0.000000 1.964550 
# 
# From -- ./inp_files/4213.got.cif
#   From: 2010.03.12/outbox.cif.g09.slc.cpg/sg62_3_cif.got.tgz:4213.got - 2010.04.10 19:12:36.
