data_PCOD8255347
_publ_section_title
;
Structure prediction by ZEFSAII (Michael W. Deem and Ramdas Pophale) SiO2 
 PCOD8255347
Probable space group: C M C M
;
_chemical_formula_sum "Si O2"
_cell_formula_units_Z 112
_cell_length_a 21.887956
_cell_length_b 18.663612
_cell_length_c 18.629871
_cell_angle_alpha 90.000000
_cell_angle_beta 90.000000
_cell_angle_gamma 90.000000
_cell_volume 7610.457272
_symmetry_space_group_name_H-M "C M C M"
_symmetry_group_IT_number 63
_symmetry_cell_setting 'orthorhombic'
loop_
_space_group_symop_operation_xyz
x,y,z
-x,-y,1/2+z
x,-y,-z
-x,y,1/2-z
-x,-y,-z
x,y,1/2-z
-x,y,z
x,-y,1/2+z
1/2+x,1/2+y,z
1/2-x,1/2-y,1/2+z
1/2+x,1/2-y,-z
1/2-x,1/2+y,1/2-z
1/2-x,1/2-y,-z
1/2+x,1/2+y,1/2-z
1/2-x,1/2+y,z
1/2+x,1/2-y,1/2+z
loop_
_atom_site_type_symbol
_atom_site_label
_atom_site_fract_x
_atom_site_fract_y
_atom_site_fract_z
Si Si1 0.868081 0.935529 0.046379
Si Si2 0.677683 0.747877 0.669035
Si Si3 0.235421 0.605611 0.332731
Si Si4 0.312594 0.671464 0.053701
Si Si5 0.722084 0.180945 0.569116
Si Si6 0.271491 0.027593 0.923666
Si Si7 0.430257 0.351883 0.332150
O O1 0.801387 0.959375 0.073402
O O2 0.909221 0.915868 0.114899
O O3 0.864868 0.866793 0.992656
O O4 0.898121 0.000000 0.000000
O O5 0.698058 0.730559 0.750000
O O6 0.683600 0.833223 0.655469
O O7 0.721339 0.701884 0.619036
O O8 0.608743 0.720705 0.654682
O O9 0.252131 0.595229 0.250000
O O10 0.298406 0.628554 0.372903
O O11 0.211012 0.530050 0.363178
O O12 0.328857 0.755428 0.069902
O O13 0.247623 0.670440 0.011535
O O14 0.695558 0.103892 0.594662
O O15 0.295624 0.000000 0.000000
O O16 0.422285 0.379022 0.250000
O O17 0.500000 0.331881 0.348781
#
# Coordination Sequence:
#
# PCOD8255347 Si02
#       7
#    16  16  16  16  16  16  16
#     4  10  17  29  43  61  84 109 136 176 205 249
#     4   9  17  28  41  59  82 109 139 170 206 241
#     4  10  18  26  39  60  85 111 138 167 204 250
#     4   9  15  26  39  59  80 110 139 165 199 247
#     4   9  15  24  42  56  81 113 135 169 191 245
#     4  10  16  25  37  60  85 107 137 167 197 252
#     4  10  20  32  45  60  79 109 148 181 209 240
#
# _framework density 14.716593
#
# number of rings (size 3 to 8) (size 9 to 14) (size 15 to 20)
#    0.000    2.429    7.143    0.000    0.000    1.429 
#    0.000    0.000    0.000    0.000    0.000    0.000 
#    0.000    5.143    0.000    0.000    0.000    1.429 
#
# Total GULP energy -693834.765293 kJ/mol
# GULP energy per Si atom -12389.906523 kJ/mol
# Density = 1.468310 g / cm^3
# Si number density = 14.716593 Si / 1000 Ang^3
#
#
#
# Elastic Constant Matrix: (Units=GPa)
#
#
# Indices 1 2 3 4 5 6 
#
# 1 37.0453 22.2821 24.6039 0.0000 0.0000 0.0000
# 2 22.2821 137.7563 50.6273 0.0000 0.0000 0.0000
# 3 24.6039 50.6273 94.0372 0.0000 0.0000 0.0000
# 4 0.0000 0.0000 0.0000 27.4930 0.0000 0.0000
# 5 0.0000 0.0000 0.0000 0.0000 11.8011 0.0000
# 6 0.0000 0.0000 0.0000 0.0000 0.0000 9.8789
#
#
#
# Elastic Compliance Matrix: (Units=1/GPa)
#
#
# Indices 1 2 3 4 5 6 
#
# 1 0.033479 -0.002738 -0.007286 0.000000 0.000000 0.000000
# 2 -0.002738 0.009274 -0.004276 0.000000 0.000000 0.000000
# 3 -0.007286 -0.004276 0.014843 0.000000 0.000000 0.000000
# 4 0.000000 0.000000 0.000000 0.036373 0.000000 0.000000
# 5 0.000000 0.000000 0.000000 0.000000 0.084738 0.000000
# 6 0.000000 0.000000 0.000000 0.000000 0.000000 0.101226
#
#
# Mechanical properties :
#
#
# Convention : Reuss Voigt Hill
#
# Bulk Modulus (GPa) = 34.48731 51.54060 43.01396
# Shear Modulus (GPa) = 15.71351 21.25629 18.48490
#
# Velocity S-wave (km/s) = 3.27118 3.80462 3.54794
# Velocity P-wave (km/s) = 6.14432 7.37552 6.78789
#
# Compressibility (1/GPa) = 0.02899617
#
# Stress axis : x y z
#
# Youngs Moduli (GPa) = 29.86907 107.83231 67.37355
#
# Poissons Ratio (x) = 0.29522 0.49086
# Poissons Ratio (y) = 0.08177 0.28812
# Poissons Ratio (z) = 0.21762 0.46113
#
# Static dielectric constant tensor:
#      x y z
#    x 2.303290 0.000000 0.000000 
#    y 0.000000 3.325180 0.000000 
#    z 0.000000 0.000000 3.020120 
# 
# 
# High freq. dielectric constant tensor:
#      x y z
#    x 1.477670 0.000000 0.000000 
#    y 0.000000 1.580050 0.000000 
#    z 0.000000 0.000000 1.575500 
# 
# From -- ./inp_files/48373.got.cif
#   From: 2010.03.12/outbox.cif.g09.slc.cpg/sg63_25_cif.got.tgz:48373.got - 2010.04.10 19:34:48.
