data_PCOD8255318
_publ_section_title
;
Structure prediction by ZEFSAII (Michael W. Deem and Ramdas Pophale) SiO2 
 PCOD8255318
Probable space group: P N M A
;
_chemical_formula_sum "Si O2"
_cell_formula_units_Z 64
_cell_length_a 30.000000
_cell_length_b 9.000000
_cell_length_c 12.000000
_cell_angle_alpha 90.000000
_cell_angle_beta 90.000000
_cell_angle_gamma 90.000000
_cell_volume 3240.000000
_symmetry_space_group_name_H-M "P N M A"
_symmetry_group_IT_number 62
_symmetry_cell_setting 'orthorhombic'
loop_
_space_group_symop_operation_xyz
x,y,z
1/2-x,-y,1/2+z
1/2+x,1/2-y,1/2-z
-x,1/2+y,-z
-x,-y,-z
1/2+x,y,1/2-z
1/2-x,1/2+y,1/2+z
x,1/2-y,z
loop_
_atom_site_type_symbol
_atom_site_label
_atom_site_fract_x
_atom_site_fract_y
_atom_site_fract_z
Si Si1 0.701668 0.073464 0.722254
Si Si2 0.833440 0.076232 0.003127
Si Si3 0.077417 0.082212 0.014660
Si Si4 0.869972 0.425564 0.362717
Si Si5 0.882103 0.425646 0.620501
Si Si6 0.800267 0.074840 0.765855
Si Si7 0.038075 0.422001 0.252072
Si Si8 0.551024 0.421455 0.732291
O O1 0.697012 0.250000 0.734816
O O2 0.752552 0.017551 0.724705
O O3 0.681829 0.024019 0.605056
O O4 0.676959 0.995527 0.825474
O O5 0.827325 0.250000 0.030624
O O6 0.884810 0.042449 0.978901
O O7 0.806396 0.025561 0.893800
O O8 0.097518 0.250000 0.018457
O O9 0.049742 0.060111 0.901333
O O10 0.046134 0.055000 0.120708
O O11 0.868635 0.250000 0.344379
O O12 0.878393 0.467259 0.490849
O O13 0.906940 0.494222 0.282580
O O14 0.888033 0.250000 0.637969
O O15 0.838513 0.488875 0.684534
O O16 0.923876 0.509185 0.671683
O O17 0.802911 0.250000 0.758207
O O18 0.033052 0.250000 0.283010
O O19 0.992882 0.505925 0.284327
O O20 0.553521 0.250000 0.767879
#
# Coordination Sequence:
#
# PCOD8255318 Si02
#       8
#     8   8   8   8   8   8   8   8
#     4  11  23  40  62  89 127 163 199 248 306 362
#     4  11  21  37  64  92 121 158 204 250 298 355
#     4  10  21  38  60  91 125 158 195 244 303 357
#     4  11  24  41  63  89 119 158 208 255 297 355
#     4  10  22  43  64  85 118 161 205 250 302 356
#     4   9  21  40  62  89 121 161 200 246 302 357
#     4  11  23  39  62  93 124 154 200 251 300 361
#     4  11  23  40  63  88 122 163 200 243 305 364
#
# _framework density 19.753086
#
# number of rings (size 3 to 8) (size 9 to 14) (size 15 to 20)
#    0.000    1.500    2.500    2.250    1.750    2.500 
#    0.000    3.125    0.000    0.000    0.000    0.000 
#    0.000    0.000    0.000    0.000    0.000    0.000 
#
# Total GULP energy -793795.495061 kJ/mol
# GULP energy per Si atom -12403.054610 kJ/mol
# Density = 1.970813 g / cm^3
# Si number density = 19.753086 Si / 1000 Ang^3
#
#
#
# Elastic Constant Matrix: (Units=GPa)
#
#
# Indices 1 2 3 4 5 6 
#
# 1 89.0286 28.8256 12.3454 0.0000 0.0000 0.0000
# 2 28.8256 83.5495 32.3001 0.0000 0.0000 0.0000
# 3 12.3454 32.3001 85.8126 0.0000 0.0000 0.0000
# 4 0.0000 0.0000 0.0000 21.6157 0.0000 0.0000
# 5 0.0000 0.0000 0.0000 0.0000 18.8989 0.0000
# 6 0.0000 0.0000 0.0000 0.0000 0.0000 26.3889
#
#
#
# Elastic Compliance Matrix: (Units=1/GPa)
#
#
# Indices 1 2 3 4 5 6 
#
# 1 0.012648 -0.004284 -0.000207 0.000000 0.000000 0.000000
# 2 -0.004284 0.015458 -0.005202 0.000000 0.000000 0.000000
# 3 -0.000207 -0.005202 0.013641 0.000000 0.000000 0.000000
# 4 0.000000 0.000000 0.000000 0.046263 0.000000 0.000000
# 5 0.000000 0.000000 0.000000 0.000000 0.052913 0.000000
# 6 0.000000 0.000000 0.000000 0.000000 0.000000 0.037895
#
#
# Mechanical properties :
#
#
# Convention : Reuss Voigt Hill
#
# Bulk Modulus (GPa) = 44.72027 45.03696 44.87862
# Shear Modulus (GPa) = 24.31226 25.70867 25.01047
#
# Velocity S-wave (km/s) = 3.51209 3.61155 3.56217
# Velocity P-wave (km/s) = 6.25581 6.34354 6.29983
#
# Compressibility (1/GPa) = 0.02236122
#
# Stress axis : x y z
#
# Youngs Moduli (GPa) = 79.06375 64.69142 73.30721
#
# Poissons Ratio (x) = 0.27711 0.01519
# Poissons Ratio (y) = 0.33868 0.38136
# Poissons Ratio (z) = 0.01639 0.33654
#
# Static dielectric constant tensor:
#      x y z
#    x 3.742710 0.000000 0.000000 
#    y 0.000000 3.608680 0.000000 
#    z 0.000000 0.000000 3.739250 
# 
# 
# High freq. dielectric constant tensor:
#      x y z
#    x 1.772920 0.000000 0.000000 
#    y 0.000000 1.769910 0.000000 
#    z 0.000000 0.000000 1.780460 
# 
# From -- ./inp_files/15925.got.cif
#   From: 2010.03.12/outbox.ucp.g09.slc.cvg/sg62_8_cif.got.tgz:15925.got - 2010.05.04 19:35:18.
