data_PCOD8255903
_publ_section_title
;
Structure prediction by ZEFSAII (Michael W. Deem and Ramdas Pophale) SiO2 
 PCOD8255903
Probable space group: C M C M
;
_chemical_formula_sum "Si O2"
_cell_formula_units_Z 112
_cell_length_a 24.543753
_cell_length_b 13.766698
_cell_length_c 18.904456
_cell_angle_alpha 90.000000
_cell_angle_beta 90.000000
_cell_angle_gamma 90.000000
_cell_volume 6387.559250
_symmetry_space_group_name_H-M "C M C M"
_symmetry_group_IT_number 63
_symmetry_cell_setting 'orthorhombic'
loop_
_space_group_symop_operation_xyz
x,y,z
-x,-y,1/2+z
x,-y,-z
-x,y,1/2-z
-x,-y,-z
x,y,1/2-z
-x,y,z
x,-y,1/2+z
1/2+x,1/2+y,z
1/2-x,1/2-y,1/2+z
1/2+x,1/2-y,-z
1/2-x,1/2+y,1/2-z
1/2-x,1/2-y,-z
1/2+x,1/2+y,1/2-z
1/2-x,1/2+y,z
1/2+x,1/2-y,1/2+z
loop_
_atom_site_type_symbol
_atom_site_label
_atom_site_fract_x
_atom_site_fract_y
_atom_site_fract_z
Si Si1 0.600832 0.120007 0.328487
Si Si2 0.440151 0.106300 0.472575
Si Si3 0.832163 0.570011 0.826589
Si Si4 0.667076 0.819886 0.031394
Si Si5 0.289265 0.486623 0.172163
Si Si6 0.740692 0.344629 0.929864
Si Si7 0.685369 0.719318 0.669485
O O1 0.574933 0.112002 0.250000
O O2 0.554477 0.104835 0.387200
O O3 0.628871 0.224071 0.340254
O O4 0.646992 0.038720 0.341202
O O5 0.500000 0.136924 0.502445
O O6 0.391646 0.179978 0.492886
O O7 0.423811 0.000000 0.500000
O O8 0.855466 0.607708 0.750000
O O9 0.846944 0.640957 0.890573
O O10 0.768209 0.565187 0.820728
O O11 0.690183 0.709906 0.031859
O O12 0.713296 0.881106 0.986865
O O13 0.306038 0.529492 0.250000
O O14 0.287746 0.567467 0.111695
O O15 0.327017 0.394269 0.150301
O O16 0.767385 0.265780 0.878030
O O17 0.705924 0.729043 0.750000
#
# Coordination Sequence:
#
# PCOD8255903 Si02
#       7
#    16  16  16  16  16  16  16
#     4  10  19  33  52  73 101 138 175 211 253 306
#     4  11  22  36  55  77 106 142 176 215 260 305
#     4  10  18  29  48  69  99 139 172 210 253 304
#     4  11  22  34  48  75 103 138 179 213 256 310
#     4  10  19  30  46  73 106 140 173 208 249 309
#     4  11  21  31  50  75 105 143 173 209 260 313
#     4  10  18  30  48  73 105 138 172 209 255 306
#
# _framework density 17.534084
#
# number of rings (size 3 to 8) (size 9 to 14) (size 15 to 20)
#    0.000    1.571    5.714    0.429    0.000    0.857 
#    0.000    0.000    0.000    0.429    0.000    2.000 
#    0.000    1.143    0.000    0.000    0.000    0.000 
#
# Total GULP energy -693816.285979 kJ/mol
# GULP energy per Si atom -12389.576535 kJ/mol
# Density = 1.749418 g / cm^3
# Si number density = 17.534084 Si / 1000 Ang^3
#
#
#
# Elastic Constant Matrix: (Units=GPa)
#
#
# Indices 1 2 3 4 5 6 
#
# 1 70.1092 24.6969 29.8638 0.0000 0.0000 0.0000
# 2 24.6969 71.6771 45.3136 0.0000 0.0000 0.0000
# 3 29.8638 45.3136 112.9116 0.0000 0.0000 0.0000
# 4 0.0000 0.0000 0.0000 27.6272 0.0000 0.0000
# 5 0.0000 0.0000 0.0000 0.0000 5.3850 0.0000
# 6 0.0000 0.0000 0.0000 0.0000 0.0000 9.3493
#
#
#
# Elastic Compliance Matrix: (Units=1/GPa)
#
#
# Indices 1 2 3 4 5 6 
#
# 1 0.016895 -0.004015 -0.002857 0.000000 0.000000 0.000000
# 2 -0.004015 0.019649 -0.006823 0.000000 0.000000 0.000000
# 3 -0.002857 -0.006823 0.012351 0.000000 0.000000 0.000000
# 4 0.000000 0.000000 0.000000 0.036196 0.000000 0.000000
# 5 0.000000 0.000000 0.000000 0.000000 0.185700 0.000000
# 6 0.000000 0.000000 0.000000 0.000000 0.000000 0.106960
#
#
# Mechanical properties :
#
#
# Convention : Reuss Voigt Hill
#
# Bulk Modulus (GPa) = 46.50564 50.49406 48.49985
# Shear Modulus (GPa) = 12.12683 18.79388 15.46035
#
# Velocity S-wave (km/s) = 2.63271 3.27746 2.97262
# Velocity P-wave (km/s) = 5.98516 6.57134 6.28509
#
# Compressibility (1/GPa) = 0.02150277
#
# Stress axis : x y z
#
# Youngs Moduli (GPa) = 59.18969 50.89431 80.96793
#
# Poissons Ratio (x) = 0.20434 0.23134
# Poissons Ratio (y) = 0.23764 0.55248
# Poissons Ratio (z) = 0.16912 0.34727
#
# Static dielectric constant tensor:
#      x y z
#    x 2.856770 0.000000 0.000000 
#    y 0.000000 3.202410 0.000000 
#    z 0.000000 0.000000 3.799810 
# 
# 
# High freq. dielectric constant tensor:
#      x y z
#    x 1.622070 0.000000 0.000000 
#    y 0.000000 1.655060 0.000000 
#    z 0.000000 0.000000 1.706890 
# 
# From -- ./inp_files/58317.got.cif
#   From: 2010.03.12/outbox.cif.g09.slc.cpg/sg63_30_cif.got.tgz:58317.got - 2010.04.10 19:34:48.
