data_PCOD8255760
_publ_section_title
;
Structure prediction by ZEFSAII (Michael W. Deem and Ramdas Pophale) SiO2 
 PCOD8255760
Probable space group: C M C M
;
_chemical_formula_sum "Si O2"
_cell_formula_units_Z 96
_cell_length_a 9.031625
_cell_length_b 29.966528
_cell_length_c 21.317969
_cell_angle_alpha 90.000000
_cell_angle_beta 90.000000
_cell_angle_gamma 90.000000
_cell_volume 5769.632491
_symmetry_space_group_name_H-M "C M C M"
_symmetry_group_IT_number 63
_symmetry_cell_setting 'orthorhombic'
loop_
_space_group_symop_operation_xyz
x,y,z
-x,-y,1/2+z
x,-y,-z
-x,y,1/2-z
-x,-y,-z
x,y,1/2-z
-x,y,z
x,-y,1/2+z
1/2+x,1/2+y,z
1/2-x,1/2-y,1/2+z
1/2+x,1/2-y,-z
1/2-x,1/2+y,1/2-z
1/2-x,1/2-y,-z
1/2+x,1/2+y,1/2-z
1/2-x,1/2+y,z
1/2+x,1/2-y,1/2+z
loop_
_atom_site_type_symbol
_atom_site_label
_atom_site_fract_x
_atom_site_fract_y
_atom_site_fract_z
Si Si1 0.329375 0.352273 0.676980
Si Si2 0.672491 0.689133 0.951009
Si Si3 0.673413 0.074102 0.400797
Si Si4 0.673936 0.098587 0.542314
Si Si5 0.170986 0.773796 0.913195
Si Si6 0.332755 0.487590 0.427503
O O1 0.298914 0.346166 0.750000
O O2 0.500000 0.364095 0.662190
O O3 0.227847 0.391844 0.651776
O O4 0.286204 0.305689 0.644354
O O5 0.500000 0.681855 0.938923
O O6 0.758030 0.644383 0.932031
O O7 0.730358 0.729402 0.907456
O O8 0.708688 0.699938 0.023162
O O9 0.500000 0.066229 0.393785
O O10 0.714099 0.093494 0.469022
O O11 0.753188 0.026827 0.388758
O O12 0.500000 0.098281 0.553899
O O13 0.745064 0.058509 0.582520
O O14 0.000000 0.759353 0.911956
O O15 0.329514 0.500000 0.500000
O O16 0.500000 0.482074 0.402815
#
# Coordination Sequence:
#
# PCOD8255760 Si02
#       6
#    16  16  16  16  16  16
#     4  10  20  34  51  69  92 126 165 201 238 281
#     4  10  18  28  46  68  93 125 158 193 239 291
#     4  10  19  30  45  66  95 126 157 194 235 280
#     4  10  18  28  44  68  97 126 155 189 234 285
#     4   9  18  31  45  65  93 123 157 198 240 284
#     4   9  17  28  44  65  92 124 156 188 226 274
#
# _framework density 16.638842
#
# number of rings (size 3 to 8) (size 9 to 14) (size 15 to 20)
#    0.000    2.333    1.667    2.000    0.000    5.000 
#    0.000    0.000    0.000    0.000    0.000    1.167 
#    0.000    6.667    0.000    0.000    0.000    0.000 
#
# Total GULP energy -595328.866647 kJ/mol
# GULP energy per Si atom -12402.684722 kJ/mol
# Density = 1.660097 g / cm^3
# Si number density = 16.638842 Si / 1000 Ang^3
#
#
#
# Elastic Constant Matrix: (Units=GPa)
#
#
# Indices 1 2 3 4 5 6 
#
# 1 96.4598 73.9745 26.0264 0.0000 0.0000 0.0000
# 2 73.9745 150.9487 37.3663 0.0000 0.0000 0.0000
# 3 26.0264 37.3663 50.1173 0.0000 0.0000 0.0000
# 4 0.0000 0.0000 0.0000 17.5849 0.0000 0.0000
# 5 0.0000 0.0000 0.0000 0.0000 15.7084 0.0000
# 6 0.0000 0.0000 0.0000 0.0000 0.0000 38.3346
#
#
#
# Elastic Compliance Matrix: (Units=1/GPa)
#
#
# Indices 1 2 3 4 5 6 
#
# 1 0.017021 -0.007546 -0.003213 0.000000 0.000000 0.000000
# 2 -0.007546 0.011470 -0.004633 0.000000 0.000000 0.000000
# 3 -0.003213 -0.004633 0.025076 0.000000 0.000000 0.000000
# 4 0.000000 0.000000 0.000000 0.056867 0.000000 0.000000
# 5 0.000000 0.000000 0.000000 0.000000 0.063660 0.000000
# 6 0.000000 0.000000 0.000000 0.000000 0.000000 0.026086
#
#
# Mechanical properties :
#
#
# Convention : Reuss Voigt Hill
#
# Bulk Modulus (GPa) = 43.89278 63.58446 53.73862
# Shear Modulus (GPa) = 20.95931 25.00281 22.98106
#
# Velocity S-wave (km/s) = 3.55302 3.88064 3.72044
# Velocity P-wave (km/s) = 6.57791 7.64046 7.12901
#
# Compressibility (1/GPa) = 0.02278279
#
# Stress axis : x y z
#
# Youngs Moduli (GPa) = 58.75131 87.18723 39.87908
#
# Poissons Ratio (x) = 0.65791 0.12813
# Poissons Ratio (y) = 0.44333 0.18475
# Poissons Ratio (z) = 0.18877 0.40392
#
# Static dielectric constant tensor:
#      x y z
#    x 3.195960 0.000000 0.000000 
#    y 0.000000 3.238620 0.000000 
#    z 0.000000 0.000000 2.658170 
# 
# 
# High freq. dielectric constant tensor:
#      x y z
#    x 1.653730 0.000000 0.000000 
#    y 0.000000 1.653610 0.000000 
#    z 0.000000 0.000000 1.577530 
# 
# From -- ./inp_files/60176.got.cif
#   From: 2010.03.12/outbox.cif.g09.slc.cpg/sg63_31_cif.got.tgz:60176.got - 2010.04.10 19:34:48.
