data_PCOD8255737
_publ_section_title
;
Structure prediction by ZEFSAII (Michael W. Deem and Ramdas Pophale) SiO2 
 PCOD8255737
Probable space group: C M C M
;
_chemical_formula_sum "Si O2"
_cell_formula_units_Z 112
_cell_length_a 14.837817
_cell_length_b 29.498638
_cell_length_c 14.441617
_cell_angle_alpha 90.000000
_cell_angle_beta 90.000000
_cell_angle_gamma 90.000000
_cell_volume 6321.029220
_symmetry_space_group_name_H-M "C M C M"
_symmetry_group_IT_number 63
_symmetry_cell_setting 'orthorhombic'
loop_
_space_group_symop_operation_xyz
x,y,z
-x,-y,1/2+z
x,-y,-z
-x,y,1/2-z
-x,-y,-z
x,y,1/2-z
-x,y,z
x,-y,1/2+z
1/2+x,1/2+y,z
1/2-x,1/2-y,1/2+z
1/2+x,1/2-y,-z
1/2-x,1/2+y,1/2-z
1/2-x,1/2-y,-z
1/2+x,1/2+y,1/2-z
1/2-x,1/2+y,z
1/2+x,1/2-y,1/2+z
loop_
_atom_site_type_symbol
_atom_site_label
_atom_site_fract_x
_atom_site_fract_y
_atom_site_fract_z
Si Si1 0.602295 0.770953 0.646103
Si Si2 0.399917 0.897984 0.047358
Si Si3 0.604494 0.721833 0.464168
Si Si4 0.732565 0.335728 0.852748
Si Si5 0.345712 0.083566 0.146964
Si Si6 0.396654 0.014944 0.854716
Si Si7 0.892616 0.309827 0.144861
O O1 0.611728 0.750924 0.750000
O O2 0.500000 0.789005 0.628270
O O3 0.622656 0.730713 0.572954
O O4 0.670170 0.812387 0.630125
O O5 0.500000 0.898965 0.089312
O O6 0.354448 0.945048 0.081905
O O7 0.351865 0.853427 0.090298
O O8 0.405288 0.896085 0.936165
O O9 0.500000 0.712318 0.443813
O O10 0.660467 0.678313 0.430201
O O11 0.642230 0.764687 0.405939
O O12 0.696009 0.323132 0.750000
O O13 0.749610 0.390075 0.859449
O O14 0.388749 0.092557 0.250000
O O15 0.334692 0.029642 0.132443
O O16 0.393497 0.032629 0.750000
O O17 0.500000 0.002162 0.882966
O O18 0.856947 0.310022 0.250000
O O19 0.000000 0.310174 0.140142
#
# Coordination Sequence:
#
# PCOD8255737 Si02
#       7
#    16  16  16  16  16  16  16
#     4   9  18  31  46  66  92 122 156 192 232 281
#     4  10  18  28  43  63  88 118 152 190 230 271
#     4  10  19  32  51  71  92 123 162 203 244 282
#     4  10  20  32  46  65  92 126 162 202 241 276
#     4  10  20  30  40  58  85 118 154 188 224 268
#     4   9  17  29  45  65  90 121 156 192 230 275
#     4   9  17  28  42  62  87 114 147 188 233 279
#
# _framework density 17.718633000000001
#
# number of rings (size 3 to 8) (size 9 to 14) (size 15 to 20)
#    0.000    2.429    0.000    3.000    0.000    6.857 
#    0.000    4.286    0.000    0.857    0.000    0.000 
#    0.000    2.286    0.000    0.857    0.000   20.714 
#
# Total GULP energy -693935.317931 kJ/mol
# GULP energy per Si atom -12391.702106 kJ/mol
# Density = 1.767830 g / cm^3
# Si number density = 17.718633 Si / 1000 Ang^3
#
#
#
# Elastic Constant Matrix: (Units=GPa)
#
#
# Indices 1 2 3 4 5 6 
#
# 1 39.9802 28.0431 22.5878 0.0000 0.0000 0.0000
# 2 28.0431 95.1024 40.8352 0.0000 0.0000 0.0000
# 3 22.5878 40.8352 116.8374 0.0000 0.0000 0.0000
# 4 0.0000 0.0000 0.0000 19.8894 0.0000 0.0000
# 5 0.0000 0.0000 0.0000 0.0000 19.0003 0.0000
# 6 0.0000 0.0000 0.0000 0.0000 0.0000 21.4045
#
#
#
# Elastic Compliance Matrix: (Units=1/GPa)
#
#
# Indices 1 2 3 4 5 6 
#
# 1 0.032689 -0.008148 -0.003472 0.000000 0.000000 0.000000
# 2 -0.008148 0.014403 -0.003459 0.000000 0.000000 0.000000
# 3 -0.003472 -0.003459 0.010439 0.000000 0.000000 0.000000
# 4 0.000000 0.000000 0.000000 0.050278 0.000000 0.000000
# 5 0.000000 0.000000 0.000000 0.000000 0.052631 0.000000
# 6 0.000000 0.000000 0.000000 0.000000 0.000000 0.046719
#
#
# Mechanical properties :
#
#
# Convention : Reuss Voigt Hill
#
# Bulk Modulus (GPa) = 36.53175 48.31690 42.42432
# Shear Modulus (GPa) = 20.28882 22.75576 21.52229
#
# Velocity S-wave (km/s) = 3.38754 3.58758 3.48899
# Velocity P-wave (km/s) = 5.99692 6.67002 6.34240
#
# Compressibility (1/GPa) = 0.02737345
#
# Stress axis : x y z
#
# Youngs Moduli (GPa) = 30.59092 69.43105 95.79584
#
# Poissons Ratio (x) = 0.56576 0.33258
# Poissons Ratio (y) = 0.24927 0.33131
# Poissons Ratio (z) = 0.10621 0.24013
#
# Static dielectric constant tensor:
#      x y z
#    x 2.762710 0.000000 0.000000 
#    y 0.000000 3.273540 0.000000 
#    z 0.000000 0.000000 3.574560 
# 
# 
# High freq. dielectric constant tensor:
#      x y z
#    x 1.612010 0.000000 0.000000 
#    y 0.000000 1.671370 0.000000 
#    z 0.000000 0.000000 1.712330 
# 
# From -- ./inp_files/32569.got.cif
#   From: 2010.03.12/outbox.cif.g09.slc.cpg/sg63_17_cif.got.tgz:32569.got - 2010.04.10 19:34:48.
