data_PCOD8255723
_publ_section_title
;
Structure prediction by ZEFSAII (Michael W. Deem and Ramdas Pophale) SiO2 
 PCOD8255723
Probable space group: C M C M
;
_chemical_formula_sum "Si O2"
_cell_formula_units_Z 128
_cell_length_a 26.631558
_cell_length_b 10.833275
_cell_length_c 26.707403
_cell_angle_alpha 90.000000
_cell_angle_beta 90.000000
_cell_angle_gamma 90.000000
_cell_volume 7705.272490
_symmetry_space_group_name_H-M "C M C M"
_symmetry_group_IT_number 63
_symmetry_cell_setting 'orthorhombic'
loop_
_space_group_symop_operation_xyz
x,y,z
-x,-y,1/2+z
x,-y,-z
-x,y,1/2-z
-x,-y,-z
x,y,1/2-z
-x,y,z
x,-y,1/2+z
1/2+x,1/2+y,z
1/2-x,1/2-y,1/2+z
1/2+x,1/2-y,-z
1/2-x,1/2+y,1/2-z
1/2-x,1/2-y,-z
1/2+x,1/2+y,1/2-z
1/2-x,1/2+y,z
1/2+x,1/2-y,1/2+z
loop_
_atom_site_type_symbol
_atom_site_label
_atom_site_fract_x
_atom_site_fract_y
_atom_site_fract_z
Si Si1 0.188818 0.375895 0.973706
Si Si2 0.863246 0.746103 0.385377
Si Si3 0.253792 0.733833 0.656687
Si Si4 0.295184 0.316043 0.939931
Si Si5 0.365672 0.482253 0.883724
Si Si6 0.443333 0.534334 0.305565
Si Si7 0.443255 0.240704 0.193903
Si Si8 0.221365 0.011857 0.305117
O O1 0.146638 0.343904 0.932346
O O2 0.244658 0.396539 0.950478
O O3 0.170489 0.500000 0.000000
O O4 0.190615 0.264714 0.012735
O O5 0.811831 0.764699 0.356578
O O6 0.904799 0.686882 0.347785
O O7 0.881721 0.882313 0.404227
O O8 0.217204 0.732606 0.608406
O O9 0.247405 0.855151 0.690597
O O10 0.241152 0.605245 0.685400
O O11 0.343951 0.401484 0.929566
O O12 0.410140 0.414386 0.852140
O O13 0.321880 0.500552 0.844566
O O14 0.426023 0.581627 0.250000
O O15 0.500000 0.578442 0.315318
O O16 0.439027 0.387503 0.306099
O O17 0.429706 0.192165 0.250000
O O18 0.500000 0.199731 0.179978
O O19 0.198368 0.999309 0.250000
#
# Coordination Sequence:
#
# PCOD8255723 Si02
#       8
#    16  16  16  16  16  16  16  16
#     4  10  21  31  49  65  89 119 158 198 231 267
#     4   9  18  29  45  70  92 118 151 189 228 277
#     4   9  19  29  43  62  92 125 156 193 230 275
#     4   9  20  31  46  65  88 120 156 194 232 279
#     4   9  17  28  43  65  95 120 151 189 233 278
#     4   8  13  23  42  69  97 124 151 181 224 280
#     4   8  14  26  46  71  98 122 146 182 230 280
#     4  10  18  28  41  61  92 128 159 187 230 282
#
# _framework density 16.612000999999999
#
# number of rings (size 3 to 8) (size 9 to 14) (size 15 to 20)
#    0.000    3.000    0.000    1.500   10.500    3.500 
#    0.000    0.000    0.000    1.125    0.000    3.500 
#    0.000    2.000    0.000    0.000    0.000    0.000 
#
# Total GULP energy -792892.426250 kJ/mol
# GULP energy per Si atom -12388.944160 kJ/mol
# Density = 1.657419 g / cm^3
# Si number density = 16.612001 Si / 1000 Ang^3
#
#
#
# Elastic Constant Matrix: (Units=GPa)
#
#
# Indices 1 2 3 4 5 6 
#
# 1 72.0518 20.8606 40.1217 0.0000 0.0000 0.0000
# 2 20.8606 58.4273 30.7700 0.0000 0.0000 0.0000
# 3 40.1217 30.7700 85.3537 0.0000 0.0000 0.0000
# 4 0.0000 0.0000 0.0000 16.5628 0.0000 0.0000
# 5 0.0000 0.0000 0.0000 0.0000 31.2327 0.0000
# 6 0.0000 0.0000 0.0000 0.0000 0.0000 12.9291
#
#
#
# Elastic Compliance Matrix: (Units=1/GPa)
#
#
# Indices 1 2 3 4 5 6 
#
# 1 0.019110 -0.002583 -0.008052 0.000000 0.000000 0.000000
# 2 -0.002583 0.021475 -0.006528 0.000000 0.000000 0.000000
# 3 -0.008052 -0.006528 0.017854 0.000000 0.000000 0.000000
# 4 0.000000 0.000000 0.000000 0.060376 0.000000 0.000000
# 5 0.000000 0.000000 0.000000 0.000000 0.032018 0.000000
# 6 0.000000 0.000000 0.000000 0.000000 0.000000 0.077345
#
#
# Mechanical properties :
#
#
# Convention : Reuss Voigt Hill
#
# Bulk Modulus (GPa) = 41.46824 44.37080 42.91952
# Shear Modulus (GPa) = 18.48145 20.41696 19.44920
#
# Velocity S-wave (km/s) = 3.33909 3.50958 3.42540
# Velocity P-wave (km/s) = 6.31530 6.57198 6.44492
#
# Compressibility (1/GPa) = 0.02411484
#
# Stress axis : x y z
#
# Youngs Moduli (GPa) = 52.32756 46.56545 56.00911
#
# Poissons Ratio (x) = 0.12026 0.45099
# Poissons Ratio (y) = 0.13514 0.36562
# Poissons Ratio (z) = 0.42135 0.30397
#
# Static dielectric constant tensor:
#      x y z
#    x 3.152690 0.000000 0.000000 
#    y 0.000000 3.268380 0.000000 
#    z 0.000000 0.000000 3.327250 
# 
# 
# High freq. dielectric constant tensor:
#      x y z
#    x 1.609280 0.000000 0.000000 
#    y 0.000000 1.607140 0.000000 
#    z 0.000000 0.000000 1.643670 
# 
# From -- ./inp_files/70831.got.cif
#   From: 2010.03.12/outbox.cif.g09.slc.cpg/sg63_36_cif.got.tgz:70831.got - 2010.04.10 19:34:48.
