data_PCOD8255818
_publ_section_title
;
Structure prediction by ZEFSAII (Michael W. Deem and Ramdas Pophale) SiO2 
 PCOD8255818
Probable space group: C M C M
;
_chemical_formula_sum "Si O2"
_cell_formula_units_Z 80
_cell_length_a 8.816444
_cell_length_b 18.338853
_cell_length_c 26.223710
_cell_angle_alpha 90.000000
_cell_angle_beta 90.000000
_cell_angle_gamma 90.000000
_cell_volume 4239.940442
_symmetry_space_group_name_H-M "C M C M"
_symmetry_group_IT_number 63
_symmetry_cell_setting 'orthorhombic'
loop_
_space_group_symop_operation_xyz
x,y,z
-x,-y,1/2+z
x,-y,-z
-x,y,1/2-z
-x,-y,-z
x,y,1/2-z
-x,y,z
x,-y,1/2+z
1/2+x,1/2+y,z
1/2-x,1/2-y,1/2+z
1/2+x,1/2-y,-z
1/2-x,1/2+y,1/2-z
1/2-x,1/2-y,-z
1/2+x,1/2+y,1/2-z
1/2-x,1/2+y,z
1/2+x,1/2-y,1/2+z
loop_
_atom_site_type_symbol
_atom_site_label
_atom_site_fract_x
_atom_site_fract_y
_atom_site_fract_z
Si Si1 0.177059 0.040124 0.250000
Si Si2 0.177100 0.450211 0.451893
Si Si3 0.679290 0.959932 0.853143
Si Si4 0.324094 0.795167 0.640229
Si Si5 0.825120 0.306809 0.750000
Si Si6 0.320140 0.294110 0.453966
O O1 0.247970 0.005921 0.301711
O O2 0.212284 0.125594 0.250000
O O3 0.000000 0.024380 0.250000
O O4 0.217067 0.500000 0.500000
O O5 0.229275 0.491275 0.400786
O O6 0.272465 0.377352 0.456766
O O7 0.000000 0.430725 0.450827
O O8 0.500000 0.958944 0.846025
O O9 0.741425 0.877564 0.862742
O O10 0.500000 0.799942 0.627464
O O11 0.295709 0.762010 0.697554
O O12 0.251991 0.741750 0.598138
O O13 0.000000 0.335882 0.750000
O O14 0.500000 0.288908 0.456844
O O15 0.250000 0.250000 0.500000
#
# Coordination Sequence:
#
# PCOD8255818 Si02
#       6
#     8  16  16  16   8  16
#     4  10  18  28  47  78 111 135 165 213 261 302
#     4  10  21  38  58  78 103 138 179 221 268 321
#     4   9  17  33  56  76 100 138 179 212 251 312
#     4   8  15  30  54  78  98 130 174 213 249 300
#     4   8  14  30  53  72  95 133 177 209 245 304
#     4  11  22  36  54  78 108 139 175 217 265 320
#
# _framework density 18.868189999999998
#
# number of rings (size 3 to 8) (size 9 to 14) (size 15 to 20)
#    0.000    2.600    0.000    3.900    0.000    4.400 
#    0.000   13.000    0.000    1.200    0.000    0.000 
#    0.000    0.000    0.000    0.000    0.000    0.000 
#
# Total GULP energy -495738.522809 kJ/mol
# GULP energy per Si atom -12393.463070 kJ/mol
# Density = 1.882525 g / cm^3
# Si number density = 18.868190 Si / 1000 Ang^3
#
#
#
# Elastic Constant Matrix: (Units=GPa)
#
#
# Indices 1 2 3 4 5 6 
#
# 1 53.1978 34.5353 50.4882 0.0000 0.0000 0.0000
# 2 34.5353 94.8568 79.1716 0.0000 0.0000 0.0000
# 3 50.4882 79.1716 212.1478 0.0000 0.0000 0.0000
# 4 0.0000 0.0000 0.0000 34.4153 0.0000 0.0000
# 5 0.0000 0.0000 0.0000 0.0000 17.5575 0.0000
# 6 0.0000 0.0000 0.0000 0.0000 0.0000 21.9577
#
#
#
# Elastic Compliance Matrix: (Units=1/GPa)
#
#
# Indices 1 2 3 4 5 6 
#
# 1 0.026730 -0.006423 -0.003964 0.000000 0.000000 0.000000
# 2 -0.006423 0.016855 -0.004761 0.000000 0.000000 0.000000
# 3 -0.003964 -0.004761 0.007434 0.000000 0.000000 0.000000
# 4 0.000000 0.000000 0.000000 0.029057 0.000000 0.000000
# 5 0.000000 0.000000 0.000000 0.000000 0.056956 0.000000
# 6 0.000000 0.000000 0.000000 0.000000 0.000000 0.045542
#
#
# Mechanical properties :
#
#
# Convention : Reuss Voigt Hill
#
# Bulk Modulus (GPa) = 48.25967 76.51027 62.38497
# Shear Modulus (GPa) = 22.75022 27.85326 25.30174
#
# Velocity S-wave (km/s) = 3.47615 3.84631 3.66590
# Velocity P-wave (km/s) = 6.46098 7.76938 7.14519
#
# Compressibility (1/GPa) = 0.02072124
#
# Stress axis : x y z
#
# Youngs Moduli (GPa) = 37.41126 59.33024 134.51521
#
# Poissons Ratio (x) = 0.38107 0.53327
# Poissons Ratio (y) = 0.24029 0.64049
# Poissons Ratio (z) = 0.14831 0.28250
#
# Static dielectric constant tensor:
#      x y z
#    x 3.168720 0.000000 0.000000 
#    y 0.000000 3.474130 0.000000 
#    z 0.000000 0.000000 3.975850 
# 
# 
# High freq. dielectric constant tensor:
#      x y z
#    x 1.705540 0.000000 0.000000 
#    y 0.000000 1.700980 0.000000 
#    z 0.000000 0.000000 1.763790 
# 
# From -- ./inp_files/66666.got.cif
#   From: 2010.03.12/outbox.cif.g09.slc.cpg/sg63_34_cif.got.tgz:66666.got - 2010.04.10 19:34:48.
