data_PCOD8255554
_publ_section_title
;
Structure prediction by ZEFSAII (Michael W. Deem and Ramdas Pophale) SiO2 
 PCOD8255554
Probable space group: C M C M
;
_chemical_formula_sum "Si O2"
_cell_formula_units_Z 112
_cell_length_a 18.198711
_cell_length_b 15.298460
_cell_length_c 23.668832
_cell_angle_alpha 90.000000
_cell_angle_beta 90.000000
_cell_angle_gamma 90.000000
_cell_volume 6589.692826
_symmetry_space_group_name_H-M "C M C M"
_symmetry_group_IT_number 63
_symmetry_cell_setting 'orthorhombic'
loop_
_space_group_symop_operation_xyz
x,y,z
-x,-y,1/2+z
x,-y,-z
-x,y,1/2-z
-x,-y,-z
x,y,1/2-z
-x,y,z
x,-y,1/2+z
1/2+x,1/2+y,z
1/2-x,1/2-y,1/2+z
1/2+x,1/2-y,-z
1/2-x,1/2+y,1/2-z
1/2-x,1/2-y,-z
1/2+x,1/2+y,1/2-z
1/2-x,1/2+y,z
1/2+x,1/2-y,1/2+z
loop_
_atom_site_type_symbol
_atom_site_label
_atom_site_fract_x
_atom_site_fract_y
_atom_site_fract_z
Si Si1 0.314428 0.260976 0.685743
Si Si2 0.419364 0.073901 0.317153
Si Si3 0.419649 0.399459 0.010451
Si Si4 0.698226 0.065257 0.684481
Si Si5 0.351342 0.748919 0.683260
Si Si6 0.414150 0.388295 0.885579
Si Si7 0.650095 0.422788 0.376659
O O1 0.316381 0.293757 0.750000
O O2 0.231565 0.266972 0.661721
O O3 0.368825 0.322580 0.652438
O O4 0.339787 0.160127 0.680797
O O5 0.418547 0.072967 0.250000
O O6 0.500000 0.048742 0.340311
O O7 0.360275 0.004259 0.339075
O O8 0.400609 0.171178 0.339101
O O9 0.500000 0.359325 0.028066
O O10 0.357495 0.387190 0.058656
O O11 0.433860 0.500000 0.000000
O O12 0.392818 0.361951 0.950022
O O13 0.722334 0.046992 0.750000
O O14 0.766803 0.057461 0.642142
O O15 0.351607 0.741763 0.750000
O O16 0.382236 0.656453 0.660912
O O17 0.500000 0.373776 0.874376
O O18 0.396336 0.488752 0.869461
#
# Coordination Sequence:
#
# PCOD8255554 Si02
#       7
#    16  16  16  16  16  16  16
#     4   9  18  32  48  68  97 127 153 185 228 278
#     4   9  17  29  45  64  89 124 160 191 228 277
#     4   8  16  31  47  65  93 127 159 190 227 276
#     4   9  18  32  49  69  94 125 160 197 233 270
#     4   9  18  31  46  68  97 125 154 192 235 276
#     4  10  20  32  48  72 100 126 153 191 236 280
#     4  10  17  29  50  70  91 124 159 191 235 283
#
# _framework density 16.996238999999999
#
# number of rings (size 3 to 8) (size 9 to 14) (size 15 to 20)
#    0.000    2.857    0.000    3.429    0.000    4.286 
#    0.000    4.286    0.000    3.857    0.000    0.000 
#    0.000    9.714    0.000    0.000    0.000    0.000 
#
# Total GULP energy -693887.300541 kJ/mol
# GULP energy per Si atom -12390.844653 kJ/mol
# Density = 1.695756 g / cm^3
# Si number density = 16.996239 Si / 1000 Ang^3
#
#
#
# Elastic Constant Matrix: (Units=GPa)
#
#
# Indices 1 2 3 4 5 6 
#
# 1 94.0772 42.1825 53.7081 0.0000 0.0000 0.0000
# 2 42.1825 73.4288 35.9258 0.0000 0.0000 0.0000
# 3 53.7081 35.9258 69.1179 0.0000 0.0000 0.0000
# 4 0.0000 0.0000 0.0000 14.2176 0.0000 0.0000
# 5 0.0000 0.0000 0.0000 0.0000 210.3468 0.0000
# 6 0.0000 0.0000 0.0000 0.0000 0.0000 73.0156
#
#
#
# Elastic Compliance Matrix: (Units=1/GPa)
#
#
# Indices 1 2 3 4 5 6 
#
# 1 0.020565 -0.005358 -0.013195 0.000000 0.000000 0.000000
# 2 -0.005358 0.019659 -0.006055 0.000000 0.000000 0.000000
# 3 -0.013195 -0.006055 0.027868 0.000000 0.000000 0.000000
# 4 0.000000 0.000000 0.000000 0.070336 0.000000 0.000000
# 5 0.000000 0.000000 0.000000 0.000000 0.004754 0.000000
# 6 0.000000 0.000000 0.000000 0.000000 0.000000 0.013696
#
#
# Mechanical properties :
#
#
# Convention : Reuss Voigt Hill
#
# Bulk Modulus (GPa) = 52.97567 55.58409 54.27988
# Shear Modulus (GPa) = 23.54205 66.50315 45.02260
#
# Velocity S-wave (km/s) = 3.72578 6.26204 5.15240
# Velocity P-wave (km/s) = 7.05303 9.22274 8.20988
#
# Compressibility (1/GPa) = 0.01887659
#
# Stress axis : x y z
#
# Youngs Moduli (GPa) = 48.62617 50.86712 35.88298
#
# Poissons Ratio (x) = 0.27255 0.47348
# Poissons Ratio (y) = 0.26055 0.21726
# Poissons Ratio (z) = 0.64163 0.30799
#
# Static dielectric constant tensor:
#      x y z
#    x 3.229310 0.000000 0.000000 
#    y 0.000000 3.234860 0.000000 
#    z 0.000000 0.000000 3.305800 
# 
# 
# High freq. dielectric constant tensor:
#      x y z
#    x 1.649090 0.000000 0.000000 
#    y 0.000000 1.654340 0.000000 
#    z 0.000000 0.000000 1.627080 
# 
# From -- ./inp_files/55857.got.cif
#   From: 2010.03.12/outbox.cif.g09.slc.cpg/sg63_28_cif.got.tgz:55857.got - 2010.04.10 19:34:48.
