data_PCOD8255872
_publ_section_title
;
Structure prediction by ZEFSAII (Michael W. Deem and Ramdas Pophale) SiO2 
 PCOD8255872
Probable space group: C M C M
;
_chemical_formula_sum "Si O2"
_cell_formula_units_Z 96
_cell_length_a 17.671687
_cell_length_b 15.491423
_cell_length_c 18.859599
_cell_angle_alpha 90.000000
_cell_angle_beta 90.000000
_cell_angle_gamma 90.000000
_cell_volume 5162.995872
_symmetry_space_group_name_H-M "C M C M"
_symmetry_group_IT_number 63
_symmetry_cell_setting 'orthorhombic'
loop_
_space_group_symop_operation_xyz
x,y,z
-x,-y,1/2+z
x,-y,-z
-x,y,1/2-z
-x,-y,-z
x,y,1/2-z
-x,y,z
x,-y,1/2+z
1/2+x,1/2+y,z
1/2-x,1/2-y,1/2+z
1/2+x,1/2-y,-z
1/2-x,1/2+y,1/2-z
1/2-x,1/2-y,-z
1/2+x,1/2+y,1/2-z
1/2-x,1/2+y,z
1/2+x,1/2-y,1/2+z
loop_
_atom_site_type_symbol
_atom_site_label
_atom_site_fract_x
_atom_site_fract_y
_atom_site_fract_z
Si Si1 0.412723 0.398610 0.431090
Si Si2 0.351977 0.746805 0.333372
Si Si3 0.197173 0.177054 0.828123
Si Si4 0.859735 0.918906 0.913770
Si Si5 0.270562 0.010195 0.329466
Si Si6 0.582942 0.074796 0.834205
O O1 0.500000 0.374339 0.444944
O O2 0.374603 0.326216 0.381025
O O3 0.363762 0.399034 0.502940
O O4 0.408660 0.494866 0.396486
O O5 0.364722 0.736663 0.250000
O O6 0.261722 0.754180 0.351202
O O7 0.389980 0.664020 0.371182
O O8 0.394667 0.830927 0.364074
O O9 0.165994 0.201075 0.750000
O O10 0.236967 0.084983 0.825513
O O11 0.773362 0.933143 0.887522
O O12 0.265298 0.051979 0.250000
O O13 0.357441 0.999985 0.356177
O O14 0.584460 0.082065 0.750000
O O15 0.500000 0.048832 0.862939
#
# Coordination Sequence:
#
# PCOD8255872 Si02
#       6
#    16  16  16  16  16  16
#     4  10  21  34  47  67  97 132 162 188 230 286
#     4   9  17  29  48  73  95 116 151 199 241 274
#     4   8  16  32  50  68  90 118 156 195 230 279
#     4  10  18  29  46  67  96 127 158 199 234 266
#     4   8  14  26  44  65  90 124 161 190 226 281
#     4   8  14  25  42  66  94 120 149 191 241 285
#
# _framework density 18.593855999999999
#
# number of rings (size 3 to 8) (size 9 to 14) (size 15 to 20)
#    0.000    3.167    0.000    3.500    0.000    3.000 
#    0.000    0.000    0.000    5.500    0.000   23.333 
#    0.000    0.000    0.000    0.000    0.000    0.000 
#
# Total GULP energy -594716.644032 kJ/mol
# GULP energy per Si atom -12389.930084 kJ/mol
# Density = 1.855154 g / cm^3
# Si number density = 18.593856 Si / 1000 Ang^3
#
#
#
# Elastic Constant Matrix: (Units=GPa)
#
#
# Indices 1 2 3 4 5 6 
#
# 1 126.7782 17.0807 51.8425 0.0000 0.0000 0.0000
# 2 17.0807 19.6998 20.3697 0.0000 0.0000 0.0000
# 3 51.8425 20.3697 71.5251 0.0000 0.0000 0.0000
# 4 0.0000 0.0000 0.0000 22.8122 0.0000 0.0000
# 5 0.0000 0.0000 0.0000 0.0000 16.9197 0.0000
# 6 0.0000 0.0000 0.0000 0.0000 0.0000 16.4288
#
#
#
# Elastic Compliance Matrix: (Units=1/GPa)
#
#
# Indices 1 2 3 4 5 6 
#
# 1 0.011259 -0.001877 -0.007626 0.000000 0.000000 0.000000
# 2 -0.001877 0.072262 -0.019219 0.000000 0.000000 0.000000
# 3 -0.007626 -0.019219 0.024982 0.000000 0.000000 0.000000
# 4 0.000000 0.000000 0.000000 0.043836 0.000000 0.000000
# 5 0.000000 0.000000 0.000000 0.000000 0.059103 0.000000
# 6 0.000000 0.000000 0.000000 0.000000 0.000000 0.060869
#
#
# Mechanical properties :
#
#
# Convention : Reuss Voigt Hill
#
# Bulk Modulus (GPa) = 19.58529 44.06544 31.82536
# Shear Modulus (GPa) = 14.41856 19.81281 17.11568
#
# Velocity S-wave (km/s) = 2.78771 3.26783 3.03727
# Velocity P-wave (km/s) = 4.57360 6.16349 5.42708
#
# Compressibility (1/GPa) = 0.05105872
#
# Stress axis : x y z
#
# Youngs Moduli (GPa) = 88.81582 13.83858 40.02821
#
# Poissons Ratio (x) = 0.02597 0.30527
# Poissons Ratio (y) = 0.16667 0.76932
# Poissons Ratio (z) = 0.67735 0.26597
#
# Static dielectric constant tensor:
#      x y z
#    x 3.660030 0.000000 0.000000 
#    y 0.000000 3.294800 0.000000 
#    z 0.000000 0.000000 3.243510 
# 
# 
# High freq. dielectric constant tensor:
#      x y z
#    x 1.710360 0.000000 0.000000 
#    y 0.000000 1.696600 0.000000 
#    z 0.000000 0.000000 1.691320 
# 
# From -- ./inp_files/45780.got.cif
#   From: 2010.03.12/outbox.cif.g09.slc.cpg/sg63_23_cif.got.tgz:45780.got - 2010.04.10 19:34:48.
