data_PCOD8256347
_publ_section_title
;
Structure prediction by ZEFSAII (Michael W. Deem and Ramdas Pophale) SiO2 
 PCOD8256347
Probable space group: C M C M
;
_chemical_formula_sum "Si O2"
_cell_formula_units_Z 80
_cell_length_a 8.671528
_cell_length_b 26.883445
_cell_length_c 18.579949
_cell_angle_alpha 90.000000
_cell_angle_beta 90.000000
_cell_angle_gamma 90.000000
_cell_volume 4331.367857
_symmetry_space_group_name_H-M "C M C M"
_symmetry_group_IT_number 63
_symmetry_cell_setting 'orthorhombic'
loop_
_space_group_symop_operation_xyz
x,y,z
-x,-y,1/2+z
x,-y,-z
-x,y,1/2-z
-x,-y,-z
x,y,1/2-z
-x,y,z
x,-y,1/2+z
1/2+x,1/2+y,z
1/2-x,1/2-y,1/2+z
1/2+x,1/2-y,-z
1/2-x,1/2+y,1/2-z
1/2-x,1/2-y,-z
1/2+x,1/2+y,1/2-z
1/2-x,1/2+y,z
1/2+x,1/2-y,1/2+z
loop_
_atom_site_type_symbol
_atom_site_label
_atom_site_fract_x
_atom_site_fract_y
_atom_site_fract_z
Si Si1 0.183125 0.574797 0.750000
Si Si2 0.678926 0.224123 0.609347
Si Si3 0.182610 0.525421 0.606313
Si Si4 0.679484 0.316976 0.250000
Si Si5 0.682317 0.924669 0.539594
Si Si6 0.179002 0.822626 0.974311
O O1 0.253447 0.547287 0.679891
O O2 0.226861 0.632077 0.750000
O O3 0.000000 0.570596 0.750000
O O4 0.500000 0.216580 0.627653
O O5 0.778263 0.215108 0.680257
O O6 0.724478 0.185119 0.547294
O O7 0.716998 0.279788 0.583199
O O8 0.231623 0.467815 0.595874
O O9 0.239774 0.558758 0.539596
O O10 0.000000 0.528215 0.607665
O O11 0.500000 0.329261 0.250000
O O12 0.500000 0.915372 0.541612
O O13 0.770762 0.874526 0.561552
O O14 0.000000 0.822357 0.994607
#
# Coordination Sequence:
#
# PCOD8256347 Si02
#       6
#     8  16  16   8  16  16
#     4  10  18  32  53  74  99 133 170 207 253 304
#     4  10  21  37  55  75 104 141 175 208 255 314
#     4   8  16  29  48  73  98 130 173 209 239 297
#     4  12  24  36  53  80 109 133 168 217 261 304
#     4   9  16  30  50  71  99 135 171 206 249 300
#     4  10  20  34  54  80 105 132 173 220 261 303
#
# _framework density 18.469916999999999
#
# number of rings (size 3 to 8) (size 9 to 14) (size 15 to 20)
#    0.000    2.400    0.000    4.500    0.000    4.000 
#    0.000    4.000    0.000    1.200    0.000    0.000 
#    0.000    0.000    0.000    0.000    0.000    0.000 
#
# Total GULP energy -496030.872154 kJ/mol
# GULP energy per Si atom -12400.771804 kJ/mol
# Density = 1.842788 g / cm^3
# Si number density = 18.469917 Si / 1000 Ang^3
#
#
#
# Elastic Constant Matrix: (Units=GPa)
#
#
# Indices 1 2 3 4 5 6 
#
# 1 28.7835 19.5286 16.7554 0.0000 0.0000 0.0000
# 2 19.5286 128.9372 45.3492 0.0000 0.0000 0.0000
# 3 16.7554 45.3492 106.7718 0.0000 0.0000 0.0000
# 4 0.0000 0.0000 0.0000 21.5068 0.0000 0.0000
# 5 0.0000 0.0000 0.0000 0.0000 20.9330 0.0000
# 6 0.0000 0.0000 0.0000 0.0000 0.0000 27.9977
#
#
#
# Elastic Compliance Matrix: (Units=1/GPa)
#
#
# Indices 1 2 3 4 5 6 
#
# 1 0.040405 -0.004573 -0.004398 0.000000 0.000000 0.000000
# 2 -0.004573 0.009635 -0.003375 0.000000 0.000000 0.000000
# 3 -0.004398 -0.003375 0.011489 0.000000 0.000000 0.000000
# 4 0.000000 0.000000 0.000000 0.046497 0.000000 0.000000
# 5 0.000000 0.000000 0.000000 0.000000 0.047772 0.000000
# 6 0.000000 0.000000 0.000000 0.000000 0.000000 0.035717
#
#
# Mechanical properties :
#
#
# Convention : Reuss Voigt Hill
#
# Bulk Modulus (GPa) = 27.14613 47.52878 37.33745
# Shear Modulus (GPa) = 21.88314 26.27811 24.08063
#
# Velocity S-wave (km/s) = 3.44583 3.77603 3.61470
# Velocity P-wave (km/s) = 5.52820 6.69329 6.13845
#
# Compressibility (1/GPa) = 0.03683766
#
# Stress axis : x y z
#
# Youngs Moduli (GPa) = 24.74945 103.78560 87.03680
#
# Poissons Ratio (x) = 0.47458 0.38283
# Poissons Ratio (y) = 0.11317 0.29373
# Poissons Ratio (z) = 0.10886 0.35026
#
# Static dielectric constant tensor:
#      x y z
#    x 3.135860 0.000000 0.000000 
#    y 0.000000 3.487700 0.000000 
#    z 0.000000 0.000000 3.587590 
# 
# 
# High freq. dielectric constant tensor:
#      x y z
#    x 1.697200 0.000000 0.000000 
#    y 0.000000 1.725930 0.000000 
#    z 0.000000 0.000000 1.704140 
# 
# From -- ./inp_files/40586.got.cif
#   From: 2010.03.12/outbox.cif.g09.slc.cpg/sg63_21_cif.got.tgz:40586.got - 2010.04.10 19:34:48.
