data_PCOD8256413
_publ_section_title
;
Structure prediction by ZEFSAII (Michael W. Deem and Ramdas Pophale) SiO2 
 PCOD8256413
Probable space group: C M C M
;
_chemical_formula_sum "Si O2"
_cell_formula_units_Z 104
_cell_length_a 18.892278
_cell_length_b 29.491530
_cell_length_c 8.968933
_cell_angle_alpha 90.000000
_cell_angle_beta 90.000000
_cell_angle_gamma 90.000000
_cell_volume 4997.150293
_symmetry_space_group_name_H-M "C M C M"
_symmetry_group_IT_number 63
_symmetry_cell_setting 'orthorhombic'
loop_
_space_group_symop_operation_xyz
x,y,z
-x,-y,1/2+z
x,-y,-z
-x,y,1/2-z
-x,-y,-z
x,y,1/2-z
-x,y,z
x,-y,1/2+z
1/2+x,1/2+y,z
1/2-x,1/2-y,1/2+z
1/2+x,1/2-y,-z
1/2-x,1/2+y,1/2-z
1/2-x,1/2-y,-z
1/2+x,1/2+y,1/2-z
1/2-x,1/2+y,z
1/2+x,1/2-y,1/2+z
loop_
_atom_site_type_symbol
_atom_site_label
_atom_site_fract_x
_atom_site_fract_y
_atom_site_fract_z
Si Si1 0.580134 0.288739 0.078667
Si Si2 0.000000 0.568373 0.087520
Si Si3 0.500000 0.451291 0.924345
Si Si4 0.500000 0.157661 0.924102
Si Si5 0.381665 0.380289 0.926528
Si Si6 0.768457 0.623347 0.925825
Si Si7 0.845631 0.543758 0.080785
Si Si8 0.638815 0.793503 0.424960
O O1 0.600060 0.298282 0.250000
O O2 0.500000 0.269426 0.062584
O O3 0.582587 0.335156 0.988409
O O4 0.638986 0.254091 0.013208
O O5 0.930343 0.537525 0.075317
O O6 0.000000 0.593042 0.250000
O O7 0.000000 0.604886 0.957820
O O8 0.500000 0.459883 0.750000
O O9 0.430359 0.423006 0.971409
O O10 0.500000 0.500000 0.000000
O O11 0.500000 0.164328 0.750000
O O12 0.429444 0.180260 0.989093
O O13 0.373949 0.375828 0.750000
O O14 0.305842 0.387591 0.999938
O O15 0.764398 0.615202 0.750000
O O16 0.792653 0.675294 0.959944
O O17 0.825848 0.589374 0.993866
O O18 0.816986 0.546046 0.250000
O O19 0.811361 0.500000 0.000000
O O20 0.633424 0.782968 0.250000
#
# Coordination Sequence:
#
# PCOD8256413 Si02
#       8
#    16   8   8   8  16  16  16  16
#     4  11  23  38  63  97 128 163 209 262 316 371
#     4  10  21  35  56  85 117 155 205 259 307 354
#     4  10  24  45  74 105 128 158 204 258 319 387
#     4  10  18  32  56  84 116 159 208 253 298 349
#     4  11  24  45  69  95 128 165 204 253 316 387
#     4  11  24  42  63  91 127 168 211 260 317 382
#     4  11  23  39  59  86 120 163 211 262 317 373
#     4  10  21  37  60  90 126 169 214 257 308 369
#
# _framework density 20.811862000000001
#
# number of rings (size 3 to 8) (size 9 to 14) (size 15 to 20)
#    0.000    1.385    3.077    2.077    0.000    5.538 
#    0.000    1.538    0.000    0.000    0.000    0.000 
#    0.000    0.000    0.000    0.000    0.000    0.000 
#
# Total GULP energy -644808.741412 kJ/mol
# GULP energy per Si atom -12400.168104 kJ/mol
# Density = 2.076449 g / cm^3
# Si number density = 20.811862 Si / 1000 Ang^3
#
#
#
# Elastic Constant Matrix: (Units=GPa)
#
#
# Indices 1 2 3 4 5 6 
#
# 1 106.9458 41.2461 52.9977 0.0000 0.0000 0.0000
# 2 41.2461 142.6278 68.1679 0.0000 0.0000 0.0000
# 3 52.9977 68.1679 113.6590 0.0000 0.0000 0.0000
# 4 0.0000 0.0000 0.0000 39.5524 0.0000 0.0000
# 5 0.0000 0.0000 0.0000 0.0000 29.5171 0.0000
# 6 0.0000 0.0000 0.0000 0.0000 0.0000 20.9485
#
#
#
# Elastic Compliance Matrix: (Units=1/GPa)
#
#
# Indices 1 2 3 4 5 6 
#
# 1 0.012292 -0.001143 -0.005046 0.000000 0.000000 0.000000
# 2 -0.001143 0.009935 -0.005426 0.000000 0.000000 0.000000
# 3 -0.005046 -0.005426 0.014405 0.000000 0.000000 0.000000
# 4 0.000000 0.000000 0.000000 0.025283 0.000000 0.000000
# 5 0.000000 0.000000 0.000000 0.000000 0.033879 0.000000
# 6 0.000000 0.000000 0.000000 0.000000 0.000000 0.047736
#
#
# Mechanical properties :
#
#
# Convention : Reuss Voigt Hill
#
# Bulk Modulus (GPa) = 74.61118 76.45069 75.53093
# Shear Modulus (GPa) = 29.20108 31.39167 30.29637
#
# Velocity S-wave (km/s) = 3.74986 3.88797 3.81954
# Velocity P-wave (km/s) = 7.39437 7.54778 7.47147
#
# Compressibility (1/GPa) = 0.01340282
#
# Stress axis : x y z
#
# Youngs Moduli (GPa) = 81.35404 100.65522 69.41928
#
# Poissons Ratio (x) = 0.11504 0.35030
# Poissons Ratio (y) = 0.09298 0.37664
# Poissons Ratio (z) = 0.41052 0.54612
#
# Static dielectric constant tensor:
#      x y z
#    x 3.778360 0.000000 0.000000 
#    y 0.000000 3.643760 0.000000 
#    z 0.000000 0.000000 3.771290 
# 
# 
# High freq. dielectric constant tensor:
#      x y z
#    x 1.810900 0.000000 0.000000 
#    y 0.000000 1.813640 0.000000 
#    z 0.000000 0.000000 1.818570 
# 
# From -- ./inp_files/9196.got.cif
#   From: 2010.03.12/outbox.cif.g09.slc.cpg/sg63_5_cif.got.tgz:9196.got - 2010.04.10 19:34:48.
