data_PCOD8256606
_publ_section_title
;
Structure prediction by ZEFSAII (Michael W. Deem and Ramdas Pophale) SiO2 
 PCOD8256606
Probable space group: C M C M
;
_chemical_formula_sum "Si O2"
_cell_formula_units_Z 96
_cell_length_a 18.592995
_cell_length_b 32.458420
_cell_length_c 9.171964
_cell_angle_alpha 90.000000
_cell_angle_beta 90.000000
_cell_angle_gamma 90.000000
_cell_volume 5535.273310
_symmetry_space_group_name_H-M "C M C M"
_symmetry_group_IT_number 63
_symmetry_cell_setting 'orthorhombic'
loop_
_space_group_symop_operation_xyz
x,y,z
-x,-y,1/2+z
x,-y,-z
-x,y,1/2-z
-x,-y,-z
x,y,1/2-z
-x,y,z
x,-y,1/2+z
1/2+x,1/2+y,z
1/2-x,1/2-y,1/2+z
1/2+x,1/2-y,-z
1/2-x,1/2+y,1/2-z
1/2-x,1/2-y,-z
1/2+x,1/2+y,1/2-z
1/2-x,1/2+y,z
1/2+x,1/2-y,1/2+z
loop_
_atom_site_type_symbol
_atom_site_label
_atom_site_fract_x
_atom_site_fract_y
_atom_site_fract_z
Si Si1 0.579299 0.330867 0.423287
Si Si2 0.580126 0.090467 0.082856
Si Si3 0.787857 0.116539 0.580542
Si Si4 0.719609 0.957510 0.578367
Si Si5 0.083148 0.738526 0.418444
Si Si6 0.143717 0.335902 0.418069
O O1 0.579778 0.329315 0.250000
O O2 0.500000 0.344650 0.479002
O O3 0.638506 0.363227 0.478969
O O4 0.596732 0.284719 0.478568
O O5 0.591884 0.103695 0.250000
O O6 0.500000 0.072544 0.056786
O O7 0.637726 0.055515 0.039374
O O8 0.589507 0.131179 0.987551
O O9 0.792930 0.103530 0.750000
O O10 0.774448 0.076353 0.483484
O O11 0.725507 0.150047 0.557359
O O12 0.731703 0.962424 0.750000
O O13 0.737033 0.000000 0.500000
O O14 0.105056 0.734960 0.250000
O O15 0.134211 0.708426 0.509051
O O16 0.000000 0.726203 0.440301
O O17 0.123599 0.332285 0.250000
#
# Coordination Sequence:
#
# PCOD8256606 Si02
#       6
#    16  16  16  16  16  16
#     4   8  15  30  52  73  91 118 157 195 233 279
#     4   9  18  32  48  66  91 126 165 198 227 264
#     4   9  18  33  51  71  95 121 152 192 235 279
#     4  10  20  34  52  73  96 122 152 187 230 279
#     4   9  17  29  45  65  91 126 166 201 230 266
#     4  10  19  28  41  66  98 129 160 195 234 271
#
# _framework density 17.343316999999999
#
# number of rings (size 3 to 8) (size 9 to 14) (size 15 to 20)
#    0.000    2.833    0.000    2.500    0.000    5.000 
#    0.000    0.833    0.000    2.000    0.000    0.000 
#    0.000    0.000    0.000    0.000    0.000    0.000 
#
# Total GULP energy -595161.959822 kJ/mol
# GULP energy per Si atom -12399.207496 kJ/mol
# Density = 1.730384 g / cm^3
# Si number density = 17.343317 Si / 1000 Ang^3
#
#
#
# Elastic Constant Matrix: (Units=GPa)
#
#
# Indices 1 2 3 4 5 6 
#
# 1 91.1000 71.2159 39.6104 0.0000 0.0000 0.0000
# 2 71.2159 128.3867 56.3191 0.0000 0.0000 0.0000
# 3 39.6104 56.3191 70.2248 0.0000 0.0000 0.0000
# 4 0.0000 0.0000 0.0000 24.1096 0.0000 0.0000
# 5 0.0000 0.0000 0.0000 0.0000 17.0666 0.0000
# 6 0.0000 0.0000 0.0000 0.0000 0.0000 17.2159
#
#
#
# Elastic Compliance Matrix: (Units=1/GPa)
#
#
# Indices 1 2 3 4 5 6 
#
# 1 0.019977 -0.009470 -0.003673 0.000000 0.000000 0.000000
# 2 -0.009470 0.016505 -0.007896 0.000000 0.000000 0.000000
# 3 -0.003673 -0.007896 0.022644 0.000000 0.000000 0.000000
# 4 0.000000 0.000000 0.000000 0.041477 0.000000 0.000000
# 5 0.000000 0.000000 0.000000 0.000000 0.058594 0.000000
# 6 0.000000 0.000000 0.000000 0.000000 0.000000 0.058086
#
#
# Mechanical properties :
#
#
# Convention : Reuss Voigt Hill
#
# Bulk Modulus (GPa) = 58.65491 69.33357 63.99424
# Shear Modulus (GPa) = 18.86479 19.84951 19.35715
#
# Velocity S-wave (km/s) = 3.30165 3.38672 3.34446
# Velocity P-wave (km/s) = 6.95901 7.44023 7.20364
#
# Compressibility (1/GPa) = 0.01704887
#
# Stress axis : x y z
#
# Youngs Moduli (GPa) = 50.05752 60.58624 44.16155
#
# Poissons Ratio (x) = 0.57374 0.16222
# Poissons Ratio (y) = 0.47403 0.34868
# Poissons Ratio (z) = 0.18388 0.47836
#
# Static dielectric constant tensor:
#      x y z
#    x 3.334750 0.000000 0.000000 
#    y 0.000000 3.119340 0.000000 
#    z 0.000000 0.000000 3.104870 
# 
# 
# High freq. dielectric constant tensor:
#      x y z
#    x 1.659880 0.000000 0.000000 
#    y 0.000000 1.659990 0.000000 
#    z 0.000000 0.000000 1.656770 
# 
# From -- ./inp_files/8540.got.cif
#   From: 2010.03.12/outbox.cif.g09.slc.cpg/sg63_5_cif.got.tgz:8540.got - 2010.04.10 19:34:48.
