data_PCOD8256765
_publ_section_title
;
Structure prediction by ZEFSAII (Michael W. Deem and Ramdas Pophale) SiO2 
 PCOD8256765
Probable space group: C M C M
;
_chemical_formula_sum "Si O2"
_cell_formula_units_Z 128
_cell_length_a 17.157059
_cell_length_b 24.897033
_cell_length_c 16.246587
_cell_angle_alpha 90.000000
_cell_angle_beta 90.000000
_cell_angle_gamma 90.000000
_cell_volume 6939.889895
_symmetry_space_group_name_H-M "C M C M"
_symmetry_group_IT_number 63
_symmetry_cell_setting 'orthorhombic'
loop_
_space_group_symop_operation_xyz
x,y,z
-x,-y,1/2+z
x,-y,-z
-x,y,1/2-z
-x,-y,-z
x,y,1/2-z
-x,y,z
x,-y,1/2+z
1/2+x,1/2+y,z
1/2-x,1/2-y,1/2+z
1/2+x,1/2-y,-z
1/2-x,1/2+y,1/2-z
1/2-x,1/2-y,-z
1/2+x,1/2+y,1/2-z
1/2-x,1/2+y,z
1/2+x,1/2-y,1/2+z
loop_
_atom_site_type_symbol
_atom_site_label
_atom_site_fract_x
_atom_site_fract_y
_atom_site_fract_z
Si Si1 0.910052 0.670373 0.546552
Si Si2 0.650621 0.376904 0.654762
Si Si3 0.590519 0.265996 0.658437
Si Si4 0.130073 0.429514 0.342344
Si Si5 0.797731 0.617431 0.436119
Si Si6 0.776606 0.952986 0.438163
Si Si7 0.090897 0.991957 0.847170
Si Si8 0.585892 0.953919 0.842947
O O1 0.875456 0.719905 0.599188
O O2 0.903038 0.615195 0.596810
O O3 0.854115 0.665704 0.466330
O O4 0.000000 0.679686 0.520307
O O5 0.631633 0.380085 0.750000
O O6 0.605280 0.324965 0.619019
O O7 0.742625 0.366285 0.639809
O O8 0.620049 0.433788 0.618269
O O9 0.628809 0.261741 0.750000
O O10 0.500000 0.255083 0.666554
O O11 0.126757 0.406181 0.250000
O O12 0.217833 0.448886 0.361595
O O13 0.077204 0.482079 0.352007
O O14 0.735800 0.601305 0.508405
O O15 0.853071 0.568608 0.408656
O O16 0.752564 0.000000 0.500000
O O17 0.862475 0.962570 0.398972
O O18 0.107738 0.998275 0.750000
O O19 0.000000 0.999004 0.866761
O O20 0.613024 0.939182 0.750000
O O21 0.500000 0.929469 0.860445
#
# Coordination Sequence:
#
# PCOD8256765 Si02
#       8
#    16  16  16  16  16  16  16  16
#     4  10  21  33  49  70  96 127 159 199 244 284
#     4  10  19  33  53  73  94 124 159 197 240 287
#     4   9  18  34  53  72  93 117 152 197 243 286
#     4  10  19  31  48  68  95 130 167 199 231 279
#     4  11  21  33  47  69 102 130 161 191 238 286
#     4  11  19  32  46  70  99 132 156 188 237 283
#     4  10  20  34  52  73  97 127 163 198 235 283
#     4  10  19  30  46  68  95 130 169 202 230 271
#
# _framework density 18.444095999999998
#
# number of rings (size 3 to 8) (size 9 to 14) (size 15 to 20)
#    0.000    1.875    2.500    2.250    0.000    5.500 
#    0.000    1.875    0.000    0.000    0.000    0.000 
#    0.000    0.000    0.000    7.375    0.000    1.500 
#
# Total GULP energy -793147.443680 kJ/mol
# GULP energy per Si atom -12392.928807 kJ/mol
# Density = 1.840212 g / cm^3
# Si number density = 18.444096 Si / 1000 Ang^3
#
#
#
# Elastic Constant Matrix: (Units=GPa)
#
#
# Indices 1 2 3 4 5 6 
#
# 1 91.1082 26.0680 23.6025 0.0000 0.0000 0.0000
# 2 26.0680 60.1827 14.4695 0.0000 0.0000 0.0000
# 3 23.6025 14.4695 33.8099 0.0000 0.0000 0.0000
# 4 0.0000 0.0000 0.0000 20.2259 0.0000 0.0000
# 5 0.0000 0.0000 0.0000 0.0000 31.1079 0.0000
# 6 0.0000 0.0000 0.0000 0.0000 0.0000 21.6599
#
#
#
# Elastic Compliance Matrix: (Units=1/GPa)
#
#
# Indices 1 2 3 4 5 6 
#
# 1 0.014304 -0.004230 -0.008175 0.000000 0.000000 0.000000
# 2 -0.004230 0.019773 -0.005509 0.000000 0.000000 0.000000
# 3 -0.008175 -0.005509 0.037642 0.000000 0.000000 0.000000
# 4 0.000000 0.000000 0.000000 0.049442 0.000000 0.000000
# 5 0.000000 0.000000 0.000000 0.000000 0.032146 0.000000
# 6 0.000000 0.000000 0.000000 0.000000 0.000000 0.046168
#
#
# Mechanical properties :
#
#
# Convention : Reuss Voigt Hill
#
# Bulk Modulus (GPa) = 27.86297 34.82007 31.34152
# Shear Modulus (GPa) = 20.22103 22.66281 21.44192
#
# Velocity S-wave (km/s) = 3.31470 3.50913 3.41330
# Velocity P-wave (km/s) = 5.45794 5.94460 5.70646
#
# Compressibility (1/GPa) = 0.03588993
#
# Stress axis : x y z
#
# Youngs Moduli (GPa) = 69.90951 50.57421 26.56616
#
# Poissons Ratio (x) = 0.21394 0.21719
# Poissons Ratio (y) = 0.29574 0.14635
# Poissons Ratio (z) = 0.57153 0.27861
#
# Static dielectric constant tensor:
#      x y z
#    x 3.362310 0.000000 0.000000 
#    y 0.000000 3.257150 0.000000 
#    z 0.000000 0.000000 3.512420 
# 
# 
# High freq. dielectric constant tensor:
#      x y z
#    x 1.711850 0.000000 0.000000 
#    y 0.000000 1.684380 0.000000 
#    z 0.000000 0.000000 1.709570 
# 
# From -- ./inp_files/46340.got.cif
#   From: 2010.03.12/outbox.cif.g09.slc.cpg/sg63_24_cif.got.tgz:46340.got - 2010.04.10 19:34:48.
