data_PCOD8256351
_publ_section_title
;
Structure prediction by ZEFSAII (Michael W. Deem and Ramdas Pophale) SiO2 
 PCOD8256351
Probable space group: C M C M
;
_chemical_formula_sum "Si O2"
_cell_formula_units_Z 80
_cell_length_a 24.668290
_cell_length_b 20.717958
_cell_length_c 8.700537
_cell_angle_alpha 90.000000
_cell_angle_beta 90.000000
_cell_angle_gamma 90.000000
_cell_volume 4446.640835
_symmetry_space_group_name_H-M "C M C M"
_symmetry_group_IT_number 63
_symmetry_cell_setting 'orthorhombic'
loop_
_space_group_symop_operation_xyz
x,y,z
-x,-y,1/2+z
x,-y,-z
-x,y,1/2-z
-x,-y,-z
x,y,1/2-z
-x,y,z
x,-y,1/2+z
1/2+x,1/2+y,z
1/2-x,1/2-y,1/2+z
1/2+x,1/2-y,-z
1/2-x,1/2+y,1/2-z
1/2-x,1/2-y,-z
1/2+x,1/2+y,1/2-z
1/2-x,1/2+y,z
1/2+x,1/2-y,1/2+z
loop_
_atom_site_type_symbol
_atom_site_label
_atom_site_fract_x
_atom_site_fract_y
_atom_site_fract_z
Si Si1 0.500000 0.613306 0.419517
Si Si2 0.391510 0.245116 0.074147
Si Si3 0.000000 0.266843 0.079186
Si Si4 0.278108 0.811649 0.926436
Si Si5 0.776837 0.933694 0.068493
Si Si6 0.616332 0.617714 0.066394
O O1 0.500000 0.583270 0.250000
O O2 0.500000 0.690238 0.410963
O O3 0.442893 0.593088 0.498650
O O4 0.401148 0.266140 0.250000
O O5 0.342981 0.193817 0.060513
O O6 0.445725 0.210814 0.009537
O O7 0.374111 0.308051 0.978578
O O8 0.000000 0.297197 0.250000
O O9 0.259166 0.816998 0.750000
O O10 0.250000 0.750000 0.000000
O O11 0.261052 0.875588 0.015474
O O12 0.777115 0.936923 0.250000
O O13 0.838202 0.926312 0.008924
O O14 0.752994 0.000000 0.000000
O O15 0.618485 0.612624 0.250000
#
# Coordination Sequence:
#
# PCOD8256351 Si02
#       6
#     8  16   8  16  16  16
#     4   7  14  27  46  72  99 134 175 220 266 311
#     4  10  19  31  51  80 111 142 179 222 271 323
#     4   9  17  29  47  74 109 144 177 218 271 319
#     4  11  22  36  57  84 112 144 183 228 275 327
#     4  12  25  40  56  77 107 145 186 230 281 332
#     4  10  18  32  53  76 105 140 182 226 273 325
#
# _framework density 17.991109000000002
#
# number of rings (size 3 to 8) (size 9 to 14) (size 15 to 20)
#    0.000    1.800    2.000    5.100    0.000    2.400 
#    0.000    2.000    0.000    0.000    0.000    0.700 
#    0.000    0.000    0.000    0.000    0.000    0.000 
#
# Total GULP energy -495861.013436 kJ/mol
# GULP energy per Si atom -12396.525336 kJ/mol
# Density = 1.795016 g / cm^3
# Si number density = 17.991109 Si / 1000 Ang^3
#
#
#
# Elastic Constant Matrix: (Units=GPa)
#
#
# Indices 1 2 3 4 5 6 
#
# 1 101.3776 39.0585 48.2681 0.0000 0.0000 0.0000
# 2 39.0585 89.4700 42.8859 0.0000 0.0000 0.0000
# 3 48.2681 42.8859 138.5187 0.0000 0.0000 0.0000
# 4 0.0000 0.0000 0.0000 25.2417 0.0000 0.0000
# 5 0.0000 0.0000 0.0000 0.0000 31.1546 0.0000
# 6 0.0000 0.0000 0.0000 0.0000 0.0000 14.5855
#
#
#
# Elastic Compliance Matrix: (Units=1/GPa)
#
#
# Indices 1 2 3 4 5 6 
#
# 1 0.013000 -0.004114 -0.003256 0.000000 0.000000 0.000000
# 2 -0.004114 0.014427 -0.003033 0.000000 0.000000 0.000000
# 3 -0.003256 -0.003033 0.009293 0.000000 0.000000 0.000000
# 4 0.000000 0.000000 0.000000 0.039617 0.000000 0.000000
# 5 0.000000 0.000000 0.000000 0.000000 0.032098 0.000000
# 6 0.000000 0.000000 0.000000 0.000000 0.000000 0.068561
#
#
# Mechanical properties :
#
#
# Convention : Reuss Voigt Hill
#
# Bulk Modulus (GPa) = 62.84280 65.53237 64.18759
# Shear Modulus (GPa) = 24.61768 27.47327 26.04548
#
# Velocity S-wave (km/s) = 3.70310 3.91198 3.80897
# Velocity P-wave (km/s) = 7.29998 7.54379 7.42289
#
# Compressibility (1/GPa) = 0.01591272
#
# Stress axis : x y z
#
# Youngs Moduli (GPa) = 76.92603 69.31526 107.60978
#
# Poissons Ratio (x) = 0.28518 0.35038
# Poissons Ratio (y) = 0.31650 0.32637
# Poissons Ratio (z) = 0.25047 0.21023
#
# Static dielectric constant tensor:
#      x y z
#    x 3.728770 0.000000 0.000000 
#    y 0.000000 2.943890 0.000000 
#    z 0.000000 0.000000 3.465110 
# 
# 
# High freq. dielectric constant tensor:
#      x y z
#    x 1.709440 0.000000 0.000000 
#    y 0.000000 1.646300 0.000000 
#    z 0.000000 0.000000 1.708600 
# 
# From -- ./inp_files/10106.got.cif
#   From: 2010.03.12/outbox.cif.g09.slc.cpg/sg63_6_cif.got.tgz:10106.got - 2010.04.10 19:34:48.
