data_PCOD8256993
_publ_section_title
;
Structure prediction by ZEFSAII (Michael W. Deem and Ramdas Pophale) SiO2 
 PCOD8256993
Probable space group: C M C M
;
_chemical_formula_sum "Si O2"
_cell_formula_units_Z 96
_cell_length_a 8.846234
_cell_length_b 23.551731
_cell_length_c 25.964707
_cell_angle_alpha 90.000000
_cell_angle_beta 90.000000
_cell_angle_gamma 90.000000
_cell_volume 5409.594123
_symmetry_space_group_name_H-M "C M C M"
_symmetry_group_IT_number 63
_symmetry_cell_setting 'orthorhombic'
loop_
_space_group_symop_operation_xyz
x,y,z
-x,-y,1/2+z
x,-y,-z
-x,y,1/2-z
-x,-y,-z
x,y,1/2-z
-x,y,z
x,-y,1/2+z
1/2+x,1/2+y,z
1/2-x,1/2-y,1/2+z
1/2+x,1/2-y,-z
1/2-x,1/2+y,1/2-z
1/2-x,1/2-y,-z
1/2+x,1/2+y,1/2-z
1/2-x,1/2+y,z
1/2+x,1/2-y,1/2+z
loop_
_atom_site_type_symbol
_atom_site_label
_atom_site_fract_x
_atom_site_fract_y
_atom_site_fract_z
Si Si1 0.325553 0.723885 0.050595
Si Si2 0.322078 0.104292 0.069451
Si Si3 0.176403 0.583245 0.808003
Si Si4 0.674293 0.578036 0.532689
Si Si5 0.827820 0.336609 0.398241
Si Si6 0.675860 0.507554 0.376663
O O1 0.500000 0.710882 0.038060
O O2 0.246230 0.667073 0.069803
O O3 0.310448 0.768684 0.098013
O O4 0.250000 0.750000 0.000000
O O5 0.500000 0.109197 0.073479
O O6 0.259350 0.068235 0.118073
O O7 0.274085 0.070417 0.018117
O O8 0.230472 0.596092 0.750000
O O9 0.216149 0.639281 0.841834
O O10 0.261665 0.527431 0.828222
O O11 0.000000 0.569555 0.810277
O O12 0.500000 0.578790 0.515928
O O13 0.716360 0.637505 0.559150
O O14 0.710045 0.527308 0.571439
O O15 0.000000 0.354739 0.411801
O O16 0.500000 0.518304 0.367990
#
# Coordination Sequence:
#
# PCOD8256993 Si02
#       6
#    16  16  16  16  16  16
#     4  11  21  33  50  73 105 144 183 219 255 306
#     4  12  23  33  48  71 103 144 181 214 257 311
#     4   9  18  35  59  83 105 130 164 211 266 320
#     4  10  19  31  49  72 102 137 172 214 259 306
#     4   9  18  32  51  76 104 136 174 213 256 308
#     4  10  21  35  51  75 104 134 172 217 263 312
#
# _framework density 17.746247
#
# number of rings (size 3 to 8) (size 9 to 14) (size 15 to 20)
#    0.000    1.833    1.667    3.500    0.000    5.000 
#    0.000    0.000    0.000    1.000    0.000    2.333 
#    0.000    0.000    0.000    0.000    0.000    0.000 
#
# Total GULP energy -595162.030152 kJ/mol
# GULP energy per Si atom -12399.208962 kJ/mol
# Density = 1.770586 g / cm^3
# Si number density = 17.746247 Si / 1000 Ang^3
#
#
#
# Elastic Constant Matrix: (Units=GPa)
#
#
# Indices 1 2 3 4 5 6 
#
# 1 90.5424 32.6937 29.1319 0.0000 0.0000 0.0000
# 2 32.6937 88.7362 34.9669 0.0000 0.0000 0.0000
# 3 29.1319 34.9669 83.3155 0.0000 0.0000 0.0000
# 4 0.0000 0.0000 0.0000 13.8204 0.0000 0.0000
# 5 0.0000 0.0000 0.0000 0.0000 18.9280 0.0000
# 6 0.0000 0.0000 0.0000 0.0000 0.0000 27.7636
#
#
#
# Elastic Compliance Matrix: (Units=1/GPa)
#
#
# Indices 1 2 3 4 5 6 
#
# 1 0.013387 -0.003700 -0.003128 0.000000 0.000000 0.000000
# 2 -0.003700 0.014525 -0.004802 0.000000 0.000000 0.000000
# 3 -0.003128 -0.004802 0.015112 0.000000 0.000000 0.000000
# 4 0.000000 0.000000 0.000000 0.072357 0.000000 0.000000
# 5 0.000000 0.000000 0.000000 0.000000 0.052832 0.000000
# 6 0.000000 0.000000 0.000000 0.000000 0.000000 0.036018
#
#
# Mechanical properties :
#
#
# Convention : Reuss Voigt Hill
#
# Bulk Modulus (GPa) = 50.59859 50.68657 50.64258
# Shear Modulus (GPa) = 21.36035 23.15584 22.25809
#
# Velocity S-wave (km/s) = 3.47314 3.61616 3.54537
# Velocity P-wave (km/s) = 6.68264 6.78670 6.73488
#
# Compressibility (1/GPa) = 0.01976340
#
# Stress axis : x y z
#
# Youngs Moduli (GPa) = 74.69997 68.84769 66.17318
#
# Poissons Ratio (x) = 0.25471 0.20700
# Poissons Ratio (y) = 0.27636 0.31779
# Poissons Ratio (z) = 0.23367 0.33063
#
# Static dielectric constant tensor:
#      x y z
#    x 3.365440 0.000000 0.000000 
#    y 0.000000 3.418730 0.000000 
#    z 0.000000 0.000000 3.183590 
# 
# 
# High freq. dielectric constant tensor:
#      x y z
#    x 1.696730 0.000000 0.000000 
#    y 0.000000 1.689930 0.000000 
#    z 0.000000 0.000000 1.650060 
# 
# From -- ./inp_files/66909.got.cif
#   From: 2010.03.12/outbox.cif.g09.slc.cpg/sg63_34_cif.got.tgz:66909.got - 2010.04.10 19:34:48.
