data_PCOD8256963
_publ_section_title
;
Structure prediction by ZEFSAII (Michael W. Deem and Ramdas Pophale) SiO2 
 PCOD8256963
Probable space group: C M C M
;
_chemical_formula_sum "Si O2"
_cell_formula_units_Z 104
_cell_length_a 22.526328
_cell_length_b 11.920804
_cell_length_c 21.599134
_cell_angle_alpha 90.000000
_cell_angle_beta 90.000000
_cell_angle_gamma 90.000000
_cell_volume 5800.057375
_symmetry_space_group_name_H-M "C M C M"
_symmetry_group_IT_number 63
_symmetry_cell_setting 'orthorhombic'
loop_
_space_group_symop_operation_xyz
x,y,z
-x,-y,1/2+z
x,-y,-z
-x,y,1/2-z
-x,-y,-z
x,y,1/2-z
-x,y,z
x,-y,1/2+z
1/2+x,1/2+y,z
1/2-x,1/2-y,1/2+z
1/2+x,1/2-y,-z
1/2-x,1/2+y,1/2-z
1/2-x,1/2-y,-z
1/2+x,1/2+y,1/2-z
1/2-x,1/2+y,z
1/2+x,1/2-y,1/2+z
loop_
_atom_site_type_symbol
_atom_site_label
_atom_site_fract_x
_atom_site_fract_y
_atom_site_fract_z
Si Si1 0.069030 0.152343 0.945610
Si Si2 0.236698 0.648402 0.600101
Si Si3 0.817396 0.500000 0.000000
Si Si4 0.338949 0.823184 0.905904
Si Si5 0.154427 0.785824 0.820269
Si Si6 0.430817 0.397627 0.916327
Si Si7 0.762809 0.451909 0.817241
O O1 0.104603 0.241137 0.902921
O O2 0.000000 0.181490 0.939668
O O3 0.082637 0.029750 0.918854
O O4 0.089271 0.157907 0.017972
O O5 0.224259 0.584119 0.537180
O O6 0.280252 0.748876 0.581007
O O7 0.175971 0.684104 0.635758
O O8 0.265464 0.555572 0.645168
O O9 0.855670 0.583114 0.042712
O O10 0.322905 0.894794 0.844831
O O11 0.133804 0.750575 0.750000
O O12 0.101386 0.846253 0.856793
O O13 0.211288 0.862564 0.812767
O O14 0.500000 0.375404 0.906930
O O15 0.781367 0.496151 0.750000
#
# Coordination Sequence:
#
# PCOD8256963 Si02
#       7
#    16  16   8  16  16  16  16
#     4   9  18  33  52  72  97 129 164 204 247 293
#     4  10  19  31  48  71  98 130 161 199 245 293
#     4  10  20  30  45  74 101 124 162 206 244 290
#     4  10  19  31  49  71  99 130 161 200 249 295
#     4  10  19  31  49  72  99 130 163 199 243 296
#     4   9  18  32  50  73  99 127 161 201 246 293
#     4   9  19  33  48  70  97 127 164 202 240 287
#
# _framework density 17.930858000000001
#
# number of rings (size 3 to 8) (size 9 to 14) (size 15 to 20)
#    0.000    2.462    0.000    3.692    0.000    4.615 
#    0.000    1.154    0.000    5.077    0.000    0.000 
#    0.000    0.000    0.000    0.000    0.000    0.000 
#
# Total GULP energy -644181.989228 kJ/mol
# GULP energy per Si atom -12388.115177 kJ/mol
# Density = 1.789005 g / cm^3
# Si number density = 17.930858 Si / 1000 Ang^3
#
#
#
# Elastic Constant Matrix: (Units=GPa)
#
#
# Indices 1 2 3 4 5 6 
#
# 1 57.0159 14.8675 24.8822 0.0000 0.0000 0.0000
# 2 14.8675 49.6436 6.6594 0.0000 0.0000 0.0000
# 3 24.8822 6.6594 73.5732 0.0000 0.0000 0.0000
# 4 0.0000 0.0000 0.0000 15.6991 0.0000 0.0000
# 5 0.0000 0.0000 0.0000 0.0000 7.0550 0.0000
# 6 0.0000 0.0000 0.0000 0.0000 0.0000 28.7667
#
#
#
# Elastic Compliance Matrix: (Units=1/GPa)
#
#
# Indices 1 2 3 4 5 6 
#
# 1 0.022048 -0.005672 -0.006943 0.000000 0.000000 0.000000
# 2 -0.005672 0.021850 -0.000060 0.000000 0.000000 0.000000
# 3 -0.006943 -0.000060 0.015945 0.000000 0.000000 0.000000
# 4 0.000000 0.000000 0.000000 0.063698 0.000000 0.000000
# 5 0.000000 0.000000 0.000000 0.000000 0.141743 0.000000
# 6 0.000000 0.000000 0.000000 0.000000 0.000000 0.034762
#
#
# Mechanical properties :
#
#
# Convention : Reuss Voigt Hill
#
# Bulk Modulus (GPa) = 28.98997 30.33900 29.66449
# Shear Modulus (GPa) = 14.84145 19.22574 17.03360
#
# Velocity S-wave (km/s) = 2.88011 3.27802 3.08549
# Velocity P-wave (km/s) = 5.22138 5.59321 5.41049
#
# Compressibility (1/GPa) = 0.03449469
#
# Stress axis : x y z
#
# Youngs Moduli (GPa) = 45.35566 45.76625 62.71381
#
# Poissons Ratio (x) = 0.25957 0.43543
# Poissons Ratio (y) = 0.25724 0.00374
# Poissons Ratio (z) = 0.31491 0.00273
#
# Static dielectric constant tensor:
#      x y z
#    x 2.962030 0.000000 0.000000 
#    y 0.000000 3.467320 0.000000 
#    z 0.000000 0.000000 3.727070 
# 
# 
# High freq. dielectric constant tensor:
#      x y z
#    x 1.656130 0.000000 0.000000 
#    y 0.000000 1.703120 0.000000 
#    z 0.000000 0.000000 1.696780 
# 
# From -- ./inp_files/64658.got.cif
#   From: 2010.03.12/outbox.cif.g09.slc.cpg/sg63_33_cif.got.tgz:64658.got - 2010.04.10 19:34:48.
