data_PCOD8256359
_publ_section_title
;
Structure prediction by ZEFSAII (Michael W. Deem and Ramdas Pophale) SiO2 
 PCOD8256359
Probable space group: C M C M
;
_chemical_formula_sum "Si O2"
_cell_formula_units_Z 88
_cell_length_a 22.421355
_cell_length_b 24.614852
_cell_length_c 8.687826
_cell_angle_alpha 90.000000
_cell_angle_beta 90.000000
_cell_angle_gamma 90.000000
_cell_volume 4794.796704
_symmetry_space_group_name_H-M "C M C M"
_symmetry_group_IT_number 63
_symmetry_cell_setting 'orthorhombic'
loop_
_space_group_symop_operation_xyz
x,y,z
-x,-y,1/2+z
x,-y,-z
-x,y,1/2-z
-x,-y,-z
x,y,1/2-z
-x,y,z
x,-y,1/2+z
1/2+x,1/2+y,z
1/2-x,1/2-y,1/2+z
1/2+x,1/2-y,-z
1/2-x,1/2+y,1/2-z
1/2-x,1/2-y,-z
1/2+x,1/2+y,1/2-z
1/2-x,1/2+y,z
1/2+x,1/2-y,1/2+z
loop_
_atom_site_type_symbol
_atom_site_label
_atom_site_fract_x
_atom_site_fract_y
_atom_site_fract_z
Si Si1 0.565716 0.735850 0.568011
Si Si2 0.000000 0.940551 0.431316
Si Si3 0.347437 0.056984 0.569679
Si Si4 0.570491 0.144013 0.073412
Si Si5 0.116842 0.875536 0.432061
Si Si6 0.779158 0.942390 0.931496
O O1 0.558179 0.733939 0.750000
O O2 0.500000 0.726703 0.495008
O O3 0.590623 0.795244 0.521260
O O4 0.609396 0.687384 0.515963
O O5 0.058611 0.908549 0.486823
O O6 0.000000 0.945320 0.250000
O O7 0.000000 0.000000 0.500000
O O8 0.338155 0.049762 0.750000
O O9 0.397045 0.101949 0.537327
O O10 0.285088 0.075111 0.495212
O O11 0.369591 0.000000 0.500000
O O12 0.588847 0.132821 0.250000
O O13 0.500000 0.137520 0.052417
O O14 0.126858 0.881413 0.250000
O O15 0.174133 0.896576 0.521728
O O16 0.775639 0.947912 0.750000
O O17 0.799996 0.000000 0.000000
#
# Coordination Sequence:
#
# PCOD8256359 Si02
#       6
#    16   8  16  16  16  16
#     4   8  14  29  54  80 107 142 181 218 262 313
#     4  10  20  30  46  72 106 140 177 224 267 310
#     4  11  22  38  59  81 107 139 175 217 266 320
#     4   9  18  34  58  86 113 141 174 214 261 316
#     4  10  18  32  53  78 106 141 183 223 265 314
#     4  11  22  37  55  76 104 140 181 223 271 323
#
# _framework density 18.353228000000001
#
# number of rings (size 3 to 8) (size 9 to 14) (size 15 to 20)
#    0.000    2.182    0.909    6.000    0.000    2.909 
#    0.000    1.818    0.000    1.091    0.000    0.000 
#    0.000    0.000    0.000    0.000    0.000    0.000 
#
# Total GULP energy -545571.712449 kJ/mol
# GULP energy per Si atom -12399.357101 kJ/mol
# Density = 1.831145 g / cm^3
# Si number density = 18.353228 Si / 1000 Ang^3
#
#
#
# Elastic Constant Matrix: (Units=GPa)
#
#
# Indices 1 2 3 4 5 6 
#
# 1 78.5623 71.2059 36.8651 0.0000 0.0000 0.0000
# 2 71.2059 147.9780 47.1280 0.0000 0.0000 0.0000
# 3 36.8651 47.1280 93.2275 0.0000 0.0000 0.0000
# 4 0.0000 0.0000 0.0000 23.4179 0.0000 0.0000
# 5 0.0000 0.0000 0.0000 0.0000 24.2705 0.0000
# 6 0.0000 0.0000 0.0000 0.0000 0.0000 22.2871
#
#
#
# Elastic Compliance Matrix: (Units=1/GPa)
#
#
# Indices 1 2 3 4 5 6 
#
# 1 0.023966 -0.010148 -0.004347 0.000000 0.000000 0.000000
# 2 -0.010148 0.012351 -0.002231 0.000000 0.000000 0.000000
# 3 -0.004347 -0.002231 0.013573 0.000000 0.000000 0.000000
# 4 0.000000 0.000000 0.000000 0.042702 0.000000 0.000000
# 5 0.000000 0.000000 0.000000 0.000000 0.041202 0.000000
# 6 0.000000 0.000000 0.000000 0.000000 0.000000 0.044869
#
#
# Mechanical properties :
#
#
# Convention : Reuss Voigt Hill
#
# Bulk Modulus (GPa) = 60.83147 70.01842 65.42494
# Shear Modulus (GPa) = 22.97831 24.96634 23.97232
#
# Velocity S-wave (km/s) = 3.54221 3.69226 3.61801
# Velocity P-wave (km/s) = 7.06728 7.51068 7.29235
#
# Compressibility (1/GPa) = 0.01643886
#
# Stress axis : x y z
#
# Youngs Moduli (GPa) = 41.72518 80.96239 73.67440
#
# Poissons Ratio (x) = 0.82160 0.32027
# Poissons Ratio (y) = 0.42343 0.16437
# Poissons Ratio (z) = 0.18138 0.18063
#
# Static dielectric constant tensor:
#      x y z
#    x 3.272100 0.000000 0.000000 
#    y 0.000000 3.576820 0.000000 
#    z 0.000000 0.000000 3.163080 
# 
# 
# High freq. dielectric constant tensor:
#      x y z
#    x 1.701360 0.000000 0.000000 
#    y 0.000000 1.720180 0.000000 
#    z 0.000000 0.000000 1.694420 
# 
# From -- ./inp_files/8220.got.cif
#   From: 2010.03.12/outbox.cif.g09.slc.cpg/sg63_5_cif.got.tgz:8220.got - 2010.04.10 19:34:48.
