data_PCOD8256753
_publ_section_title
;
Structure prediction by ZEFSAII (Michael W. Deem and Ramdas Pophale) SiO2 
 PCOD8256753
Probable space group: C M C M
;
_chemical_formula_sum "Si O2"
_cell_formula_units_Z 96
_cell_length_a 8.928786
_cell_length_b 25.231650
_cell_length_c 23.923103
_cell_angle_alpha 90.000000
_cell_angle_beta 90.000000
_cell_angle_gamma 90.000000
_cell_volume 5389.588107
_symmetry_space_group_name_H-M "C M C M"
_symmetry_group_IT_number 63
_symmetry_cell_setting 'orthorhombic'
loop_
_space_group_symop_operation_xyz
x,y,z
-x,-y,1/2+z
x,-y,-z
-x,y,1/2-z
-x,-y,-z
x,y,1/2-z
-x,y,z
x,-y,1/2+z
1/2+x,1/2+y,z
1/2-x,1/2-y,1/2+z
1/2+x,1/2-y,-z
1/2-x,1/2+y,1/2-z
1/2-x,1/2-y,-z
1/2+x,1/2+y,1/2-z
1/2-x,1/2+y,z
1/2+x,1/2-y,1/2+z
loop_
_atom_site_type_symbol
_atom_site_label
_atom_site_fract_x
_atom_site_fract_y
_atom_site_fract_z
Si Si1 0.322201 0.668909 0.061384
Si Si2 0.822320 0.227456 0.250000
Si Si3 0.177844 0.731089 0.868557
Si Si4 0.821676 0.070338 0.132290
Si Si5 0.178090 0.976274 0.442238
Si Si6 0.322210 0.356755 0.438016
Si Si7 0.821380 0.107941 0.250000
O O1 0.500000 0.667095 0.064129
O O2 0.262418 0.722026 0.091090
O O3 0.257668 0.617861 0.093999
O O4 0.267301 0.667154 0.997325
O O5 0.766504 0.257908 0.305370
O O6 0.757817 0.167768 0.250000
O O7 0.000000 0.224002 0.250000
O O8 0.249388 0.676092 0.887889
O O9 0.000000 0.726829 0.871397
O O10 0.766088 0.013920 0.108299
O O11 0.761236 0.077128 0.195384
O O12 0.000000 0.072933 0.131312
O O13 0.000000 0.975091 0.445831
O O14 0.242415 0.000000 0.500000
O O15 0.237668 0.916912 0.432503
O O16 0.500000 0.354151 0.432715
O O17 0.000000 0.109745 0.250000
#
# Coordination Sequence:
#
# PCOD8256753 Si02
#       7
#    16   8  16  16  16  16   8
#     4   9  15  25  44  68  92 116 147 187 228 270
#     4   9  16  28  46  65  87 119 157 192 229 272
#     4  10  19  31  47  68  92 119 155 196 232 269
#     4   9  14  22  39  65  89 111 145 191 234 264
#     4   9  15  25  42  63  89 122 155 183 219 274
#     4  10  19  30  45  69  98 127 152 179 224 284
#     4   9  14  22  39  63  91 113 141 194 243 264
#
# _framework density 17.812121999999999
#
# number of rings (size 3 to 8) (size 9 to 14) (size 15 to 20)
#    0.000    2.667    3.333    0.500    0.000    0.000 
#    0.000    1.250    0.000    2.500    0.000    0.000 
#    0.000    0.000    0.000    0.000    0.000    0.000 
#
# Total GULP energy -595025.457981 kJ/mol
# GULP energy per Si atom -12396.363708 kJ/mol
# Density = 1.777158 g / cm^3
# Si number density = 17.812122 Si / 1000 Ang^3
#
#
#
# Elastic Constant Matrix: (Units=GPa)
#
#
# Indices 1 2 3 4 5 6 
#
# 1 7.8901 15.6806 14.3764 0.0000 0.0000 0.0000
# 2 15.6806 164.2446 94.1725 0.0000 0.0000 0.0000
# 3 14.3764 94.1725 165.7485 0.0000 0.0000 0.0000
# 4 0.0000 0.0000 0.0000 37.7423 0.0000 0.0000
# 5 0.0000 0.0000 0.0000 0.0000 13.7165 0.0000
# 6 0.0000 0.0000 0.0000 0.0000 0.0000 15.1313
#
#
#
# Elastic Compliance Matrix: (Units=1/GPa)
#
#
# Indices 1 2 3 4 5 6 
#
# 1 0.163039 -0.011060 -0.007857 0.000000 0.000000 0.000000
# 2 -0.011060 0.009781 -0.004598 0.000000 0.000000 0.000000
# 3 -0.007857 -0.004598 0.009327 0.000000 0.000000 0.000000
# 4 0.000000 0.000000 0.000000 0.026495 0.000000 0.000000
# 5 0.000000 0.000000 0.000000 0.000000 0.072905 0.000000
# 6 0.000000 0.000000 0.000000 0.000000 0.000000 0.066088
#
#
# Mechanical properties :
#
#
# Convention : Reuss Voigt Hill
#
# Bulk Modulus (GPa) = 7.40104 65.14913 36.27509
# Shear Modulus (GPa) = 11.37127 27.56161 19.46644
#
# Velocity S-wave (km/s) = 2.52940 3.93791 3.30945
# Velocity P-wave (km/s) = 3.56294 7.57174 5.91717
#
# Compressibility (1/GPa) = 0.13511611
#
# Stress axis : x y z
#
# Youngs Moduli (GPa) = 6.13349 102.24354 107.21604
#
# Poissons Ratio (x) = 1.13086 0.84243
# Poissons Ratio (y) = 0.06784 0.49294
# Poissons Ratio (z) = 0.04819 0.47008
#
# Static dielectric constant tensor:
#      x y z
#    x 2.546750 0.000000 0.000000 
#    y 0.000000 3.459890 0.000000 
#    z 0.000000 0.000000 3.551680 
# 
# 
# High freq. dielectric constant tensor:
#      x y z
#    x 1.611200 0.000000 0.000000 
#    y 0.000000 1.694360 0.000000 
#    z 0.000000 0.000000 1.697030 
# 
# From -- ./inp_files/53110.got.cif
#   From: 2010.03.12/outbox.cif.g09.slc.cpg/sg63_27_cif.got.tgz:53110.got - 2010.04.10 19:34:48.
