data_PCOD8256040
_publ_section_title
;
Structure prediction by ZEFSAII (Michael W. Deem and Ramdas Pophale) SiO2 
 PCOD8256040
Probable space group: C M C M
;
_chemical_formula_sum "Si O2"
_cell_formula_units_Z 80
_cell_length_a 9.129093
_cell_length_b 26.933297
_cell_length_c 18.628656
_cell_angle_alpha 90.000000
_cell_angle_beta 90.000000
_cell_angle_gamma 90.000000
_cell_volume 4580.350099
_symmetry_space_group_name_H-M "C M C M"
_symmetry_group_IT_number 63
_symmetry_cell_setting 'orthorhombic'
loop_
_space_group_symop_operation_xyz
x,y,z
-x,-y,1/2+z
x,-y,-z
-x,y,1/2-z
-x,-y,-z
x,y,1/2-z
-x,y,z
x,-y,1/2+z
1/2+x,1/2+y,z
1/2-x,1/2-y,1/2+z
1/2+x,1/2-y,-z
1/2-x,1/2+y,1/2-z
1/2-x,1/2-y,-z
1/2+x,1/2+y,1/2-z
1/2-x,1/2+y,z
1/2+x,1/2-y,1/2+z
loop_
_atom_site_type_symbol
_atom_site_label
_atom_site_fract_x
_atom_site_fract_y
_atom_site_fract_z
Si Si1 0.173245 0.976246 0.394240
Si Si2 0.330318 0.768144 0.395646
Si Si3 0.326741 0.423507 0.536638
Si Si4 0.674850 0.427642 0.250000
Si Si5 0.329545 0.176455 0.750000
Si Si6 0.328880 0.178101 0.459201
O O1 0.229571 0.940775 0.458205
O O2 0.237647 0.956720 0.319187
O O3 0.000000 0.973192 0.394422
O O4 0.218999 0.033422 0.407013
O O5 0.500000 0.752836 0.398857
O O6 0.287819 0.791981 0.319918
O O7 0.292713 0.807226 0.458642
O O8 0.234708 0.718872 0.404857
O O9 0.500000 0.413949 0.537238
O O10 0.245180 0.373893 0.559708
O O11 0.500000 0.426173 0.250000
O O12 0.732373 0.372198 0.250000
O O13 0.500000 0.161648 0.750000
O O14 0.500000 0.173554 0.445211
#
# Coordination Sequence:
#
# PCOD8256040 Si02
#       6
#    16  16  16   8   8  16
#     4   8  16  29  47  70  93 121 158 193 225 275
#     4   9  19  34  50  69  95 126 158 192 233 285
#     4   9  16  30  49  67  92 126 159 190 229 275
#     4  10  18  30  49  72  95 119 152 193 235 276
#     4  10  20  34  51  72  97 123 154 193 239 286
#     4  10  19  31  49  73  97 122 157 198 237 277
#
# _framework density 17.465913
#
# number of rings (size 3 to 8) (size 9 to 14) (size 15 to 20)
#    0.000    2.800    0.000    3.000    0.000    1.600 
#    0.000    4.000    0.000    3.600    0.000    0.000 
#    0.000    0.000    0.000    0.000    0.000    0.000 
#
# Total GULP energy -495982.514025 kJ/mol
# GULP energy per Si atom -12399.562851 kJ/mol
# Density = 1.742616 g / cm^3
# Si number density = 17.465913 Si / 1000 Ang^3
#
#
#
# Elastic Constant Matrix: (Units=GPa)
#
#
# Indices 1 2 3 4 5 6 
#
# 1 51.6478 55.8297 32.0087 0.0000 0.0000 0.0000
# 2 55.8297 151.1706 66.3091 0.0000 0.0000 0.0000
# 3 32.0087 66.3091 124.8602 0.0000 0.0000 0.0000
# 4 0.0000 0.0000 0.0000 21.1078 0.0000 0.0000
# 5 0.0000 0.0000 0.0000 0.0000 16.3409 0.0000
# 6 0.0000 0.0000 0.0000 0.0000 0.0000 32.6352
#
#
#
# Elastic Compliance Matrix: (Units=1/GPa)
#
#
# Indices 1 2 3 4 5 6 
#
# 1 0.032853 -0.011002 -0.002579 0.000000 0.000000 0.000000
# 2 -0.011002 0.012308 -0.003716 0.000000 0.000000 0.000000
# 3 -0.002579 -0.003716 0.010644 0.000000 0.000000 0.000000
# 4 0.000000 0.000000 0.000000 0.047376 0.000000 0.000000
# 5 0.000000 0.000000 0.000000 0.000000 0.061196 0.000000
# 6 0.000000 0.000000 0.000000 0.000000 0.000000 0.030642
#
#
# Mechanical properties :
#
#
# Convention : Reuss Voigt Hill
#
# Bulk Modulus (GPa) = 47.14671 70.66375 58.90523
# Shear Modulus (GPa) = 21.12528 25.58551 23.35539
#
# Velocity S-wave (km/s) = 3.48158 3.83153 3.66074
# Velocity P-wave (km/s) = 6.57374 7.75371 7.18798
#
# Compressibility (1/GPa) = 0.02121039
#
# Stress axis : x y z
#
# Youngs Moduli (GPa) = 30.43865 81.24689 93.95213
#
# Poissons Ratio (x) = 0.89385 0.24234
# Poissons Ratio (y) = 0.33488 0.34914
# Poissons Ratio (z) = 0.07851 0.30192
#
# Static dielectric constant tensor:
#      x y z
#    x 2.995550 0.000000 0.000000 
#    y 0.000000 3.229060 0.000000 
#    z 0.000000 0.000000 3.522430 
# 
# 
# High freq. dielectric constant tensor:
#      x y z
#    x 1.653340 0.000000 0.000000 
#    y 0.000000 1.680960 0.000000 
#    z 0.000000 0.000000 1.668300 
# 
# From -- ./inp_files/40583.got.cif
#   From: 2010.03.12/outbox.cif.g09.slc.cpg/sg63_21_cif.got.tgz:40583.got - 2010.04.10 19:34:48.
