data_PCOD8256745
_publ_section_title
;
Structure prediction by ZEFSAII (Michael W. Deem and Ramdas Pophale) SiO2 
 PCOD8256745
Probable space group: C M C M
;
_chemical_formula_sum "Si O2"
_cell_formula_units_Z 80
_cell_length_a 28.038811
_cell_length_b 18.131292
_cell_length_c 8.872768
_cell_angle_alpha 90.000000
_cell_angle_beta 90.000000
_cell_angle_gamma 90.000000
_cell_volume 4510.736639
_symmetry_space_group_name_H-M "C M C M"
_symmetry_group_IT_number 63
_symmetry_cell_setting 'orthorhombic'
loop_
_space_group_symop_operation_xyz
x,y,z
-x,-y,1/2+z
x,-y,-z
-x,y,1/2-z
-x,-y,-z
x,y,1/2-z
-x,y,z
x,-y,1/2+z
1/2+x,1/2+y,z
1/2-x,1/2-y,1/2+z
1/2+x,1/2-y,-z
1/2-x,1/2+y,1/2-z
1/2-x,1/2-y,-z
1/2+x,1/2+y,1/2-z
1/2-x,1/2+y,z
1/2+x,1/2-y,1/2+z
loop_
_atom_site_type_symbol
_atom_site_label
_atom_site_fract_x
_atom_site_fract_y
_atom_site_fract_z
Si Si1 0.789103 0.577674 0.573795
Si Si2 0.051762 0.225288 0.072624
Si Si3 0.598120 0.573936 0.427601
Si Si4 0.850082 0.714862 0.928163
Si Si5 0.811593 0.857824 0.070988
O O1 0.800916 0.500000 0.500000
O O2 0.786840 0.564666 0.750000
O O3 0.831655 0.633765 0.530063
O O4 0.739479 0.611906 0.516839
O O5 0.048210 0.233717 0.250000
O O6 0.062985 0.140721 0.030051
O O7 0.094887 0.277486 0.014495
O O8 0.000000 0.246782 0.001036
O O9 0.576242 0.500000 0.500000
O O10 0.603914 0.564592 0.250000
O O11 0.649836 0.587952 0.498676
O O12 0.846605 0.731006 0.750000
O O13 0.817173 0.774861 0.010275
O O14 0.816840 0.857630 0.250000
#
# Coordination Sequence:
#
# PCOD8256745 Si02
#       5
#    16  16  16  16  16
#     4  10  21  33  47  70  97 126 157 190 229 274
#     4   8  15  29  49  69  88 116 154 194 236 279
#     4  10  19  30  45  67  97 128 159 193 228 269
#     4   9  18  33  51  71  95 121 154 194 232 273
#     4  10  19  31  48  70  96 127 161 189 223 272
#
# _framework density 17.735461999999998
#
# number of rings (size 3 to 8) (size 9 to 14) (size 15 to 20)
#    0.000    2.600    0.000    3.600    0.000    4.400 
#    0.000    0.000    0.000   15.000    0.000    0.000 
#    0.000    0.000    0.000    0.000    0.000    0.000 
#
# Total GULP energy -495868.603723 kJ/mol
# GULP energy per Si atom -12396.715093 kJ/mol
# Density = 1.769510 g / cm^3
# Si number density = 17.735462 Si / 1000 Ang^3
#
#
#
# Elastic Constant Matrix: (Units=GPa)
#
#
# Indices 1 2 3 4 5 6 
#
# 1 132.7630 68.4627 24.0048 0.0000 0.0000 0.0000
# 2 68.4627 115.5011 27.4952 0.0000 0.0000 0.0000
# 3 24.0048 27.4952 40.7375 0.0000 0.0000 0.0000
# 4 0.0000 0.0000 0.0000 29.7553 0.0000 0.0000
# 5 0.0000 0.0000 0.0000 0.0000 14.5872 0.0000
# 6 0.0000 0.0000 0.0000 0.0000 0.0000 14.7181
#
#
#
# Elastic Compliance Matrix: (Units=1/GPa)
#
#
# Indices 1 2 3 4 5 6 
#
# 1 0.011056 -0.005960 -0.002492 0.000000 0.000000 0.000000
# 2 -0.005960 0.013528 -0.005619 0.000000 0.000000 0.000000
# 3 -0.002492 -0.005619 0.029808 0.000000 0.000000 0.000000
# 4 0.000000 0.000000 0.000000 0.033608 0.000000 0.000000
# 5 0.000000 0.000000 0.000000 0.000000 0.068553 0.000000
# 6 0.000000 0.000000 0.000000 0.000000 0.000000 0.067944
#
#
# Mechanical properties :
#
#
# Convention : Reuss Voigt Hill
#
# Bulk Modulus (GPa) = 38.09431 58.76965 48.43198
# Shear Modulus (GPa) = 19.12851 23.08138 21.10494
#
# Velocity S-wave (km/s) = 3.28768 3.61144 3.45336
# Velocity P-wave (km/s) = 5.99480 7.11328 6.57786
#
# Compressibility (1/GPa) = 0.02625064
#
# Stress axis : x y z
#
# Youngs Moduli (GPa) = 90.44491 73.91841 33.54782
#
# Poissons Ratio (x) = 0.44058 0.08361
# Poissons Ratio (y) = 0.53909 0.18849
# Poissons Ratio (z) = 0.22541 0.41532
#
# Static dielectric constant tensor:
#      x y z
#    x 4.504010 0.000000 0.000000 
#    y 0.000000 3.246310 0.000000 
#    z 0.000000 0.000000 3.126110 
# 
# 
# High freq. dielectric constant tensor:
#      x y z
#    x 1.684180 0.000000 0.000000 
#    y 0.000000 1.674310 0.000000 
#    z 0.000000 0.000000 1.670020 
# 
# From -- ./inp_files/11991.got.cif
#   From: 2010.03.12/outbox.cif.g09.slc.cpg/sg63_6_cif.got.tgz:11991.got - 2010.04.10 19:34:48.
