data_PCOD8256426
_publ_section_title
;
Structure prediction by ZEFSAII (Michael W. Deem and Ramdas Pophale) SiO2 
 PCOD8256426
Probable space group: C M C M
;
_chemical_formula_sum "Si O2"
_cell_formula_units_Z 80
_cell_length_a 10.899036
_cell_length_b 18.752689
_cell_length_c 19.541203
_cell_angle_alpha 90.000000
_cell_angle_beta 90.000000
_cell_angle_gamma 90.000000
_cell_volume 3993.952860
_symmetry_space_group_name_H-M "C M C M"
_symmetry_group_IT_number 63
_symmetry_cell_setting 'orthorhombic'
loop_
_space_group_symop_operation_xyz
x,y,z
-x,-y,1/2+z
x,-y,-z
-x,y,1/2-z
-x,-y,-z
x,y,1/2-z
-x,y,z
x,-y,1/2+z
1/2+x,1/2+y,z
1/2-x,1/2-y,1/2+z
1/2+x,1/2-y,-z
1/2-x,1/2+y,1/2-z
1/2-x,1/2-y,-z
1/2+x,1/2+y,1/2-z
1/2-x,1/2+y,z
1/2+x,1/2-y,1/2+z
loop_
_atom_site_type_symbol
_atom_site_label
_atom_site_fract_x
_atom_site_fract_y
_atom_site_fract_z
Si Si1 0.736829 0.976400 0.675557
Si Si2 0.000000 0.917490 0.468423
Si Si3 0.144033 0.635134 0.828302
Si Si4 0.362479 0.063400 0.457523
Si Si5 0.500000 0.529267 0.823531
Si Si6 0.757486 0.825515 0.036024
O O1 0.692524 0.948694 0.750000
O O2 0.675540 0.052580 0.659771
O O3 0.883055 0.978491 0.673067
O O4 0.698815 0.922191 0.616239
O O5 0.120788 0.870731 0.486766
O O6 0.000000 0.916759 0.386134
O O7 0.000000 0.000000 0.500000
O O8 0.178231 0.657230 0.750000
O O9 0.229316 0.679446 0.882143
O O10 0.000000 0.648490 0.841860
O O11 0.500000 0.039813 0.442694
O O12 0.357732 0.133972 0.502740
O O13 0.294708 0.000000 0.500000
O O14 0.500000 0.571212 0.750000
O O15 0.750000 0.750000 0.000000
#
# Coordination Sequence:
#
# PCOD8256426 Si02
#       6
#    16   8  16  16   8  16
#     4  10  19  33  57  92 121 155 205 259 310 372
#     4  12  24  42  66  92 129 173 218 262 316 383
#     4  10  20  37  63  90 121 160 208 260 318 389
#     4  11  21  37  61  87 119 157 199 254 313 373
#     4  10  18  32  58  88 122 155 204 264 308 355
#     4  12  26  40  62  94 131 165 212 263 322 383
#
# _framework density 20.030283000000001
#
# number of rings (size 3 to 8) (size 9 to 14) (size 15 to 20)
#    0.000    1.200    4.000    3.000    2.800    1.200 
#    0.000    1.000    0.000    1.200    0.000    0.000 
#    0.000    0.000    0.000    0.000    0.000    0.000 
#
# Total GULP energy -495548.924387 kJ/mol
# GULP energy per Si atom -12388.723110 kJ/mol
# Density = 1.998469 g / cm^3
# Si number density = 20.030283 Si / 1000 Ang^3
#
#
#
# Elastic Constant Matrix: (Units=GPa)
#
#
# Indices 1 2 3 4 5 6 
#
# 1 91.7176 27.9429 40.0170 0.0000 0.0000 0.0000
# 2 27.9429 90.0265 50.0960 0.0000 0.0000 0.0000
# 3 40.0170 50.0960 162.6094 0.0000 0.0000 0.0000
# 4 0.0000 0.0000 0.0000 26.7850 0.0000 0.0000
# 5 0.0000 0.0000 0.0000 0.0000 33.3773 0.0000
# 6 0.0000 0.0000 0.0000 0.0000 0.0000 18.7193
#
#
#
# Elastic Compliance Matrix: (Units=1/GPa)
#
#
# Indices 1 2 3 4 5 6 
#
# 1 0.012722 -0.002663 -0.002310 0.000000 0.000000 0.000000
# 2 -0.002663 0.013964 -0.003646 0.000000 0.000000 0.000000
# 3 -0.002310 -0.003646 0.007842 0.000000 0.000000 0.000000
# 4 0.000000 0.000000 0.000000 0.037334 0.000000 0.000000
# 5 0.000000 0.000000 0.000000 0.000000 0.029960 0.000000
# 6 0.000000 0.000000 0.000000 0.000000 0.000000 0.053421
#
#
# Mechanical properties :
#
#
# Convention : Reuss Voigt Hill
#
# Bulk Modulus (GPa) = 57.84517 64.49616 61.17067
# Shear Modulus (GPa) = 28.05112 30.86283 29.45697
#
# Velocity S-wave (km/s) = 3.74630 3.92957 3.83903
# Velocity P-wave (km/s) = 6.90323 7.27035 7.08916
#
# Compressibility (1/GPa) = 0.01728753
#
# Stress axis : x y z
#
# Youngs Moduli (GPa) = 78.60107 71.61507 127.52392
#
# Poissons Ratio (x) = 0.19073 0.29464
# Poissons Ratio (y) = 0.20933 0.46501
# Poissons Ratio (z) = 0.18160 0.26114
#
# Static dielectric constant tensor:
#      x y z
#    x 3.817200 0.000000 0.000000 
#    y 0.000000 3.670370 0.000000 
#    z 0.000000 0.000000 3.651530 
# 
# 
# High freq. dielectric constant tensor:
#      x y z
#    x 1.796270 0.000000 0.000000 
#    y 0.000000 1.711180 0.000000 
#    z 0.000000 0.000000 1.809070 
# 
# From -- ./inp_files/52478.got.cif
#   From: 2010.03.12/outbox.cif.g09.slc.cpg/sg63_27_cif.got.tgz:52478.got - 2010.04.10 19:34:48.
