data_PCOD8256673
_publ_section_title
;
Structure prediction by ZEFSAII (Michael W. Deem and Ramdas Pophale) SiO2 
 PCOD8256673
Probable space group: C M C M
;
_chemical_formula_sum "Si O2"
_cell_formula_units_Z 96
_cell_length_a 8.986960
_cell_length_b 27.717078
_cell_length_c 23.361780
_cell_angle_alpha 90.000000
_cell_angle_beta 90.000000
_cell_angle_gamma 90.000000
_cell_volume 5819.238842
_symmetry_space_group_name_H-M "C M C M"
_symmetry_group_IT_number 63
_symmetry_cell_setting 'orthorhombic'
loop_
_space_group_symop_operation_xyz
x,y,z
-x,-y,1/2+z
x,-y,-z
-x,y,1/2-z
-x,-y,-z
x,y,1/2-z
-x,y,z
x,-y,1/2+z
1/2+x,1/2+y,z
1/2-x,1/2-y,1/2+z
1/2+x,1/2-y,-z
1/2-x,1/2+y,1/2-z
1/2-x,1/2-y,-z
1/2+x,1/2+y,1/2-z
1/2-x,1/2+y,z
1/2+x,1/2-y,1/2+z
loop_
_atom_site_type_symbol
_atom_site_label
_atom_site_fract_x
_atom_site_fract_y
_atom_site_fract_z
Si Si1 0.673340 0.270862 0.913050
Si Si2 0.674136 0.822808 0.815773
Si Si3 0.673674 0.178947 0.983498
Si Si4 0.324676 0.928528 0.476864
Si Si5 0.173334 0.922375 0.683962
Si Si6 0.323653 0.019245 0.090101
O O1 0.500000 0.280483 0.904311
O O2 0.757458 0.279750 0.853445
O O3 0.705936 0.215819 0.931791
O O4 0.732925 0.307332 0.960877
O O5 0.710993 0.810862 0.750000
O O6 0.500000 0.826659 0.827184
O O7 0.746449 0.873154 0.834862
O O8 0.500000 0.179558 0.000564
O O9 0.726951 0.125965 0.963207
O O10 0.500000 0.932843 0.478197
O O11 0.269434 0.944802 0.539617
O O12 0.269870 0.965168 0.427345
O O13 0.205771 0.934121 0.750000
O O14 0.239353 0.966631 0.647981
O O15 0.000000 0.916188 0.671536
O O16 0.500000 0.022095 0.100612
#
# Coordination Sequence:
#
# PCOD8256673 Si02
#       6
#    16  16  16  16  16  16
#     4  10  19  29  45  70  96 122 152 188 230 271
#     4  10  20  33  49  67  88 118 154 189 228 275
#     4   9  17  30  47  67  95 128 156 183 221 272
#     4   8  15  28  46  68  92 119 151 186 221 259
#     4  10  20  32  46  67  95 121 146 182 227 272
#     4   9  16  28  48  70  91 118 152 186 221 263
#
# _framework density 16.497002999999999
#
# number of rings (size 3 to 8) (size 9 to 14) (size 15 to 20)
#    0.000    2.667    0.000    3.500    0.000    4.000 
#    0.000    2.500    0.000    1.000    0.000    7.000 
#    0.000    0.000    0.000    0.000    0.000    0.000 
#
# Total GULP energy -595153.411065 kJ/mol
# GULP energy per Si atom -12399.029397 kJ/mol
# Density = 1.645945 g / cm^3
# Si number density = 16.497003 Si / 1000 Ang^3
#
#
#
# Elastic Constant Matrix: (Units=GPa)
#
#
# Indices 1 2 3 4 5 6 
#
# 1 68.9530 43.3154 47.0773 0.0000 0.0000 0.0000
# 2 43.3154 133.6709 63.5831 0.0000 0.0000 0.0000
# 3 47.0773 63.5831 95.0786 0.0000 0.0000 0.0000
# 4 0.0000 0.0000 0.0000 27.2679 0.0000 0.0000
# 5 0.0000 0.0000 0.0000 0.0000 29.6196 0.0000
# 6 0.0000 0.0000 0.0000 0.0000 0.0000 22.1075
#
#
#
# Elastic Compliance Matrix: (Units=1/GPa)
#
#
# Indices 1 2 3 4 5 6 
#
# 1 0.022672 -0.002943 -0.009258 0.000000 0.000000 0.000000
# 2 -0.002943 0.011353 -0.006135 0.000000 0.000000 0.000000
# 3 -0.009258 -0.006135 0.019204 0.000000 0.000000 0.000000
# 4 0.000000 0.000000 0.000000 0.036673 0.000000 0.000000
# 5 0.000000 0.000000 0.000000 0.000000 0.033761 0.000000
# 6 0.000000 0.000000 0.000000 0.000000 0.000000 0.045233
#
#
# Mechanical properties :
#
#
# Convention : Reuss Voigt Hill
#
# Bulk Modulus (GPa) = 60.39492 67.29492 63.84492
# Shear Modulus (GPa) = 23.68679 25.38078 24.53379
#
# Velocity S-wave (km/s) = 3.79334 3.92664 3.86056
# Velocity P-wave (km/s) = 7.47496 7.83829 7.65878
#
# Compressibility (1/GPa) = 0.01655769
#
# Stress axis : x y z
#
# Youngs Moduli (GPa) = 44.10702 88.08260 52.07221
#
# Poissons Ratio (x) = 0.25925 0.48207
# Poissons Ratio (y) = 0.12982 0.31946
# Poissons Ratio (z) = 0.40833 0.54038
#
# Static dielectric constant tensor:
#      x y z
#    x 3.008700 0.000000 0.000000 
#    y 0.000000 3.299650 0.000000 
#    z 0.000000 0.000000 3.036920 
# 
# 
# High freq. dielectric constant tensor:
#      x y z
#    x 1.628930 0.000000 0.000000 
#    y 0.000000 1.628670 0.000000 
#    z 0.000000 0.000000 1.623400 
# 
# From -- ./inp_files/60237.got.cif
#   From: 2010.03.12/outbox.cif.g09.slc.cpg/sg63_31_cif.got.tgz:60237.got - 2010.04.10 19:34:48.
