data_PCOD8256711
_publ_section_title
;
Structure prediction by ZEFSAII (Michael W. Deem and Ramdas Pophale) SiO2 
 PCOD8256711
Probable space group: C M C M
;
_chemical_formula_sum "Si O2"
_cell_formula_units_Z 128
_cell_length_a 12.641877
_cell_length_b 26.945543
_cell_length_c 24.313372
_cell_angle_alpha 90.000000
_cell_angle_beta 90.000000
_cell_angle_gamma 90.000000
_cell_volume 8282.161507
_symmetry_space_group_name_H-M "C M C M"
_symmetry_group_IT_number 63
_symmetry_cell_setting 'orthorhombic'
loop_
_space_group_symop_operation_xyz
x,y,z
-x,-y,1/2+z
x,-y,-z
-x,y,1/2-z
-x,-y,-z
x,y,1/2-z
-x,y,z
x,-y,1/2+z
1/2+x,1/2+y,z
1/2-x,1/2-y,1/2+z
1/2+x,1/2-y,-z
1/2-x,1/2+y,1/2-z
1/2-x,1/2-y,-z
1/2+x,1/2+y,1/2-z
1/2-x,1/2+y,z
1/2+x,1/2-y,1/2+z
loop_
_atom_site_type_symbol
_atom_site_label
_atom_site_fract_x
_atom_site_fract_y
_atom_site_fract_z
Si Si1 0.264122 0.708559 0.578278
Si Si2 0.619121 0.404814 0.559567
Si Si3 0.378998 0.294812 0.535882
Si Si4 0.122796 0.820334 0.187577
Si Si5 0.622185 0.499387 0.120104
Si Si6 0.756981 0.547456 0.971759
Si Si7 0.230539 0.078671 0.688339
Si Si8 0.877979 0.383246 0.100143
O O1 0.347485 0.699659 0.528679
O O2 0.200596 0.759176 0.568288
O O3 0.319116 0.710385 0.638789
O O4 0.179701 0.664896 0.577206
O O5 0.500000 0.417655 0.539064
O O6 0.628083 0.346161 0.570706
O O7 0.642937 0.441037 0.612225
O O8 0.705627 0.414181 0.513421
O O9 0.500000 0.275161 0.537256
O O10 0.161596 0.805158 0.250000
O O11 0.140389 0.879401 0.179443
O O12 0.000000 0.808719 0.181673
O O13 0.500000 0.488514 0.131134
O O14 0.659623 0.469979 0.066185
O O15 0.689075 0.475553 0.169779
O O16 0.855539 0.572498 0.942050
O O17 0.809468 0.500000 0.000000
O O18 0.266655 0.072127 0.750000
O O19 0.335401 0.098178 0.658512
O O20 0.000000 0.371025 0.105218
#
# Coordination Sequence:
#
# PCOD8256711 Si02
#       8
#    16  16  16  16  16  16  16  16
#     4  10  19  31  46  68  94 123 155 195 237 278
#     4   9  16  27  43  65  91 120 148 176 216 269
#     4  10  19  30  47  68  94 126 157 190 230 280
#     4   9  17  30  49  71  94 118 148 188 233 281
#     4   9  16  25  42  66  91 116 141 175 217 267
#     4   9  16  27  41  61  88 116 147 177 212 261
#     4   9  18  30  44  66  91 117 148 185 229 272
#     4  10  19  30  43  61  87 119 154 191 228 269
#
# _framework density 15.454903
#
# number of rings (size 3 to 8) (size 9 to 14) (size 15 to 20)
#    0.000    2.625    1.250    1.500    0.000    2.750 
#    0.000    0.000    0.000    1.875    0.000    1.750 
#    0.000    0.000    0.000    0.000    0.000    0.000 
#
# Total GULP energy -792976.119795 kJ/mol
# GULP energy per Si atom -12390.251872 kJ/mol
# Density = 1.541973 g / cm^3
# Si number density = 15.454903 Si / 1000 Ang^3
#
#
#
# Elastic Constant Matrix: (Units=GPa)
#
#
# Indices 1 2 3 4 5 6 
#
# 1 76.7813 31.3365 35.1598 0.0000 0.0000 0.0000
# 2 31.3365 78.0718 41.8813 0.0000 0.0000 0.0000
# 3 35.1598 41.8813 95.3482 0.0000 0.0000 0.0000
# 4 0.0000 0.0000 0.0000 18.9966 0.0000 0.0000
# 5 0.0000 0.0000 0.0000 0.0000 11.5810 0.0000
# 6 0.0000 0.0000 0.0000 0.0000 0.0000 10.0073
#
#
#
# Elastic Compliance Matrix: (Units=1/GPa)
#
#
# Indices 1 2 3 4 5 6 
#
# 1 0.016783 -0.004470 -0.004226 0.000000 0.000000 0.000000
# 2 -0.004470 0.017948 -0.006235 0.000000 0.000000 0.000000
# 3 -0.004226 -0.006235 0.014785 0.000000 0.000000 0.000000
# 4 0.000000 0.000000 0.000000 0.052641 0.000000 0.000000
# 5 0.000000 0.000000 0.000000 0.000000 0.086348 0.000000
# 6 0.000000 0.000000 0.000000 0.000000 0.000000 0.099927
#
#
# Mechanical properties :
#
#
# Convention : Reuss Voigt Hill
#
# Bulk Modulus (GPa) = 50.87820 51.88405 51.38113
# Shear Modulus (GPa) = 15.39200 17.57189 16.48195
#
# Velocity S-wave (km/s) = 3.15926 3.37557 3.26920
# Velocity P-wave (km/s) = 6.80439 6.98833 6.89698
#
# Compressibility (1/GPa) = 0.01965478
#
# Stress axis : x y z
#
# Youngs Moduli (GPa) = 59.58352 55.71770 67.63678
#
# Poissons Ratio (x) = 0.24904 0.28580
# Poissons Ratio (y) = 0.26632 0.42173
# Poissons Ratio (z) = 0.25177 0.34741
#
# Static dielectric constant tensor:
#      x y z
#    x 2.793370 0.000000 0.000000 
#    y 0.000000 3.083810 0.000000 
#    z 0.000000 0.000000 3.044920 
# 
# 
# High freq. dielectric constant tensor:
#      x y z
#    x 1.583040 0.000000 0.000000 
#    y 0.000000 1.586790 0.000000 
#    z 0.000000 0.000000 1.577940 
# 
# From -- ./inp_files/62194.got.cif
#   From: 2010.03.12/outbox.cif.g09.slc.cpg/sg63_32_cif.got.tgz:62194.got - 2010.04.10 19:34:48.
