data_PCOD8256501
_publ_section_title
;
Structure prediction by ZEFSAII (Michael W. Deem and Ramdas Pophale) SiO2 
 PCOD8256501
Probable space group: C M C M
;
_chemical_formula_sum "Si O2"
_cell_formula_units_Z 96
_cell_length_a 17.799434
_cell_length_b 17.237634
_cell_length_c 18.122881
_cell_angle_alpha 90.000000
_cell_angle_beta 90.000000
_cell_angle_gamma 90.000000
_cell_volume 5560.464681
_symmetry_space_group_name_H-M "C M C M"
_symmetry_group_IT_number 63
_symmetry_cell_setting 'orthorhombic'
loop_
_space_group_symop_operation_xyz
x,y,z
-x,-y,1/2+z
x,-y,-z
-x,y,1/2-z
-x,-y,-z
x,y,1/2-z
-x,y,z
x,-y,1/2+z
1/2+x,1/2+y,z
1/2-x,1/2-y,1/2+z
1/2+x,1/2-y,-z
1/2-x,1/2+y,1/2-z
1/2-x,1/2-y,-z
1/2+x,1/2+y,1/2-z
1/2-x,1/2+y,z
1/2+x,1/2-y,1/2+z
loop_
_atom_site_type_symbol
_atom_site_label
_atom_site_fract_x
_atom_site_fract_y
_atom_site_fract_z
Si Si1 0.805779 0.055361 0.335218
Si Si2 0.806514 0.825424 0.433874
Si Si3 0.308038 0.962839 0.425632
Si Si4 0.914198 0.082843 0.664178
Si Si5 0.088353 0.644260 0.665101
Si Si6 0.175470 0.781381 0.596159
O O1 0.784695 0.050483 0.250000
O O2 0.829633 0.141651 0.355689
O O3 0.732192 0.030386 0.379711
O O4 0.875626 0.999234 0.354031
O O5 0.751840 0.897682 0.448998
O O6 0.873623 0.847585 0.379066
O O7 0.842829 0.798320 0.510672
O O8 0.758474 0.756305 0.396669
O O9 0.374644 0.928192 0.376684
O O10 0.342267 0.000000 0.500000
O O11 0.907888 0.103300 0.750000
O O12 0.000000 0.077264 0.637856
O O13 0.115436 0.643959 0.750000
O O14 0.112120 0.724473 0.627311
O O15 0.000000 0.634725 0.658782
#
# Coordination Sequence:
#
# PCOD8256501 Si02
#       6
#    16  16  16  16  16  16
#     4  10  19  31  53  80 102 131 171 216 258 298
#     4   9  19  33  53  76 105 134 172 212 256 304
#     4  10  18  34  57  76 101 130 172 216 256 297
#     4   9  19  34  51  74 106 142 176 210 253 307
#     4  10  22  37  52  74 106 140 169 201 251 313
#     4  10  19  33  53  78 103 133 168 216 257 302
#
# _framework density 17.264745000000001
#
# number of rings (size 3 to 8) (size 9 to 14) (size 15 to 20)
#    0.000    2.333    1.667    1.000    0.000    6.333 
#    0.000    2.500    0.000    0.000    0.000    2.333 
#    0.000    0.000    0.000    0.000    0.000    0.000 
#
# Total GULP energy -595323.014441 kJ/mol
# GULP energy per Si atom -12402.562801 kJ/mol
# Density = 1.722545 g / cm^3
# Si number density = 17.264745 Si / 1000 Ang^3
#
#
#
# Elastic Constant Matrix: (Units=GPa)
#
#
# Indices 1 2 3 4 5 6 
#
# 1 80.9701 37.9177 53.0222 0.0000 0.0000 0.0000
# 2 37.9177 76.3314 40.3973 0.0000 0.0000 0.0000
# 3 53.0222 40.3973 101.9096 0.0000 0.0000 0.0000
# 4 0.0000 0.0000 0.0000 36.5966 0.0000 0.0000
# 5 0.0000 0.0000 0.0000 0.0000 25.6443 0.0000
# 6 0.0000 0.0000 0.0000 0.0000 0.0000 16.4502
#
#
#
# Elastic Compliance Matrix: (Units=1/GPa)
#
#
# Indices 1 2 3 4 5 6 
#
# 1 0.020556 -0.005759 -0.008412 0.000000 0.000000 0.000000
# 2 -0.005759 0.018192 -0.004215 0.000000 0.000000 0.000000
# 3 -0.008412 -0.004215 0.015860 0.000000 0.000000 0.000000
# 4 0.000000 0.000000 0.000000 0.027325 0.000000 0.000000
# 5 0.000000 0.000000 0.000000 0.000000 0.038995 0.000000
# 6 0.000000 0.000000 0.000000 0.000000 0.000000 0.060790
#
#
# Mechanical properties :
#
#
# Convention : Reuss Voigt Hill
#
# Bulk Modulus (GPa) = 56.06686 57.98724 57.02705
# Shear Modulus (GPa) = 22.27815 24.26316 23.27066
#
# Velocity S-wave (km/s) = 3.59609 3.75288 3.67532
# Velocity P-wave (km/s) = 7.05604 7.24146 7.14935
#
# Compressibility (1/GPa) = 0.01783585
#
# Stress axis : x y z
#
# Youngs Moduli (GPa) = 48.64852 54.96790 63.05135
#
# Poissons Ratio (x) = 0.31657 0.53038
# Poissons Ratio (y) = 0.28017 0.26577
# Poissons Ratio (z) = 0.40922 0.23170
#
# Static dielectric constant tensor:
#      x y z
#    x 3.053340 0.000000 0.000000 
#    y 0.000000 3.276730 0.000000 
#    z 0.000000 0.000000 3.325730 
# 
# 
# High freq. dielectric constant tensor:
#      x y z
#    x 1.647460 0.000000 0.000000 
#    y 0.000000 1.668630 0.000000 
#    z 0.000000 0.000000 1.679340 
# 
# From -- ./inp_files/45740.got.cif
#   From: 2010.03.12/outbox.cif.g09.slc.cpg/sg63_23_cif.got.tgz:45740.got - 2010.04.10 19:34:48.
