data_PCOD8256528
_publ_section_title
;
Structure prediction by ZEFSAII (Michael W. Deem and Ramdas Pophale) SiO2 
 PCOD8256528
Probable space group: C M C M
;
_chemical_formula_sum "Si O2"
_cell_formula_units_Z 112
_cell_length_a 15.839703
_cell_length_b 22.826569
_cell_length_c 14.785453
_cell_angle_alpha 90.000000
_cell_angle_beta 90.000000
_cell_angle_gamma 90.000000
_cell_volume 5345.918186
_symmetry_space_group_name_H-M "C M C M"
_symmetry_group_IT_number 63
_symmetry_cell_setting 'orthorhombic'
loop_
_space_group_symop_operation_xyz
x,y,z
-x,-y,1/2+z
x,-y,-z
-x,y,1/2-z
-x,-y,-z
x,y,1/2-z
-x,y,z
x,-y,1/2+z
1/2+x,1/2+y,z
1/2-x,1/2-y,1/2+z
1/2+x,1/2-y,-z
1/2-x,1/2+y,1/2-z
1/2-x,1/2-y,-z
1/2+x,1/2+y,1/2-z
1/2-x,1/2+y,z
1/2+x,1/2-y,1/2+z
loop_
_atom_site_type_symbol
_atom_site_label
_atom_site_fract_x
_atom_site_fract_y
_atom_site_fract_z
Si Si1 0.756477 0.135078 0.851240
Si Si2 0.827861 0.934019 0.981249
Si Si3 0.404990 0.655740 0.352152
Si Si4 0.409661 0.162344 0.147443
Si Si5 0.407954 0.075117 0.644332
Si Si6 0.248380 0.264124 0.897595
Si Si7 0.171469 0.455795 0.853845
O O1 0.774363 0.109320 0.750000
O O2 0.657256 0.127385 0.877408
O O3 0.773176 0.204409 0.845127
O O4 0.813146 0.100066 0.923650
O O5 0.895638 0.897073 0.923860
O O6 0.745390 0.936026 0.919841
O O7 0.861532 0.000000 0.000000
O O8 0.393740 0.631393 0.250000
O O9 0.500000 0.681552 0.364632
O O10 0.335852 0.706942 0.365485
O O11 0.411978 0.183468 0.250000
O O12 0.500000 0.179874 0.101764
O O13 0.328277 0.191062 0.104876
O O14 0.401800 0.092300 0.140902
O O15 0.421429 0.066612 0.750000
O O16 0.500000 0.087654 0.599418
O O17 0.366257 0.015760 0.606315
O O18 0.250000 0.250000 0.000000
O O19 0.204609 0.462250 0.750000
#
# Coordination Sequence:
#
# PCOD8256528 Si02
#       7
#    16  16  16  16  16  16  16
#     4  11  23  39  60  91 129 174 217 259 321 389
#     4  12  23  40  67  95 128 168 220 271 336 388
#     4  11  25  46  73 101 130 172 226 281 333 388
#     4  10  20  35  61  95 127 164 209 258 315 383
#     4   9  18  33  55  87 128 170 212 260 314 379
#     4  12  23  42  67  93 132 174 216 270 323 384
#     4  10  18  34  61  91 126 167 210 260 319 388
#
# _framework density 20.950565000000001
#
# number of rings (size 3 to 8) (size 9 to 14) (size 15 to 20)
#    0.000    1.286    4.286    2.143    0.000    3.714 
#    0.000    5.000    0.000    0.429    0.000    0.000 
#    0.000    0.000    0.000    0.000    0.000    0.000 
#
# Total GULP energy -693990.514502 kJ/mol
# GULP energy per Si atom -12392.687759 kJ/mol
# Density = 2.090288 g / cm^3
# Si number density = 20.950565 Si / 1000 Ang^3
#
#
#
# Elastic Constant Matrix: (Units=GPa)
#
#
# Indices 1 2 3 4 5 6 
#
# 1 98.9776 22.1888 29.8344 0.0000 0.0000 0.0000
# 2 22.1888 108.2284 24.7817 0.0000 0.0000 0.0000
# 3 29.8344 24.7817 105.0772 0.0000 0.0000 0.0000
# 4 0.0000 0.0000 0.0000 26.5024 0.0000 0.0000
# 5 0.0000 0.0000 0.0000 0.0000 -8.4071 0.0000
# 6 0.0000 0.0000 0.0000 0.0000 0.0000 10.2037
#
#
#
# Elastic Compliance Matrix: (Units=1/GPa)
#
#
# Indices 1 2 3 4 5 6 
#
# 1 0.011330 -0.001677 -0.002821 0.000000 0.000000 0.000000
# 2 -0.001677 0.010015 -0.001886 0.000000 0.000000 0.000000
# 3 -0.002821 -0.001886 0.010763 0.000000 0.000000 0.000000
# 4 0.000000 0.000000 0.000000 0.037732 0.000000 0.000000
# 5 0.000000 0.000000 0.000000 0.000000 -0.118947 0.000000
# 6 0.000000 0.000000 0.000000 0.000000 0.000000 0.098004
#
#
# Mechanical properties :
#
#
# Convention : Reuss Voigt Hill
#
# Bulk Modulus (GPa) = 51.70774 51.76590 51.73682
# Shear Modulus (GPa) = 73.40943 21.35835 47.38389
#
# Velocity S-wave (km/s) = 5.92583 3.19637 4.76089
# Velocity P-wave (km/s) = 8.45902 6.19553 7.41416
#
# Compressibility (1/GPa) = 0.01933946
#
# Stress axis : x y z
#
# Youngs Moduli (GPa) = 88.26419 99.84694 92.91380
#
# Poissons Ratio (x) = 0.16742 0.26214
# Poissons Ratio (y) = 0.14800 0.17523
# Poissons Ratio (z) = 0.24902 0.18831
#
# Static dielectric constant tensor:
#      x y z
#    x 3.711500 0.000000 0.000000 
#    y 0.000000 2.279770 0.000000 
#    z 0.000000 0.000000 3.918250 
# 
# 
# High freq. dielectric constant tensor:
#      x y z
#    x 1.803730 0.000000 0.000000 
#    y 0.000000 1.817200 0.000000 
#    z 0.000000 0.000000 1.828140 
# 
# From -- ./inp_files/32256.got.cif
#   From: 2010.03.12/outbox.cif.g09.slc.cpg/sg63_17_cif.got.tgz:32256.got - 2010.04.10 19:34:48.
