data_PCOD8256806
_publ_section_title
;
Structure prediction by ZEFSAII (Michael W. Deem and Ramdas Pophale) SiO2 
 PCOD8256806
Probable space group: C M C M
;
_chemical_formula_sum "Si O2"
_cell_formula_units_Z 80
_cell_length_a 18.436219
_cell_length_b 26.859688
_cell_length_c 9.179473
_cell_angle_alpha 90.000000
_cell_angle_beta 90.000000
_cell_angle_gamma 90.000000
_cell_volume 4545.593243
_symmetry_space_group_name_H-M "C M C M"
_symmetry_group_IT_number 63
_symmetry_cell_setting 'orthorhombic'
loop_
_space_group_symop_operation_xyz
x,y,z
-x,-y,1/2+z
x,-y,-z
-x,y,1/2-z
-x,-y,-z
x,y,1/2-z
-x,y,z
x,-y,1/2+z
1/2+x,1/2+y,z
1/2-x,1/2-y,1/2+z
1/2+x,1/2-y,-z
1/2-x,1/2+y,1/2-z
1/2-x,1/2-y,-z
1/2+x,1/2+y,1/2-z
1/2-x,1/2+y,z
1/2+x,1/2-y,1/2+z
loop_
_atom_site_type_symbol
_atom_site_label
_atom_site_fract_x
_atom_site_fract_y
_atom_site_fract_z
Si Si1 0.785430 0.887510 0.583939
Si Si2 0.918071 0.356770 0.418022
Si Si3 0.354482 0.948477 0.918573
Si Si4 0.080959 0.048806 0.081458
Si Si5 0.221584 0.701548 0.920099
O O1 0.780152 0.867447 0.750000
O O2 0.729311 0.932861 0.561877
O O3 0.865841 0.905900 0.545581
O O4 0.771256 0.843931 0.470634
O O5 0.905558 0.371992 0.250000
O O6 0.905191 0.405470 0.515181
O O7 0.862255 0.312133 0.459730
O O8 0.000000 0.337322 0.444612
O O9 0.375206 0.955313 0.750000
O O10 0.369364 0.000000 0.000000
O O11 0.083446 0.035310 0.250000
O O12 0.000000 0.064299 0.031326
O O13 0.108443 0.000000 0.000000
O O14 0.231713 0.710292 0.750000
O O15 0.250000 0.750000 0.000000
#
# Coordination Sequence:
#
# PCOD8256806 Si02
#       5
#    16  16  16  16  16
#     4   9  18  32  49  70  97 128 164 204 242 284
#     4   9  19  36  55  74  97 126 161 199 238 282
#     4  10  19  30  47  72 101 133 166 199 237 282
#     4   9  17  29  46  69  98 132 166 200 240 284
#     4  10  20  35  56  77  96 122 157 198 244 290
#
# _framework density 17.599461999999999
#
# number of rings (size 3 to 8) (size 9 to 14) (size 15 to 20)
#    0.000    2.600    0.000    1.800    0.000    3.200 
#    0.000    1.000    0.000    6.000    0.000    0.000 
#    0.000    0.000    0.000    0.000    0.000    0.000 
#
# Total GULP energy -495964.256979 kJ/mol
# GULP energy per Si atom -12399.106424 kJ/mol
# Density = 1.755940 g / cm^3
# Si number density = 17.599462 Si / 1000 Ang^3
#
#
#
# Elastic Constant Matrix: (Units=GPa)
#
#
# Indices 1 2 3 4 5 6 
#
# 1 113.2405 62.1858 52.0374 0.0000 0.0000 0.0000
# 2 62.1858 112.6825 66.7820 0.0000 0.0000 0.0000
# 3 52.0374 66.7820 90.3261 0.0000 0.0000 0.0000
# 4 0.0000 0.0000 0.0000 36.8777 0.0000 0.0000
# 5 0.0000 0.0000 0.0000 0.0000 23.7186 0.0000
# 6 0.0000 0.0000 0.0000 0.0000 0.0000 14.9041
#
#
#
# Elastic Compliance Matrix: (Units=1/GPa)
#
#
# Indices 1 2 3 4 5 6 
#
# 1 0.013445 -0.005036 -0.004022 0.000000 0.000000 0.000000
# 2 -0.005036 0.017682 -0.010172 0.000000 0.000000 0.000000
# 3 -0.004022 -0.010172 0.020909 0.000000 0.000000 0.000000
# 4 0.000000 0.000000 0.000000 0.027117 0.000000 0.000000
# 5 0.000000 0.000000 0.000000 0.000000 0.042161 0.000000
# 6 0.000000 0.000000 0.000000 0.000000 0.000000 0.067095
#
#
# Mechanical properties :
#
#
# Convention : Reuss Voigt Hill
#
# Bulk Modulus (GPa) = 73.66300 75.36217 74.51258
# Shear Modulus (GPa) = 21.60819 24.11634 22.86226
#
# Velocity S-wave (km/s) = 3.50776 3.70576 3.60812
# Velocity P-wave (km/s) = 7.63885 7.82457 7.73227
#
# Compressibility (1/GPa) = 0.01357534
#
# Stress axis : x y z
#
# Youngs Moduli (GPa) = 74.37984 56.55461 47.82660
#
# Poissons Ratio (x) = 0.28479 0.19237
# Poissons Ratio (y) = 0.37456 0.48649
# Poissons Ratio (z) = 0.29918 0.57527
#
# Static dielectric constant tensor:
#      x y z
#    x 3.467030 0.000000 0.000000 
#    y 0.000000 3.080340 0.000000 
#    z 0.000000 0.000000 3.332060 
# 
# 
# High freq. dielectric constant tensor:
#      x y z
#    x 1.684090 0.000000 0.000000 
#    y 0.000000 1.659440 0.000000 
#    z 0.000000 0.000000 1.687640 
# 
# From -- ./inp_files/6379.got.cif
#   From: 2010.03.12/outbox.cif.g09.slc.cpg/sg63_4_cif.got.tgz:6379.got - 2010.04.10 19:34:48.
