data_PCOD8256286
_publ_section_title
;
Structure prediction by ZEFSAII (Michael W. Deem and Ramdas Pophale) SiO2 
 PCOD8256286
Probable space group: C M C M
;
_chemical_formula_sum "Si O2"
_cell_formula_units_Z 120
_cell_length_a 19.196075
_cell_length_b 21.050676
_cell_length_c 16.493302
_cell_angle_alpha 90.000000
_cell_angle_beta 90.000000
_cell_angle_gamma 90.000000
_cell_volume 6664.784265
_symmetry_space_group_name_H-M "C M C M"
_symmetry_group_IT_number 63
_symmetry_cell_setting 'orthorhombic'
loop_
_space_group_symop_operation_xyz
x,y,z
-x,-y,1/2+z
x,-y,-z
-x,y,1/2-z
-x,-y,-z
x,y,1/2-z
-x,y,z
x,-y,1/2+z
1/2+x,1/2+y,z
1/2-x,1/2-y,1/2+z
1/2+x,1/2-y,-z
1/2-x,1/2+y,1/2-z
1/2-x,1/2-y,-z
1/2+x,1/2+y,1/2-z
1/2-x,1/2+y,z
1/2+x,1/2-y,1/2+z
loop_
_atom_site_type_symbol
_atom_site_label
_atom_site_fract_x
_atom_site_fract_y
_atom_site_fract_z
Si Si1 0.875220 0.323094 0.339468
Si Si2 0.805734 0.136019 0.000239
Si Si3 0.216067 0.197382 0.662292
Si Si4 0.921372 0.770817 0.964212
Si Si5 0.332190 0.813422 0.579454
Si Si6 0.923054 0.414957 0.658164
Si Si7 0.657882 0.962911 0.154812
Si Si8 0.747192 0.500000 0.500000
O O1 0.906373 0.326648 0.250000
O O2 0.798339 0.295092 0.343221
O O3 0.924834 0.274175 0.385698
O O4 0.871724 0.394994 0.374439
O O5 0.872472 0.166509 0.046407
O O6 0.734917 0.172394 0.024618
O O7 0.814670 0.148869 0.904107
O O8 0.801609 0.061042 0.018556
O O9 0.193260 0.170395 0.750000
O O10 0.188641 0.269354 0.654609
O O11 0.000000 0.792923 0.985211
O O12 0.890590 0.725825 0.032956
O O13 0.364202 0.879618 0.607265
O O14 0.920647 0.389950 0.750000
O O15 0.906859 0.489496 0.654531
O O16 0.000000 0.403585 0.621501
O O17 0.688150 0.959389 0.250000
O O18 0.711262 0.985406 0.083938
#
# Coordination Sequence:
#
# PCOD8256286 Si02
#       8
#    16  16  16  16  16  16  16   8
#     4  10  19  34  55  80 109 146 182 222 271 329
#     4  11  21  36  57  82 109 137 188 234 275 334
#     4  10  18  31  55  81 108 137 177 234 280 317
#     4  11  22  37  54  79 111 144 178 231 284 334
#     4  11  18  35  54  81 105 142 185 224 267 334
#     4  10  21  35  50  75 115 150 179 221 267 323
#     4  10  21  35  54  83 114 147 192 232 271 332
#     4  12  20  36  60  80 108 150 186 236 290 326
#
# _framework density 18.005085000000001
#
# number of rings (size 3 to 8) (size 9 to 14) (size 15 to 20)
#    0.000    1.467    5.333    1.600    0.000    0.800 
#    0.000    2.667    0.000    3.600    0.000    0.000 
#    0.000    1.067    0.000    0.000    0.000    0.000 
#
# Total GULP energy -743460.761746 kJ/mol
# GULP energy per Si atom -12391.012696 kJ/mol
# Density = 1.796410 g / cm^3
# Si number density = 18.005085 Si / 1000 Ang^3
#
#
#
# Elastic Constant Matrix: (Units=GPa)
#
#
# Indices 1 2 3 4 5 6 
#
# 1 97.6565 50.4607 28.2176 0.0000 0.0000 0.0000
# 2 50.4607 109.9853 34.2592 0.0000 0.0000 0.0000
# 3 28.2176 34.2592 79.6652 0.0000 0.0000 0.0000
# 4 0.0000 0.0000 0.0000 24.6878 0.0000 0.0000
# 5 0.0000 0.0000 0.0000 0.0000 14.1669 0.0000
# 6 0.0000 0.0000 0.0000 0.0000 0.0000 17.9803
#
#
#
# Elastic Compliance Matrix: (Units=1/GPa)
#
#
# Indices 1 2 3 4 5 6 
#
# 1 0.013843 -0.005570 -0.002508 0.000000 0.000000 0.000000
# 2 -0.005570 0.012739 -0.003506 0.000000 0.000000 0.000000
# 3 -0.002508 -0.003506 0.014948 0.000000 0.000000 0.000000
# 4 0.000000 0.000000 0.000000 0.040506 0.000000 0.000000
# 5 0.000000 0.000000 0.000000 0.000000 0.070587 0.000000
# 6 0.000000 0.000000 0.000000 0.000000 0.000000 0.055616
#
#
# Mechanical properties :
#
#
# Convention : Reuss Voigt Hill
#
# Bulk Modulus (GPa) = 54.45461 57.02021 55.73741
# Shear Modulus (GPa) = 21.05018 22.99163 22.02091
#
# Velocity S-wave (km/s) = 3.42296 3.57732 3.50099
# Velocity P-wave (km/s) = 6.77730 6.98575 6.88232
#
# Compressibility (1/GPa) = 0.01836392
#
# Stress axis : x y z
#
# Youngs Moduli (GPa) = 72.24079 78.49622 66.89678
#
# Poissons Ratio (x) = 0.43720 0.16777
# Poissons Ratio (y) = 0.40236 0.23452
# Poissons Ratio (z) = 0.18117 0.27518
#
# Static dielectric constant tensor:
#      x y z
#    x 3.108490 0.000000 0.000000 
#    y 0.000000 3.472630 0.000000 
#    z 0.000000 0.000000 3.568830 
# 
# 
# High freq. dielectric constant tensor:
#      x y z
#    x 1.665860 0.000000 0.000000 
#    y 0.000000 1.697470 0.000000 
#    z 0.000000 0.000000 1.702870 
# 
# From -- ./inp_files/46178.got.cif
#   From: 2010.03.12/outbox.cif.g09.slc.cpg/sg63_24_cif.got.tgz:46178.got - 2010.04.10 19:34:48.
