data_PCOD8256030
_publ_section_title
;
Structure prediction by ZEFSAII (Michael W. Deem and Ramdas Pophale) SiO2 
 PCOD8256030
Probable space group: C M C M
;
_chemical_formula_sum "Si O2"
_cell_formula_units_Z 112
_cell_length_a 21.060230
_cell_length_b 12.699992
_cell_length_c 24.840070
_cell_angle_alpha 90.000000
_cell_angle_beta 90.000000
_cell_angle_gamma 90.000000
_cell_volume 6643.843175
_symmetry_space_group_name_H-M "C M C M"
_symmetry_group_IT_number 63
_symmetry_cell_setting 'orthorhombic'
loop_
_space_group_symop_operation_xyz
x,y,z
-x,-y,1/2+z
x,-y,-z
-x,y,1/2-z
-x,-y,-z
x,y,1/2-z
-x,y,z
x,-y,1/2+z
1/2+x,1/2+y,z
1/2-x,1/2-y,1/2+z
1/2+x,1/2-y,-z
1/2-x,1/2+y,1/2-z
1/2-x,1/2-y,-z
1/2+x,1/2+y,1/2-z
1/2-x,1/2+y,z
1/2+x,1/2-y,1/2+z
loop_
_atom_site_type_symbol
_atom_site_label
_atom_site_fract_x
_atom_site_fract_y
_atom_site_fract_z
Si Si1 0.257972 0.638161 0.622001
Si Si2 0.330319 0.984362 0.190789
Si Si3 0.925992 0.379675 0.989084
Si Si4 0.363842 0.244968 0.582978
Si Si5 0.206253 0.946135 0.943700
Si Si6 0.173140 0.343612 0.900544
Si Si7 0.926237 0.309025 0.309877
O O1 0.225691 0.600557 0.677865
O O2 0.200289 0.674711 0.582974
O O3 0.296321 0.538276 0.600043
O O4 0.308126 0.732986 0.627483
O O5 0.316595 0.030965 0.250000
O O6 0.398011 0.926537 0.189219
O O7 0.335273 0.076817 0.148211
O O8 0.911984 0.310073 0.041817
O O9 0.000000 0.372208 0.975669
O O10 0.905230 0.500000 0.000000
O O11 0.889740 0.333735 0.936783
O O12 0.350819 0.364289 0.564929
O O13 0.393280 0.257797 0.642805
O O14 0.272402 0.883341 0.940983
O O15 0.196751 0.000000 0.000000
O O16 0.914319 0.258734 0.250000
O O17 0.000000 0.318413 0.322574
#
# Coordination Sequence:
#
# PCOD8256030 Si02
#       7
#    16  16  16  16  16  16  16
#     4   9  18  31  48  70  96 125 157 195 240 288
#     4   9  18  31  48  73 100 123 156 200 242 289
#     4  11  21  31  47  71 100 131 162 202 248 295
#     4  10  19  31  49  73  99 127 161 202 246 290
#     4  10  18  30  49  70  95 127 161 195 234 286
#     4  10  19  31  48  71  99 131 160 193 243 296
#     4   9  17  31  51  72  95 124 159 201 246 290
#
# _framework density 16.857713
#
# number of rings (size 3 to 8) (size 9 to 14) (size 15 to 20)
#    0.000    2.286    0.000    5.143    0.000    4.571 
#    0.000    7.143    0.000    7.714    0.000    0.000 
#    0.000    2.286    0.000    0.000    0.000    0.000 
#
# Total GULP energy -694155.718644 kJ/mol
# GULP energy per Si atom -12395.637833 kJ/mol
# Density = 1.681934 g / cm^3
# Si number density = 16.857713 Si / 1000 Ang^3
#
#
#
# Elastic Constant Matrix: (Units=GPa)
#
#
# Indices 1 2 3 4 5 6 
#
# 1 69.0919 34.9320 40.3102 0.0000 0.0000 0.0000
# 2 34.9320 85.3876 40.4564 0.0000 0.0000 0.0000
# 3 40.3102 40.4564 119.6740 0.0000 0.0000 0.0000
# 4 0.0000 0.0000 0.0000 12.3500 0.0000 0.0000
# 5 0.0000 0.0000 0.0000 0.0000 33.0854 0.0000
# 6 0.0000 0.0000 0.0000 0.0000 0.0000 19.8988
#
#
#
# Elastic Compliance Matrix: (Units=1/GPa)
#
#
# Indices 1 2 3 4 5 6 
#
# 1 0.020332 -0.006040 -0.004806 0.000000 0.000000 0.000000
# 2 -0.006040 0.015739 -0.003286 0.000000 0.000000 0.000000
# 3 -0.004806 -0.003286 0.011086 0.000000 0.000000 0.000000
# 4 0.000000 0.000000 0.000000 0.080972 0.000000 0.000000
# 5 0.000000 0.000000 0.000000 0.000000 0.030225 0.000000
# 6 0.000000 0.000000 0.000000 0.000000 0.000000 0.050254
#
#
# Mechanical properties :
#
#
# Convention : Reuss Voigt Hill
#
# Bulk Modulus (GPa) = 52.93528 56.17232 54.55380
# Shear Modulus (GPa) = 20.56170 23.63050 22.09610
#
# Velocity S-wave (km/s) = 3.49624 3.74807 3.62434
# Velocity P-wave (km/s) = 6.91141 7.21973 7.06725
#
# Compressibility (1/GPa) = 0.01889099
#
# Stress axis : x y z
#
# Youngs Moduli (GPa) = 49.18449 63.53481 90.20476
#
# Poissons Ratio (x) = 0.38378 0.43356
# Poissons Ratio (y) = 0.29709 0.29643
# Poissons Ratio (z) = 0.23640 0.20879
#
# Static dielectric constant tensor:
#      x y z
#    x 3.057890 0.000000 0.000000 
#    y 0.000000 3.282090 0.000000 
#    z 0.000000 0.000000 3.392540 
# 
# 
# High freq. dielectric constant tensor:
#      x y z
#    x 1.632790 0.000000 0.000000 
#    y 0.000000 1.638200 0.000000 
#    z 0.000000 0.000000 1.652270 
# 
# From -- ./inp_files/64640.got.cif
#   From: 2010.03.12/outbox.cif.g09.slc.cpg/sg63_33_cif.got.tgz:64640.got - 2010.04.10 19:34:48.
