data_PCOD8256918
_publ_section_title
;
Structure prediction by ZEFSAII (Michael W. Deem and Ramdas Pophale) SiO2 
 PCOD8256918
Probable space group: C M C M
;
_chemical_formula_sum "Si O2"
_cell_formula_units_Z 80
_cell_length_a 32.329022
_cell_length_b 14.852895
_cell_length_c 9.090770
_cell_angle_alpha 90.000000
_cell_angle_beta 90.000000
_cell_angle_gamma 90.000000
_cell_volume 4365.202022
_symmetry_space_group_name_H-M "C M C M"
_symmetry_group_IT_number 63
_symmetry_cell_setting 'orthorhombic'
loop_
_space_group_symop_operation_xyz
x,y,z
-x,-y,1/2+z
x,-y,-z
-x,y,1/2-z
-x,-y,-z
x,y,1/2-z
-x,y,z
x,-y,1/2+z
1/2+x,1/2+y,z
1/2-x,1/2-y,1/2+z
1/2+x,1/2-y,-z
1/2-x,1/2+y,1/2-z
1/2-x,1/2-y,-z
1/2+x,1/2+y,1/2-z
1/2-x,1/2+y,z
1/2+x,1/2-y,1/2+z
loop_
_atom_site_type_symbol
_atom_site_label
_atom_site_fract_x
_atom_site_fract_y
_atom_site_fract_z
Si Si1 0.276504 0.370996 0.585476
Si Si2 0.620108 0.783638 0.921865
Si Si3 0.546554 0.090351 0.078220
Si Si4 0.699793 0.835161 0.414057
Si Si5 0.641983 0.585484 0.577074
O O1 0.277982 0.412846 0.750000
O O2 0.283112 0.265071 0.596614
O O3 0.232225 0.392950 0.510651
O O4 0.311295 0.413810 0.482420
O O5 0.630528 0.793186 0.750000
O O6 0.575955 0.826208 0.964142
O O7 0.618710 0.678097 0.966153
O O8 0.655095 0.837703 0.009526
O O9 0.548231 0.070796 0.250000
O O10 0.500000 0.115188 0.027058
O O11 0.562369 0.000000 0.000000
O O12 0.695905 0.876360 0.250000
O O13 0.619154 0.500000 0.500000
O O14 0.642404 0.570185 0.750000
#
# Coordination Sequence:
#
# PCOD8256918 Si02
#       5
#    16  16  16  16  16
#     4   9  16  27  43  63  90 125 164 205 246 285
#     4   9  18  32  50  72  99 131 164 200 245 296
#     4   9  18  34  56  80 103 126 154 191 239 296
#     4   9  16  26  43  67  93 123 161 204 246 285
#     4  10  19  31  47  68  96 131 171 210 245 285
#
# _framework density 18.326758000000002
#
# number of rings (size 3 to 8) (size 9 to 14) (size 15 to 20)
#    0.000    2.800    0.000    1.800    0.000    6.400 
#    0.000    1.000    0.000    3.000    0.000    0.000 
#    0.000    0.000    0.000    0.000    0.000    0.600 
#
# Total GULP energy -495882.126930 kJ/mol
# GULP energy per Si atom -12397.053173 kJ/mol
# Density = 1.828505 g / cm^3
# Si number density = 18.326758 Si / 1000 Ang^3
#
#
#
# Elastic Constant Matrix: (Units=GPa)
#
#
# Indices 1 2 3 4 5 6 
#
# 1 103.6127 57.6833 45.1932 0.0000 0.0000 0.0000
# 2 57.6833 91.8938 39.6601 0.0000 0.0000 0.0000
# 3 45.1932 39.6601 86.4446 0.0000 0.0000 0.0000
# 4 0.0000 0.0000 0.0000 25.8603 0.0000 0.0000
# 5 0.0000 0.0000 0.0000 0.0000 21.9487 0.0000
# 6 0.0000 0.0000 0.0000 0.0000 0.0000 16.0305
#
#
#
# Elastic Compliance Matrix: (Units=1/GPa)
#
#
# Indices 1 2 3 4 5 6 
#
# 1 0.016270 -0.008157 -0.004764 0.000000 0.000000 0.000000
# 2 -0.008157 0.017659 -0.003837 0.000000 0.000000 0.000000
# 3 -0.004764 -0.003837 0.015819 0.000000 0.000000 0.000000
# 4 0.000000 0.000000 0.000000 0.038669 0.000000 0.000000
# 5 0.000000 0.000000 0.000000 0.000000 0.045561 0.000000
# 6 0.000000 0.000000 0.000000 0.000000 0.000000 0.062381
#
#
# Mechanical properties :
#
#
# Convention : Reuss Voigt Hill
#
# Bulk Modulus (GPa) = 61.60656 63.00270 62.30463
# Shear Modulus (GPa) = 21.25075 22.06220 21.65648
#
# Velocity S-wave (km/s) = 3.40891 3.47338 3.44130
# Velocity P-wave (km/s) = 7.01305 7.10900 7.06119
#
# Compressibility (1/GPa) = 0.01623204
#
# Stress axis : x y z
#
# Youngs Moduli (GPa) = 61.46108 56.62959 63.21546
#
# Poissons Ratio (x) = 0.46195 0.30114
# Poissons Ratio (y) = 0.50136 0.24256
# Poissons Ratio (z) = 0.29278 0.21729
#
# Static dielectric constant tensor:
#      x y z
#    x 3.263820 0.000000 0.000000 
#    y 0.000000 3.419480 0.000000 
#    z 0.000000 0.000000 3.539650 
# 
# 
# High freq. dielectric constant tensor:
#      x y z
#    x 1.679440 0.000000 0.000000 
#    y 0.000000 1.698550 0.000000 
#    z 0.000000 0.000000 1.720730 
# 
# From -- ./inp_files/12061.got.cif
#   From: 2010.03.12/outbox.cif.g09.slc.cpg/sg63_7_cif.got.tgz:12061.got - 2010.04.10 19:34:48.
