data_PCOD8256211
_publ_section_title
;
Structure prediction by ZEFSAII (Michael W. Deem and Ramdas Pophale) SiO2 
 PCOD8256211
Probable space group: C M C M
;
_chemical_formula_sum "Si O2"
_cell_formula_units_Z 80
_cell_length_a 16.896264
_cell_length_b 28.347238
_cell_length_c 8.769689
_cell_angle_alpha 90.000000
_cell_angle_beta 90.000000
_cell_angle_gamma 90.000000
_cell_volume 4200.351439
_symmetry_space_group_name_H-M "C M C M"
_symmetry_group_IT_number 63
_symmetry_cell_setting 'orthorhombic'
loop_
_space_group_symop_operation_xyz
x,y,z
-x,-y,1/2+z
x,-y,-z
-x,y,1/2-z
-x,-y,-z
x,y,1/2-z
-x,y,z
x,-y,1/2+z
1/2+x,1/2+y,z
1/2-x,1/2-y,1/2+z
1/2+x,1/2-y,-z
1/2-x,1/2+y,1/2-z
1/2-x,1/2-y,-z
1/2+x,1/2+y,1/2-z
1/2-x,1/2+y,z
1/2+x,1/2-y,1/2+z
loop_
_atom_site_type_symbol
_atom_site_label
_atom_site_fract_x
_atom_site_fract_y
_atom_site_fract_z
Si Si1 0.588005 0.314379 0.071154
Si Si2 0.000000 0.658059 0.914151
Si Si3 0.849544 0.277680 0.078943
Si Si4 0.332373 0.952666 0.068406
Si Si5 0.000000 0.566560 0.426791
Si Si6 0.758272 0.140053 0.569641
O O1 0.576359 0.312927 0.250000
O O2 0.500000 0.320385 0.995106
O O3 0.647709 0.357639 0.026921
O O4 0.632629 0.266744 0.025799
O O5 0.074763 0.690242 0.921398
O O6 0.000000 0.630360 0.750000
O O7 0.000000 0.622900 0.056131
O O8 0.829062 0.260294 0.250000
O O9 0.780652 0.310997 0.007639
O O10 0.330474 0.954238 0.250000
O O11 0.283391 0.907218 0.004276
O O12 0.422255 0.952897 0.009497
O O13 0.291752 0.000000 0.000000
O O14 0.000000 0.552112 0.250000
O O15 0.744742 0.139922 0.750000
#
# Coordination Sequence:
#
# PCOD8256211 Si02
#       6
#    16   8  16  16   8  16
#     4  10  20  33  51  78 107 135 172 219 263 306
#     4  10  18  31  51  74 106 150 180 207 254 303
#     4  10  18  32  52  73 102 143 181 207 252 310
#     4  11  22  39  58  77 104 138 176 216 259 312
#     4  12  23  35  54  82 111 140 176 213 255 303
#     4   9  19  35  54  74 102 140 175 211 260 314
#
# _framework density 19.046023999999999
#
# number of rings (size 3 to 8) (size 9 to 14) (size 15 to 20)
#    0.000    1.800    3.000    2.400    0.000    0.800 
#    0.000    2.000    0.000    0.600    0.000    0.000 
#    0.000    0.000    0.000    0.000    0.000    0.200 
#
# Total GULP energy -495575.872417 kJ/mol
# GULP energy per Si atom -12389.396810 kJ/mol
# Density = 1.900267 g / cm^3
# Si number density = 19.046024 Si / 1000 Ang^3
#
#
#
# Elastic Constant Matrix: (Units=GPa)
#
#
# Indices 1 2 3 4 5 6 
#
# 1 139.8662 70.3904 22.8733 0.0000 0.0000 0.0000
# 2 70.3904 88.5160 16.5520 0.0000 0.0000 0.0000
# 3 22.8733 16.5520 41.7891 0.0000 0.0000 0.0000
# 4 0.0000 0.0000 0.0000 25.8553 0.0000 0.0000
# 5 0.0000 0.0000 0.0000 0.0000 15.7988 0.0000
# 6 0.0000 0.0000 0.0000 0.0000 0.0000 -152.4958
#
#
#
# Elastic Compliance Matrix: (Units=1/GPa)
#
#
# Indices 1 2 3 4 5 6 
#
# 1 0.012277 -0.009187 -0.003081 0.000000 0.000000 0.000000
# 2 -0.009187 0.019076 -0.002527 0.000000 0.000000 0.000000
# 3 -0.003081 -0.002527 0.026617 0.000000 0.000000 0.000000
# 4 0.000000 0.000000 0.000000 0.038677 0.000000 0.000000
# 5 0.000000 0.000000 0.000000 0.000000 0.063296 0.000000
# 6 0.000000 0.000000 0.000000 0.000000 0.000000 -0.006558
#
#
# Mechanical properties :
#
#
# Convention : Reuss Voigt Hill
#
# Bulk Modulus (GPa) = 35.23656 54.42253 44.82954
# Shear Modulus (GPa) = 25.98283 -11.47797 7.25243
#
# Velocity S-wave (km/s) = 3.69753 -2.45754 1.95349
# Velocity P-wave (km/s) = 6.06382 4.53691 5.35507
#
# Compressibility (1/GPa) = 0.02837962
#
# Stress axis : x y z
#
# Youngs Moduli (GPa) = 81.45278 52.42292 37.56988
#
# Poissons Ratio (x) = 0.48160 0.11576
# Poissons Ratio (y) = 0.74830 0.09494
# Poissons Ratio (z) = 0.25096 0.13248
#
# Static dielectric constant tensor:
#      x y z
#    x 4.412350 0.000000 0.000000 
#    y 0.000000 3.673040 0.000000 
#    z 0.000000 0.000000 3.427720 
# 
# 
# High freq. dielectric constant tensor:
#      x y z
#    x 1.744970 0.000000 0.000000 
#    y 0.000000 1.730390 0.000000 
#    z 0.000000 0.000000 1.713290 
# 
# From -- ./inp_files/6533.got.cif
#   From: 2010.03.12/outbox.cif.g09.slc.cpg/sg63_4_cif.got.tgz:6533.got - 2010.04.10 19:34:48.
