data_PCOD8256313
_publ_section_title
;
Structure prediction by ZEFSAII (Michael W. Deem and Ramdas Pophale) SiO2 
 PCOD8256313
Probable space group: C M C M
;
_chemical_formula_sum "Si O2"
_cell_formula_units_Z 88
_cell_length_a 20.218056
_cell_length_b 30.334432
_cell_length_c 8.643979
_cell_angle_alpha 90.000000
_cell_angle_beta 90.000000
_cell_angle_gamma 90.000000
_cell_volume 5301.380370
_symmetry_space_group_name_H-M "C M C M"
_symmetry_group_IT_number 63
_symmetry_cell_setting 'orthorhombic'
loop_
_space_group_symop_operation_xyz
x,y,z
-x,-y,1/2+z
x,-y,-z
-x,y,1/2-z
-x,-y,-z
x,y,1/2-z
-x,y,z
x,-y,1/2+z
1/2+x,1/2+y,z
1/2-x,1/2-y,1/2+z
1/2+x,1/2-y,-z
1/2-x,1/2+y,1/2-z
1/2-x,1/2-y,-z
1/2+x,1/2+y,1/2-z
1/2-x,1/2+y,z
1/2+x,1/2-y,1/2+z
loop_
_atom_site_type_symbol
_atom_site_label
_atom_site_fract_x
_atom_site_fract_y
_atom_site_fract_z
Si Si1 0.000000 0.048873 0.934347
Si Si2 0.697552 0.373446 0.070358
Si Si3 0.786038 0.293232 0.065442
Si Si4 0.572624 0.317708 0.076197
Si Si5 0.571328 0.226035 0.569832
Si Si6 0.864055 0.048061 0.431984
O O1 0.000000 0.050673 0.750000
O O2 0.931576 0.069619 0.997671
O O3 0.000000 0.000000 0.000000
O O4 0.709525 0.383537 0.250000
O O5 0.751553 0.338387 0.008230
O O6 0.625891 0.353774 0.034476
O O7 0.697428 0.419646 0.977211
O O8 0.782413 0.289362 0.250000
O O9 0.862123 0.296866 0.003712
O O10 0.750000 0.250000 0.000000
O O11 0.584734 0.299196 0.250000
O O12 0.500000 0.340079 0.064350
O O13 0.578863 0.277920 0.956896
O O14 0.568488 0.216698 0.750000
O O15 0.500000 0.209744 0.497054
O O16 0.871105 0.043786 0.250000
O O17 0.848612 0.000000 0.500000
#
# Coordination Sequence:
#
# PCOD8256313 Si02
#       6
#     8  16  16  16  16  16
#     4  10  18  32  52  70  92 122 156 198 242 282
#     4  10  20  32  46  66  90 123 160 198 241 286
#     4  10  19  31  47  67  95 127 160 197 238 283
#     4   9  17  28  42  62  88 121 157 192 232 276
#     4   9  17  29  45  65  91 124 159 197 235 273
#     4  11  22  36  51  69  91 120 157 199 242 286
#
# _framework density 16.599449
#
# number of rings (size 3 to 8) (size 9 to 14) (size 15 to 20)
#    0.000    2.182    1.818    3.545    1.273    1.455 
#    0.000    0.000    0.000    0.000    0.000    0.000 
#    0.000    0.727    0.000    1.273    0.000    1.818 
#
# Total GULP energy -545123.131112 kJ/mol
# GULP energy per Si atom -12389.162071 kJ/mol
# Density = 1.656167 g / cm^3
# Si number density = 16.599449 Si / 1000 Ang^3
#
#
#
# Elastic Constant Matrix: (Units=GPa)
#
#
# Indices 1 2 3 4 5 6 
#
# 1 117.6638 56.6368 28.4495 0.0000 0.0000 0.0000
# 2 56.6368 83.9245 27.6457 0.0000 0.0000 0.0000
# 3 28.4495 27.6457 62.2456 0.0000 0.0000 0.0000
# 4 0.0000 0.0000 0.0000 22.9580 0.0000 0.0000
# 5 0.0000 0.0000 0.0000 0.0000 15.7089 0.0000
# 6 0.0000 0.0000 0.0000 0.0000 0.0000 27.8086
#
#
#
# Elastic Compliance Matrix: (Units=1/GPa)
#
#
# Indices 1 2 3 4 5 6 
#
# 1 0.012880 -0.007910 -0.002374 0.000000 0.000000 0.000000
# 2 -0.007910 0.018816 -0.004741 0.000000 0.000000 0.000000
# 3 -0.002374 -0.004741 0.019256 0.000000 0.000000 0.000000
# 4 0.000000 0.000000 0.000000 0.043558 0.000000 0.000000
# 5 0.000000 0.000000 0.000000 0.000000 0.063658 0.000000
# 6 0.000000 0.000000 0.000000 0.000000 0.000000 0.035960
#
#
# Mechanical properties :
#
#
# Convention : Reuss Voigt Hill
#
# Bulk Modulus (GPa) = 47.84387 54.36644 51.10515
# Shear Modulus (GPa) = 21.63133 23.36856 22.49994
#
# Velocity S-wave (km/s) = 3.61381 3.75612 3.68566
# Velocity P-wave (km/s) = 6.80426 7.18570 6.99758
#
# Compressibility (1/GPa) = 0.02090132
#
# Stress axis : x y z
#
# Youngs Moduli (GPa) = 77.63753 53.14707 51.93166
#
# Poissons Ratio (x) = 0.42042 0.12327
# Poissons Ratio (y) = 0.61415 0.24622
# Poissons Ratio (z) = 0.18428 0.25199
#
# Static dielectric constant tensor:
#      x y z
#    x 3.641320 0.000000 0.000000 
#    y 0.000000 2.974200 0.000000 
#    z 0.000000 0.000000 3.058400 
# 
# 
# High freq. dielectric constant tensor:
#      x y z
#    x 1.627730 0.000000 0.000000 
#    y 0.000000 1.610480 0.000000 
#    z 0.000000 0.000000 1.634110 
# 
# From -- ./inp_files/8977.got.cif
#   From: 2010.03.12/outbox.cif.g09.slc.cpg/sg63_5_cif.got.tgz:8977.got - 2010.04.10 19:34:48.
