data_PCOD8256831
_publ_section_title
;
Structure prediction by ZEFSAII (Michael W. Deem and Ramdas Pophale) SiO2 
 PCOD8256831
Probable space group: C M C M
;
_chemical_formula_sum "Si O2"
_cell_formula_units_Z 96
_cell_length_a 23.152442
_cell_length_b 25.461785
_cell_length_c 9.535380
_cell_angle_alpha 90.000000
_cell_angle_beta 90.000000
_cell_angle_gamma 90.000000
_cell_volume 5621.130353
_symmetry_space_group_name_H-M "C M C M"
_symmetry_group_IT_number 63
_symmetry_cell_setting 'orthorhombic'
loop_
_space_group_symop_operation_xyz
x,y,z
-x,-y,1/2+z
x,-y,-z
-x,y,1/2-z
-x,-y,-z
x,y,1/2-z
-x,y,z
x,-y,1/2+z
1/2+x,1/2+y,z
1/2-x,1/2-y,1/2+z
1/2+x,1/2-y,-z
1/2-x,1/2+y,1/2-z
1/2-x,1/2-y,-z
1/2+x,1/2+y,1/2-z
1/2-x,1/2+y,z
1/2+x,1/2-y,1/2+z
loop_
_atom_site_type_symbol
_atom_site_label
_atom_site_fract_x
_atom_site_fract_y
_atom_site_fract_z
Si Si1 0.253715 0.696968 0.087112
Si Si2 0.566384 0.549367 0.412010
Si Si3 0.866516 0.652474 0.085574
Si Si4 0.433164 0.252827 0.410349
Si Si5 0.121046 0.157850 0.087060
Si Si6 0.433095 0.051337 0.413306
O O1 0.250686 0.712819 0.250000
O O2 0.201279 0.657488 0.048583
O O3 0.312081 0.666487 0.049493
O O4 0.250000 0.750000 0.000000
O O5 0.588994 0.500000 0.500000
O O6 0.573847 0.534987 0.250000
O O7 0.500000 0.562606 0.448343
O O8 0.605457 0.598668 0.455183
O O9 0.878684 0.651681 0.250000
O O10 0.898569 0.703686 0.023529
O O11 0.893745 0.598765 0.025148
O O12 0.414256 0.263548 0.250000
O O13 0.500000 0.238916 0.420581
O O14 0.419700 0.304083 0.499591
O O15 0.108077 0.168186 0.250000
O O16 0.420486 0.040275 0.250000
O O17 0.500000 0.066286 0.437049
O O18 0.415640 0.000000 0.500000
#
# Coordination Sequence:
#
# PCOD8256831 Si02
#       6
#    16  16  16  16  16  16
#     4  10  19  33  52  72  97 133 169 201 243 295
#     4   9  18  33  51  70  95 127 162 200 243 292
#     4   9  17  31  50  71  97 129 165 202 241 289
#     4  10  19  30  48  74 100 127 163 204 244 293
#     4  10  20  33  50  73 101 131 162 201 252 300
#     4   9  17  31  51  72  96 128 164 203 248 294
#
# _framework density 17.078415
#
# number of rings (size 3 to 8) (size 9 to 14) (size 15 to 20)
#    0.000    2.500    1.667    1.000    0.000    3.667 
#    0.000    4.167    0.000    2.000    0.000    0.000 
#    0.000    0.000    0.000    0.000    0.000    0.000 
#
# Total GULP energy -595241.975364 kJ/mol
# GULP energy per Si atom -12400.874487 kJ/mol
# Density = 1.703954 g / cm^3
# Si number density = 17.078415 Si / 1000 Ang^3
#
#
#
# Elastic Constant Matrix: (Units=GPa)
#
#
# Indices 1 2 3 4 5 6 
#
# 1 90.0191 60.4636 30.2047 0.0000 0.0000 0.0000
# 2 60.4636 145.2853 52.3812 0.0000 0.0000 0.0000
# 3 30.2047 52.3812 43.5934 0.0000 0.0000 0.0000
# 4 0.0000 0.0000 0.0000 30.8119 0.0000 0.0000
# 5 0.0000 0.0000 0.0000 0.0000 19.1866 0.0000
# 6 0.0000 0.0000 0.0000 0.0000 0.0000 30.2011
#
#
#
# Elastic Compliance Matrix: (Units=1/GPa)
#
#
# Indices 1 2 3 4 5 6 
#
# 1 0.016130 -0.004734 -0.005487 0.000000 0.000000 0.000000
# 2 -0.004734 0.013534 -0.012982 0.000000 0.000000 0.000000
# 3 -0.005487 -0.012982 0.042340 0.000000 0.000000 0.000000
# 4 0.000000 0.000000 0.000000 0.032455 0.000000 0.000000
# 5 0.000000 0.000000 0.000000 0.000000 0.052120 0.000000
# 6 0.000000 0.000000 0.000000 0.000000 0.000000 0.033111
#
#
# Mechanical properties :
#
#
# Convention : Reuss Voigt Hill
#
# Bulk Modulus (GPa) = 39.06711 62.77742 50.92227
# Shear Modulus (GPa) = 20.43919 25.09646 22.76783
#
# Velocity S-wave (km/s) = 3.46321 3.83754 3.65517
# Velocity P-wave (km/s) = 6.23832 7.51491 6.90617
#
# Compressibility (1/GPa) = 0.02559698
#
# Stress axis : x y z
#
# Youngs Moduli (GPa) = 61.99661 73.88928 23.61853
#
# Poissons Ratio (x) = 0.34983 0.12960
# Poissons Ratio (y) = 0.29352 0.30661
# Poissons Ratio (z) = 0.34018 0.95920
#
# Static dielectric constant tensor:
#      x y z
#    x 3.308190 0.000000 0.000000 
#    y 0.000000 3.253780 0.000000 
#    z 0.000000 0.000000 3.101420 
# 
# 
# High freq. dielectric constant tensor:
#      x y z
#    x 1.661580 0.000000 0.000000 
#    y 0.000000 1.658340 0.000000 
#    z 0.000000 0.000000 1.639060 
# 
# From -- ./inp_files/10456.got.cif
#   From: 2010.03.12/outbox.cif.g09.slc.cpg/sg63_6_cif.got.tgz:10456.got - 2010.04.10 19:34:48.
