data_PCOD8256400
_publ_section_title
;
Structure prediction by ZEFSAII (Michael W. Deem and Ramdas Pophale) SiO2 
 PCOD8256400
Probable space group: C M C M
;
_chemical_formula_sum "Si O2"
_cell_formula_units_Z 96
_cell_length_a 28.499207
_cell_length_b 20.215344
_cell_length_c 8.973241
_cell_angle_alpha 90.000000
_cell_angle_beta 90.000000
_cell_angle_gamma 90.000000
_cell_volume 5169.675030
_symmetry_space_group_name_H-M "C M C M"
_symmetry_group_IT_number 63
_symmetry_cell_setting 'orthorhombic'
loop_
_space_group_symop_operation_xyz
x,y,z
-x,-y,1/2+z
x,-y,-z
-x,y,1/2-z
-x,-y,-z
x,y,1/2-z
-x,y,z
x,-y,1/2+z
1/2+x,1/2+y,z
1/2-x,1/2-y,1/2+z
1/2+x,1/2-y,-z
1/2-x,1/2+y,1/2-z
1/2-x,1/2-y,-z
1/2+x,1/2+y,1/2-z
1/2-x,1/2+y,z
1/2+x,1/2-y,1/2+z
loop_
_atom_site_type_symbol
_atom_site_label
_atom_site_fract_x
_atom_site_fract_y
_atom_site_fract_z
Si Si1 0.096486 0.193795 0.573069
Si Si2 0.052780 0.670269 0.426566
Si Si3 0.554735 0.560734 0.587650
Si Si4 0.306372 0.691846 0.078391
Si Si5 0.634067 0.928479 0.927567
Si Si6 0.284557 0.154941 0.922136
O O1 0.102266 0.200528 0.750000
O O2 0.073943 0.261254 0.508472
O O3 0.063263 0.133501 0.520551
O O4 0.145533 0.175053 0.501008
O O5 0.050327 0.675551 0.250000
O O6 0.086867 0.610645 0.475413
O O7 0.000000 0.658532 0.490218
O O8 0.578711 0.500000 0.500000
O O9 0.578206 0.559045 0.750000
O O10 0.500000 0.547900 0.597509
O O11 0.307300 0.670355 0.250000
O O12 0.299840 0.769782 0.060535
O O13 0.266483 0.648629 0.996791
O O14 0.638547 0.933904 0.750000
O O15 0.679489 0.891186 0.989549
O O16 0.630360 0.000000 0.000000
O O17 0.282432 0.132689 0.750000
#
# Coordination Sequence:
#
# PCOD8256400 Si02
#       6
#    16  16  16  16  16  16
#     4  10  18  32  55  82 110 144 186 230 275 327
#     4   9  18  33  55  82 110 144 190 239 283 331
#     4   9  18  32  51  75 105 143 183 222 266 321
#     4  10  20  33  55  84 113 139 173 223 278 331
#     4  11  22  37  58  82 113 151 191 235 287 340
#     4  10  20  36  57  81 109 141 181 223 271 332
#
# _framework density 18.569834
#
# number of rings (size 3 to 8) (size 9 to 14) (size 15 to 20)
#    0.000    2.167    1.667    2.000    0.000    4.333 
#    0.000    0.833    0.000    7.000    0.000    0.000 
#    0.000    0.000    0.000    0.000    0.000    0.000 
#
# Total GULP energy -595030.240705 kJ/mol
# GULP energy per Si atom -12396.463348 kJ/mol
# Density = 1.852757 g / cm^3
# Si number density = 18.569834 Si / 1000 Ang^3
#
#
#
# Elastic Constant Matrix: (Units=GPa)
#
#
# Indices 1 2 3 4 5 6 
#
# 1 116.1932 76.0666 46.0696 0.0000 0.0000 0.0000
# 2 76.0666 111.9861 51.3008 0.0000 0.0000 0.0000
# 3 46.0696 51.3008 75.5513 0.0000 0.0000 0.0000
# 4 0.0000 0.0000 0.0000 28.3779 0.0000 0.0000
# 5 0.0000 0.0000 0.0000 0.0000 20.9344 0.0000
# 6 0.0000 0.0000 0.0000 0.0000 0.0000 21.3967
#
#
#
# Elastic Compliance Matrix: (Units=1/GPa)
#
#
# Indices 1 2 3 4 5 6 
#
# 1 0.016102 -0.009347 -0.003472 0.000000 0.000000 0.000000
# 2 -0.009347 0.018387 -0.006786 0.000000 0.000000 0.000000
# 3 -0.003472 -0.006786 0.019961 0.000000 0.000000 0.000000
# 4 0.000000 0.000000 0.000000 0.035239 0.000000 0.000000
# 5 0.000000 0.000000 0.000000 0.000000 0.047768 0.000000
# 6 0.000000 0.000000 0.000000 0.000000 0.000000 0.046736
#
#
# Mechanical properties :
#
#
# Convention : Reuss Voigt Hill
#
# Bulk Modulus (GPa) = 65.61299 72.28938 68.95118
# Shear Modulus (GPa) = 21.88362 22.82806 22.35584
#
# Velocity S-wave (km/s) = 3.43658 3.50995 3.47346
# Velocity P-wave (km/s) = 7.15238 7.44576 7.30054
#
# Compressibility (1/GPa) = 0.01524088
#
# Stress axis : x y z
#
# Youngs Moduli (GPa) = 62.10493 54.38660 50.09823
#
# Poissons Ratio (x) = 0.50833 0.17394
# Poissons Ratio (y) = 0.58047 0.33995
# Poissons Ratio (z) = 0.21563 0.36905
#
# Static dielectric constant tensor:
#      x y z
#    x 3.512050 0.000000 0.000000 
#    y 0.000000 3.453770 0.000000 
#    z 0.000000 0.000000 3.441690 
# 
# 
# High freq. dielectric constant tensor:
#      x y z
#    x 1.722590 0.000000 0.000000 
#    y 0.000000 1.715250 0.000000 
#    z 0.000000 0.000000 1.707730 
# 
# From -- ./inp_files/12353.got.cif
#   From: 2010.03.12/outbox.cif.g09.slc.cpg/sg63_7_cif.got.tgz:12353.got - 2010.04.10 19:34:48.
