data_PCOD8256602
_publ_section_title
;
Structure prediction by ZEFSAII (Michael W. Deem and Ramdas Pophale) SiO2 
 PCOD8256602
Probable space group: C M C M
;
_chemical_formula_sum "Si O2"
_cell_formula_units_Z 96
_cell_length_a 28.303646
_cell_length_b 26.490450
_cell_length_c 8.843013
_cell_angle_alpha 90.000000
_cell_angle_beta 90.000000
_cell_angle_gamma 90.000000
_cell_volume 6630.281738
_symmetry_space_group_name_H-M "C M C M"
_symmetry_group_IT_number 63
_symmetry_cell_setting 'orthorhombic'
loop_
_space_group_symop_operation_xyz
x,y,z
-x,-y,1/2+z
x,-y,-z
-x,y,1/2-z
-x,-y,-z
x,y,1/2-z
-x,y,z
x,-y,1/2+z
1/2+x,1/2+y,z
1/2-x,1/2-y,1/2+z
1/2+x,1/2-y,-z
1/2-x,1/2+y,1/2-z
1/2-x,1/2-y,-z
1/2+x,1/2+y,1/2-z
1/2-x,1/2+y,z
1/2+x,1/2-y,1/2+z
loop_
_atom_site_type_symbol
_atom_site_label
_atom_site_fract_x
_atom_site_fract_y
_atom_site_fract_z
Si Si1 0.137322 0.757249 0.422216
Si Si2 0.446236 0.402638 0.425521
Si Si3 0.552879 0.296484 0.923045
Si Si4 0.197789 0.857247 0.073808
Si Si5 0.226904 0.298422 0.926914
Si Si6 0.641835 0.447859 0.571149
O O1 0.120092 0.757634 0.250000
O O2 0.090910 0.754172 0.527918
O O3 0.166035 0.808281 0.458995
O O4 0.170301 0.707966 0.452554
O O5 0.432665 0.407118 0.250000
O O6 0.500000 0.419693 0.456792
O O7 0.438586 0.344961 0.472990
O O8 0.412241 0.438662 0.520773
O O9 0.561064 0.312439 0.750000
O O10 0.500000 0.274784 0.946473
O O11 0.201211 0.869882 0.250000
O O12 0.250854 0.847540 0.008519
O O13 0.175880 0.904066 0.986583
O O14 0.238977 0.299896 0.750000
O O15 0.250000 0.250000 0.000000
O O16 0.659965 0.500000 0.500000
O O17 0.644259 0.451130 0.750000
#
# Coordination Sequence:
#
# PCOD8256602 Si02
#       6
#    16  16  16  16  16  16
#     4   9  17  28  44  63  85 110 137 169 206 251
#     4  10  20  34  49  62  79 104 136 176 220 262
#     4  10  19  28  41  62  85 111 143 175 210 252
#     4  10  19  32  47  64  85 106 134 171 212 258
#     4   9  17  28  43  64  86 108 135 167 207 251
#     4  12  24  36  50  64  81 106 137 176 219 263
#
# _framework density 14.479023
#
# number of rings (size 3 to 8) (size 9 to 14) (size 15 to 20)
#    0.000    2.000    1.667    4.500    0.000    5.667 
#    0.000    0.000    0.000    0.000    0.000    0.000 
#    0.000    0.000    0.000    0.000    0.000    0.833 
#
# Total GULP energy -595063.813887 kJ/mol
# GULP energy per Si atom -12397.162789 kJ/mol
# Density = 1.444607 g / cm^3
# Si number density = 14.479023 Si / 1000 Ang^3
#
#
#
# Elastic Constant Matrix: (Units=GPa)
#
#
# Indices 1 2 3 4 5 6 
#
# 1 77.0348 42.7803 48.2922 0.0000 0.0000 0.0000
# 2 42.7803 49.9586 37.7610 0.0000 0.0000 0.0000
# 3 48.2922 37.7610 104.8398 0.0000 0.0000 0.0000
# 4 0.0000 0.0000 0.0000 20.5571 0.0000 0.0000
# 5 0.0000 0.0000 0.0000 0.0000 26.6105 0.0000
# 6 0.0000 0.0000 0.0000 0.0000 0.0000 15.1866
#
#
#
# Elastic Compliance Matrix: (Units=1/GPa)
#
#
# Indices 1 2 3 4 5 6 
#
# 1 0.026980 -0.018839 -0.005643 0.000000 0.000000 0.000000
# 2 -0.018839 0.040658 -0.005967 0.000000 0.000000 0.000000
# 3 -0.005643 -0.005967 0.014287 0.000000 0.000000 0.000000
# 4 0.000000 0.000000 0.000000 0.048645 0.000000 0.000000
# 5 0.000000 0.000000 0.000000 0.000000 0.037579 0.000000
# 6 0.000000 0.000000 0.000000 0.000000 0.000000 0.065847
#
#
# Mechanical properties :
#
#
# Convention : Reuss Voigt Hill
#
# Bulk Modulus (GPa) = 47.55262 54.38891 50.97077
# Shear Modulus (GPa) = 16.56166 19.33749 17.94957
#
# Velocity S-wave (km/s) = 3.38574 3.65849 3.52475
# Velocity P-wave (km/s) = 6.94248 7.44926 7.20033
#
# Compressibility (1/GPa) = 0.02102934
#
# Stress axis : x y z
#
# Youngs Moduli (GPa) = 37.06416 24.59523 69.99598
#
# Poissons Ratio (x) = 0.46334 0.39496
# Poissons Ratio (y) = 0.69824 0.41764
# Poissons Ratio (z) = 0.20914 0.14675
#
# Static dielectric constant tensor:
#      x y z
#    x 3.107000 0.000000 0.000000 
#    y 0.000000 2.594820 0.000000 
#    z 0.000000 0.000000 3.011360 
# 
# 
# High freq. dielectric constant tensor:
#      x y z
#    x 1.547430 0.000000 0.000000 
#    y 0.000000 1.499080 0.000000 
#    z 0.000000 0.000000 1.574480 
# 
# From -- ./inp_files/12723.got.cif
#   From: 2010.03.12/outbox.cif.g09.slc.cpg/sg63_7_cif.got.tgz:12723.got - 2010.04.10 19:34:48.
