data_PCOD8256563
_publ_section_title
;
Structure prediction by ZEFSAII (Michael W. Deem and Ramdas Pophale) SiO2 
 PCOD8256563
Probable space group: C M C M
;
_chemical_formula_sum "Si O2"
_cell_formula_units_Z 80
_cell_length_a 9.457795
_cell_length_b 27.974827
_cell_length_c 15.782447
_cell_angle_alpha 90.000000
_cell_angle_beta 90.000000
_cell_angle_gamma 90.000000
_cell_volume 4175.722651
_symmetry_space_group_name_H-M "C M C M"
_symmetry_group_IT_number 63
_symmetry_cell_setting 'orthorhombic'
loop_
_space_group_symop_operation_xyz
x,y,z
-x,-y,1/2+z
x,-y,-z
-x,y,1/2-z
-x,-y,-z
x,y,1/2-z
-x,y,z
x,-y,1/2+z
1/2+x,1/2+y,z
1/2-x,1/2-y,1/2+z
1/2+x,1/2-y,-z
1/2-x,1/2+y,1/2-z
1/2-x,1/2-y,-z
1/2+x,1/2+y,1/2-z
1/2-x,1/2+y,z
1/2+x,1/2-y,1/2+z
loop_
_atom_site_type_symbol
_atom_site_label
_atom_site_fract_x
_atom_site_fract_y
_atom_site_fract_z
Si Si1 0.331716 0.342022 0.250000
Si Si2 0.157939 0.290008 0.114090
Si Si3 0.833139 0.460315 0.063601
Si Si4 0.338265 0.683827 0.346212
Si Si5 0.832851 0.559581 0.750000
Si Si6 0.341181 0.134834 0.025522
O O1 0.500000 0.348088 0.250000
O O2 0.282408 0.312592 0.168817
O O3 0.256752 0.392696 0.250000
O O4 0.185830 0.233682 0.104663
O O5 0.000000 0.297943 0.154302
O O6 0.163534 0.314962 0.023268
O O7 0.791789 0.468916 0.163081
O O8 0.000000 0.462694 0.056433
O O9 0.765940 0.500000 0.000000
O O10 0.780039 0.408070 0.032954
O O11 0.285428 0.689924 0.250000
O O12 0.500000 0.667840 0.349382
O O13 0.251266 0.641254 0.390239
O O14 0.000000 0.572307 0.750000
O O15 0.500000 0.122106 0.054132
#
# Coordination Sequence:
#
# PCOD8256563 Si02
#       6
#     8  16  16  16   8  16
#     4  12  22  30  52  87 114 139 185 240 273 315
#     4  10  19  36  57  77 107 150 189 220 272 330
#     4   9  18  34  58  88 111 138 185 232 280 334
#     4  10  21  36  54  75 109 154 192 219 261 337
#     4  10  18  36  62  79 110 151 179 226 287 343
#     4  10  20  34  56  82 110 139 179 236 280 323
#
# _framework density 19.158359999999998
#
# number of rings (size 3 to 8) (size 9 to 14) (size 15 to 20)
#    0.000    2.000    3.000    1.500    0.000    2.000 
#    1.800    0.000    0.000    2.400    0.000    0.000 
#    0.000    0.000    0.000    0.000    0.000    0.000 
#
# Total GULP energy -495766.211983 kJ/mol
# GULP energy per Si atom -12394.155300 kJ/mol
# Density = 1.911476 g / cm^3
# Si number density = 19.158360 Si / 1000 Ang^3
#
#
#
# Elastic Constant Matrix: (Units=GPa)
#
#
# Indices 1 2 3 4 5 6 
#
# 1 64.8399 22.4732 37.8512 0.0000 0.0000 0.0000
# 2 22.4732 74.1614 66.0302 0.0000 0.0000 0.0000
# 3 37.8512 66.0302 117.2429 0.0000 0.0000 0.0000
# 4 0.0000 0.0000 0.0000 -15.4637 0.0000 0.0000
# 5 0.0000 0.0000 0.0000 0.0000 28.2656 0.0000
# 6 0.0000 0.0000 0.0000 0.0000 0.0000 17.5660
#
#
#
# Elastic Compliance Matrix: (Units=1/GPa)
#
#
# Indices 1 2 3 4 5 6 
#
# 1 0.019017 -0.000594 -0.005805 0.000000 0.000000 0.000000
# 2 -0.000594 0.027065 -0.015051 0.000000 0.000000 0.000000
# 3 -0.005805 -0.015051 0.018880 0.000000 0.000000 0.000000
# 4 0.000000 0.000000 0.000000 -0.064668 0.000000 0.000000
# 5 0.000000 0.000000 0.000000 0.000000 0.035379 0.000000
# 6 0.000000 0.000000 0.000000 0.000000 0.000000 0.056928
#
#
# Mechanical properties :
#
#
# Convention : Reuss Voigt Hill
#
# Bulk Modulus (GPa) = 45.32710 56.55035 50.93872
# Shear Modulus (GPa) = 35.00054 14.73291 24.86673
#
# Velocity S-wave (km/s) = 4.27887 2.77611 3.60663
# Velocity P-wave (km/s) = 6.93702 6.31325 6.63247
#
# Compressibility (1/GPa) = 0.02206186
#
# Stress axis : x y z
#
# Youngs Moduli (GPa) = 52.58369 36.94840 52.96662
#
# Poissons Ratio (x) = 0.02196 0.30746
# Poissons Ratio (y) = 0.03126 0.79719
# Poissons Ratio (z) = 0.30524 0.55610
#
# Static dielectric constant tensor:
#      x y z
#    x 3.246580 0.000000 0.000000 
#    y 0.000000 3.450890 0.000000 
#    z 0.000000 0.000000 3.554830 
# 
# 
# High freq. dielectric constant tensor:
#      x y z
#    x 1.711890 0.000000 0.000000 
#    y 0.000000 1.727340 0.000000 
#    z 0.000000 0.000000 1.749490 
# 
# From -- ./inp_files/40569.got.cif
#   From: 2010.03.12/outbox.cif.g09.slc.cpg/sg63_21_cif.got.tgz:40569.got - 2010.04.10 19:34:48.
