data_PCOD8256688
_publ_section_title
;
Structure prediction by ZEFSAII (Michael W. Deem and Ramdas Pophale) SiO2 
 PCOD8256688
Probable space group: C M C M
;
_chemical_formula_sum "Si O2"
_cell_formula_units_Z 64
_cell_length_a 17.932873
_cell_length_b 19.953878
_cell_length_c 9.998226
_cell_angle_alpha 90.000000
_cell_angle_beta 90.000000
_cell_angle_gamma 90.000000
_cell_volume 3577.668809
_symmetry_space_group_name_H-M "C M C M"
_symmetry_group_IT_number 63
_symmetry_cell_setting 'orthorhombic'
loop_
_space_group_symop_operation_xyz
x,y,z
-x,-y,1/2+z
x,-y,-z
-x,y,1/2-z
-x,-y,-z
x,y,1/2-z
-x,y,z
x,-y,1/2+z
1/2+x,1/2+y,z
1/2-x,1/2-y,1/2+z
1/2+x,1/2-y,-z
1/2-x,1/2+y,1/2-z
1/2-x,1/2-y,-z
1/2+x,1/2+y,1/2-z
1/2-x,1/2+y,z
1/2+x,1/2-y,1/2+z
loop_
_atom_site_type_symbol
_atom_site_label
_atom_site_fract_x
_atom_site_fract_y
_atom_site_fract_z
Si Si1 0.686519 0.776710 0.250000
Si Si2 0.248382 0.417830 0.250000
Si Si3 0.581311 0.896456 0.899215
Si Si4 0.697430 0.000000 0.000000
Si Si5 0.916204 0.254778 0.013939
Si Si6 0.349948 0.699256 0.750000
O O1 0.683596 0.859268 0.250000
O O2 0.646120 0.740945 0.374816
O O3 0.773871 0.755462 0.250000
O O4 0.245435 0.462680 0.114768
O O5 0.328077 0.379740 0.250000
O O6 0.589167 0.867425 0.750000
O O7 0.500000 0.931167 0.918084
O O8 0.587874 0.834220 0.996798
O O9 0.646088 0.948569 0.922064
O O10 0.000000 0.234595 0.060426
O O11 0.898187 0.213768 0.880718
#
# Coordination Sequence:
#
# PCOD8256688 Si02
#       6
#     8   8  16   8  16   8
#     4  10  21  35  50  85 114 147 181 229 279 326
#     4  10  24  33  58  72 111 148 192 231 276 316
#     4  10  19  29  47  74 105 146 182 216 266 322
#     4  12  19  38  46  76 107 152 186 232 260 326
#     4  11  20  35  57  83 116 148 185 230 280 338
#     4  10  21  38  54  83 109 157 191 232 283 334
#
# _framework density 17.888743999999999
#
# number of rings (size 3 to 8) (size 9 to 14) (size 15 to 20)
#    0.750    0.750    5.000    1.875    0.000    0.000 
#    0.000    1.250    0.000    0.000    0.000    3.500 
#    0.000    0.000    0.000    0.000    0.000    0.000 
#
# Total GULP energy -396527.087615 kJ/mol
# GULP energy per Si atom -12391.471488 kJ/mol
# Density = 1.784803 g / cm^3
# Si number density = 17.888744 Si / 1000 Ang^3
#
#
#
# Elastic Constant Matrix: (Units=GPa)
#
#
# Indices 1 2 3 4 5 6 
#
# 1 60.9267 11.3693 6.9011 0.0000 0.0000 0.0000
# 2 11.3693 48.4240 13.2093 0.0000 0.0000 0.0000
# 3 6.9011 13.2093 86.0966 0.0000 0.0000 0.0000
# 4 0.0000 0.0000 0.0000 16.6356 0.0000 0.0000
# 5 0.0000 0.0000 0.0000 0.0000 37.7923 0.0000
# 6 0.0000 0.0000 0.0000 0.0000 0.0000 4.7209
#
#
#
# Elastic Compliance Matrix: (Units=1/GPa)
#
#
# Indices 1 2 3 4 5 6 
#
# 1 0.017217 -0.003826 -0.000793 0.000000 0.000000 0.000000
# 2 -0.003826 0.022403 -0.003131 0.000000 0.000000 0.000000
# 3 -0.000793 -0.003131 0.012159 0.000000 0.000000 0.000000
# 4 0.000000 0.000000 0.000000 0.060112 0.000000 0.000000
# 5 0.000000 0.000000 0.000000 0.000000 0.026460 0.000000
# 6 0.000000 0.000000 0.000000 0.000000 0.000000 0.211822
#
#
# Mechanical properties :
#
#
# Convention : Reuss Voigt Hill
#
# Bulk Modulus (GPa) = 27.56356 28.71186 28.13771
# Shear Modulus (GPa) = 13.23572 22.76095 17.99834
#
# Velocity S-wave (km/s) = 2.72304 3.57089 3.17539
# Velocity P-wave (km/s) = 5.03273 5.75211 5.40440
#
# Compressibility (1/GPa) = 0.03627978
#
# Stress axis : x y z
#
# Youngs Moduli (GPa) = 58.08229 44.63652 82.24548
#
# Poissons Ratio (x) = 0.17078 0.06522
# Poissons Ratio (y) = 0.22222 0.25747
# Poissons Ratio (z) = 0.04606 0.13974
#
# Static dielectric constant tensor:
#      x y z
#    x 3.194830 0.000000 0.000000 
#    y 0.000000 3.002040 0.000000 
#    z 0.000000 0.000000 3.317340 
# 
# 
# High freq. dielectric constant tensor:
#      x y z
#    x 1.677160 0.000000 0.000000 
#    y 0.000000 1.655830 0.000000 
#    z 0.000000 0.000000 1.704510 
# 
# From -- ./inp_files/7978.got.cif
#   From: 2010.03.12/outbox.cif.g09.slc.cpg/sg63_4_cif.got.tgz:7978.got - 2010.04.10 19:34:48.
