data_PCOD8256500
_publ_section_title
;
Structure prediction by ZEFSAII (Michael W. Deem and Ramdas Pophale) SiO2 
 PCOD8256500
Probable space group: C M C M
;
_chemical_formula_sum "Si O2"
_cell_formula_units_Z 80
_cell_length_a 25.551098
_cell_length_b 14.409102
_cell_length_c 10.313956
_cell_angle_alpha 90.000000
_cell_angle_beta 90.000000
_cell_angle_gamma 90.000000
_cell_volume 3797.272444
_symmetry_space_group_name_H-M "C M C M"
_symmetry_group_IT_number 63
_symmetry_cell_setting 'orthorhombic'
loop_
_space_group_symop_operation_xyz
x,y,z
-x,-y,1/2+z
x,-y,-z
-x,y,1/2-z
-x,-y,-z
x,y,1/2-z
-x,y,z
x,-y,1/2+z
1/2+x,1/2+y,z
1/2-x,1/2-y,1/2+z
1/2+x,1/2-y,-z
1/2-x,1/2+y,1/2-z
1/2-x,1/2-y,-z
1/2+x,1/2+y,1/2-z
1/2-x,1/2+y,z
1/2+x,1/2-y,1/2+z
loop_
_atom_site_type_symbol
_atom_site_label
_atom_site_fract_x
_atom_site_fract_y
_atom_site_fract_z
Si Si1 0.177497 0.914199 0.250000
Si Si2 0.343518 0.890016 0.992963
Si Si3 0.611548 0.390815 0.014809
Si Si4 0.441285 0.780709 0.598999
Si Si5 0.718122 0.142967 0.750000
Si Si6 0.655690 0.384510 0.750000
Si Si7 0.225391 0.668689 0.250000
O O1 0.158710 0.866960 0.115518
O O2 0.240124 0.941849 0.250000
O O3 0.143491 0.007219 0.250000
O O4 0.400395 0.843915 0.979494
O O5 0.305738 0.863954 0.875775
O O6 0.318169 0.852071 0.125344
O O7 0.350897 0.000000 0.000000
O O8 0.562631 0.328779 0.061566
O O9 0.597089 0.500000 0.000000
O O10 0.629915 0.343795 0.879705
O O11 0.429214 0.793548 0.750000
O O12 0.500000 0.813752 0.565140
O O13 0.765354 0.220463 0.750000
O O14 0.717211 0.372141 0.750000
#
# Coordination Sequence:
#
# PCOD8256500 Si02
#       7
#     8  16  16  16   8   8   8
#     4  10  18  34  56  89 130 173 204 235 301 392
#     4  12  25  43  67  98 134 173 222 273 322 380
#     4  10  20  37  63  96 133 170 212 262 318 390
#     4  11  24  45  70  91 121 171 225 277 335 394
#     4  12  24  38  66  97 136 174 213 266 315 377
#     4  10  20  32  56  91 134 165 198 249 309 372
#     4  12  22  40  62  95 134 176 215 252 317 393
#
# _framework density 21.067751999999999
#
# number of rings (size 3 to 8) (size 9 to 14) (size 15 to 20)
#    0.000    1.000    2.000    6.000    0.000    2.400 
#    0.000    2.000    0.000    0.000    0.000    0.000 
#    0.000    0.000    0.000    0.000    0.000    0.000 
#
# Total GULP energy -495714.086983 kJ/mol
# GULP energy per Si atom -12392.852175 kJ/mol
# Density = 2.101980 g / cm^3
# Si number density = 21.067752 Si / 1000 Ang^3
#
#
#
# Elastic Constant Matrix: (Units=GPa)
#
#
# Indices 1 2 3 4 5 6 
#
# 1 112.0604 32.0020 51.3442 0.0000 0.0000 0.0000
# 2 32.0020 84.6719 9.2890 0.0000 0.0000 0.0000
# 3 51.3442 9.2890 152.4541 0.0000 0.0000 0.0000
# 4 0.0000 0.0000 0.0000 -5.3835 0.0000 0.0000
# 5 0.0000 0.0000 0.0000 0.0000 39.8094 0.0000
# 6 0.0000 0.0000 0.0000 0.0000 0.0000 -7.5582
#
#
#
# Elastic Compliance Matrix: (Units=1/GPa)
#
#
# Indices 1 2 3 4 5 6 
#
# 1 0.011785 -0.004046 -0.003722 0.000000 0.000000 0.000000
# 2 -0.004046 0.013279 0.000553 0.000000 0.000000 0.000000
# 3 -0.003722 0.000553 0.007779 0.000000 0.000000 0.000000
# 4 0.000000 0.000000 0.000000 -0.185752 0.000000 0.000000
# 5 0.000000 0.000000 0.000000 0.000000 0.025120 0.000000
# 6 0.000000 0.000000 0.000000 0.000000 0.000000 -0.132307
#
#
# Mechanical properties :
#
#
# Convention : Reuss Voigt Hill
#
# Bulk Modulus (GPa) = 54.30840 59.38408 56.84624
# Shear Modulus (GPa) = -20.87420 22.47695 0.80138
#
# Velocity S-wave (km/s) = -3.15113 3.26987 0.61742
# Velocity P-wave (km/s) = 3.54886 6.51954 5.24876
#
# Compressibility (1/GPa) = 0.01841336
#
# Stress axis : x y z
#
# Youngs Moduli (GPa) = 84.85615 75.30891 128.54673
#
# Poissons Ratio (x) = 0.30467 0.47850
# Poissons Ratio (y) = 0.34330 -0.07114
# Poissons Ratio (z) = 0.31587 -0.04168
#
# Static dielectric constant tensor:
#      x y z
#    x 3.601770 0.000000 0.000000 
#    y 0.000000 4.342980 0.000000 
#    z 0.000000 0.000000 2.236450 
# 
# 
# High freq. dielectric constant tensor:
#      x y z
#    x 1.808950 0.000000 0.000000 
#    y 0.000000 1.831440 0.000000 
#    z 0.000000 0.000000 1.841870 
# 
# From -- ./inp_files/23737.got.cif
#   From: 2010.03.12/outbox.cif.g09.slc.cpg/sg63_12_cif.got.tgz:23737.got - 2010.04.10 19:34:48.
