data_PCOD8256492
_publ_section_title
;
Structure prediction by ZEFSAII (Michael W. Deem and Ramdas Pophale) SiO2 
 PCOD8256492
Probable space group: C M C M
;
_chemical_formula_sum "Si O2"
_cell_formula_units_Z 104
_cell_length_a 12.402131
_cell_length_b 25.526726
_cell_length_c 18.181453
_cell_angle_alpha 90.000000
_cell_angle_beta 90.000000
_cell_angle_gamma 90.000000
_cell_volume 5755.989840
_symmetry_space_group_name_H-M "C M C M"
_symmetry_group_IT_number 63
_symmetry_cell_setting 'orthorhombic'
loop_
_space_group_symop_operation_xyz
x,y,z
-x,-y,1/2+z
x,-y,-z
-x,y,1/2-z
-x,-y,-z
x,y,1/2-z
-x,y,z
x,-y,1/2+z
1/2+x,1/2+y,z
1/2-x,1/2-y,1/2+z
1/2+x,1/2-y,-z
1/2-x,1/2+y,1/2-z
1/2-x,1/2-y,-z
1/2+x,1/2+y,1/2-z
1/2-x,1/2+y,z
1/2+x,1/2-y,1/2+z
loop_
_atom_site_type_symbol
_atom_site_label
_atom_site_fract_x
_atom_site_fract_y
_atom_site_fract_z
Si Si1 0.000000 0.223272 0.832942
Si Si2 0.623052 0.089310 0.831228
Si Si3 0.500000 0.450335 0.448791
Si Si4 0.374731 0.202289 0.899384
Si Si5 0.767721 0.161505 0.475259
Si Si6 0.268987 0.450104 0.449508
Si Si7 0.279638 0.785182 0.666571
Si Si8 0.500000 0.335221 0.480219
O O1 0.105141 0.258299 0.845451
O O2 0.000000 0.176221 0.892226
O O3 0.000000 0.199359 0.750000
O O4 0.672319 0.082900 0.750000
O O5 0.500000 0.072256 0.832334
O O6 0.638393 0.148776 0.855033
O O7 0.681474 0.049494 0.885867
O O8 0.500000 0.500000 0.500000
O O9 0.385357 0.451884 0.406536
O O10 0.500000 0.397133 0.495957
O O11 0.500000 0.216380 0.913351
O O12 0.318022 0.245473 0.849060
O O13 0.313482 0.197209 0.977071
O O14 0.760938 0.101238 0.499297
O O15 0.731517 0.166282 0.390184
O O16 0.889078 0.186337 0.483738
O O17 0.248367 0.500000 0.500000
O O18 0.268930 0.806308 0.750000
#
# Coordination Sequence:
#
# PCOD8256492 Si02
#       8
#     8  16   8  16  16  16  16   8
#     4  10  22  36  52  75 108 142 171 214 262 303
#     4   9  18  33  51  76 108 135 162 208 265 307
#     4   8  16  32  52  75 105 128 161 213 270 304
#     4  10  20  33  54  77 103 137 173 211 253 305
#     4  10  21  34  54  78 101 136 175 217 254 308
#     4   9  18  35  56  78  99 132 173 215 259 308
#     4  11  23  36  50  73 107 142 172 209 256 305
#     4  10  18  34  55  78 101 136 179 217 255 299
#
# _framework density 18.068134000000001
#
# number of rings (size 3 to 8) (size 9 to 14) (size 15 to 20)
#    0.000    2.308    1.538    0.923    2.154    1.231 
#    0.000    1.154    0.000    0.000    0.000    7.538 
#    0.000    0.000    0.000    0.000    0.000    0.000 
#
# Total GULP energy -644415.137605 kJ/mol
# GULP energy per Si atom -12392.598800 kJ/mol
# Density = 1.802701 g / cm^3
# Si number density = 18.068134 Si / 1000 Ang^3
#
#
#
# Elastic Constant Matrix: (Units=GPa)
#
#
# Indices 1 2 3 4 5 6 
#
# 1 123.0718 36.7488 57.8514 0.0000 0.0000 0.0000
# 2 36.7488 48.8523 39.9641 0.0000 0.0000 0.0000
# 3 57.8514 39.9641 139.3258 0.0000 0.0000 0.0000
# 4 0.0000 0.0000 0.0000 16.4617 0.0000 0.0000
# 5 0.0000 0.0000 0.0000 0.0000 22.7309 0.0000
# 6 0.0000 0.0000 0.0000 0.0000 0.0000 18.1274
#
#
#
# Elastic Compliance Matrix: (Units=1/GPa)
#
#
# Indices 1 2 3 4 5 6 
#
# 1 0.011340 -0.006113 -0.002955 0.000000 0.000000 0.000000
# 2 -0.006113 0.030041 -0.006079 0.000000 0.000000 0.000000
# 3 -0.002955 -0.006079 0.010148 0.000000 0.000000 0.000000
# 4 0.000000 0.000000 0.000000 0.060747 0.000000 0.000000
# 5 0.000000 0.000000 0.000000 0.000000 0.043993 0.000000
# 6 0.000000 0.000000 0.000000 0.000000 0.000000 0.055165
#
#
# Mechanical properties :
#
#
# Convention : Reuss Voigt Hill
#
# Bulk Modulus (GPa) = 47.09106 64.48649 55.78877
# Shear Modulus (GPa) = 20.09602 23.24304 21.66953
#
# Velocity S-wave (km/s) = 3.33864 3.59055 3.46688
# Velocity P-wave (km/s) = 6.40169 7.27720 6.85344
#
# Compressibility (1/GPa) = 0.02123545
#
# Stress axis : x y z
#
# Youngs Moduli (GPa) = 88.18603 33.28793 98.54073
#
# Poissons Ratio (x) = 0.20348 0.29120
# Poissons Ratio (y) = 0.53906 0.59901
# Poissons Ratio (z) = 0.26060 0.20235
#
# Static dielectric constant tensor:
#      x y z
#    x 3.849970 0.000000 0.000000 
#    y 0.000000 3.110410 0.000000 
#    z 0.000000 0.000000 3.357800 
# 
# 
# High freq. dielectric constant tensor:
#      x y z
#    x 1.724650 0.000000 0.000000 
#    y 0.000000 1.677790 0.000000 
#    z 0.000000 0.000000 1.683020 
# 
# From -- ./inp_files/42820.got.cif
#   From: 2010.03.12/outbox.cif.g09.slc.cpg/sg63_22_cif.got.tgz:42820.got - 2010.04.10 19:34:48.
