data_PCOD8256411
_publ_section_title
;
Structure prediction by ZEFSAII (Michael W. Deem and Ramdas Pophale) SiO2 
 PCOD8256411
Probable space group: C M C M
;
_chemical_formula_sum "Si O2"
_cell_formula_units_Z 96
_cell_length_a 11.225506
_cell_length_b 25.420307
_cell_length_c 18.391177
_cell_angle_alpha 90.000000
_cell_angle_beta 90.000000
_cell_angle_gamma 90.000000
_cell_volume 5248.029187
_symmetry_space_group_name_H-M "C M C M"
_symmetry_group_IT_number 63
_symmetry_cell_setting 'orthorhombic'
loop_
_space_group_symop_operation_xyz
x,y,z
-x,-y,1/2+z
x,-y,-z
-x,y,1/2-z
-x,-y,-z
x,y,1/2-z
-x,y,z
x,-y,1/2+z
1/2+x,1/2+y,z
1/2-x,1/2-y,1/2+z
1/2+x,1/2-y,-z
1/2-x,1/2+y,1/2-z
1/2-x,1/2-y,-z
1/2+x,1/2+y,1/2-z
1/2-x,1/2+y,z
1/2+x,1/2-y,1/2+z
loop_
_atom_site_type_symbol
_atom_site_label
_atom_site_fract_x
_atom_site_fract_y
_atom_site_fract_z
Si Si1 0.139480 0.700696 0.428881
Si Si2 0.500000 0.209466 0.664087
Si Si3 0.000000 0.826164 0.664195
Si Si4 0.359262 0.602453 0.668917
Si Si5 0.259858 0.618954 0.335841
Si Si6 0.132929 0.986785 0.664052
Si Si7 0.236012 0.692310 0.588009
O O1 0.154169 0.650050 0.376413
O O2 0.206244 0.688312 0.503557
O O3 0.199085 0.752496 0.392695
O O4 0.000000 0.711086 0.442076
O O5 0.500000 0.207813 0.750000
O O6 0.500000 0.268081 0.630532
O O7 0.618231 0.181799 0.635176
O O8 0.882868 0.855324 0.637195
O O9 0.000000 0.822759 0.750000
O O10 0.309586 0.616175 0.750000
O O11 0.500000 0.599984 0.673018
O O12 0.314976 0.544285 0.643540
O O13 0.322746 0.644901 0.609204
O O14 0.237572 0.624673 0.250000
O O15 0.271756 0.557885 0.360899
O O16 0.118520 0.981939 0.750000
O O17 0.000000 0.977453 0.630327
#
# Coordination Sequence:
#
# PCOD8256411 Si02
#       7
#    16   8   8  16  16  16  16
#     4  11  24  38  53  76 109 149 182 216 273 322
#     4  11  20  34  58  84 103 135 185 230 265 313
#     4   9  16  28  50  84 108 126 170 223 269 305
#     4   9  18  34  57  85 112 138 172 222 277 324
#     4  10  18  32  56  82 108 139 176 222 267 319
#     4   8  14  28  54  84 110 135 171 222 275 318
#     4  11  22  38  55  76 110 144 180 222 267 329
#
# _framework density 18.292580999999998
#
# number of rings (size 3 to 8) (size 9 to 14) (size 15 to 20)
#    0.000    2.167    3.333    2.000    0.000    1.000 
#    1.500    0.833    1.833    3.000    0.000    0.000 
#    0.000    0.000    0.000    0.000    0.000    0.000 
#
# Total GULP energy -594995.735618 kJ/mol
# GULP energy per Si atom -12395.744492 kJ/mol
# Density = 1.825095 g / cm^3
# Si number density = 18.292581 Si / 1000 Ang^3
#
#
#
# Elastic Constant Matrix: (Units=GPa)
#
#
# Indices 1 2 3 4 5 6 
#
# 1 50.0562 29.8515 18.7392 0.0000 0.0000 0.0000
# 2 29.8515 130.9424 43.1434 0.0000 0.0000 0.0000
# 3 18.7392 43.1434 55.7591 0.0000 0.0000 0.0000
# 4 0.0000 0.0000 0.0000 18.3988 0.0000 0.0000
# 5 0.0000 0.0000 0.0000 0.0000 24.1222 0.0000
# 6 0.0000 0.0000 0.0000 0.0000 0.0000 15.9859
#
#
#
# Elastic Compliance Matrix: (Units=1/GPa)
#
#
# Indices 1 2 3 4 5 6 
#
# 1 0.024188 -0.003806 -0.005184 0.000000 0.000000 0.000000
# 2 -0.003806 0.010849 -0.007115 0.000000 0.000000 0.000000
# 3 -0.005184 -0.007115 0.025182 0.000000 0.000000 0.000000
# 4 0.000000 0.000000 0.000000 0.054351 0.000000 0.000000
# 5 0.000000 0.000000 0.000000 0.000000 0.041456 0.000000
# 6 0.000000 0.000000 0.000000 0.000000 0.000000 0.062555
#
#
# Mechanical properties :
#
#
# Convention : Reuss Voigt Hill
#
# Bulk Modulus (GPa) = 35.70381 46.69177 41.19779
# Shear Modulus (GPa) = 19.22132 21.36963 20.29547
#
# Velocity S-wave (km/s) = 3.24508 3.42162 3.33452
# Velocity P-wave (km/s) = 5.79666 6.41797 6.11521
#
# Compressibility (1/GPa) = 0.02800821
#
# Stress axis : x y z
#
# Youngs Moduli (GPa) = 41.34264 92.17414 39.71111
#
# Poissons Ratio (x) = 0.35084 0.20586
# Poissons Ratio (y) = 0.15736 0.28255
# Poissons Ratio (z) = 0.21432 0.65584
#
# Static dielectric constant tensor:
#      x y z
#    x 3.209250 0.000000 0.000000 
#    y 0.000000 3.698840 0.000000 
#    z 0.000000 0.000000 3.054850 
# 
# 
# High freq. dielectric constant tensor:
#      x y z
#    x 1.689170 0.000000 0.000000 
#    y 0.000000 1.714820 0.000000 
#    z 0.000000 0.000000 1.682340 
# 
# From -- ./inp_files/42551.got.cif
#   From: 2010.03.12/outbox.cif.g09.slc.cpg/sg63_22_cif.got.tgz:42551.got - 2010.04.10 19:34:48.
