data_PCOD8256668
_publ_section_title
;
Structure prediction by ZEFSAII (Michael W. Deem and Ramdas Pophale) SiO2 
 PCOD8256668
Probable space group: C M C M
;
_chemical_formula_sum "Si O2"
_cell_formula_units_Z 128
_cell_length_a 21.382706
_cell_length_b 19.441828
_cell_length_c 18.686356
_cell_angle_alpha 90.000000
_cell_angle_beta 90.000000
_cell_angle_gamma 90.000000
_cell_volume 7768.271216
_symmetry_space_group_name_H-M "C M C M"
_symmetry_group_IT_number 63
_symmetry_cell_setting 'orthorhombic'
loop_
_space_group_symop_operation_xyz
x,y,z
-x,-y,1/2+z
x,-y,-z
-x,y,1/2-z
-x,-y,-z
x,y,1/2-z
-x,y,z
x,-y,1/2+z
1/2+x,1/2+y,z
1/2-x,1/2-y,1/2+z
1/2+x,1/2-y,-z
1/2-x,1/2+y,1/2-z
1/2-x,1/2-y,-z
1/2+x,1/2+y,1/2-z
1/2-x,1/2+y,z
1/2+x,1/2-y,1/2+z
loop_
_atom_site_type_symbol
_atom_site_label
_atom_site_fract_x
_atom_site_fract_y
_atom_site_fract_z
Si Si1 0.185019 0.719180 0.968640
Si Si2 0.278360 0.437453 0.331567
Si Si3 0.284769 0.929239 0.479132
Si Si4 0.730123 0.723730 0.168596
Si Si5 0.855495 0.197072 0.829198
Si Si6 0.430811 0.429894 0.536734
Si Si7 0.931022 0.791503 0.038712
Si Si8 0.807954 0.919850 0.891422
O O1 0.176601 0.640207 0.993919
O O2 0.187913 0.728355 0.882777
O O3 0.250000 0.750000 0.000000
O O4 0.122774 0.757660 0.991427
O O5 0.251432 0.428502 0.250000
O O6 0.227585 0.427297 0.394010
O O7 0.330999 0.379936 0.345171
O O8 0.304275 0.514330 0.339882
O O9 0.223062 0.930550 0.529966
O O10 0.322142 0.000000 0.500000
O O11 0.708106 0.736442 0.250000
O O12 0.801690 0.746373 0.157981
O O13 0.724310 0.643777 0.148378
O O14 0.882305 0.201933 0.750000
O O15 0.913553 0.216818 0.878578
O O16 0.407648 0.500000 0.500000
O O17 0.500000 0.439326 0.571340
O O18 0.433210 0.372218 0.476191
O O19 0.381764 0.406866 0.597500
O O20 0.000000 0.758578 0.024633
#
# Coordination Sequence:
#
# PCOD8256668 Si02
#       8
#    16  16  16  16  16  16  16  16
#     4  12  18  34  55  74 101 134 169 212 257 306
#     4  10  19  29  45  71 103 131 164 213 259 303
#     4  10  19  29  51  75  96 129 168 208 259 311
#     4  11  21  31  51  77 102 132 166 207 260 309
#     4  10  19  32  48  71 101 135 166 202 259 315
#     4  10  19  29  45  68  94 130 181 219 246 292
#     4  11  21  33  51  76  99 132 175 216 256 303
#     4  11  18  31  47  69 100 130 169 208 258 293
#
# _framework density 16.477281999999999
#
# number of rings (size 3 to 8) (size 9 to 14) (size 15 to 20)
#    0.000    1.375    5.000    3.000    0.000    0.250 
#    0.000    0.000    0.000    3.750    0.000    0.000 
#    0.000    0.000    0.000    0.375    0.000    0.000 
#
# Total GULP energy -793050.765610 kJ/mol
# GULP energy per Si atom -12391.418213 kJ/mol
# Density = 1.643978 g / cm^3
# Si number density = 16.477282 Si / 1000 Ang^3
#
#
#
# Elastic Constant Matrix: (Units=GPa)
#
#
# Indices 1 2 3 4 5 6 
#
# 1 76.7900 39.4902 36.0390 0.0000 0.0000 0.0000
# 2 39.4902 113.1708 23.6098 0.0000 0.0000 0.0000
# 3 36.0390 23.6098 100.6517 0.0000 0.0000 0.0000
# 4 0.0000 0.0000 0.0000 24.4230 0.0000 0.0000
# 5 0.0000 0.0000 0.0000 0.0000 16.9291 0.0000
# 6 0.0000 0.0000 0.0000 0.0000 0.0000 16.8638
#
#
#
# Elastic Compliance Matrix: (Units=1/GPa)
#
#
# Indices 1 2 3 4 5 6 
#
# 1 0.018203 -0.005249 -0.005286 0.000000 0.000000 0.000000
# 2 -0.005249 0.010804 -0.000655 0.000000 0.000000 0.000000
# 3 -0.005286 -0.000655 0.011982 0.000000 0.000000 0.000000
# 4 0.000000 0.000000 0.000000 0.040945 0.000000 0.000000
# 5 0.000000 0.000000 0.000000 0.000000 0.059070 0.000000
# 6 0.000000 0.000000 0.000000 0.000000 0.000000 0.059299
#
#
# Mechanical properties :
#
#
# Convention : Reuss Voigt Hill
#
# Bulk Modulus (GPa) = 53.73920 54.32117 54.03019
# Shear Modulus (GPa) = 21.84491 24.40806 23.12649
#
# Velocity S-wave (km/s) = 3.64505 3.85296 3.75045
# Velocity P-wave (km/s) = 7.09930 7.26861 7.18445
#
# Compressibility (1/GPa) = 0.01860839
#
# Stress axis : x y z
#
# Youngs Moduli (GPa) = 54.93642 92.55478 83.46048
#
# Poissons Ratio (x) = 0.48581 0.44121
# Poissons Ratio (y) = 0.28836 0.05466
# Poissons Ratio (z) = 0.29042 0.06062
#
# Static dielectric constant tensor:
#      x y z
#    x 2.826430 0.000000 0.000000 
#    y 0.000000 3.412520 0.000000 
#    z 0.000000 0.000000 3.263120 
# 
# 
# High freq. dielectric constant tensor:
#      x y z
#    x 1.585310 0.000000 0.000000 
#    y 0.000000 1.647700 0.000000 
#    z 0.000000 0.000000 1.638910 
# 
# From -- ./inp_files/47549.got.cif
#   From: 2010.03.12/outbox.cif.g09.slc.cpg/sg63_24_cif.got.tgz:47549.got - 2010.04.10 19:34:48.
