data_PCOD8256776
_publ_section_title
;
Structure prediction by ZEFSAII (Michael W. Deem and Ramdas Pophale) SiO2 
 PCOD8256776
Probable space group: C M C M
;
_chemical_formula_sum "Si O2"
_cell_formula_units_Z 80
_cell_length_a 9.393036
_cell_length_b 19.163799
_cell_length_c 25.447007
_cell_angle_alpha 90.000000
_cell_angle_beta 90.000000
_cell_angle_gamma 90.000000
_cell_volume 4580.620403
_symmetry_space_group_name_H-M "C M C M"
_symmetry_group_IT_number 63
_symmetry_cell_setting 'orthorhombic'
loop_
_space_group_symop_operation_xyz
x,y,z
-x,-y,1/2+z
x,-y,-z
-x,y,1/2-z
-x,-y,-z
x,y,1/2-z
-x,y,z
x,-y,1/2+z
1/2+x,1/2+y,z
1/2-x,1/2-y,1/2+z
1/2+x,1/2-y,-z
1/2-x,1/2+y,1/2-z
1/2-x,1/2-y,-z
1/2+x,1/2+y,1/2-z
1/2-x,1/2+y,z
1/2+x,1/2-y,1/2+z
loop_
_atom_site_type_symbol
_atom_site_label
_atom_site_fract_x
_atom_site_fract_y
_atom_site_fract_z
Si Si1 0.662590 0.776727 0.376881
Si Si2 0.836253 0.021043 0.600186
Si Si3 0.334222 0.118901 0.529966
Si Si4 0.336372 0.366492 0.925524
Si Si5 0.333564 0.376443 0.190832
O O1 0.500000 0.786908 0.359645
O O2 0.693681 0.816880 0.431080
O O3 0.700530 0.695593 0.385208
O O4 0.758313 0.806606 0.330056
O O5 0.740501 0.049508 0.552554
O O6 0.791210 0.056994 0.655103
O O7 0.000000 0.038148 0.586485
O O8 0.810594 0.938554 0.605603
O O9 0.500000 0.102768 0.522178
O O10 0.266224 0.139907 0.474990
O O11 0.500000 0.360102 0.944835
O O12 0.282545 0.392510 0.250000
O O13 0.500000 0.361671 0.188685
#
# Coordination Sequence:
#
# PCOD8256776 Si02
#       5
#    16  16  16  16  16
#     4   9  19  33  48  70  97 124 157 193 231 277
#     4   9  18  32  49  69  94 124 157 193 232 275
#     4  10  19  30  46  69  98 131 162 190 224 272
#     4  10  19  31  47  69  98 128 157 191 231 274
#     4   9  18  34  54  71  88 116 155 195 235 281
#
# _framework density 17.464881999999999
#
# number of rings (size 3 to 8) (size 9 to 14) (size 15 to 20)
#    0.000    2.600    0.000    1.800    0.000    5.200 
#    0.000    1.000    0.000    3.600    0.000    0.000 
#    0.000    0.000    0.000    0.000    0.000    0.000 
#
# Total GULP energy -496081.910726 kJ/mol
# GULP energy per Si atom -12402.047768 kJ/mol
# Density = 1.742513 g / cm^3
# Si number density = 17.464882 Si / 1000 Ang^3
#
#
#
# Elastic Constant Matrix: (Units=GPa)
#
#
# Indices 1 2 3 4 5 6 
#
# 1 64.5339 38.3217 43.4433 0.0000 0.0000 0.0000
# 2 38.3217 115.3123 33.7989 0.0000 0.0000 0.0000
# 3 43.4433 33.7989 92.5765 0.0000 0.0000 0.0000
# 4 0.0000 0.0000 0.0000 13.5102 0.0000 0.0000
# 5 0.0000 0.0000 0.0000 0.0000 25.7653 0.0000
# 6 0.0000 0.0000 0.0000 0.0000 0.0000 23.6446
#
#
#
# Elastic Compliance Matrix: (Units=1/GPa)
#
#
# Indices 1 2 3 4 5 6 
#
# 1 0.025479 -0.005558 -0.009927 0.000000 0.000000 0.000000
# 2 -0.005558 0.010924 -0.001380 0.000000 0.000000 0.000000
# 3 -0.009927 -0.001380 0.015964 0.000000 0.000000 0.000000
# 4 0.000000 0.000000 0.000000 0.074018 0.000000 0.000000
# 5 0.000000 0.000000 0.000000 0.000000 0.038812 0.000000
# 6 0.000000 0.000000 0.000000 0.000000 0.000000 0.042293
#
#
# Mechanical properties :
#
#
# Convention : Reuss Voigt Hill
#
# Bulk Modulus (GPa) = 53.65781 55.95008 54.80395
# Shear Modulus (GPa) = 20.20754 23.04128 21.62441
#
# Velocity S-wave (km/s) = 3.40522 3.63615 3.52257
# Velocity P-wave (km/s) = 6.80078 7.05224 6.92765
#
# Compressibility (1/GPa) = 0.01863662
#
# Stress axis : x y z
#
# Youngs Moduli (GPa) = 39.24800 91.54510 62.63937
#
# Poissons Ratio (x) = 0.50877 0.62185
# Poissons Ratio (y) = 0.21812 0.08645
# Poissons Ratio (z) = 0.38963 0.12634
#
# Static dielectric constant tensor:
#      x y z
#    x 3.289680 0.000000 0.000000 
#    y 0.000000 3.373080 0.000000 
#    z 0.000000 0.000000 3.139390 
# 
# 
# High freq. dielectric constant tensor:
#      x y z
#    x 1.675520 0.000000 0.000000 
#    y 0.000000 1.678400 0.000000 
#    z 0.000000 0.000000 1.653740 
# 
# From -- ./inp_files/66549.got.cif
#   From: 2010.03.12/outbox.cif.g09.slc.cpg/sg63_34_cif.got.tgz:66549.got - 2010.04.10 19:34:48.
