data_PCOD8256324
_publ_section_title
;
Structure prediction by ZEFSAII (Michael W. Deem and Ramdas Pophale) SiO2 
 PCOD8256324
Probable space group: C M C M
;
_chemical_formula_sum "Si O2"
_cell_formula_units_Z 72
_cell_length_a 32.808972
_cell_length_b 14.638742
_cell_length_c 8.622931
_cell_angle_alpha 90.000000
_cell_angle_beta 90.000000
_cell_angle_gamma 90.000000
_cell_volume 4141.439205
_symmetry_space_group_name_H-M "C M C M"
_symmetry_group_IT_number 63
_symmetry_cell_setting 'orthorhombic'
loop_
_space_group_symop_operation_xyz
x,y,z
-x,-y,1/2+z
x,-y,-z
-x,y,1/2-z
-x,-y,-z
x,y,1/2-z
-x,y,z
x,-y,1/2+z
1/2+x,1/2+y,z
1/2-x,1/2-y,1/2+z
1/2+x,1/2-y,-z
1/2-x,1/2+y,1/2-z
1/2-x,1/2-y,-z
1/2+x,1/2+y,1/2-z
1/2-x,1/2+y,z
1/2+x,1/2-y,1/2+z
loop_
_atom_site_type_symbol
_atom_site_label
_atom_site_fract_x
_atom_site_fract_y
_atom_site_fract_z
Si Si1 0.500000 0.101288 0.933640
Si Si2 0.582548 0.899736 0.932114
Si Si3 0.316487 0.407454 0.569600
Si Si4 0.344983 0.212965 0.568293
Si Si5 0.224120 0.595658 0.434678
O O1 0.500000 0.102771 0.750000
O O2 0.541585 0.146948 0.996819
O O3 0.500000 0.000000 0.000000
O O4 0.577232 0.909926 0.750000
O O5 0.619556 0.833180 0.969949
O O6 0.591215 0.000000 0.000000
O O7 0.335856 0.500000 0.500000
O O8 0.313407 0.422928 0.750000
O O9 0.344904 0.321078 0.529223
O O10 0.270555 0.391340 0.507588
O O11 0.351824 0.194790 0.750000
O O12 0.301386 0.175241 0.515793
O O13 0.206922 0.500000 0.500000
O O14 0.218810 0.600014 0.250000
#
# Coordination Sequence:
#
# PCOD8256324 Si02
#       5
#     8  16  16  16  16
#     4  10  18  32  52  74 101 132 159 190 230 282
#     4  11  21  34  51  74 102 133 163 195 233 283
#     4   9  20  35  51  68  92 125 165 207 249 290
#     4  11  21  33  48  71  98 127 162 204 245 286
#     4  10  19  32  48  69  95 128 163 201 245 292
#
# _framework density 17.385261
#
# number of rings (size 3 to 8) (size 9 to 14) (size 15 to 20)
#    0.000    1.778    0.000    7.000    0.000    2.667 
#    0.000    0.000    0.000    0.000    0.000    0.778 
#    0.000    0.000    0.000    0.000    0.000    0.000 
#
# Total GULP energy -446397.275760 kJ/mol
# GULP energy per Si atom -12399.924327 kJ/mol
# Density = 1.734569 g / cm^3
# Si number density = 17.385261 Si / 1000 Ang^3
#
#
#
# Elastic Constant Matrix: (Units=GPa)
#
#
# Indices 1 2 3 4 5 6 
#
# 1 81.8581 40.5587 31.3560 0.0000 0.0000 0.0000
# 2 40.5587 93.8647 37.4739 0.0000 0.0000 0.0000
# 3 31.3560 37.4739 99.5448 0.0000 0.0000 0.0000
# 4 0.0000 0.0000 0.0000 25.8573 0.0000 0.0000
# 5 0.0000 0.0000 0.0000 0.0000 26.9253 0.0000
# 6 0.0000 0.0000 0.0000 0.0000 0.0000 13.4032
#
#
#
# Elastic Compliance Matrix: (Units=1/GPa)
#
#
# Indices 1 2 3 4 5 6 
#
# 1 0.016230 -0.005851 -0.002910 0.000000 0.000000 0.000000
# 2 -0.005851 0.014648 -0.003671 0.000000 0.000000 0.000000
# 3 -0.002910 -0.003671 0.012344 0.000000 0.000000 0.000000
# 4 0.000000 0.000000 0.000000 0.038674 0.000000 0.000000
# 5 0.000000 0.000000 0.000000 0.000000 0.037140 0.000000
# 6 0.000000 0.000000 0.000000 0.000000 0.000000 0.074609
#
#
# Mechanical properties :
#
#
# Convention : Reuss Voigt Hill
#
# Bulk Modulus (GPa) = 54.47241 54.89386 54.68314
# Shear Modulus (GPa) = 22.25906 24.29574 23.27740
#
# Velocity S-wave (km/s) = 3.58207 3.74236 3.66309
# Velocity P-wave (km/s) = 6.96483 7.09346 7.02944
#
# Compressibility (1/GPa) = 0.01835792
#
# Stress axis : x y z
#
# Youngs Moduli (GPa) = 61.61433 68.27083 81.00981
#
# Poissons Ratio (x) = 0.39947 0.23571
# Poissons Ratio (y) = 0.36053 0.29739
# Poissons Ratio (z) = 0.17927 0.25062
#
# Static dielectric constant tensor:
#      x y z
#    x 3.478640 0.000000 0.000000 
#    y 0.000000 3.212500 0.000000 
#    z 0.000000 0.000000 3.301500 
# 
# 
# High freq. dielectric constant tensor:
#      x y z
#    x 1.655990 0.000000 0.000000 
#    y 0.000000 1.650210 0.000000 
#    z 0.000000 0.000000 1.687570 
# 
# From -- ./inp_files/13912.got.cif
#   From: 2010.03.12/outbox.cif.g09.slc.cpg/sg63_7_cif.got.tgz:13912.got - 2010.04.10 19:34:48.
