data_PCOD8256021
_publ_section_title
;
Structure prediction by ZEFSAII (Michael W. Deem and Ramdas Pophale) SiO2 
 PCOD8256021
Probable space group: C M C M
;
_chemical_formula_sum "Si O2"
_cell_formula_units_Z 96
_cell_length_a 9.253171
_cell_length_b 24.783224
_cell_length_c 23.611164
_cell_angle_alpha 90.000000
_cell_angle_beta 90.000000
_cell_angle_gamma 90.000000
_cell_volume 5414.592633
_symmetry_space_group_name_H-M "C M C M"
_symmetry_group_IT_number 63
_symmetry_cell_setting 'orthorhombic'
loop_
_space_group_symop_operation_xyz
x,y,z
-x,-y,1/2+z
x,-y,-z
-x,y,1/2-z
-x,-y,-z
x,y,1/2-z
-x,y,z
x,-y,1/2+z
1/2+x,1/2+y,z
1/2-x,1/2-y,1/2+z
1/2+x,1/2-y,-z
1/2-x,1/2+y,1/2-z
1/2-x,1/2-y,-z
1/2+x,1/2+y,1/2-z
1/2-x,1/2+y,z
1/2+x,1/2-y,1/2+z
loop_
_atom_site_type_symbol
_atom_site_label
_atom_site_fract_x
_atom_site_fract_y
_atom_site_fract_z
Si Si1 0.666337 0.198240 0.438308
Si Si2 0.669303 0.193897 0.931941
Si Si3 0.831908 0.002625 0.315957
Si Si4 0.831131 0.900273 0.387426
Si Si5 0.333490 0.913297 0.613437
Si Si6 0.154350 0.060760 0.009662
O O1 0.500000 0.217671 0.437507
O O2 0.705047 0.177689 0.502264
O O3 0.769675 0.246588 0.420287
O O4 0.692486 0.151144 0.391666
O O5 0.500000 0.193829 0.920557
O O6 0.741821 0.155552 0.883661
O O7 0.802203 0.995512 0.250000
O O8 0.753703 0.057385 0.336385
O O9 0.000000 0.009859 0.330538
O O10 0.773823 0.947944 0.346191
O O11 0.792900 0.915549 0.451007
O O12 0.000000 0.889483 0.375864
O O13 0.500000 0.927110 0.622873
O O14 0.283114 0.936896 0.553942
O O15 0.000000 0.088071 0.029504
O O16 0.114753 0.000000 0.000000
#
# Coordination Sequence:
#
# PCOD8256021 Si02
#       6
#    16  16  16  16  16  16
#     4   9  19  33  47  72 109 144 173 204 251 312
#     4  10  19  31  49  76 108 141 174 209 253 308
#     4  10  22  40  58  76 101 138 183 222 260 312
#     4  10  19  32  52  76 105 140 173 213 260 311
#     4  11  21  33  52  78 110 139 171 217 265 313
#     4  10  18  30  48  74 106 139 175 208 253 318
#
# _framework density 17.729866000000001
#
# number of rings (size 3 to 8) (size 9 to 14) (size 15 to 20)
#    0.000    2.000    3.333    1.000    0.000    3.333 
#    0.000    0.000    0.000    1.000    0.000    2.333 
#    0.000    0.000    0.000    0.000    0.000    0.000 
#
# Total GULP energy -594770.614709 kJ/mol
# GULP energy per Si atom -12391.054473 kJ/mol
# Density = 1.768951 g / cm^3
# Si number density = 17.729866 Si / 1000 Ang^3
#
#
#
# Elastic Constant Matrix: (Units=GPa)
#
#
# Indices 1 2 3 4 5 6 
#
# 1 77.8630 58.0536 41.0098 0.0000 0.0000 0.0000
# 2 58.0536 105.7199 42.8901 0.0000 0.0000 0.0000
# 3 41.0098 42.8901 58.2368 0.0000 0.0000 0.0000
# 4 0.0000 0.0000 0.0000 12.7565 0.0000 0.0000
# 5 0.0000 0.0000 0.0000 0.0000 18.4322 0.0000
# 6 0.0000 0.0000 0.0000 0.0000 0.0000 32.4650
#
#
#
# Elastic Compliance Matrix: (Units=1/GPa)
#
#
# Indices 1 2 3 4 5 6 
#
# 1 0.025960 -0.009753 -0.011098 0.000000 0.000000 0.000000
# 2 -0.009753 0.017153 -0.005765 0.000000 0.000000 0.000000
# 3 -0.011098 -0.005765 0.029232 0.000000 0.000000 0.000000
# 4 0.000000 0.000000 0.000000 0.078392 0.000000 0.000000
# 5 0.000000 0.000000 0.000000 0.000000 0.054253 0.000000
# 6 0.000000 0.000000 0.000000 0.000000 0.000000 0.030802
#
#
# Mechanical properties :
#
#
# Convention : Reuss Voigt Hill
#
# Bulk Modulus (GPa) = 52.31898 58.41409 55.36653
# Shear Modulus (GPa) = 16.92644 19.38848 18.15746
#
# Velocity S-wave (km/s) = 3.09315 3.31047 3.20365
# Velocity P-wave (km/s) = 6.50613 6.90149 6.70673
#
# Compressibility (1/GPa) = 0.01911352
#
# Stress axis : x y z
#
# Youngs Moduli (GPa) = 38.52094 58.29730 34.20874
#
# Poissons Ratio (x) = 0.56857 0.37965
# Poissons Ratio (y) = 0.37569 0.19722
# Poissons Ratio (z) = 0.42750 0.33610
#
# Static dielectric constant tensor:
#      x y z
#    x 3.346680 0.000000 0.000000 
#    y 0.000000 3.417150 0.000000 
#    z 0.000000 0.000000 2.975400 
# 
# 
# High freq. dielectric constant tensor:
#      x y z
#    x 1.690590 0.000000 0.000000 
#    y 0.000000 1.691950 0.000000 
#    z 0.000000 0.000000 1.639530 
# 
# From -- ./inp_files/59868.got.cif
#   From: 2010.03.12/outbox.cif.g09.slc.cpg/sg63_30_cif.got.tgz:59868.got - 2010.04.10 19:34:48.
