data_PCOD8256418
_publ_section_title
;
Structure prediction by ZEFSAII (Michael W. Deem and Ramdas Pophale) SiO2 
 PCOD8256418
Probable space group: C M C M
;
_chemical_formula_sum "Si O2"
_cell_formula_units_Z 80
_cell_length_a 11.782775
_cell_length_b 20.245333
_cell_length_c 18.301889
_cell_angle_alpha 90.000000
_cell_angle_beta 90.000000
_cell_angle_gamma 90.000000
_cell_volume 4365.846139
_symmetry_space_group_name_H-M "C M C M"
_symmetry_group_IT_number 63
_symmetry_cell_setting 'orthorhombic'
loop_
_space_group_symop_operation_xyz
x,y,z
-x,-y,1/2+z
x,-y,-z
-x,y,1/2-z
-x,-y,-z
x,y,1/2-z
-x,y,z
x,-y,1/2+z
1/2+x,1/2+y,z
1/2-x,1/2-y,1/2+z
1/2+x,1/2-y,-z
1/2-x,1/2+y,1/2-z
1/2-x,1/2-y,-z
1/2+x,1/2+y,1/2-z
1/2-x,1/2+y,z
1/2+x,1/2-y,1/2+z
loop_
_atom_site_type_symbol
_atom_site_label
_atom_site_fract_x
_atom_site_fract_y
_atom_site_fract_z
Si Si1 0.500000 0.417164 0.923639
Si Si2 0.500000 0.572618 0.911658
Si Si3 0.800461 0.854114 0.834757
Si Si4 0.625744 0.038932 0.335513
Si Si5 0.264662 0.586634 0.662953
Si Si6 0.372787 0.788013 0.164051
O O1 0.500000 0.494754 0.916206
O O2 0.389993 0.390137 0.884691
O O3 0.500000 0.395141 0.008018
O O4 0.610638 0.596631 0.868876
O O5 0.835596 0.863720 0.750000
O O6 0.679543 0.888791 0.850814
O O7 0.797828 0.776686 0.855401
O O8 0.613841 0.026270 0.250000
O O9 0.500000 0.036692 0.371430
O O10 0.705632 0.980505 0.367095
O O11 0.274642 0.586164 0.750000
O O12 0.189418 0.647488 0.632790
O O13 0.383807 0.795915 0.250000
O O14 0.500000 0.781620 0.130508
#
# Coordination Sequence:
#
# PCOD8256418 Si02
#       6
#     8   8  16  16  16  16
#     4  11  21  35  55  77 105 134 177 228 262 300
#     4  11  23  35  51  77 107 140 177 220 268 302
#     4  10  18  32  57  81 102 134 173 216 263 313
#     4   9  17  29  49  78 106 130 164 211 262 312
#     4  10  19  33  53  77 105 138 173 213 260 314
#     4   9  17  30  52  81 106 130 170 218 259 304
#
# _framework density 18.324052999999999
#
# number of rings (size 3 to 8) (size 9 to 14) (size 15 to 20)
#    0.000    2.200    3.000    1.200    0.000    3.200 
#    1.800    1.000    0.000    3.600    0.000    0.000 
#    0.000    0.000    0.000    0.000    0.000    0.000 
#
# Total GULP energy -495860.274691 kJ/mol
# GULP energy per Si atom -12396.506867 kJ/mol
# Density = 1.828235 g / cm^3
# Si number density = 18.324053 Si / 1000 Ang^3
#
#
#
# Elastic Constant Matrix: (Units=GPa)
#
#
# Indices 1 2 3 4 5 6 
#
# 1 151.5172 70.0338 27.9094 0.0000 0.0000 0.0000
# 2 70.0338 130.4681 19.2369 0.0000 0.0000 0.0000
# 3 27.9094 19.2369 38.7095 0.0000 0.0000 0.0000
# 4 0.0000 0.0000 0.0000 12.1926 0.0000 0.0000
# 5 0.0000 0.0000 0.0000 0.0000 1.5162 0.0000
# 6 0.0000 0.0000 0.0000 0.0000 0.0000 34.9446
#
#
#
# Elastic Compliance Matrix: (Units=1/GPa)
#
#
# Indices 1 2 3 4 5 6 
#
# 1 0.009496 -0.004411 -0.004655 0.000000 0.000000 0.000000
# 2 -0.004411 0.010320 -0.001948 0.000000 0.000000 0.000000
# 3 -0.004655 -0.001948 0.030157 0.000000 0.000000 0.000000
# 4 0.000000 0.000000 0.000000 0.082017 0.000000 0.000000
# 5 0.000000 0.000000 0.000000 0.000000 0.659565 0.000000
# 6 0.000000 0.000000 0.000000 0.000000 0.000000 0.028617
#
#
# Mechanical properties :
#
#
# Convention : Reuss Voigt Hill
#
# Bulk Modulus (GPa) = 35.78342 61.67277 48.72809
# Shear Modulus (GPa) = 5.87189 23.29832 14.58511
#
# Velocity S-wave (km/s) = 1.79205 3.56962 2.82433
# Velocity P-wave (km/s) = 4.88389 7.12176 6.10622
#
# Compressibility (1/GPa) = 0.02794590
#
# Stress axis : x y z
#
# Youngs Moduli (GPa) = 105.30541 96.90116 33.15931
#
# Poissons Ratio (x) = 0.42745 0.15434
# Poissons Ratio (y) = 0.46452 0.06460
# Poissons Ratio (z) = 0.49015 0.18877
#
# Static dielectric constant tensor:
#      x y z
#    x 3.697180 0.000000 0.000000 
#    y 0.000000 3.593830 0.000000 
#    z 0.000000 0.000000 3.014660 
# 
# 
# High freq. dielectric constant tensor:
#      x y z
#    x 1.716520 0.000000 0.000000 
#    y 0.000000 1.717420 0.000000 
#    z 0.000000 0.000000 1.657520 
# 
# From -- ./inp_files/52472.got.cif
#   From: 2010.03.12/outbox.cif.g09.slc.cpg/sg63_27_cif.got.tgz:52472.got - 2010.04.10 19:34:48.
