data_PCOD8256747
_publ_section_title
;
Structure prediction by ZEFSAII (Michael W. Deem and Ramdas Pophale) SiO2 
 PCOD8256747
Probable space group: C M C M
;
_chemical_formula_sum "Si O2"
_cell_formula_units_Z 96
_cell_length_a 9.101454
_cell_length_b 25.234372
_cell_length_c 25.163292
_cell_angle_alpha 90.000000
_cell_angle_beta 90.000000
_cell_angle_gamma 90.000000
_cell_volume 5779.240087
_symmetry_space_group_name_H-M "C M C M"
_symmetry_group_IT_number 63
_symmetry_cell_setting 'orthorhombic'
loop_
_space_group_symop_operation_xyz
x,y,z
-x,-y,1/2+z
x,-y,-z
-x,y,1/2-z
-x,-y,-z
x,y,1/2-z
-x,y,z
x,-y,1/2+z
1/2+x,1/2+y,z
1/2-x,1/2-y,1/2+z
1/2+x,1/2-y,-z
1/2-x,1/2+y,1/2-z
1/2-x,1/2-y,-z
1/2+x,1/2+y,1/2-z
1/2-x,1/2+y,z
1/2+x,1/2-y,1/2+z
loop_
_atom_site_type_symbol
_atom_site_label
_atom_site_fract_x
_atom_site_fract_y
_atom_site_fract_z
Si Si1 0.829501 0.940065 0.146151
Si Si2 0.171572 0.863804 0.446898
Si Si3 0.166531 0.564368 0.250000
Si Si4 0.673057 0.134363 0.440356
Si Si5 0.664856 0.061621 0.750000
Si Si6 0.327801 0.563385 0.144572
Si Si7 0.667062 0.751221 0.945956
O O1 0.775705 0.908084 0.094569
O O2 0.744959 0.917309 0.197319
O O3 0.000000 0.930393 0.157240
O O4 0.794836 0.001488 0.136221
O O5 0.269954 0.869864 0.499278
O O6 0.196006 0.805829 0.417964
O O7 0.000000 0.871362 0.462072
O O8 0.169520 0.501439 0.250000
O O9 0.250228 0.585357 0.197802
O O10 0.000000 0.586231 0.250000
O O11 0.500000 0.121134 0.438724
O O12 0.761075 0.092352 0.405984
O O13 0.707686 0.193655 0.415823
O O14 0.500000 0.083657 0.750000
O O15 0.500000 0.574950 0.149132
O O16 0.500000 0.756285 0.962789
O O17 0.750000 0.750000 0.000000
#
# Coordination Sequence:
#
# PCOD8256747 Si02
#       7
#    16  16   8  16   8  16  16
#     4   9  18  31  48  68  91 119 152 186 222 266
#     4   9  17  31  49  68  90 119 153 189 226 268
#     4   9  17  31  49  68  89 116 151 190 226 263
#     4  10  19  30  45  68  95 122 151 187 228 269
#     4   9  17  29  47  68  91 118 149 184 224 267
#     4  10  19  31  47  68  93 122 152 183 221 269
#     4   8  15  28  46  65  86 114 152 190 224 262
#
# _framework density 16.611180000000001
#
# number of rings (size 3 to 8) (size 9 to 14) (size 15 to 20)
#    0.000    2.833    0.000    1.500    0.000    4.667 
#    0.000    3.333    0.000    1.000    0.000    3.500 
#    0.000    0.000    0.000    0.000    0.000    0.000 
#
# Total GULP energy -594725.019375 kJ/mol
# GULP energy per Si atom -12390.104570 kJ/mol
# Density = 1.657337 g / cm^3
# Si number density = 16.611180 Si / 1000 Ang^3
#
#
#
# Elastic Constant Matrix: (Units=GPa)
#
#
# Indices 1 2 3 4 5 6 
#
# 1 82.0641 45.1830 49.5663 0.0000 0.0000 0.0000
# 2 45.1830 79.3176 55.2045 0.0000 0.0000 0.0000
# 3 49.5663 55.2045 99.6945 0.0000 0.0000 0.0000
# 4 0.0000 0.0000 0.0000 2.0074 0.0000 0.0000
# 5 0.0000 0.0000 0.0000 0.0000 27.3157 0.0000
# 6 0.0000 0.0000 0.0000 0.0000 0.0000 19.1976
#
#
#
# Elastic Compliance Matrix: (Units=1/GPa)
#
#
# Indices 1 2 3 4 5 6 
#
# 1 0.019620 -0.007138 -0.005802 0.000000 0.000000 0.000000
# 2 -0.007138 0.023110 -0.009248 0.000000 0.000000 0.000000
# 3 -0.005802 -0.009248 0.018036 0.000000 0.000000 0.000000
# 4 0.000000 0.000000 0.000000 0.498158 0.000000 0.000000
# 5 0.000000 0.000000 0.000000 0.000000 0.036609 0.000000
# 6 0.000000 0.000000 0.000000 0.000000 0.000000 0.052090
#
#
# Mechanical properties :
#
#
# Convention : Reuss Voigt Hill
#
# Bulk Modulus (GPa) = 61.01262 62.33155 61.67208
# Shear Modulus (GPa) = 7.16883 17.11229 12.14056
#
# Velocity S-wave (km/s) = 2.07967 3.21310 2.70639
# Velocity P-wave (km/s) = 6.52505 7.16734 6.85372
#
# Compressibility (1/GPa) = 0.01639005
#
# Stress axis : x y z
#
# Youngs Moduli (GPa) = 50.96757 43.27040 55.44377
#
# Poissons Ratio (x) = 0.30888 0.32169
# Poissons Ratio (y) = 0.36383 0.51274
# Poissons Ratio (z) = 0.29572 0.40017
#
# Static dielectric constant tensor:
#      x y z
#    x 3.207230 0.000000 0.000000 
#    y 0.000000 3.551870 0.000000 
#    z 0.000000 0.000000 2.970770 
# 
# 
# High freq. dielectric constant tensor:
#      x y z
#    x 1.650930 0.000000 0.000000 
#    y 0.000000 1.630270 0.000000 
#    z 0.000000 0.000000 1.616900 
# 
# From -- ./inp_files/60007.got.cif
#   From: 2010.03.12/outbox.cif.g09.slc.cpg/sg63_31_cif.got.tgz:60007.got - 2010.04.10 19:34:48.
