data_PCOD8256427
_publ_section_title
;
Structure prediction by ZEFSAII (Michael W. Deem and Ramdas Pophale) SiO2 
 PCOD8256427
Probable space group: C M C M
;
_chemical_formula_sum "Si O2"
_cell_formula_units_Z 96
_cell_length_a 13.944666
_cell_length_b 23.240802
_cell_length_c 14.234319
_cell_angle_alpha 90.000000
_cell_angle_beta 90.000000
_cell_angle_gamma 90.000000
_cell_volume 4613.132425
_symmetry_space_group_name_H-M "C M C M"
_symmetry_group_IT_number 63
_symmetry_cell_setting 'orthorhombic'
loop_
_space_group_symop_operation_xyz
x,y,z
-x,-y,1/2+z
x,-y,-z
-x,y,1/2-z
-x,-y,-z
x,y,1/2-z
-x,y,z
x,-y,1/2+z
1/2+x,1/2+y,z
1/2-x,1/2-y,1/2+z
1/2+x,1/2-y,-z
1/2-x,1/2+y,1/2-z
1/2-x,1/2-y,-z
1/2+x,1/2+y,1/2-z
1/2-x,1/2+y,z
1/2+x,1/2-y,1/2+z
loop_
_atom_site_type_symbol
_atom_site_label
_atom_site_fract_x
_atom_site_fract_y
_atom_site_fract_z
Si Si1 0.852013 0.727857 0.250000
Si Si2 0.885835 0.409261 0.750000
Si Si3 0.297826 0.058383 0.053584
Si Si4 0.885585 0.662787 0.556571
Si Si5 0.602251 0.323895 0.750000
Si Si6 0.613741 0.622520 0.440882
Si Si7 0.893366 0.229077 0.550893
Si Si8 0.658246 0.793148 0.250000
O O1 0.866135 0.659339 0.250000
O O2 0.899412 0.758559 0.339036
O O3 0.741305 0.744114 0.250000
O O4 0.839159 0.440275 0.840500
O O5 0.000000 0.419371 0.750000
O O6 0.181776 0.066636 0.051107
O O7 0.351419 0.106718 0.995159
O O8 0.323034 0.000000 0.000000
O O9 0.841199 0.718425 0.502921
O O10 0.842340 0.664785 0.661333
O O11 0.000000 0.662265 0.559010
O O12 0.500000 0.355733 0.750000
O O13 0.651015 0.345779 0.654004
O O14 0.575751 0.255087 0.750000
O O15 0.500000 0.605990 0.444685
O O16 0.647040 0.665807 0.525468
O O17 0.000000 0.227582 0.508115
#
# Coordination Sequence:
#
# PCOD8256427 Si02
#       8
#     8   8  16  16   8  16  16   8
#     4  12  22  34  60  93 127 165 207 252 310 380
#     4  12  26  45  68  93 123 166 218 269 314 364
#     4  12  27  45  66  91 122 170 227 268 310 367
#     4  11  23  39  61  91 128 168 208 256 315 376
#     4  10  18  32  58  93 126 156 191 237 309 386
#     4  10  21  39  65  98 133 164 202 259 323 385
#     4  10  20  35  59  91 126 161 199 247 316 384
#     4  12  22  33  59  95 134 165 195 252 322 384
#
# _framework density 20.810155000000002
#
# number of rings (size 3 to 8) (size 9 to 14) (size 15 to 20)
#    0.000    1.000    3.333    4.500    0.000    3.667 
#    0.000    0.833    0.000    0.000    0.000    0.000 
#    0.000    0.000    0.000    0.000    0.000    0.000 
#
# Total GULP energy -594807.186006 kJ/mol
# GULP energy per Si atom -12391.816375 kJ/mol
# Density = 2.076279 g / cm^3
# Si number density = 20.810155 Si / 1000 Ang^3
#
#
#
# Elastic Constant Matrix: (Units=GPa)
#
#
# Indices 1 2 3 4 5 6 
#
# 1 91.9507 42.6383 33.4168 0.0000 0.0000 0.0000
# 2 42.6383 88.1244 48.0728 0.0000 0.0000 0.0000
# 3 33.4168 48.0728 156.2161 0.0000 0.0000 0.0000
# 4 0.0000 0.0000 0.0000 24.0926 0.0000 0.0000
# 5 0.0000 0.0000 0.0000 0.0000 40.4522 0.0000
# 6 0.0000 0.0000 0.0000 0.0000 0.0000 21.3940
#
#
#
# Elastic Compliance Matrix: (Units=1/GPa)
#
#
# Indices 1 2 3 4 5 6 
#
# 1 0.014179 -0.006256 -0.001108 0.000000 0.000000 0.000000
# 2 -0.006256 0.016397 -0.003708 0.000000 0.000000 0.000000
# 3 -0.001108 -0.003708 0.007779 0.000000 0.000000 0.000000
# 4 0.000000 0.000000 0.000000 0.041507 0.000000 0.000000
# 5 0.000000 0.000000 0.000000 0.000000 0.024721 0.000000
# 6 0.000000 0.000000 0.000000 0.000000 0.000000 0.046742
#
#
# Mechanical properties :
#
#
# Convention : Reuss Voigt Hill
#
# Bulk Modulus (GPa) = 61.68173 64.94966 63.31570
# Shear Modulus (GPa) = 27.95296 31.33198 29.64247
#
# Velocity S-wave (km/s) = 3.66900 3.88443 3.77825
# Velocity P-wave (km/s) = 6.90313 7.16915 7.03740
#
# Compressibility (1/GPa) = 0.01621226
#
# Stress axis : x y z
#
# Youngs Moduli (GPa) = 70.52691 60.98644 128.54533
#
# Poissons Ratio (x) = 0.38153 0.14241
# Poissons Ratio (y) = 0.44122 0.47660
# Poissons Ratio (z) = 0.07814 0.22612
#
# Static dielectric constant tensor:
#      x y z
#    x 3.974800 0.000000 0.000000 
#    y 0.000000 3.413010 0.000000 
#    z 0.000000 0.000000 3.984950 
# 
# 
# High freq. dielectric constant tensor:
#      x y z
#    x 1.834590 0.000000 0.000000 
#    y 0.000000 1.772990 0.000000 
#    z 0.000000 0.000000 1.826990 
# 
# From -- ./inp_files/32026.got.cif
#   From: 2010.03.12/outbox.cif.g09.slc.cpg/sg63_17_cif.got.tgz:32026.got - 2010.04.10 19:34:48.
