data_PCOD8256470
_publ_section_title
;
Structure prediction by ZEFSAII (Michael W. Deem and Ramdas Pophale) SiO2 
 PCOD8256470
Probable space group: C M C M
;
_chemical_formula_sum "Si O2"
_cell_formula_units_Z 80
_cell_length_a 20.838021
_cell_length_b 14.002242
_cell_length_c 15.074178
_cell_angle_alpha 90.000000
_cell_angle_beta 90.000000
_cell_angle_gamma 90.000000
_cell_volume 4398.328776
_symmetry_space_group_name_H-M "C M C M"
_symmetry_group_IT_number 63
_symmetry_cell_setting 'orthorhombic'
loop_
_space_group_symop_operation_xyz
x,y,z
-x,-y,1/2+z
x,-y,-z
-x,y,1/2-z
-x,-y,-z
x,y,1/2-z
-x,y,z
x,-y,1/2+z
1/2+x,1/2+y,z
1/2-x,1/2-y,1/2+z
1/2+x,1/2-y,-z
1/2-x,1/2+y,1/2-z
1/2-x,1/2-y,-z
1/2+x,1/2+y,1/2-z
1/2-x,1/2+y,z
1/2+x,1/2-y,1/2+z
loop_
_atom_site_type_symbol
_atom_site_label
_atom_site_fract_x
_atom_site_fract_y
_atom_site_fract_z
Si Si1 0.303034 0.701039 0.152839
Si Si2 0.649224 0.603552 0.519436
Si Si3 0.207530 0.403836 0.409607
Si Si4 0.828111 0.609546 0.394816
Si Si5 0.926458 0.759363 0.350585
O O1 0.326822 0.665381 0.250000
O O2 0.306634 0.815884 0.154363
O O3 0.228934 0.675997 0.139589
O O4 0.345880 0.657403 0.074810
O O5 0.618085 0.500000 0.500000
O O6 0.717697 0.586521 0.565666
O O7 0.604452 0.663105 0.584414
O O8 0.167800 0.387264 0.499216
O O9 0.183401 0.500853 0.361667
O O10 0.893390 0.655095 0.357800
O O11 0.920098 0.797266 0.250000
O O12 0.000000 0.745493 0.378092
#
# Coordination Sequence:
#
# PCOD8256470 Si02
#       5
#    16  16  16  16  16
#     4  11  20  31  55  88 118 145 179 231 294 338
#     4  11  20  38  58  82 117 144 184 238 282 333
#     4  10  18  33  57  88 115 146 181 227 291 340
#     4  10  18  35  57  84 115 147 181 229 282 334
#     4  11  24  40  59  82 111 152 194 229 271 330
#
# _framework density 18.188727
#
# number of rings (size 3 to 8) (size 9 to 14) (size 15 to 20)
#    0.000    1.400    8.000    1.800    0.000    2.800 
#    0.000    2.000    0.000    0.600    0.000    0.000 
#    0.000    0.000    0.000    0.000    0.000    0.000 
#
# Total GULP energy -495909.442411 kJ/mol
# GULP energy per Si atom -12397.736060 kJ/mol
# Density = 1.814733 g / cm^3
# Si number density = 18.188727 Si / 1000 Ang^3
#
#
#
# Elastic Constant Matrix: (Units=GPa)
#
#
# Indices 1 2 3 4 5 6 
#
# 1 94.2563 53.4548 51.7724 0.0000 0.0000 0.0000
# 2 53.4548 162.4081 50.3316 0.0000 0.0000 0.0000
# 3 51.7724 50.3316 100.0345 0.0000 0.0000 0.0000
# 4 0.0000 0.0000 0.0000 5.6236 0.0000 0.0000
# 5 0.0000 0.0000 0.0000 0.0000 10.9352 0.0000
# 6 0.0000 0.0000 0.0000 0.0000 0.0000 10.1812
#
#
#
# Elastic Compliance Matrix: (Units=1/GPa)
#
#
# Indices 1 2 3 4 5 6 
#
# 1 0.016134 -0.003225 -0.006727 0.000000 0.000000 0.000000
# 2 -0.003225 0.007940 -0.002325 0.000000 0.000000 0.000000
# 3 -0.006727 -0.002325 0.014648 0.000000 0.000000 0.000000
# 4 0.000000 0.000000 0.000000 0.177822 0.000000 0.000000
# 5 0.000000 0.000000 0.000000 0.000000 0.091448 0.000000
# 6 0.000000 0.000000 0.000000 0.000000 0.000000 0.098220
#
#
# Mechanical properties :
#
#
# Convention : Reuss Voigt Hill
#
# Bulk Modulus (GPa) = 70.59392 74.20184 72.39788
# Shear Modulus (GPa) = 11.48136 18.75734 15.11935
#
# Velocity S-wave (km/s) = 2.51516 3.21481 2.88627
# Velocity P-wave (km/s) = 6.87975 7.39352 7.14125
#
# Compressibility (1/GPa) = 0.01416553
#
# Stress axis : x y z
#
# Youngs Moduli (GPa) = 61.98272 125.95062 68.26818
#
# Poissons Ratio (x) = 0.40624 0.45924
# Poissons Ratio (y) = 0.19992 0.15875
# Poissons Ratio (z) = 0.41696 0.29289
#
# Static dielectric constant tensor:
#      x y z
#    x 2.987180 0.000000 0.000000 
#    y 0.000000 3.668740 0.000000 
#    z 0.000000 0.000000 3.397260 
# 
# 
# High freq. dielectric constant tensor:
#      x y z
#    x 1.653440 0.000000 0.000000 
#    y 0.000000 1.720870 0.000000 
#    z 0.000000 0.000000 1.709150 
# 
# From -- ./inp_files/35103.got.cif
#   From: 2010.03.12/outbox.cif.g09.slc.cpg/sg63_18_cif.got.tgz:35103.got - 2010.04.10 19:34:48.
