data_PCOD8256121
_publ_section_title
;
Structure prediction by ZEFSAII (Michael W. Deem and Ramdas Pophale) SiO2 
 PCOD8256121
Probable space group: C M C M
;
_chemical_formula_sum "Si O2"
_cell_formula_units_Z 80
_cell_length_a 8.807102
_cell_length_b 25.497010
_cell_length_c 19.808524
_cell_angle_alpha 90.000000
_cell_angle_beta 90.000000
_cell_angle_gamma 90.000000
_cell_volume 4448.098507
_symmetry_space_group_name_H-M "C M C M"
_symmetry_group_IT_number 63
_symmetry_cell_setting 'orthorhombic'
loop_
_space_group_symop_operation_xyz
x,y,z
-x,-y,1/2+z
x,-y,-z
-x,y,1/2-z
-x,-y,-z
x,y,1/2-z
-x,y,z
x,-y,1/2+z
1/2+x,1/2+y,z
1/2-x,1/2-y,1/2+z
1/2+x,1/2-y,-z
1/2-x,1/2+y,1/2-z
1/2-x,1/2-y,-z
1/2+x,1/2+y,1/2-z
1/2-x,1/2+y,z
1/2+x,1/2-y,1/2+z
loop_
_atom_site_type_symbol
_atom_site_label
_atom_site_fract_x
_atom_site_fract_y
_atom_site_fract_z
Si Si1 0.822013 0.976015 0.071739
Si Si2 0.179124 0.149210 0.397223
Si Si3 0.175101 0.740559 0.570319
Si Si4 0.178282 0.629032 0.542340
Si Si5 0.174486 0.443968 0.671700
O O1 0.735057 0.921302 0.083373
O O2 0.000000 0.965538 0.075202
O O3 0.775170 0.015105 0.130700
O O4 0.773082 0.000000 0.000000
O O5 0.222110 0.210783 0.380758
O O6 0.231052 0.132873 0.472232
O O7 0.266912 0.114795 0.342313
O O8 0.000000 0.138286 0.391252
O O9 0.250000 0.750000 0.500000
O O10 0.211590 0.680180 0.591044
O O11 0.000000 0.747301 0.556321
O O12 0.000000 0.624405 0.526212
O O13 0.194811 0.456678 0.750000
O O14 0.000000 0.448697 0.649105
#
# Coordination Sequence:
#
# PCOD8256121 Si02
#       5
#    16  16  16  16  16
#     4  11  22  35  54  80 108 140 179 224 270 321
#     4  10  18  31  51  76 107 138 172 214 262 315
#     4   8  16  28  45  73 105 135 167 205 253 306
#     4  10  18  30  51  78 108 140 174 217 264 309
#     4  11  24  39  55  77 105 140 181 223 270 324
#
# _framework density 17.985213000000002
#
# number of rings (size 3 to 8) (size 9 to 14) (size 15 to 20)
#    0.000    2.000    2.000    2.400    0.000    4.000 
#    0.000    0.000    0.000    1.200    0.000    2.800 
#    0.000    0.000    0.000    0.000    0.000    0.000 
#
# Total GULP energy -495639.556381 kJ/mol
# GULP energy per Si atom -12390.988910 kJ/mol
# Density = 1.794428 g / cm^3
# Si number density = 17.985213 Si / 1000 Ang^3
#
#
#
# Elastic Constant Matrix: (Units=GPa)
#
#
# Indices 1 2 3 4 5 6 
#
# 1 40.2865 29.0655 16.0028 0.0000 0.0000 0.0000
# 2 29.0655 145.8590 30.0054 0.0000 0.0000 0.0000
# 3 16.0028 30.0054 48.7410 0.0000 0.0000 0.0000
# 4 0.0000 0.0000 0.0000 20.5790 0.0000 0.0000
# 5 0.0000 0.0000 0.0000 0.0000 19.7709 0.0000
# 6 0.0000 0.0000 0.0000 0.0000 0.0000 31.1487
#
#
#
# Elastic Compliance Matrix: (Units=1/GPa)
#
#
# Indices 1 2 3 4 5 6 
#
# 1 0.031119 -0.004694 -0.007328 0.000000 0.000000 0.000000
# 2 -0.004694 0.008558 -0.003727 0.000000 0.000000 0.000000
# 3 -0.007328 -0.003727 0.025217 0.000000 0.000000 0.000000
# 4 0.000000 0.000000 0.000000 0.048593 0.000000 0.000000
# 5 0.000000 0.000000 0.000000 0.000000 0.050579 0.000000
# 6 0.000000 0.000000 0.000000 0.000000 0.000000 0.032104
#
#
# Mechanical properties :
#
#
# Convention : Reuss Voigt Hill
#
# Bulk Modulus (GPa) = 29.94294 42.78154 36.36224
# Shear Modulus (GPa) = 20.93793 24.95390 22.94591
#
# Velocity S-wave (km/s) = 3.41570 3.72891 3.57574
# Velocity P-wave (km/s) = 5.67810 6.50987 6.10816
#
# Compressibility (1/GPa) = 0.03339685
#
# Stress axis : x y z
#
# Youngs Moduli (GPa) = 32.13434 116.84928 39.65579
#
# Poissons Ratio (x) = 0.54846 0.29058
# Poissons Ratio (y) = 0.15083 0.14781
# Poissons Ratio (z) = 0.23547 0.43553
#
# Static dielectric constant tensor:
#      x y z
#    x 3.392280 0.000000 0.000000 
#    y 0.000000 4.185250 0.000000 
#    z 0.000000 0.000000 2.866590 
# 
# 
# High freq. dielectric constant tensor:
#      x y z
#    x 1.712090 0.000000 0.000000 
#    y 0.000000 1.724430 0.000000 
#    z 0.000000 0.000000 1.633360 
# 
# From -- ./inp_files/40449.got.cif
#   From: 2010.03.12/outbox.cif.g09.slc.cpg/sg63_21_cif.got.tgz:40449.got - 2010.04.10 19:34:48.
