data_PCOD8256278
_publ_section_title
;
Structure prediction by ZEFSAII (Michael W. Deem and Ramdas Pophale) SiO2 
 PCOD8256278
Probable space group: C M C M
;
_chemical_formula_sum "Si O2"
_cell_formula_units_Z 96
_cell_length_a 8.772403
_cell_length_b 24.949788
_cell_length_c 23.706896
_cell_angle_alpha 90.000000
_cell_angle_beta 90.000000
_cell_angle_gamma 90.000000
_cell_volume 5188.718729
_symmetry_space_group_name_H-M "C M C M"
_symmetry_group_IT_number 63
_symmetry_cell_setting 'orthorhombic'
loop_
_space_group_symop_operation_xyz
x,y,z
-x,-y,1/2+z
x,-y,-z
-x,y,1/2-z
-x,-y,-z
x,y,1/2-z
-x,y,z
x,-y,1/2+z
1/2+x,1/2+y,z
1/2-x,1/2-y,1/2+z
1/2+x,1/2-y,-z
1/2-x,1/2+y,1/2-z
1/2-x,1/2-y,-z
1/2+x,1/2+y,1/2-z
1/2-x,1/2+y,z
1/2+x,1/2-y,1/2+z
loop_
_atom_site_type_symbol
_atom_site_label
_atom_site_fract_x
_atom_site_fract_y
_atom_site_fract_z
Si Si1 0.320406 0.728237 0.250000
Si Si2 0.180843 0.856956 0.056411
Si Si3 0.181558 0.976483 0.058475
Si Si4 0.677513 0.111267 0.250000
Si Si5 0.325189 0.328809 0.932919
Si Si6 0.679084 0.736542 0.863282
Si Si7 0.325635 0.566986 0.141541
O O1 0.500000 0.725377 0.250000
O O2 0.263494 0.667529 0.250000
O O3 0.264973 0.760601 0.195790
O O4 0.246246 0.916450 0.067854
O O5 0.236048 0.817472 0.105854
O O6 0.000000 0.859671 0.053738
O O7 0.237959 0.834254 0.996420
O O8 0.000000 0.976473 0.054757
O O9 0.233257 0.012880 0.111246
O O10 0.248286 0.000000 0.000000
O O11 0.500000 0.123976 0.250000
O O12 0.719916 0.077036 0.195204
O O13 0.500000 0.308368 0.930924
O O14 0.216838 0.287402 0.901549
O O15 0.311127 0.386102 0.903815
O O16 0.500000 0.735623 0.851785
O O17 0.500000 0.561456 0.162191
#
# Coordination Sequence:
#
# PCOD8256278 Si02
#       7
#     8  16  16   8  16  16  16
#     4  12  24  40  59  76 101 141 192 236 274 329
#     4   9  18  32  52  83 118 149 184 226 272 322
#     4   9  15  29  55  85 112 141 181 227 267 309
#     4  12  24  38  57  80 113 145 178 226 282 329
#     4  10  18  31  54  83 115 147 179 223 271 326
#     4  11  22  35  53  81 115 147 182 227 280 331
#     4  10  19  32  57  87 112 141 183 226 267 318
#
# _framework density 18.501678999999999
#
# number of rings (size 3 to 8) (size 9 to 14) (size 15 to 20)
#    0.000    1.833    3.333    2.500    0.000    0.000 
#    0.000    1.667    0.000    8.500    0.000    0.000 
#    0.000    0.000    0.000    0.000    0.000    0.000 
#
# Total GULP energy -595272.536498 kJ/mol
# GULP energy per Si atom -12401.511177 kJ/mol
# Density = 1.845957 g / cm^3
# Si number density = 18.501679 Si / 1000 Ang^3
#
#
#
# Elastic Constant Matrix: (Units=GPa)
#
#
# Indices 1 2 3 4 5 6 
#
# 1 67.7041 27.4512 45.2949 0.0000 0.0000 0.0000
# 2 27.4512 111.3873 71.7195 0.0000 0.0000 0.0000
# 3 45.2949 71.7195 159.7550 0.0000 0.0000 0.0000
# 4 0.0000 0.0000 0.0000 27.8273 0.0000 0.0000
# 5 0.0000 0.0000 0.0000 0.0000 24.8878 0.0000
# 6 0.0000 0.0000 0.0000 0.0000 0.0000 17.8566
#
#
#
# Elastic Compliance Matrix: (Units=1/GPa)
#
#
# Indices 1 2 3 4 5 6 
#
# 1 0.018443 -0.001657 -0.004485 0.000000 0.000000 0.000000
# 2 -0.001657 0.012777 -0.005266 0.000000 0.000000 0.000000
# 3 -0.004485 -0.005266 0.009895 0.000000 0.000000 0.000000
# 4 0.000000 0.000000 0.000000 0.035936 0.000000 0.000000
# 5 0.000000 0.000000 0.000000 0.000000 0.040180 0.000000
# 6 0.000000 0.000000 0.000000 0.000000 0.000000 0.056002
#
#
# Mechanical properties :
#
#
# Convention : Reuss Voigt Hill
#
# Bulk Modulus (GPa) = 54.65080 69.75306 62.20193
# Shear Modulus (GPa) = 24.73428 27.07308 25.90368
#
# Velocity S-wave (km/s) = 3.66029 3.82943 3.74581
# Velocity P-wave (km/s) = 6.88956 7.57202 7.23884
#
# Compressibility (1/GPa) = 0.01829799
#
# Stress axis : x y z
#
# Youngs Moduli (GPa) = 54.22218 78.26672 101.05830
#
# Poissons Ratio (x) = 0.12972 0.45324
# Poissons Ratio (y) = 0.08987 0.53218
# Poissons Ratio (z) = 0.24318 0.41215
#
# Static dielectric constant tensor:
#      x y z
#    x 3.103050 0.000000 0.000000 
#    y 0.000000 3.634000 0.000000 
#    z 0.000000 0.000000 3.552700 
# 
# 
# High freq. dielectric constant tensor:
#      x y z
#    x 1.683790 0.000000 0.000000 
#    y 0.000000 1.718310 0.000000 
#    z 0.000000 0.000000 1.725280 
# 
# From -- ./inp_files/60039.got.cif
#   From: 2010.03.12/outbox.cif.g09.slc.cpg/sg63_31_cif.got.tgz:60039.got - 2010.04.10 19:34:48.
