data_PCOD8256290
_publ_section_title
;
Structure prediction by ZEFSAII (Michael W. Deem and Ramdas Pophale) SiO2 
 PCOD8256290
Probable space group: C M C M
;
_chemical_formula_sum "Si O2"
_cell_formula_units_Z 80
_cell_length_a 28.813551
_cell_length_b 8.563022
_cell_length_c 17.017697
_cell_angle_alpha 90.000000
_cell_angle_beta 90.000000
_cell_angle_gamma 90.000000
_cell_volume 4198.794609
_symmetry_space_group_name_H-M "C M C M"
_symmetry_group_IT_number 63
_symmetry_cell_setting 'orthorhombic'
loop_
_space_group_symop_operation_xyz
x,y,z
-x,-y,1/2+z
x,-y,-z
-x,y,1/2-z
-x,-y,-z
x,y,1/2-z
-x,y,z
x,-y,1/2+z
1/2+x,1/2+y,z
1/2-x,1/2-y,1/2+z
1/2+x,1/2-y,-z
1/2-x,1/2+y,1/2-z
1/2-x,1/2-y,-z
1/2+x,1/2+y,1/2-z
1/2-x,1/2+y,z
1/2+x,1/2-y,1/2+z
loop_
_atom_site_type_symbol
_atom_site_label
_atom_site_fract_x
_atom_site_fract_y
_atom_site_fract_z
Si Si1 0.299043 0.687323 0.088354
Si Si2 0.446195 0.676911 0.523281
Si Si3 0.881757 0.396841 0.072668
Si Si4 0.702942 0.334020 0.098173
Si Si5 0.110424 0.695693 0.159913
O O1 0.342816 0.790825 0.114279
O O2 0.301997 0.514138 0.124334
O O3 0.253083 0.768465 0.122569
O O4 0.301815 0.681759 0.994681
O O5 0.436927 0.500000 0.500000
O O6 0.500000 0.718963 0.528599
O O7 0.423817 0.790838 0.458612
O O8 0.422872 0.695192 0.608326
O O9 0.900104 0.514797 0.139317
O O10 0.861075 0.500000 0.000000
O O11 0.664153 0.233254 0.142009
O O12 0.098546 0.727755 0.250000
#
# Coordination Sequence:
#
# PCOD8256290 Si02
#       5
#    16  16  16  16  16
#     4  10  18  31  56  82 108 148 202 242 276 330
#     4  10  21  40  66  90 111 145 198 246 284 340
#     4  10  19  34  57  84 113 149 190 236 279 339
#     4  10  19  31  54  83 113 149 195 241 282 333
#     4  11  23  38  56  86 125 155 187 236 299 350
#
# _framework density 19.053089
#
# number of rings (size 3 to 8) (size 9 to 14) (size 15 to 20)
#    0.000    1.800    4.000    2.400    2.800    4.000 
#    0.000    8.000    0.000    1.200    0.000    0.000 
#    0.000    0.000    0.000    0.000    0.000    0.000 
#
# Total GULP energy -496041.120468 kJ/mol
# GULP energy per Si atom -12401.028012 kJ/mol
# Density = 1.900972 g / cm^3
# Si number density = 19.053089 Si / 1000 Ang^3
#
#
#
# Elastic Constant Matrix: (Units=GPa)
#
#
# Indices 1 2 3 4 5 6 
#
# 1 135.8821 63.6514 54.2856 0.0000 0.0000 0.0000
# 2 63.6514 109.8419 38.0109 0.0000 0.0000 0.0000
# 3 54.2856 38.0109 82.1217 0.0000 0.0000 0.0000
# 4 0.0000 0.0000 0.0000 14.1006 0.0000 0.0000
# 5 0.0000 0.0000 0.0000 0.0000 9.2652 0.0000
# 6 0.0000 0.0000 0.0000 0.0000 0.0000 34.7759
#
#
#
# Elastic Compliance Matrix: (Units=1/GPa)
#
#
# Indices 1 2 3 4 5 6 
#
# 1 0.011918 -0.004977 -0.005574 0.000000 0.000000 0.000000
# 2 -0.004977 0.012919 -0.002690 0.000000 0.000000 0.000000
# 3 -0.005574 -0.002690 0.017107 0.000000 0.000000 0.000000
# 4 0.000000 0.000000 0.000000 0.070919 0.000000 0.000000
# 5 0.000000 0.000000 0.000000 0.000000 0.107930 0.000000
# 6 0.000000 0.000000 0.000000 0.000000 0.000000 0.028756
#
#
# Mechanical properties :
#
#
# Convention : Reuss Voigt Hill
#
# Bulk Modulus (GPa) = 64.67754 71.08239 67.87996
# Shear Modulus (GPa) = 17.78195 23.08821 20.43508
#
# Velocity S-wave (km/s) = 3.05828 3.48484 3.27851
# Velocity P-wave (km/s) = 6.81839 7.31988 7.07358
#
# Compressibility (1/GPa) = 0.01546132
#
# Stress axis : x y z
#
# Youngs Moduli (GPa) = 83.90854 77.40626 58.45616
#
# Poissons Ratio (x) = 0.38526 0.32586
# Poissons Ratio (y) = 0.41762 0.15722
# Poissons Ratio (z) = 0.46774 0.20819
#
# Static dielectric constant tensor:
#      x y z
#    x 3.501670 0.000000 0.000000 
#    y 0.000000 3.824520 0.000000 
#    z 0.000000 0.000000 3.079550 
# 
# 
# High freq. dielectric constant tensor:
#      x y z
#    x 1.738780 0.000000 0.000000 
#    y 0.000000 1.761930 0.000000 
#    z 0.000000 0.000000 1.692090 
# 
# From -- ./inp_files/48808.got.cif
#   From: 2010.03.12/outbox.cif.g09.slc.cpg/sg63_25_cif.got.tgz:48808.got - 2010.04.10 19:34:48.
