data_PCOD8256222
_publ_section_title
;
Structure prediction by ZEFSAII (Michael W. Deem and Ramdas Pophale) SiO2 
 PCOD8256222
Probable space group: C M C M
;
_chemical_formula_sum "Si O2"
_cell_formula_units_Z 88
_cell_length_a 20.112787
_cell_length_b 26.708816
_cell_length_c 9.002097
_cell_angle_alpha 90.000000
_cell_angle_beta 90.000000
_cell_angle_gamma 90.000000
_cell_volume 4835.825030
_symmetry_space_group_name_H-M "C M C M"
_symmetry_group_IT_number 63
_symmetry_cell_setting 'orthorhombic'
loop_
_space_group_symop_operation_xyz
x,y,z
-x,-y,1/2+z
x,-y,-z
-x,y,1/2-z
-x,-y,-z
x,y,1/2-z
-x,y,z
x,-y,1/2+z
1/2+x,1/2+y,z
1/2-x,1/2-y,1/2+z
1/2+x,1/2-y,-z
1/2-x,1/2+y,1/2-z
1/2-x,1/2-y,-z
1/2+x,1/2+y,1/2-z
1/2-x,1/2+y,z
1/2+x,1/2-y,1/2+z
loop_
_atom_site_type_symbol
_atom_site_label
_atom_site_fract_x
_atom_site_fract_y
_atom_site_fract_z
Si Si1 0.500000 0.945022 0.428589
Si Si2 0.370402 0.330268 0.578524
Si Si3 0.726208 0.141981 0.079538
Si Si4 0.868627 0.284601 0.423833
Si Si5 0.000000 0.166015 0.916756
Si Si6 0.130433 0.447182 0.924079
Si Si7 0.000000 0.714832 0.081915
O O1 0.500000 0.944950 0.250000
O O2 0.432629 0.920247 0.493959
O O3 0.500000 0.000000 0.500000
O O4 0.389462 0.332655 0.750000
O O5 0.304403 0.362103 0.541056
O O6 0.356969 0.272958 0.530528
O O7 0.432824 0.354481 0.492713
O O8 0.716430 0.159007 0.250000
O O9 0.693959 0.087985 0.050685
O O10 0.694714 0.184369 0.976689
O O11 0.878233 0.291271 0.250000
O O12 0.934665 0.306534 0.501815
O O13 0.000000 0.146296 0.750000
O O14 0.000000 0.225584 0.929193
O O15 0.114593 0.455244 0.750000
O O16 0.147375 0.500000 0.000000
O O17 0.000000 0.695354 0.250000
#
# Coordination Sequence:
#
# PCOD8256222 Si02
#       7
#     8  16  16  16   8  16   8
#     4  10  18  31  52  73  94 123 159 199 240 281
#     4   9  18  33  50  70  97 129 161 193 232 282
#     4  10  21  34  49  70  97 129 161 192 237 291
#     4  10  19  30  47  70  97 127 162 202 237 272
#     4   9  17  29  48  72  94 123 161 198 235 276
#     4  10  20  35  53  72  95 124 159 199 239 281
#     4   9  17  30  46  63  92 132 168 199 234 277
#
# _framework density 18.197516
#
# number of rings (size 3 to 8) (size 9 to 14) (size 15 to 20)
#    0.000    2.364    0.000    4.091    0.000    5.818 
#    0.000    0.909    0.000    0.000    0.000    0.636 
#    0.000    0.000    0.000    0.000    0.000    0.000 
#
# Total GULP energy -545570.104700 kJ/mol
# GULP energy per Si atom -12399.320561 kJ/mol
# Density = 1.815610 g / cm^3
# Si number density = 18.197516 Si / 1000 Ang^3
#
#
#
# Elastic Constant Matrix: (Units=GPa)
#
#
# Indices 1 2 3 4 5 6 
#
# 1 161.8363 46.2303 71.8207 0.0000 0.0000 0.0000
# 2 46.2303 45.0823 34.8431 0.0000 0.0000 0.0000
# 3 71.8207 34.8431 114.1123 0.0000 0.0000 0.0000
# 4 0.0000 0.0000 0.0000 18.7676 0.0000 0.0000
# 5 0.0000 0.0000 0.0000 0.0000 31.5629 0.0000
# 6 0.0000 0.0000 0.0000 0.0000 0.0000 15.9975
#
#
#
# Elastic Compliance Matrix: (Units=1/GPa)
#
#
# Indices 1 2 3 4 5 6 
#
# 1 0.010051 -0.007092 -0.004161 0.000000 0.000000 0.000000
# 2 -0.007092 0.034036 -0.005929 0.000000 0.000000 0.000000
# 3 -0.004161 -0.005929 0.013193 0.000000 0.000000 0.000000
# 4 0.000000 0.000000 0.000000 0.053283 0.000000 0.000000
# 5 0.000000 0.000000 0.000000 0.000000 0.031683 0.000000
# 6 0.000000 0.000000 0.000000 0.000000 0.000000 0.062510
#
#
# Mechanical properties :
#
#
# Convention : Reuss Voigt Hill
#
# Bulk Modulus (GPa) = 43.63603 69.64657 56.64130
# Shear Modulus (GPa) = 20.26268 24.47470 22.36869
#
# Velocity S-wave (km/s) = 3.34051 3.67133 3.50982
# Velocity P-wave (km/s) = 6.23778 7.50515 6.90062
#
# Compressibility (1/GPa) = 0.02291684
#
# Stress axis : x y z
#
# Youngs Moduli (GPa) = 99.48875 29.38025 75.80017
#
# Poissons Ratio (x) = 0.20835 0.31540
# Poissons Ratio (y) = 0.70552 0.44945
# Poissons Ratio (z) = 0.41396 0.17421
#
# Static dielectric constant tensor:
#      x y z
#    x 3.684460 0.000000 0.000000 
#    y 0.000000 2.937470 0.000000 
#    z 0.000000 0.000000 3.437380 
# 
# 
# High freq. dielectric constant tensor:
#      x y z
#    x 1.713360 0.000000 0.000000 
#    y 0.000000 1.655240 0.000000 
#    z 0.000000 0.000000 1.715060 
# 
# From -- ./inp_files/9029.got.cif
#   From: 2010.03.12/outbox.cif.g09.slc.cpg/sg63_5_cif.got.tgz:9029.got - 2010.04.10 19:34:48.
