data_PCOD8256845
_publ_section_title
;
Structure prediction by ZEFSAII (Michael W. Deem and Ramdas Pophale) SiO2 
 PCOD8256845
Probable space group: C M C M
;
_chemical_formula_sum "Si O2"
_cell_formula_units_Z 128
_cell_length_a 10.194158
_cell_length_b 25.316094
_cell_length_c 27.392617
_cell_angle_alpha 90.000000
_cell_angle_beta 90.000000
_cell_angle_gamma 90.000000
_cell_volume 7069.384207
_symmetry_space_group_name_H-M "C M C M"
_symmetry_group_IT_number 63
_symmetry_cell_setting 'orthorhombic'
loop_
_space_group_symop_operation_xyz
x,y,z
-x,-y,1/2+z
x,-y,-z
-x,y,1/2-z
-x,-y,-z
x,y,1/2-z
-x,y,z
x,-y,1/2+z
1/2+x,1/2+y,z
1/2-x,1/2-y,1/2+z
1/2+x,1/2-y,-z
1/2-x,1/2+y,1/2-z
1/2-x,1/2-y,-z
1/2+x,1/2+y,1/2-z
1/2-x,1/2+y,z
1/2+x,1/2-y,1/2+z
loop_
_atom_site_type_symbol
_atom_site_label
_atom_site_fract_x
_atom_site_fract_y
_atom_site_fract_z
Si Si1 0.650584 0.700001 0.304539
Si Si2 0.152603 0.498998 0.697174
Si Si3 0.855455 0.027798 0.448407
Si Si4 0.154152 0.545100 0.600413
Si Si5 0.350640 0.149265 0.550049
Si Si6 0.237402 0.637809 0.442898
Si Si7 0.848374 0.754258 0.595326
Si Si8 0.148900 0.385892 0.661466
O O1 0.667979 0.724320 0.250000
O O2 0.500000 0.679993 0.311797
O O3 0.682726 0.743387 0.346434
O O4 0.750626 0.652052 0.310662
O O5 0.219701 0.510907 0.750000
O O6 0.177800 0.546897 0.659086
O O7 0.202880 0.443873 0.674523
O O8 0.000000 0.492133 0.705471
O O9 0.841392 0.091165 0.452771
O O10 0.000000 0.016604 0.425509
O O11 0.845303 0.000000 0.500000
O O12 0.736178 0.005412 0.416921
O O13 0.213317 0.597719 0.575651
O O14 0.000000 0.535449 0.587837
O O15 0.500000 0.148752 0.567478
O O16 0.346852 0.145848 0.491722
O O17 0.279927 0.202239 0.571336
O O18 0.307118 0.692938 0.432146
O O19 0.147370 0.622765 0.396864
O O20 0.000000 0.747891 0.585092
O O21 0.000000 0.375975 0.680031
#
# Coordination Sequence:
#
# PCOD8256845 Si02
#       8
#    16  16  16  16  16  16  16  16
#     4   9  18  33  52  73 101 137 175 215 260 310
#     4   9  17  30  48  73 104 134 166 210 262 309
#     4  11  22  35  52  79 109 140 175 213 259 313
#     4  10  20  35  54  76 103 139 177 216 259 308
#     4  10  20  33  51  74 102 136 178 220 255 302
#     4  11  19  32  52  75 105 139 173 212 260 317
#     4   9  19  34  50  73 103 136 174 217 261 306
#     4  10  19  30  49  76 106 136 168 210 262 316
#
# _framework density 18.106245000000001
#
# number of rings (size 3 to 8) (size 9 to 14) (size 15 to 20)
#    0.000    2.125    2.500    1.500    0.000    2.000 
#    0.000    0.625    0.000    7.875    0.000    0.000 
#    0.000    0.000    0.000    0.000    0.000    0.000 
#
# Total GULP energy -792949.839446 kJ/mol
# GULP energy per Si atom -12389.841241 kJ/mol
# Density = 1.806503 g / cm^3
# Si number density = 18.106245 Si / 1000 Ang^3
#
#
#
# Elastic Constant Matrix: (Units=GPa)
#
#
# Indices 1 2 3 4 5 6 
#
# 1 54.4294 22.6074 20.6479 0.0000 0.0000 0.0000
# 2 22.6074 101.0161 54.2640 0.0000 0.0000 0.0000
# 3 20.6479 54.2640 131.6161 0.0000 0.0000 0.0000
# 4 0.0000 0.0000 0.0000 18.4742 0.0000 0.0000
# 5 0.0000 0.0000 0.0000 0.0000 15.1729 0.0000
# 6 0.0000 0.0000 0.0000 0.0000 0.0000 17.7139
#
#
#
# Elastic Compliance Matrix: (Units=1/GPa)
#
#
# Indices 1 2 3 4 5 6 
#
# 1 0.020549 -0.003683 -0.001705 0.000000 0.000000 0.000000
# 2 -0.003683 0.013376 -0.004937 0.000000 0.000000 0.000000
# 3 -0.001705 -0.004937 0.009901 0.000000 0.000000 0.000000
# 4 0.000000 0.000000 0.000000 0.054130 0.000000 0.000000
# 5 0.000000 0.000000 0.000000 0.000000 0.065907 0.000000
# 6 0.000000 0.000000 0.000000 0.000000 0.000000 0.056453
#
#
# Mechanical properties :
#
#
# Convention : Reuss Voigt Hill
#
# Bulk Modulus (GPa) = 43.14918 53.56668 48.35793
# Shear Modulus (GPa) = 20.10534 22.90835 21.50684
#
# Velocity S-wave (km/s) = 3.33590 3.56085 3.45021
# Velocity P-wave (km/s) = 6.22257 6.82313 6.52976
#
# Compressibility (1/GPa) = 0.02317541
#
# Stress axis : x y z
#
# Youngs Moduli (GPa) = 48.66416 74.76288 101.00181
#
# Poissons Ratio (x) = 0.27534 0.17224
# Poissons Ratio (y) = 0.17922 0.49863
# Poissons Ratio (z) = 0.08299 0.36910
#
# Static dielectric constant tensor:
#      x y z
#    x 3.123210 0.000000 0.000000 
#    y 0.000000 3.481730 0.000000 
#    z 0.000000 0.000000 3.642460 
# 
# 
# High freq. dielectric constant tensor:
#      x y z
#    x 1.671670 0.000000 0.000000 
#    y 0.000000 1.690040 0.000000 
#    z 0.000000 0.000000 1.713160 
# 
# From -- ./inp_files/68806.got.cif
#   From: 2010.03.12/outbox.cif.g09.slc.cpg/sg63_35_cif.got.tgz:68806.got - 2010.04.10 19:34:48.
