data_PCOD8256447
_publ_section_title
;
Structure prediction by ZEFSAII (Michael W. Deem and Ramdas Pophale) SiO2 
 PCOD8256447
Probable space group: C M C M
;
_chemical_formula_sum "Si O2"
_cell_formula_units_Z 80
_cell_length_a 13.312340
_cell_length_b 17.858768
_cell_length_c 18.644431
_cell_angle_alpha 90.000000
_cell_angle_beta 90.000000
_cell_angle_gamma 90.000000
_cell_volume 4432.564158
_symmetry_space_group_name_H-M "C M C M"
_symmetry_group_IT_number 63
_symmetry_cell_setting 'orthorhombic'
loop_
_space_group_symop_operation_xyz
x,y,z
-x,-y,1/2+z
x,-y,-z
-x,y,1/2-z
-x,-y,-z
x,y,1/2-z
-x,y,z
x,-y,1/2+z
1/2+x,1/2+y,z
1/2-x,1/2-y,1/2+z
1/2+x,1/2-y,-z
1/2-x,1/2+y,1/2-z
1/2-x,1/2-y,-z
1/2+x,1/2+y,1/2-z
1/2-x,1/2+y,z
1/2+x,1/2-y,1/2+z
loop_
_atom_site_type_symbol
_atom_site_label
_atom_site_fract_x
_atom_site_fract_y
_atom_site_fract_z
Si Si1 0.117971 0.440644 0.092202
Si Si2 0.886975 0.751497 0.098409
Si Si3 0.808338 0.597237 0.436360
Si Si4 0.113216 0.183160 0.057331
Si Si5 0.693688 0.199240 0.832468
O O1 0.174340 0.519467 0.105084
O O2 0.152193 0.383981 0.153933
O O3 0.000000 0.455144 0.095688
O O4 0.146210 0.406224 0.015664
O O5 0.864259 0.663268 0.106637
O O6 0.812015 0.798569 0.148386
O O7 0.000000 0.769344 0.123328
O O8 0.867656 0.772497 0.016018
O O9 0.688778 0.613004 0.438722
O O10 0.131417 0.240929 0.121624
O O11 0.000000 0.151760 0.061869
O O12 0.677576 0.219682 0.750000
#
# Coordination Sequence:
#
# PCOD8256447 Si02
#       5
#    16  16  16  16  16
#     4  11  20  32  52  80 111 142 174 217 274 325
#     4  10  18  35  59  82 108 141 183 228 268 316
#     4  10  18  33  54  82 109 135 177 227 268 311
#     4  10  19  35  58  82 108 141 183 227 268 317
#     4  11  22  36  54  80 113 144 180 225 273 330
#
# _framework density 18.048242999999999
#
# number of rings (size 3 to 8) (size 9 to 14) (size 15 to 20)
#    0.000    1.600    4.000    4.200    0.000    2.000 
#    0.000    7.000    0.000    4.800    0.000    0.000 
#    0.000    0.000    0.000    0.000    0.000    0.000 
#
# Total GULP energy -496086.479458 kJ/mol
# GULP energy per Si atom -12402.161986 kJ/mol
# Density = 1.800716 g / cm^3
# Si number density = 18.048243 Si / 1000 Ang^3
#
#
#
# Elastic Constant Matrix: (Units=GPa)
#
#
# Indices 1 2 3 4 5 6 
#
# 1 120.6578 53.7489 1.2814 0.0000 0.0000 0.0000
# 2 53.7489 105.0021 20.5763 0.0000 0.0000 0.0000
# 3 1.2814 20.5763 66.0031 0.0000 0.0000 0.0000
# 4 0.0000 0.0000 0.0000 18.3186 0.0000 0.0000
# 5 0.0000 0.0000 0.0000 0.0000 6.8104 0.0000
# 6 0.0000 0.0000 0.0000 0.0000 0.0000 27.0065
#
#
#
# Elastic Compliance Matrix: (Units=1/GPa)
#
#
# Indices 1 2 3 4 5 6 
#
# 1 0.010898 -0.005897 0.001627 0.000000 0.000000 0.000000
# 2 -0.005897 0.013334 -0.004042 0.000000 0.000000 0.000000
# 3 0.001627 -0.004042 0.016379 0.000000 0.000000 0.000000
# 4 0.000000 0.000000 0.000000 0.054589 0.000000 0.000000
# 5 0.000000 0.000000 0.000000 0.000000 0.146835 0.000000
# 6 0.000000 0.000000 0.000000 0.000000 0.000000 0.037028
#
#
# Mechanical properties :
#
#
# Convention : Reuss Voigt Hill
#
# Bulk Modulus (GPa) = 41.69104 49.20846 45.44975
# Shear Modulus (GPa) = 16.46446 24.83086 20.64766
#
# Velocity S-wave (km/s) = 3.02362 3.71321 3.38601
# Velocity P-wave (km/s) = 5.94471 6.76077 6.36583
#
# Compressibility (1/GPa) = 0.02398597
#
# Stress axis : x y z
#
# Youngs Moduli (GPa) = 91.76349 74.99394 61.05211
#
# Poissons Ratio (x) = 0.44225 -0.09932
# Poissons Ratio (y) = 0.54114 0.24680
# Poissons Ratio (z) = -0.14928 0.30316
#
# Static dielectric constant tensor:
#      x y z
#    x 3.575730 0.000000 0.000000 
#    y 0.000000 3.346010 0.000000 
#    z 0.000000 0.000000 3.024690 
# 
# 
# High freq. dielectric constant tensor:
#      x y z
#    x 1.714590 0.000000 0.000000 
#    y 0.000000 1.690580 0.000000 
#    z 0.000000 0.000000 1.665690 
# 
# From -- ./inp_files/43979.got.cif
#   From: 2010.03.12/outbox.cif.g09.slc.cpg/sg63_22_cif.got.tgz:43979.got - 2010.04.10 19:34:48.
