data_PCOD8256486
_publ_section_title
;
Structure prediction by ZEFSAII (Michael W. Deem and Ramdas Pophale) SiO2 
 PCOD8256486
Probable space group: C M C M
;
_chemical_formula_sum "Si O2"
_cell_formula_units_Z 56
_cell_length_a 12.857256
_cell_length_b 26.007076
_cell_length_c 10.060969
_cell_angle_alpha 90.000000
_cell_angle_beta 90.000000
_cell_angle_gamma 90.000000
_cell_volume 3364.183131
_symmetry_space_group_name_H-M "C M C M"
_symmetry_group_IT_number 63
_symmetry_cell_setting 'orthorhombic'
loop_
_space_group_symop_operation_xyz
x,y,z
-x,-y,1/2+z
x,-y,-z
-x,y,1/2-z
-x,-y,-z
x,y,1/2-z
-x,y,z
x,-y,1/2+z
1/2+x,1/2+y,z
1/2-x,1/2-y,1/2+z
1/2+x,1/2-y,-z
1/2-x,1/2+y,1/2-z
1/2-x,1/2-y,-z
1/2+x,1/2+y,1/2-z
1/2-x,1/2+y,z
1/2+x,1/2-y,1/2+z
loop_
_atom_site_type_symbol
_atom_site_label
_atom_site_fract_x
_atom_site_fract_y
_atom_site_fract_z
Si Si1 0.880302 0.200101 0.750000
Si Si2 0.262824 0.193990 0.250000
Si Si3 0.293733 0.453870 0.602550
Si Si4 0.618547 0.652074 0.027714
Si Si5 0.620662 0.907047 0.750000
O O1 0.806740 0.249243 0.750000
O O2 0.853787 0.165160 0.623640
O O3 0.000000 0.218253 0.750000
O O4 0.192172 0.185907 0.120787
O O5 0.358977 0.154031 0.250000
O O6 0.297126 0.500000 0.500000
O O7 0.333834 0.471246 0.750000
O O8 0.366949 0.408662 0.548997
O O9 0.175480 0.432044 0.618954
O O10 0.500000 0.666532 0.061507
O O11 0.500000 0.919993 0.750000
#
# Coordination Sequence:
#
# PCOD8256486 Si02
#       5
#     8   8  16  16   8
#     4  10  21  32  52  79 101 132 170 207 249 299
#     4  10  18  34  54  74 100 136 168 206 248 296
#     4   9  20  34  52  77 100 132 169 207 253 299
#     4  10  20  35  52  75 105 134 167 206 251 301
#     4   8  17  32  52  73 101 130 164 207 249 295
#
# _framework density 16.645942999999999
#
# number of rings (size 3 to 8) (size 9 to 14) (size 15 to 20)
#    0.857    1.714    1.429    1.714    2.000    1.143 
#    0.000    0.000    0.000    1.714    0.000    0.000 
#    0.000    0.000    0.000    0.000    0.000    0.000 
#
# Total GULP energy -347020.895326 kJ/mol
# GULP energy per Si atom -12393.603405 kJ/mol
# Density = 1.660806 g / cm^3
# Si number density = 16.645943 Si / 1000 Ang^3
#
#
#
# Elastic Constant Matrix: (Units=GPa)
#
#
# Indices 1 2 3 4 5 6 
#
# 1 66.5306 32.0554 47.0725 0.0000 0.0000 0.0000
# 2 32.0554 98.8450 66.5003 0.0000 0.0000 0.0000
# 3 47.0725 66.5003 143.2284 0.0000 0.0000 0.0000
# 4 0.0000 0.0000 0.0000 32.3959 0.0000 0.0000
# 5 0.0000 0.0000 0.0000 0.0000 10.6319 0.0000
# 6 0.0000 0.0000 0.0000 0.0000 0.0000 16.5835
#
#
#
# Elastic Compliance Matrix: (Units=1/GPa)
#
#
# Indices 1 2 3 4 5 6 
#
# 1 0.020190 -0.003030 -0.005229 0.000000 0.000000 0.000000
# 2 -0.003030 0.015167 -0.006046 0.000000 0.000000 0.000000
# 3 -0.005229 -0.006046 0.011508 0.000000 0.000000 0.000000
# 4 0.000000 0.000000 0.000000 0.030868 0.000000 0.000000
# 5 0.000000 0.000000 0.000000 0.000000 0.094056 0.000000
# 6 0.000000 0.000000 0.000000 0.000000 0.000000 0.060301
#
#
# Mechanical properties :
#
#
# Convention : Reuss Voigt Hill
#
# Bulk Modulus (GPa) = 54.77957 66.65116 60.71537
# Shear Modulus (GPa) = 18.74169 22.78731 20.76450
#
# Velocity S-wave (km/s) = 3.35909 3.70393 3.53572
# Velocity P-wave (km/s) = 6.92999 7.64327 7.29535
#
# Compressibility (1/GPa) = 0.01825498
#
# Stress axis : x y z
#
# Youngs Moduli (GPa) = 49.52942 65.93162 86.89915
#
# Poissons Ratio (x) = 0.19976 0.45438
# Poissons Ratio (y) = 0.15007 0.52542
# Poissons Ratio (z) = 0.25898 0.39864
#
# Static dielectric constant tensor:
#      x y z
#    x 2.966370 0.000000 0.000000 
#    y 0.000000 2.995540 0.000000 
#    z 0.000000 0.000000 3.173440 
# 
# 
# High freq. dielectric constant tensor:
#      x y z
#    x 1.633100 0.000000 0.000000 
#    y 0.000000 1.636140 0.000000 
#    z 0.000000 0.000000 1.644800 
# 
# From -- ./inp_files/3055.got.cif
#   From: 2010.03.12/outbox.cif.g09.slc.cpg/sg63_2_cif.got.tgz:3055.got - 2010.04.10 19:34:48.
