data_PCOD8256626
_publ_section_title
;
Structure prediction by ZEFSAII (Michael W. Deem and Ramdas Pophale) SiO2 
 PCOD8256626
Probable space group: C M C M
;
_chemical_formula_sum "Si O2"
_cell_formula_units_Z 128
_cell_length_a 18.050076
_cell_length_b 25.619630
_cell_length_c 18.750844
_cell_angle_alpha 90.000000
_cell_angle_beta 90.000000
_cell_angle_gamma 90.000000
_cell_volume 8671.070332
_symmetry_space_group_name_H-M "C M C M"
_symmetry_group_IT_number 63
_symmetry_cell_setting 'orthorhombic'
loop_
_space_group_symop_operation_xyz
x,y,z
-x,-y,1/2+z
x,-y,-z
-x,y,1/2-z
-x,-y,-z
x,y,1/2-z
-x,y,z
x,-y,1/2+z
1/2+x,1/2+y,z
1/2-x,1/2-y,1/2+z
1/2+x,1/2-y,-z
1/2-x,1/2+y,1/2-z
1/2-x,1/2-y,-z
1/2+x,1/2+y,1/2-z
1/2-x,1/2+y,z
1/2+x,1/2-y,1/2+z
loop_
_atom_site_type_symbol
_atom_site_label
_atom_site_fract_x
_atom_site_fract_y
_atom_site_fract_z
Si Si1 0.665896 0.026102 0.575021
Si Si2 0.585039 0.863919 0.062429
Si Si3 0.417959 0.364908 0.165164
Si Si4 0.718188 0.573328 0.829606
Si Si5 0.912414 0.558237 0.169517
Si Si6 0.162747 0.762129 0.333894
Si Si7 0.692482 0.180333 0.828805
Si Si8 0.415055 0.165397 0.099649
O O1 0.622590 0.079696 0.563466
O O2 0.744113 0.033734 0.615215
O O3 0.684095 0.000000 0.500000
O O4 0.615331 0.989579 0.622994
O O5 0.500000 0.870100 0.086319
O O6 0.625105 0.823356 0.115681
O O7 0.591206 0.839458 0.984745
O O8 0.418064 0.362394 0.250000
O O9 0.500000 0.375095 0.134097
O O10 0.364312 0.412588 0.141857
O O11 0.387926 0.309495 0.136839
O O12 0.715538 0.548399 0.750000
O O13 0.763911 0.626385 0.825954
O O14 0.882037 0.553124 0.250000
O O15 0.885280 0.612715 0.136400
O O16 0.000000 0.555959 0.167687
O O17 0.150211 0.753458 0.250000
O O18 0.249201 0.774328 0.350481
O O19 0.139405 0.710790 0.375842
O O20 0.659765 0.192063 0.750000
O O21 0.500000 0.177078 0.122753
#
# Coordination Sequence:
#
# PCOD8256626 Si02
#       8
#    16  16  16  16  16  16  16  16
#     4  11  19  30  45  58  81 117 151 181 217 255
#     4  10  20  31  44  62  86 115 147 182 221 256
#     4   8  13  23  42  66  87 107 131 162 206 259
#     4   8  15  27  42  62  85 106 135 175 211 249
#     4  10  20  31  43  61  84 112 148 185 216 250
#     4   9  16  27  44  64  88 115 138 165 207 258
#     4   8  16  30  45  63  85 109 141 178 210 249
#     4  10  19  29  41  62  91 117 140 173 214 257
#
# _framework density 14.76173
#
# number of rings (size 3 to 8) (size 9 to 14) (size 15 to 20)
#    0.000    2.750    1.250    3.000    0.000    3.000 
#    0.000    0.000    0.000    0.375    0.000    0.000 
#    0.000    1.000    0.000    4.375    0.000    0.000 
#
# Total GULP energy -793365.605405 kJ/mol
# GULP energy per Si atom -12396.337584 kJ/mol
# Density = 1.472813 g / cm^3
# Si number density = 14.761730 Si / 1000 Ang^3
#
#
#
# Elastic Constant Matrix: (Units=GPa)
#
#
# Indices 1 2 3 4 5 6 
#
# 1 82.0796 37.6837 40.0426 0.0000 0.0000 0.0000
# 2 37.6837 62.7178 34.7564 0.0000 0.0000 0.0000
# 3 40.0426 34.7564 76.0761 0.0000 0.0000 0.0000
# 4 0.0000 0.0000 0.0000 18.9341 0.0000 0.0000
# 5 0.0000 0.0000 0.0000 0.0000 19.2287 0.0000
# 6 0.0000 0.0000 0.0000 0.0000 0.0000 23.1510
#
#
#
# Elastic Compliance Matrix: (Units=1/GPa)
#
#
# Indices 1 2 3 4 5 6 
#
# 1 0.018876 -0.007814 -0.006366 0.000000 0.000000 0.000000
# 2 -0.007814 0.024585 -0.007119 0.000000 0.000000 0.000000
# 3 -0.006366 -0.007119 0.019748 0.000000 0.000000 0.000000
# 4 0.000000 0.000000 0.000000 0.052815 0.000000 0.000000
# 5 0.000000 0.000000 0.000000 0.000000 0.052006 0.000000
# 6 0.000000 0.000000 0.000000 0.000000 0.000000 0.043195
#
#
# Mechanical properties :
#
#
# Convention : Reuss Voigt Hill
#
# Bulk Modulus (GPa) = 48.51676 49.53765 49.02720
# Shear Modulus (GPa) = 19.17979 19.48880 19.33429
#
# Velocity S-wave (km/s) = 3.60848 3.63743 3.62298
# Velocity P-wave (km/s) = 7.09221 7.16046 7.12642
#
# Compressibility (1/GPa) = 0.02061143
#
# Stress axis : x y z
#
# Youngs Moduli (GPa) = 52.97652 40.67588 50.63916
#
# Poissons Ratio (x) = 0.31785 0.32235
# Poissons Ratio (y) = 0.41397 0.36049
# Poissons Ratio (z) = 0.33722 0.28957
#
# Static dielectric constant tensor:
#      x y z
#    x 3.032410 0.000000 0.000000 
#    y 0.000000 2.756330 0.000000 
#    z 0.000000 0.000000 2.923450 
# 
# 
# High freq. dielectric constant tensor:
#      x y z
#    x 1.553610 0.000000 0.000000 
#    y 0.000000 1.546370 0.000000 
#    z 0.000000 0.000000 1.558140 
# 
# From -- ./inp_files/47575.got.cif
#   From: 2010.03.12/outbox.cif.g09.slc.cpg/sg63_24_cif.got.tgz:47575.got - 2010.04.10 19:34:48.
