data_PCOD8256545
_publ_section_title
;
Structure prediction by ZEFSAII (Michael W. Deem and Ramdas Pophale) SiO2 
 PCOD8256545
Probable space group: C M C M
;
_chemical_formula_sum "Si O2"
_cell_formula_units_Z 96
_cell_length_a 8.664729
_cell_length_b 24.952787
_cell_length_c 21.924511
_cell_angle_alpha 90.000000
_cell_angle_beta 90.000000
_cell_angle_gamma 90.000000
_cell_volume 4740.279606
_symmetry_space_group_name_H-M "C M C M"
_symmetry_group_IT_number 63
_symmetry_cell_setting 'orthorhombic'
loop_
_space_group_symop_operation_xyz
x,y,z
-x,-y,1/2+z
x,-y,-z
-x,y,1/2-z
-x,-y,-z
x,y,1/2-z
-x,y,z
x,-y,1/2+z
1/2+x,1/2+y,z
1/2-x,1/2-y,1/2+z
1/2+x,1/2-y,-z
1/2-x,1/2+y,1/2-z
1/2-x,1/2-y,-z
1/2+x,1/2+y,1/2-z
1/2-x,1/2+y,z
1/2+x,1/2-y,1/2+z
loop_
_atom_site_type_symbol
_atom_site_label
_atom_site_fract_x
_atom_site_fract_y
_atom_site_fract_z
Si Si1 0.179370 0.541275 0.142702
Si Si2 0.316295 0.157474 0.582718
Si Si3 0.681198 0.075448 0.681238
Si Si4 0.324297 0.601655 0.250000
Si Si5 0.319371 0.871807 0.951429
Si Si6 0.684268 0.767056 0.618028
Si Si7 0.679383 0.786921 0.750000
O O1 0.216628 0.478161 0.142210
O O2 0.293628 0.566033 0.191401
O O3 0.218500 0.570186 0.078316
O O4 0.000000 0.551214 0.160583
O O5 0.500000 0.158870 0.584854
O O6 0.250836 0.124458 0.641060
O O7 0.255328 0.129410 0.520495
O O8 0.251879 0.217424 0.581076
O O9 0.754205 0.074516 0.750000
O O10 0.500000 0.082421 0.688522
O O11 0.500000 0.622221 0.250000
O O12 0.205265 0.649957 0.250000
O O13 0.500000 0.862395 0.953994
O O14 0.251588 0.822404 0.911324
O O15 0.500000 0.765538 0.616722
O O16 0.749238 0.762360 0.687670
O O17 0.500000 0.775752 0.750000
#
# Coordination Sequence:
#
# PCOD8256545 Si02
#       7
#    16  16  16   8  16  16   8
#     4  10  18  35  60  77 103 146 184 216 263 325
#     4  10  21  35  52  80 114 141 177 228 270 311
#     4   9  18  32  54  80 106 141 180 217 266 319
#     4  12  22  32  51  86 117 133 170 228 282 319
#     4   9  18  33  56  82 105 138 183 227 267 314
#     4  10  20  35  55  78 105 144 186 215 261 329
#     4  10  20  36  57  78 105 139 182 226 260 321
#
# _framework density 20.251968999999999
#
# number of rings (size 3 to 8) (size 9 to 14) (size 15 to 20)
#    0.000    2.167    2.500    1.250    1.167    1.333 
#    0.000    5.000    0.000    0.000    0.000    2.333 
#    0.000    0.000    0.000    0.000    0.000    0.000 
#
# Total GULP energy -594907.645027 kJ/mol
# GULP energy per Si atom -12393.909271 kJ/mol
# Density = 2.020587 g / cm^3
# Si number density = 20.251969 Si / 1000 Ang^3
#
#
#
# Elastic Constant Matrix: (Units=GPa)
#
#
# Indices 1 2 3 4 5 6 
#
# 1 8.3936 3.8874 13.9599 0.0000 0.0000 0.0000
# 2 3.8874 102.5735 51.2627 0.0000 0.0000 0.0000
# 3 13.9599 51.2627 142.2518 0.0000 0.0000 0.0000
# 4 0.0000 0.0000 0.0000 36.1626 0.0000 0.0000
# 5 0.0000 0.0000 0.0000 0.0000 29.8543 0.0000
# 6 0.0000 0.0000 0.0000 0.0000 0.0000 19.8163
#
#
#
# Elastic Compliance Matrix: (Units=1/GPa)
#
#
# Indices 1 2 3 4 5 6 
#
# 1 0.142692 0.001940 -0.014702 0.000000 0.000000 0.000000
# 2 0.001940 0.011917 -0.004485 0.000000 0.000000 0.000000
# 3 -0.014702 -0.004485 0.010089 0.000000 0.000000 0.000000
# 4 0.000000 0.000000 0.000000 0.027653 0.000000 0.000000
# 5 0.000000 0.000000 0.000000 0.000000 0.033496 0.000000
# 6 0.000000 0.000000 0.000000 0.000000 0.000000 0.050464
#
#
# Mechanical properties :
#
#
# Convention : Reuss Voigt Hill
#
# Bulk Modulus (GPa) = 7.68030 43.49322 25.58676
# Shear Modulus (GPa) = 14.11611 29.44058 21.77834
#
# Velocity S-wave (km/s) = 2.64299 3.81690 3.28284
# Velocity P-wave (km/s) = 3.62139 6.39903 5.19914
#
# Compressibility (1/GPa) = 0.13020318
#
# Stress axis : x y z
#
# Youngs Moduli (GPa) = 7.00811 83.91407 99.12009
#
# Poissons Ratio (x) = -0.16278 1.45728
# Poissons Ratio (y) = -0.01359 0.44454
# Poissons Ratio (z) = 0.10303 0.37634
#
# Static dielectric constant tensor:
#      x y z
#    x 3.098550 0.000000 0.000000 
#    y 0.000000 3.700600 0.000000 
#    z 0.000000 0.000000 4.219000 
# 
# 
# High freq. dielectric constant tensor:
#      x y z
#    x 1.733500 0.000000 0.000000 
#    y 0.000000 1.790980 0.000000 
#    z 0.000000 0.000000 1.803670 
# 
# From -- ./inp_files/60093.got.cif
#   From: 2010.03.12/outbox.cif.g09.slc.cpg/sg63_31_cif.got.tgz:60093.got - 2010.04.10 19:34:48.
