data_PCOD8256777
_publ_section_title
;
Structure prediction by ZEFSAII (Michael W. Deem and Ramdas Pophale) SiO2 
 PCOD8256777
Probable space group: C M C M
;
_chemical_formula_sum "Si O2"
_cell_formula_units_Z 96
_cell_length_a 8.075865
_cell_length_b 30.423518
_cell_length_c 20.593769
_cell_angle_alpha 90.000000
_cell_angle_beta 90.000000
_cell_angle_gamma 90.000000
_cell_volume 5059.811285
_symmetry_space_group_name_H-M "C M C M"
_symmetry_group_IT_number 63
_symmetry_cell_setting 'orthorhombic'
loop_
_space_group_symop_operation_xyz
x,y,z
-x,-y,1/2+z
x,-y,-z
-x,y,1/2-z
-x,-y,-z
x,y,1/2-z
-x,y,z
x,-y,1/2+z
1/2+x,1/2+y,z
1/2-x,1/2-y,1/2+z
1/2+x,1/2-y,-z
1/2-x,1/2+y,1/2-z
1/2-x,1/2-y,-z
1/2+x,1/2+y,1/2-z
1/2-x,1/2+y,z
1/2+x,1/2-y,1/2+z
loop_
_atom_site_type_symbol
_atom_site_label
_atom_site_fract_x
_atom_site_fract_y
_atom_site_fract_z
Si Si1 0.000000 0.064811 0.942554
Si Si2 0.178229 0.579555 0.396371
Si Si3 0.317708 0.113694 0.537590
Si Si4 0.000000 0.967111 0.590461
Si Si5 0.191790 0.751566 0.177522
Si Si6 0.314259 0.343152 0.824463
Si Si7 0.306869 0.291227 0.457037
O O1 0.836579 0.093184 0.921759
O O2 0.000000 0.019495 0.903431
O O3 0.000000 0.053027 0.018514
O O4 0.177062 0.584809 0.473189
O O5 0.332135 0.549234 0.373565
O O6 0.189518 0.628002 0.366122
O O7 0.000000 0.558875 0.375105
O O8 0.500000 0.109226 0.571883
O O9 0.286844 0.164872 0.520724
O O10 0.239584 0.769897 0.250000
O O11 0.293474 0.708068 0.160822
O O12 0.233534 0.785591 0.120011
O O13 0.000000 0.738736 0.176205
O O14 0.276785 0.353207 0.750000
O O15 0.500000 0.356534 0.844166
O O16 0.500000 0.298280 0.468734
O O17 0.250000 0.250000 0.500000
#
# Coordination Sequence:
#
# PCOD8256777 Si02
#       7
#     8  16  16   8  16  16  16
#     4   9  18  34  52  72 102 134 164 204 259 306
#     4  10  19  31  49  73 102 134 166 203 253 306
#     4  10  20  33  50  74 103 135 170 208 254 308
#     4   9  18  32  51  74 100 130 165 208 249 309
#     4   9  19  34  49  68  98 137 179 218 256 303
#     4  10  19  30  46  69  99 136 172 207 252 305
#     4  11  21  32  49  74 104 138 175 218 266 309
#
# _framework density 18.973039
#
# number of rings (size 3 to 8) (size 9 to 14) (size 15 to 20)
#    0.000    2.167    1.667    2.000    0.000    7.000 
#    0.000    3.333    0.000    0.000    0.000    2.333 
#    0.000    0.000    0.000    0.000    0.000    0.000 
#
# Total GULP energy -594843.592950 kJ/mol
# GULP energy per Si atom -12392.574853 kJ/mol
# Density = 1.892986 g / cm^3
# Si number density = 18.973039 Si / 1000 Ang^3
#
#
#
# Elastic Constant Matrix: (Units=GPa)
#
#
# Indices 1 2 3 4 5 6 
#
# 1 153.3848 52.2382 16.3434 0.0000 0.0000 0.0000
# 2 52.2382 81.2389 3.7312 0.0000 0.0000 0.0000
# 3 16.3434 3.7312 32.8536 0.0000 0.0000 0.0000
# 4 0.0000 0.0000 0.0000 17.4937 0.0000 0.0000
# 5 0.0000 0.0000 0.0000 0.0000 17.4068 0.0000
# 6 0.0000 0.0000 0.0000 0.0000 0.0000 24.7424
#
#
#
# Elastic Compliance Matrix: (Units=1/GPa)
#
#
# Indices 1 2 3 4 5 6 
#
# 1 0.008784 -0.005476 -0.003748 0.000000 0.000000 0.000000
# 2 -0.005476 0.015788 0.000931 0.000000 0.000000 0.000000
# 3 -0.003748 0.000931 0.032197 0.000000 0.000000 0.000000
# 4 0.000000 0.000000 0.000000 0.057164 0.000000 0.000000
# 5 0.000000 0.000000 0.000000 0.000000 0.057449 0.000000
# 6 0.000000 0.000000 0.000000 0.000000 0.000000 0.040416
#
#
# Mechanical properties :
#
#
# Convention : Reuss Voigt Hill
#
# Bulk Modulus (GPa) = 24.88613 45.78920 35.33767
# Shear Modulus (GPa) = 20.68024 24.93956 22.80990
#
# Velocity S-wave (km/s) = 3.30507 3.62950 3.47108
# Velocity P-wave (km/s) = 5.26400 6.46147 5.89323
#
# Compressibility (1/GPa) = 0.04018303
#
# Stress axis : x y z
#
# Youngs Moduli (GPa) = 113.84529 63.34001 31.05907
#
# Poissons Ratio (x) = 0.34685 0.11640
# Poissons Ratio (y) = 0.62342 -0.02892
# Poissons Ratio (z) = 0.42666 -0.05898
#
# Static dielectric constant tensor:
#      x y z
#    x 4.047000 0.000000 0.000000 
#    y 0.000000 3.257940 0.000000 
#    z 0.000000 0.000000 3.267730 
# 
# 
# High freq. dielectric constant tensor:
#      x y z
#    x 1.761220 0.000000 0.000000 
#    y 0.000000 1.711780 0.000000 
#    z 0.000000 0.000000 1.690860 
# 
# From -- ./inp_files/60100.got.cif
#   From: 2010.03.12/outbox.cif.g09.slc.cpg/sg63_31_cif.got.tgz:60100.got - 2010.04.10 19:34:48.
