data_PCOD8256748
_publ_section_title
;
Structure prediction by ZEFSAII (Michael W. Deem and Ramdas Pophale) SiO2 
 PCOD8256748
Probable space group: C M C M
;
_chemical_formula_sum "Si O2"
_cell_formula_units_Z 96
_cell_length_a 8.894077
_cell_length_b 23.478201
_cell_length_c 23.812531
_cell_angle_alpha 90.000000
_cell_angle_beta 90.000000
_cell_angle_gamma 90.000000
_cell_volume 4972.459560
_symmetry_space_group_name_H-M "C M C M"
_symmetry_group_IT_number 63
_symmetry_cell_setting 'orthorhombic'
loop_
_space_group_symop_operation_xyz
x,y,z
-x,-y,1/2+z
x,-y,-z
-x,y,1/2-z
-x,-y,-z
x,y,1/2-z
-x,y,z
x,-y,1/2+z
1/2+x,1/2+y,z
1/2-x,1/2-y,1/2+z
1/2+x,1/2-y,-z
1/2-x,1/2+y,1/2-z
1/2-x,1/2-y,-z
1/2+x,1/2+y,1/2-z
1/2-x,1/2+y,z
1/2+x,1/2-y,1/2+z
loop_
_atom_site_type_symbol
_atom_site_label
_atom_site_fract_x
_atom_site_fract_y
_atom_site_fract_z
Si Si1 0.676974 0.644772 0.907052
Si Si2 0.828397 0.054413 0.131355
Si Si3 0.830002 0.829339 0.686509
Si Si4 0.177134 0.874108 0.970614
Si Si5 0.819913 0.059516 0.686049
Si Si6 0.323950 0.772186 0.588459
O O1 0.500000 0.649865 0.899373
O O2 0.741028 0.611643 0.852540
O O3 0.743630 0.708249 0.912813
O O4 0.715082 0.610308 0.964757
O O5 0.811888 0.103031 0.178223
O O6 0.757026 0.077681 0.072146
O O7 0.000000 0.038616 0.118732
O O8 0.752079 0.997673 0.156862
O O9 0.794670 0.813571 0.750000
O O10 0.708675 0.795722 0.650389
O O11 0.000000 0.811574 0.669498
O O12 0.243310 0.811608 0.957574
O O13 0.000000 0.868832 0.960190
O O14 0.759016 0.066046 0.750000
O O15 0.000000 0.057189 0.687282
O O16 0.500000 0.772959 0.575969
#
# Coordination Sequence:
#
# PCOD8256748 Si02
#       6
#    16  16  16  16  16  16
#     4   9  18  29  42  64  94 126 155 187 229 278
#     4   8  14  25  44  68  91 116 147 188 235 278
#     4   9  17  30  48  70  95 123 157 196 235 274
#     4   9  17  31  49  69  93 119 153 195 236 276
#     4   9  16  26  41  64  95 125 149 181 232 284
#     4  10  19  30  45  68  96 124 157 193 232 277
#
# _framework density 19.306342000000001
#
# number of rings (size 3 to 8) (size 9 to 14) (size 15 to 20)
#    0.000    3.000    0.000    2.500    0.000    3.667 
#    0.000    5.833    0.000    0.000    0.000   18.667 
#    0.000   16.000    0.000    0.000    0.000    0.000 
#
# Total GULP energy -594757.991556 kJ/mol
# GULP energy per Si atom -12390.791491 kJ/mol
# Density = 1.926240 g / cm^3
# Si number density = 19.306342 Si / 1000 Ang^3
#
#
#
# Elastic Constant Matrix: (Units=GPa)
#
#
# Indices 1 2 3 4 5 6 
#
# 1 18.0414 10.8048 10.6747 0.0000 0.0000 0.0000
# 2 10.8048 102.6133 66.6115 0.0000 0.0000 0.0000
# 3 10.6747 66.6115 151.5761 0.0000 0.0000 0.0000
# 4 0.0000 0.0000 0.0000 20.1303 0.0000 0.0000
# 5 0.0000 0.0000 0.0000 0.0000 16.3661 0.0000
# 6 0.0000 0.0000 0.0000 0.0000 0.0000 15.9504
#
#
#
# Elastic Compliance Matrix: (Units=1/GPa)
#
#
# Indices 1 2 3 4 5 6 
#
# 1 0.059595 -0.004968 -0.002014 0.000000 0.000000 0.000000
# 2 -0.004968 0.014049 -0.005824 0.000000 0.000000 0.000000
# 3 -0.002014 -0.005824 0.009299 0.000000 0.000000 0.000000
# 4 0.000000 0.000000 0.000000 0.049676 0.000000 0.000000
# 5 0.000000 0.000000 0.000000 0.000000 0.061102 0.000000
# 6 0.000000 0.000000 0.000000 0.000000 0.000000 0.062694
#
#
# Mechanical properties :
#
#
# Convention : Reuss Voigt Hill
#
# Bulk Modulus (GPa) = 17.44261 49.82365 33.63313
# Shear Modulus (GPa) = 16.60375 22.76536 19.68456
#
# Velocity S-wave (km/s) = 2.93578 3.43762 3.19657
# Velocity P-wave (km/s) = 4.53277 6.45130 5.57518
#
# Compressibility (1/GPa) = 0.05733086
#
# Stress axis : x y z
#
# Youngs Moduli (GPa) = 16.78004 71.17846 107.54243
#
# Poissons Ratio (x) = 0.35360 0.21657
# Poissons Ratio (y) = 0.08336 0.62635
# Poissons Ratio (z) = 0.03379 0.41456
#
# Static dielectric constant tensor:
#      x y z
#    x 2.917290 0.000000 0.000000 
#    y 0.000000 3.660590 0.000000 
#    z 0.000000 0.000000 3.793550 
# 
# 
# High freq. dielectric constant tensor:
#      x y z
#    x 1.682030 0.000000 0.000000 
#    y 0.000000 1.746460 0.000000 
#    z 0.000000 0.000000 1.766540 
# 
# From -- ./inp_files/59866.got.cif
#   From: 2010.03.12/outbox.cif.g09.slc.cpg/sg63_30_cif.got.tgz:59866.got - 2010.04.10 19:34:48.
