data_PCOD8256371
_publ_section_title
;
Structure prediction by ZEFSAII (Michael W. Deem and Ramdas Pophale) SiO2 
 PCOD8256371
Probable space group: C M C M
;
_chemical_formula_sum "Si O2"
_cell_formula_units_Z 112
_cell_length_a 12.814993
_cell_length_b 21.513048
_cell_length_c 23.155457
_cell_angle_alpha 90.000000
_cell_angle_beta 90.000000
_cell_angle_gamma 90.000000
_cell_volume 6383.717741
_symmetry_space_group_name_H-M "C M C M"
_symmetry_group_IT_number 63
_symmetry_cell_setting 'orthorhombic'
loop_
_space_group_symop_operation_xyz
x,y,z
-x,-y,1/2+z
x,-y,-z
-x,y,1/2-z
-x,-y,-z
x,y,1/2-z
-x,y,z
x,-y,1/2+z
1/2+x,1/2+y,z
1/2-x,1/2-y,1/2+z
1/2+x,1/2-y,-z
1/2-x,1/2+y,1/2-z
1/2-x,1/2-y,-z
1/2+x,1/2+y,1/2-z
1/2-x,1/2+y,z
1/2+x,1/2-y,1/2+z
loop_
_atom_site_type_symbol
_atom_site_label
_atom_site_fract_x
_atom_site_fract_y
_atom_site_fract_z
Si Si1 0.118906 0.991700 0.932345
Si Si2 0.118144 0.374717 0.016881
Si Si3 0.740072 0.625980 0.089314
Si Si4 0.120876 0.427499 0.817501
Si Si5 0.308071 0.947335 0.122894
Si Si6 0.618501 0.165023 0.685862
Si Si7 0.880697 0.749112 0.582147
O O1 0.143735 0.921825 0.911127
O O2 0.000000 0.007162 0.916928
O O3 0.189666 0.039239 0.896095
O O4 0.140558 0.000000 0.000000
O O5 0.126572 0.426375 0.066796
O O6 0.153656 0.306844 0.039927
O O7 0.000000 0.371341 0.995687
O O8 0.185145 0.395465 0.962429
O O9 0.805270 0.622474 0.149358
O O10 0.697985 0.694133 0.075513
O O11 0.153221 0.429971 0.750000
O O12 0.137410 0.494129 0.847260
O O13 0.000000 0.407892 0.823659
O O14 0.304498 0.890626 0.167979
O O15 0.646297 0.186331 0.750000
O O16 0.500000 0.139439 0.680105
O O17 0.631653 0.226183 0.647653
O O18 0.000000 0.769602 0.569436
#
# Coordination Sequence:
#
# PCOD8256371 Si02
#       7
#    16  16  16  16  16  16  16
#     4  10  20  34  49  71 103 137 172 203 239 295
#     4  10  19  32  51  79 104 125 158 210 263 307
#     4  11  20  33  52  73 102 137 171 203 249 301
#     4  10  21  34  50  74 102 134 168 203 247 299
#     4  10  18  32  54  77 101 130 163 205 254 304
#     4   9  17  31  54  80 103 129 164 211 260 301
#     4   9  19  33  50  74 103 131 168 209 250 299
#
# _framework density 17.544636000000001
#
# number of rings (size 3 to 8) (size 9 to 14) (size 15 to 20)
#    0.000    2.143    1.429    3.857    0.000    1.714 
#    0.000    2.143    0.000   17.571    0.000    0.000 
#    0.000    0.000    0.000    0.000    0.000    0.000 
#
# Total GULP energy -694336.701066 kJ/mol
# GULP energy per Si atom -12398.869662 kJ/mol
# Density = 1.750470 g / cm^3
# Si number density = 17.544636 Si / 1000 Ang^3
#
#
#
# Elastic Constant Matrix: (Units=GPa)
#
#
# Indices 1 2 3 4 5 6 
#
# 1 80.0000 27.0725 31.2420 0.0000 0.0000 0.0000
# 2 27.0725 55.0740 11.1014 0.0000 0.0000 0.0000
# 3 31.2420 11.1014 89.4022 0.0000 0.0000 0.0000
# 4 0.0000 0.0000 0.0000 15.3372 0.0000 0.0000
# 5 0.0000 0.0000 0.0000 0.0000 25.6799 0.0000
# 6 0.0000 0.0000 0.0000 0.0000 0.0000 26.4804
#
#
#
# Elastic Compliance Matrix: (Units=1/GPa)
#
#
# Indices 1 2 3 4 5 6 
#
# 1 0.016931 -0.007313 -0.005008 0.000000 0.000000 0.000000
# 2 -0.007313 0.021782 -0.000149 0.000000 0.000000 0.000000
# 3 -0.005008 -0.000149 0.012954 0.000000 0.000000 0.000000
# 4 0.000000 0.000000 0.000000 0.065201 0.000000 0.000000
# 5 0.000000 0.000000 0.000000 0.000000 0.038941 0.000000
# 6 0.000000 0.000000 0.000000 0.000000 0.000000 0.037764
#
#
# Mechanical properties :
#
#
# Convention : Reuss Voigt Hill
#
# Bulk Modulus (GPa) = 37.41699 40.36756 38.89227
# Shear Modulus (GPa) = 21.98548 23.83683 22.91115
#
# Velocity S-wave (km/s) = 3.54378 3.68997 3.61761
# Velocity P-wave (km/s) = 6.17394 6.41973 6.29803
#
# Compressibility (1/GPa) = 0.02672583
#
# Stress axis : x y z
#
# Youngs Moduli (GPa) = 59.06442 45.90894 77.19527
#
# Poissons Ratio (x) = 0.33573 0.38663
# Poissons Ratio (y) = 0.43194 0.01152
# Poissons Ratio (z) = 0.29582 0.00685
#
# Static dielectric constant tensor:
#      x y z
#    x 3.144290 0.000000 0.000000 
#    y 0.000000 3.092730 0.000000 
#    z 0.000000 0.000000 3.350550 
# 
# 
# High freq. dielectric constant tensor:
#      x y z
#    x 1.667150 0.000000 0.000000 
#    y 0.000000 1.668890 0.000000 
#    z 0.000000 0.000000 1.680680 
# 
# From -- ./inp_files/61770.got.cif
#   From: 2010.03.12/outbox.cif.g09.slc.cpg/sg63_31_cif.got.tgz:61770.got - 2010.04.10 19:34:48.
