data_PCOD8256012
_publ_section_title
;
Structure prediction by ZEFSAII (Michael W. Deem and Ramdas Pophale) SiO2 
 PCOD8256012
Probable space group: C M C M
;
_chemical_formula_sum "Si O2"
_cell_formula_units_Z 96
_cell_length_a 8.653472
_cell_length_b 23.752103
_cell_length_c 25.831200
_cell_angle_alpha 90.000000
_cell_angle_beta 90.000000
_cell_angle_gamma 90.000000
_cell_volume 5309.297273
_symmetry_space_group_name_H-M "C M C M"
_symmetry_group_IT_number 63
_symmetry_cell_setting 'orthorhombic'
loop_
_space_group_symop_operation_xyz
x,y,z
-x,-y,1/2+z
x,-y,-z
-x,y,1/2-z
-x,-y,-z
x,y,1/2-z
-x,y,z
x,-y,1/2+z
1/2+x,1/2+y,z
1/2-x,1/2-y,1/2+z
1/2+x,1/2-y,-z
1/2-x,1/2+y,1/2-z
1/2-x,1/2-y,-z
1/2+x,1/2+y,1/2-z
1/2-x,1/2+y,z
1/2+x,1/2-y,1/2+z
loop_
_atom_site_type_symbol
_atom_site_label
_atom_site_fract_x
_atom_site_fract_y
_atom_site_fract_z
Si Si1 0.316443 0.063251 0.307517
Si Si2 0.816298 0.364816 0.597099
Si Si3 0.183725 0.367428 0.096973
Si Si4 0.182668 0.751698 0.557414
Si Si5 0.316094 0.937037 0.000010
Si Si6 0.316003 0.936928 0.307401
O O1 0.259727 0.081159 0.250000
O O2 0.500000 0.062742 0.309663
O O3 0.253799 0.107816 0.349497
O O4 0.257108 0.000128 0.320565
O O5 0.741451 0.303943 0.590745
O O6 0.758551 0.404846 0.550945
O O7 0.000000 0.358198 0.596581
O O8 0.238375 0.303353 0.089069
O O9 0.250909 0.392706 0.150693
O O10 0.000000 0.370943 0.097075
O O11 0.249717 0.404726 0.049915
O O12 0.250000 0.750000 0.500000
O O13 0.000000 0.753263 0.551994
O O14 0.500000 0.938736 0.001185
O O15 0.247955 0.000000 0.000000
O O16 0.258321 0.919205 0.250000
O O17 0.500000 0.936625 0.308937
#
# Coordination Sequence:
#
# PCOD8256012 Si02
#       6
#    16  16  16  16  16  16
#     4   8  14  25  44  71  99 123 151 191 238 284
#     4  10  18  30  48  71  96 125 160 196 237 282
#     4   9  16  26  40  62  90 119 154 190 228 277
#     4  11  21  34  49  67  94 129 165 198 239 288
#     4   9  15  23  40  67  92 113 146 194 239 276
#     4   8  13  23  41  67  97 123 147 188 244 286
#
# _framework density 18.081489000000001
#
# number of rings (size 3 to 8) (size 9 to 14) (size 15 to 20)
#    0.000    2.833    1.667    2.500    0.000    4.000 
#    0.000    0.833    0.000    2.000    0.000    0.000 
#    0.000    2.667    0.000    0.000    0.000    0.000 
#
# Total GULP energy -594952.990736 kJ/mol
# GULP energy per Si atom -12394.853974 kJ/mol
# Density = 1.804033 g / cm^3
# Si number density = 18.081489 Si / 1000 Ang^3
#
#
#
# Elastic Constant Matrix: (Units=GPa)
#
#
# Indices 1 2 3 4 5 6 
#
# 1 16.3926 19.6260 16.4514 0.0000 0.0000 0.0000
# 2 19.6260 184.2083 112.3214 0.0000 0.0000 0.0000
# 3 16.4514 112.3214 179.8215 0.0000 0.0000 0.0000
# 4 0.0000 0.0000 0.0000 34.4653 0.0000 0.0000
# 5 0.0000 0.0000 0.0000 0.0000 7.7983 0.0000
# 6 0.0000 0.0000 0.0000 0.0000 0.0000 21.7879
#
#
#
# Elastic Compliance Matrix: (Units=1/GPa)
#
#
# Indices 1 2 3 4 5 6 
#
# 1 0.070817 -0.005806 -0.002852 0.000000 0.000000 0.000000
# 2 -0.005806 0.009244 -0.005243 0.000000 0.000000 0.000000
# 3 -0.002852 -0.005243 0.009097 0.000000 0.000000 0.000000
# 4 0.000000 0.000000 0.000000 0.029015 0.000000 0.000000
# 5 0.000000 0.000000 0.000000 0.000000 0.128234 0.000000
# 6 0.000000 0.000000 0.000000 0.000000 0.000000 0.045897
#
#
# Mechanical properties :
#
#
# Convention : Reuss Voigt Hill
#
# Bulk Modulus (GPa) = 16.29845 75.24666 45.77255
# Shear Modulus (GPa) = 14.68181 28.27853 21.48017
#
# Velocity S-wave (km/s) = 2.85262 3.95897 3.45043
# Velocity P-wave (km/s) = 4.45908 7.91224 6.42211
#
# Compressibility (1/GPa) = 0.06135554
#
# Stress axis : x y z
#
# Youngs Moduli (GPa) = 14.12096 108.17702 109.92716
#
# Poissons Ratio (x) = 0.62804 0.31356
# Poissons Ratio (y) = 0.08198 0.57635
# Poissons Ratio (z) = 0.04028 0.56717
#
# Static dielectric constant tensor:
#      x y z
#    x 2.697080 0.000000 0.000000 
#    y 0.000000 3.588720 0.000000 
#    z 0.000000 0.000000 3.699190 
# 
# 
# High freq. dielectric constant tensor:
#      x y z
#    x 1.632820 0.000000 0.000000 
#    y 0.000000 1.705800 0.000000 
#    z 0.000000 0.000000 1.708350 
# 
# From -- ./inp_files/61870.got.cif
#   From: 2010.03.12/outbox.cif.g09.slc.cpg/sg63_31_cif.got.tgz:61870.got - 2010.04.10 19:34:48.
