data_PCOD8256921
_publ_section_title
;
Structure prediction by ZEFSAII (Michael W. Deem and Ramdas Pophale) SiO2 
 PCOD8256921
Probable space group: C M C M
;
_chemical_formula_sum "Si O2"
_cell_formula_units_Z 104
_cell_length_a 26.589931
_cell_length_b 24.088476
_cell_length_c 9.372586
_cell_angle_alpha 90.000000
_cell_angle_beta 90.000000
_cell_angle_gamma 90.000000
_cell_volume 6003.243632
_symmetry_space_group_name_H-M "C M C M"
_symmetry_group_IT_number 63
_symmetry_cell_setting 'orthorhombic'
loop_
_space_group_symop_operation_xyz
x,y,z
-x,-y,1/2+z
x,-y,-z
-x,y,1/2-z
-x,-y,-z
x,y,1/2-z
-x,y,z
x,-y,1/2+z
1/2+x,1/2+y,z
1/2-x,1/2-y,1/2+z
1/2+x,1/2-y,-z
1/2-x,1/2+y,1/2-z
1/2-x,1/2-y,-z
1/2+x,1/2+y,1/2-z
1/2-x,1/2+y,z
1/2+x,1/2-y,1/2+z
loop_
_atom_site_type_symbol
_atom_site_label
_atom_site_fract_x
_atom_site_fract_y
_atom_site_fract_z
Si Si1 0.672994 0.841147 0.919174
Si Si2 0.863490 0.057975 0.419624
Si Si3 0.134935 0.238008 0.418126
Si Si4 0.443664 0.648155 0.419009
Si Si5 0.500000 0.054757 0.411850
Si Si6 0.891878 0.443555 0.584938
Si Si7 0.785211 0.852420 0.917978
O O1 0.671383 0.830476 0.750000
O O2 0.649508 0.899788 0.963170
O O3 0.729574 0.844212 0.982410
O O4 0.639509 0.794458 0.994580
O O5 0.863731 0.048069 0.250000
O O6 0.912006 0.094203 0.467910
O O7 0.813204 0.091222 0.469110
O O8 0.865312 0.000000 0.500000
O O9 0.134416 0.250762 0.250000
O O10 0.084463 0.205003 0.465435
O O11 0.182588 0.200827 0.462381
O O12 0.446404 0.647401 0.250000
O O13 0.500000 0.646499 0.485495
O O14 0.500000 0.035097 0.250000
O O15 0.447028 0.085474 0.444876
O O16 0.500000 0.000000 0.500000
O O17 0.883595 0.500000 0.500000
O O18 0.885654 0.458718 0.750000
O O19 0.780734 0.856416 0.750000
#
# Coordination Sequence:
#
# PCOD8256921 Si02
#       7
#    16  16  16  16   8  16  16
#     4  10  19  31  47  69  94 120 149 185 234 280
#     4   9  17  30  48  70  95 125 159 194 232 275
#     4   9  17  31  50  69  88 117 158 195 223 264
#     4   8  15  30  50  68  92 127 160 190 231 281
#     4   8  14  28  46  60  78 108 142 170 203 250
#     4   9  18  31  47  65  87 116 146 179 219 265
#     4   8  16  31  48  64  90 126 156 183 223 276
#
# _framework density 17.323967
#
# number of rings (size 3 to 8) (size 9 to 14) (size 15 to 20)
#    0.000    3.231    0.000    2.308    0.000    1.538 
#    1.385    3.846    0.000    0.923    0.000    0.000 
#    0.000    0.000    0.000    0.000    0.000    0.000 
#
# Total GULP energy -644270.483250 kJ/mol
# GULP energy per Si atom -12389.816986 kJ/mol
# Density = 1.728454 g / cm^3
# Si number density = 17.323967 Si / 1000 Ang^3
#
#
#
# Elastic Constant Matrix: (Units=GPa)
#
#
# Indices 1 2 3 4 5 6 
#
# 1 92.8108 54.1613 25.3350 0.0000 0.0000 0.0000
# 2 54.1613 123.3797 39.5238 0.0000 0.0000 0.0000
# 3 25.3350 39.5238 31.5580 0.0000 0.0000 0.0000
# 4 0.0000 0.0000 0.0000 31.9236 0.0000 0.0000
# 5 0.0000 0.0000 0.0000 0.0000 15.8101 0.0000
# 6 0.0000 0.0000 0.0000 0.0000 0.0000 18.1498
#
#
#
# Elastic Compliance Matrix: (Units=1/GPa)
#
#
# Indices 1 2 3 4 5 6 
#
# 1 0.015230 -0.004624 -0.006435 0.000000 0.000000 0.000000
# 2 -0.004624 0.014940 -0.014998 0.000000 0.000000 0.000000
# 3 -0.006435 -0.014998 0.055638 0.000000 0.000000 0.000000
# 4 0.000000 0.000000 0.000000 0.031325 0.000000 0.000000
# 5 0.000000 0.000000 0.000000 0.000000 0.063251 0.000000
# 6 0.000000 0.000000 0.000000 0.000000 0.000000 0.055097
#
#
# Mechanical properties :
#
#
# Convention : Reuss Voigt Hill
#
# Bulk Modulus (GPa) = 29.68056 53.97653 41.82855
# Shear Modulus (GPa) = 16.73215 21.75859 19.24537
#
# Velocity S-wave (km/s) = 3.11117 3.54783 3.33665
# Velocity P-wave (km/s) = 5.48413 6.92875 6.24833
#
# Compressibility (1/GPa) = 0.03369209
#
# Stress axis : x y z
#
# Youngs Moduli (GPa) = 65.66101 66.93653 17.97327
#
# Poissons Ratio (x) = 0.30952 0.11566
# Poissons Ratio (y) = 0.30362 0.26957
# Poissons Ratio (z) = 0.42255 1.00393
#
# Static dielectric constant tensor:
#      x y z
#    x 4.340140 0.000000 0.000000 
#    y 0.000000 3.033900 0.000000 
#    z 0.000000 0.000000 2.865100 
# 
# 
# High freq. dielectric constant tensor:
#      x y z
#    x 1.683940 0.000000 0.000000 
#    y 0.000000 1.658700 0.000000 
#    z 0.000000 0.000000 1.633730 
# 
# From -- ./inp_files/14495.got.cif
#   From: 2010.03.12/outbox.cif.g09.slc.cpg/sg63_8_cif.got.tgz:14495.got - 2010.04.10 19:34:48.
