data_PCOD8256938
_publ_section_title
;
Structure prediction by ZEFSAII (Michael W. Deem and Ramdas Pophale) SiO2 
 PCOD8256938
Probable space group: C M C M
;
_chemical_formula_sum "Si O2"
_cell_formula_units_Z 96
_cell_length_a 22.834398
_cell_length_b 24.473411
_cell_length_c 9.651753
_cell_angle_alpha 90.000000
_cell_angle_beta 90.000000
_cell_angle_gamma 90.000000
_cell_volume 5393.743248
_symmetry_space_group_name_H-M "C M C M"
_symmetry_group_IT_number 63
_symmetry_cell_setting 'orthorhombic'
loop_
_space_group_symop_operation_xyz
x,y,z
-x,-y,1/2+z
x,-y,-z
-x,y,1/2-z
-x,-y,-z
x,y,1/2-z
-x,y,z
x,-y,1/2+z
1/2+x,1/2+y,z
1/2-x,1/2-y,1/2+z
1/2+x,1/2-y,-z
1/2-x,1/2+y,1/2-z
1/2-x,1/2-y,-z
1/2+x,1/2+y,1/2-z
1/2-x,1/2+y,z
1/2+x,1/2-y,1/2+z
loop_
_atom_site_type_symbol
_atom_site_label
_atom_site_fract_x
_atom_site_fract_y
_atom_site_fract_z
Si Si1 0.067542 0.846099 0.910342
Si Si2 0.382783 0.870390 0.908216
Si Si3 0.567239 0.046038 0.902739
Si Si4 0.932862 0.744215 0.092322
Si Si5 0.221288 0.551382 0.091644
Si Si6 0.644952 0.447884 0.588789
O O1 0.078744 0.833076 0.750000
O O2 0.105483 0.897401 0.960202
O O3 0.000000 0.859882 0.940644
O O4 0.088138 0.793195 0.994894
O O5 0.402009 0.884117 0.750000
O O6 0.387650 0.805628 0.933408
O O7 0.318096 0.894767 0.938969
O O8 0.427349 0.896801 0.017717
O O9 0.597290 0.047410 0.750000
O O10 0.500000 0.031362 0.881615
O O11 0.597782 0.000000 0.000000
O O12 0.928450 0.764551 0.250000
O O13 0.000000 0.726432 0.058598
O O14 0.214900 0.532718 0.250000
O O15 0.287863 0.567912 0.057223
O O16 0.200940 0.500000 0.000000
O O17 0.625272 0.500000 0.500000
O O18 0.634770 0.461447 0.750000
#
# Coordination Sequence:
#
# PCOD8256938 Si02
#       6
#    16  16  16  16  16  16
#     4   9  18  33  52  73  98 127 157 191 234 285
#     4  10  19  31  48  68  91 123 163 202 238 280
#     4  10  20  31  43  62  89 120 155 199 249 293
#     4   9  18  32  49  69  94 125 160 198 239 281
#     4   9  18  32  49  69  95 127 160 197 241 285
#     4   9  18  33  52  74 100 127 155 190 235 286
#
# _framework density 17.798400999999998
#
# number of rings (size 3 to 8) (size 9 to 14) (size 15 to 20)
#    0.000    2.667    0.000    1.500    0.000    5.333 
#    0.000    2.500    0.000    0.000    0.000    0.000 
#    0.000    0.000    0.000    0.000    0.000    0.000 
#
# Total GULP energy -595081.966438 kJ/mol
# GULP energy per Si atom -12397.540967 kJ/mol
# Density = 1.775789 g / cm^3
# Si number density = 17.798401 Si / 1000 Ang^3
#
#
#
# Elastic Constant Matrix: (Units=GPa)
#
#
# Indices 1 2 3 4 5 6 
#
# 1 72.5728 66.8993 40.0229 0.0000 0.0000 0.0000
# 2 66.8993 151.7110 78.0387 0.0000 0.0000 0.0000
# 3 40.0229 78.0387 102.5903 0.0000 0.0000 0.0000
# 4 0.0000 0.0000 0.0000 36.0390 0.0000 0.0000
# 5 0.0000 0.0000 0.0000 0.0000 17.3664 0.0000
# 6 0.0000 0.0000 0.0000 0.0000 0.0000 32.4012
#
#
#
# Elastic Compliance Matrix: (Units=1/GPa)
#
#
# Indices 1 2 3 4 5 6 
#
# 1 0.023492 -0.009273 -0.002111 0.000000 0.000000 0.000000
# 2 -0.009273 0.014489 -0.007404 0.000000 0.000000 0.000000
# 3 -0.002111 -0.007404 0.016203 0.000000 0.000000 0.000000
# 4 0.000000 0.000000 0.000000 0.027748 0.000000 0.000000
# 5 0.000000 0.000000 0.000000 0.000000 0.057583 0.000000
# 6 0.000000 0.000000 0.000000 0.000000 0.000000 0.030863
#
#
# Mechanical properties :
#
#
# Convention : Reuss Voigt Hill
#
# Bulk Modulus (GPa) = 60.21171 77.42179 68.81675
# Shear Modulus (GPa) = 23.42041 26.62218 25.02129
#
# Velocity S-wave (km/s) = 3.63143 3.87170 3.75349
# Velocity P-wave (km/s) = 7.17540 7.97374 7.58508
#
# Compressibility (1/GPa) = 0.01660806
#
# Stress axis : x y z
#
# Youngs Moduli (GPa) = 42.56841 69.01676 61.71709
#
# Poissons Ratio (x) = 0.64002 0.13026
# Poissons Ratio (y) = 0.39475 0.45695
# Poissons Ratio (z) = 0.08984 0.51100
#
# Static dielectric constant tensor:
#      x y z
#    x 3.221720 0.000000 0.000000 
#    y 0.000000 3.183770 0.000000 
#    z 0.000000 0.000000 3.471510 
# 
# 
# High freq. dielectric constant tensor:
#      x y z
#    x 1.675480 0.000000 0.000000 
#    y 0.000000 1.673490 0.000000 
#    z 0.000000 0.000000 1.695130 
# 
# From -- ./inp_files/10472.got.cif
#   From: 2010.03.12/outbox.cif.g09.slc.cpg/sg63_6_cif.got.tgz:10472.got - 2010.04.10 19:34:48.
