data_PCOD8256971
_publ_section_title
;
Structure prediction by ZEFSAII (Michael W. Deem and Ramdas Pophale) SiO2 
 PCOD8256971
Probable space group: C M C M
;
_chemical_formula_sum "Si O2"
_cell_formula_units_Z 128
_cell_length_a 22.020010
_cell_length_b 15.509887
_cell_length_c 20.118065
_cell_angle_alpha 90.000000
_cell_angle_beta 90.000000
_cell_angle_gamma 90.000000
_cell_volume 6870.879824
_symmetry_space_group_name_H-M "C M C M"
_symmetry_group_IT_number 63
_symmetry_cell_setting 'orthorhombic'
loop_
_space_group_symop_operation_xyz
x,y,z
-x,-y,1/2+z
x,-y,-z
-x,y,1/2-z
-x,-y,-z
x,y,1/2-z
-x,y,z
x,-y,1/2+z
1/2+x,1/2+y,z
1/2-x,1/2-y,1/2+z
1/2+x,1/2-y,-z
1/2-x,1/2+y,1/2-z
1/2-x,1/2-y,-z
1/2+x,1/2+y,1/2-z
1/2-x,1/2+y,z
1/2+x,1/2-y,1/2+z
loop_
_atom_site_type_symbol
_atom_site_label
_atom_site_fract_x
_atom_site_fract_y
_atom_site_fract_z
Si Si1 0.758459 0.285025 0.602391
Si Si2 0.385186 0.012590 0.823771
Si Si3 0.651411 0.238514 0.514665
Si Si4 0.755242 0.468408 0.673373
Si Si5 0.070593 0.176595 0.916293
Si Si6 0.325795 0.624656 0.828990
Si Si7 0.066837 0.332088 0.821715
Si Si8 0.568876 0.078607 0.544834
O O1 0.688860 0.266908 0.579928
O O2 0.800728 0.295492 0.538683
O O3 0.755509 0.377591 0.636659
O O4 0.786153 0.208096 0.647870
O O5 0.404654 0.044506 0.750000
O O6 0.386329 0.908919 0.828901
O O7 0.314539 0.028660 0.838496
O O8 0.428636 0.056317 0.877162
O O9 0.607833 0.315805 0.485877
O O10 0.608026 0.161762 0.533993
O O11 0.747405 0.445027 0.750000
O O12 0.703057 0.533636 0.648862
O O13 0.108013 0.117911 0.864483
O O14 0.073843 0.271320 0.884414
O O15 0.000000 0.145881 0.925247
O O16 0.333242 0.630956 0.750000
O O17 0.077801 0.284131 0.750000
O O18 0.000000 0.373796 0.822074
O O19 0.500000 0.099413 0.524365
O O20 0.593996 0.000000 0.500000
#
# Coordination Sequence:
#
# PCOD8256971 Si02
#       8
#    16  16  16  16  16  16  16  16
#     4  10  20  36  55  76 108 142 173 219 270 314
#     4  10  19  31  48  72 103 137 173 213 260 317
#     4  10  21  34  50  74 102 139 183 217 257 318
#     4  10  20  34  55  80 105 135 170 215 269 322
#     4  10  19  33  52  74 102 133 168 217 270 314
#     4  10  20  34  55  84 109 132 170 214 266 332
#     4   9  16  26  44  71 100 130 163 202 257 320
#     4  11  21  32  49  74 107 145 181 221 267 318
#
# _framework density 18.629346999999999
#
# number of rings (size 3 to 8) (size 9 to 14) (size 15 to 20)
#    0.000    2.000    0.000    5.250    0.000    4.500 
#    0.000    6.875    0.000    2.250    0.000    0.000 
#    0.000    0.000    0.000    0.000    0.000    0.000 
#
# Total GULP energy -793053.988116 kJ/mol
# GULP energy per Si atom -12391.468564 kJ/mol
# Density = 1.858695 g / cm^3
# Si number density = 18.629347 Si / 1000 Ang^3
#
#
#
# Elastic Constant Matrix: (Units=GPa)
#
#
# Indices 1 2 3 4 5 6 
#
# 1 100.3072 24.4412 25.5121 0.0000 0.0000 0.0000
# 2 24.4412 67.7113 19.9589 0.0000 0.0000 0.0000
# 3 25.5121 19.9589 69.0759 0.0000 0.0000 0.0000
# 4 0.0000 0.0000 0.0000 21.8258 0.0000 0.0000
# 5 0.0000 0.0000 0.0000 0.0000 24.9271 0.0000
# 6 0.0000 0.0000 0.0000 0.0000 0.0000 27.7158
#
#
#
# Elastic Compliance Matrix: (Units=1/GPa)
#
#
# Indices 1 2 3 4 5 6 
#
# 1 0.011604 -0.003198 -0.003362 0.000000 0.000000 0.000000
# 2 -0.003198 0.017025 -0.003738 0.000000 0.000000 0.000000
# 3 -0.003362 -0.003738 0.016799 0.000000 0.000000 0.000000
# 4 0.000000 0.000000 0.000000 0.045817 0.000000 0.000000
# 5 0.000000 0.000000 0.000000 0.000000 0.040117 0.000000
# 6 0.000000 0.000000 0.000000 0.000000 0.000000 0.036080
#
#
# Mechanical properties :
#
#
# Convention : Reuss Voigt Hill
#
# Bulk Modulus (GPa) = 40.27072 41.87987 41.07529
# Shear Modulus (GPa) = 25.46946 26.03921 25.75433
#
# Velocity S-wave (km/s) = 3.70154 3.74271 3.72218
# Velocity P-wave (km/s) = 6.31920 6.41923 6.36941
#
# Compressibility (1/GPa) = 0.02483194
#
# Stress axis : x y z
#
# Youngs Moduli (GPa) = 86.18083 58.73841 59.52899
#
# Poissons Ratio (x) = 0.18782 0.20012
# Poissons Ratio (y) = 0.27556 0.22253
# Poissons Ratio (z) = 0.28971 0.21957
#
# Static dielectric constant tensor:
#      x y z
#    x 3.801080 0.000000 0.000000 
#    y 0.000000 3.099120 0.000000 
#    z 0.000000 0.000000 3.717000 
# 
# 
# High freq. dielectric constant tensor:
#      x y z
#    x 1.733160 0.000000 0.000000 
#    y 0.000000 1.685670 0.000000 
#    z 0.000000 0.000000 1.726740 
# 
# From -- ./inp_files/56991.got.cif
#   From: 2010.03.12/outbox.cif.g09.slc.cpg/sg63_29_cif.got.tgz:56991.got - 2010.04.10 19:34:48.
