data_PCOD8256155
_publ_section_title
;
Structure prediction by ZEFSAII (Michael W. Deem and Ramdas Pophale) SiO2 
 PCOD8256155
Probable space group: C M C M
;
_chemical_formula_sum "Si O2"
_cell_formula_units_Z 128
_cell_length_a 17.463293
_cell_length_b 26.599626
_cell_length_c 17.838041
_cell_angle_alpha 90.000000
_cell_angle_beta 90.000000
_cell_angle_gamma 90.000000
_cell_volume 8286.074407
_symmetry_space_group_name_H-M "C M C M"
_symmetry_group_IT_number 63
_symmetry_cell_setting 'orthorhombic'
loop_
_space_group_symop_operation_xyz
x,y,z
-x,-y,1/2+z
x,-y,-z
-x,y,1/2-z
-x,-y,-z
x,y,1/2-z
-x,y,z
x,-y,1/2+z
1/2+x,1/2+y,z
1/2-x,1/2-y,1/2+z
1/2+x,1/2-y,-z
1/2-x,1/2+y,1/2-z
1/2-x,1/2-y,-z
1/2+x,1/2+y,1/2-z
1/2-x,1/2+y,z
1/2+x,1/2-y,1/2+z
loop_
_atom_site_type_symbol
_atom_site_label
_atom_site_fract_x
_atom_site_fract_y
_atom_site_fract_z
Si Si1 0.081804 0.061262 0.337350
Si Si2 0.291221 0.020439 0.421659
Si Si3 0.665862 0.461662 0.339373
Si Si4 0.590750 0.629404 0.927577
Si Si5 0.814795 0.325273 0.836973
Si Si6 0.413591 0.270241 0.164096
Si Si7 0.585315 0.921812 0.663346
Si Si8 0.692768 0.380566 0.573703
O O1 0.073088 0.061743 0.250000
O O2 0.136344 0.106957 0.358302
O O3 0.000000 0.069546 0.376939
O O4 0.110827 0.007010 0.363143
O O5 0.365536 0.034700 0.374671
O O6 0.240733 0.069188 0.441606
O O7 0.321332 0.000000 0.500000
O O8 0.247422 0.976503 0.375667
O O9 0.674956 0.455069 0.250000
O O10 0.628102 0.412273 0.374135
O O11 0.500000 0.618374 0.942419
O O12 0.601844 0.682179 0.887250
O O13 0.640825 0.633805 0.002856
O O14 0.786759 0.326060 0.750000
O O15 0.852982 0.272467 0.858452
O O16 0.878529 0.367404 0.849992
O O17 0.745196 0.334886 0.895415
O O18 0.401657 0.286605 0.250000
O O19 0.500000 0.249691 0.152389
O O20 0.583068 0.935347 0.750000
O O21 0.500000 0.921430 0.629091
#
# Coordination Sequence:
#
# PCOD8256155 Si02
#       8
#    16  16  16  16  16  16  16  16
#     4   9  17  28  43  63  88 119 157 196 227 261
#     4  10  18  31  45  65  94 125 154 187 226 265
#     4  10  19  31  46  64  89 127 164 193 224 265
#     4  11  21  31  45  66  93 125 155 190 230 272
#     4   9  17  31  51  69  89 117 147 184 232 278
#     4   9  18  32  49  69  91 114 146 188 231 275
#     4   9  17  29  48  72  93 115 146 184 228 279
#     4  10  19  30  44  65  92 122 152 186 223 277
#
# _framework density 15.447604999999999
#
# number of rings (size 3 to 8) (size 9 to 14) (size 15 to 20)
#    0.000    2.375    1.250    2.250    0.000    6.500 
#    0.000    1.875    0.000    0.000    0.000    0.000 
#    0.000    0.000    0.000    6.375    0.000    0.000 
#
# Total GULP energy -793179.027252 kJ/mol
# GULP energy per Si atom -12393.422301 kJ/mol
# Density = 1.541245 g / cm^3
# Si number density = 15.447605 Si / 1000 Ang^3
#
#
#
# Elastic Constant Matrix: (Units=GPa)
#
#
# Indices 1 2 3 4 5 6 
#
# 1 108.2502 52.2166 50.4406 0.0000 0.0000 0.0000
# 2 52.2166 79.9800 41.0957 0.0000 0.0000 0.0000
# 3 50.4406 41.0957 61.3150 0.0000 0.0000 0.0000
# 4 0.0000 0.0000 0.0000 20.7622 0.0000 0.0000
# 5 0.0000 0.0000 0.0000 0.0000 25.5018 0.0000
# 6 0.0000 0.0000 0.0000 0.0000 0.0000 23.5128
#
#
#
# Elastic Compliance Matrix: (Units=1/GPa)
#
#
# Indices 1 2 3 4 5 6 
#
# 1 0.016586 -0.005823 -0.009742 0.000000 0.000000 0.000000
# 2 -0.005823 0.021115 -0.009362 0.000000 0.000000 0.000000
# 3 -0.009742 -0.009362 0.030598 0.000000 0.000000 0.000000
# 4 0.000000 0.000000 0.000000 0.048165 0.000000 0.000000
# 5 0.000000 0.000000 0.000000 0.000000 0.039213 0.000000
# 6 0.000000 0.000000 0.000000 0.000000 0.000000 0.042530
#
#
# Mechanical properties :
#
#
# Convention : Reuss Voigt Hill
#
# Bulk Modulus (GPa) = 54.21250 59.67232 56.94241
# Shear Modulus (GPa) = 19.66894 21.00817 20.33856
#
# Velocity S-wave (km/s) = 3.57216 3.69177 3.63246
# Velocity P-wave (km/s) = 7.22388 7.54221 7.38476
#
# Compressibility (1/GPa) = 0.01844593
#
# Stress axis : x y z
#
# Youngs Moduli (GPa) = 60.29222 47.35923 32.68212
#
# Poissons Ratio (x) = 0.27577 0.31837
# Poissons Ratio (y) = 0.35108 0.30597
# Poissons Ratio (z) = 0.58734 0.44337
#
# Static dielectric constant tensor:
#      x y z
#    x 3.507200 0.000000 0.000000 
#    y 0.000000 2.817320 0.000000 
#    z 0.000000 0.000000 2.926160 
# 
# 
# High freq. dielectric constant tensor:
#      x y z
#    x 1.594270 0.000000 0.000000 
#    y 0.000000 1.576770 0.000000 
#    z 0.000000 0.000000 1.591320 
# 
# From -- ./inp_files/46314.got.cif
#   From: 2010.03.12/outbox.cif.g09.slc.cpg/sg63_24_cif.got.tgz:46314.got - 2010.04.10 19:34:48.
