data_PCOD8256161
_publ_section_title
;
Structure prediction by ZEFSAII (Michael W. Deem and Ramdas Pophale) SiO2 
 PCOD8256161
Probable space group: C M C M
;
_chemical_formula_sum "Si O2"
_cell_formula_units_Z 88
_cell_length_a 19.334314
_cell_length_b 27.473325
_cell_length_c 9.735042
_cell_angle_alpha 90.000000
_cell_angle_beta 90.000000
_cell_angle_gamma 90.000000
_cell_volume 5171.039090
_symmetry_space_group_name_H-M "C M C M"
_symmetry_group_IT_number 63
_symmetry_cell_setting 'orthorhombic'
loop_
_space_group_symop_operation_xyz
x,y,z
-x,-y,1/2+z
x,-y,-z
-x,y,1/2-z
-x,-y,-z
x,y,1/2-z
-x,y,z
x,-y,1/2+z
1/2+x,1/2+y,z
1/2-x,1/2-y,1/2+z
1/2+x,1/2-y,-z
1/2-x,1/2+y,1/2-z
1/2-x,1/2-y,-z
1/2+x,1/2+y,1/2-z
1/2-x,1/2+y,z
1/2+x,1/2-y,1/2+z
loop_
_atom_site_type_symbol
_atom_site_label
_atom_site_fract_x
_atom_site_fract_y
_atom_site_fract_z
Si Si1 0.628053 0.320020 0.592435
Si Si2 0.770516 0.638425 0.092463
Si Si3 0.350745 0.210778 0.900847
Si Si4 0.000000 0.700332 0.504632
Si Si5 0.000000 0.406444 0.906293
Si Si6 0.859029 0.452801 0.587873
Si Si7 0.000000 0.807078 0.092148
O O1 0.600709 0.323664 0.750000
O O2 0.688355 0.359391 0.563088
O O3 0.662492 0.267368 0.566511
O O4 0.566271 0.329313 0.486059
O O5 0.786877 0.650603 0.250000
O O6 0.797353 0.584817 0.055441
O O7 0.811625 0.679091 0.010935
O O8 0.322335 0.197405 0.750000
O O9 0.432798 0.200711 0.899985
O O10 0.000000 0.651771 0.413837
O O11 0.000000 0.748322 0.408776
O O12 0.930700 0.429829 0.970821
O O13 0.000000 0.421831 0.750000
O O14 0.841408 0.500000 0.500000
O O15 0.862758 0.465080 0.750000
O O16 0.000000 0.824764 0.250000
#
# Coordination Sequence:
#
# PCOD8256161 Si02
#       7
#    16  16  16   8   8  16   8
#     4   9  19  34  50  71 102 136 163 197 245 301
#     4  10  20  34  52  71  96 132 169 203 250 307
#     4  10  19  30  46  71 102 132 168 210 247 285
#     4  10  18  31  46  69 101 139 176 205 243 288
#     4  10  18  32  51  69  94 130 174 215 245 283
#     4  10  21  36  52  72  96 128 171 216 258 298
#     4  10  20  31  51  78 103 132 167 205 241 288
#
# _framework density 17.017855000000001
#
# number of rings (size 3 to 8) (size 9 to 14) (size 15 to 20)
#    0.000    2.182    1.818    1.636    0.000    6.545 
#    0.000    0.000    0.000    0.000    0.000    0.636 
#    0.000    0.000    0.000    0.000    0.000    0.000 
#
# Total GULP energy -545517.922947 kJ/mol
# GULP energy per Si atom -12398.134612 kJ/mol
# Density = 1.697912 g / cm^3
# Si number density = 17.017855 Si / 1000 Ang^3
#
#
#
# Elastic Constant Matrix: (Units=GPa)
#
#
# Indices 1 2 3 4 5 6 
#
# 1 113.3956 63.3797 59.4725 0.0000 0.0000 0.0000
# 2 63.3797 79.3286 42.9836 0.0000 0.0000 0.0000
# 3 59.4725 42.9836 83.1570 0.0000 0.0000 0.0000
# 4 0.0000 0.0000 0.0000 22.8095 0.0000 0.0000
# 5 0.0000 0.0000 0.0000 0.0000 10.3364 0.0000
# 6 0.0000 0.0000 0.0000 0.0000 0.0000 24.6286
#
#
#
# Elastic Compliance Matrix: (Units=1/GPa)
#
#
# Indices 1 2 3 4 5 6 
#
# 1 0.019154 -0.010946 -0.008040 0.000000 0.000000 0.000000
# 2 -0.010946 0.023766 -0.004456 0.000000 0.000000 0.000000
# 3 -0.008040 -0.004456 0.020079 0.000000 0.000000 0.000000
# 4 0.000000 0.000000 0.000000 0.043841 0.000000 0.000000
# 5 0.000000 0.000000 0.000000 0.000000 0.096746 0.000000
# 6 0.000000 0.000000 0.000000 0.000000 0.000000 0.040603
#
#
# Mechanical properties :
#
#
# Convention : Reuss Voigt Hill
#
# Bulk Modulus (GPa) = 62.05968 67.50586 64.78277
# Shear Modulus (GPa) = 16.86654 18.89126 17.87890
#
# Velocity S-wave (km/s) = 3.15160 3.33541 3.24481
# Velocity P-wave (km/s) = 7.05620 7.38830 7.22416
#
# Compressibility (1/GPa) = 0.01611352
#
# Stress axis : x y z
#
# Youngs Moduli (GPa) = 52.20900 42.07745 49.80341
#
# Poissons Ratio (x) = 0.46059 0.40044
# Poissons Ratio (y) = 0.57150 0.22191
# Poissons Ratio (z) = 0.41978 0.18749
#
# Static dielectric constant tensor:
#      x y z
#    x 3.326870 0.000000 0.000000 
#    y 0.000000 2.973680 0.000000 
#    z 0.000000 0.000000 3.067560 
# 
# 
# High freq. dielectric constant tensor:
#      x y z
#    x 1.657180 0.000000 0.000000 
#    y 0.000000 1.623750 0.000000 
#    z 0.000000 0.000000 1.652650 
# 
# From -- ./inp_files/6917.got.cif
#   From: 2010.03.12/outbox.cif.g09.slc.cpg/sg63_4_cif.got.tgz:6917.got - 2010.04.10 19:34:48.
