data_PCOD8256754
_publ_section_title
;
Structure prediction by ZEFSAII (Michael W. Deem and Ramdas Pophale) SiO2 
 PCOD8256754
Probable space group: C M C M
;
_chemical_formula_sum "Si O2"
_cell_formula_units_Z 80
_cell_length_a 13.561061
_cell_length_b 13.531311
_cell_length_c 25.827318
_cell_angle_alpha 90.000000
_cell_angle_beta 90.000000
_cell_angle_gamma 90.000000
_cell_volume 4739.285318
_symmetry_space_group_name_H-M "C M C M"
_symmetry_group_IT_number 63
_symmetry_cell_setting 'orthorhombic'
loop_
_space_group_symop_operation_xyz
x,y,z
-x,-y,1/2+z
x,-y,-z
-x,y,1/2-z
-x,-y,-z
x,y,1/2-z
-x,y,z
x,-y,1/2+z
1/2+x,1/2+y,z
1/2-x,1/2-y,1/2+z
1/2+x,1/2-y,-z
1/2-x,1/2+y,1/2-z
1/2-x,1/2-y,-z
1/2+x,1/2+y,1/2-z
1/2-x,1/2+y,z
1/2+x,1/2-y,1/2+z
loop_
_atom_site_type_symbol
_atom_site_label
_atom_site_fract_x
_atom_site_fract_y
_atom_site_fract_z
Si Si1 0.887826 0.532500 0.555279
Si Si2 0.205395 0.364633 0.142081
Si Si3 0.702975 0.661834 0.190786
Si Si4 0.113113 0.045122 0.689381
Si Si5 0.390341 0.058555 0.158364
O O1 0.843316 0.500000 0.500000
O O2 0.819213 0.618637 0.580815
O O3 0.887368 0.439029 0.595146
O O4 0.000000 0.572043 0.548334
O O5 0.170021 0.255307 0.156798
O O6 0.321211 0.379805 0.155266
O O7 0.144730 0.447564 0.175203
O O8 0.683978 0.689457 0.250000
O O9 0.638373 0.567747 0.173650
O O10 0.818959 0.640514 0.182263
O O11 0.135417 0.061841 0.750000
O O12 0.000000 0.066838 0.675846
O O13 0.500000 0.079065 0.179666
#
# Coordination Sequence:
#
# PCOD8256754 Si02
#       5
#    16  16  16  16  16
#     4   8  15  31  54  74  93 121 158 202 249 286
#     4   9  17  30  49  71  92 124 159 198 234 280
#     4  10  19  30  45  70  99 124 154 194 234 281
#     4   9  18  31  45  63  93 131 160 187 230 281
#     4   8  17  32  49  70  96 126 158 196 238 282
#
# _framework density 16.880182000000001
#
# number of rings (size 3 to 8) (size 9 to 14) (size 15 to 20)
#    1.200    2.000    0.000    0.600    0.000    3.600 
#    0.000    1.000    0.000    2.400    0.000    0.000 
#    0.000    0.000    0.000    0.000    0.000    0.000 
#
# Total GULP energy -495542.409812 kJ/mol
# GULP energy per Si atom -12388.560245 kJ/mol
# Density = 1.684176 g / cm^3
# Si number density = 16.880182 Si / 1000 Ang^3
#
#
#
# Elastic Constant Matrix: (Units=GPa)
#
#
# Indices 1 2 3 4 5 6 
#
# 1 67.2335 -13.1131 10.5887 0.0000 0.0000 0.0000
# 2 -13.1131 36.3151 3.5686 0.0000 0.0000 0.0000
# 3 10.5887 3.5686 30.4303 0.0000 0.0000 0.0000
# 4 0.0000 0.0000 0.0000 16.6659 0.0000 0.0000
# 5 0.0000 0.0000 0.0000 0.0000 26.2885 0.0000
# 6 0.0000 0.0000 0.0000 0.0000 0.0000 9.3151
#
#
#
# Elastic Compliance Matrix: (Units=1/GPa)
#
#
# Indices 1 2 3 4 5 6 
#
# 1 0.017298 0.006918 -0.006830 0.000000 0.000000 0.000000
# 2 0.006918 0.030624 -0.005998 0.000000 0.000000 0.000000
# 3 -0.006830 -0.005998 0.035942 0.000000 0.000000 0.000000
# 4 0.000000 0.000000 0.000000 0.060003 0.000000 0.000000
# 5 0.000000 0.000000 0.000000 0.000000 0.038039 0.000000
# 6 0.000000 0.000000 0.000000 0.000000 0.000000 0.107352
#
#
# Mechanical properties :
#
#
# Convention : Reuss Voigt Hill
#
# Bulk Modulus (GPa) = 13.88077 15.11858 14.49968
# Shear Modulus (GPa) = 15.38007 19.31621 17.34814
#
# Velocity S-wave (km/s) = 3.02177 3.38644 3.20929
# Velocity P-wave (km/s) = 4.51838 4.92610 4.72664
#
# Compressibility (1/GPa) = 0.07204210
#
# Stress axis : x y z
#
# Youngs Moduli (GPa) = 57.80861 32.65403 27.82242
#
# Poissons Ratio (x) = -0.22589 0.19004
# Poissons Ratio (y) = -0.39989 0.16689
# Poissons Ratio (z) = 0.39486 0.19587
#
# Static dielectric constant tensor:
#      x y z
#    x 3.122210 0.000000 0.000000 
#    y 0.000000 2.886070 0.000000 
#    z 0.000000 0.000000 2.954610 
# 
# 
# High freq. dielectric constant tensor:
#      x y z
#    x 1.648330 0.000000 0.000000 
#    y 0.000000 1.625770 0.000000 
#    z 0.000000 0.000000 1.621710 
# 
# From -- ./inp_files/62768.got.cif
#   From: 2010.03.12/outbox.cif.g09.slc.cpg/sg63_32_cif.got.tgz:62768.got - 2010.04.10 19:34:48.
