data_PCOD8256103
_publ_section_title
;
Structure prediction by ZEFSAII (Michael W. Deem and Ramdas Pophale) SiO2 
 PCOD8256103
Probable space group: C M C M
;
_chemical_formula_sum "Si O2"
_cell_formula_units_Z 80
_cell_length_a 8.169474
_cell_length_b 28.086923
_cell_length_c 16.678744
_cell_angle_alpha 90.000000
_cell_angle_beta 90.000000
_cell_angle_gamma 90.000000
_cell_volume 3827.027662
_symmetry_space_group_name_H-M "C M C M"
_symmetry_group_IT_number 63
_symmetry_cell_setting 'orthorhombic'
loop_
_space_group_symop_operation_xyz
x,y,z
-x,-y,1/2+z
x,-y,-z
-x,y,1/2-z
-x,-y,-z
x,y,1/2-z
-x,y,z
x,-y,1/2+z
1/2+x,1/2+y,z
1/2-x,1/2-y,1/2+z
1/2+x,1/2-y,-z
1/2-x,1/2+y,1/2-z
1/2-x,1/2-y,-z
1/2+x,1/2+y,1/2-z
1/2-x,1/2+y,z
1/2+x,1/2-y,1/2+z
loop_
_atom_site_type_symbol
_atom_site_label
_atom_site_fract_x
_atom_site_fract_y
_atom_site_fract_z
Si Si1 0.193211 0.868043 0.750000
Si Si2 0.688421 0.236702 0.250000
Si Si3 0.694282 0.429875 0.600411
Si Si4 0.195221 0.971115 0.338964
Si Si5 0.194486 0.777279 0.419432
Si Si6 0.804991 0.115992 0.560041
O O1 0.291474 0.819421 0.750000
O O2 0.251239 0.898177 0.674373
O O3 0.000000 0.857455 0.750000
O O4 0.500000 0.251545 0.250000
O O5 0.765200 0.256475 0.334475
O O6 0.500000 0.431528 0.595374
O O7 0.760054 0.484099 0.608737
O O8 0.768225 0.404662 0.522412
O O9 0.265806 0.976786 0.250000
O O10 0.257590 0.920530 0.372215
O O11 0.000000 0.972085 0.338301
O O12 0.250000 0.750000 0.500000
O O13 0.262974 0.831196 0.424220
O O14 0.000000 0.775551 0.417945
O O15 0.000000 0.117728 0.556891
#
# Coordination Sequence:
#
# PCOD8256103 Si02
#       6
#     8   8  16  16  16  16
#     4  10  18  30  51  73  97 129 170 210 249 300
#     4  10  22  36  51  73 105 137 172 220 269 308
#     4   9  15  25  40  66  96 123 156 199 243 292
#     4   9  15  23  37  62  97 128 152 189 246 302
#     4  10  21  37  54  76 104 138 179 220 261 308
#     4   9  17  26  42  63  92 130 163 194 243 303
#
# _framework density 20.903950999999999
#
# number of rings (size 3 to 8) (size 9 to 14) (size 15 to 20)
#    0.000    2.600    1.000    1.800    1.400    4.800 
#    0.000    0.000    0.000    0.000    0.000    1.400 
#    0.000    6.400    0.000    0.000    0.000    0.000 
#
# Total GULP energy -495690.332704 kJ/mol
# GULP energy per Si atom -12392.258318 kJ/mol
# Density = 2.085637 g / cm^3
# Si number density = 20.903951 Si / 1000 Ang^3
#
#
#
# Elastic Constant Matrix: (Units=GPa)
#
#
# Indices 1 2 3 4 5 6 
#
# 1 8.8566 2.9688 5.1940 0.0000 0.0000 0.0000
# 2 2.9688 201.6422 83.2396 0.0000 0.0000 0.0000
# 3 5.1940 83.2396 158.1933 0.0000 0.0000 0.0000
# 4 0.0000 0.0000 0.0000 37.7280 0.0000 0.0000
# 5 0.0000 0.0000 0.0000 0.0000 10.1466 0.0000
# 6 0.0000 0.0000 0.0000 0.0000 0.0000 17.7792
#
#
#
# Elastic Compliance Matrix: (Units=1/GPa)
#
#
# Indices 1 2 3 4 5 6 
#
# 1 0.115131 -0.000172 -0.003690 0.000000 0.000000 0.000000
# 2 -0.000172 0.006336 -0.003328 0.000000 0.000000 0.000000
# 3 -0.003690 -0.003328 0.008194 0.000000 0.000000 0.000000
# 4 0.000000 0.000000 0.000000 0.026506 0.000000 0.000000
# 5 0.000000 0.000000 0.000000 0.000000 0.098555 0.000000
# 6 0.000000 0.000000 0.000000 0.000000 0.000000 0.056245
#
#
# Mechanical properties :
#
#
# Convention : Reuss Voigt Hill
#
# Bulk Modulus (GPa) = 8.67445 61.27743 34.97594
# Shear Modulus (GPa) = 13.74484 31.61676 22.68080
#
# Velocity S-wave (km/s) = 2.56700 3.89328 3.29751
# Velocity P-wave (km/s) = 3.59787 7.04185 5.59161
#
# Compressibility (1/GPa) = 0.11528111
#
# Stress axis : x y z
#
# Youngs Moduli (GPa) = 8.68575 157.83602 122.04422
#
# Poissons Ratio (x) = 0.02714 0.45030
# Poissons Ratio (y) = 0.00149 0.40618
# Poissons Ratio (z) = 0.03205 0.52530
#
# Static dielectric constant tensor:
#      x y z
#    x 2.986910 0.000000 0.000000 
#    y 0.000000 4.051940 0.000000 
#    z 0.000000 0.000000 4.227550 
# 
# 
# High freq. dielectric constant tensor:
#      x y z
#    x 1.741360 0.000000 0.000000 
#    y 0.000000 1.836370 0.000000 
#    z 0.000000 0.000000 1.835900 
# 
# From -- ./inp_files/42417.got.cif
#   From: 2010.03.12/outbox.cif.g09.slc.cpg/sg63_22_cif.got.tgz:42417.got - 2010.04.10 19:34:48.
