data_PCOD8256266
_publ_section_title
;
Structure prediction by ZEFSAII (Michael W. Deem and Ramdas Pophale) SiO2 
 PCOD8256266
Probable space group: C M C M
;
_chemical_formula_sum "Si O2"
_cell_formula_units_Z 80
_cell_length_a 13.224363
_cell_length_b 19.102975
_cell_length_c 18.645929
_cell_angle_alpha 90.000000
_cell_angle_beta 90.000000
_cell_angle_gamma 90.000000
_cell_volume 4710.421768
_symmetry_space_group_name_H-M "C M C M"
_symmetry_group_IT_number 63
_symmetry_cell_setting 'orthorhombic'
loop_
_space_group_symop_operation_xyz
x,y,z
-x,-y,1/2+z
x,-y,-z
-x,y,1/2-z
-x,-y,-z
x,y,1/2-z
-x,y,z
x,-y,1/2+z
1/2+x,1/2+y,z
1/2-x,1/2-y,1/2+z
1/2+x,1/2-y,-z
1/2-x,1/2+y,1/2-z
1/2-x,1/2-y,-z
1/2+x,1/2+y,1/2-z
1/2-x,1/2+y,z
1/2+x,1/2-y,1/2+z
loop_
_atom_site_type_symbol
_atom_site_label
_atom_site_fract_x
_atom_site_fract_y
_atom_site_fract_z
Si Si1 0.383214 0.353420 0.330257
Si Si2 0.116963 0.934805 0.949312
Si Si3 0.229587 0.823820 0.465116
Si Si4 0.383470 0.942171 0.438866
Si Si5 0.771407 0.995935 0.168806
O O1 0.363160 0.324560 0.250000
O O2 0.500000 0.345744 0.351751
O O3 0.313754 0.309927 0.385196
O O4 0.354956 0.434986 0.334798
O O5 0.000000 0.934986 0.929290
O O6 0.182124 0.939676 0.876260
O O7 0.143445 0.863358 0.989624
O O8 0.147210 0.000000 0.000000
O O9 0.250000 0.750000 0.500000
O O10 0.331415 0.869997 0.463984
O O11 0.500000 0.925936 0.423213
O O12 0.333853 0.969938 0.365363
O O13 0.369572 0.000000 0.500000
O O14 0.750152 0.020410 0.250000
#
# Coordination Sequence:
#
# PCOD8256266 Si02
#       5
#    16  16  16  16  16
#     4   9  17  31  53  80 106 133 171 218 265 314
#     4  11  19  33  56  81 106 132 171 222 270 313
#     4  11  21  34  52  79 111 145 178 214 263 320
#     4  10  19  35  55  74 102 140 185 225 255 302
#     4  10  18  31  53  82 109 134 170 220 275 319
#
# _framework density 16.983616999999999
#
# number of rings (size 3 to 8) (size 9 to 14) (size 15 to 20)
#    0.000    1.800    6.000    1.200    0.000    3.200 
#    0.000    1.000    0.000    0.000    0.000    2.800 
#    0.000    0.000    0.000    0.000    0.000    0.000 
#
# Total GULP energy -496043.066931 kJ/mol
# GULP energy per Si atom -12401.076673 kJ/mol
# Density = 1.694496 g / cm^3
# Si number density = 16.983617 Si / 1000 Ang^3
#
#
#
# Elastic Constant Matrix: (Units=GPa)
#
#
# Indices 1 2 3 4 5 6 
#
# 1 120.7568 38.3599 56.3132 0.0000 0.0000 0.0000
# 2 38.3599 80.5266 45.9591 0.0000 0.0000 0.0000
# 3 56.3132 45.9591 127.7246 0.0000 0.0000 0.0000
# 4 0.0000 0.0000 0.0000 21.3388 0.0000 0.0000
# 5 0.0000 0.0000 0.0000 0.0000 24.9078 0.0000
# 6 0.0000 0.0000 0.0000 0.0000 0.0000 13.5688
#
#
#
# Elastic Compliance Matrix: (Units=1/GPa)
#
#
# Indices 1 2 3 4 5 6 
#
# 1 0.011012 -0.003114 -0.003735 0.000000 0.000000 0.000000
# 2 -0.003114 0.016508 -0.004567 0.000000 0.000000 0.000000
# 3 -0.003735 -0.004567 0.011119 0.000000 0.000000 0.000000
# 4 0.000000 0.000000 0.000000 0.046863 0.000000 0.000000
# 5 0.000000 0.000000 0.000000 0.000000 0.040148 0.000000
# 6 0.000000 0.000000 0.000000 0.000000 0.000000 0.073698
#
#
# Mechanical properties :
#
#
# Convention : Reuss Voigt Hill
#
# Bulk Modulus (GPa) = 63.26011 67.80805 65.53408
# Shear Modulus (GPa) = 21.98286 24.52148 23.25217
#
# Velocity S-wave (km/s) = 3.60162 3.80390 3.70414
# Velocity P-wave (km/s) = 7.39081 7.70098 7.54749
#
# Compressibility (1/GPa) = 0.01580775
#
# Stress axis : x y z
#
# Youngs Moduli (GPa) = 90.81062 60.57524 89.93404
#
# Poissons Ratio (x) = 0.18865 0.33586
# Poissons Ratio (y) = 0.28281 0.41074
# Poissons Ratio (z) = 0.33913 0.27666
#
# Static dielectric constant tensor:
#      x y z
#    x 3.218620 0.000000 0.000000 
#    y 0.000000 2.895570 0.000000 
#    z 0.000000 0.000000 3.497990 
# 
# 
# High freq. dielectric constant tensor:
#      x y z
#    x 1.662710 0.000000 0.000000 
#    y 0.000000 1.610680 0.000000 
#    z 0.000000 0.000000 1.662820 
# 
# From -- ./inp_files/43960.got.cif
#   From: 2010.03.12/outbox.cif.g09.slc.cpg/sg63_22_cif.got.tgz:43960.got - 2010.04.10 19:34:48.
