data_PCOD8256840
_publ_section_title
;
Structure prediction by ZEFSAII (Michael W. Deem and Ramdas Pophale) SiO2 
 PCOD8256840
Probable space group: C M C M
;
_chemical_formula_sum "Si O2"
_cell_formula_units_Z 104
_cell_length_a 23.965873
_cell_length_b 9.176595
_cell_length_c 25.952840
_cell_angle_alpha 90.000000
_cell_angle_beta 90.000000
_cell_angle_gamma 90.000000
_cell_volume 5707.681201
_symmetry_space_group_name_H-M "C M C M"
_symmetry_group_IT_number 63
_symmetry_cell_setting 'orthorhombic'
loop_
_space_group_symop_operation_xyz
x,y,z
-x,-y,1/2+z
x,-y,-z
-x,y,1/2-z
-x,-y,-z
x,y,1/2-z
-x,y,z
x,-y,1/2+z
1/2+x,1/2+y,z
1/2-x,1/2-y,1/2+z
1/2+x,1/2-y,-z
1/2-x,1/2+y,1/2-z
1/2-x,1/2-y,-z
1/2+x,1/2+y,1/2-z
1/2-x,1/2+y,z
1/2+x,1/2-y,1/2+z
loop_
_atom_site_type_symbol
_atom_site_label
_atom_site_fract_x
_atom_site_fract_y
_atom_site_fract_z
Si Si1 0.700274 0.416780 0.250000
Si Si2 0.272880 0.087921 0.598082
Si Si3 0.786133 0.000000 0.000000
Si Si4 0.344547 0.420452 0.354592
Si Si5 0.636857 0.902179 0.860571
Si Si6 0.934198 0.434056 0.055475
Si Si7 0.818732 0.576406 0.250000
Si Si8 0.857798 0.821572 0.574549
O O1 0.660770 0.473588 0.203818
O O2 0.763714 0.474954 0.250000
O O3 0.703715 0.241396 0.250000
O O4 0.254421 0.081277 0.539105
O O5 0.219674 0.112230 0.632684
O O6 0.315996 0.219385 0.607045
O O7 0.303461 0.936410 0.612821
O O8 0.825973 0.878709 0.975491
O O9 0.377641 0.269426 0.362128
O O10 0.374584 0.542376 0.389262
O O11 0.642502 0.954619 0.800618
O O12 0.588972 0.979931 0.894582
O O13 0.912196 0.267646 0.057233
O O14 0.000000 0.431996 0.060303
O O15 0.915330 0.500000 0.000000
#
# Coordination Sequence:
#
# PCOD8256840 Si02
#       8
#     8  16   8  16  16  16   8  16
#     4  10  20  30  52  77 128 156 186 211 254 311
#     4  10  19  30  48  77 113 155 183 211 253 322
#     4  10  20  30  49  76 115 146 182 208 264 320
#     4  10  19  33  50  83 116 150 182 217 262 319
#     4  10  21  35  57  77 114 146 189 222 267 322
#     4  10  24  44  62  78 101 137 185 240 295 336
#     4  10  20  34  51  85 110 160 185 219 254 323
#     4  10  22  33  53  77 110 147 182 228 265 330
#
# _framework density 18.221060000000001
#
# number of rings (size 3 to 8) (size 9 to 14) (size 15 to 20)
#    0.000    2.000    1.538    2.308   10.769    0.000 
#    0.000    1.538    0.000    0.000    0.000    1.077 
#    0.000    0.000    0.000    0.000    0.000    0.000 
#
# Total GULP energy -644458.967982 kJ/mol
# GULP energy per Si atom -12393.441692 kJ/mol
# Density = 1.817959 g / cm^3
# Si number density = 18.221060 Si / 1000 Ang^3
#
#
#
# Elastic Constant Matrix: (Units=GPa)
#
#
# Indices 1 2 3 4 5 6 
#
# 1 63.1918 27.4115 34.6272 0.0000 0.0000 0.0000
# 2 27.4115 91.5544 49.1642 0.0000 0.0000 0.0000
# 3 34.6272 49.1642 140.0261 0.0000 0.0000 0.0000
# 4 0.0000 0.0000 0.0000 27.8243 0.0000 0.0000
# 5 0.0000 0.0000 0.0000 0.0000 45.5708 0.0000
# 6 0.0000 0.0000 0.0000 0.0000 0.0000 17.4647
#
#
#
# Elastic Compliance Matrix: (Units=1/GPa)
#
#
# Indices 1 2 3 4 5 6 
#
# 1 0.019419 -0.003987 -0.003402 0.000000 0.000000 0.000000
# 2 -0.003987 0.014279 -0.004027 0.000000 0.000000 0.000000
# 3 -0.003402 -0.004027 0.009397 0.000000 0.000000 0.000000
# 4 0.000000 0.000000 0.000000 0.035940 0.000000 0.000000
# 5 0.000000 0.000000 0.000000 0.000000 0.021944 0.000000
# 6 0.000000 0.000000 0.000000 0.000000 0.000000 0.057258
#
#
# Mechanical properties :
#
#
# Convention : Reuss Voigt Hill
#
# Bulk Modulus (GPa) = 49.35559 57.46424 53.40992
# Shear Modulus (GPa) = 26.62071 30.40991 28.51531
#
# Velocity S-wave (km/s) = 3.82643 4.08970 3.96025
# Velocity P-wave (km/s) = 6.83140 7.34211 7.09136
#
# Compressibility (1/GPa) = 0.02026113
#
# Stress axis : x y z
#
# Youngs Moduli (GPa) = 51.49695 70.03337 106.41772
#
# Poissons Ratio (x) = 0.27922 0.36205
# Poissons Ratio (y) = 0.20532 0.42859
# Poissons Ratio (z) = 0.17520 0.28206
#
# Static dielectric constant tensor:
#      x y z
#    x 2.913760 0.000000 0.000000 
#    y 0.000000 2.901380 0.000000 
#    z 0.000000 0.000000 11.057320 
# 
# 
# High freq. dielectric constant tensor:
#      x y z
#    x 1.655200 0.000000 0.000000 
#    y 0.000000 1.713920 0.000000 
#    z 0.000000 0.000000 1.722820 
# 
# From -- ./inp_files/70724.got.cif
#   From: 2010.03.12/outbox.cif.g09.slc.cpg/sg63_36_cif.got.tgz:70724.got - 2010.04.10 19:34:48.
