data_PCOD8256312
_publ_section_title
;
Structure prediction by ZEFSAII (Michael W. Deem and Ramdas Pophale) SiO2 
 PCOD8256312
Probable space group: C M C M
;
_chemical_formula_sum "Si O2"
_cell_formula_units_Z 112
_cell_length_a 29.379432
_cell_length_b 14.592831
_cell_length_c 14.513434
_cell_angle_alpha 90.000000
_cell_angle_beta 90.000000
_cell_angle_gamma 90.000000
_cell_volume 6222.331294
_symmetry_space_group_name_H-M "C M C M"
_symmetry_group_IT_number 63
_symmetry_cell_setting 'orthorhombic'
loop_
_space_group_symop_operation_xyz
x,y,z
-x,-y,1/2+z
x,-y,-z
-x,y,1/2-z
-x,-y,-z
x,y,1/2-z
-x,y,z
x,-y,1/2+z
1/2+x,1/2+y,z
1/2-x,1/2-y,1/2+z
1/2+x,1/2-y,-z
1/2-x,1/2+y,1/2-z
1/2-x,1/2-y,-z
1/2+x,1/2+y,1/2-z
1/2-x,1/2+y,z
1/2+x,1/2-y,1/2+z
loop_
_atom_site_type_symbol
_atom_site_label
_atom_site_fract_x
_atom_site_fract_y
_atom_site_fract_z
Si Si1 0.289611 0.730064 0.143447
Si Si2 0.643915 0.233845 0.484692
Si Si3 0.930103 0.498474 0.852355
Si Si4 0.164450 0.545732 0.402513
Si Si5 0.735391 0.523721 0.106648
Si Si6 0.050148 0.650086 0.502844
Si Si7 0.698871 0.663213 0.648471
O O1 0.300190 0.750670 0.250000
O O2 0.286488 0.621582 0.126768
O O3 0.243776 0.782839 0.112197
O O4 0.331516 0.769036 0.083879
O O5 0.662459 0.154127 0.418497
O O6 0.589358 0.227900 0.498712
O O7 0.658299 0.323668 0.425932
O O8 0.952180 0.498049 0.750000
O O9 0.875745 0.490313 0.837628
O O10 0.943318 0.591579 0.904303
O O11 0.947795 0.413088 0.912137
O O12 0.154917 0.500000 0.500000
O O13 0.212623 0.521337 0.356741
O O14 0.707803 0.445125 0.158809
O O15 0.735540 0.500000 0.000000
O O16 0.000000 0.696550 0.505655
O O17 0.684914 0.699599 0.750000
#
# Coordination Sequence:
#
# PCOD8256312 Si02
#       7
#    16  16  16  16  16  16  16
#     4  11  22  35  53  80 111 145 182 219 262 318
#     4  11  20  38  53  73 109 142 179 223 269 310
#     4  10  19  32  54  79 107 142 182 224 268 318
#     4  10  18  32  51  77 108 149 183 215 254 311
#     4  11  20  34  56  75 112 153 185 216 260 314
#     4  10  22  38  53  74 105 139 183 233 277 326
#     4  11  23  35  53  80 110 144 182 220 262 317
#
# _framework density 17.999684999999999
#
# number of rings (size 3 to 8) (size 9 to 14) (size 15 to 20)
#    0.000    1.429    5.714    3.429    0.000    5.143 
#    0.000    0.000    0.000    0.000    0.000    2.000 
#    0.000    2.286    0.000    0.000    0.000    0.000 
#
# Total GULP energy -694225.128789 kJ/mol
# GULP energy per Si atom -12396.877300 kJ/mol
# Density = 1.795872 g / cm^3
# Si number density = 17.999685 Si / 1000 Ang^3
#
#
#
# Elastic Constant Matrix: (Units=GPa)
#
#
# Indices 1 2 3 4 5 6 
#
# 1 138.0388 33.3664 40.0079 0.0000 0.0000 0.0000
# 2 33.3664 69.3526 6.7225 0.0000 0.0000 0.0000
# 3 40.0079 6.7225 98.2625 0.0000 0.0000 0.0000
# 4 0.0000 0.0000 0.0000 12.3826 0.0000 0.0000
# 5 0.0000 0.0000 0.0000 0.0000 0.1588 0.0000
# 6 0.0000 0.0000 0.0000 0.0000 0.0000 16.4295
#
#
#
# Elastic Compliance Matrix: (Units=1/GPa)
#
#
# Indices 1 2 3 4 5 6 
#
# 1 0.009248 -0.004112 -0.003484 0.000000 0.000000 0.000000
# 2 -0.004112 0.016343 0.000556 0.000000 0.000000 0.000000
# 3 -0.003484 0.000556 0.011557 0.000000 0.000000 0.000000
# 4 0.000000 0.000000 0.000000 0.080758 0.000000 0.000000
# 5 0.000000 0.000000 0.000000 0.000000 6.297653 0.000000
# 6 0.000000 0.000000 0.000000 0.000000 0.000000 0.060866
#
#
# Mechanical properties :
#
#
# Convention : Reuss Voigt Hill
#
# Bulk Modulus (GPa) = 43.34785 51.76086 47.55435
# Shear Modulus (GPa) = 0.76944 20.83132 10.80038
#
# Velocity S-wave (km/s) = 0.65453 3.40562 2.45221
# Velocity P-wave (km/s) = 4.97052 6.65457 5.87322
#
# Compressibility (1/GPa) = 0.02306920
#
# Stress axis : x y z
#
# Youngs Moduli (GPa) = 108.13186 61.18707 86.52520
#
# Poissons Ratio (x) = 0.25158 0.30146
# Poissons Ratio (y) = 0.44459 -0.04810
# Poissons Ratio (z) = 0.37674 -0.03402
#
# Static dielectric constant tensor:
#      x y z
#    x 3.335170 0.000000 0.000000 
#    y 0.000000 3.275310 0.000000 
#    z 0.000000 0.000000 3.745880 
# 
# 
# High freq. dielectric constant tensor:
#      x y z
#    x 1.672710 0.000000 0.000000 
#    y 0.000000 1.667410 0.000000 
#    z 0.000000 0.000000 1.708990 
# 
# From -- ./inp_files/37957.got.cif
#   From: 2010.03.12/outbox.cif.g09.slc.cpg/sg63_19_cif.got.tgz:37957.got - 2010.04.10 19:34:48.
