data_PCOD8256112
_publ_section_title
;
Structure prediction by ZEFSAII (Michael W. Deem and Ramdas Pophale) SiO2 
 PCOD8256112
Probable space group: C M C M
;
_chemical_formula_sum "Si O2"
_cell_formula_units_Z 80
_cell_length_a 8.771386
_cell_length_b 20.678601
_cell_length_c 24.958822
_cell_angle_alpha 90.000000
_cell_angle_beta 90.000000
_cell_angle_gamma 90.000000
_cell_volume 4527.030917
_symmetry_space_group_name_H-M "C M C M"
_symmetry_group_IT_number 63
_symmetry_cell_setting 'orthorhombic'
loop_
_space_group_symop_operation_xyz
x,y,z
-x,-y,1/2+z
x,-y,-z
-x,y,1/2-z
-x,-y,-z
x,y,1/2-z
-x,y,z
x,-y,1/2+z
1/2+x,1/2+y,z
1/2-x,1/2-y,1/2+z
1/2+x,1/2-y,-z
1/2-x,1/2+y,1/2-z
1/2-x,1/2-y,-z
1/2+x,1/2+y,1/2-z
1/2-x,1/2+y,z
1/2+x,1/2-y,1/2+z
loop_
_atom_site_type_symbol
_atom_site_label
_atom_site_fract_x
_atom_site_fract_y
_atom_site_fract_z
Si Si1 0.320434 0.066183 0.472165
Si Si2 0.678203 0.311665 0.027899
Si Si3 0.323739 0.391426 0.750000
Si Si4 0.172626 0.259374 0.750000
Si Si5 0.826235 0.251404 0.634412
Si Si6 0.180982 0.110299 0.366147
O O1 0.500000 0.073134 0.468658
O O2 0.256792 0.123752 0.508057
O O3 0.254180 0.066444 0.412106
O O4 0.269065 0.000000 0.500000
O O5 0.500000 0.315257 0.014421
O O6 0.711501 0.304382 0.091539
O O7 0.750000 0.250000 0.000000
O O8 0.500000 0.407007 0.750000
O O9 0.297653 0.315024 0.750000
O O10 0.258011 0.416400 0.807569
O O11 0.197395 0.220236 0.805755
O O12 0.000000 0.288327 0.750000
O O13 0.724002 0.314721 0.624973
O O14 0.000000 0.274786 0.626267
O O15 0.000000 0.104881 0.369562
#
# Coordination Sequence:
#
# PCOD8256112 Si02
#       6
#    16  16   8   8  16  16
#     4  11  24  39  53  72 103 141 181 224 266 309
#     4  11  21  33  53  79 106 137 172 213 258 313
#     4   8  16  28  44  73 104 129 161 205 259 307
#     4   8  14  26  44  69 100 133 163 201 249 301
#     4   9  17  29  48  74 104 133 167 207 253 308
#     4  10  18  30  51  76 104 134 167 211 259 312
#
# _framework density 17.671627000000001
#
# number of rings (size 3 to 8) (size 9 to 14) (size 15 to 20)
#    0.000    2.200    2.000    1.800    0.000    3.200 
#    0.000    0.000    0.000    1.200    0.000    5.600 
#    0.000    0.000    0.000    0.000    0.000    0.000 
#
# Total GULP energy -495525.325709 kJ/mol
# GULP energy per Si atom -12388.133143 kJ/mol
# Density = 1.763141 g / cm^3
# Si number density = 17.671627 Si / 1000 Ang^3
#
#
#
# Elastic Constant Matrix: (Units=GPa)
#
#
# Indices 1 2 3 4 5 6 
#
# 1 55.2075 35.8968 45.6097 0.0000 0.0000 0.0000
# 2 35.8968 89.1831 69.4447 0.0000 0.0000 0.0000
# 3 45.6097 69.4447 202.1226 0.0000 0.0000 0.0000
# 4 0.0000 0.0000 0.0000 19.6225 0.0000 0.0000
# 5 0.0000 0.0000 0.0000 0.0000 23.9346 0.0000
# 6 0.0000 0.0000 0.0000 0.0000 0.0000 21.3994
#
#
#
# Elastic Compliance Matrix: (Units=1/GPa)
#
#
# Indices 1 2 3 4 5 6 
#
# 1 0.025871 -0.008011 -0.003086 0.000000 0.000000 0.000000
# 2 -0.008011 0.017789 -0.004304 0.000000 0.000000 0.000000
# 3 -0.003086 -0.004304 0.007123 0.000000 0.000000 0.000000
# 4 0.000000 0.000000 0.000000 0.050962 0.000000 0.000000
# 5 0.000000 0.000000 0.000000 0.000000 0.041780 0.000000
# 6 0.000000 0.000000 0.000000 0.000000 0.000000 0.046730
#
#
# Mechanical properties :
#
#
# Convention : Reuss Voigt Hill
#
# Bulk Modulus (GPa) = 50.04574 72.04617 61.04595
# Shear Modulus (GPa) = 21.95707 26.02878 23.99292
#
# Velocity S-wave (km/s) = 3.52874 3.84202 3.68871
# Velocity P-wave (km/s) = 6.70701 7.78071 7.26372
#
# Compressibility (1/GPa) = 0.01998172
#
# Stress axis : x y z
#
# Youngs Moduli (GPa) = 38.65267 56.21515 140.39804
#
# Poissons Ratio (x) = 0.45032 0.43323
# Poissons Ratio (y) = 0.30963 0.60430
# Poissons Ratio (z) = 0.11927 0.24196
#
# Static dielectric constant tensor:
#      x y z
#    x 3.367050 0.000000 0.000000 
#    y 0.000000 2.886170 0.000000 
#    z 0.000000 0.000000 4.229190 
# 
# 
# High freq. dielectric constant tensor:
#      x y z
#    x 1.690480 0.000000 0.000000 
#    y 0.000000 1.616690 0.000000 
#    z 0.000000 0.000000 1.719500 
# 
# From -- ./inp_files/66714.got.cif
#   From: 2010.03.12/outbox.cif.g09.slc.cpg/sg63_34_cif.got.tgz:66714.got - 2010.04.10 19:34:48.
