data_PCOD8256179
_publ_section_title
;
Structure prediction by ZEFSAII (Michael W. Deem and Ramdas Pophale) SiO2 
 PCOD8256179
Probable space group: C M C M
;
_chemical_formula_sum "Si O2"
_cell_formula_units_Z 64
_cell_length_a 27.407789
_cell_length_b 14.572579
_cell_length_c 8.539829
_cell_angle_alpha 90.000000
_cell_angle_beta 90.000000
_cell_angle_gamma 90.000000
_cell_volume 3410.826238
_symmetry_space_group_name_H-M "C M C M"
_symmetry_group_IT_number 63
_symmetry_cell_setting 'orthorhombic'
loop_
_space_group_symop_operation_xyz
x,y,z
-x,-y,1/2+z
x,-y,-z
-x,y,1/2-z
-x,-y,-z
x,y,1/2-z
-x,y,z
x,-y,1/2+z
1/2+x,1/2+y,z
1/2-x,1/2-y,1/2+z
1/2+x,1/2-y,-z
1/2-x,1/2+y,1/2-z
1/2-x,1/2-y,-z
1/2+x,1/2+y,1/2-z
1/2-x,1/2+y,z
1/2+x,1/2-y,1/2+z
loop_
_atom_site_type_symbol
_atom_site_label
_atom_site_fract_x
_atom_site_fract_y
_atom_site_fract_z
Si Si1 0.766467 0.846924 0.064420
Si Si2 0.638789 0.285635 0.934096
Si Si3 0.056492 0.097873 0.566915
Si Si4 0.828412 0.592710 0.065473
O O1 0.762516 0.853329 0.250000
O O2 0.750000 0.750000 0.000000
O O3 0.822491 0.858093 0.009687
O O4 0.728531 0.917042 0.986014
O O5 0.645967 0.285917 0.750000
O O6 0.585456 0.320620 0.981597
O O7 0.645559 0.181897 0.994058
O O8 0.067646 0.100155 0.750000
O O9 0.000000 0.115472 0.529274
O O10 0.073346 0.000000 0.500000
O O11 0.833281 0.598340 0.250000
O O12 0.854245 0.500000 0.000000
#
# Coordination Sequence:
#
# PCOD8256179 Si02
#       4
#    16  16  16  16
#     4  10  18  31  49  72 102 137 176 216 259 304
#     4  11  21  35  55  80 109 143 181 220 266 318
#     4  10  21  38  59  83 109 137 172 217 269 322
#     4  11  21  35  53  77 109 145 184 223 265 313
#
# _framework density 18.763781000000002
#
# number of rings (size 3 to 8) (size 9 to 14) (size 15 to 20)
#    0.000    1.500    0.000   10.500    0.000    2.500 
#    0.000    5.000    0.000    0.750    0.000    0.000 
#    0.000    0.000    0.000    0.000    0.000    0.000 
#
# Total GULP energy -396711.951008 kJ/mol
# GULP energy per Si atom -12397.248469 kJ/mol
# Density = 1.872107 g / cm^3
# Si number density = 18.763781 Si / 1000 Ang^3
#
#
#
# Elastic Constant Matrix: (Units=GPa)
#
#
# Indices 1 2 3 4 5 6 
#
# 1 78.0805 47.8551 30.2406 0.0000 0.0000 0.0000
# 2 47.8551 106.2994 30.0273 0.0000 0.0000 0.0000
# 3 30.2406 30.0273 122.7128 0.0000 0.0000 0.0000
# 4 0.0000 0.0000 0.0000 32.5995 0.0000 0.0000
# 5 0.0000 0.0000 0.0000 0.0000 30.9080 0.0000
# 6 0.0000 0.0000 0.0000 0.0000 0.0000 -75.2721
#
#
#
# Elastic Compliance Matrix: (Units=1/GPa)
#
#
# Indices 1 2 3 4 5 6 
#
# 1 0.018488 -0.007559 -0.002707 0.000000 0.000000 0.000000
# 2 -0.007559 0.013196 -0.001366 0.000000 0.000000 0.000000
# 3 -0.002707 -0.001366 0.009150 0.000000 0.000000 0.000000
# 4 0.000000 0.000000 0.000000 0.030675 0.000000 0.000000
# 5 0.000000 0.000000 0.000000 0.000000 0.032354 0.000000
# 6 0.000000 0.000000 0.000000 0.000000 0.000000 -0.013285
#
#
# Mechanical properties :
#
#
# Convention : Reuss Voigt Hill
#
# Bulk Modulus (GPa) = 56.90965 58.14872 57.52919
# Shear Modulus (GPa) = 41.77126 10.91173 26.34150
#
# Velocity S-wave (km/s) = 4.72334 2.41411 3.75086
# Velocity P-wave (km/s) = 7.75513 6.23119 7.03455
#
# Compressibility (1/GPa) = 0.01757171
#
# Stress axis : x y z
#
# Youngs Moduli (GPa) = 54.08849 75.77934 109.28444
#
# Poissons Ratio (x) = 0.57279 0.29578
# Poissons Ratio (y) = 0.40884 0.14932
# Poissons Ratio (z) = 0.14639 0.10354
#
# Static dielectric constant tensor:
#      x y z
#    x 3.676260 0.000000 0.000000 
#    y 0.000000 4.495940 0.000000 
#    z 0.000000 0.000000 3.565370 
# 
# 
# High freq. dielectric constant tensor:
#      x y z
#    x 1.706100 0.000000 0.000000 
#    y 0.000000 1.725510 0.000000 
#    z 0.000000 0.000000 1.752580 
# 
# From -- ./inp_files/9598.got.cif
#   From: 2010.03.12/outbox.cif.g09.slc.cpg/sg63_5_cif.got.tgz:9598.got - 2010.04.10 19:34:48.
