data_PCOD8256434
_publ_section_title
;
Structure prediction by ZEFSAII (Michael W. Deem and Ramdas Pophale) SiO2 
 PCOD8256434
Probable space group: C M C M
;
_chemical_formula_sum "Si O2"
_cell_formula_units_Z 104
_cell_length_a 19.860095
_cell_length_b 17.042026
_cell_length_c 15.907215
_cell_angle_alpha 90.000000
_cell_angle_beta 90.000000
_cell_angle_gamma 90.000000
_cell_volume 5383.896422
_symmetry_space_group_name_H-M "C M C M"
_symmetry_group_IT_number 63
_symmetry_cell_setting 'orthorhombic'
loop_
_space_group_symop_operation_xyz
x,y,z
-x,-y,1/2+z
x,-y,-z
-x,y,1/2-z
-x,-y,-z
x,y,1/2-z
-x,y,z
x,-y,1/2+z
1/2+x,1/2+y,z
1/2-x,1/2-y,1/2+z
1/2+x,1/2-y,-z
1/2-x,1/2+y,1/2-z
1/2-x,1/2-y,-z
1/2+x,1/2+y,1/2-z
1/2-x,1/2+y,z
1/2+x,1/2-y,1/2+z
loop_
_atom_site_type_symbol
_atom_site_label
_atom_site_fract_x
_atom_site_fract_y
_atom_site_fract_z
Si Si1 0.500000 0.726754 0.649651
Si Si2 0.167603 0.619713 0.917860
Si Si3 0.209509 0.196356 0.655835
Si Si4 0.500000 0.445974 0.347874
Si Si5 0.123449 0.319944 0.579282
Si Si6 0.352612 0.470692 0.347961
Si Si7 0.424077 0.987208 0.900520
Si Si8 0.736233 0.500000 0.500000
O O1 0.500000 0.731942 0.750000
O O2 0.500000 0.639701 0.611222
O O3 0.564612 0.766940 0.612348
O O4 0.212349 0.672420 0.856390
O O5 0.121527 0.558795 0.863916
O O6 0.120505 0.673108 0.977664
O O7 0.216973 0.574996 0.983731
O O8 0.199228 0.224389 0.750000
O O9 0.192233 0.273646 0.601540
O O10 0.160793 0.122068 0.637622
O O11 0.500000 0.429681 0.250000
O O12 0.430686 0.491152 0.370889
O O13 0.113824 0.405996 0.621685
O O14 0.335575 0.493058 0.250000
O O15 0.307755 0.518292 0.415651
O O16 0.500000 0.987962 0.862487
O O17 0.427853 0.000000 0.000000
#
# Coordination Sequence:
#
# PCOD8256434 Si02
#       8
#     8  16  16   8  16  16  16   8
#     4  11  20  30  46  78 113 131 158 213 276 323
#     4  10  20  35  54  76 105 145 185 213 262 333
#     4  10  20  34  51  74 108 141 174 224 272 317
#     4   9  16  31  49  70 101 134 167 214 274 322
#     4  11  18  31  53  79 104 136 177 215 265 321
#     4   9  18  31  50  73 101 138 174 217 271 323
#     4   9  17  31  52  78 108 140 174 218 268 321
#     4  10  18  33  51  72 106 136 178 214 254 322
#
# _framework density 19.316865
#
# number of rings (size 3 to 8) (size 9 to 14) (size 15 to 20)
#    0.000    2.154    4.615    0.923    1.077    0.308 
#    0.000    3.077    0.000    0.000    0.000    0.000 
#    0.000    0.000    0.000    0.000    0.000    0.000 
#
# Total GULP energy -644250.835479 kJ/mol
# GULP energy per Si atom -12389.439144 kJ/mol
# Density = 1.927290 g / cm^3
# Si number density = 19.316865 Si / 1000 Ang^3
#
#
#
# Elastic Constant Matrix: (Units=GPa)
#
#
# Indices 1 2 3 4 5 6 
#
# 1 106.0070 27.6276 15.4353 0.0000 0.0000 0.0000
# 2 27.6276 62.1710 6.6172 0.0000 0.0000 0.0000
# 3 15.4353 6.6172 45.0174 0.0000 0.0000 0.0000
# 4 0.0000 0.0000 0.0000 21.4723 0.0000 0.0000
# 5 0.0000 0.0000 0.0000 0.0000 24.9232 0.0000
# 6 0.0000 0.0000 0.0000 0.0000 0.0000 35.5553
#
#
#
# Elastic Compliance Matrix: (Units=1/GPa)
#
#
# Indices 1 2 3 4 5 6 
#
# 1 0.011086 -0.004594 -0.003126 0.000000 0.000000 0.000000
# 2 -0.004594 0.018244 -0.001107 0.000000 0.000000 0.000000
# 3 -0.003126 -0.001107 0.023448 0.000000 0.000000 0.000000
# 4 0.000000 0.000000 0.000000 0.046572 0.000000 0.000000
# 5 0.000000 0.000000 0.000000 0.000000 0.040123 0.000000
# 6 0.000000 0.000000 0.000000 0.000000 0.000000 0.028125
#
#
# Mechanical properties :
#
#
# Convention : Reuss Voigt Hill
#
# Bulk Modulus (GPa) = 28.46939 34.72841 31.59890
# Shear Modulus (GPa) = 25.38609 27.29115 26.33862
#
# Velocity S-wave (km/s) = 3.62911 3.76282 3.69657
# Velocity P-wave (km/s) = 5.68601 6.07419 5.88330
#
# Compressibility (1/GPa) = 0.03512544
#
# Stress axis : x y z
#
# Youngs Moduli (GPa) = 90.20666 54.81323 42.64750
#
# Poissons Ratio (x) = 0.25179 0.13331
# Poissons Ratio (y) = 0.41437 0.04720
# Poissons Ratio (z) = 0.28197 0.06066
#
# Static dielectric constant tensor:
#      x y z
#    x 4.035510 0.000000 0.000000 
#    y 0.000000 3.401810 0.000000 
#    z 0.000000 0.000000 3.305050 
# 
# 
# High freq. dielectric constant tensor:
#      x y z
#    x 1.764130 0.000000 0.000000 
#    y 0.000000 1.724580 0.000000 
#    z 0.000000 0.000000 1.718820 
# 
# From -- ./inp_files/47180.got.cif
#   From: 2010.03.12/outbox.cif.g09.slc.cpg/sg63_24_cif.got.tgz:47180.got - 2010.04.10 19:34:48.
