data_PCOD8256013
_publ_section_title
;
Structure prediction by ZEFSAII (Michael W. Deem and Ramdas Pophale) SiO2 
 PCOD8256013
Probable space group: C M C M
;
_chemical_formula_sum "Si O2"
_cell_formula_units_Z 96
_cell_length_a 23.510296
_cell_length_b 14.929254
_cell_length_c 15.859537
_cell_angle_alpha 90.000000
_cell_angle_beta 90.000000
_cell_angle_gamma 90.000000
_cell_volume 5566.557615
_symmetry_space_group_name_H-M "C M C M"
_symmetry_group_IT_number 63
_symmetry_cell_setting 'orthorhombic'
loop_
_space_group_symop_operation_xyz
x,y,z
-x,-y,1/2+z
x,-y,-z
-x,y,1/2-z
-x,-y,-z
x,y,1/2-z
-x,y,z
x,-y,1/2+z
1/2+x,1/2+y,z
1/2-x,1/2-y,1/2+z
1/2+x,1/2-y,-z
1/2-x,1/2+y,1/2-z
1/2-x,1/2-y,-z
1/2+x,1/2+y,1/2-z
1/2-x,1/2+y,z
1/2+x,1/2-y,1/2+z
loop_
_atom_site_type_symbol
_atom_site_label
_atom_site_fract_x
_atom_site_fract_y
_atom_site_fract_z
Si Si1 0.272194 0.299694 0.918910
Si Si2 0.564344 0.676387 0.656548
Si Si3 0.744579 0.118672 0.655291
Si Si4 0.318250 0.058519 0.348604
Si Si5 0.938579 0.387294 0.846371
Si Si6 0.848235 0.097837 0.970349
O O1 0.280502 0.220162 0.850629
O O2 0.227065 0.374951 0.891119
O O3 0.250000 0.250000 0.000000
O O4 0.332140 0.345902 0.944818
O O5 0.587852 0.648791 0.750000
O O6 0.500000 0.642261 0.648165
O O7 0.568228 0.781820 0.647473
O O8 0.598269 0.635580 0.579045
O O9 0.767319 0.104668 0.750000
O O10 0.795156 0.098738 0.592013
O O11 0.696470 0.045130 0.634590
O O12 0.318521 0.083146 0.250000
O O13 0.381733 0.070656 0.388473
O O14 0.940854 0.418909 0.750000
O O15 0.000000 0.415745 0.888294
O O16 0.864940 0.000000 0.000000
#
# Coordination Sequence:
#
# PCOD8256013 Si02
#       6
#    16  16  16  16  16  16
#     4  10  20  31  47  70 100 133 167 210 259 312
#     4   9  18  33  53  75  98 129 171 215 260 313
#     4  10  20  33  50  71 101 140 177 210 252 309
#     4  10  18  30  48  72 100 132 171 209 251 309
#     4   8  14  26  46  71  95 120 159 212 257 291
#     4  11  20  33  49  74 104 133 168 213 269 312
#
# _framework density 17.245847000000001
#
# number of rings (size 3 to 8) (size 9 to 14) (size 15 to 20)
#    0.000    2.333    1.667    4.000    0.000    1.667 
#    0.000    0.000    0.000    1.000    0.000   10.500 
#    0.000    0.000    0.000    0.167    0.000    0.500 
#
# Total GULP energy -594637.048569 kJ/mol
# GULP energy per Si atom -12388.271845 kJ/mol
# Density = 1.720659 g / cm^3
# Si number density = 17.245847 Si / 1000 Ang^3
#
#
#
# Elastic Constant Matrix: (Units=GPa)
#
#
# Indices 1 2 3 4 5 6 
#
# 1 114.7907 51.5157 37.3868 0.0000 0.0000 0.0000
# 2 51.5157 81.7380 18.3299 0.0000 0.0000 0.0000
# 3 37.3868 18.3299 43.0095 0.0000 0.0000 0.0000
# 4 0.0000 0.0000 0.0000 20.9401 0.0000 0.0000
# 5 0.0000 0.0000 0.0000 0.0000 29.0452 0.0000
# 6 0.0000 0.0000 0.0000 0.0000 0.0000 14.0978
#
#
#
# Elastic Compliance Matrix: (Units=1/GPa)
#
#
# Indices 1 2 3 4 5 6 
#
# 1 0.015346 -0.007386 -0.010192 0.000000 0.000000 0.000000
# 2 -0.007386 0.017082 -0.000860 0.000000 0.000000 0.000000
# 3 -0.010192 -0.000860 0.032476 0.000000 0.000000 0.000000
# 4 0.000000 0.000000 0.000000 0.047755 0.000000 0.000000
# 5 0.000000 0.000000 0.000000 0.000000 0.034429 0.000000
# 6 0.000000 0.000000 0.000000 0.000000 0.000000 0.070933
#
#
# Mechanical properties :
#
#
# Convention : Reuss Voigt Hill
#
# Bulk Modulus (GPa) = 35.67684 50.44479 43.06081
# Shear Modulus (GPa) = 18.92224 21.63701 20.27962
#
# Velocity S-wave (km/s) = 3.31600 3.54591 3.43288
# Velocity P-wave (km/s) = 5.94923 6.78811 6.38247
#
# Compressibility (1/GPa) = 0.02802939
#
# Stress axis : x y z
#
# Youngs Moduli (GPa) = 65.16510 58.54072 30.79166
#
# Poissons Ratio (x) = 0.43239 0.31382
# Poissons Ratio (y) = 0.48132 0.02647
# Poissons Ratio (z) = 0.66414 0.05032
#
# Static dielectric constant tensor:
#      x y z
#    x 3.777900 0.000000 0.000000 
#    y 0.000000 3.595670 0.000000 
#    z 0.000000 0.000000 3.577490 
# 
# 
# High freq. dielectric constant tensor:
#      x y z
#    x 1.654300 0.000000 0.000000 
#    y 0.000000 1.663370 0.000000 
#    z 0.000000 0.000000 1.651010 
# 
# From -- ./inp_files/48038.got.cif
#   From: 2010.03.12/outbox.cif.g09.slc.cpg/sg63_25_cif.got.tgz:48038.got - 2010.04.10 19:34:48.
