data_PCOD8256593
_publ_section_title
;
Structure prediction by ZEFSAII (Michael W. Deem and Ramdas Pophale) SiO2 
 PCOD8256593
Probable space group: C M C M
;
_chemical_formula_sum "Si O2"
_cell_formula_units_Z 112
_cell_length_a 18.046716
_cell_length_b 20.558621
_cell_length_c 19.609970
_cell_angle_alpha 90.000000
_cell_angle_beta 90.000000
_cell_angle_gamma 90.000000
_cell_volume 7275.604678
_symmetry_space_group_name_H-M "C M C M"
_symmetry_group_IT_number 63
_symmetry_cell_setting 'orthorhombic'
loop_
_space_group_symop_operation_xyz
x,y,z
-x,-y,1/2+z
x,-y,-z
-x,y,1/2-z
-x,-y,-z
x,y,1/2-z
-x,y,z
x,-y,1/2+z
1/2+x,1/2+y,z
1/2-x,1/2-y,1/2+z
1/2+x,1/2-y,-z
1/2-x,1/2+y,1/2-z
1/2-x,1/2-y,-z
1/2+x,1/2+y,1/2-z
1/2-x,1/2+y,z
1/2+x,1/2-y,1/2+z
loop_
_atom_site_type_symbol
_atom_site_label
_atom_site_fract_x
_atom_site_fract_y
_atom_site_fract_z
Si Si1 0.843900 0.744078 0.170335
Si Si2 0.417597 0.375608 0.168834
Si Si3 0.085782 0.366797 0.583310
Si Si4 0.414816 0.863023 0.425710
Si Si5 0.161285 0.498258 0.078072
Si Si6 0.804037 0.689023 0.674748
Si Si7 0.221843 0.052124 0.673783
O O1 0.860016 0.732878 0.250000
O O2 0.891397 0.805101 0.141748
O O3 0.866251 0.680304 0.129702
O O4 0.756482 0.755816 0.157197
O O5 0.415601 0.372630 0.250000
O O6 0.500000 0.390812 0.140880
O O7 0.361556 0.433360 0.145810
O O8 0.098514 0.347485 0.504814
O O9 0.112502 0.439786 0.597708
O O10 0.000000 0.361883 0.603613
O O11 0.500000 0.855680 0.405336
O O12 0.390056 0.936055 0.407626
O O13 0.368827 0.810653 0.381468
O O14 0.235692 0.497201 0.123785
O O15 0.187633 0.500000 0.000000
O O16 0.838210 0.701914 0.750000
O O17 0.762650 0.620683 0.675457
O O18 0.220096 0.021763 0.750000
#
# Coordination Sequence:
#
# PCOD8256593 Si02
#       7
#    16  16  16  16  16  16  16
#     4   9  17  28  41  60  87 112 133 161 200 250
#     4   8  13  23  41  62  81 101 125 160 209 252
#     4  10  19  28  40  60  85 114 142 165 198 246
#     4   9  17  29  44  62  83 107 140 178 206 233
#     4   9  17  29  42  56  81 115 142 166 201 242
#     4   8  15  28  44  61  81 105 133 168 209 245
#     4   8  14  25  41  60  79 100 133 172 201 234
#
# _framework density 15.393909000000001
#
# number of rings (size 3 to 8) (size 9 to 14) (size 15 to 20)
#    0.000    3.286    0.000    2.571    0.000    4.000 
#    0.000    0.000    0.000    3.000    0.000    1.000 
#    0.000    2.286    0.000    0.000    0.000    0.000 
#
# Total GULP energy -694133.548985 kJ/mol
# GULP energy per Si atom -12395.241946 kJ/mol
# Density = 1.535887 g / cm^3
# Si number density = 15.393909 Si / 1000 Ang^3
#
#
#
# Elastic Constant Matrix: (Units=GPa)
#
#
# Indices 1 2 3 4 5 6 
#
# 1 112.0901 40.3744 58.6338 0.0000 0.0000 0.0000
# 2 40.3744 51.0377 39.8629 0.0000 0.0000 0.0000
# 3 58.6338 39.8629 68.7384 0.0000 0.0000 0.0000
# 4 0.0000 0.0000 0.0000 21.5318 0.0000 0.0000
# 5 0.0000 0.0000 0.0000 0.0000 25.0517 0.0000
# 6 0.0000 0.0000 0.0000 0.0000 0.0000 24.1130
#
#
#
# Elastic Compliance Matrix: (Units=1/GPa)
#
#
# Indices 1 2 3 4 5 6 
#
# 1 0.016496 -0.003764 -0.011888 0.000000 0.000000 0.000000
# 2 -0.003764 0.036675 -0.018058 0.000000 0.000000 0.000000
# 3 -0.011888 -0.018058 0.035160 0.000000 0.000000 0.000000
# 4 0.000000 0.000000 0.000000 0.046443 0.000000 0.000000
# 5 0.000000 0.000000 0.000000 0.000000 0.039917 0.000000
# 6 0.000000 0.000000 0.000000 0.000000 0.000000 0.041471
#
#
# Mechanical properties :
#
#
# Convention : Reuss Voigt Hill
#
# Bulk Modulus (GPa) = 47.82083 56.62316 52.22199
# Shear Modulus (GPa) = 17.20854 20.33897 18.77376
#
# Velocity S-wave (km/s) = 3.34710 3.63882 3.49601
# Velocity P-wave (km/s) = 6.78746 7.38359 7.09179
#
# Compressibility (1/GPa) = 0.02091139
#
# Stress axis : x y z
#
# Youngs Moduli (GPa) = 60.62158 27.26642 28.44115
#
# Poissons Ratio (x) = 0.10264 0.33811
# Poissons Ratio (y) = 0.22820 0.51358
# Poissons Ratio (z) = 0.72066 0.49237
#
# Static dielectric constant tensor:
#      x y z
#    x 3.212730 0.000000 0.000000 
#    y 0.000000 2.689070 0.000000 
#    z 0.000000 0.000000 2.946710 
# 
# 
# High freq. dielectric constant tensor:
#      x y z
#    x 1.591690 0.000000 0.000000 
#    y 0.000000 1.557460 0.000000 
#    z 0.000000 0.000000 1.576390 
# 
# From -- ./inp_files/46086.got.cif
#   From: 2010.03.12/outbox.cif.g09.slc.cpg/sg63_24_cif.got.tgz:46086.got - 2010.04.10 19:34:48.
