data_PCOD8256303
_publ_section_title
;
Structure prediction by ZEFSAII (Michael W. Deem and Ramdas Pophale) SiO2 
 PCOD8256303
Probable space group: C M C M
;
_chemical_formula_sum "Si O2"
_cell_formula_units_Z 56
_cell_length_a 7.618225
_cell_length_b 36.286505
_cell_length_c 10.411577
_cell_angle_alpha 90.000000
_cell_angle_beta 90.000000
_cell_angle_gamma 90.000000
_cell_volume 2878.163431
_symmetry_space_group_name_H-M "C M C M"
_symmetry_group_IT_number 63
_symmetry_cell_setting 'orthorhombic'
loop_
_space_group_symop_operation_xyz
x,y,z
-x,-y,1/2+z
x,-y,-z
-x,y,1/2-z
-x,-y,-z
x,y,1/2-z
-x,y,z
x,-y,1/2+z
1/2+x,1/2+y,z
1/2-x,1/2-y,1/2+z
1/2+x,1/2-y,-z
1/2-x,1/2+y,1/2-z
1/2-x,1/2-y,-z
1/2+x,1/2+y,1/2-z
1/2-x,1/2+y,z
1/2+x,1/2-y,1/2+z
loop_
_atom_site_type_symbol
_atom_site_label
_atom_site_fract_x
_atom_site_fract_y
_atom_site_fract_z
Si Si1 0.698768 0.410007 0.398714
Si Si2 0.000000 0.532887 0.899406
Si Si3 0.798139 0.798069 0.750000
Si Si4 0.291472 0.668321 0.508815
Si Si5 0.708741 0.286403 0.250000
O O1 0.707615 0.398737 0.250000
O O2 0.500000 0.421491 0.436824
O O3 0.763748 0.374379 0.477748
O O4 0.825883 0.443800 0.429438
O O5 0.000000 0.519521 0.750000
O O6 0.000000 0.500000 0.000000
O O7 0.709866 0.815709 0.623063
O O8 0.781735 0.754518 0.750000
O O9 0.000000 0.809615 0.750000
O O10 0.500000 0.671473 0.511944
O O11 0.215534 0.692694 0.625276
O O12 0.500000 0.285626 0.250000
#
# Coordination Sequence:
#
# PCOD8256303 Si02
#       5
#    16   8   8  16   8
#     4   9  17  35  61  83 106 147 190 220 264 327
#     4  10  22  40  60  88 120 142 176 228 276 330
#     4  10  20  32  44  72 106 135 171 230 280 313
#     4   9  17  32  52  70 100 138 179 224 265 315
#     4  10  18  32  50  68  98 139 179 218 272 325
#
# _framework density 19.456849999999999
#
# number of rings (size 3 to 8) (size 9 to 14) (size 15 to 20)
#    0.000    2.571    1.429    0.857    0.000    0.571 
#    7.714    0.000    0.000    0.000    0.000    0.000 
#    0.000    0.000    0.000    0.000    0.000    0.000 
#
# Total GULP energy -347147.339296 kJ/mol
# GULP energy per Si atom -12398.119261 kJ/mol
# Density = 1.941257 g / cm^3
# Si number density = 19.456850 Si / 1000 Ang^3
#
#
#
# Elastic Constant Matrix: (Units=GPa)
#
#
# Indices 1 2 3 4 5 6 
#
# 1 62.0046 43.9872 27.9971 0.0000 0.0000 0.0000
# 2 43.9872 159.0818 95.1246 0.0000 0.0000 0.0000
# 3 27.9971 95.1246 162.9361 0.0000 0.0000 0.0000
# 4 0.0000 0.0000 0.0000 37.8302 0.0000 0.0000
# 5 0.0000 0.0000 0.0000 0.0000 4.9007 0.0000
# 6 0.0000 0.0000 0.0000 0.0000 0.0000 26.4560
#
#
#
# Elastic Compliance Matrix: (Units=1/GPa)
#
#
# Indices 1 2 3 4 5 6 
#
# 1 0.020074 -0.005359 -0.000321 0.000000 0.000000 0.000000
# 2 -0.005359 0.011088 -0.005553 0.000000 0.000000 0.000000
# 3 -0.000321 -0.005553 0.009434 0.000000 0.000000 0.000000
# 4 0.000000 0.000000 0.000000 0.026434 0.000000 0.000000
# 5 0.000000 0.000000 0.000000 0.000000 0.204051 0.000000
# 6 0.000000 0.000000 0.000000 0.000000 0.000000 0.037799
#
#
# Mechanical properties :
#
#
# Convention : Reuss Voigt Hill
#
# Bulk Modulus (GPa) = 55.15066 79.80448 67.47757
# Shear Modulus (GPa) = 14.81969 28.29829 21.55899
#
# Velocity S-wave (km/s) = 2.76283 3.81781 3.33234
# Velocity P-wave (km/s) = 6.21162 7.78071 7.04002
#
# Compressibility (1/GPa) = 0.01813215
#
# Stress axis : x y z
#
# Youngs Moduli (GPa) = 49.81479 90.18704 105.99772
#
# Poissons Ratio (x) = 0.48330 0.03400
# Poissons Ratio (y) = 0.26695 0.58856
# Poissons Ratio (z) = 0.01598 0.50077
#
# Static dielectric constant tensor:
#      x y z
#    x 3.421790 0.000000 0.000000 
#    y 0.000000 3.365520 0.000000 
#    z 0.000000 0.000000 3.863340 
# 
# 
# High freq. dielectric constant tensor:
#      x y z
#    x 1.745480 0.000000 0.000000 
#    y 0.000000 1.747230 0.000000 
#    z 0.000000 0.000000 1.753570 
# 
# From -- ./inp_files/16136.got.cif
#   From: 2010.03.12/outbox.cif.g09.slc.cpg/sg63_9_cif.got.tgz:16136.got - 2010.04.10 19:34:48.
