data_PCOD8256994
_publ_section_title
;
Structure prediction by ZEFSAII (Michael W. Deem and Ramdas Pophale) SiO2 
 PCOD8256994
Probable space group: C M C M
;
_chemical_formula_sum "Si O2"
_cell_formula_units_Z 80
_cell_length_a 20.059550
_cell_length_b 27.885562
_cell_length_c 8.947574
_cell_angle_alpha 90.000000
_cell_angle_beta 90.000000
_cell_angle_gamma 90.000000
_cell_volume 5005.020800
_symmetry_space_group_name_H-M "C M C M"
_symmetry_group_IT_number 63
_symmetry_cell_setting 'orthorhombic'
loop_
_space_group_symop_operation_xyz
x,y,z
-x,-y,1/2+z
x,-y,-z
-x,y,1/2-z
-x,-y,-z
x,y,1/2-z
-x,y,z
x,-y,1/2+z
1/2+x,1/2+y,z
1/2-x,1/2-y,1/2+z
1/2+x,1/2-y,-z
1/2-x,1/2+y,1/2-z
1/2-x,1/2-y,-z
1/2+x,1/2+y,1/2-z
1/2-x,1/2+y,z
1/2+x,1/2-y,1/2+z
loop_
_atom_site_type_symbol
_atom_site_label
_atom_site_fract_x
_atom_site_fract_y
_atom_site_fract_z
Si Si1 0.577580 0.316929 0.576616
Si Si2 0.186445 0.877041 0.426588
Si Si3 0.265558 0.952174 0.919720
Si Si4 0.424485 0.781812 0.574779
Si Si5 0.188191 0.646867 0.419704
O O1 0.596347 0.318850 0.750000
O O2 0.500000 0.326621 0.548143
O O3 0.616672 0.358112 0.488874
O O4 0.598346 0.265178 0.513505
O O5 0.183413 0.880332 0.250000
O O6 0.200427 0.930059 0.496134
O O7 0.246765 0.841189 0.478597
O O8 0.246103 0.964476 0.750000
O O9 0.323701 0.911159 0.926562
O O10 0.291479 0.000000 0.000000
O O11 0.417731 0.771083 0.750000
O O12 0.500000 0.796417 0.533019
O O13 0.377086 0.825467 0.522331
O O14 0.204759 0.662495 0.250000
#
# Coordination Sequence:
#
# PCOD8256994 Si02
#       5
#    16  16  16  16  16
#     4  10  20  33  48  68  97 130 159 193 237 282
#     4  10  19  31  49  72  94 124 161 198 234 276
#     4   9  17  31  50  72  96 122 154 194 242 286
#     4   9  17  31  50  70  94 128 165 197 234 280
#     4   8  17  31  47  70  97 124 156 198 239 279
#
# _framework density 15.983950999999999
#
# number of rings (size 3 to 8) (size 9 to 14) (size 15 to 20)
#    1.200    1.600    0.000    2.400    0.000    2.800 
#    0.000    0.000    0.000    1.200    0.000    0.000 
#    0.000    0.000    0.000    0.000    0.000    0.000 
#
# Total GULP energy -495612.394534 kJ/mol
# GULP energy per Si atom -12390.309863 kJ/mol
# Density = 1.594757 g / cm^3
# Si number density = 15.983951 Si / 1000 Ang^3
#
#
#
# Elastic Constant Matrix: (Units=GPa)
#
#
# Indices 1 2 3 4 5 6 
#
# 1 37.9036 11.5786 17.8553 0.0000 0.0000 0.0000
# 2 11.5786 46.2756 21.0132 0.0000 0.0000 0.0000
# 3 17.8553 21.0132 90.2108 0.0000 0.0000 0.0000
# 4 0.0000 0.0000 0.0000 29.7978 0.0000 0.0000
# 5 0.0000 0.0000 0.0000 0.0000 18.6661 0.0000
# 6 0.0000 0.0000 0.0000 0.0000 0.0000 13.6492
#
#
#
# Elastic Compliance Matrix: (Units=1/GPa)
#
#
# Indices 1 2 3 4 5 6 
#
# 1 0.030267 -0.005427 -0.004727 0.000000 0.000000 0.000000
# 2 -0.005427 0.025139 -0.004782 0.000000 0.000000 0.000000
# 3 -0.004727 -0.004782 0.013134 0.000000 0.000000 0.000000
# 4 0.000000 0.000000 0.000000 0.033560 0.000000 0.000000
# 5 0.000000 0.000000 0.000000 0.000000 0.053573 0.000000
# 6 0.000000 0.000000 0.000000 0.000000 0.000000 0.073265
#
#
# Mechanical properties :
#
#
# Convention : Reuss Voigt Hill
#
# Bulk Modulus (GPa) = 25.85966 30.58713 28.22339
# Shear Modulus (GPa) = 18.40283 20.68548 19.54415
#
# Velocity S-wave (km/s) = 3.39681 3.60132 3.50056
# Velocity P-wave (km/s) = 5.62121 6.03907 5.83388
#
# Compressibility (1/GPa) = 0.03867027
#
# Stress axis : x y z
#
# Youngs Moduli (GPa) = 33.03929 39.77920 76.13550
#
# Poissons Ratio (x) = 0.21587 0.35986
# Poissons Ratio (y) = 0.17930 0.36405
# Poissons Ratio (z) = 0.15616 0.19021
#
# Static dielectric constant tensor:
#      x y z
#    x 2.887380 0.000000 0.000000 
#    y 0.000000 2.891100 0.000000 
#    z 0.000000 0.000000 3.060390 
# 
# 
# High freq. dielectric constant tensor:
#      x y z
#    x 1.590000 0.000000 0.000000 
#    y 0.000000 1.597430 0.000000 
#    z 0.000000 0.000000 1.625460 
# 
# From -- ./inp_files/8868.got.cif
#   From: 2010.03.12/outbox.cif.g09.slc.cpg/sg63_5_cif.got.tgz:8868.got - 2010.04.10 19:34:48.
