data_PCOD8256270
_publ_section_title
;
Structure prediction by ZEFSAII (Michael W. Deem and Ramdas Pophale) SiO2 
 PCOD8256270
Probable space group: C M C M
;
_chemical_formula_sum "Si O2"
_cell_formula_units_Z 96
_cell_length_a 21.888278
_cell_length_b 12.419121
_cell_length_c 18.570335
_cell_angle_alpha 90.000000
_cell_angle_beta 90.000000
_cell_angle_gamma 90.000000
_cell_volume 5048.033086
_symmetry_space_group_name_H-M "C M C M"
_symmetry_group_IT_number 63
_symmetry_cell_setting 'orthorhombic'
loop_
_space_group_symop_operation_xyz
x,y,z
-x,-y,1/2+z
x,-y,-z
-x,y,1/2-z
-x,-y,-z
x,y,1/2-z
-x,y,z
x,-y,1/2+z
1/2+x,1/2+y,z
1/2-x,1/2-y,1/2+z
1/2+x,1/2-y,-z
1/2-x,1/2+y,1/2-z
1/2-x,1/2-y,-z
1/2+x,1/2+y,1/2-z
1/2-x,1/2+y,z
1/2+x,1/2-y,1/2+z
loop_
_atom_site_type_symbol
_atom_site_label
_atom_site_fract_x
_atom_site_fract_y
_atom_site_fract_z
Si Si1 0.830872 0.134761 0.835517
Si Si2 0.000000 0.615542 0.412126
Si Si3 0.101566 0.262541 0.331978
Si Si4 0.298720 0.930831 0.332898
Si Si5 0.500000 0.136455 0.572270
Si Si6 0.126338 0.633758 0.164955
Si Si7 0.568438 0.475250 0.665546
O O1 0.829489 0.121543 0.750000
O O2 0.768261 0.084498 0.868394
O O3 0.835174 0.260251 0.855966
O O4 0.889167 0.069657 0.867377
O O5 0.000000 0.675533 0.489431
O O6 0.000000 0.490019 0.424213
O O7 0.059793 0.649034 0.368547
O O8 0.077374 0.279395 0.250000
O O9 0.167989 0.315490 0.341105
O O10 0.059193 0.321939 0.387889
O O11 0.102884 0.136679 0.351199
O O12 0.290272 0.961795 0.250000
O O13 0.337533 0.029745 0.367551
O O14 0.116846 0.621344 0.250000
O O15 0.561461 0.492302 0.750000
O O16 0.500000 0.477438 0.631020
#
# Coordination Sequence:
#
# PCOD8256270 Si02
#       7
#    16   8  16  16   8  16  16
#     4   9  19  31  48  77 113 143 170 211 265 315
#     4  11  23  35  52  79 108 144 177 216 273 316
#     4  10  18  31  54  80 105 133 175 225 266 308
#     4   9  18  30  48  77 106 135 172 215 258 306
#     4  11  21  35  52  79 108 140 175 224 269 314
#     4  10  20  34  54  79 110 142 176 217 261 315
#     4   9  17  28  46  75 106 135 169 211 260 307
#
# _framework density 19.017308
#
# number of rings (size 3 to 8) (size 9 to 14) (size 15 to 20)
#    0.000    2.333    2.500    0.500    3.500    0.667 
#    0.000    0.000    0.000    3.000    4.333    0.000 
#    0.000    0.000    0.000    0.000    0.000    0.000 
#
# Total GULP energy -594938.332861 kJ/mol
# GULP energy per Si atom -12394.548601 kJ/mol
# Density = 1.897402 g / cm^3
# Si number density = 19.017308 Si / 1000 Ang^3
#
#
#
# Elastic Constant Matrix: (Units=GPa)
#
#
# Indices 1 2 3 4 5 6 
#
# 1 153.5227 66.3190 23.6533 0.0000 0.0000 0.0000
# 2 66.3190 108.4202 15.8814 0.0000 0.0000 0.0000
# 3 23.6533 15.8814 37.4858 0.0000 0.0000 0.0000
# 4 0.0000 0.0000 0.0000 8.6263 0.0000 0.0000
# 5 0.0000 0.0000 0.0000 0.0000 5.3451 0.0000
# 6 0.0000 0.0000 0.0000 0.0000 0.0000 32.0056
#
#
#
# Elastic Compliance Matrix: (Units=1/GPa)
#
#
# Indices 1 2 3 4 5 6 
#
# 1 0.009308 -0.005153 -0.003690 0.000000 0.000000 0.000000
# 2 -0.005153 0.012687 -0.002123 0.000000 0.000000 0.000000
# 3 -0.003690 -0.002123 0.029905 0.000000 0.000000 0.000000
# 4 0.000000 0.000000 0.000000 0.115924 0.000000 0.000000
# 5 0.000000 0.000000 0.000000 0.000000 0.187088 0.000000
# 6 0.000000 0.000000 0.000000 0.000000 0.000000 0.031245
#
#
# Mechanical properties :
#
#
# Convention : Reuss Voigt Hill
#
# Bulk Modulus (GPa) = 33.37078 56.79290 45.08184
# Shear Modulus (GPa) = 11.95947 22.10041 17.02994
#
# Velocity S-wave (km/s) = 2.51045 3.41269 2.99573
# Velocity P-wave (km/s) = 5.09793 6.74220 5.97687
#
# Compressibility (1/GPa) = 0.02996633
#
# Stress axis : x y z
#
# Youngs Moduli (GPa) = 107.43034 78.82380 33.43947
#
# Poissons Ratio (x) = 0.40620 0.12340
# Poissons Ratio (y) = 0.55361 0.07100
# Poissons Ratio (z) = 0.39645 0.16736
#
# Static dielectric constant tensor:
#      x y z
#    x 3.753920 0.000000 0.000000 
#    y 0.000000 3.664620 0.000000 
#    z 0.000000 0.000000 3.062900 
# 
# 
# High freq. dielectric constant tensor:
#      x y z
#    x 1.749370 0.000000 0.000000 
#    y 0.000000 1.749420 0.000000 
#    z 0.000000 0.000000 1.667850 
# 
# From -- ./inp_files/48078.got.cif
#   From: 2010.03.12/outbox.cif.g09.slc.cpg/sg63_25_cif.got.tgz:48078.got - 2010.04.10 19:34:48.
