data_PCOD8256679
_publ_section_title
;
Structure prediction by ZEFSAII (Michael W. Deem and Ramdas Pophale) SiO2 
 PCOD8256679
Probable space group: C M C M
;
_chemical_formula_sum "Si O2"
_cell_formula_units_Z 96
_cell_length_a 9.118133
_cell_length_b 19.523832
_cell_length_c 30.622961
_cell_angle_alpha 90.000000
_cell_angle_beta 90.000000
_cell_angle_gamma 90.000000
_cell_volume 5451.526981
_symmetry_space_group_name_H-M "C M C M"
_symmetry_group_IT_number 63
_symmetry_cell_setting 'orthorhombic'
loop_
_space_group_symop_operation_xyz
x,y,z
-x,-y,1/2+z
x,-y,-z
-x,y,1/2-z
-x,-y,-z
x,y,1/2-z
-x,y,z
x,-y,1/2+z
1/2+x,1/2+y,z
1/2-x,1/2-y,1/2+z
1/2+x,1/2-y,-z
1/2-x,1/2+y,1/2-z
1/2-x,1/2-y,-z
1/2+x,1/2+y,1/2-z
1/2-x,1/2+y,z
1/2+x,1/2-y,1/2+z
loop_
_atom_site_type_symbol
_atom_site_label
_atom_site_fract_x
_atom_site_fract_y
_atom_site_fract_z
Si Si1 0.328040 0.338401 0.126125
Si Si2 0.165488 0.665464 0.539729
Si Si3 0.665516 0.328403 0.955512
Si Si4 0.173919 0.936379 0.298142
Si Si5 0.332291 0.590944 0.300963
Si Si6 0.671275 0.820124 0.630769
O O1 0.500000 0.350364 0.118724
O O2 0.246297 0.363359 0.082508
O O3 0.264806 0.383292 0.166172
O O4 0.292704 0.259809 0.136831
O O5 0.250472 0.638855 0.496827
O O6 0.166691 0.747062 0.540530
O O7 0.000000 0.637148 0.538511
O O8 0.500000 0.356865 0.954681
O O9 0.746849 0.351122 0.911349
O O10 0.237701 0.917903 0.250000
O O11 0.000000 0.931571 0.295876
O O12 0.219081 0.013455 0.311154
O O13 0.315970 0.606921 0.250000
O O14 0.500000 0.602312 0.316051
O O15 0.226198 0.642159 0.326155
O O16 0.500000 0.832623 0.624128
#
# Coordination Sequence:
#
# PCOD8256679 Si02
#       6
#    16  16  16  16  16  16
#     4   9  17  29  47  71  96 122 155 193 232 275
#     4   9  16  26  42  66  96 125 153 188 231 276
#     4   9  16  27  44  65  92 126 160 190 223 270
#     4   8  15  30  51  70  88 118 161 199 227 266
#     4   9  18  33  51  68  89 122 161 195 229 274
#     4  10  19  29  45  72 101 124 150 190 238 280
#
# _framework density 17.609743999999999
#
# number of rings (size 3 to 8) (size 9 to 14) (size 15 to 20)
#    0.000    3.000    0.000    2.500    0.000    5.667 
#    0.000    2.500    0.000    2.500    0.000    7.000 
#    0.000    0.000    0.000    0.000    0.000    0.000 
#
# Total GULP energy -595131.709560 kJ/mol
# GULP energy per Si atom -12398.577282 kJ/mol
# Density = 1.756966 g / cm^3
# Si number density = 17.609744 Si / 1000 Ang^3
#
#
#
# Elastic Constant Matrix: (Units=GPa)
#
#
# Indices 1 2 3 4 5 6 
#
# 1 91.7617 33.3785 60.3600 0.0000 0.0000 0.0000
# 2 33.3785 48.5658 52.1020 0.0000 0.0000 0.0000
# 3 60.3600 52.1020 129.0790 0.0000 0.0000 0.0000
# 4 0.0000 0.0000 0.0000 6.0137 0.0000 0.0000
# 5 0.0000 0.0000 0.0000 0.0000 33.0873 0.0000
# 6 0.0000 0.0000 0.0000 0.0000 0.0000 15.4179
#
#
#
# Elastic Compliance Matrix: (Units=1/GPa)
#
#
# Indices 1 2 3 4 5 6 
#
# 1 0.016506 -0.005404 -0.005537 0.000000 0.000000 0.000000
# 2 -0.005404 0.038086 -0.012846 0.000000 0.000000 0.000000
# 3 -0.005537 -0.012846 0.015522 0.000000 0.000000 0.000000
# 4 0.000000 0.000000 0.000000 0.166287 0.000000 0.000000
# 5 0.000000 0.000000 0.000000 0.000000 0.030223 0.000000
# 6 0.000000 0.000000 0.000000 0.000000 0.000000 0.064860
#
#
# Mechanical properties :
#
#
# Convention : Reuss Voigt Hill
#
# Bulk Modulus (GPa) = 44.36711 62.34305 53.35508
# Shear Modulus (GPa) = 12.93420 19.14150 16.03785
#
# Velocity S-wave (km/s) = 2.71309 3.30052 3.02112
# Velocity P-wave (km/s) = 5.92147 7.07135 6.52180
#
# Compressibility (1/GPa) = 0.02253922
#
# Stress axis : x y z
#
# Youngs Moduli (GPa) = 60.58494 26.25613 64.42501
#
# Poissons Ratio (x) = 0.14188 0.35674
# Poissons Ratio (y) = 0.32738 0.82763
# Poissons Ratio (z) = 0.33547 0.33730
#
# Static dielectric constant tensor:
#      x y z
#    x 3.200460 0.000000 0.000000 
#    y 0.000000 2.939390 0.000000 
#    z 0.000000 0.000000 3.551850 
# 
# 
# High freq. dielectric constant tensor:
#      x y z
#    x 1.671560 0.000000 0.000000 
#    y 0.000000 1.636540 0.000000 
#    z 0.000000 0.000000 1.694310 
# 
# From -- ./inp_files/66921.got.cif
#   From: 2010.03.12/outbox.cif.g09.slc.cpg/sg63_34_cif.got.tgz:66921.got - 2010.04.10 19:34:48.
