data_PCOD8256937
_publ_section_title
;
Structure prediction by ZEFSAII (Michael W. Deem and Ramdas Pophale) SiO2 
 PCOD8256937
Probable space group: C M C M
;
_chemical_formula_sum "Si O2"
_cell_formula_units_Z 96
_cell_length_a 8.982866
_cell_length_b 31.254308
_cell_length_c 18.014267
_cell_angle_alpha 90.000000
_cell_angle_beta 90.000000
_cell_angle_gamma 90.000000
_cell_volume 5057.564199
_symmetry_space_group_name_H-M "C M C M"
_symmetry_group_IT_number 63
_symmetry_cell_setting 'orthorhombic'
loop_
_space_group_symop_operation_xyz
x,y,z
-x,-y,1/2+z
x,-y,-z
-x,y,1/2-z
-x,-y,-z
x,y,1/2-z
-x,y,z
x,-y,1/2+z
1/2+x,1/2+y,z
1/2-x,1/2-y,1/2+z
1/2+x,1/2-y,-z
1/2-x,1/2+y,1/2-z
1/2-x,1/2-y,-z
1/2+x,1/2+y,1/2-z
1/2-x,1/2+y,z
1/2+x,1/2-y,1/2+z
loop_
_atom_site_type_symbol
_atom_site_label
_atom_site_fract_x
_atom_site_fract_y
_atom_site_fract_z
Si Si1 0.822923 0.329994 0.419291
Si Si2 0.677600 0.913138 0.334149
Si Si3 0.177528 0.502319 0.916215
Si Si4 0.822684 0.581480 0.333505
Si Si5 0.676819 0.833245 0.587143
Si Si6 0.327230 0.254379 0.663545
O O1 0.759606 0.371339 0.376181
O O2 0.762197 0.329758 0.503322
O O3 0.765502 0.287275 0.379007
O O4 0.000000 0.331811 0.418152
O O5 0.738020 0.913296 0.250000
O O6 0.500000 0.912989 0.334296
O O7 0.738397 0.954996 0.376556
O O8 0.239384 0.461290 0.872093
O O9 0.000000 0.502427 0.916195
O O10 0.238649 0.500000 0.000000
O O11 0.759995 0.583723 0.250000
O O12 0.763864 0.622376 0.378770
O O13 0.000000 0.580815 0.333038
O O14 0.500000 0.831432 0.588590
O O15 0.736603 0.795095 0.636993
O O16 0.299167 0.246824 0.750000
O O17 0.500000 0.261949 0.645812
#
# Coordination Sequence:
#
# PCOD8256937 Si02
#       6
#    16  16  16  16  16  16
#     4   9  17  29  44  63  87 115 148 186 227 268
#     4   9  15  23  37  57  83 117 153 185 222 272
#     4   9  15  22  33  52  81 116 150 181 216 262
#     4   9  16  25  37  56  84 115 144 176 216 259
#     4  10  19  31  48  68  91 120 152 185 223 269
#     4  10  20  33  48  66  90 119 150 187 229 268
#
# _framework density 18.981470000000002
#
# number of rings (size 3 to 8) (size 9 to 14) (size 15 to 20)
#    0.000    2.667    0.000    3.000    0.000    9.000 
#    0.000    0.000    0.000    0.000    0.000    0.000 
#    0.000    7.333    0.000    4.167    0.000    1.667 
#
# Total GULP energy -595207.420055 kJ/mol
# GULP energy per Si atom -12400.154584 kJ/mol
# Density = 1.893827 g / cm^3
# Si number density = 18.981470 Si / 1000 Ang^3
#
#
#
# Elastic Constant Matrix: (Units=GPa)
#
#
# Indices 1 2 3 4 5 6 
#
# 1 5.5580 13.4025 12.5763 0.0000 0.0000 0.0000
# 2 13.4025 158.2142 52.7237 0.0000 0.0000 0.0000
# 3 12.5763 52.7237 130.8518 0.0000 0.0000 0.0000
# 4 0.0000 0.0000 0.0000 47.9731 0.0000 0.0000
# 5 0.0000 0.0000 0.0000 0.0000 12.1006 0.0000
# 6 0.0000 0.0000 0.0000 0.0000 0.0000 14.7542
#
#
#
# Elastic Compliance Matrix: (Units=1/GPa)
#
#
# Indices 1 2 3 4 5 6 
#
# 1 0.260274 -0.015839 -0.018633 0.000000 0.000000 0.000000
# 2 -0.015839 0.008265 -0.001808 0.000000 0.000000 0.000000
# 3 -0.018633 -0.001808 0.010162 0.000000 0.000000 0.000000
# 4 0.000000 0.000000 0.000000 0.020845 0.000000 0.000000
# 5 0.000000 0.000000 0.000000 0.000000 0.082640 0.000000
# 6 0.000000 0.000000 0.000000 0.000000 0.000000 0.067777
#
#
# Mechanical properties :
#
#
# Convention : Reuss Voigt Hill
#
# Bulk Modulus (GPa) = 4.85106 50.22545 27.53825
# Shear Modulus (GPa) = 8.45685 29.36036 18.90860
#
# Velocity S-wave (km/s) = 2.11305 3.93719 3.15963
# Velocity P-wave (km/s) = 2.91797 6.86923 5.27735
#
# Compressibility (1/GPa) = 0.20614069
#
# Stress axis : x y z
#
# Youngs Moduli (GPa) = 3.84210 120.99666 98.41054
#
# Poissons Ratio (x) = 1.91643 1.83372
# Poissons Ratio (y) = 0.06085 0.17791
# Poissons Ratio (z) = 0.07159 0.21874
#
# Static dielectric constant tensor:
#      x y z
#    x 2.667970 0.000000 0.000000 
#    y 0.000000 3.718110 0.000000 
#    z 0.000000 0.000000 3.767690 
# 
# 
# High freq. dielectric constant tensor:
#      x y z
#    x 1.648510 0.000000 0.000000 
#    y 0.000000 1.758960 0.000000 
#    z 0.000000 0.000000 1.760090 
# 
# From -- ./inp_files/42702.got.cif
#   From: 2010.03.12/outbox.cif.g09.slc.cpg/sg63_22_cif.got.tgz:42702.got - 2010.04.10 19:34:48.
