data_PCOD8256331
_publ_section_title
;
Structure prediction by ZEFSAII (Michael W. Deem and Ramdas Pophale) SiO2 
 PCOD8256331
Probable space group: C M C M
;
_chemical_formula_sum "Si O2"
_cell_formula_units_Z 112
_cell_length_a 17.517256
_cell_length_b 19.018592
_cell_length_c 20.180906
_cell_angle_alpha 90.000000
_cell_angle_beta 90.000000
_cell_angle_gamma 90.000000
_cell_volume 6723.340372
_symmetry_space_group_name_H-M "C M C M"
_symmetry_group_IT_number 63
_symmetry_cell_setting 'orthorhombic'
loop_
_space_group_symop_operation_xyz
x,y,z
-x,-y,1/2+z
x,-y,-z
-x,y,1/2-z
-x,-y,-z
x,y,1/2-z
-x,y,z
x,-y,1/2+z
1/2+x,1/2+y,z
1/2-x,1/2-y,1/2+z
1/2+x,1/2-y,-z
1/2-x,1/2+y,1/2-z
1/2-x,1/2-y,-z
1/2+x,1/2+y,1/2-z
1/2-x,1/2+y,z
1/2+x,1/2-y,1/2+z
loop_
_atom_site_type_symbol
_atom_site_label
_atom_site_fract_x
_atom_site_fract_y
_atom_site_fract_z
Si Si1 0.088255 0.996858 0.327743
Si Si2 0.821305 0.122349 0.396371
Si Si3 0.682218 0.368131 0.117547
Si Si4 0.417082 0.684836 0.508510
Si Si5 0.209339 0.420899 0.005361
Si Si6 0.308694 0.770896 0.326671
Si Si7 0.915762 0.671346 0.565002
O O1 0.085108 0.006533 0.250000
O O2 0.127760 0.921956 0.343337
O O3 0.000000 0.999840 0.355182
O O4 0.143003 0.059013 0.354025
O O5 0.884217 0.135210 0.451912
O O6 0.743389 0.103218 0.434663
O O7 0.801102 0.190855 0.352527
O O8 0.631945 0.314141 0.075123
O O9 0.732781 0.412385 0.066322
O O10 0.731994 0.317594 0.164999
O O11 0.500000 0.654664 0.526128
O O12 0.421438 0.762568 0.482081
O O13 0.131114 0.382400 0.021030
O O14 0.184645 0.500000 0.000000
O O15 0.330909 0.768205 0.250000
O O16 0.376396 0.809999 0.365373
O O17 0.000000 0.641425 0.580946
#
# Coordination Sequence:
#
# PCOD8256331 Si02
#       7
#    16  16  16  16  16  16  16
#     4  11  22  33  47  72 108 142 169 206 254 307
#     4  10  19  33  50  75 102 133 172 211 249 307
#     4  10  19  33  50  73  99 133 172 210 244 302
#     4   9  17  30  50  73  99 129 160 206 256 296
#     4  10  18  32  52  74  98 129 164 209 260 299
#     4  10  20  34  53  72  98 137 176 209 247 298
#     4   9  19  33  50  76 102 124 162 212 263 307
#
# _framework density 16.658386
#
# number of rings (size 3 to 8) (size 9 to 14) (size 15 to 20)
#    0.000    2.143    1.429    2.571    0.000    4.571 
#    0.000    2.143    0.000    0.000    0.000    0.000 
#    0.000    1.714    0.000    0.000    0.000    0.000 
#
# Total GULP energy -694030.571928 kJ/mol
# GULP energy per Si atom -12393.403070 kJ/mol
# Density = 1.662047 g / cm^3
# Si number density = 16.658386 Si / 1000 Ang^3
#
#
#
# Elastic Constant Matrix: (Units=GPa)
#
#
# Indices 1 2 3 4 5 6 
#
# 1 122.4739 55.9499 54.0421 0.0000 0.0000 0.0000
# 2 55.9499 63.8201 32.8582 0.0000 0.0000 0.0000
# 3 54.0421 32.8582 86.9526 0.0000 0.0000 0.0000
# 4 0.0000 0.0000 0.0000 17.4233 0.0000 0.0000
# 5 0.0000 0.0000 0.0000 0.0000 22.5160 0.0000
# 6 0.0000 0.0000 0.0000 0.0000 0.0000 24.9351
#
#
#
# Elastic Compliance Matrix: (Units=1/GPa)
#
#
# Indices 1 2 3 4 5 6 
#
# 1 0.015545 -0.010744 -0.005601 0.000000 0.000000 0.000000
# 2 -0.010744 0.026880 -0.003480 0.000000 0.000000 0.000000
# 3 -0.005601 -0.003480 0.016297 0.000000 0.000000 0.000000
# 4 0.000000 0.000000 0.000000 0.057394 0.000000 0.000000
# 5 0.000000 0.000000 0.000000 0.000000 0.044413 0.000000
# 6 0.000000 0.000000 0.000000 0.000000 0.000000 0.040104
#
#
# Mechanical properties :
#
#
# Convention : Reuss Voigt Hill
#
# Bulk Modulus (GPa) = 52.43588 62.10522 57.27055
# Shear Modulus (GPa) = 20.27245 21.66796 20.97021
#
# Velocity S-wave (km/s) = 3.49227 3.61047 3.55186
# Velocity P-wave (km/s) = 6.91424 7.39887 7.16066
#
# Compressibility (1/GPa) = 0.01907091
#
# Stress axis : x y z
#
# Youngs Moduli (GPa) = 64.33036 37.20271 61.36167
#
# Poissons Ratio (x) = 0.39970 0.34370
# Poissons Ratio (y) = 0.69116 0.21354
# Poissons Ratio (z) = 0.36033 0.12947
#
# Static dielectric constant tensor:
#      x y z
#    x 3.438560 0.000000 0.000000 
#    y 0.000000 3.182260 0.000000 
#    z 0.000000 0.000000 3.101760 
# 
# 
# High freq. dielectric constant tensor:
#      x y z
#    x 1.644170 0.000000 0.000000 
#    y 0.000000 1.641920 0.000000 
#    z 0.000000 0.000000 1.636310 
# 
# From -- ./inp_files/46096.got.cif
#   From: 2010.03.12/outbox.cif.g09.slc.cpg/sg63_24_cif.got.tgz:46096.got - 2010.04.10 19:34:48.
