data_PCOD8256130
_publ_section_title
;
Structure prediction by ZEFSAII (Michael W. Deem and Ramdas Pophale) SiO2 
 PCOD8256130
Probable space group: C M C M
;
_chemical_formula_sum "Si O2"
_cell_formula_units_Z 80
_cell_length_a 20.412508
_cell_length_b 12.407029
_cell_length_c 18.070724
_cell_angle_alpha 90.000000
_cell_angle_beta 90.000000
_cell_angle_gamma 90.000000
_cell_volume 4576.565877
_symmetry_space_group_name_H-M "C M C M"
_symmetry_group_IT_number 63
_symmetry_cell_setting 'orthorhombic'
loop_
_space_group_symop_operation_xyz
x,y,z
-x,-y,1/2+z
x,-y,-z
-x,y,1/2-z
-x,-y,-z
x,y,1/2-z
-x,y,z
x,-y,1/2+z
1/2+x,1/2+y,z
1/2-x,1/2-y,1/2+z
1/2+x,1/2-y,-z
1/2-x,1/2+y,1/2-z
1/2-x,1/2-y,-z
1/2+x,1/2+y,1/2-z
1/2-x,1/2+y,z
1/2+x,1/2-y,1/2+z
loop_
_atom_site_type_symbol
_atom_site_label
_atom_site_fract_x
_atom_site_fract_y
_atom_site_fract_z
Si Si1 0.196729 0.496962 0.836231
Si Si2 0.658614 0.428796 0.834911
Si Si3 0.667996 0.789877 0.919592
Si Si4 0.814259 0.716148 0.589942
Si Si5 0.076741 0.868069 0.165119
O O1 0.183140 0.481105 0.750000
O O2 0.273637 0.488313 0.856108
O O3 0.158223 0.404583 0.880277
O O4 0.168462 0.612145 0.861148
O O5 0.660087 0.392756 0.750000
O O6 0.646600 0.321068 0.882259
O O7 0.599923 0.510554 0.852657
O O8 0.737230 0.736829 0.899707
O O9 0.610466 0.713620 0.891086
O O10 0.663135 0.807312 0.006993
O O11 0.095542 0.838902 0.250000
O O12 0.000000 0.861929 0.151531
#
# Coordination Sequence:
#
# PCOD8256130 Si02
#       5
#    16  16  16  16  16
#     4  10  18  30  52  76 103 134 169 220 268 312
#     4   9  18  31  49  75 103 134 176 215 260 313
#     4  10  20  32  49  77 107 135 173 212 265 320
#     4  10  19  31  50  75 109 138 162 216 274 316
#     4  10  20  36  56  76 105 142 180 219 253 305
#
# _framework density 17.480356
#
# number of rings (size 3 to 8) (size 9 to 14) (size 15 to 20)
#    0.000    2.200    2.000    1.800    0.000    2.400 
#    0.000    2.000    0.000    3.600    0.000    2.800 
#    0.000    0.000    0.000    0.000    0.000    0.000 
#
# Total GULP energy -496102.520144 kJ/mol
# GULP energy per Si atom -12402.563004 kJ/mol
# Density = 1.744057 g / cm^3
# Si number density = 17.480356 Si / 1000 Ang^3
#
#
#
# Elastic Constant Matrix: (Units=GPa)
#
#
# Indices 1 2 3 4 5 6 
#
# 1 60.4013 36.7456 30.2033 0.0000 0.0000 0.0000
# 2 36.7456 126.8988 60.0990 0.0000 0.0000 0.0000
# 3 30.2033 60.0990 77.9819 0.0000 0.0000 0.0000
# 4 0.0000 0.0000 0.0000 32.5863 0.0000 0.0000
# 5 0.0000 0.0000 0.0000 0.0000 18.6714 0.0000
# 6 0.0000 0.0000 0.0000 0.0000 0.0000 20.5128
#
#
#
# Elastic Compliance Matrix: (Units=1/GPa)
#
#
# Indices 1 2 3 4 5 6 
#
# 1 0.021528 -0.003598 -0.005565 0.000000 0.000000 0.000000
# 2 -0.003598 0.013011 -0.008634 0.000000 0.000000 0.000000
# 3 -0.005565 -0.008634 0.021633 0.000000 0.000000 0.000000
# 4 0.000000 0.000000 0.000000 0.030688 0.000000 0.000000
# 5 0.000000 0.000000 0.000000 0.000000 0.053558 0.000000
# 6 0.000000 0.000000 0.000000 0.000000 0.000000 0.048750
#
#
# Mechanical properties :
#
#
# Convention : Reuss Voigt Hill
#
# Bulk Modulus (GPa) = 48.59607 57.70865 53.15236
# Shear Modulus (GPa) = 21.58709 23.56971 22.57840
#
# Velocity S-wave (km/s) = 3.51798 3.67598 3.59784
# Velocity P-wave (km/s) = 6.66050 7.14858 6.90885
#
# Compressibility (1/GPa) = 0.02057780
#
# Stress axis : x y z
#
# Youngs Moduli (GPa) = 46.45207 76.85716 46.22632
#
# Poissons Ratio (x) = 0.27654 0.25724
# Poissons Ratio (y) = 0.16714 0.39911
# Poissons Ratio (z) = 0.25850 0.66357
#
# Static dielectric constant tensor:
#      x y z
#    x 2.853210 0.000000 0.000000 
#    y 0.000000 3.291810 0.000000 
#    z 0.000000 0.000000 3.272550 
# 
# 
# High freq. dielectric constant tensor:
#      x y z
#    x 1.626960 0.000000 0.000000 
#    y 0.000000 1.687440 0.000000 
#    z 0.000000 0.000000 1.682840 
# 
# From -- ./inp_files/36491.got.cif
#   From: 2010.03.12/outbox.cif.g09.slc.cpg/sg63_19_cif.got.tgz:36491.got - 2010.04.10 19:34:48.
