data_PCOD8256654
_publ_section_title
;
Structure prediction by ZEFSAII (Michael W. Deem and Ramdas Pophale) SiO2 
 PCOD8256654
Probable space group: C M C M
;
_chemical_formula_sum "Si O2"
_cell_formula_units_Z 96
_cell_length_a 9.288388
_cell_length_b 27.143560
_cell_length_c 23.513793
_cell_angle_alpha 90.000000
_cell_angle_beta 90.000000
_cell_angle_gamma 90.000000
_cell_volume 5928.295539
_symmetry_space_group_name_H-M "C M C M"
_symmetry_group_IT_number 63
_symmetry_cell_setting 'orthorhombic'
loop_
_space_group_symop_operation_xyz
x,y,z
-x,-y,1/2+z
x,-y,-z
-x,y,1/2-z
-x,-y,-z
x,y,1/2-z
-x,y,z
x,-y,1/2+z
1/2+x,1/2+y,z
1/2-x,1/2-y,1/2+z
1/2+x,1/2-y,-z
1/2-x,1/2+y,1/2-z
1/2-x,1/2-y,-z
1/2+x,1/2+y,1/2-z
1/2-x,1/2+y,z
1/2+x,1/2-y,1/2+z
loop_
_atom_site_type_symbol
_atom_site_label
_atom_site_fract_x
_atom_site_fract_y
_atom_site_fract_z
Si Si1 0.666798 0.520215 0.910346
Si Si2 0.833319 0.922775 0.976808
Si Si3 0.335028 0.330049 0.186421
Si Si4 0.664954 0.726635 0.922519
Si Si5 0.331846 0.071796 0.684591
Si Si6 0.831944 0.325607 0.981185
O O1 0.500000 0.525533 0.894074
O O2 0.701045 0.465223 0.931350
O O3 0.762577 0.529967 0.854905
O O4 0.706706 0.558792 0.960007
O O5 0.738426 0.875982 0.959656
O O6 0.000000 0.907957 0.974370
O O7 0.298063 0.311430 0.250000
O O8 0.500000 0.347934 0.182193
O O9 0.305654 0.284706 0.143769
O O10 0.236553 0.375770 0.168824
O O11 0.500000 0.715300 0.939484
O O12 0.700739 0.783838 0.933841
O O13 0.764791 0.690770 0.959068
O O14 0.299889 0.057915 0.750000
O O15 0.500000 0.074966 0.672012
O O16 0.000000 0.334233 0.990278
#
# Coordination Sequence:
#
# PCOD8256654 Si02
#       6
#    16  16  16  16  16  16
#     4   9  18  32  49  67  88 118 153 184 218 265
#     4   9  18  32  48  67  91 117 147 186 227 263
#     4   9  17  30  48  66  85 115 152 183 214 258
#     4   9  18  31  45  64  91 119 148 183 219 259
#     4  10  20  31  44  67  97 121 143 180 227 266
#     4  10  19  29  44  67  92 119 149 180 220 268
#
# _framework density 16.193524
#
# number of rings (size 3 to 8) (size 9 to 14) (size 15 to 20)
#    0.000    2.667    0.000    3.000    0.000    7.667 
#    0.000    1.667    0.000    1.000    0.000    2.333 
#    0.000    0.000    0.000    0.000    0.000    0.000 
#
# Total GULP energy -595227.922144 kJ/mol
# GULP energy per Si atom -12400.581711 kJ/mol
# Density = 1.615667 g / cm^3
# Si number density = 16.193524 Si / 1000 Ang^3
#
#
#
# Elastic Constant Matrix: (Units=GPa)
#
#
# Indices 1 2 3 4 5 6 
#
# 1 82.7121 59.7654 52.8935 0.0000 0.0000 0.0000
# 2 59.7654 110.7804 60.0308 0.0000 0.0000 0.0000
# 3 52.8935 60.0308 102.6921 0.0000 0.0000 0.0000
# 4 0.0000 0.0000 0.0000 24.2457 0.0000 0.0000
# 5 0.0000 0.0000 0.0000 0.0000 24.5541 0.0000
# 6 0.0000 0.0000 0.0000 0.0000 0.0000 30.4559
#
#
#
# Elastic Compliance Matrix: (Units=1/GPa)
#
#
# Indices 1 2 3 4 5 6 
#
# 1 0.022485 -0.008569 -0.006572 0.000000 0.000000 0.000000
# 2 -0.008569 0.016478 -0.005219 0.000000 0.000000 0.000000
# 3 -0.006572 -0.005219 0.016174 0.000000 0.000000 0.000000
# 4 0.000000 0.000000 0.000000 0.041244 0.000000 0.000000
# 5 0.000000 0.000000 0.000000 0.000000 0.040726 0.000000
# 6 0.000000 0.000000 0.000000 0.000000 0.000000 0.032834
#
#
# Mechanical properties :
#
#
# Convention : Reuss Voigt Hill
#
# Bulk Modulus (GPa) = 69.36502 71.28489 70.32496
# Shear Modulus (GPa) = 23.20552 24.08413 23.64482
#
# Velocity S-wave (km/s) = 3.78962 3.86070 3.82532
# Velocity P-wave (km/s) = 7.87885 7.99934 7.93933
#
# Compressibility (1/GPa) = 0.01441649
#
# Stress axis : x y z
#
# Youngs Moduli (GPa) = 44.47506 60.68763 61.82925
#
# Poissons Ratio (x) = 0.52003 0.40633
# Poissons Ratio (y) = 0.38111 0.32267
# Poissons Ratio (z) = 0.29228 0.31672
#
# Static dielectric constant tensor:
#      x y z
#    x 3.093440 0.000000 0.000000 
#    y 0.000000 2.966360 0.000000 
#    z 0.000000 0.000000 3.032290 
# 
# 
# High freq. dielectric constant tensor:
#      x y z
#    x 1.627890 0.000000 0.000000 
#    y 0.000000 1.610700 0.000000 
#    z 0.000000 0.000000 1.612160 
# 
# From -- ./inp_files/60175.got.cif
#   From: 2010.03.12/outbox.cif.g09.slc.cpg/sg63_31_cif.got.tgz:60175.got - 2010.04.10 19:34:48.
