data_PCOD8256961
_publ_section_title
;
Structure prediction by ZEFSAII (Michael W. Deem and Ramdas Pophale) SiO2 
 PCOD8256961
Probable space group: C M C M
;
_chemical_formula_sum "Si O2"
_cell_formula_units_Z 96
_cell_length_a 8.659228
_cell_length_b 27.255823
_cell_length_c 23.529891
_cell_angle_alpha 90.000000
_cell_angle_beta 90.000000
_cell_angle_gamma 90.000000
_cell_volume 5553.392770
_symmetry_space_group_name_H-M "C M C M"
_symmetry_group_IT_number 63
_symmetry_cell_setting 'orthorhombic'
loop_
_space_group_symop_operation_xyz
x,y,z
-x,-y,1/2+z
x,-y,-z
-x,y,1/2-z
-x,-y,-z
x,y,1/2-z
-x,y,z
x,-y,1/2+z
1/2+x,1/2+y,z
1/2-x,1/2-y,1/2+z
1/2+x,1/2-y,-z
1/2-x,1/2+y,1/2-z
1/2-x,1/2-y,-z
1/2+x,1/2+y,1/2-z
1/2-x,1/2+y,z
1/2+x,1/2-y,1/2+z
loop_
_atom_site_type_symbol
_atom_site_label
_atom_site_fract_x
_atom_site_fract_y
_atom_site_fract_z
Si Si1 0.679083 0.432894 0.815188
Si Si2 0.678228 0.170059 0.314436
Si Si3 0.680669 0.014677 0.083017
Si Si4 0.179250 0.736936 0.416625
Si Si5 0.680588 0.428312 0.482581
Si Si6 0.678588 0.825223 0.474035
O O1 0.721506 0.444259 0.750000
O O2 0.500000 0.441209 0.827937
O O3 0.719823 0.376902 0.830088
O O4 0.777878 0.470135 0.853039
O O5 0.708933 0.187579 0.250000
O O6 0.500000 0.155263 0.323892
O O7 0.724943 0.214647 0.355595
O O8 0.500000 0.004889 0.077451
O O9 0.770361 0.964856 0.067855
O O10 0.729260 0.058204 0.040309
O O11 0.278821 0.785934 0.425383
O O12 0.220382 0.696895 0.464499
O O13 0.000000 0.751280 0.420135
O O14 0.500000 0.433623 0.494198
O O15 0.720589 0.373450 0.463919
O O16 0.500000 0.839208 0.469106
#
# Coordination Sequence:
#
# PCOD8256961 Si02
#       6
#    16  16  16  16  16  16
#     4  10  20  33  50  74 103 133 166 203 244 290
#     4   9  17  30  49  72  98 129 164 201 242 288
#     4  11  21  34  52  74 101 131 165 202 243 292
#     4   9  18  31  47  69  97 128 161 199 242 288
#     4  11  21  34  52  74 101 130 162 201 248 297
#     4  10  19  31  48  71  98 128 162 199 241 290
#
# _framework density 17.286729999999999
#
# number of rings (size 3 to 8) (size 9 to 14) (size 15 to 20)
#    0.000    2.000    0.000    6.000    0.000    3.667 
#    0.000    0.000    0.000    1.000    0.000    2.333 
#    0.000    0.000    0.000    0.000    0.000    0.000 
#
# Total GULP energy -595410.599858 kJ/mol
# GULP energy per Si atom -12404.387497 kJ/mol
# Density = 1.724739 g / cm^3
# Si number density = 17.286730 Si / 1000 Ang^3
#
#
#
# Elastic Constant Matrix: (Units=GPa)
#
#
# Indices 1 2 3 4 5 6 
#
# 1 67.7471 27.8583 22.8789 0.0000 0.0000 0.0000
# 2 27.8583 96.2179 45.9973 0.0000 0.0000 0.0000
# 3 22.8789 45.9973 92.9812 0.0000 0.0000 0.0000
# 4 0.0000 0.0000 0.0000 25.6210 0.0000 0.0000
# 5 0.0000 0.0000 0.0000 0.0000 25.1439 0.0000
# 6 0.0000 0.0000 0.0000 0.0000 0.0000 31.9119
#
#
#
# Elastic Compliance Matrix: (Units=1/GPa)
#
#
# Indices 1 2 3 4 5 6 
#
# 1 0.017125 -0.003856 -0.002306 0.000000 0.000000 0.000000
# 2 -0.003856 0.014480 -0.006215 0.000000 0.000000 0.000000
# 3 -0.002306 -0.006215 0.014397 0.000000 0.000000 0.000000
# 4 0.000000 0.000000 0.000000 0.039030 0.000000 0.000000
# 5 0.000000 0.000000 0.000000 0.000000 0.039771 0.000000
# 6 0.000000 0.000000 0.000000 0.000000 0.000000 0.031336
#
#
# Mechanical properties :
#
#
# Convention : Reuss Voigt Hill
#
# Bulk Modulus (GPa) = 47.06157 50.04613 48.55385
# Shear Modulus (GPa) = 26.59907 27.21614 26.90761
#
# Velocity S-wave (km/s) = 3.92688 3.97217 3.94959
# Velocity P-wave (km/s) = 6.91692 7.07467 6.99624
#
# Compressibility (1/GPa) = 0.02124876
#
# Stress axis : x y z
#
# Youngs Moduli (GPa) = 58.39348 69.05911 69.46033
#
# Poissons Ratio (x) = 0.26627 0.16020
# Poissons Ratio (y) = 0.22515 0.43167
# Poissons Ratio (z) = 0.13468 0.42918
#
# Static dielectric constant tensor:
#      x y z
#    x 3.282650 0.000000 0.000000 
#    y 0.000000 3.086520 0.000000 
#    z 0.000000 0.000000 3.210800 
# 
# 
# High freq. dielectric constant tensor:
#      x y z
#    x 1.678870 0.000000 0.000000 
#    y 0.000000 1.655340 0.000000 
#    z 0.000000 0.000000 1.655880 
# 
# From -- ./inp_files/60193.got.cif
#   From: 2010.03.12/outbox.cif.g09.slc.cpg/sg63_31_cif.got.tgz:60193.got - 2010.04.10 19:34:48.
