data_PCOD8256775
_publ_section_title
;
Structure prediction by ZEFSAII (Michael W. Deem and Ramdas Pophale) SiO2 
 PCOD8256775
Probable space group: C M C M
;
_chemical_formula_sum "Si O2"
_cell_formula_units_Z 128
_cell_length_a 13.277148
_cell_length_b 25.118619
_cell_length_c 22.579972
_cell_angle_alpha 90.000000
_cell_angle_beta 90.000000
_cell_angle_gamma 90.000000
_cell_volume 7530.502447
_symmetry_space_group_name_H-M "C M C M"
_symmetry_group_IT_number 63
_symmetry_cell_setting 'orthorhombic'
loop_
_space_group_symop_operation_xyz
x,y,z
-x,-y,1/2+z
x,-y,-z
-x,y,1/2-z
-x,-y,-z
x,y,1/2-z
-x,y,z
x,-y,1/2+z
1/2+x,1/2+y,z
1/2-x,1/2-y,1/2+z
1/2+x,1/2-y,-z
1/2-x,1/2+y,1/2-z
1/2-x,1/2-y,-z
1/2+x,1/2+y,1/2-z
1/2-x,1/2+y,z
1/2+x,1/2-y,1/2+z
loop_
_atom_site_type_symbol
_atom_site_label
_atom_site_fract_x
_atom_site_fract_y
_atom_site_fract_z
Si Si1 0.883166 0.934337 0.892835
Si Si2 0.283041 0.621826 0.499050
Si Si3 0.709631 0.108529 0.182873
Si Si4 0.118085 0.668795 0.420130
Si Si5 0.385408 0.003424 0.816905
Si Si6 0.210350 0.048458 0.889338
Si Si7 0.881424 0.859943 0.315719
Si Si8 0.617604 0.292033 0.424085
O O1 0.820503 0.908587 0.839012
O O2 0.000000 0.930404 0.876284
O O3 0.852680 0.995529 0.902681
O O4 0.862458 0.901511 0.952432
O O5 0.175134 0.632648 0.468515
O O6 0.268136 0.578713 0.549972
O O7 0.325406 0.677178 0.523840
O O8 0.718969 0.128856 0.250000
O O9 0.661227 0.155971 0.144876
O O10 0.634155 0.059165 0.176771
O O11 0.141940 0.730345 0.431510
O O12 0.000000 0.656282 0.424459
O O13 0.360752 0.021758 0.750000
O O14 0.500000 0.015260 0.833665
O O15 0.319072 0.036621 0.862254
O O16 0.148290 0.083210 0.842600
O O17 0.833411 0.852193 0.250000
O O18 0.844399 0.812861 0.359660
O O19 0.000000 0.858680 0.309730
O O20 0.500000 0.304446 0.430686
#
# Coordination Sequence:
#
# PCOD8256775 Si02
#       8
#    16  16  16  16  16  16  16  16
#     4  10  20  33  50  72  97 127 161 192 227 280
#     4  10  20  33  48  68  98 128 158 199 242 281
#     4   9  19  34  50  71  97 122 151 191 239 283
#     4  10  20  33  50  71  93 121 160 201 239 284
#     4   9  17  30  47  66  91 124 159 192 228 274
#     4  10  19  30  46  69  96 128 161 193 232 280
#     4   9  17  29  45  68  97 122 147 188 240 288
#     4   9  18  32  50  70  92 122 158 196 242 291
#
# _framework density 16.997537999999999
#
# number of rings (size 3 to 8) (size 9 to 14) (size 15 to 20)
#    0.000    2.500    0.000    2.250    0.000    4.500 
#    0.000    1.250    0.000    4.500    0.000    0.000 
#    0.000    0.000    0.000    0.000    0.000    0.000 
#
# Total GULP energy -793625.105170 kJ/mol
# GULP energy per Si atom -12400.392268 kJ/mol
# Density = 1.695885 g / cm^3
# Si number density = 16.997538 Si / 1000 Ang^3
#
#
#
# Elastic Constant Matrix: (Units=GPa)
#
#
# Indices 1 2 3 4 5 6 
#
# 1 77.5784 33.9403 35.0958 0.0000 0.0000 0.0000
# 2 33.9403 55.7945 23.2067 0.0000 0.0000 0.0000
# 3 35.0958 23.2067 100.1053 0.0000 0.0000 0.0000
# 4 0.0000 0.0000 0.0000 20.6953 0.0000 0.0000
# 5 0.0000 0.0000 0.0000 0.0000 20.1855 0.0000
# 6 0.0000 0.0000 0.0000 0.0000 0.0000 21.7789
#
#
#
# Elastic Compliance Matrix: (Units=1/GPa)
#
#
# Indices 1 2 3 4 5 6 
#
# 1 0.019206 -0.009831 -0.004455 0.000000 0.000000 0.000000
# 2 -0.009831 0.024867 -0.002318 0.000000 0.000000 0.000000
# 3 -0.004455 -0.002318 0.012089 0.000000 0.000000 0.000000
# 4 0.000000 0.000000 0.000000 0.048320 0.000000 0.000000
# 5 0.000000 0.000000 0.000000 0.000000 0.049541 0.000000
# 6 0.000000 0.000000 0.000000 0.000000 0.000000 0.045916
#
#
# Mechanical properties :
#
#
# Convention : Reuss Voigt Hill
#
# Bulk Modulus (GPa) = 43.56298 46.44041 45.00169
# Shear Modulus (GPa) = 20.76438 21.94765 21.35601
#
# Velocity S-wave (km/s) = 3.49895 3.59726 3.54844
# Velocity P-wave (km/s) = 6.48137 6.68093 6.58191
#
# Compressibility (1/GPa) = 0.02295527
#
# Stress axis : x y z
#
# Youngs Moduli (GPa) = 52.06656 40.21370 82.72241
#
# Poissons Ratio (x) = 0.39532 0.36849
# Poissons Ratio (y) = 0.51184 0.19178
# Poissons Ratio (z) = 0.23193 0.09323
#
# Static dielectric constant tensor:
#      x y z
#    x 3.049550 0.000000 0.000000 
#    y 0.000000 3.121660 0.000000 
#    z 0.000000 0.000000 3.358430 
# 
# 
# High freq. dielectric constant tensor:
#      x y z
#    x 1.647600 0.000000 0.000000 
#    y 0.000000 1.650880 0.000000 
#    z 0.000000 0.000000 1.664700 
# 
# From -- ./inp_files/62010.got.cif
#   From: 2010.03.12/outbox.cif.g09.slc.cpg/sg63_32_cif.got.tgz:62010.got - 2010.04.10 19:34:48.
