data_PCOD8256117
_publ_section_title
;
Structure prediction by ZEFSAII (Michael W. Deem and Ramdas Pophale) SiO2 
 PCOD8256117
Probable space group: C M C M
;
_chemical_formula_sum "Si O2"
_cell_formula_units_Z 64
_cell_length_a 8.436209
_cell_length_b 18.857669
_cell_length_c 20.957839
_cell_angle_alpha 90.000000
_cell_angle_beta 90.000000
_cell_angle_gamma 90.000000
_cell_volume 3334.124699
_symmetry_space_group_name_H-M "C M C M"
_symmetry_group_IT_number 63
_symmetry_cell_setting 'orthorhombic'
loop_
_space_group_symop_operation_xyz
x,y,z
-x,-y,1/2+z
x,-y,-z
-x,y,1/2-z
-x,-y,-z
x,y,1/2-z
-x,y,z
x,-y,1/2+z
1/2+x,1/2+y,z
1/2-x,1/2-y,1/2+z
1/2+x,1/2-y,-z
1/2-x,1/2+y,1/2-z
1/2-x,1/2-y,-z
1/2+x,1/2+y,1/2-z
1/2-x,1/2+y,z
1/2+x,1/2-y,1/2+z
loop_
_atom_site_type_symbol
_atom_site_label
_atom_site_fract_x
_atom_site_fract_y
_atom_site_fract_z
Si Si1 0.317212 0.835505 0.250000
Si Si2 0.686833 0.920991 0.500119
Si Si3 0.815723 0.674091 0.112194
Si Si4 0.816744 0.685213 0.250000
Si Si5 0.813472 0.164384 0.883288
O O1 0.500000 0.858192 0.250000
O O2 0.301350 0.750953 0.250000
O O3 0.232721 0.865693 0.313517
O O4 0.500000 0.926085 0.509696
O O5 0.764676 0.876494 0.559171
O O6 0.724414 0.883431 0.434126
O O7 0.760726 0.000000 0.500000
O O8 0.785881 0.642097 0.184080
O O9 0.750768 0.754657 0.108371
O O10 0.000000 0.677433 0.096975
O O11 0.000000 0.713666 0.250000
O O12 0.000000 0.158697 0.893494
#
# Coordination Sequence:
#
# PCOD8256117 Si02
#       5
#     8  16  16   8  16
#     4  10  18  30  51  78 103 123 153 203 257 302
#     4  10  20  33  48  71 104 137 171 211 251 292
#     4   8  15  29  50  73  96 127 166 207 251 297
#     4   8  14  28  49  72  97 125 161 203 247 296
#     4  10  19  33  53  74  98 130 168 206 246 298
#
# _framework density 19.195443999999998
#
# number of rings (size 3 to 8) (size 9 to 14) (size 15 to 20)
#    0.000    2.750    0.000    4.125    0.000    0.500 
#    0.000    6.250    0.000    4.500    0.000    0.000 
#    0.000    0.000    0.000    0.000    0.000    0.000 
#
# Total GULP energy -396520.799929 kJ/mol
# GULP energy per Si atom -12391.274998 kJ/mol
# Density = 1.915175 g / cm^3
# Si number density = 19.195444 Si / 1000 Ang^3
#
#
#
# Elastic Constant Matrix: (Units=GPa)
#
#
# Indices 1 2 3 4 5 6 
#
# 1 16.4015 4.6503 -6.0056 0.0000 0.0000 0.0000
# 2 4.6503 96.7563 73.9070 0.0000 0.0000 0.0000
# 3 -6.0056 73.9070 177.9415 0.0000 0.0000 0.0000
# 4 0.0000 0.0000 0.0000 3.6441 0.0000 0.0000
# 5 0.0000 0.0000 0.0000 0.0000 25.8118 0.0000
# 6 0.0000 0.0000 0.0000 0.0000 0.0000 10.0140
#
#
#
# Elastic Compliance Matrix: (Units=1/GPa)
#
#
# Indices 1 2 3 4 5 6 
#
# 1 0.064825 -0.007011 0.005100 0.000000 0.000000 0.000000
# 2 -0.007011 0.015896 -0.006839 0.000000 0.000000 0.000000
# 3 0.005100 -0.006839 0.008632 0.000000 0.000000 0.000000
# 4 0.000000 0.000000 0.000000 0.274415 0.000000 0.000000
# 5 0.000000 0.000000 0.000000 0.000000 0.038742 0.000000
# 6 0.000000 0.000000 0.000000 0.000000 0.000000 0.099860
#
#
# Mechanical properties :
#
#
# Convention : Reuss Voigt Hill
#
# Bulk Modulus (GPa) = 13.91720 48.46696 31.19208
# Shear Modulus (GPa) = 9.19417 22.46382 15.82899
#
# Velocity S-wave (km/s) = 2.19093 3.42463 2.87474
# Velocity P-wave (km/s) = 3.69678 6.39855 5.22531
#
# Compressibility (1/GPa) = 0.07185353
#
# Stress axis : x y z
#
# Youngs Moduli (GPa) = 15.42604 62.90821 115.84132
#
# Poissons Ratio (x) = 0.44107 -0.59079
# Poissons Ratio (y) = 0.10816 0.79224
# Poissons Ratio (z) = -0.07867 0.43023
#
# Static dielectric constant tensor:
#      x y z
#    x 3.121530 0.000000 0.000000 
#    y 0.000000 3.400180 0.000000 
#    z 0.000000 0.000000 3.992170 
# 
# 
# High freq. dielectric constant tensor:
#      x y z
#    x 1.715600 0.000000 0.000000 
#    y 0.000000 1.701760 0.000000 
#    z 0.000000 0.000000 1.774440 
# 
# From -- ./inp_files/50351.got.cif
#   From: 2010.03.12/outbox.cif.g09.slc.cpg/sg63_26_cif.got.tgz:50351.got - 2010.04.10 19:34:48.
