data_PCOD8256739
_publ_section_title
;
Structure prediction by ZEFSAII (Michael W. Deem and Ramdas Pophale) SiO2 
 PCOD8256739
Probable space group: C M C M
;
_chemical_formula_sum "Si O2"
_cell_formula_units_Z 96
_cell_length_a 28.773350
_cell_length_b 20.834457
_cell_length_c 9.133550
_cell_angle_alpha 90.000000
_cell_angle_beta 90.000000
_cell_angle_gamma 90.000000
_cell_volume 5475.354280
_symmetry_space_group_name_H-M "C M C M"
_symmetry_group_IT_number 63
_symmetry_cell_setting 'orthorhombic'
loop_
_space_group_symop_operation_xyz
x,y,z
-x,-y,1/2+z
x,-y,-z
-x,y,1/2-z
-x,-y,-z
x,y,1/2-z
-x,y,z
x,-y,1/2+z
1/2+x,1/2+y,z
1/2-x,1/2-y,1/2+z
1/2+x,1/2-y,-z
1/2-x,1/2+y,1/2-z
1/2-x,1/2-y,-z
1/2+x,1/2+y,1/2-z
1/2-x,1/2+y,z
1/2+x,1/2-y,1/2+z
loop_
_atom_site_type_symbol
_atom_site_label
_atom_site_fract_x
_atom_site_fract_y
_atom_site_fract_z
Si Si1 0.948154 0.300828 0.075330
Si Si2 0.383882 0.561493 0.914516
Si Si3 0.944796 0.559307 0.911272
Si Si4 0.726722 0.437345 0.416496
Si Si5 0.225263 0.191364 0.421601
Si Si6 0.116641 0.187498 0.419969
O O1 0.948358 0.304356 0.250000
O O2 0.932698 0.371375 0.016308
O O3 0.911855 0.248191 0.017837
O O4 0.000000 0.283385 0.018973
O O5 0.403478 0.560388 0.750000
O O6 0.328538 0.559448 0.914606
O O7 0.403969 0.500000 0.000000
O O8 0.401578 0.625488 0.993943
O O9 0.922894 0.555066 0.750000
O O10 0.000000 0.552673 0.902698
O O11 0.922747 0.500000 0.000000
O O12 0.746629 0.500000 0.500000
O O13 0.745986 0.435341 0.250000
O O14 0.743247 0.374315 0.504214
O O15 0.237650 0.189778 0.250000
O O16 0.250000 0.250000 0.500000
O O17 0.170618 0.200466 0.447590
O O18 0.106202 0.175461 0.250000
#
# Coordination Sequence:
#
# PCOD8256739 Si02
#       6
#    16  16  16  16  16  16
#     4   8  14  26  45  67  89 114 144 178 219 267
#     4   9  16  26  42  64  89 115 144 181 221 260
#     4   8  13  22  38  60  84 109 138 172 208 246
#     4   9  16  27  44  66  90 115 145 183 225 266
#     4  10  19  30  45  66  91 119 151 186 224 266
#     4   9  17  29  46  67  89 115 147 182 221 265
#
# _framework density 17.533111999999999
#
# number of rings (size 3 to 8) (size 9 to 14) (size 15 to 20)
#    0.000    3.167    0.000    2.500    0.000    4.667 
#    0.000    0.833    0.000    3.000    0.000    2.333 
#    0.000    0.000    0.000    0.000    0.000    0.000 
#
# Total GULP energy -594956.534356 kJ/mol
# GULP energy per Si atom -12394.927799 kJ/mol
# Density = 1.749321 g / cm^3
# Si number density = 17.533112 Si / 1000 Ang^3
#
#
#
# Elastic Constant Matrix: (Units=GPa)
#
#
# Indices 1 2 3 4 5 6 
#
# 1 26.2501 43.5723 26.0242 0.0000 0.0000 0.0000
# 2 43.5723 201.4563 86.0403 0.0000 0.0000 0.0000
# 3 26.0242 86.0403 110.4578 0.0000 0.0000 0.0000
# 4 0.0000 0.0000 0.0000 37.4382 0.0000 0.0000
# 5 0.0000 0.0000 0.0000 0.0000 9.6333 0.0000
# 6 0.0000 0.0000 0.0000 0.0000 0.0000 25.7025
#
#
#
# Elastic Compliance Matrix: (Units=1/GPa)
#
#
# Indices 1 2 3 4 5 6 
#
# 1 0.062189 -0.010779 -0.006256 0.000000 0.000000 0.000000
# 2 -0.010779 0.009307 -0.004710 0.000000 0.000000 0.000000
# 3 -0.006256 -0.004710 0.014196 0.000000 0.000000 0.000000
# 4 0.000000 0.000000 0.000000 0.026711 0.000000 0.000000
# 5 0.000000 0.000000 0.000000 0.000000 0.103807 0.000000
# 6 0.000000 0.000000 0.000000 0.000000 0.000000 0.038907
#
#
# Mechanical properties :
#
#
# Convention : Reuss Voigt Hill
#
# Bulk Modulus (GPa) = 23.69537 72.15975 47.92756
# Shear Modulus (GPa) = 15.99120 26.72328 21.35724
#
# Velocity S-wave (km/s) = 3.02331 3.90829 3.49393
# Velocity P-wave (km/s) = 5.07259 7.84932 6.60844
#
# Compressibility (1/GPa) = 0.04220234
#
# Stress axis : x y z
#
# Youngs Moduli (GPa) = 16.08010 107.44933 70.44320
#
# Poissons Ratio (x) = 1.15817 0.44068
# Poissons Ratio (y) = 0.17332 0.33178
# Poissons Ratio (z) = 0.10059 0.50607
#
# Static dielectric constant tensor:
#      x y z
#    x 2.781320 0.000000 0.000000 
#    y 0.000000 3.627920 0.000000 
#    z 0.000000 0.000000 3.327870 
# 
# 
# High freq. dielectric constant tensor:
#      x y z
#    x 1.612660 0.000000 0.000000 
#    y 0.000000 1.698540 0.000000 
#    z 0.000000 0.000000 1.669130 
# 
# From -- ./inp_files/12395.got.cif
#   From: 2010.03.12/outbox.cif.g09.slc.cpg/sg63_7_cif.got.tgz:12395.got - 2010.04.10 19:34:48.
