data_PCOD8256816
_publ_section_title
;
Structure prediction by ZEFSAII (Michael W. Deem and Ramdas Pophale) SiO2 
 PCOD8256816
Probable space group: C M C M
;
_chemical_formula_sum "Si O2"
_cell_formula_units_Z 96
_cell_length_a 30.498927
_cell_length_b 19.553600
_cell_length_c 9.257216
_cell_angle_alpha 90.000000
_cell_angle_beta 90.000000
_cell_angle_gamma 90.000000
_cell_volume 5520.668687
_symmetry_space_group_name_H-M "C M C M"
_symmetry_group_IT_number 63
_symmetry_cell_setting 'orthorhombic'
loop_
_space_group_symop_operation_xyz
x,y,z
-x,-y,1/2+z
x,-y,-z
-x,y,1/2-z
-x,-y,-z
x,y,1/2-z
-x,y,z
x,-y,1/2+z
1/2+x,1/2+y,z
1/2-x,1/2-y,1/2+z
1/2+x,1/2-y,-z
1/2-x,1/2+y,1/2-z
1/2-x,1/2-y,-z
1/2+x,1/2+y,1/2-z
1/2-x,1/2+y,z
1/2+x,1/2-y,1/2+z
loop_
_atom_site_type_symbol
_atom_site_label
_atom_site_fract_x
_atom_site_fract_y
_atom_site_fract_z
Si Si1 0.797324 0.567404 0.582435
Si Si2 0.952223 0.330223 0.912288
Si Si3 0.696342 0.430679 0.079492
Si Si4 0.369205 0.826682 0.082436
Si Si5 0.451556 0.332231 0.087528
Si Si6 0.632334 0.332054 0.919832
O O1 0.813055 0.500000 0.500000
O O2 0.803972 0.552237 0.750000
O O3 0.747098 0.585239 0.547452
O O4 0.826645 0.631345 0.530468
O O5 0.945099 0.356808 0.750000
O O6 0.951932 0.248910 0.916162
O O7 0.000000 0.355785 0.969786
O O8 0.912470 0.358499 0.008124
O O9 0.686582 0.436697 0.250000
O O10 0.681663 0.500000 0.000000
O O11 0.670126 0.368733 0.009270
O O12 0.377637 0.835698 0.250000
O O13 0.361597 0.747698 0.043197
O O14 0.440248 0.357484 0.250000
O O15 0.500000 0.359556 0.041986
O O16 0.414975 0.359415 0.975664
O O17 0.636426 0.347501 0.750000
#
# Coordination Sequence:
#
# PCOD8256816 Si02
#       6
#    16  16  16  16  16  16
#     4   9  19  35  52  70  93 124 161 199 239 284
#     4   8  14  25  42  66  95 125 158 194 231 275
#     4  10  20  35  53  70  92 124 161 198 237 284
#     4   9  18  31  47  71 101 127 155 195 240 282
#     4   8  14  26  44  66  94 127 160 193 230 274
#     4  10  19  30  47  73 102 128 156 193 236 281
#
# _framework density 17.389196999999999
#
# number of rings (size 3 to 8) (size 9 to 14) (size 15 to 20)
#    0.000    3.000    0.000    2.000    0.000    3.333 
#    0.000    3.333    0.000    1.000    0.000    0.000 
#    0.000    0.000    0.000    0.000    0.000    0.000 
#
# Total GULP energy -594987.858200 kJ/mol
# GULP energy per Si atom -12395.580379 kJ/mol
# Density = 1.734962 g / cm^3
# Si number density = 17.389197 Si / 1000 Ang^3
#
#
#
# Elastic Constant Matrix: (Units=GPa)
#
#
# Indices 1 2 3 4 5 6 
#
# 1 130.0509 59.8793 66.0248 0.0000 0.0000 0.0000
# 2 59.8793 59.6286 44.6572 0.0000 0.0000 0.0000
# 3 66.0248 44.6572 84.5938 0.0000 0.0000 0.0000
# 4 0.0000 0.0000 0.0000 23.0772 0.0000 0.0000
# 5 0.0000 0.0000 0.0000 0.0000 34.1069 0.0000
# 6 0.0000 0.0000 0.0000 0.0000 0.0000 4.6190
#
#
#
# Elastic Compliance Matrix: (Units=1/GPa)
#
#
# Indices 1 2 3 4 5 6 
#
# 1 0.016353 -0.011351 -0.006772 0.000000 0.000000 0.000000
# 2 -0.011351 0.035615 -0.009942 0.000000 0.000000 0.000000
# 3 -0.006772 -0.009942 0.022355 0.000000 0.000000 0.000000
# 4 0.000000 0.000000 0.000000 0.043333 0.000000 0.000000
# 5 0.000000 0.000000 0.000000 0.000000 0.029320 0.000000
# 6 0.000000 0.000000 0.000000 0.000000 0.000000 0.216495
#
#
# Mechanical properties :
#
#
# Convention : Reuss Voigt Hill
#
# Bulk Modulus (GPa) = 54.96224 68.37730 61.66977
# Shear Modulus (GPa) = 11.74638 19.27477 15.51058
#
# Velocity S-wave (km/s) = 2.60186 3.33293 2.98982
# Velocity P-wave (km/s) = 6.37981 7.36331 6.88913
#
# Compressibility (1/GPa) = 0.01819431
#
# Stress axis : x y z
#
# Youngs Moduli (GPa) = 61.14971 28.07839 44.73326
#
# Poissons Ratio (x) = 0.31871 0.30292
# Poissons Ratio (y) = 0.69409 0.44473
# Poissons Ratio (z) = 0.41408 0.27915
#
# Static dielectric constant tensor:
#      x y z
#    x 3.636160 0.000000 0.000000 
#    y 0.000000 2.952950 0.000000 
#    z 0.000000 0.000000 3.315410 
# 
# 
# High freq. dielectric constant tensor:
#      x y z
#    x 1.684280 0.000000 0.000000 
#    y 0.000000 1.629340 0.000000 
#    z 0.000000 0.000000 1.674320 
# 
# From -- ./inp_files/12366.got.cif
#   From: 2010.03.12/outbox.cif.g09.slc.cpg/sg63_7_cif.got.tgz:12366.got - 2010.04.10 19:34:48.
