data_PCOD8256502
_publ_section_title
;
Structure prediction by ZEFSAII (Michael W. Deem and Ramdas Pophale) SiO2 
 PCOD8256502
Probable space group: C M C M
;
_chemical_formula_sum "Si O2"
_cell_formula_units_Z 96
_cell_length_a 8.574828
_cell_length_b 25.242247
_cell_length_c 23.809337
_cell_angle_alpha 90.000000
_cell_angle_beta 90.000000
_cell_angle_gamma 90.000000
_cell_volume 5153.481622
_symmetry_space_group_name_H-M "C M C M"
_symmetry_group_IT_number 63
_symmetry_cell_setting 'orthorhombic'
loop_
_space_group_symop_operation_xyz
x,y,z
-x,-y,1/2+z
x,-y,-z
-x,y,1/2-z
-x,-y,-z
x,y,1/2-z
-x,y,z
x,-y,1/2+z
1/2+x,1/2+y,z
1/2-x,1/2-y,1/2+z
1/2+x,1/2-y,-z
1/2-x,1/2+y,1/2-z
1/2-x,1/2-y,-z
1/2+x,1/2+y,1/2-z
1/2-x,1/2+y,z
1/2+x,1/2-y,1/2+z
loop_
_atom_site_type_symbol
_atom_site_label
_atom_site_fract_x
_atom_site_fract_y
_atom_site_fract_z
Si Si1 0.183284 0.099989 0.636874
Si Si2 0.316767 0.309954 0.555445
Si Si3 0.314409 0.497832 0.062664
Si Si4 0.317446 0.940447 0.250000
Si Si5 0.314812 0.403465 0.632553
Si Si6 0.681979 0.810970 0.436454
Si Si7 0.314760 0.557961 0.250000
O O1 0.243564 0.054909 0.594019
O O2 0.269426 0.093624 0.695928
O O3 0.223998 0.156654 0.610261
O O4 0.000000 0.095411 0.647474
O O5 0.500000 0.315901 0.543674
O O6 0.260064 0.347713 0.606214
O O7 0.272250 0.250413 0.572548
O O8 0.229977 0.328476 0.499038
O O9 0.500000 0.498893 0.060609
O O10 0.247820 0.548621 0.095320
O O11 0.244649 0.500000 0.000000
O O12 0.500000 0.950103 0.250000
O O13 0.234538 0.997073 0.250000
O O14 0.500000 0.406443 0.633459
O O15 0.249292 0.410735 0.695664
O O16 0.500000 0.820995 0.427773
O O17 0.500000 0.557852 0.250000
#
# Coordination Sequence:
#
# PCOD8256502 Si02
#       7
#    16  16  16   8  16  16   8
#     4  11  21  36  58  80 106 144 188 225 268 327
#     4   9  18  34  56  80 108 146 186 224 271 328
#     4   9  16  26  48  80 105 127 168 225 269 307
#     4  12  24  38  55  78 113 147 178 222 274 325
#     4   9  16  29  52  79 103 132 182 231 261 309
#     4  10  20  34  53  81 114 145 180 226 279 326
#     4  10  18  34  57  78 101 137 182 222 264 319
#
# _framework density 18.628183
#
# number of rings (size 3 to 8) (size 9 to 14) (size 15 to 20)
#    0.000    2.167    1.667    2.750    0.000    3.333 
#    0.000    1.667    0.000    5.000    0.000    0.000 
#    0.000    0.000    0.000    0.000    0.000    0.000 
#
# Total GULP energy -595236.519364 kJ/mol
# GULP energy per Si atom -12400.760820 kJ/mol
# Density = 1.858578 g / cm^3
# Si number density = 18.628183 Si / 1000 Ang^3
#
#
#
# Elastic Constant Matrix: (Units=GPa)
#
#
# Indices 1 2 3 4 5 6 
#
# 1 21.5779 8.5127 14.7051 0.0000 0.0000 0.0000
# 2 8.5127 110.1325 74.6793 0.0000 0.0000 0.0000
# 3 14.7051 74.6793 169.9515 0.0000 0.0000 0.0000
# 4 0.0000 0.0000 0.0000 31.9597 0.0000 0.0000
# 5 0.0000 0.0000 0.0000 0.0000 20.0304 0.0000
# 6 0.0000 0.0000 0.0000 0.0000 0.0000 22.0808
#
#
#
# Elastic Compliance Matrix: (Units=1/GPa)
#
#
# Indices 1 2 3 4 5 6 
#
# 1 0.049380 -0.001310 -0.003697 0.000000 0.000000 0.000000
# 2 -0.001310 0.012968 -0.005585 0.000000 0.000000 0.000000
# 3 -0.003697 -0.005585 0.008658 0.000000 0.000000 0.000000
# 4 0.000000 0.000000 0.000000 0.031289 0.000000 0.000000
# 5 0.000000 0.000000 0.000000 0.000000 0.049924 0.000000
# 6 0.000000 0.000000 0.000000 0.000000 0.000000 0.045288
#
#
# Mechanical properties :
#
#
# Convention : Reuss Voigt Hill
#
# Bulk Modulus (GPa) = 20.07138 55.27290 37.67214
# Shear Modulus (GPa) = 21.24948 28.39850 24.82399
#
# Velocity S-wave (km/s) = 3.38111 3.90871 3.65444
# Velocity P-wave (km/s) = 5.10301 7.07861 6.17039
#
# Compressibility (1/GPa) = 0.04982220
#
# Stress axis : x y z
#
# Youngs Moduli (GPa) = 20.25117 77.11009 115.49822
#
# Poissons Ratio (x) = 0.10101 0.42700
# Poissons Ratio (y) = 0.02653 0.64508
# Poissons Ratio (z) = 0.07487 0.43068
#
# Static dielectric constant tensor:
#      x y z
#    x 3.081350 0.000000 0.000000 
#    y 0.000000 3.483000 0.000000 
#    z 0.000000 0.000000 3.718120 
# 
# 
# High freq. dielectric constant tensor:
#      x y z
#    x 1.691650 0.000000 0.000000 
#    y 0.000000 1.723400 0.000000 
#    z 0.000000 0.000000 1.729130 
# 
# From -- ./inp_files/59999.got.cif
#   From: 2010.03.12/outbox.cif.g09.slc.cpg/sg63_30_cif.got.tgz:59999.got - 2010.04.10 19:34:48.
