data_PCOD8256080
_publ_section_title
;
Structure prediction by ZEFSAII (Michael W. Deem and Ramdas Pophale) SiO2 
 PCOD8256080
Probable space group: C M C M
;
_chemical_formula_sum "Si O2"
_cell_formula_units_Z 80
_cell_length_a 8.768620
_cell_length_b 25.624645
_cell_length_c 20.021081
_cell_angle_alpha 90.000000
_cell_angle_beta 90.000000
_cell_angle_gamma 90.000000
_cell_volume 4498.592241
_symmetry_space_group_name_H-M "C M C M"
_symmetry_group_IT_number 63
_symmetry_cell_setting 'orthorhombic'
loop_
_space_group_symop_operation_xyz
x,y,z
-x,-y,1/2+z
x,-y,-z
-x,y,1/2-z
-x,-y,-z
x,y,1/2-z
-x,y,z
x,-y,1/2+z
1/2+x,1/2+y,z
1/2-x,1/2-y,1/2+z
1/2+x,1/2-y,-z
1/2-x,1/2+y,1/2-z
1/2-x,1/2-y,-z
1/2+x,1/2+y,1/2-z
1/2-x,1/2+y,z
1/2+x,1/2-y,1/2+z
loop_
_atom_site_type_symbol
_atom_site_label
_atom_site_fract_x
_atom_site_fract_y
_atom_site_fract_z
Si Si1 0.680062 0.944995 0.173356
Si Si2 0.319947 0.523560 0.429684
Si Si3 0.319404 0.132316 0.446782
Si Si4 0.179737 0.764641 0.929491
Si Si5 0.678809 0.846515 0.095123
O O1 0.725897 0.952353 0.250000
O O2 0.500000 0.951982 0.162114
O O3 0.736531 0.887245 0.150714
O O4 0.769635 0.987225 0.130797
O O5 0.260288 0.500000 0.500000
O O6 0.500000 0.529496 0.430356
O O7 0.245827 0.579576 0.415687
O O8 0.500000 0.131232 0.442569
O O9 0.258246 0.182038 0.403475
O O10 0.253906 0.138148 0.522329
O O11 0.217995 0.713493 0.883542
O O12 0.000000 0.773607 0.935525
O O13 0.250000 0.750000 0.000000
O O14 0.500000 0.851924 0.086707
#
# Coordination Sequence:
#
# PCOD8256080 Si02
#       5
#    16  16  16  16  16
#     4  10  20  35  55  77 103 139 178 214 259 320
#     4  11  22  34  51  77 106 138 176 222 270 317
#     4  10  18  30  50  74 102 135 171 217 266 310
#     4   9  16  27  44  70 103 134 167 208 256 310
#     4   8  15  28  47  72 101 132 165 208 257 307
#
# _framework density 17.783341
#
# number of rings (size 3 to 8) (size 9 to 14) (size 15 to 20)
#    0.000    2.400    2.000    3.000    0.000    1.200 
#    0.000    1.000    0.000    1.200    0.000    2.800 
#    0.000    0.000    0.000    0.000    0.000    0.000 
#
# Total GULP energy -495705.490700 kJ/mol
# GULP energy per Si atom -12392.637267 kJ/mol
# Density = 1.774287 g / cm^3
# Si number density = 17.783341 Si / 1000 Ang^3
#
#
#
# Elastic Constant Matrix: (Units=GPa)
#
#
# Indices 1 2 3 4 5 6 
#
# 1 67.5644 53.5264 25.9232 0.0000 0.0000 0.0000
# 2 53.5264 185.8520 47.6056 0.0000 0.0000 0.0000
# 3 25.9232 47.6056 63.5847 0.0000 0.0000 0.0000
# 4 0.0000 0.0000 0.0000 19.3822 0.0000 0.0000
# 5 0.0000 0.0000 0.0000 0.0000 15.5554 0.0000
# 6 0.0000 0.0000 0.0000 0.0000 0.0000 31.2299
#
#
#
# Elastic Compliance Matrix: (Units=1/GPa)
#
#
# Indices 1 2 3 4 5 6 
#
# 1 0.020306 -0.004612 -0.004826 0.000000 0.000000 0.000000
# 2 -0.004612 0.007705 -0.003888 0.000000 0.000000 0.000000
# 3 -0.004826 -0.003888 0.020606 0.000000 0.000000 0.000000
# 4 0.000000 0.000000 0.000000 0.051594 0.000000 0.000000
# 5 0.000000 0.000000 0.000000 0.000000 0.064286 0.000000
# 6 0.000000 0.000000 0.000000 0.000000 0.000000 0.032021
#
#
# Mechanical properties :
#
#
# Convention : Reuss Voigt Hill
#
# Bulk Modulus (GPa) = 45.52802 63.45681 54.49242
# Shear Modulus (GPa) = 21.69282 25.89655 23.79469
#
# Velocity S-wave (km/s) = 3.49641 3.82019 3.66188
# Velocity P-wave (km/s) = 6.47742 7.43097 6.97051
#
# Compressibility (1/GPa) = 0.02196449
#
# Stress axis : x y z
#
# Youngs Moduli (GPa) = 49.24634 129.78682 48.53061
#
# Poissons Ratio (x) = 0.59860 0.23419
# Poissons Ratio (y) = 0.22713 0.18870
# Poissons Ratio (z) = 0.23764 0.50465
#
# Static dielectric constant tensor:
#      x y z
#    x 3.203170 0.000000 0.000000 
#    y 0.000000 4.014350 0.000000 
#    z 0.000000 0.000000 3.018970 
# 
# 
# High freq. dielectric constant tensor:
#      x y z
#    x 1.679860 0.000000 0.000000 
#    y 0.000000 1.714970 0.000000 
#    z 0.000000 0.000000 1.629560 
# 
# From -- ./inp_files/40528.got.cif
#   From: 2010.03.12/outbox.cif.g09.slc.cpg/sg63_21_cif.got.tgz:40528.got - 2010.04.10 19:34:48.
