data_PCOD8256156
_publ_section_title
;
Structure prediction by ZEFSAII (Michael W. Deem and Ramdas Pophale) SiO2 
 PCOD8256156
Probable space group: C M C M
;
_chemical_formula_sum "Si O2"
_cell_formula_units_Z 72
_cell_length_a 22.688795
_cell_length_b 23.158214
_cell_length_c 8.946899
_cell_angle_alpha 90.000000
_cell_angle_beta 90.000000
_cell_angle_gamma 90.000000
_cell_volume 4700.986767
_symmetry_space_group_name_H-M "C M C M"
_symmetry_group_IT_number 63
_symmetry_cell_setting 'orthorhombic'
loop_
_space_group_symop_operation_xyz
x,y,z
-x,-y,1/2+z
x,-y,-z
-x,y,1/2-z
-x,-y,-z
x,y,1/2-z
-x,y,z
x,-y,1/2+z
1/2+x,1/2+y,z
1/2-x,1/2-y,1/2+z
1/2+x,1/2-y,-z
1/2-x,1/2+y,1/2-z
1/2-x,1/2-y,-z
1/2+x,1/2+y,1/2-z
1/2-x,1/2+y,z
1/2+x,1/2-y,1/2+z
loop_
_atom_site_type_symbol
_atom_site_label
_atom_site_fract_x
_atom_site_fract_y
_atom_site_fract_z
Si Si1 0.711046 0.830745 0.918808
Si Si2 0.000000 0.562406 0.071859
Si Si3 0.903264 0.639779 0.574588
Si Si4 0.322706 0.697215 0.917703
Si Si5 0.933866 0.770310 0.922533
O O1 0.710079 0.854643 0.750000
O O2 0.695562 0.763628 0.922346
O O3 0.664117 0.865570 0.018970
O O4 0.776146 0.840212 0.987028
O O5 0.000000 0.558489 0.250000
O O6 0.000000 0.500000 0.000000
O O7 0.941524 0.594566 0.017150
O O8 0.906844 0.625775 0.750000
O O9 0.928400 0.702955 0.537553
O O10 0.322820 0.673023 0.750000
O O11 0.388351 0.690696 0.984263
O O12 0.918488 0.779617 0.750000
O O13 0.000000 0.790848 0.961099
#
# Coordination Sequence:
#
# PCOD8256156 Si02
#       5
#    16   8  16  16  16
#     4   9  16  26  39  56  75  98 126 159 197 238
#     4  12  24  36  48  62  80 102 132 170 212 254
#     4  10  18  31  46  60  76  98 128 165 206 246
#     4   9  16  24  35  54  76 100 128 162 196 229
#     4   9  16  26  39  55  77 105 133 163 200 240
#
# _framework density 15.315932
#
# number of rings (size 3 to 8) (size 9 to 14) (size 15 to 20)
#    0.000    2.444    1.111    3.000    0.000    6.667 
#    0.000    0.000    0.000    0.000    0.000    0.000 
#    0.000    0.000    0.000    0.000    0.000    1.111 
#
# Total GULP energy -446358.500993 kJ/mol
# GULP energy per Si atom -12398.847250 kJ/mol
# Density = 1.528107 g / cm^3
# Si number density = 15.315932 Si / 1000 Ang^3
#
#
#
# Elastic Constant Matrix: (Units=GPa)
#
#
# Indices 1 2 3 4 5 6 
#
# 1 126.3534 26.9654 56.8891 0.0000 0.0000 0.0000
# 2 26.9654 22.3078 22.9288 0.0000 0.0000 0.0000
# 3 56.8891 22.9288 109.4871 0.0000 0.0000 0.0000
# 4 0.0000 0.0000 0.0000 14.0513 0.0000 0.0000
# 5 0.0000 0.0000 0.0000 0.0000 34.3023 0.0000
# 6 0.0000 0.0000 0.0000 0.0000 0.0000 7.0748
#
#
#
# Elastic Compliance Matrix: (Units=1/GPa)
#
#
# Indices 1 2 3 4 5 6 
#
# 1 0.011926 -0.010254 -0.004049 0.000000 0.000000 0.000000
# 2 -0.010254 0.065939 -0.008481 0.000000 0.000000 0.000000
# 3 -0.004049 -0.008481 0.013014 0.000000 0.000000 0.000000
# 4 0.000000 0.000000 0.000000 0.071168 0.000000 0.000000
# 5 0.000000 0.000000 0.000000 0.000000 0.029153 0.000000
# 6 0.000000 0.000000 0.000000 0.000000 0.000000 0.141347
#
#
# Mechanical properties :
#
#
# Convention : Reuss Voigt Hill
#
# Bulk Modulus (GPa) = 22.07000 52.41276 37.24138
# Shear Modulus (GPa) = 12.71559 21.17667 16.94613
#
# Velocity S-wave (km/s) = 2.88448 3.72244 3.32993
# Velocity P-wave (km/s) = 5.05319 7.26435 6.25722
#
# Compressibility (1/GPa) = 0.04531037
#
# Stress axis : x y z
#
# Youngs Moduli (GPa) = 83.85253 15.16543 76.84275
#
# Poissons Ratio (x) = 0.15550 0.31115
# Poissons Ratio (y) = 0.85980 0.65172
# Poissons Ratio (z) = 0.33954 0.12862
#
# Static dielectric constant tensor:
#      x y z
#    x 3.184390 0.000000 0.000000 
#    y 0.000000 2.352830 0.000000 
#    z 0.000000 0.000000 3.103800 
# 
# 
# High freq. dielectric constant tensor:
#      x y z
#    x 1.602570 0.000000 0.000000 
#    y 0.000000 1.497230 0.000000 
#    z 0.000000 0.000000 1.605220 
# 
# From -- ./inp_files/7807.got.cif
#   From: 2010.03.12/outbox.cif.g09.slc.cpg/sg63_4_cif.got.tgz:7807.got - 2010.04.10 19:34:48.
