data_PCOD8256070
_publ_section_title
;
Structure prediction by ZEFSAII (Michael W. Deem and Ramdas Pophale) SiO2 
 PCOD8256070
Probable space group: C M C M
;
_chemical_formula_sum "Si O2"
_cell_formula_units_Z 96
_cell_length_a 9.108106
_cell_length_b 24.898468
_cell_length_c 24.915047
_cell_angle_alpha 90.000000
_cell_angle_beta 90.000000
_cell_angle_gamma 90.000000
_cell_volume 5650.181683
_symmetry_space_group_name_H-M "C M C M"
_symmetry_group_IT_number 63
_symmetry_cell_setting 'orthorhombic'
loop_
_space_group_symop_operation_xyz
x,y,z
-x,-y,1/2+z
x,-y,-z
-x,y,1/2-z
-x,-y,-z
x,y,1/2-z
-x,y,z
x,-y,1/2+z
1/2+x,1/2+y,z
1/2-x,1/2-y,1/2+z
1/2+x,1/2-y,-z
1/2-x,1/2+y,1/2-z
1/2-x,1/2-y,-z
1/2+x,1/2+y,1/2-z
1/2-x,1/2+y,z
1/2+x,1/2-y,1/2+z
loop_
_atom_site_type_symbol
_atom_site_label
_atom_site_fract_x
_atom_site_fract_y
_atom_site_fract_z
Si Si1 0.833827 0.451860 0.750000
Si Si2 0.665439 0.939493 0.866222
Si Si3 0.166890 0.136871 0.938058
Si Si4 0.330679 0.755462 0.555759
Si Si5 0.826941 0.060324 0.750000
Si Si6 0.670454 0.934771 0.143828
Si Si7 0.329326 0.357541 0.563456
O O1 0.815621 0.417513 0.695308
O O2 0.711255 0.497579 0.750000
O O3 0.000000 0.477854 0.750000
O O4 0.500000 0.928660 0.886605
O O5 0.778818 0.910134 0.904802
O O6 0.701408 0.002622 0.866962
O O7 0.185201 0.197738 0.914893
O O8 0.276805 0.097707 0.907875
O O9 0.000000 0.117228 0.929373
O O10 0.207286 0.134411 0.000928
O O11 0.500000 0.769421 0.545757
O O12 0.250000 0.750000 0.500000
O O13 0.255313 0.805087 0.587270
O O14 0.757951 0.086331 0.803775
O O15 0.000000 0.069842 0.750000
O O16 0.500000 0.923641 0.153317
O O17 0.500000 0.348177 0.573140
#
# Coordination Sequence:
#
# PCOD8256070 Si02
#       7
#     8  16  16  16   8  16  16
#     4   8  16  32  50  69  94 125 164 202 236 282
#     4   9  18  32  49  70  97 128 161 198 241 287
#     4   9  19  33  48  70  98 127 159 197 242 287
#     4   9  17  31  50  70  94 125 162 200 237 282
#     4  10  18  30  50  71  94 125 160 198 238 282
#     4  10  20  33  50  72  98 128 162 199 238 284
#     4  10  20  32  48  72 100 129 162 200 240 284
#
# _framework density 16.990603
#
# number of rings (size 3 to 8) (size 9 to 14) (size 15 to 20)
#    0.000    2.667    0.000    4.250    0.000    8.000 
#    0.000    3.333    0.000    1.000    0.000    2.333 
#    0.000    0.000    0.000    0.000    0.000    0.000 
#
# Total GULP energy -594924.778650 kJ/mol
# GULP energy per Si atom -12394.266222 kJ/mol
# Density = 1.695193 g / cm^3
# Si number density = 16.990603 Si / 1000 Ang^3
#
#
#
# Elastic Constant Matrix: (Units=GPa)
#
#
# Indices 1 2 3 4 5 6 
#
# 1 120.3634 54.1632 54.6307 0.0000 0.0000 0.0000
# 2 54.1632 74.2267 46.6369 0.0000 0.0000 0.0000
# 3 54.6307 46.6369 79.7020 0.0000 0.0000 0.0000
# 4 0.0000 0.0000 0.0000 1.8190 0.0000 0.0000
# 5 0.0000 0.0000 0.0000 0.0000 29.3757 0.0000
# 6 0.0000 0.0000 0.0000 0.0000 0.0000 31.4608
#
#
#
# Elastic Compliance Matrix: (Units=1/GPa)
#
#
# Indices 1 2 3 4 5 6 
#
# 1 0.013808 -0.006530 -0.005644 0.000000 0.000000 0.000000
# 2 -0.006530 0.024393 -0.009797 0.000000 0.000000 0.000000
# 3 -0.005644 -0.009797 0.022148 0.000000 0.000000 0.000000
# 4 0.000000 0.000000 0.000000 0.549750 0.000000 0.000000
# 5 0.000000 0.000000 0.000000 0.000000 0.034042 0.000000
# 6 0.000000 0.000000 0.000000 0.000000 0.000000 0.031786
#
#
# Mechanical properties :
#
#
# Convention : Reuss Voigt Hill
#
# Bulk Modulus (GPa) = 60.94968 65.01708 62.98338
# Shear Modulus (GPa) = 6.89334 20.45518 13.67426
#
# Velocity S-wave (km/s) = 2.01642 3.47351 2.84000
# Velocity P-wave (km/s) = 6.43209 7.37811 6.92128
#
# Compressibility (1/GPa) = 0.01640698
#
# Stress axis : x y z
#
# Youngs Moduli (GPa) = 72.42081 40.99567 45.15057
#
# Poissons Ratio (x) = 0.26769 0.25482
# Poissons Ratio (y) = 0.47289 0.44236
# Poissons Ratio (z) = 0.40873 0.40165
#
# Static dielectric constant tensor:
#      x y z
#    x 3.250980 0.000000 0.000000 
#    y 0.000000 802.242530 0.000000 
#    z 0.000000 0.000000 3.027250 
# 
# 
# High freq. dielectric constant tensor:
#      x y z
#    x 1.668090 0.000000 0.000000 
#    y 0.000000 1.635100 0.000000 
#    z 0.000000 0.000000 1.637030 
# 
# From -- ./inp_files/60010.got.cif
#   From: 2010.03.12/outbox.cif.g09.slc.cpg/sg63_31_cif.got.tgz:60010.got - 2010.04.10 19:34:48.
