data_PCOD8256345
_publ_section_title
;
Structure prediction by ZEFSAII (Michael W. Deem and Ramdas Pophale) SiO2 
 PCOD8256345
Probable space group: C M C M
;
_chemical_formula_sum "Si O2"
_cell_formula_units_Z 80
_cell_length_a 24.895671
_cell_length_b 20.726171
_cell_length_c 8.657537
_cell_angle_alpha 90.000000
_cell_angle_beta 90.000000
_cell_angle_gamma 90.000000
_cell_volume 4467.219263
_symmetry_space_group_name_H-M "C M C M"
_symmetry_group_IT_number 63
_symmetry_cell_setting 'orthorhombic'
loop_
_space_group_symop_operation_xyz
x,y,z
-x,-y,1/2+z
x,-y,-z
-x,y,1/2-z
-x,-y,-z
x,y,1/2-z
-x,y,z
x,-y,1/2+z
1/2+x,1/2+y,z
1/2-x,1/2-y,1/2+z
1/2+x,1/2-y,-z
1/2-x,1/2+y,1/2-z
1/2-x,1/2-y,-z
1/2+x,1/2+y,1/2-z
1/2-x,1/2+y,z
1/2+x,1/2-y,1/2+z
loop_
_atom_site_type_symbol
_atom_site_label
_atom_site_fract_x
_atom_site_fract_y
_atom_site_fract_z
Si Si1 0.114661 0.621951 0.565121
Si Si2 0.715740 0.691686 0.067592
Si Si3 0.500000 0.114231 0.919083
Si Si4 0.389164 0.262511 0.432663
Si Si5 0.781560 0.434272 0.568227
Si Si6 0.000000 0.767415 0.578684
O O1 0.112804 0.627073 0.750000
O O2 0.125969 0.692511 0.498274
O O3 0.160095 0.573621 0.509045
O O4 0.056587 0.595194 0.499781
O O5 0.711576 0.700469 0.250000
O O6 0.743310 0.624477 0.021160
O O7 0.750000 0.750000 0.000000
O O8 0.656661 0.689195 0.993180
O O9 0.500000 0.082534 0.750000
O O10 0.500000 0.191120 0.907553
O O11 0.388679 0.258833 0.250000
O O12 0.446603 0.289765 0.488530
O O13 0.756258 0.500000 0.500000
O O14 0.788822 0.439506 0.750000
O O15 0.000000 0.798368 0.750000
#
# Coordination Sequence:
#
# PCOD8256345 Si02
#       6
#    16  16   8  16  16   8
#     4  10  18  32  53  74 104 141 181 225 272 320
#     4  11  22  36  56  81 109 142 183 227 273 328
#     4   7  14  27  46  72  97 132 175 218 264 309
#     4  11  20  31  51  81 112 142 179 222 271 324
#     4  11  24  39  55  77 106 141 184 227 277 331
#     4   9  17  31  49  74 109 144 177 218 271 319
#
# _framework density 17.908232999999999
#
# number of rings (size 3 to 8) (size 9 to 14) (size 15 to 20)
#    0.000    1.800    2.000    5.100    0.000    2.400 
#    0.000    2.000    0.000    0.000    0.000    0.700 
#    0.000    0.000    0.000    0.000    0.000    0.000 
#
# Total GULP energy -495872.987652 kJ/mol
# GULP energy per Si atom -12396.824691 kJ/mol
# Density = 1.786747 g / cm^3
# Si number density = 17.908233 Si / 1000 Ang^3
#
#
#
# Elastic Constant Matrix: (Units=GPa)
#
#
# Indices 1 2 3 4 5 6 
#
# 1 137.4201 55.1742 47.5468 0.0000 0.0000 0.0000
# 2 55.1742 88.1423 43.4168 0.0000 0.0000 0.0000
# 3 47.5468 43.4168 104.1154 0.0000 0.0000 0.0000
# 4 0.0000 0.0000 0.0000 23.0801 0.0000 0.0000
# 5 0.0000 0.0000 0.0000 0.0000 31.7638 0.0000
# 6 0.0000 0.0000 0.0000 0.0000 0.0000 7.5210
#
#
#
# Elastic Compliance Matrix: (Units=1/GPa)
#
#
# Indices 1 2 3 4 5 6 
#
# 1 0.010218 -0.005157 -0.002516 0.000000 0.000000 0.000000
# 2 -0.005157 0.016881 -0.004684 0.000000 0.000000 0.000000
# 3 -0.002516 -0.004684 0.012707 0.000000 0.000000 0.000000
# 4 0.000000 0.000000 0.000000 0.043327 0.000000 0.000000
# 5 0.000000 0.000000 0.000000 0.000000 0.031482 0.000000
# 6 0.000000 0.000000 0.000000 0.000000 0.000000 0.132962
#
#
# Mechanical properties :
#
#
# Convention : Reuss Voigt Hill
#
# Bulk Modulus (GPa) = 66.26202 69.10594 67.68398
# Shear Modulus (GPa) = 18.02959 24.70896 21.36928
#
# Velocity S-wave (km/s) = 3.17642 3.71853 3.45812
# Velocity P-wave (km/s) = 7.10873 7.55707 7.33633
#
# Compressibility (1/GPa) = 0.01509160
#
# Stress axis : x y z
#
# Youngs Moduli (GPa) = 97.86755 59.23919 78.69645
#
# Poissons Ratio (x) = 0.30549 0.19799
# Poissons Ratio (y) = 0.50469 0.36864
# Poissons Ratio (z) = 0.24622 0.27750
#
# Static dielectric constant tensor:
#      x y z
#    x 3.779900 0.000000 0.000000 
#    y 0.000000 3.000640 0.000000 
#    z 0.000000 0.000000 3.355720 
# 
# 
# High freq. dielectric constant tensor:
#      x y z
#    x 1.708380 0.000000 0.000000 
#    y 0.000000 1.644470 0.000000 
#    z 0.000000 0.000000 1.702020 
# 
# From -- ./inp_files/10085.got.cif
#   From: 2010.03.12/outbox.cif.g09.slc.cpg/sg63_6_cif.got.tgz:10085.got - 2010.04.10 19:34:48.
