data_PCOD8256300
_publ_section_title
;
Structure prediction by ZEFSAII (Michael W. Deem and Ramdas Pophale) SiO2 
 PCOD8256300
Probable space group: C M C M
;
_chemical_formula_sum "Si O2"
_cell_formula_units_Z 112
_cell_length_a 28.468973
_cell_length_b 14.465512
_cell_length_c 14.945656
_cell_angle_alpha 90.000000
_cell_angle_beta 90.000000
_cell_angle_gamma 90.000000
_cell_volume 6154.894206
_symmetry_space_group_name_H-M "C M C M"
_symmetry_group_IT_number 63
_symmetry_cell_setting 'orthorhombic'
loop_
_space_group_symop_operation_xyz
x,y,z
-x,-y,1/2+z
x,-y,-z
-x,y,1/2-z
-x,-y,-z
x,y,1/2-z
-x,y,z
x,-y,1/2+z
1/2+x,1/2+y,z
1/2-x,1/2-y,1/2+z
1/2+x,1/2-y,-z
1/2-x,1/2+y,1/2-z
1/2-x,1/2-y,-z
1/2+x,1/2+y,1/2-z
1/2-x,1/2+y,z
1/2+x,1/2-y,1/2+z
loop_
_atom_site_type_symbol
_atom_site_label
_atom_site_fract_x
_atom_site_fract_y
_atom_site_fract_z
Si Si1 0.380338 0.686672 0.851814
Si Si2 0.227139 0.519384 0.855145
Si Si3 0.211387 0.275383 0.356608
Si Si4 0.445542 0.389733 0.999514
Si Si5 0.304839 0.825220 0.644568
Si Si6 0.669742 0.509949 0.600659
Si Si7 0.122145 0.165336 0.150865
O O1 0.398214 0.699172 0.750000
O O2 0.353559 0.778522 0.888607
O O3 0.339901 0.609347 0.856921
O O4 0.424539 0.656978 0.911347
O O5 0.236263 0.525263 0.750000
O O6 0.208841 0.618208 0.890532
O O7 0.192298 0.434527 0.879733
O O8 0.275221 0.491871 0.902476
O O9 0.211135 0.268000 0.250000
O O10 0.257789 0.223883 0.396124
O O11 0.163232 0.229105 0.392461
O O12 0.500000 0.365270 0.997016
O O13 0.422663 0.339363 0.913831
O O14 0.437411 0.500000 0.000000
O O15 0.301781 0.809923 0.750000
O O16 0.649165 0.500000 0.500000
O O17 0.643872 0.436172 0.662659
O O18 0.106375 0.199541 0.250000
#
# Coordination Sequence:
#
# PCOD8256300 Si02
#       7
#    16  16  16  16  16  16  16
#     4  11  20  35  55  76 104 145 180 207 257 313
#     4  10  18  32  48  72 111 147 181 219 247 286
#     4   9  17  28  49  77 105 142 180 210 247 301
#     4  11  24  40  55  79 107 129 169 224 271 317
#     4   9  17  28  49  77 105 142 180 210 247 301
#     4  12  20  30  46  76 112 144 181 213 248 302
#     4  11  20  35  55  76 104 145 180 207 257 313
#
# _framework density 18.196902000000001
#
# number of rings (size 3 to 8) (size 9 to 14) (size 15 to 20)
#    0.000    1.571    5.714    1.286    0.000    0.571 
#    2.571    3.571    0.000    0.000    0.000    2.000 
#    0.000    5.714    0.000    0.000    0.000    0.000 
#
# Total GULP energy -694143.423129 kJ/mol
# GULP energy per Si atom -12395.418270 kJ/mol
# Density = 1.815548 g / cm^3
# Si number density = 18.196902 Si / 1000 Ang^3
#
#
#
# Elastic Constant Matrix: (Units=GPa)
#
#
# Indices 1 2 3 4 5 6 
#
# 1 116.2694 37.8360 31.0450 0.0000 0.0000 0.0000
# 2 37.8360 102.5097 6.9668 0.0000 0.0000 0.0000
# 3 31.0450 6.9668 59.8184 0.0000 0.0000 0.0000
# 4 0.0000 0.0000 0.0000 10.2222 0.0000 0.0000
# 5 0.0000 0.0000 0.0000 0.0000 20.9820 0.0000
# 6 0.0000 0.0000 0.0000 0.0000 0.0000 25.4098
#
#
#
# Elastic Compliance Matrix: (Units=1/GPa)
#
#
# Indices 1 2 3 4 5 6 
#
# 1 0.011281 -0.003796 -0.005413 0.000000 0.000000 0.000000
# 2 -0.003796 0.011110 0.000676 0.000000 0.000000 0.000000
# 3 -0.005413 0.000676 0.019448 0.000000 0.000000 0.000000
# 4 0.000000 0.000000 0.000000 0.097826 0.000000 0.000000
# 5 0.000000 0.000000 0.000000 0.000000 0.047660 0.000000
# 6 0.000000 0.000000 0.000000 0.000000 0.000000 0.039355
#
#
# Mechanical properties :
#
#
# Convention : Reuss Voigt Hill
#
# Bulk Modulus (GPa) = 40.36493 47.81034 44.08764
# Shear Modulus (GPa) = 19.84100 24.83944 22.34022
#
# Velocity S-wave (km/s) = 3.30563 3.69865 3.50765
# Velocity P-wave (km/s) = 6.06630 6.67615 6.37852
#
# Compressibility (1/GPa) = 0.02477398
#
# Stress axis : x y z
#
# Youngs Moduli (GPa) = 88.64273 90.00637 51.42010
#
# Poissons Ratio (x) = 0.34167 0.27832
# Poissons Ratio (y) = 0.33649 -0.03477
# Poissons Ratio (z) = 0.47980 -0.06085
#
# Static dielectric constant tensor:
#      x y z
#    x 3.104840 0.000000 0.000000 
#    y 0.000000 3.497600 0.000000 
#    z 0.000000 0.000000 3.184850 
# 
# 
# High freq. dielectric constant tensor:
#      x y z
#    x 1.666100 0.000000 0.000000 
#    y 0.000000 1.696920 0.000000 
#    z 0.000000 0.000000 1.702580 
# 
# From -- ./inp_files/37956.got.cif
#   From: 2010.03.12/outbox.cif.g09.slc.cpg/sg63_19_cif.got.tgz:37956.got - 2010.04.10 19:34:48.
