data_PCOD8256974
_publ_section_title
;
Structure prediction by ZEFSAII (Michael W. Deem and Ramdas Pophale) SiO2 
 PCOD8256974
Probable space group: C M C M
;
_chemical_formula_sum "Si O2"
_cell_formula_units_Z 104
_cell_length_a 24.145393
_cell_length_b 24.547912
_cell_length_c 8.944701
_cell_angle_alpha 90.000000
_cell_angle_beta 90.000000
_cell_angle_gamma 90.000000
_cell_volume 5301.694076
_symmetry_space_group_name_H-M "C M C M"
_symmetry_group_IT_number 63
_symmetry_cell_setting 'orthorhombic'
loop_
_space_group_symop_operation_xyz
x,y,z
-x,-y,1/2+z
x,-y,-z
-x,y,1/2-z
-x,-y,-z
x,y,1/2-z
-x,y,z
x,-y,1/2+z
1/2+x,1/2+y,z
1/2-x,1/2-y,1/2+z
1/2+x,1/2-y,-z
1/2-x,1/2+y,1/2-z
1/2-x,1/2-y,-z
1/2+x,1/2+y,1/2-z
1/2-x,1/2+y,z
1/2+x,1/2-y,1/2+z
loop_
_atom_site_type_symbol
_atom_site_label
_atom_site_fract_x
_atom_site_fract_y
_atom_site_fract_z
Si Si1 0.608299 0.374806 0.572598
Si Si2 0.500000 0.558785 0.073694
Si Si3 0.437181 0.739403 0.078868
Si Si4 0.883536 0.664648 0.423891
Si Si5 0.779603 0.703810 0.915170
Si Si6 0.719571 0.405827 0.416230
Si Si7 0.670373 0.054906 0.072132
O O1 0.615951 0.376268 0.750000
O O2 0.554225 0.408099 0.521725
O O3 0.601096 0.311121 0.520193
O O4 0.660616 0.405545 0.499302
O O5 0.500000 0.551154 0.250000
O O6 0.500000 0.500000 0.000000
O O7 0.423158 0.750355 0.250000
O O8 0.500000 0.719862 0.056940
O O9 0.430769 0.798525 0.999819
O O10 0.895052 0.667039 0.250000
O O11 0.827105 0.692661 0.467687
O O12 0.874711 0.601471 0.475034
O O13 0.802272 0.720663 0.750000
O O14 0.736549 0.655961 0.895980
O O15 0.750000 0.750000 0.000000
O O16 0.713809 0.432557 0.250000
O O17 0.767529 0.436376 0.508884
O O18 0.674886 0.050832 0.250000
O O19 0.646114 0.000000 0.000000
#
# Coordination Sequence:
#
# PCOD8256974 Si02
#       7
#    16   8  16  16  16  16  16
#     4  10  20  37  57  78 109 147 188 234 284 330
#     4  10  22  40  58  76 102 140 187 234 277 324
#     4  10  20  36  59  84 111 148 192 236 286 342
#     4  10  21  35  53  81 113 144 180 226 283 341
#     4  10  19  31  48  73 107 143 177 218 267 326
#     4  10  21  34  51  78 109 140 180 223 268 325
#     4  10  21  38  59  82 111 147 185 226 278 337
#
# _framework density 19.616371999999998
#
# number of rings (size 3 to 8) (size 9 to 14) (size 15 to 20)
#    0.000    2.000    0.769    2.769    0.000    8.308 
#    0.000    1.538    0.000    0.462    0.000    0.000 
#    0.000    0.000    0.000    0.000    0.000    0.000 
#
# Total GULP energy -644232.455252 kJ/mol
# GULP energy per Si atom -12389.085678 kJ/mol
# Density = 1.957172 g / cm^3
# Si number density = 19.616372 Si / 1000 Ang^3
#
#
#
# Elastic Constant Matrix: (Units=GPa)
#
#
# Indices 1 2 3 4 5 6 
#
# 1 44.9090 10.8672 12.0449 0.0000 0.0000 0.0000
# 2 10.8672 110.5008 40.0773 0.0000 0.0000 0.0000
# 3 12.0449 40.0773 55.8827 0.0000 0.0000 0.0000
# 4 0.0000 0.0000 0.0000 32.1888 0.0000 0.0000
# 5 0.0000 0.0000 0.0000 0.0000 28.1820 0.0000
# 6 0.0000 0.0000 0.0000 0.0000 0.0000 -22.4159
#
#
#
# Elastic Compliance Matrix: (Units=1/GPa)
#
#
# Indices 1 2 3 4 5 6 
#
# 1 0.023668 -0.000645 -0.004639 0.000000 0.000000 0.000000
# 2 -0.000645 0.012249 -0.008645 0.000000 0.000000 0.000000
# 3 -0.004639 -0.008645 0.025095 0.000000 0.000000 0.000000
# 4 0.000000 0.000000 0.000000 0.031067 0.000000 0.000000
# 5 0.000000 0.000000 0.000000 0.000000 0.035484 0.000000
# 6 0.000000 0.000000 0.000000 0.000000 0.000000 -0.044611
#
#
# Mechanical properties :
#
#
# Convention : Reuss Voigt Hill
#
# Bulk Modulus (GPa) = 30.16356 37.47460 33.81908
# Shear Modulus (GPa) = 41.03105 17.47785 29.25445
#
# Velocity S-wave (km/s) = 4.57844 2.98817 3.86596
# Velocity P-wave (km/s) = 6.58480 5.57232 6.09961
#
# Compressibility (1/GPa) = 0.03315259
#
# Stress axis : x y z
#
# Youngs Moduli (GPa) = 42.25202 81.64124 39.84931
#
# Poissons Ratio (x) = 0.05268 0.18484
# Poissons Ratio (y) = 0.02726 0.34451
# Poissons Ratio (z) = 0.19599 0.70581
#
# Static dielectric constant tensor:
#      x y z
#    x 3.443430 0.000000 0.000000 
#    y 0.000000 3.809490 0.000000 
#    z 0.000000 0.000000 3.493960 
# 
# 
# High freq. dielectric constant tensor:
#      x y z
#    x 1.747530 0.000000 0.000000 
#    y 0.000000 1.769180 0.000000 
#    z 0.000000 0.000000 1.764930 
# 
# From -- ./inp_files/10846.got.cif
#   From: 2010.03.12/outbox.cif.g09.slc.cpg/sg63_6_cif.got.tgz:10846.got - 2010.04.10 19:34:48.
