data_PCOD8256991
_publ_section_title
;
Structure prediction by ZEFSAII (Michael W. Deem and Ramdas Pophale) SiO2 
 PCOD8256991
Probable space group: C M C M
;
_chemical_formula_sum "Si O2"
_cell_formula_units_Z 96
_cell_length_a 17.246230
_cell_length_b 18.698877
_cell_length_c 17.670780
_cell_angle_alpha 90.000000
_cell_angle_beta 90.000000
_cell_angle_gamma 90.000000
_cell_volume 5698.563847
_symmetry_space_group_name_H-M "C M C M"
_symmetry_group_IT_number 63
_symmetry_cell_setting 'orthorhombic'
loop_
_space_group_symop_operation_xyz
x,y,z
-x,-y,1/2+z
x,-y,-z
-x,y,1/2-z
-x,-y,-z
x,y,1/2-z
-x,y,z
x,-y,1/2+z
1/2+x,1/2+y,z
1/2-x,1/2-y,1/2+z
1/2+x,1/2-y,-z
1/2-x,1/2+y,1/2-z
1/2-x,1/2-y,-z
1/2+x,1/2+y,1/2-z
1/2-x,1/2+y,z
1/2+x,1/2-y,1/2+z
loop_
_atom_site_type_symbol
_atom_site_label
_atom_site_fract_x
_atom_site_fract_y
_atom_site_fract_z
Si Si1 0.787109 0.468827 0.336107
Si Si2 0.411140 0.084205 0.160660
Si Si3 0.772628 0.844775 0.062301
Si Si4 0.086797 0.917590 0.515469
Si Si5 0.294829 0.811840 0.597677
Si Si6 0.668251 0.407403 0.665627
O O1 0.800101 0.444003 0.250000
O O2 0.861390 0.514655 0.364708
O O3 0.776741 0.398922 0.386783
O O4 0.710199 0.516453 0.343713
O O5 0.402789 0.095300 0.250000
O O6 0.500000 0.072733 0.135906
O O7 0.378359 0.155632 0.120274
O O8 0.791291 0.773293 0.109606
O O9 0.855695 0.874561 0.037885
O O10 0.719564 0.830167 0.989841
O O11 0.100151 0.901518 0.604344
O O12 0.000000 0.893475 0.494920
O O13 0.100676 0.000000 0.500000
O O14 0.230484 0.845043 0.652716
O O15 0.633188 0.399450 0.750000
#
# Coordination Sequence:
#
# PCOD8256991 Si02
#       6
#    16  16  16  16  16  16
#     4   9  17  30  50  71  94 127 166 206 248 296
#     4   9  18  33  52  75 102 131 162 202 255 305
#     4  10  19  33  49  73 100 131 166 209 247 293
#     4  10  19  31  49  71  98 132 163 202 253 294
#     4   9  19  31  50  73  99 130 166 203 247 299
#     4   9  17  31  50  72  95 126 168 206 240 294
#
# _framework density 16.846349
#
# number of rings (size 3 to 8) (size 9 to 14) (size 15 to 20)
#    0.000    2.667    1.667    1.500    0.000    2.333 
#    0.000    1.667    0.000    4.500    0.000    7.000 
#    0.000    0.000    0.000    0.000    0.000    0.000 
#
# Total GULP energy -595140.595978 kJ/mol
# GULP energy per Si atom -12398.762416 kJ/mol
# Density = 1.680801 g / cm^3
# Si number density = 16.846349 Si / 1000 Ang^3
#
#
#
# Elastic Constant Matrix: (Units=GPa)
#
#
# Indices 1 2 3 4 5 6 
#
# 1 75.7195 50.0931 28.6536 0.0000 0.0000 0.0000
# 2 50.0931 117.5255 39.7900 0.0000 0.0000 0.0000
# 3 28.6536 39.7900 59.0584 0.0000 0.0000 0.0000
# 4 0.0000 0.0000 0.0000 22.1561 0.0000 0.0000
# 5 0.0000 0.0000 0.0000 0.0000 17.8706 0.0000
# 6 0.0000 0.0000 0.0000 0.0000 0.0000 14.9605
#
#
#
# Elastic Compliance Matrix: (Units=1/GPa)
#
#
# Indices 1 2 3 4 5 6 
#
# 1 0.019467 -0.006607 -0.004994 0.000000 0.000000 0.000000
# 2 -0.006607 0.013266 -0.005732 0.000000 0.000000 0.000000
# 3 -0.004994 -0.005732 0.023217 0.000000 0.000000 0.000000
# 4 0.000000 0.000000 0.000000 0.045134 0.000000 0.000000
# 5 0.000000 0.000000 0.000000 0.000000 0.055958 0.000000
# 6 0.000000 0.000000 0.000000 0.000000 0.000000 0.066843
#
#
# Mechanical properties :
#
#
# Convention : Reuss Voigt Hill
#
# Bulk Modulus (GPa) = 46.98216 54.37521 50.67868
# Shear Modulus (GPa) = 18.82215 19.91522 19.36869
#
# Velocity S-wave (km/s) = 3.34621 3.44200 3.39444
# Velocity P-wave (km/s) = 6.54818 6.93856 6.74620
#
# Compressibility (1/GPa) = 0.02128467
#
# Stress axis : x y z
#
# Youngs Moduli (GPa) = 51.36855 75.38340 43.07173
#
# Poissons Ratio (x) = 0.49805 0.21508
# Poissons Ratio (y) = 0.33938 0.24689
# Poissons Ratio (z) = 0.25652 0.43210
#
# Static dielectric constant tensor:
#      x y z
#    x 3.061850 0.000000 0.000000 
#    y 0.000000 3.196150 0.000000 
#    z 0.000000 0.000000 3.168500 
# 
# 
# High freq. dielectric constant tensor:
#      x y z
#    x 1.633940 0.000000 0.000000 
#    y 0.000000 1.643080 0.000000 
#    z 0.000000 0.000000 1.649330 
# 
# From -- ./inp_files/45722.got.cif
#   From: 2010.03.12/outbox.cif.g09.slc.cpg/sg63_23_cif.got.tgz:45722.got - 2010.04.10 19:34:48.
