data_PCOD8256017
_publ_section_title
;
Structure prediction by ZEFSAII (Michael W. Deem and Ramdas Pophale) SiO2 
 PCOD8256017
Probable space group: C M C M
;
_chemical_formula_sum "Si O2"
_cell_formula_units_Z 80
_cell_length_a 17.628409
_cell_length_b 20.833321
_cell_length_c 12.326992
_cell_angle_alpha 90.000000
_cell_angle_beta 90.000000
_cell_angle_gamma 90.000000
_cell_volume 4527.190168
_symmetry_space_group_name_H-M "C M C M"
_symmetry_group_IT_number 63
_symmetry_cell_setting 'orthorhombic'
loop_
_space_group_symop_operation_xyz
x,y,z
-x,-y,1/2+z
x,-y,-z
-x,y,1/2-z
-x,-y,-z
x,y,1/2-z
-x,y,z
x,-y,1/2+z
1/2+x,1/2+y,z
1/2-x,1/2-y,1/2+z
1/2+x,1/2-y,-z
1/2-x,1/2+y,1/2-z
1/2-x,1/2-y,-z
1/2+x,1/2+y,1/2-z
1/2-x,1/2+y,z
1/2+x,1/2-y,1/2+z
loop_
_atom_site_type_symbol
_atom_site_label
_atom_site_fract_x
_atom_site_fract_y
_atom_site_fract_z
Si Si1 0.148215 0.457331 0.621997
Si Si2 0.207479 0.345844 0.508808
Si Si3 0.000000 0.617589 0.379277
Si Si4 0.165644 0.217165 0.622594
Si Si5 0.000000 0.760070 0.122591
Si Si6 0.087373 0.405598 0.121489
O O1 0.156571 0.456422 0.750000
O O2 0.216933 0.415032 0.570654
O O3 0.135667 0.530691 0.583308
O O4 0.075428 0.417363 0.578060
O O5 0.190394 0.289936 0.595623
O O6 0.285598 0.333494 0.445494
O O7 0.138161 0.346496 0.421100
O O8 0.000000 0.612511 0.250000
O O9 0.000000 0.688887 0.427427
O O10 0.178411 0.205869 0.750000
O O11 0.077560 0.203834 0.588839
O O12 0.000000 0.749422 0.250000
O O13 0.082004 0.404509 0.250000
O O14 0.000000 0.404003 0.076434
#
# Coordination Sequence:
#
# PCOD8256017 Si02
#       6
#    16  16   8  16   8  16
#     4  10  18  30  48  73 102 136 170 198 234 287
#     4  11  21  30  48  72  97 132 164 208 250 297
#     4   9  14  24  44  68  96 125 165 204 226 266
#     4  10  21  35  49  69  94 126 171 220 257 285
#     4   9  16  30  51  67  86 122 167 214 250 277
#     4  10  21  33  46  71 110 145 166 193 237 296
#
# _framework density 17.671005000000001
#
# number of rings (size 3 to 8) (size 9 to 14) (size 15 to 20)
#    0.000    2.000    3.000    1.800    2.800    0.800 
#    0.000    0.000    0.000    0.000    0.000    2.800 
#    0.000    3.200    0.000    0.000    0.000    0.000 
#
# Total GULP energy -495788.882022 kJ/mol
# GULP energy per Si atom -12394.722051 kJ/mol
# Density = 1.763078 g / cm^3
# Si number density = 17.671005 Si / 1000 Ang^3
#
#
#
# Elastic Constant Matrix: (Units=GPa)
#
#
# Indices 1 2 3 4 5 6 
#
# 1 112.8877 45.7832 45.9928 0.0000 0.0000 0.0000
# 2 45.7832 65.8670 26.8426 0.0000 0.0000 0.0000
# 3 45.9928 26.8426 58.5387 0.0000 0.0000 0.0000
# 4 0.0000 0.0000 0.0000 27.7922 0.0000 0.0000
# 5 0.0000 0.0000 0.0000 0.0000 30.1045 0.0000
# 6 0.0000 0.0000 0.0000 0.0000 0.0000 29.0749
#
#
#
# Elastic Compliance Matrix: (Units=1/GPa)
#
#
# Indices 1 2 3 4 5 6 
#
# 1 0.015298 -0.007053 -0.008785 0.000000 0.000000 0.000000
# 2 -0.007053 0.021923 -0.004511 0.000000 0.000000 0.000000
# 3 -0.008785 -0.004511 0.026054 0.000000 0.000000 0.000000
# 4 0.000000 0.000000 0.000000 0.035981 0.000000 0.000000
# 5 0.000000 0.000000 0.000000 0.000000 0.033218 0.000000
# 6 0.000000 0.000000 0.000000 0.000000 0.000000 0.034394
#
#
# Mechanical properties :
#
#
# Convention : Reuss Voigt Hill
#
# Bulk Modulus (GPa) = 44.29540 52.72565 48.51053
# Shear Modulus (GPa) = 23.24580 25.30599 24.27590
#
# Velocity S-wave (km/s) = 3.63089 3.78837 3.71046
# Velocity P-wave (km/s) = 6.53444 7.00270 6.77262
#
# Compressibility (1/GPa) = 0.02257571
#
# Stress axis : x y z
#
# Youngs Moduli (GPa) = 65.36690 45.61380 38.38223
#
# Poissons Ratio (x) = 0.32173 0.33720
# Poissons Ratio (y) = 0.46106 0.17315
# Poissons Ratio (z) = 0.57427 0.20577
#
# Static dielectric constant tensor:
#      x y z
#    x 3.341920 0.000000 0.000000 
#    y 0.000000 3.133210 0.000000 
#    z 0.000000 0.000000 3.512550 
# 
# 
# High freq. dielectric constant tensor:
#      x y z
#    x 1.654750 0.000000 0.000000 
#    y 0.000000 1.653180 0.000000 
#    z 0.000000 0.000000 1.724130 
# 
# From -- ./inp_files/33888.got.cif
#   From: 2010.03.12/outbox.cif.g09.slc.cpg/sg63_17_cif.got.tgz:33888.got - 2010.04.10 19:34:48.
