data_PCOD8256652
_publ_section_title
;
Structure prediction by ZEFSAII (Michael W. Deem and Ramdas Pophale) SiO2 
 PCOD8256652
Probable space group: C M C M
;
_chemical_formula_sum "Si O2"
_cell_formula_units_Z 96
_cell_length_a 9.362681
_cell_length_b 27.034588
_cell_length_c 23.696452
_cell_angle_alpha 90.000000
_cell_angle_beta 90.000000
_cell_angle_gamma 90.000000
_cell_volume 5997.956438
_symmetry_space_group_name_H-M "C M C M"
_symmetry_group_IT_number 63
_symmetry_cell_setting 'orthorhombic'
loop_
_space_group_symop_operation_xyz
x,y,z
-x,-y,1/2+z
x,-y,-z
-x,y,1/2-z
-x,-y,-z
x,y,1/2-z
-x,y,z
x,-y,1/2+z
1/2+x,1/2+y,z
1/2-x,1/2-y,1/2+z
1/2+x,1/2-y,-z
1/2-x,1/2+y,1/2-z
1/2-x,1/2-y,-z
1/2+x,1/2+y,1/2-z
1/2-x,1/2+y,z
1/2+x,1/2-y,1/2+z
loop_
_atom_site_type_symbol
_atom_site_label
_atom_site_fract_x
_atom_site_fract_y
_atom_site_fract_z
Si Si1 0.330249 0.674372 0.687762
Si Si2 0.165139 0.421198 0.980614
Si Si3 0.835891 0.482687 0.088947
Si Si4 0.165886 0.063435 0.685532
Si Si5 0.833880 0.762527 0.083586
Si Si6 0.333953 0.322029 0.971030
O O1 0.278205 0.691770 0.750000
O O2 0.500000 0.672331 0.686174
O O3 0.273974 0.618967 0.675378
O O4 0.274039 0.712406 0.640754
O O5 0.189430 0.461636 0.932036
O O6 0.266244 0.375772 0.966224
O O7 0.000000 0.404300 0.982210
O O8 0.211164 0.444077 0.040614
O O9 0.745657 0.474805 0.145246
O O10 0.000000 0.474154 0.104003
O O11 0.193186 0.047335 0.750000
O O12 0.000000 0.061138 0.670497
O O13 0.742573 0.713302 0.074227
O O14 0.000000 0.747864 0.088236
O O15 0.808690 0.801580 0.033710
O O16 0.500000 0.325067 0.955655
#
# Coordination Sequence:
#
# PCOD8256652 Si02
#       6
#    16  16  16  16  16  16
#     4   8  14  26  45  67  89 115 147 179 213 259
#     4   9  18  32  47  65  91 120 148 183 227 266
#     4   9  18  31  47  67  91 119 150 184 222 265
#     4   9  17  29  46  69  96 122 147 180 222 264
#     4   9  17  29  45  65  90 118 146 180 220 260
#     4  10  19  29  44  67  91 117 149 182 219 265
#
# _framework density 16.005451999999998
#
# number of rings (size 3 to 8) (size 9 to 14) (size 15 to 20)
#    0.000    3.000    0.000    3.500    0.000    3.667 
#    0.000    2.500    0.000    2.500    0.000    2.333 
#    0.000    0.000    0.000    0.000    0.000    0.000 
#
# Total GULP energy -595132.704460 kJ/mol
# GULP energy per Si atom -12398.598010 kJ/mol
# Density = 1.596902 g / cm^3
# Si number density = 16.005452 Si / 1000 Ang^3
#
#
#
# Elastic Constant Matrix: (Units=GPa)
#
#
# Indices 1 2 3 4 5 6 
#
# 1 66.8505 52.5106 46.9404 0.0000 0.0000 0.0000
# 2 52.5106 95.5122 49.9121 0.0000 0.0000 0.0000
# 3 46.9404 49.9121 102.9112 0.0000 0.0000 0.0000
# 4 0.0000 0.0000 0.0000 26.4012 0.0000 0.0000
# 5 0.0000 0.0000 0.0000 0.0000 23.8237 0.0000
# 6 0.0000 0.0000 0.0000 0.0000 0.0000 25.2944
#
#
#
# Elastic Compliance Matrix: (Units=1/GPa)
#
#
# Indices 1 2 3 4 5 6 
#
# 1 0.030274 -0.012628 -0.007684 0.000000 0.000000 0.000000
# 2 -0.012628 0.019292 -0.003597 0.000000 0.000000 0.000000
# 3 -0.007684 -0.003597 0.014966 0.000000 0.000000 0.000000
# 4 0.000000 0.000000 0.000000 0.037877 0.000000 0.000000
# 5 0.000000 0.000000 0.000000 0.000000 0.041975 0.000000
# 6 0.000000 0.000000 0.000000 0.000000 0.000000 0.039534
#
#
# Mechanical properties :
#
#
# Convention : Reuss Voigt Hill
#
# Bulk Modulus (GPa) = 59.82848 62.66667 61.24757
# Shear Modulus (GPa) = 21.06970 22.83125 21.95047
#
# Velocity S-wave (km/s) = 3.63217 3.78096 3.70731
# Velocity P-wave (km/s) = 7.41966 7.63539 7.52830
#
# Compressibility (1/GPa) = 0.01671445
#
# Stress axis : x y z
#
# Youngs Moduli (GPa) = 33.03208 51.83446 66.81720
#
# Poissons Ratio (x) = 0.65459 0.51341
# Poissons Ratio (y) = 0.41714 0.24031
# Poissons Ratio (z) = 0.25381 0.18643
#
# Static dielectric constant tensor:
#      x y z
#    x 2.859300 0.000000 0.000000 
#    y 0.000000 2.919450 0.000000 
#    z 0.000000 0.000000 3.099530 
# 
# 
# High freq. dielectric constant tensor:
#      x y z
#    x 1.601850 0.000000 0.000000 
#    y 0.000000 1.605180 0.000000 
#    z 0.000000 0.000000 1.608050 
# 
# From -- ./inp_files/59892.got.cif
#   From: 2010.03.12/outbox.cif.g09.slc.cpg/sg63_30_cif.got.tgz:59892.got - 2010.04.10 19:34:48.
