data_PCOD8256880
_publ_section_title
;
Structure prediction by ZEFSAII (Michael W. Deem and Ramdas Pophale) SiO2 
 PCOD8256880
Probable space group: C M C M
;
_chemical_formula_sum "Si O2"
_cell_formula_units_Z 96
_cell_length_a 28.767724
_cell_length_b 26.532907
_cell_length_c 8.924318
_cell_angle_alpha 90.000000
_cell_angle_beta 90.000000
_cell_angle_gamma 90.000000
_cell_volume 6811.854694
_symmetry_space_group_name_H-M "C M C M"
_symmetry_group_IT_number 63
_symmetry_cell_setting 'orthorhombic'
loop_
_space_group_symop_operation_xyz
x,y,z
-x,-y,1/2+z
x,-y,-z
-x,y,1/2-z
-x,-y,-z
x,y,1/2-z
-x,y,z
x,-y,1/2+z
1/2+x,1/2+y,z
1/2-x,1/2-y,1/2+z
1/2+x,1/2-y,-z
1/2-x,1/2+y,1/2-z
1/2-x,1/2-y,-z
1/2+x,1/2+y,1/2-z
1/2-x,1/2+y,z
1/2+x,1/2-y,1/2+z
loop_
_atom_site_type_symbol
_atom_site_label
_atom_site_fract_x
_atom_site_fract_y
_atom_site_fract_z
Si Si1 0.227982 0.798352 0.574832
Si Si2 0.948704 0.285094 0.926474
Si Si3 0.144535 0.447205 0.928803
Si Si4 0.550693 0.898570 0.927726
Si Si5 0.801891 0.356602 0.072397
Si Si6 0.859906 0.741741 0.921830
O O1 0.240756 0.800325 0.750000
O O2 0.250000 0.750000 0.500000
O O3 0.249350 0.846924 0.490018
O O4 0.172263 0.791442 0.552773
O O5 0.944182 0.284482 0.750000
O O6 0.941665 0.341917 0.988636
O O7 0.000000 0.265354 0.974854
O O8 0.908233 0.249792 0.991676
O O9 0.147897 0.449393 0.750000
O O10 0.092197 0.434081 0.985635
O O11 0.159092 0.500000 0.000000
O O12 0.179962 0.406155 0.991064
O O13 0.551240 0.896587 0.750000
O O14 0.500000 0.918799 0.983359
O O15 0.800288 0.364454 0.250000
O O16 0.833779 0.309173 0.023852
O O17 0.872672 0.735144 0.750000
#
# Coordination Sequence:
#
# PCOD8256880 Si02
#       6
#    16  16  16  16  16  16
#     4   9  17  28  42  62  83 103 127 158 199 243
#     4   9  16  26  41  59  78 104 137 167 199 242
#     4  11  21  32  46  60  77 103 132 170 214 255
#     4   8  15  28  43  57  73  97 131 170 212 253
#     4  10  19  31  44  60  80 101 130 167 204 248
#     4   9  17  27  41  61  83 102 126 162 200 240
#
# _framework density 14.093078
#
# number of rings (size 3 to 8) (size 9 to 14) (size 15 to 20)
#    0.000    2.667    1.667    3.500    0.000    4.000 
#    0.000    0.000    0.000    1.500    0.000    0.000 
#    0.000    0.000    0.000    0.000    0.000    0.833 
#
# Total GULP energy -594802.482129 kJ/mol
# GULP energy per Si atom -12391.718378 kJ/mol
# Density = 1.406100 g / cm^3
# Si number density = 14.093078 Si / 1000 Ang^3
#
#
#
# Elastic Constant Matrix: (Units=GPa)
#
#
# Indices 1 2 3 4 5 6 
#
# 1 102.3725 52.9928 43.0094 0.0000 0.0000 0.0000
# 2 52.9928 56.9441 26.9860 0.0000 0.0000 0.0000
# 3 43.0094 26.9860 56.1961 0.0000 0.0000 0.0000
# 4 0.0000 0.0000 0.0000 17.9780 0.0000 0.0000
# 5 0.0000 0.0000 0.0000 0.0000 23.1646 0.0000
# 6 0.0000 0.0000 0.0000 0.0000 0.0000 18.5164
#
#
#
# Elastic Compliance Matrix: (Units=1/GPa)
#
#
# Indices 1 2 3 4 5 6 
#
# 1 0.021892 -0.016096 -0.009026 0.000000 0.000000 0.000000
# 2 -0.016096 0.034569 -0.004282 0.000000 0.000000 0.000000
# 3 -0.009026 -0.004282 0.026759 0.000000 0.000000 0.000000
# 4 0.000000 0.000000 0.000000 0.055624 0.000000 0.000000
# 5 0.000000 0.000000 0.000000 0.000000 0.043169 0.000000
# 6 0.000000 0.000000 0.000000 0.000000 0.000000 0.054006
#
#
# Mechanical properties :
#
#
# Convention : Reuss Voigt Hill
#
# Bulk Modulus (GPa) = 40.96056 51.27656 46.11856
# Shear Modulus (GPa) = 16.50369 18.10012 17.30190
#
# Velocity S-wave (km/s) = 3.42577 3.58764 3.50764
# Velocity P-wave (km/s) = 6.69143 7.32289 7.01427
#
# Compressibility (1/GPa) = 0.02441373
#
# Stress axis : x y z
#
# Youngs Moduli (GPa) = 45.67866 28.92764 37.37111
#
# Poissons Ratio (x) = 0.46561 0.33730
# Poissons Ratio (y) = 0.73523 0.16001
# Poissons Ratio (z) = 0.41228 0.12386
#
# Static dielectric constant tensor:
#      x y z
#    x 3.093560 0.000000 0.000000 
#    y 0.000000 2.523800 0.000000 
#    z 0.000000 0.000000 2.723490 
# 
# 
# High freq. dielectric constant tensor:
#      x y z
#    x 1.535620 0.000000 0.000000 
#    y 0.000000 1.485140 0.000000 
#    z 0.000000 0.000000 1.539590 
# 
# From -- ./inp_files/12759.got.cif
#   From: 2010.03.12/outbox.cif.g09.slc.cpg/sg63_7_cif.got.tgz:12759.got - 2010.04.10 19:34:48.
