data_PCOD8256915
_publ_section_title
;
Structure prediction by ZEFSAII (Michael W. Deem and Ramdas Pophale) SiO2 
 PCOD8256915
Probable space group: C M C M
;
_chemical_formula_sum "Si O2"
_cell_formula_units_Z 96
_cell_length_a 9.883138
_cell_length_b 29.647327
_cell_length_c 20.086463
_cell_angle_alpha 90.000000
_cell_angle_beta 90.000000
_cell_angle_gamma 90.000000
_cell_volume 5885.506886
_symmetry_space_group_name_H-M "C M C M"
_symmetry_group_IT_number 63
_symmetry_cell_setting 'orthorhombic'
loop_
_space_group_symop_operation_xyz
x,y,z
-x,-y,1/2+z
x,-y,-z
-x,y,1/2-z
-x,-y,-z
x,y,1/2-z
-x,y,z
x,-y,1/2+z
1/2+x,1/2+y,z
1/2-x,1/2-y,1/2+z
1/2+x,1/2-y,-z
1/2-x,1/2+y,1/2-z
1/2-x,1/2-y,-z
1/2+x,1/2+y,1/2-z
1/2-x,1/2+y,z
1/2+x,1/2-y,1/2+z
loop_
_atom_site_type_symbol
_atom_site_label
_atom_site_fract_x
_atom_site_fract_y
_atom_site_fract_z
Si Si1 0.845932 0.448079 0.173752
Si Si2 0.657577 0.621742 0.608816
Si Si3 0.649591 0.295520 0.569462
Si Si4 0.842417 0.104662 0.043786
Si Si5 0.656888 0.023772 0.430794
Si Si6 0.850303 0.221812 0.913092
O O1 0.829507 0.462888 0.250000
O O2 0.748767 0.406012 0.159797
O O3 0.804284 0.490553 0.129039
O O4 0.000000 0.433471 0.157536
O O5 0.500000 0.613148 0.624120
O O6 0.692933 0.606455 0.534181
O O7 0.694135 0.674409 0.619545
O O8 0.500000 0.287941 0.599213
O O9 0.693038 0.347569 0.578456
O O10 0.750293 0.262089 0.608687
O O11 0.648348 0.284180 0.491924
O O12 0.749114 0.067682 0.078926
O O13 0.000000 0.092727 0.054029
O O14 0.500000 0.038240 0.428759
O O15 0.693493 0.000000 0.500000
O O16 0.000000 0.235136 0.888288
#
# Coordination Sequence:
#
# PCOD8256915 Si02
#       6
#    16  16  16  16  16  16
#     4  10  21  35  48  65  92 122 153 193 237 279
#     4   9  17  29  45  66  92 121 153 188 226 272
#     4   8  14  24  37  59  90 119 147 179 217 263
#     4   9  17  28  44  67  94 122 152 188 232 275
#     4  10  19  31  47  68  90 117 157 197 233 279
#     4   8  14  24  38  59  88 119 147 177 216 260
#
# _framework density 16.311254000000002
#
# number of rings (size 3 to 8) (size 9 to 14) (size 15 to 20)
#    0.000    3.000    1.667    2.000    0.000    2.667 
#    0.000    3.333    0.000    0.000    0.000    1.167 
#    0.000    4.000    0.000    0.000    0.000    0.000 
#
# Total GULP energy -595062.473003 kJ/mol
# GULP energy per Si atom -12397.134854 kJ/mol
# Density = 1.627413 g / cm^3
# Si number density = 16.311254 Si / 1000 Ang^3
#
#
#
# Elastic Constant Matrix: (Units=GPa)
#
#
# Indices 1 2 3 4 5 6 
#
# 1 89.2211 85.9286 30.7916 0.0000 0.0000 0.0000
# 2 85.9286 138.5315 39.2252 0.0000 0.0000 0.0000
# 3 30.7916 39.2252 52.6778 0.0000 0.0000 0.0000
# 4 0.0000 0.0000 0.0000 15.1215 0.0000 0.0000
# 5 0.0000 0.0000 0.0000 0.0000 15.0559 0.0000
# 6 0.0000 0.0000 0.0000 0.0000 0.0000 39.5400
#
#
#
# Elastic Compliance Matrix: (Units=1/GPa)
#
#
# Indices 1 2 3 4 5 6 
#
# 1 0.028639 -0.016504 -0.004451 0.000000 0.000000 0.000000
# 2 -0.016504 0.018658 -0.004246 0.000000 0.000000 0.000000
# 3 -0.004451 -0.004246 0.024747 0.000000 0.000000 0.000000
# 4 0.000000 0.000000 0.000000 0.066131 0.000000 0.000000
# 5 0.000000 0.000000 0.000000 0.000000 0.066419 0.000000
# 6 0.000000 0.000000 0.000000 0.000000 0.000000 0.025291
#
#
# Mechanical properties :
#
#
# Convention : Reuss Voigt Hill
#
# Bulk Modulus (GPa) = 46.20732 65.81347 56.01040
# Shear Modulus (GPa) = 17.39120 22.24249 19.81684
#
# Velocity S-wave (km/s) = 3.26883 3.69674 3.48935
# Velocity P-wave (km/s) = 6.52970 7.65880 7.11668
#
# Compressibility (1/GPa) = 0.02164159
#
# Stress axis : x y z
#
# Youngs Moduli (GPa) = 34.91701 53.59593 40.40908
#
# Poissons Ratio (x) = 0.88456 0.17986
# Poissons Ratio (y) = 0.57628 0.17159
# Poissons Ratio (z) = 0.15542 0.22758
#
# Static dielectric constant tensor:
#      x y z
#    x 3.250200 0.000000 0.000000 
#    y 0.000000 3.175020 0.000000 
#    z 0.000000 0.000000 2.619170 
# 
# 
# High freq. dielectric constant tensor:
#      x y z
#    x 1.632760 0.000000 0.000000 
#    y 0.000000 1.632130 0.000000 
#    z 0.000000 0.000000 1.571540 
# 
# From -- ./inp_files/52849.got.cif
#   From: 2010.03.12/outbox.cif.g09.slc.cpg/sg63_27_cif.got.tgz:52849.got - 2010.04.10 19:34:48.
