data_PCOD8256075
_publ_section_title
;
Structure prediction by ZEFSAII (Michael W. Deem and Ramdas Pophale) SiO2 
 PCOD8256075
Probable space group: C M C M
;
_chemical_formula_sum "Si O2"
_cell_formula_units_Z 96
_cell_length_a 8.609815
_cell_length_b 30.350028
_cell_length_c 19.205640
_cell_angle_alpha 90.000000
_cell_angle_beta 90.000000
_cell_angle_gamma 90.000000
_cell_volume 5018.589803
_symmetry_space_group_name_H-M "C M C M"
_symmetry_group_IT_number 63
_symmetry_cell_setting 'orthorhombic'
loop_
_space_group_symop_operation_xyz
x,y,z
-x,-y,1/2+z
x,-y,-z
-x,y,1/2-z
-x,-y,-z
x,y,1/2-z
-x,y,z
x,-y,1/2+z
1/2+x,1/2+y,z
1/2-x,1/2-y,1/2+z
1/2+x,1/2-y,-z
1/2-x,1/2+y,1/2-z
1/2-x,1/2-y,-z
1/2+x,1/2+y,1/2-z
1/2-x,1/2+y,z
1/2+x,1/2-y,1/2+z
loop_
_atom_site_type_symbol
_atom_site_label
_atom_site_fract_x
_atom_site_fract_y
_atom_site_fract_z
Si Si1 0.815748 0.527893 0.094018
Si Si2 0.314805 0.109175 0.326090
Si Si3 0.315272 0.161375 0.572668
Si Si4 0.684247 0.936414 0.052457
Si Si5 0.815310 0.687220 0.079292
Si Si6 0.315736 0.268524 0.170470
O O1 0.758003 0.559406 0.156280
O O2 0.761389 0.476771 0.103522
O O3 0.000000 0.527466 0.089029
O O4 0.752107 0.550085 0.023314
O O5 0.250217 0.121476 0.250000
O O6 0.500000 0.111009 0.326756
O O7 0.249306 0.144046 0.381595
O O8 0.500000 0.162534 0.577600
O O9 0.249560 0.111166 0.575191
O O10 0.258780 0.185246 0.500960
O O11 0.244125 0.185551 0.639384
O O12 0.500000 0.931842 0.050633
O O13 0.749722 0.729726 0.120505
O O14 0.000000 0.687259 0.081827
O O15 0.254943 0.262805 0.250000
O O16 0.500000 0.268063 0.170337
#
# Coordination Sequence:
#
# PCOD8256075 Si02
#       6
#    16  16  16  16  16  16
#     4   8  12  20  34  56  88 123 150 173 216 275
#     4   9  14  20  34  58  89 121 150 183 226 275
#     4  10  18  30  50  73  93 118 154 193 229 270
#     4   8  13  22  38  60  88 119 148 180 220 266
#     4   9  16  28  45  66  89 115 151 192 233 274
#     4  10  21  35  48  64  91 125 156 190 234 277
#
# _framework density 19.128879999999999
#
# number of rings (size 3 to 8) (size 9 to 14) (size 15 to 20)
#    0.000    3.000    1.667    2.000    0.000    2.333 
#    0.000    0.833    0.000    3.000    0.000    2.333 
#    0.000    0.000    0.000    0.167    0.000    0.000 
#
# Total GULP energy -594634.772479 kJ/mol
# GULP energy per Si atom -12388.224427 kJ/mol
# Density = 1.908534 g / cm^3
# Si number density = 19.128880 Si / 1000 Ang^3
#
#
#
# Elastic Constant Matrix: (Units=GPa)
#
#
# Indices 1 2 3 4 5 6 
#
# 1 3.2183 7.8707 9.1529 0.0000 0.0000 0.0000
# 2 7.8707 154.8128 52.8930 0.0000 0.0000 0.0000
# 3 9.1529 52.8930 92.3676 0.0000 0.0000 0.0000
# 4 0.0000 0.0000 0.0000 29.1228 0.0000 0.0000
# 5 0.0000 0.0000 0.0000 0.0000 14.0432 0.0000
# 6 0.0000 0.0000 0.0000 0.0000 0.0000 13.5227
#
#
#
# Elastic Compliance Matrix: (Units=1/GPa)
#
#
# Indices 1 2 3 4 5 6 
#
# 1 0.443298 -0.009360 -0.038567 0.000000 0.000000 0.000000
# 2 -0.009360 0.008228 -0.003784 0.000000 0.000000 0.000000
# 3 -0.038567 -0.003784 0.016815 0.000000 0.000000 0.000000
# 4 0.000000 0.000000 0.000000 0.034337 0.000000 0.000000
# 5 0.000000 0.000000 0.000000 0.000000 0.071209 0.000000
# 6 0.000000 0.000000 0.000000 0.000000 0.000000 0.073950
#
#
# Mechanical properties :
#
#
# Convention : Reuss Voigt Hill
#
# Bulk Modulus (GPa) = 2.74035 43.35912 23.04973
# Shear Modulus (GPa) = 5.72803 23.36987 14.54895
#
# Velocity S-wave (km/s) = 1.73232 3.49908 2.76084
# Velocity P-wave (km/s) = 2.33172 6.24827 4.71581
#
# Compressibility (1/GPa) = 0.36491738
#
# Stress axis : x y z
#
# Youngs Moduli (GPa) = 2.25582 121.53315 59.47068
#
# Poissons Ratio (x) = 1.13760 2.29362
# Poissons Ratio (y) = 0.02112 0.22505
# Poissons Ratio (z) = 0.08700 0.45991
#
# Static dielectric constant tensor:
#      x y z
#    x 2.695770 0.000000 0.000000 
#    y 0.000000 3.989130 0.000000 
#    z 0.000000 0.000000 3.583580 
# 
# 
# High freq. dielectric constant tensor:
#      x y z
#    x 1.660670 0.000000 0.000000 
#    y 0.000000 1.764290 0.000000 
#    z 0.000000 0.000000 1.730820 
# 
# From -- ./inp_files/60203.got.cif
#   From: 2010.03.12/outbox.cif.g09.slc.cpg/sg63_31_cif.got.tgz:60203.got - 2010.04.10 19:34:48.
