data_PCOD8256981
_publ_section_title
;
Structure prediction by ZEFSAII (Michael W. Deem and Ramdas Pophale) SiO2 
 PCOD8256981
Probable space group: C M C M
;
_chemical_formula_sum "Si O2"
_cell_formula_units_Z 112
_cell_length_a 14.098728
_cell_length_b 31.259129
_cell_length_c 14.856630
_cell_angle_alpha 90.000000
_cell_angle_beta 90.000000
_cell_angle_gamma 90.000000
_cell_volume 6547.524199
_symmetry_space_group_name_H-M "C M C M"
_symmetry_group_IT_number 63
_symmetry_cell_setting 'orthorhombic'
loop_
_space_group_symop_operation_xyz
x,y,z
-x,-y,1/2+z
x,-y,-z
-x,y,1/2-z
-x,-y,-z
x,y,1/2-z
-x,y,z
x,-y,1/2+z
1/2+x,1/2+y,z
1/2-x,1/2-y,1/2+z
1/2+x,1/2-y,-z
1/2-x,1/2+y,1/2-z
1/2-x,1/2-y,-z
1/2+x,1/2+y,1/2-z
1/2-x,1/2+y,z
1/2+x,1/2-y,1/2+z
loop_
_atom_site_type_symbol
_atom_site_label
_atom_site_fract_x
_atom_site_fract_y
_atom_site_fract_z
Si Si1 0.782546 0.799930 0.846054
Si Si2 0.235486 0.351313 0.015794
Si Si3 0.611978 0.996741 0.351909
Si Si4 0.607237 0.774358 0.424763
Si Si5 0.112289 0.566942 0.493972
Si Si6 0.107688 0.150878 0.650189
Si Si7 0.395819 0.748416 0.623421
O O1 0.806830 0.822423 0.750000
O O2 0.851790 0.759014 0.853220
O O3 0.675344 0.783021 0.837449
O O4 0.789692 0.833017 0.928098
O O5 0.173415 0.316005 0.068318
O O6 0.165955 0.388567 0.984746
O O7 0.316920 0.369998 0.081684
O O8 0.656236 0.995500 0.250000
O O9 0.500000 0.997215 0.343334
O O10 0.643924 0.038733 0.407588
O O11 0.642006 0.955591 0.411607
O O12 0.500000 0.788266 0.398852
O O13 0.610442 0.747601 0.516208
O O14 0.000000 0.575227 0.492057
O O15 0.121930 0.131223 0.750000
O O16 0.128664 0.201255 0.656791
O O17 0.000000 0.142375 0.616342
O O18 0.500000 0.762260 0.656574
#
# Coordination Sequence:
#
# PCOD8256981 Si02
#       7
#    16  16  16  16  16  16  16
#     4  11  21  32  44  63  93 130 169 203 243 292
#     4  11  20  33  48  73  99 126 160 211 252 287
#     4   8  15  31  53  75 102 135 164 189 226 287
#     4  10  19  32  47  63  90 130 168 204 248 292
#     4   9  18  31  50  77 106 133 160 191 236 294
#     4  10  19  31  49  68  87 118 162 211 254 283
#     4   9  16  30  48  61  78 112 161 211 247 275
#
# _framework density 17.105702999999998
#
# number of rings (size 3 to 8) (size 9 to 14) (size 15 to 20)
#    0.000    2.286    2.857    2.571    0.000    2.857 
#    0.000    0.000    0.000    2.571    0.000    2.000 
#    0.000    1.143    0.000    0.000    0.000    0.000 
#
# Total GULP energy -693991.975740 kJ/mol
# GULP energy per Si atom -12392.713852 kJ/mol
# Density = 1.706677 g / cm^3
# Si number density = 17.105703 Si / 1000 Ang^3
#
#
#
# Elastic Constant Matrix: (Units=GPa)
#
#
# Indices 1 2 3 4 5 6 
#
# 1 72.6785 17.1885 31.5627 0.0000 0.0000 0.0000
# 2 17.1885 58.6084 23.6663 0.0000 0.0000 0.0000
# 3 31.5627 23.6663 102.7854 0.0000 0.0000 0.0000
# 4 0.0000 0.0000 0.0000 -6.2114 0.0000 0.0000
# 5 0.0000 0.0000 0.0000 0.0000 11.2766 0.0000
# 6 0.0000 0.0000 0.0000 0.0000 0.0000 21.8760
#
#
#
# Elastic Compliance Matrix: (Units=1/GPa)
#
#
# Indices 1 2 3 4 5 6 
#
# 1 0.016357 -0.003053 -0.004320 0.000000 0.000000 0.000000
# 2 -0.003053 0.019381 -0.003525 0.000000 0.000000 0.000000
# 3 -0.004320 -0.003525 0.011867 0.000000 0.000000 0.000000
# 4 0.000000 0.000000 0.000000 -0.160994 0.000000 0.000000
# 5 0.000000 0.000000 0.000000 0.000000 0.088680 0.000000
# 6 0.000000 0.000000 0.000000 0.000000 0.000000 0.045712
#
#
# Mechanical properties :
#
#
# Convention : Reuss Voigt Hill
#
# Bulk Modulus (GPa) = 38.74474 42.10080 40.42277
# Shear Modulus (GPa) = 97.27210 16.16523 56.71867
#
# Velocity S-wave (km/s) = 7.54909 3.07745 5.76452
# Velocity P-wave (km/s) = 9.93400 6.10682 8.24553
#
# Compressibility (1/GPa) = 0.02580995
#
# Stress axis : x y z
#
# Youngs Moduli (GPa) = 61.13481 51.59654 84.26586
#
# Poissons Ratio (x) = 0.15751 0.36403
# Poissons Ratio (y) = 0.18663 0.29704
# Poissons Ratio (z) = 0.26410 0.18188
#
# Static dielectric constant tensor:
#      x y z
#    x 3.211920 0.000000 0.000000 
#    y 0.000000 2.791010 0.000000 
#    z 0.000000 0.000000 3.886720 
# 
# 
# High freq. dielectric constant tensor:
#      x y z
#    x 1.645070 0.000000 0.000000 
#    y 0.000000 1.611340 0.000000 
#    z 0.000000 0.000000 1.671170 
# 
# From -- ./inp_files/32743.got.cif
#   From: 2010.03.12/outbox.cif.g09.slc.cpg/sg63_17_cif.got.tgz:32743.got - 2010.04.10 19:34:48.
