data_PCOD8256078
_publ_section_title
;
Structure prediction by ZEFSAII (Michael W. Deem and Ramdas Pophale) SiO2 
 PCOD8256078
Probable space group: C M C M
;
_chemical_formula_sum "Si O2"
_cell_formula_units_Z 104
_cell_length_a 17.923751
_cell_length_b 33.692947
_cell_length_c 9.457058
_cell_angle_alpha 90.000000
_cell_angle_beta 90.000000
_cell_angle_gamma 90.000000
_cell_volume 5711.155083
_symmetry_space_group_name_H-M "C M C M"
_symmetry_group_IT_number 63
_symmetry_cell_setting 'orthorhombic'
loop_
_space_group_symop_operation_xyz
x,y,z
-x,-y,1/2+z
x,-y,-z
-x,y,1/2-z
-x,-y,-z
x,y,1/2-z
-x,y,z
x,-y,1/2+z
1/2+x,1/2+y,z
1/2-x,1/2-y,1/2+z
1/2+x,1/2-y,-z
1/2-x,1/2+y,1/2-z
1/2-x,1/2-y,-z
1/2+x,1/2+y,1/2-z
1/2-x,1/2+y,z
1/2+x,1/2-y,1/2+z
loop_
_atom_site_type_symbol
_atom_site_label
_atom_site_fract_x
_atom_site_fract_y
_atom_site_fract_z
Si Si1 0.219019 0.959580 0.083866
Si Si2 0.415805 0.173756 0.918288
Si Si3 0.826103 0.750434 0.583124
Si Si4 0.584797 0.595236 0.586058
Si Si5 0.414106 0.671189 0.087143
Si Si6 0.000000 0.459532 0.082670
Si Si7 0.858500 0.590966 0.582898
O O1 0.228522 0.968391 0.250000
O O2 0.137579 0.941835 0.048913
O O3 0.281184 0.928259 0.029311
O O4 0.229590 0.000000 0.000000
O O5 0.419377 0.172712 0.750000
O O6 0.500000 0.172925 0.979074
O O7 0.375297 0.213493 0.970550
O O8 0.369817 0.135618 0.976900
O O9 0.811057 0.747891 0.750000
O O10 0.750000 0.750000 0.500000
O O11 0.868305 0.790481 0.540478
O O12 0.590924 0.606210 0.750000
O O13 0.500000 0.583779 0.543303
O O14 0.613501 0.633614 0.502270
O O15 0.400937 0.660635 0.250000
O O16 0.500000 0.680717 0.055463
O O17 0.072565 0.435661 0.032427
O O18 0.000000 0.467366 0.250000
O O19 0.000000 0.500000 0.000000
O O20 0.857539 0.593309 0.750000
#
# Coordination Sequence:
#
# PCOD8256078 Si02
#       7
#    16  16  16  16  16   8  16
#     4  10  21  35  52  75 104 134 168 210 257 309
#     4   9  16  30  53  78 101 132 177 220 251 289
#     4  10  21  33  51  79 108 137 171 211 256 304
#     4   9  19  35  55  78 102 132 171 213 257 310
#     4   9  18  34  53  75 104 136 171 211 254 302
#     4  10  18  30  50  74 100 128 166 210 252 298
#     4   9  17  30  49  75 101 129 168 213 251 293
#
# _framework density 18.209978
#
# number of rings (size 3 to 8) (size 9 to 14) (size 15 to 20)
#    0.000    2.615    0.769    0.923    2.154    3.385 
#    0.000    0.000    0.000    2.308    0.000    0.000 
#    0.000    0.000    0.000    0.000    0.000    0.000 
#
# Total GULP energy -644777.363068 kJ/mol
# GULP energy per Si atom -12399.564674 kJ/mol
# Density = 1.816853 g / cm^3
# Si number density = 18.209978 Si / 1000 Ang^3
#
#
#
# Elastic Constant Matrix: (Units=GPa)
#
#
# Indices 1 2 3 4 5 6 
#
# 1 123.5446 71.5935 29.0605 0.0000 0.0000 0.0000
# 2 71.5935 129.0792 33.2108 0.0000 0.0000 0.0000
# 3 29.0605 33.2108 27.2217 0.0000 0.0000 0.0000
# 4 0.0000 0.0000 0.0000 29.3741 0.0000 0.0000
# 5 0.0000 0.0000 0.0000 0.0000 21.4542 0.0000
# 6 0.0000 0.0000 0.0000 0.0000 0.0000 32.3929
#
#
#
# Elastic Compliance Matrix: (Units=1/GPa)
#
#
# Indices 1 2 3 4 5 6 
#
# 1 0.012858 -0.005247 -0.007325 0.000000 0.000000 0.000000
# 2 -0.005247 0.013433 -0.010787 0.000000 0.000000 0.000000
# 3 -0.007325 -0.010787 0.057715 0.000000 0.000000 0.000000
# 4 0.000000 0.000000 0.000000 0.034044 0.000000 0.000000
# 5 0.000000 0.000000 0.000000 0.000000 0.046611 0.000000
# 6 0.000000 0.000000 0.000000 0.000000 0.000000 0.030871
#
#
# Mechanical properties :
#
#
# Convention : Reuss Voigt Hill
#
# Bulk Modulus (GPa) = 26.81804 60.84166 43.82985
# Shear Modulus (GPa) = 19.63265 26.37630 23.00447
#
# Velocity S-wave (km/s) = 3.28704 3.80998 3.55813
# Velocity P-wave (km/s) = 5.40049 7.26900 6.40327
#
# Compressibility (1/GPa) = 0.03728834
#
# Stress axis : x y z
#
# Youngs Moduli (GPa) = 77.77373 74.44541 17.32647
#
# Poissons Ratio (x) = 0.39061 0.12692
# Poissons Ratio (y) = 0.40807 0.18690
# Poissons Ratio (z) = 0.56970 0.80302
#
# Static dielectric constant tensor:
#      x y z
#    x 2.378030 0.000000 0.000000 
#    y 0.000000 3.523740 0.000000 
#    z 0.000000 0.000000 3.010680 
# 
# 
# High freq. dielectric constant tensor:
#      x y z
#    x 1.717180 0.000000 0.000000 
#    y 0.000000 1.715840 0.000000 
#    z 0.000000 0.000000 1.663850 
# 
# From -- ./inp_files/21769.got.cif
#   From: 2010.03.12/outbox.cif.g09.slc.cpg/sg63_11_cif.got.tgz:21769.got - 2010.04.10 19:34:48.
