data_PCOD8256521
_publ_section_title
;
Structure prediction by ZEFSAII (Michael W. Deem and Ramdas Pophale) SiO2 
 PCOD8256521
Probable space group: C M C M
;
_chemical_formula_sum "Si O2"
_cell_formula_units_Z 96
_cell_length_a 14.088326
_cell_length_b 16.489265
_cell_length_c 21.661171
_cell_angle_alpha 90.000000
_cell_angle_beta 90.000000
_cell_angle_gamma 90.000000
_cell_volume 5032.023041
_symmetry_space_group_name_H-M "C M C M"
_symmetry_group_IT_number 63
_symmetry_cell_setting 'orthorhombic'
loop_
_space_group_symop_operation_xyz
x,y,z
-x,-y,1/2+z
x,-y,-z
-x,y,1/2-z
-x,-y,-z
x,y,1/2-z
-x,y,z
x,-y,1/2+z
1/2+x,1/2+y,z
1/2-x,1/2-y,1/2+z
1/2+x,1/2-y,-z
1/2-x,1/2+y,1/2-z
1/2-x,1/2-y,-z
1/2+x,1/2+y,1/2-z
1/2-x,1/2+y,z
1/2+x,1/2-y,1/2+z
loop_
_atom_site_type_symbol
_atom_site_label
_atom_site_fract_x
_atom_site_fract_y
_atom_site_fract_z
Si Si1 0.783361 0.912036 0.488451
Si Si2 0.607446 0.229885 0.342317
Si Si3 0.274182 0.167770 0.860981
Si Si4 0.100769 0.644221 0.034805
Si Si5 0.389572 0.904971 0.750000
Si Si6 0.605043 0.722245 0.062804
Si Si7 0.614856 0.913807 0.250000
O O1 0.757596 0.891578 0.417354
O O2 0.687424 0.917898 0.530206
O O3 0.852139 0.844911 0.517296
O O4 0.831427 0.000000 0.500000
O O5 0.500000 0.253534 0.322010
O O6 0.677461 0.304271 0.326083
O O7 0.615787 0.213927 0.414709
O O8 0.640633 0.146735 0.309674
O O9 0.324827 0.252916 0.881473
O O10 0.343867 0.124751 0.812652
O O11 0.000000 0.597967 0.046970
O O12 0.095180 0.692249 0.971201
O O13 0.500000 0.921505 0.750000
O O14 0.344477 0.994219 0.750000
O O15 0.500000 0.693867 0.085502
O O16 0.500000 0.905464 0.250000
#
# Coordination Sequence:
#
# PCOD8256521 Si02
#       7
#    16  16  16  16   8  16   8
#     4  11  22  34  53  84 117 147 187 234 290 338
#     4  10  18  34  60  83 107 146 192 237 278 327
#     4  11  21  38  59  82 112 154 193 229 276 344
#     4   9  17  32  54  77 104 138 179 230 277 328
#     4   9  21  36  54  81 111 141 181 235 291 332
#     4  10  19  36  56  77 110 151 193 230 271 333
#     4  11  25  40  55  85 119 147 180 227 286 344
#
# _framework density 19.077815000000001
#
# number of rings (size 3 to 8) (size 9 to 14) (size 15 to 20)
#    0.000    1.833    3.333    2.000    2.333    1.333 
#    0.000    0.000    0.000    0.000    0.000    2.333 
#    0.000    0.000    0.000    0.000    0.000    0.000 
#
# Total GULP energy -594660.174476 kJ/mol
# GULP energy per Si atom -12388.753635 kJ/mol
# Density = 1.903439 g / cm^3
# Si number density = 19.077815 Si / 1000 Ang^3
#
#
#
# Elastic Constant Matrix: (Units=GPa)
#
#
# Indices 1 2 3 4 5 6 
#
# 1 105.6250 43.7269 37.5019 0.0000 0.0000 0.0000
# 2 43.7269 97.5540 38.4338 0.0000 0.0000 0.0000
# 3 37.5019 38.4338 70.9633 0.0000 0.0000 0.0000
# 4 0.0000 0.0000 0.0000 -20.6949 0.0000 0.0000
# 5 0.0000 0.0000 0.0000 0.0000 27.0750 0.0000
# 6 0.0000 0.0000 0.0000 0.0000 0.0000 19.7101
#
#
#
# Elastic Compliance Matrix: (Units=1/GPa)
#
#
# Indices 1 2 3 4 5 6 
#
# 1 0.012713 -0.003879 -0.004617 0.000000 0.000000 0.000000
# 2 -0.003879 0.014215 -0.005649 0.000000 0.000000 0.000000
# 3 -0.004617 -0.005649 0.019591 0.000000 0.000000 0.000000
# 4 0.000000 0.000000 0.000000 -0.048321 0.000000 0.000000
# 5 0.000000 0.000000 0.000000 0.000000 0.036934 0.000000
# 6 0.000000 0.000000 0.000000 0.000000 0.000000 0.050735
#
#
# Mechanical properties :
#
#
# Convention : Reuss Voigt Hill
#
# Bulk Modulus (GPa) = 54.85945 57.05194 55.95569
# Shear Modulus (GPa) = 41.58531 15.51667 28.55099
#
# Velocity S-wave (km/s) = 4.67387 2.85500 3.87273
# Velocity P-wave (km/s) = 7.61215 6.39045 7.02789
#
# Compressibility (1/GPa) = 0.01822840
#
# Stress axis : x y z
#
# Youngs Moduli (GPa) = 78.66135 70.34828 51.04295
#
# Poissons Ratio (x) = 0.27289 0.23568
# Poissons Ratio (y) = 0.30514 0.28833
# Poissons Ratio (z) = 0.36321 0.39739
#
# Static dielectric constant tensor:
#      x y z
#    x 3.860050 0.000000 0.000000 
#    y 0.000000 3.236990 0.000000 
#    z 0.000000 0.000000 3.384550 
# 
# 
# High freq. dielectric constant tensor:
#      x y z
#    x 1.747920 0.000000 0.000000 
#    y 0.000000 1.714200 0.000000 
#    z 0.000000 0.000000 1.733540 
# 
# From -- ./inp_files/62908.got.cif
#   From: 2010.03.12/outbox.cif.g09.slc.cpg/sg63_32_cif.got.tgz:62908.got - 2010.04.10 19:34:48.
