data_PCOD8256052
_publ_section_title
;
Structure prediction by ZEFSAII (Michael W. Deem and Ramdas Pophale) SiO2 
 PCOD8256052
Probable space group: C M C M
;
_chemical_formula_sum "Si O2"
_cell_formula_units_Z 84
_cell_length_a 14.107114
_cell_length_b 29.686176
_cell_length_c 12.025354
_cell_angle_alpha 90.000000
_cell_angle_beta 90.000000
_cell_angle_gamma 90.000000
_cell_volume 5036.053136
_symmetry_space_group_name_H-M "C M C M"
_symmetry_group_IT_number 63
_symmetry_cell_setting 'orthorhombic'
loop_
_space_group_symop_operation_xyz
x,y,z
-x,-y,1/2+z
x,-y,-z
-x,y,1/2-z
-x,-y,-z
x,y,1/2-z
-x,y,z
x,-y,1/2+z
1/2+x,1/2+y,z
1/2-x,1/2-y,1/2+z
1/2+x,1/2-y,-z
1/2-x,1/2+y,1/2-z
1/2-x,1/2-y,-z
1/2+x,1/2+y,1/2-z
1/2-x,1/2+y,z
1/2+x,1/2-y,1/2+z
loop_
_atom_site_type_symbol
_atom_site_label
_atom_site_fract_x
_atom_site_fract_y
_atom_site_fract_z
Si Si1 0.500000 0.337177 0.750000
Si Si2 0.107479 0.594563 0.250000
Si Si3 0.702616 0.298379 0.987743
Si Si4 0.186208 0.370812 0.121116
Si Si5 0.500000 0.720469 0.032080
Si Si6 0.891559 0.449069 0.985858
Si Si7 0.500000 0.184517 0.874729
Si Si8 0.791276 0.841144 0.750000
O O1 0.500000 0.303325 0.649362
O O2 0.398282 0.365188 0.750000
O O3 0.116988 0.563254 0.356939
O O4 0.197607 0.627893 0.250000
O O5 0.000000 0.617334 0.250000
O O6 0.594768 0.294085 0.031045
O O7 0.714352 0.310032 0.858290
O O8 0.750000 0.250000 0.000000
O O9 0.737616 0.338423 0.065550
O O10 0.211180 0.378528 0.250000
O O11 0.087789 0.346719 0.101013
O O12 0.179541 0.418734 0.059439
O O13 0.500000 0.774368 0.041280
O O14 0.000000 0.443979 0.028378
O O15 0.856208 0.500000 0.000000
O O16 0.500000 0.203601 0.750000
#
# Coordination Sequence:
#
# PCOD8256052 Si02
#       8
#     4   8  16  16   8  16   8   8
#     4   8  18  30  54  74  94 136 192 228 260 286
#     4  10  20  36  56  82 115 144 173 224 279 327
#     4  11  22  34  53  76 107 141 182 223 266 317
#     4  11  22  34  53  77 106 144 185 220 260 315
#     4  10  18  32  51  75 102 140 180 223 262 302
#     4  10  21  36  54  80 114 145 176 215 272 333
#     4  10  18  30  49  73 104 137 184 225 248 300
#     4  10  20  36  54  75 106 139 185 226 276 316
#
# _framework density 16.679728999999998
#
# number of rings (size 3 to 8) (size 9 to 14) (size 15 to 20)
#    0.000    1.714    5.238    0.000    2.667    0.000 
#    1.714    0.476    0.000    0.000    0.000    2.667 
#    0.000    0.000    0.000    0.000    0.000    0.000 
#
# Total GULP energy -520397.164755 kJ/mol
# GULP energy per Si atom -12390.408685 kJ/mol
# Density = 1.664177 g / cm^3
# Si number density = 16.679729 Si / 1000 Ang^3
#
#
#
# Elastic Constant Matrix: (Units=GPa)
#
#
# Indices 1 2 3 4 5 6 
#
# 1 133.5212 62.5209 41.9001 0.0000 0.0000 0.0000
# 2 62.5209 123.1936 51.6943 0.0000 0.0000 0.0000
# 3 41.9001 51.6943 103.5909 0.0000 0.0000 0.0000
# 4 0.0000 0.0000 0.0000 -93.4199 0.0000 0.0000
# 5 0.0000 0.0000 0.0000 0.0000 17.2038 0.0000
# 6 0.0000 0.0000 0.0000 0.0000 0.0000 30.3586
#
#
#
# Elastic Compliance Matrix: (Units=1/GPa)
#
#
# Indices 1 2 3 4 5 6 
#
# 1 0.010122 -0.004324 -0.001936 0.000000 0.000000 0.000000
# 2 -0.004324 0.012115 -0.004296 0.000000 0.000000 0.000000
# 3 -0.001936 -0.004296 0.012580 0.000000 0.000000 0.000000
# 4 0.000000 0.000000 0.000000 -0.010704 0.000000 0.000000
# 5 0.000000 0.000000 0.000000 0.000000 0.058127 0.000000
# 6 0.000000 0.000000 0.000000 0.000000 0.000000 0.032940
#
#
# Mechanical properties :
#
#
# Convention : Reuss Voigt Hill
#
# Bulk Modulus (GPa) = 72.97526 74.72626 73.85076
# Shear Modulus (GPa) = 35.49605 4.44120 19.96862
#
# Velocity S-wave (km/s) = 4.61813 1.63353 3.46378
# Velocity P-wave (km/s) = 8.50188 6.96102 7.76974
#
# Compressibility (1/GPa) = 0.01370327
#
# Stress axis : x y z
#
# Youngs Moduli (GPa) = 98.79547 82.54332 79.48822
#
# Poissons Ratio (x) = 0.35696 0.15389
# Poissons Ratio (y) = 0.42724 0.34152
# Poissons Ratio (z) = 0.19127 0.35464
#
# Static dielectric constant tensor:
#      x y z
#    x 3.547630 0.000000 0.000000 
#    y 0.000000 3.009280 0.000000 
#    z 0.000000 0.000000 3.160200 
# 
# 
# High freq. dielectric constant tensor:
#      x y z
#    x 1.639050 0.000000 0.000000 
#    y 0.000000 1.627440 0.000000 
#    z 0.000000 0.000000 1.644730 
# 
# From -- ./inp_files/19977.got.cif
#   From: 2010.03.12/outbox.cif.g09.slc.cpg/sg63_10_cif.got.tgz:19977.got - 2010.04.10 19:34:48.
