data_PCOD8256316
_publ_section_title
;
Structure prediction by ZEFSAII (Michael W. Deem and Ramdas Pophale) SiO2 
 PCOD8256316
Probable space group: C M C M
;
_chemical_formula_sum "Si O2"
_cell_formula_units_Z 72
_cell_length_a 15.360662
_cell_length_b 29.011173
_cell_length_c 8.700925
_cell_angle_alpha 90.000000
_cell_angle_beta 90.000000
_cell_angle_gamma 90.000000
_cell_volume 3877.400366
_symmetry_space_group_name_H-M "C M C M"
_symmetry_group_IT_number 63
_symmetry_cell_setting 'orthorhombic'
loop_
_space_group_symop_operation_xyz
x,y,z
-x,-y,1/2+z
x,-y,-z
-x,y,1/2-z
-x,-y,-z
x,y,1/2-z
-x,y,z
x,-y,1/2+z
1/2+x,1/2+y,z
1/2-x,1/2-y,1/2+z
1/2+x,1/2-y,-z
1/2-x,1/2+y,1/2-z
1/2-x,1/2-y,-z
1/2+x,1/2+y,1/2-z
1/2-x,1/2+y,z
1/2+x,1/2-y,1/2+z
loop_
_atom_site_type_symbol
_atom_site_label
_atom_site_fract_x
_atom_site_fract_y
_atom_site_fract_z
Si Si1 0.000000 0.050860 0.066892
Si Si2 0.750053 0.135056 0.431697
Si Si3 0.902661 0.201026 0.068361
Si Si4 0.676452 0.449739 0.068635
Si Si5 0.901470 0.702065 0.428833
O O1 0.000000 0.052493 0.250000
O O2 0.088311 0.073388 0.002542
O O3 0.000000 0.000000 0.000000
O O4 0.754875 0.126527 0.250000
O O5 0.832245 0.164645 0.493338
O O6 0.748208 0.085848 0.519079
O O7 0.661501 0.160737 0.480033
O O8 0.902554 0.200171 0.250000
O O9 0.000000 0.188827 0.005967
O O10 0.874114 0.251762 0.016424
O O11 0.668064 0.454727 0.250000
O O12 0.696637 0.500000 0.000000
O O13 0.890061 0.712692 0.250000
O O14 0.000000 0.687263 0.469634
#
# Coordination Sequence:
#
# PCOD8256316 Si02
#       5
#     8  16  16  16  16
#     4  10  18  32  52  72 100 136 170 204 246 298
#     4  10  20  33  51  75 103 138 176 215 262 312
#     4   9  18  31  48  73 104 137 171 209 257 309
#     4  11  22  36  53  76 104 136 174 214 259 306
#     4   9  18  33  52  74 102 136 174 218 265 310
#
# _framework density 18.569143
#
# number of rings (size 3 to 8) (size 9 to 14) (size 15 to 20)
#    0.000    2.222    0.000    5.000    1.556    1.778 
#    0.000    0.000    0.000    0.667    0.000    0.000 
#    0.000    0.000    0.000    0.000    0.000    0.000 
#
# Total GULP energy -446328.198191 kJ/mol
# GULP energy per Si atom -12398.005505 kJ/mol
# Density = 1.852688 g / cm^3
# Si number density = 18.569143 Si / 1000 Ang^3
#
#
#
# Elastic Constant Matrix: (Units=GPa)
#
#
# Indices 1 2 3 4 5 6 
#
# 1 90.9221 65.5351 28.9032 0.0000 0.0000 0.0000
# 2 65.5351 111.1422 31.2314 0.0000 0.0000 0.0000
# 3 28.9032 31.2314 73.2844 0.0000 0.0000 0.0000
# 4 0.0000 0.0000 0.0000 30.9612 0.0000 0.0000
# 5 0.0000 0.0000 0.0000 0.0000 18.1229 0.0000
# 6 0.0000 0.0000 0.0000 0.0000 0.0000 29.1073
#
#
#
# Elastic Compliance Matrix: (Units=1/GPa)
#
#
# Indices 1 2 3 4 5 6 
#
# 1 0.019773 -0.010756 -0.003215 0.000000 0.000000 0.000000
# 2 -0.010756 0.016072 -0.002607 0.000000 0.000000 0.000000
# 3 -0.003215 -0.002607 0.016025 0.000000 0.000000 0.000000
# 4 0.000000 0.000000 0.000000 0.032298 0.000000 0.000000
# 5 0.000000 0.000000 0.000000 0.000000 0.055179 0.000000
# 6 0.000000 0.000000 0.000000 0.000000 0.000000 0.034356
#
#
# Mechanical properties :
#
#
# Convention : Reuss Voigt Hill
#
# Bulk Modulus (GPa) = 53.43578 58.52090 55.97834
# Shear Modulus (GPa) = 23.46357 25.61690 24.54023
#
# Velocity S-wave (km/s) = 3.55854 3.71825 3.63927
# Velocity P-wave (km/s) = 6.76191 7.07230 6.91884
#
# Compressibility (1/GPa) = 0.01871405
#
# Stress axis : x y z
#
# Youngs Moduli (GPa) = 50.57423 62.21871 62.40433
#
# Poissons Ratio (x) = 0.66921 0.20061
# Poissons Ratio (y) = 0.54397 0.16272
# Poissons Ratio (z) = 0.16258 0.16223
#
# Static dielectric constant tensor:
#      x y z
#    x 3.807780 0.000000 0.000000 
#    y 0.000000 3.380840 0.000000 
#    z 0.000000 0.000000 3.416300 
# 
# 
# High freq. dielectric constant tensor:
#      x y z
#    x 1.707690 0.000000 0.000000 
#    y 0.000000 1.715600 0.000000 
#    z 0.000000 0.000000 1.714920 
# 
# From -- ./inp_files/4918.got.cif
#   From: 2010.03.12/outbox.cif.g09.slc.cpg/sg63_3_cif.got.tgz:4918.got - 2010.04.10 19:34:48.
