data_PCOD8256758
_publ_section_title
;
Structure prediction by ZEFSAII (Michael W. Deem and Ramdas Pophale) SiO2 
 PCOD8256758
Probable space group: C M C M
;
_chemical_formula_sum "Si O2"
_cell_formula_units_Z 96
_cell_length_a 8.969622
_cell_length_b 27.922304
_cell_length_c 23.590153
_cell_angle_alpha 90.000000
_cell_angle_beta 90.000000
_cell_angle_gamma 90.000000
_cell_volume 5908.213083
_symmetry_space_group_name_H-M "C M C M"
_symmetry_group_IT_number 63
_symmetry_cell_setting 'orthorhombic'
loop_
_space_group_symop_operation_xyz
x,y,z
-x,-y,1/2+z
x,-y,-z
-x,y,1/2-z
-x,-y,-z
x,y,1/2-z
-x,y,z
x,-y,1/2+z
1/2+x,1/2+y,z
1/2-x,1/2-y,1/2+z
1/2+x,1/2-y,-z
1/2-x,1/2+y,1/2-z
1/2-x,1/2-y,-z
1/2+x,1/2+y,1/2-z
1/2-x,1/2+y,z
1/2+x,1/2-y,1/2+z
loop_
_atom_site_type_symbol
_atom_site_label
_atom_site_fract_x
_atom_site_fract_y
_atom_site_fract_z
Si Si1 0.674977 0.680940 0.026035
Si Si2 0.174741 0.920363 0.186032
Si Si3 0.674729 0.821058 0.184772
Si Si4 0.674162 0.735400 0.912116
Si Si5 0.323314 0.482790 0.084740
Si Si6 0.177119 0.073856 0.023137
O O1 0.500000 0.684908 0.039128
O O2 0.762156 0.712856 0.071348
O O3 0.739160 0.627155 0.033312
O O4 0.709592 0.697702 0.962033
O O5 0.213380 0.935782 0.250000
O O6 0.259570 0.872521 0.168118
O O7 0.230458 0.963783 0.145914
O O8 0.000000 0.910083 0.178045
O O9 0.712551 0.808724 0.250000
O O10 0.500000 0.822216 0.173623
O O11 0.747947 0.780804 0.145711
O O12 0.500000 0.740079 0.900697
O O13 0.500000 0.482458 0.081123
O O14 0.269327 0.537484 0.073216
O O15 0.261485 0.447093 0.036269
O O16 0.000000 0.077209 0.020541
#
# Coordination Sequence:
#
# PCOD8256758 Si02
#       6
#    16  16  16  16  16  16
#     4   9  17  29  45  66  91 119 150 183 221 263
#     4   9  16  26  42  64  88 111 137 173 214 255
#     4  10  20  32  46  65  89 116 145 178 219 267
#     4  10  19  30  46  67  89 115 148 185 224 265
#     4   8  13  22  38  62  87 111 142 176 211 250
#     4   8  13  22  39  61  85 113 143 176 211 250
#
# _framework density 16.248569
#
# number of rings (size 3 to 8) (size 9 to 14) (size 15 to 20)
#    0.000    3.000    0.000    3.000    0.000    4.333 
#    0.000    0.000    0.000    2.000    0.000    8.167 
#    0.000    0.000    0.000    0.000    0.000    0.000 
#
# Total GULP energy -594995.150046 kJ/mol
# GULP energy per Si atom -12395.732293 kJ/mol
# Density = 1.621159 g / cm^3
# Si number density = 16.248569 Si / 1000 Ang^3
#
#
#
# Elastic Constant Matrix: (Units=GPa)
#
#
# Indices 1 2 3 4 5 6 
#
# 1 37.8791 33.4776 30.8991 0.0000 0.0000 0.0000
# 2 33.4776 153.1361 72.9582 0.0000 0.0000 0.0000
# 3 30.8991 72.9582 100.5341 0.0000 0.0000 0.0000
# 4 0.0000 0.0000 0.0000 28.7515 0.0000 0.0000
# 5 0.0000 0.0000 0.0000 0.0000 17.8287 0.0000
# 6 0.0000 0.0000 0.0000 0.0000 0.0000 18.6011
#
#
#
# Elastic Compliance Matrix: (Units=1/GPa)
#
#
# Indices 1 2 3 4 5 6 
#
# 1 0.036815 -0.004062 -0.008367 0.000000 0.000000 0.000000
# 2 -0.004062 0.010429 -0.006320 0.000000 0.000000 0.000000
# 3 -0.008367 -0.006320 0.017105 0.000000 0.000000 0.000000
# 4 0.000000 0.000000 0.000000 0.034781 0.000000 0.000000
# 5 0.000000 0.000000 0.000000 0.000000 0.056089 0.000000
# 6 0.000000 0.000000 0.000000 0.000000 0.000000 0.053760
#
#
# Mechanical properties :
#
#
# Convention : Reuss Voigt Hill
#
# Bulk Modulus (GPa) = 37.24286 62.91324 50.07805
# Shear Modulus (GPa) = 19.57490 23.31722 21.44606
#
# Velocity S-wave (km/s) = 3.47467 3.79229 3.63695
# Velocity P-wave (km/s) = 6.25046 7.61437 6.96587
#
# Compressibility (1/GPa) = 0.02685078
#
# Stress axis : x y z
#
# Youngs Moduli (GPa) = 27.16264 95.88477 58.46193
#
# Poissons Ratio (x) = 0.38947 0.48918
# Poissons Ratio (y) = 0.11033 0.36949
# Poissons Ratio (z) = 0.22728 0.60600
#
# Static dielectric constant tensor:
#      x y z
#    x 2.813960 0.000000 0.000000 
#    y 0.000000 3.250760 0.000000 
#    z 0.000000 0.000000 3.128720 
# 
# 
# High freq. dielectric constant tensor:
#      x y z
#    x 1.597760 0.000000 0.000000 
#    y 0.000000 1.620990 0.000000 
#    z 0.000000 0.000000 1.615820 
# 
# From -- ./inp_files/60243.got.cif
#   From: 2010.03.12/outbox.cif.g09.slc.cpg/sg63_31_cif.got.tgz:60243.got - 2010.04.10 19:34:48.
