data_PCOD8256309
_publ_section_title
;
Structure prediction by ZEFSAII (Michael W. Deem and Ramdas Pophale) SiO2 
 PCOD8256309
Probable space group: C M C M
;
_chemical_formula_sum "Si O2"
_cell_formula_units_Z 96
_cell_length_a 9.313927
_cell_length_b 25.341016
_cell_length_c 23.693311
_cell_angle_alpha 90.000000
_cell_angle_beta 90.000000
_cell_angle_gamma 90.000000
_cell_volume 5592.198876
_symmetry_space_group_name_H-M "C M C M"
_symmetry_group_IT_number 63
_symmetry_cell_setting 'orthorhombic'
loop_
_space_group_symop_operation_xyz
x,y,z
-x,-y,1/2+z
x,-y,-z
-x,y,1/2-z
-x,-y,-z
x,y,1/2-z
-x,y,z
x,-y,1/2+z
1/2+x,1/2+y,z
1/2-x,1/2-y,1/2+z
1/2+x,1/2-y,-z
1/2-x,1/2+y,1/2-z
1/2-x,1/2-y,-z
1/2+x,1/2+y,1/2-z
1/2-x,1/2+y,z
1/2+x,1/2-y,1/2+z
loop_
_atom_site_type_symbol
_atom_site_label
_atom_site_fract_x
_atom_site_fract_y
_atom_site_fract_z
Si Si1 0.334474 0.094732 0.629479
Si Si2 0.331193 0.311534 0.554921
Si Si3 0.330369 0.493801 0.064458
Si Si4 0.332909 0.946625 0.250000
Si Si5 0.330052 0.404912 0.631130
Si Si6 0.665553 0.807580 0.442941
Si Si7 0.329723 0.556661 0.250000
O O1 0.500000 0.079715 0.619864
O O2 0.240351 0.057885 0.589957
O O3 0.292399 0.088136 0.695145
O O4 0.304074 0.155138 0.610901
O O5 0.500000 0.319100 0.545959
O O6 0.271743 0.350881 0.603364
O O7 0.291488 0.252161 0.573985
O O8 0.257808 0.326957 0.496046
O O9 0.500000 0.487597 0.071016
O O10 0.270364 0.544781 0.097239
O O11 0.283607 0.500000 0.000000
O O12 0.500000 0.962095 0.250000
O O13 0.241740 0.999645 0.250000
O O14 0.500000 0.405091 0.627878
O O15 0.278835 0.409598 0.695877
O O16 0.500000 0.809955 0.461432
O O17 0.500000 0.547048 0.250000
#
# Coordination Sequence:
#
# PCOD8256309 Si02
#       7
#    16  16  16   8  16  16   8
#     4  10  20  33  48  69  98 129 163 199 237 285
#     4   9  17  32  52  72  96 125 157 195 240 288
#     4  10  19  30  47  72  98 124 156 197 245 291
#     4  10  20  34  49  67  95 133 168 197 236 284
#     4   9  17  29  47  71  95 120 155 198 239 280
#     4   9  18  32  50  72  97 126 158 194 238 286
#     4  10  18  32  51  69  93 125 162 201 240 284
#
# _framework density 17.166771000000001
#
# number of rings (size 3 to 8) (size 9 to 14) (size 15 to 20)
#    0.000    2.500    1.667    1.000    0.000    2.333 
#    0.000    2.500    0.000    5.000    0.000    0.000 
#    0.000    6.667    0.000    0.000    0.000    0.000 
#
# Total GULP energy -595140.131724 kJ/mol
# GULP energy per Si atom -12398.752744 kJ/mol
# Density = 1.712770 g / cm^3
# Si number density = 17.166771 Si / 1000 Ang^3
#
#
#
# Elastic Constant Matrix: (Units=GPa)
#
#
# Indices 1 2 3 4 5 6 
#
# 1 27.5450 26.3343 33.8542 0.0000 0.0000 0.0000
# 2 26.3343 115.4870 75.5601 0.0000 0.0000 0.0000
# 3 33.8542 75.5601 147.5569 0.0000 0.0000 0.0000
# 4 0.0000 0.0000 0.0000 30.2344 0.0000 0.0000
# 5 0.0000 0.0000 0.0000 0.0000 11.2033 0.0000
# 6 0.0000 0.0000 0.0000 0.0000 0.0000 22.9299
#
#
#
# Elastic Compliance Matrix: (Units=1/GPa)
#
#
# Indices 1 2 3 4 5 6 
#
# 1 0.053409 -0.006258 -0.009049 0.000000 0.000000 0.000000
# 2 -0.006258 0.013755 -0.005608 0.000000 0.000000 0.000000
# 3 -0.009049 -0.005608 0.011725 0.000000 0.000000 0.000000
# 4 0.000000 0.000000 0.000000 0.033075 0.000000 0.000000
# 5 0.000000 0.000000 0.000000 0.000000 0.089259 0.000000
# 6 0.000000 0.000000 0.000000 0.000000 0.000000 0.043611
#
#
# Mechanical properties :
#
#
# Convention : Reuss Voigt Hill
#
# Bulk Modulus (GPa) = 26.98416 62.45400 44.71908
# Shear Modulus (GPa) = 16.72147 23.19624 19.95885
#
# Velocity S-wave (km/s) = 3.12438 3.67989 3.41346
# Velocity P-wave (km/s) = 5.36364 7.38344 6.45306
#
# Compressibility (1/GPa) = 0.03705878
#
# Stress axis : x y z
#
# Youngs Moduli (GPa) = 18.72345 72.70051 85.28948
#
# Poissons Ratio (x) = 0.45498 0.77179
# Poissons Ratio (y) = 0.11718 0.47829
# Poissons Ratio (z) = 0.16943 0.40769
#
# Static dielectric constant tensor:
#      x y z
#    x 3.027950 0.000000 0.000000 
#    y 0.000000 3.362450 0.000000 
#    z 0.000000 0.000000 3.517810 
# 
# 
# High freq. dielectric constant tensor:
#      x y z
#    x 1.641200 0.000000 0.000000 
#    y 0.000000 1.664250 0.000000 
#    z 0.000000 0.000000 1.664890 
# 
# From -- ./inp_files/60025.got.cif
#   From: 2010.03.12/outbox.cif.g09.slc.cpg/sg63_31_cif.got.tgz:60025.got - 2010.04.10 19:34:48.
