data_PCOD8256538
_publ_section_title
;
Structure prediction by ZEFSAII (Michael W. Deem and Ramdas Pophale) SiO2 
 PCOD8256538
Probable space group: C M C M
;
_chemical_formula_sum "Si O2"
_cell_formula_units_Z 80
_cell_length_a 18.020483
_cell_length_b 13.833932
_cell_length_c 18.002337
_cell_angle_alpha 90.000000
_cell_angle_beta 90.000000
_cell_angle_gamma 90.000000
_cell_volume 4487.877056
_symmetry_space_group_name_H-M "C M C M"
_symmetry_group_IT_number 63
_symmetry_cell_setting 'orthorhombic'
loop_
_space_group_symop_operation_xyz
x,y,z
-x,-y,1/2+z
x,-y,-z
-x,y,1/2-z
-x,-y,-z
x,y,1/2-z
-x,y,z
x,-y,1/2+z
1/2+x,1/2+y,z
1/2-x,1/2-y,1/2+z
1/2+x,1/2-y,-z
1/2-x,1/2+y,1/2-z
1/2-x,1/2-y,-z
1/2+x,1/2+y,1/2-z
1/2-x,1/2+y,z
1/2+x,1/2-y,1/2+z
loop_
_atom_site_type_symbol
_atom_site_label
_atom_site_fract_x
_atom_site_fract_y
_atom_site_fract_z
Si Si1 0.655379 0.790097 0.331939
Si Si2 0.000000 0.886338 0.512275
Si Si3 0.240868 0.961214 0.335659
Si Si4 0.156821 0.835822 0.442534
Si Si5 0.000000 0.216619 0.333637
Si Si6 0.753365 0.654197 0.422088
O O1 0.679342 0.754860 0.250000
O O2 0.685988 0.896662 0.345951
O O3 0.567542 0.790621 0.342115
O O4 0.685334 0.714010 0.389769
O O5 0.926562 0.842862 0.473395
O O6 0.000000 0.864117 0.600935
O O7 0.000000 0.000000 0.500000
O O8 0.220257 0.980247 0.250000
O O9 0.168977 0.906999 0.371718
O O10 0.266381 0.060156 0.373480
O O11 0.172993 0.722319 0.423633
O O12 0.222387 0.874105 0.497008
O O13 0.000000 0.167784 0.250000
#
# Coordination Sequence:
#
# PCOD8256538 Si02
#       6
#    16   8  16  16   8  16
#     4   9  18  32  53  82 108 137 181 230 271 320
#     4  12  22  38  55  81 119 151 181 223 281 332
#     4  10  20  35  57  81 106 141 187 230 276 329
#     4  10  22  35  54  80 112 143 183 230 272 329
#     4  10  20  36  57  79 109 145 183 225 271 322
#     4  10  18  35  56  78 107 143 181 228 276 324
#
# _framework density 17.825800999999998
#
# number of rings (size 3 to 8) (size 9 to 14) (size 15 to 20)
#    0.000    2.000    2.000    2.400    0.000    0.800 
#    0.000    1.500    0.000    1.200    0.000    0.000 
#    0.000    0.000    0.000    0.000    0.000    0.000 
#
# Total GULP energy -495718.342514 kJ/mol
# GULP energy per Si atom -12392.958563 kJ/mol
# Density = 1.778523 g / cm^3
# Si number density = 17.825801 Si / 1000 Ang^3
#
#
#
# Elastic Constant Matrix: (Units=GPa)
#
#
# Indices 1 2 3 4 5 6 
#
# 1 111.2683 45.8000 41.1198 0.0000 0.0000 0.0000
# 2 45.8000 102.4353 56.6043 0.0000 0.0000 0.0000
# 3 41.1198 56.6043 114.4726 0.0000 0.0000 0.0000
# 4 0.0000 0.0000 0.0000 67.9322 0.0000 0.0000
# 5 0.0000 0.0000 0.0000 0.0000 26.3093 0.0000
# 6 0.0000 0.0000 0.0000 0.0000 0.0000 14.9198
#
#
#
# Elastic Compliance Matrix: (Units=1/GPa)
#
#
# Indices 1 2 3 4 5 6 
#
# 1 0.011391 -0.003897 -0.002165 0.000000 0.000000 0.000000
# 2 -0.003897 0.014766 -0.005902 0.000000 0.000000 0.000000
# 3 -0.002165 -0.005902 0.012432 0.000000 0.000000 0.000000
# 4 0.000000 0.000000 0.000000 0.014721 0.000000 0.000000
# 5 0.000000 0.000000 0.000000 0.000000 0.038009 0.000000
# 6 0.000000 0.000000 0.000000 0.000000 0.000000 0.067025
#
#
# Mechanical properties :
#
#
# Convention : Reuss Voigt Hill
#
# Bulk Modulus (GPa) = 68.20403 68.35826 68.28114
# Shear Modulus (GPa) = 26.71541 34.14240 30.42890
#
# Velocity S-wave (km/s) = 3.87550 4.38120 4.13609
# Velocity P-wave (km/s) = 7.64005 8.00153 7.82288
#
# Compressibility (1/GPa) = 0.01466189
#
# Stress axis : x y z
#
# Youngs Moduli (GPa) = 87.78555 67.72446 80.44032
#
# Poissons Ratio (x) = 0.26391 0.17415
# Poissons Ratio (y) = 0.34209 0.47472
# Poissons Ratio (z) = 0.19005 0.39968
#
# Static dielectric constant tensor:
#      x y z
#    x 3.230850 0.000000 0.000000 
#    y 0.000000 3.274000 0.000000 
#    z 0.000000 0.000000 3.730640 
# 
# 
# High freq. dielectric constant tensor:
#      x y z
#    x 1.671290 0.000000 0.000000 
#    y 0.000000 1.681630 0.000000 
#    z 0.000000 0.000000 1.710170 
# 
# From -- ./inp_files/45452.got.cif
#   From: 2010.03.12/outbox.cif.g09.slc.cpg/sg63_23_cif.got.tgz:45452.got - 2010.04.10 19:34:48.
