data_PCOD8256407
_publ_section_title
;
Structure prediction by ZEFSAII (Michael W. Deem and Ramdas Pophale) SiO2 
 PCOD8256407
Probable space group: C M C M
;
_chemical_formula_sum "Si O2"
_cell_formula_units_Z 64
_cell_length_a 8.506357
_cell_length_b 24.679860
_cell_length_c 14.917187
_cell_angle_alpha 90.000000
_cell_angle_beta 90.000000
_cell_angle_gamma 90.000000
_cell_volume 3131.650093
_symmetry_space_group_name_H-M "C M C M"
_symmetry_group_IT_number 63
_symmetry_cell_setting 'orthorhombic'
loop_
_space_group_symop_operation_xyz
x,y,z
-x,-y,1/2+z
x,-y,-z
-x,y,1/2-z
-x,-y,-z
x,y,1/2-z
-x,y,z
x,-y,1/2+z
1/2+x,1/2+y,z
1/2-x,1/2-y,1/2+z
1/2+x,1/2-y,-z
1/2-x,1/2+y,1/2-z
1/2-x,1/2-y,-z
1/2+x,1/2+y,1/2-z
1/2-x,1/2+y,z
1/2+x,1/2-y,1/2+z
loop_
_atom_site_type_symbol
_atom_site_label
_atom_site_fract_x
_atom_site_fract_y
_atom_site_fract_z
Si Si1 0.185215 0.639560 0.897342
Si Si2 0.186170 0.940332 0.750000
Si Si3 0.814034 0.138359 0.095860
Si Si4 0.313373 0.562715 0.750000
Si Si5 0.686243 0.248900 0.400143
O O1 0.249219 0.589951 0.839782
O O2 0.257011 0.695094 0.855065
O O3 0.000000 0.643016 0.889095
O O4 0.232760 0.630019 0.000066
O O5 0.244521 0.909740 0.660472
O O6 0.000000 0.939501 0.750000
O O7 0.251034 0.001242 0.750000
O O8 0.760431 0.194835 0.143430
O O9 0.000000 0.138800 0.081589
O O10 0.500000 0.564773 0.750000
O O11 0.500000 0.245166 0.396205
O O12 0.750000 0.250000 0.500000
#
# Coordination Sequence:
#
# PCOD8256407 Si02
#       5
#    16   8  16   8  16
#     4  11  22  38  58  86 118 152 187 232 288 344
#     4   9  22  40  61  84 111 148 196 239 280 333
#     4  10  19  37  61  87 116 151 189 235 286 340
#     4  11  23  42  61  82 109 148 198 243 280 333
#     4  10  18  32  55  86 117 150 187 231 281 340
#
# _framework density 20.436509999999998
#
# number of rings (size 3 to 8) (size 9 to 14) (size 15 to 20)
#    0.000    1.750    0.000    8.625    0.000    2.000 
#    0.000   16.250    0.000    0.000    0.000    0.000 
#    0.000    0.000    0.000    0.000    0.000    0.000 
#
# Total GULP energy -396726.678384 kJ/mol
# GULP energy per Si atom -12397.708700 kJ/mol
# Density = 2.039000 g / cm^3
# Si number density = 20.436510 Si / 1000 Ang^3
#
#
#
# Elastic Constant Matrix: (Units=GPa)
#
#
# Indices 1 2 3 4 5 6 
#
# 1 111.9207 39.5511 16.6124 0.0000 0.0000 0.0000
# 2 39.5511 200.9484 70.6254 0.0000 0.0000 0.0000
# 3 16.6124 70.6254 91.6047 0.0000 0.0000 0.0000
# 4 0.0000 0.0000 0.0000 46.3686 0.0000 0.0000
# 5 0.0000 0.0000 0.0000 0.0000 11.2556 0.0000
# 6 0.0000 0.0000 0.0000 0.0000 0.0000 30.6595
#
#
#
# Elastic Compliance Matrix: (Units=1/GPa)
#
#
# Indices 1 2 3 4 5 6 
#
# 1 0.009613 -0.001755 -0.000390 0.000000 0.000000 0.000000
# 2 -0.001755 0.007146 -0.005191 0.000000 0.000000 0.000000
# 3 -0.000390 -0.005191 0.014990 0.000000 0.000000 0.000000
# 4 0.000000 0.000000 0.000000 0.021566 0.000000 0.000000
# 5 0.000000 0.000000 0.000000 0.000000 0.088845 0.000000
# 6 0.000000 0.000000 0.000000 0.000000 0.000000 0.032616
#
#
# Mechanical properties :
#
#
# Convention : Reuss Voigt Hill
#
# Bulk Modulus (GPa) = 58.56245 73.11685 65.83965
# Shear Modulus (GPa) = 25.62237 36.16906 30.89571
#
# Velocity S-wave (km/s) = 3.54468 4.21149 3.89239
# Velocity P-wave (km/s) = 6.74322 7.71389 7.24483
#
# Compressibility (1/GPa) = 0.01707579
#
# Stress axis : x y z
#
# Youngs Moduli (GPa) = 104.02604 139.93061 66.71207
#
# Poissons Ratio (x) = 0.24556 0.02604
# Poissons Ratio (y) = 0.18255 0.34633
# Poissons Ratio (z) = 0.04061 0.72645
#
# Static dielectric constant tensor:
#      x y z
#    x 3.674210 0.000000 0.000000 
#    y 0.000000 4.544390 0.000000 
#    z 0.000000 0.000000 3.540800 
# 
# 
# High freq. dielectric constant tensor:
#      x y z
#    x 1.802960 0.000000 0.000000 
#    y 0.000000 1.809120 0.000000 
#    z 0.000000 0.000000 1.789000 
# 
# From -- ./inp_files/39904.got.cif
#   From: 2010.03.12/outbox.cif.g09.slc.cpg/sg63_20_cif.got.tgz:39904.got - 2010.04.10 19:34:48.
