data_PCOD8256218
_publ_section_title
;
Structure prediction by ZEFSAII (Michael W. Deem and Ramdas Pophale) SiO2 
 PCOD8256218
Probable space group: C M C M
;
_chemical_formula_sum "Si O2"
_cell_formula_units_Z 80
_cell_length_a 24.837571
_cell_length_b 20.430165
_cell_length_c 9.017397
_cell_angle_alpha 90.000000
_cell_angle_beta 90.000000
_cell_angle_gamma 90.000000
_cell_volume 4575.748922
_symmetry_space_group_name_H-M "C M C M"
_symmetry_group_IT_number 63
_symmetry_cell_setting 'orthorhombic'
loop_
_space_group_symop_operation_xyz
x,y,z
-x,-y,1/2+z
x,-y,-z
-x,y,1/2-z
-x,-y,-z
x,y,1/2-z
-x,y,z
x,-y,1/2+z
1/2+x,1/2+y,z
1/2-x,1/2-y,1/2+z
1/2+x,1/2-y,-z
1/2-x,1/2+y,1/2-z
1/2-x,1/2-y,-z
1/2+x,1/2+y,1/2-z
1/2-x,1/2+y,z
1/2+x,1/2-y,1/2+z
loop_
_atom_site_type_symbol
_atom_site_label
_atom_site_fract_x
_atom_site_fract_y
_atom_site_fract_z
Si Si1 0.105610 0.381501 0.921741
Si Si2 0.284769 0.693475 0.425731
Si Si3 0.500000 0.727948 0.419044
Si Si4 0.607662 0.271983 0.076379
Si Si5 0.218758 0.434174 0.923988
Si Si6 0.500000 0.116243 0.916025
O O1 0.095730 0.394563 0.750000
O O2 0.114177 0.304944 0.952012
O O3 0.158630 0.417835 0.981837
O O4 0.053782 0.410477 0.005722
O O5 0.286264 0.705605 0.250000
O O6 0.250000 0.750000 0.500000
O O7 0.344300 0.691405 0.492822
O O8 0.258578 0.624221 0.466927
O O9 0.500000 0.702171 0.250000
O O10 0.447673 0.701477 0.505242
O O11 0.500000 0.805885 0.423424
O O12 0.608631 0.288967 0.250000
O O13 0.217656 0.445069 0.750000
O O14 0.240070 0.500000 0.000000
O O15 0.500000 0.089377 0.750000
#
# Coordination Sequence:
#
# PCOD8256218 Si02
#       6
#    16  16   8  16  16   8
#     4   9  17  32  49  68  99 135 170 212 259 305
#     4  11  21  35  54  79 107 136 176 221 264 315
#     4   9  17  29  45  74 109 138 169 211 261 309
#     4  10  18  31  51  77 106 138 173 214 263 311
#     4  10  22  38  53  74 103 137 176 217 264 314
#     4   9  17  27  44  72  97 126 173 217 253 300
#
# _framework density 17.483476
#
# number of rings (size 3 to 8) (size 9 to 14) (size 15 to 20)
#    0.000    2.200    2.000    1.800    0.000    5.600 
#    0.000    0.500    0.000    0.000    0.000    0.700 
#    0.000    0.000    0.000    0.000    0.000    0.000 
#
# Total GULP energy -496063.606566 kJ/mol
# GULP energy per Si atom -12401.590164 kJ/mol
# Density = 1.744368 g / cm^3
# Si number density = 17.483476 Si / 1000 Ang^3
#
#
#
# Elastic Constant Matrix: (Units=GPa)
#
#
# Indices 1 2 3 4 5 6 
#
# 1 151.5307 55.9385 67.5864 0.0000 0.0000 0.0000
# 2 55.9385 74.8675 49.1571 0.0000 0.0000 0.0000
# 3 67.5864 49.1571 97.7957 0.0000 0.0000 0.0000
# 4 0.0000 0.0000 0.0000 22.2187 0.0000 0.0000
# 5 0.0000 0.0000 0.0000 0.0000 37.1600 0.0000
# 6 0.0000 0.0000 0.0000 0.0000 0.0000 16.2918
#
#
#
# Elastic Compliance Matrix: (Units=1/GPa)
#
#
# Indices 1 2 3 4 5 6 
#
# 1 0.010504 -0.004600 -0.004947 0.000000 0.000000 0.000000
# 2 -0.004600 0.021951 -0.007855 0.000000 0.000000 0.000000
# 3 -0.004947 -0.007855 0.017592 0.000000 0.000000 0.000000
# 4 0.000000 0.000000 0.000000 0.045007 0.000000 0.000000
# 5 0.000000 0.000000 0.000000 0.000000 0.026911 0.000000
# 6 0.000000 0.000000 0.000000 0.000000 0.000000 0.061381
#
#
# Mechanical properties :
#
#
# Convention : Reuss Voigt Hill
#
# Bulk Modulus (GPa) = 65.59940 74.39533 69.99736
# Shear Modulus (GPa) = 22.39830 25.23487 23.81658
#
# Velocity S-wave (km/s) = 3.58315 3.80327 3.69485
# Velocity P-wave (km/s) = 7.39735 7.86961 7.63713
#
# Compressibility (1/GPa) = 0.01524404
#
# Stress axis : x y z
#
# Youngs Moduli (GPa) = 95.20209 45.55551 56.84247
#
# Poissons Ratio (x) = 0.20956 0.28120
# Poissons Ratio (y) = 0.43793 0.44648
# Poissons Ratio (z) = 0.47097 0.35783
#
# Static dielectric constant tensor:
#      x y z
#    x 3.531600 0.000000 0.000000 
#    y 0.000000 2.894590 0.000000 
#    z 0.000000 0.000000 3.319400 
# 
# 
# High freq. dielectric constant tensor:
#      x y z
#    x 1.687480 0.000000 0.000000 
#    y 0.000000 1.628330 0.000000 
#    z 0.000000 0.000000 1.685180 
# 
# From -- ./inp_files/10063.got.cif
#   From: 2010.03.12/outbox.cif.g09.slc.cpg/sg63_6_cif.got.tgz:10063.got - 2010.04.10 19:34:48.
