data_PCOD8256116
_publ_section_title
;
Structure prediction by ZEFSAII (Michael W. Deem and Ramdas Pophale) SiO2 
 PCOD8256116
Probable space group: C M C M
;
_chemical_formula_sum "Si O2"
_cell_formula_units_Z 72
_cell_length_a 15.673620
_cell_length_b 29.019589
_cell_length_c 8.648561
_cell_angle_alpha 90.000000
_cell_angle_beta 90.000000
_cell_angle_gamma 90.000000
_cell_volume 3933.728874
_symmetry_space_group_name_H-M "C M C M"
_symmetry_group_IT_number 63
_symmetry_cell_setting 'orthorhombic'
loop_
_space_group_symop_operation_xyz
x,y,z
-x,-y,1/2+z
x,-y,-z
-x,y,1/2-z
-x,-y,-z
x,y,1/2-z
-x,y,z
x,-y,1/2+z
1/2+x,1/2+y,z
1/2-x,1/2-y,1/2+z
1/2+x,1/2-y,-z
1/2-x,1/2+y,1/2-z
1/2-x,1/2-y,-z
1/2+x,1/2+y,1/2-z
1/2-x,1/2+y,z
1/2+x,1/2-y,1/2+z
loop_
_atom_site_type_symbol
_atom_site_label
_atom_site_fract_x
_atom_site_fract_y
_atom_site_fract_z
Si Si1 0.500000 0.111012 0.070028
Si Si2 0.176960 0.389474 0.433391
Si Si3 0.000000 0.051154 0.933763
Si Si4 0.000000 0.706747 0.573303
Si Si5 0.183900 0.715935 0.925766
Si Si6 0.172936 0.050735 0.067211
O O1 0.500000 0.097787 0.250000
O O2 0.415003 0.090999 0.988056
O O3 0.500000 0.165914 0.049675
O O4 0.185562 0.395243 0.250000
O O5 0.187753 0.336355 0.488593
O O6 0.248340 0.417907 0.520993
O O7 0.000000 0.051848 0.750000
O O8 0.913232 0.074455 0.997768
O O9 0.000000 0.000000 0.000000
O O10 0.087088 0.735911 0.549793
O O11 0.000000 0.685904 0.750000
O O12 0.210471 0.714679 0.750000
O O13 0.250000 0.750000 0.000000
O O14 0.164446 0.047349 0.250000
O O15 0.187521 0.000000 0.000000
#
# Coordination Sequence:
#
# PCOD8256116 Si02
#       6
#     8  16   8   8  16  16
#     4  10  18  30  51  78 101 130 171 214 255 306
#     4  10  20  36  54  75 104 140 174 211 257 308
#     4  10  18  32  53  76 103 138 174 210 252 306
#     4   8  16  32  49  68  97 136 170 202 249 308
#     4   9  18  32  52  74 100 132 169 209 253 301
#     4  11  21  35  55  80 106 136 173 215 257 304
#
# _framework density 18.303243999999999
#
# number of rings (size 3 to 8) (size 9 to 14) (size 15 to 20)
#    0.000    2.222    0.000    7.333    0.000    4.444 
#    0.000    1.667    0.000    5.333    0.000    0.000 
#    0.000    0.000    0.000    0.000    0.000    0.000 
#
# Total GULP energy -446127.659849 kJ/mol
# GULP energy per Si atom -12392.434996 kJ/mol
# Density = 1.826158 g / cm^3
# Si number density = 18.303244 Si / 1000 Ang^3
#
#
#
# Elastic Constant Matrix: (Units=GPa)
#
#
# Indices 1 2 3 4 5 6 
#
# 1 188.1031 60.7697 61.6766 0.0000 0.0000 0.0000
# 2 60.7697 54.8356 31.2740 0.0000 0.0000 0.0000
# 3 61.6766 31.2740 122.6441 0.0000 0.0000 0.0000
# 4 0.0000 0.0000 0.0000 26.1530 0.0000 0.0000
# 5 0.0000 0.0000 0.0000 0.0000 37.9031 0.0000
# 6 0.0000 0.0000 0.0000 0.0000 0.0000 25.1315
#
#
#
# Elastic Compliance Matrix: (Units=1/GPa)
#
#
# Indices 1 2 3 4 5 6 
#
# 1 0.008788 -0.008447 -0.002265 0.000000 0.000000 0.000000
# 2 -0.008447 0.029459 -0.003264 0.000000 0.000000 0.000000
# 3 -0.002265 -0.003264 0.010125 0.000000 0.000000 0.000000
# 4 0.000000 0.000000 0.000000 0.038237 0.000000 0.000000
# 5 0.000000 0.000000 0.000000 0.000000 0.026383 0.000000
# 6 0.000000 0.000000 0.000000 0.000000 0.000000 0.039791
#
#
# Mechanical properties :
#
#
# Convention : Reuss Voigt Hill
#
# Bulk Modulus (GPa) = 48.97333 74.78038 61.87686
# Shear Modulus (GPa) = 26.66074 31.96170 29.31122
#
# Velocity S-wave (km/s) = 3.82070 4.18333 4.00612
# Velocity P-wave (km/s) = 6.80282 8.01740 7.43495
#
# Compressibility (1/GPa) = 0.02041928
#
# Stress axis : x y z
#
# Youngs Moduli (GPa) = 113.79216 33.94557 98.76277
#
# Poissons Ratio (x) = 0.28674 0.22374
# Poissons Ratio (y) = 0.96119 0.32237
# Poissons Ratio (z) = 0.25779 0.11080
#
# Static dielectric constant tensor:
#      x y z
#    x 3.939300 0.000000 0.000000 
#    y 0.000000 1.307850 0.000000 
#    z 0.000000 0.000000 3.427160 
# 
# 
# High freq. dielectric constant tensor:
#      x y z
#    x 1.738630 0.000000 0.000000 
#    y 0.000000 1.655050 0.000000 
#    z 0.000000 0.000000 1.719770 
# 
# From -- ./inp_files/4988.got.cif
#   From: 2010.03.12/outbox.cif.g09.slc.cpg/sg63_3_cif.got.tgz:4988.got - 2010.04.10 19:34:48.
