data_PCOD8256469
_publ_section_title
;
Structure prediction by ZEFSAII (Michael W. Deem and Ramdas Pophale) SiO2 
 PCOD8256469
Probable space group: C M C M
;
_chemical_formula_sum "Si O2"
_cell_formula_units_Z 96
_cell_length_a 21.918209
_cell_length_b 8.952072
_cell_length_c 24.243386
_cell_angle_alpha 90.000000
_cell_angle_beta 90.000000
_cell_angle_gamma 90.000000
_cell_volume 4756.876833
_symmetry_space_group_name_H-M "C M C M"
_symmetry_group_IT_number 63
_symmetry_cell_setting 'orthorhombic'
loop_
_space_group_symop_operation_xyz
x,y,z
-x,-y,1/2+z
x,-y,-z
-x,y,1/2-z
-x,-y,-z
x,y,1/2-z
-x,y,z
x,-y,1/2+z
1/2+x,1/2+y,z
1/2-x,1/2-y,1/2+z
1/2+x,1/2-y,-z
1/2-x,1/2+y,1/2-z
1/2-x,1/2-y,-z
1/2+x,1/2+y,1/2-z
1/2-x,1/2+y,z
1/2+x,1/2-y,1/2+z
loop_
_atom_site_type_symbol
_atom_site_label
_atom_site_fract_x
_atom_site_fract_y
_atom_site_fract_z
Si Si1 0.798697 0.842172 0.187650
Si Si2 0.928999 0.657146 0.620629
Si Si3 0.643878 0.863591 0.901766
Si Si4 0.265949 0.379029 0.959024
Si Si5 0.066073 0.322076 0.501996
Si Si6 0.680604 0.677969 0.347357
O O1 0.815678 0.798359 0.250000
O O2 0.843168 0.752701 0.147045
O O3 0.728461 0.799316 0.175989
O O4 0.808208 0.019216 0.181019
O O5 0.902258 0.488892 0.620542
O O6 0.922349 0.733061 0.560189
O O7 0.888037 0.757769 0.662616
O O8 0.000000 0.653169 0.639608
O O9 0.706236 0.937703 0.925054
O O10 0.614993 0.767767 0.952665
O O11 0.314734 0.331585 0.913643
O O12 0.294334 0.500000 0.000000
O O13 0.250000 0.250000 0.000000
O O14 0.068543 0.500000 0.500000
O O15 0.000000 0.266238 0.522381
#
# Coordination Sequence:
#
# PCOD8256469 Si02
#       6
#    16  16  16  16  16  16
#     4  11  24  41  63  85 110 148 195 254 304 342
#     4  10  20  36  60  88 121 158 192 228 278 352
#     4  10  18  33  57  86 116 150 192 234 287 343
#     4  11  19  29  50  84 122 149 178 230 290 351
#     4   8  14  27  51  83 118 154 187 220 266 335
#     4  11  22  38  59  86 116 151 193 237 293 351
#
# _framework density 20.181308999999999
#
# number of rings (size 3 to 8) (size 9 to 14) (size 15 to 20)
#    0.000    1.833    0.000    9.500    0.000    0.000 
#    0.000    2.500    0.000   10.500    0.000    0.000 
#    0.000    0.000    0.000    0.000    0.000    0.000 
#
# Total GULP energy -594801.523798 kJ/mol
# GULP energy per Si atom -12391.698412 kJ/mol
# Density = 2.013538 g / cm^3
# Si number density = 20.181309 Si / 1000 Ang^3
#
#
#
# Elastic Constant Matrix: (Units=GPa)
#
#
# Indices 1 2 3 4 5 6 
#
# 1 140.6965 41.4826 21.9314 0.0000 0.0000 0.0000
# 2 41.4826 82.6434 22.8811 0.0000 0.0000 0.0000
# 3 21.9314 22.8811 76.0277 0.0000 0.0000 0.0000
# 4 0.0000 0.0000 0.0000 26.5908 0.0000 0.0000
# 5 0.0000 0.0000 0.0000 0.0000 11.8772 0.0000
# 6 0.0000 0.0000 0.0000 0.0000 0.0000 27.7429
#
#
#
# Elastic Compliance Matrix: (Units=1/GPa)
#
#
# Indices 1 2 3 4 5 6 
#
# 1 0.008452 -0.003892 -0.001267 0.000000 0.000000 0.000000
# 2 -0.003892 0.014992 -0.003389 0.000000 0.000000 0.000000
# 3 -0.001267 -0.003389 0.014539 0.000000 0.000000 0.000000
# 4 0.000000 0.000000 0.000000 0.037607 0.000000 0.000000
# 5 0.000000 0.000000 0.000000 0.000000 0.084195 0.000000
# 6 0.000000 0.000000 0.000000 0.000000 0.000000 0.036045
#
#
# Mechanical properties :
#
#
# Convention : Reuss Voigt Hill
#
# Bulk Modulus (GPa) = 47.87702 52.43975 50.15839
# Shear Modulus (GPa) = 22.73872 27.44701 25.09286
#
# Velocity S-wave (km/s) = 3.36031 3.69185 3.52997
# Velocity P-wave (km/s) = 6.23141 6.64934 6.44377
#
# Compressibility (1/GPa) = 0.02088685
#
# Stress axis : x y z
#
# Youngs Moduli (GPa) = 118.30860 66.70179 68.78237
#
# Poissons Ratio (x) = 0.25960 0.08714
# Poissons Ratio (y) = 0.46045 0.23312
# Poissons Ratio (z) = 0.14989 0.22607
#
# Static dielectric constant tensor:
#      x y z
#    x 3.995640 0.000000 0.000000 
#    y 0.000000 3.280400 0.000000 
#    z 0.000000 0.000000 3.964630 
# 
# 
# High freq. dielectric constant tensor:
#      x y z
#    x 1.784770 0.000000 0.000000 
#    y 0.000000 1.765570 0.000000 
#    z 0.000000 0.000000 1.773400 
# 
# From -- ./inp_files/70628.got.cif
#   From: 2010.03.12/outbox.cif.g09.slc.cpg/sg63_36_cif.got.tgz:70628.got - 2010.04.10 19:34:48.
