data_PCOD8256929
_publ_section_title
;
Structure prediction by ZEFSAII (Michael W. Deem and Ramdas Pophale) SiO2 
 PCOD8256929
Probable space group: C M C M
;
_chemical_formula_sum "Si O2"
_cell_formula_units_Z 104
_cell_length_a 28.424295
_cell_length_b 24.235651
_cell_length_c 8.959603
_cell_angle_alpha 90.000000
_cell_angle_beta 90.000000
_cell_angle_gamma 90.000000
_cell_volume 6172.102904
_symmetry_space_group_name_H-M "C M C M"
_symmetry_group_IT_number 63
_symmetry_cell_setting 'orthorhombic'
loop_
_space_group_symop_operation_xyz
x,y,z
-x,-y,1/2+z
x,-y,-z
-x,y,1/2-z
-x,-y,-z
x,y,1/2-z
-x,y,z
x,-y,1/2+z
1/2+x,1/2+y,z
1/2-x,1/2-y,1/2+z
1/2+x,1/2-y,-z
1/2-x,1/2+y,1/2-z
1/2-x,1/2-y,-z
1/2+x,1/2+y,1/2-z
1/2-x,1/2+y,z
1/2+x,1/2-y,1/2+z
loop_
_atom_site_type_symbol
_atom_site_label
_atom_site_fract_x
_atom_site_fract_y
_atom_site_fract_z
Si Si1 0.945849 0.153010 0.923899
Si Si2 0.672097 0.060010 0.925697
Si Si3 0.876144 0.059220 0.574383
Si Si4 0.500000 0.058996 0.074440
Si Si5 0.225830 0.942999 0.078893
Si Si6 0.909359 0.627673 0.073025
Si Si7 0.054568 0.733700 0.575495
O O1 0.936385 0.165070 0.750000
O O2 0.914780 0.102234 0.984575
O O3 0.000000 0.137600 0.953316
O O4 0.930505 0.206348 0.017135
O O5 0.661201 0.054015 0.750000
O O6 0.724362 0.087524 0.953301
O O7 0.636823 0.102159 0.001236
O O8 0.666682 0.000000 0.000000
O O9 0.882092 0.050869 0.750000
O O10 0.824077 0.084913 0.532402
O O11 0.884407 0.000000 0.500000
O O12 0.500000 0.050584 0.250000
O O13 0.454159 0.092035 0.021057
O O14 0.500000 0.000000 0.000000
O O15 0.222371 0.957948 0.250000
O O16 0.230388 0.000000 0.000000
O O17 0.904352 0.629140 0.250000
O O18 0.914447 0.689416 0.012381
O O19 0.065332 0.729560 0.750000
O O20 0.000000 0.722783 0.539110
#
# Coordination Sequence:
#
# PCOD8256929 Si02
#       7
#    16  16  16   8  16  16  16
#     4   9  18  32  50  72 100 132 163 197 237 286
#     4  10  19  31  47  70  97 126 161 202 245 287
#     4   9  17  30  49  74 102 133 163 193 237 286
#     4  10  22  34  46  66  94 126 155 188 235 286
#     4   8  15  28  46  67  94 126 161 198 235 282
#     4  11  21  34  50  69  94 127 162 199 243 291
#     4  10  20  34  52  72  93 123 164 205 242 283
#
# _framework density 16.850010000000001
#
# number of rings (size 3 to 8) (size 9 to 14) (size 15 to 20)
#    0.000    2.462    0.769    1.846    0.000    4.615 
#    0.000    0.000    0.000    0.923    0.000    0.000 
#    0.000    0.000    0.000    0.000    0.000    0.000 
#
# Total GULP energy -644417.258631 kJ/mol
# GULP energy per Si atom -12392.639589 kJ/mol
# Density = 1.681166 g / cm^3
# Si number density = 16.850010 Si / 1000 Ang^3
#
#
#
# Elastic Constant Matrix: (Units=GPa)
#
#
# Indices 1 2 3 4 5 6 
#
# 1 127.9594 78.0953 45.5898 0.0000 0.0000 0.0000
# 2 78.0953 110.5309 44.2317 0.0000 0.0000 0.0000
# 3 45.5898 44.2317 59.4281 0.0000 0.0000 0.0000
# 4 0.0000 0.0000 0.0000 27.9807 0.0000 0.0000
# 5 0.0000 0.0000 0.0000 0.0000 24.8042 0.0000
# 6 0.0000 0.0000 0.0000 0.0000 0.0000 10.8647
#
#
#
# Elastic Compliance Matrix: (Units=1/GPa)
#
#
# Indices 1 2 3 4 5 6 
#
# 1 0.014737 -0.008386 -0.005064 0.000000 0.000000 0.000000
# 2 -0.008386 0.017657 -0.006709 0.000000 0.000000 0.000000
# 3 -0.005064 -0.006709 0.025705 0.000000 0.000000 0.000000
# 4 0.000000 0.000000 0.000000 0.035739 0.000000 0.000000
# 5 0.000000 0.000000 0.000000 0.000000 0.040316 0.000000
# 6 0.000000 0.000000 0.000000 0.000000 0.000000 0.092041
#
#
# Mechanical properties :
#
#
# Convention : Reuss Voigt Hill
#
# Bulk Modulus (GPa) = 56.23656 70.41688 63.32672
# Shear Modulus (GPa) = 18.35266 21.39669 19.87467
#
# Velocity S-wave (km/s) = 3.30385 3.56734 3.43812
# Velocity P-wave (km/s) = 6.92829 7.67131 7.30925
#
# Compressibility (1/GPa) = 0.01778203
#
# Stress axis : x y z
#
# Youngs Moduli (GPa) = 67.85469 56.63450 38.90304
#
# Poissons Ratio (x) = 0.47495 0.19700
# Poissons Ratio (y) = 0.56904 0.26098
# Poissons Ratio (z) = 0.34361 0.37994
#
# Static dielectric constant tensor:
#      x y z
#    x 3.698810 0.000000 0.000000 
#    y 0.000000 2.961850 0.000000 
#    z 0.000000 0.000000 3.211560 
# 
# 
# High freq. dielectric constant tensor:
#      x y z
#    x 1.656910 0.000000 0.000000 
#    y 0.000000 1.623230 0.000000 
#    z 0.000000 0.000000 1.656710 
# 
# From -- ./inp_files/12879.got.cif
#   From: 2010.03.12/outbox.cif.g09.slc.cpg/sg63_7_cif.got.tgz:12879.got - 2010.04.10 19:34:48.
