data_PCOD8256653
_publ_section_title
;
Structure prediction by ZEFSAII (Michael W. Deem and Ramdas Pophale) SiO2 
 PCOD8256653
Probable space group: C M C M
;
_chemical_formula_sum "Si O2"
_cell_formula_units_Z 96
_cell_length_a 9.216412
_cell_length_b 25.839756
_cell_length_c 23.484342
_cell_angle_alpha 90.000000
_cell_angle_beta 90.000000
_cell_angle_gamma 90.000000
_cell_volume 5592.792226
_symmetry_space_group_name_H-M "C M C M"
_symmetry_group_IT_number 63
_symmetry_cell_setting 'orthorhombic'
loop_
_space_group_symop_operation_xyz
x,y,z
-x,-y,1/2+z
x,-y,-z
-x,y,1/2-z
-x,-y,-z
x,y,1/2-z
-x,y,z
x,-y,1/2+z
1/2+x,1/2+y,z
1/2-x,1/2-y,1/2+z
1/2+x,1/2-y,-z
1/2-x,1/2+y,1/2-z
1/2-x,1/2-y,-z
1/2+x,1/2+y,1/2-z
1/2-x,1/2+y,z
1/2+x,1/2-y,1/2+z
loop_
_atom_site_type_symbol
_atom_site_label
_atom_site_fract_x
_atom_site_fract_y
_atom_site_fract_z
Si Si1 0.327388 0.439286 0.185622
Si Si2 0.828402 0.845481 0.625418
Si Si3 0.171325 0.843783 0.115772
Si Si4 0.832639 0.745225 0.315974
Si Si5 0.172301 0.053390 0.313735
Si Si6 0.670414 0.304220 0.504211
O O1 0.276276 0.426899 0.250000
O O2 0.500000 0.438234 0.182952
O O3 0.261114 0.396135 0.142920
O O4 0.271141 0.496466 0.167089
O O5 0.757490 0.805333 0.668610
O O6 0.772080 0.902785 0.642537
O O7 0.779849 0.834509 0.560701
O O8 0.000000 0.840879 0.632521
O O9 0.231865 0.793493 0.148612
O O10 0.000000 0.845111 0.124356
O O11 0.214175 0.840142 0.049372
O O12 0.813223 0.758357 0.250000
O O13 0.000000 0.735052 0.331751
O O14 0.229332 0.065915 0.250000
O O15 0.000000 0.052648 0.312925
O O16 0.500000 0.292559 0.504365
O O17 0.750000 0.250000 0.500000
#
# Coordination Sequence:
#
# PCOD8256653 Si02
#       6
#    16  16  16  16  16  16
#     4   8  13  23  41  63  87 117 148 180 226 274
#     4  10  19  30  45  66  92 121 152 182 220 271
#     4   9  16  27  42  62  89 116 149 189 223 259
#     4  10  19  29  44  67  92 117 147 186 229 268
#     4   8  14  25  41  62  89 118 146 179 222 271
#     4  10  19  31  46  64  89 123 155 184 224 267
#
# _framework density 17.164950000000001
#
# number of rings (size 3 to 8) (size 9 to 14) (size 15 to 20)
#    0.000    2.833    1.667    2.000    0.000    3.000 
#    0.000    0.833    0.000    5.000    0.000    2.333 
#    0.000    5.333    0.000    0.000    0.000    0.000 
#
# Total GULP energy -594962.334369 kJ/mol
# GULP energy per Si atom -12395.048633 kJ/mol
# Density = 1.712588 g / cm^3
# Si number density = 17.164950 Si / 1000 Ang^3
#
#
#
# Elastic Constant Matrix: (Units=GPa)
#
#
# Indices 1 2 3 4 5 6 
#
# 1 11.1041 16.3027 15.4481 0.0000 0.0000 0.0000
# 2 16.3027 152.6305 69.7960 0.0000 0.0000 0.0000
# 3 15.4481 69.7960 106.1683 0.0000 0.0000 0.0000
# 4 0.0000 0.0000 0.0000 31.6558 0.0000 0.0000
# 5 0.0000 0.0000 0.0000 0.0000 15.2819 0.0000
# 6 0.0000 0.0000 0.0000 0.0000 0.0000 16.6600
#
#
#
# Elastic Compliance Matrix: (Units=1/GPa)
#
#
# Indices 1 2 3 4 5 6 
#
# 1 0.117614 -0.006773 -0.012661 0.000000 0.000000 0.000000
# 2 -0.006773 0.009758 -0.005430 0.000000 0.000000 0.000000
# 3 -0.012661 -0.005430 0.014831 0.000000 0.000000 0.000000
# 4 0.000000 0.000000 0.000000 0.031590 0.000000 0.000000
# 5 0.000000 0.000000 0.000000 0.000000 0.065437 0.000000
# 6 0.000000 0.000000 0.000000 0.000000 0.000000 0.060024
#
#
# Mechanical properties :
#
#
# Convention : Reuss Voigt Hill
#
# Bulk Modulus (GPa) = 10.81359 52.55516 31.68437
# Shear Modulus (GPa) = 13.16461 23.94326 18.55394
#
# Velocity S-wave (km/s) = 2.77239 3.73888 3.29130
# Velocity P-wave (km/s) = 4.06960 7.02304 5.73955
#
# Compressibility (1/GPa) = 0.09247625
#
# Stress axis : x y z
#
# Youngs Moduli (GPa) = 8.50237 102.47949 67.42769
#
# Poissons Ratio (x) = 0.69407 0.85371
# Poissons Ratio (y) = 0.05758 0.36610
# Poissons Ratio (z) = 0.10765 0.55642
#
# Static dielectric constant tensor:
#      x y z
#    x 2.705720 0.000000 0.000000 
#    y 0.000000 3.618790 0.000000 
#    z 0.000000 0.000000 3.445770 
# 
# 
# High freq. dielectric constant tensor:
#      x y z
#    x 1.603270 0.000000 0.000000 
#    y 0.000000 1.670020 0.000000 
#    z 0.000000 0.000000 1.666610 
# 
# From -- ./inp_files/53046.got.cif
#   From: 2010.03.12/outbox.cif.g09.slc.cpg/sg63_27_cif.got.tgz:53046.got - 2010.04.10 19:34:48.
