data_PCOD8256850
_publ_section_title
;
Structure prediction by ZEFSAII (Michael W. Deem and Ramdas Pophale) SiO2 
 PCOD8256850
Probable space group: C M C M
;
_chemical_formula_sum "Si O2"
_cell_formula_units_Z 96
_cell_length_a 20.390660
_cell_length_b 11.458377
_cell_length_c 22.104082
_cell_angle_alpha 90.000000
_cell_angle_beta 90.000000
_cell_angle_gamma 90.000000
_cell_volume 5164.483252
_symmetry_space_group_name_H-M "C M C M"
_symmetry_group_IT_number 63
_symmetry_cell_setting 'orthorhombic'
loop_
_space_group_symop_operation_xyz
x,y,z
-x,-y,1/2+z
x,-y,-z
-x,y,1/2-z
-x,-y,-z
x,y,1/2-z
-x,y,z
x,-y,1/2+z
1/2+x,1/2+y,z
1/2-x,1/2-y,1/2+z
1/2+x,1/2-y,-z
1/2-x,1/2+y,1/2-z
1/2-x,1/2-y,-z
1/2+x,1/2+y,1/2-z
1/2-x,1/2+y,z
1/2+x,1/2-y,1/2+z
loop_
_atom_site_type_symbol
_atom_site_label
_atom_site_fract_x
_atom_site_fract_y
_atom_site_fract_z
Si Si1 0.310905 0.041969 0.893064
Si Si2 0.672571 0.567853 0.114030
Si Si3 0.231382 0.262617 0.182399
Si Si4 0.359684 0.206507 0.386664
Si Si5 0.924528 0.102933 0.819786
Si Si6 0.325819 0.757890 0.017091
O O1 0.309502 0.120187 0.832064
O O2 0.337573 0.119553 0.948435
O O3 0.237671 0.998000 0.908381
O O4 0.359818 0.933936 0.880411
O O5 0.687068 0.648372 0.172620
O O6 0.616295 0.479781 0.135124
O O7 0.649923 0.649524 0.058145
O O8 0.258567 0.266407 0.250000
O O9 0.290518 0.259482 0.135001
O O10 0.415796 0.264509 0.344870
O O11 0.369724 0.241746 0.456699
O O12 0.900324 0.095389 0.750000
O O13 0.000000 0.066493 0.823994
O O14 0.250000 0.750000 0.000000
#
# Coordination Sequence:
#
# PCOD8256850 Si02
#       6
#    16  16  16  16  16  16
#     4  10  19  30  52  82 116 145 173 227 287 347
#     4  10  20  34  54  80 111 146 188 230 279 341
#     4  10  19  30  49  80 114 142 176 233 292 339
#     4  11  21  32  52  81 112 144 186 226 278 339
#     4  11  24  42  59  76 108 155 200 238 277 328
#     4  11  18  32  53  84 118 149 174 219 290 349
#
# _framework density 18.588501999999998
#
# number of rings (size 3 to 8) (size 9 to 14) (size 15 to 20)
#    0.000    1.500    6.667    1.500    0.000    5.333 
#    0.000    1.667    0.000    6.000    0.000    9.333 
#    0.000    0.000    0.000    0.000    0.000    0.000 
#
# Total GULP energy -594987.547912 kJ/mol
# GULP energy per Si atom -12395.573915 kJ/mol
# Density = 1.854619 g / cm^3
# Si number density = 18.588502 Si / 1000 Ang^3
#
#
#
# Elastic Constant Matrix: (Units=GPa)
#
#
# Indices 1 2 3 4 5 6 
#
# 1 40.1025 21.8065 16.3546 0.0000 0.0000 0.0000
# 2 21.8065 115.4257 50.4079 0.0000 0.0000 0.0000
# 3 16.3546 50.4079 127.8482 0.0000 0.0000 0.0000
# 4 0.0000 0.0000 0.0000 22.5233 0.0000 0.0000
# 5 0.0000 0.0000 0.0000 0.0000 17.0548 0.0000
# 6 0.0000 0.0000 0.0000 0.0000 0.0000 18.2577
#
#
#
# Elastic Compliance Matrix: (Units=1/GPa)
#
#
# Indices 1 2 3 4 5 6 
#
# 1 0.028136 -0.004522 -0.001816 0.000000 0.000000 0.000000
# 2 -0.004522 0.011193 -0.003834 0.000000 0.000000 0.000000
# 3 -0.001816 -0.003834 0.009566 0.000000 0.000000 0.000000
# 4 0.000000 0.000000 0.000000 0.044399 0.000000 0.000000
# 5 0.000000 0.000000 0.000000 0.000000 0.058634 0.000000
# 6 0.000000 0.000000 0.000000 0.000000 0.000000 0.054771
#
#
# Mechanical properties :
#
#
# Convention : Reuss Voigt Hill
#
# Bulk Modulus (GPa) = 35.02822 51.16828 43.09825
# Shear Modulus (GPa) = 21.13622 24.55433 22.84527
#
# Velocity S-wave (km/s) = 3.37569 3.63842 3.50951
# Velocity P-wave (km/s) = 5.83769 6.72587 6.29746
#
# Compressibility (1/GPa) = 0.02854841
#
# Stress axis : x y z
#
# Youngs Moduli (GPa) = 35.54180 89.34534 104.53752
#
# Poissons Ratio (x) = 0.40405 0.18985
# Poissons Ratio (y) = 0.16073 0.40085
# Poissons Ratio (z) = 0.06455 0.34259
#
# Static dielectric constant tensor:
#      x y z
#    x 2.864570 0.000000 0.000000 
#    y 0.000000 3.841720 0.000000 
#    z 0.000000 0.000000 3.674260 
# 
# 
# High freq. dielectric constant tensor:
#      x y z
#    x 1.645200 0.000000 0.000000 
#    y 0.000000 1.743610 0.000000 
#    z 0.000000 0.000000 1.733950 
# 
# From -- ./inp_files/56577.got.cif
#   From: 2010.03.12/outbox.cif.g09.slc.cpg/sg63_29_cif.got.tgz:56577.got - 2010.04.10 19:34:48.
