data_PCOD8256648
_publ_section_title
;
Structure prediction by ZEFSAII (Michael W. Deem and Ramdas Pophale) SiO2 
 PCOD8256648
Probable space group: C M C M
;
_chemical_formula_sum "Si O2"
_cell_formula_units_Z 96
_cell_length_a 22.762057
_cell_length_b 25.676618
_cell_length_c 9.072754
_cell_angle_alpha 90.000000
_cell_angle_beta 90.000000
_cell_angle_gamma 90.000000
_cell_volume 5302.595050
_symmetry_space_group_name_H-M "C M C M"
_symmetry_group_IT_number 63
_symmetry_cell_setting 'orthorhombic'
loop_
_space_group_symop_operation_xyz
x,y,z
-x,-y,1/2+z
x,-y,-z
-x,y,1/2-z
-x,-y,-z
x,y,1/2-z
-x,y,z
x,-y,1/2+z
1/2+x,1/2+y,z
1/2-x,1/2-y,1/2+z
1/2+x,1/2-y,-z
1/2-x,1/2+y,1/2-z
1/2-x,1/2-y,-z
1/2+x,1/2+y,1/2-z
1/2-x,1/2+y,z
1/2+x,1/2-y,1/2+z
loop_
_atom_site_type_symbol
_atom_site_label
_atom_site_fract_x
_atom_site_fract_y
_atom_site_fract_z
Si Si1 0.766035 0.299640 0.088960
Si Si2 0.147054 0.858581 0.087282
Si Si3 0.931782 0.774917 0.580012
Si Si4 0.670704 0.883834 0.576812
Si Si5 0.567085 0.844530 0.422528
Si Si6 0.786795 0.055104 0.425149
O O1 0.793383 0.286032 0.250000
O O2 0.709602 0.333869 0.113294
O O3 0.750000 0.250000 0.000000
O O4 0.813193 0.327911 0.988470
O O5 0.122527 0.875033 0.250000
O O6 0.103756 0.816981 0.014411
O O7 0.159925 0.908486 0.983397
O O8 0.914560 0.782836 0.750000
O O9 0.917623 0.715440 0.531384
O O10 0.000000 0.786770 0.554863
O O11 0.664638 0.881175 0.750000
O O12 0.605862 0.889577 0.505078
O O13 0.720745 0.925505 0.530957
O O14 0.577333 0.851504 0.250000
O O15 0.500000 0.856325 0.465305
O O16 0.792744 0.051150 0.250000
O O17 0.795943 0.000000 0.500000
#
# Coordination Sequence:
#
# PCOD8256648 Si02
#       6
#    16  16  16  16  16  16
#     4  10  19  29  43  66  97 130 162 199 242 291
#     4  10  20  32  48  72  99 128 164 203 245 294
#     4   9  18  32  49  71 102 139 174 205 239 282
#     4  10  20  32  48  72  99 128 162 202 249 298
#     4   9  18  32  50  73 103 140 176 207 242 286
#     4  10  21  37  56  76  98 125 160 205 257 307
#
# _framework density 18.104341999999999
#
# number of rings (size 3 to 8) (size 9 to 14) (size 15 to 20)
#    0.000    2.333    0.000    4.000    0.000    8.000 
#    0.000    1.667    0.000    1.000    0.000    0.000 
#    0.000    0.000    0.000    0.000    0.000    0.000 
#
# Total GULP energy -594676.729427 kJ/mol
# GULP energy per Si atom -12389.098530 kJ/mol
# Density = 1.806314 g / cm^3
# Si number density = 18.104342 Si / 1000 Ang^3
#
#
#
# Elastic Constant Matrix: (Units=GPa)
#
#
# Indices 1 2 3 4 5 6 
#
# 1 54.8737 -2.1576 18.3579 0.0000 0.0000 0.0000
# 2 -2.1576 33.4938 20.7862 0.0000 0.0000 0.0000
# 3 18.3579 20.7862 63.1844 0.0000 0.0000 0.0000
# 4 0.0000 0.0000 0.0000 28.4084 0.0000 0.0000
# 5 0.0000 0.0000 0.0000 0.0000 29.3719 0.0000
# 6 0.0000 0.0000 0.0000 0.0000 0.0000 24.0910
#
#
#
# Elastic Compliance Matrix: (Units=1/GPa)
#
#
# Indices 1 2 3 4 5 6 
#
# 1 0.021268 0.006540 -0.008331 0.000000 0.000000 0.000000
# 2 0.006540 0.039527 -0.014904 0.000000 0.000000 0.000000
# 3 -0.008331 -0.014904 0.023150 0.000000 0.000000 0.000000
# 4 0.000000 0.000000 0.000000 0.035201 0.000000 0.000000
# 5 0.000000 0.000000 0.000000 0.000000 0.034046 0.000000
# 6 0.000000 0.000000 0.000000 0.000000 0.000000 0.041509
#
#
# Mechanical properties :
#
#
# Convention : Reuss Voigt Hill
#
# Bulk Modulus (GPa) = 19.77999 25.05833 22.41916
# Shear Modulus (GPa) = 20.41304 24.01194 22.21249
#
# Velocity S-wave (km/s) = 3.36150 3.64580 3.50653
# Velocity P-wave (km/s) = 5.10054 5.62082 5.36699
#
# Compressibility (1/GPa) = 0.05055613
#
# Stress axis : x y z
#
# Youngs Moduli (GPa) = 47.01927 25.29939 43.19644
#
# Poissons Ratio (x) = -0.16546 0.35986
# Poissons Ratio (y) = -0.30751 0.64378
# Poissons Ratio (z) = 0.39171 0.37705
#
# Static dielectric constant tensor:
#      x y z
#    x 3.463720 0.000000 0.000000 
#    y 0.000000 3.039020 0.000000 
#    z 0.000000 0.000000 3.836860 
# 
# 
# High freq. dielectric constant tensor:
#      x y z
#    x 1.700840 0.000000 0.000000 
#    y 0.000000 1.669060 0.000000 
#    z 0.000000 0.000000 1.712270 
# 
# From -- ./inp_files/10452.got.cif
#   From: 2010.03.12/outbox.cif.g09.slc.cpg/sg63_6_cif.got.tgz:10452.got - 2010.04.10 19:34:48.
