data_PCOD8256844
_publ_section_title
;
Structure prediction by ZEFSAII (Michael W. Deem and Ramdas Pophale) SiO2 
 PCOD8256844
Probable space group: C M C M
;
_chemical_formula_sum "Si O2"
_cell_formula_units_Z 88
_cell_length_a 26.203494
_cell_length_b 19.639985
_cell_length_c 9.387027
_cell_angle_alpha 90.000000
_cell_angle_beta 90.000000
_cell_angle_gamma 90.000000
_cell_volume 4830.904178
_symmetry_space_group_name_H-M "C M C M"
_symmetry_group_IT_number 63
_symmetry_cell_setting 'orthorhombic'
loop_
_space_group_symop_operation_xyz
x,y,z
-x,-y,1/2+z
x,-y,-z
-x,y,1/2-z
-x,-y,-z
x,y,1/2-z
-x,y,z
x,-y,1/2+z
1/2+x,1/2+y,z
1/2-x,1/2-y,1/2+z
1/2+x,1/2-y,-z
1/2-x,1/2+y,1/2-z
1/2-x,1/2-y,-z
1/2+x,1/2+y,1/2-z
1/2-x,1/2+y,z
1/2+x,1/2-y,1/2+z
loop_
_atom_site_type_symbol
_atom_site_label
_atom_site_fract_x
_atom_site_fract_y
_atom_site_fract_z
Si Si1 0.092369 0.669021 0.416885
Si Si2 0.395866 0.695989 0.418537
Si Si3 0.440878 0.441929 0.595828
Si Si4 0.703514 0.678702 0.908109
Si Si5 0.292952 0.161502 0.405818
Si Si6 0.500000 0.070493 0.083258
O O1 0.088772 0.688085 0.250000
O O2 0.081650 0.736869 0.507103
O O3 0.149339 0.641909 0.453778
O O4 0.050593 0.612745 0.459506
O O5 0.390392 0.709871 0.250000
O O6 0.434505 0.635217 0.458445
O O7 0.342662 0.670192 0.482663
O O8 0.414163 0.500000 0.500000
O O9 0.414304 0.447730 0.750000
O O10 0.500000 0.458708 0.607590
O O11 0.692315 0.648195 0.750000
O O12 0.714214 0.758059 0.890310
O O13 0.752177 0.637936 0.975011
O O14 0.281772 0.128516 0.250000
O O15 0.500000 0.054022 0.250000
O O16 0.500000 0.000000 0.000000
#
# Coordination Sequence:
#
# PCOD8256844 Si02
#       6
#    16  16  16  16  16   8
#     4   9  19  34  52  76 103 132 167 208 251 302
#     4  10  19  30  49  76 105 133 167 210 252 295
#     4   9  19  34  49  68  96 132 170 205 242 287
#     4   9  16  26  43  69 101 132 164 202 248 299
#     4   8  14  26  44  67  97 129 163 202 246 295
#     4  10  22  40  58  78 105 136 171 210 261 316
#
# _framework density 18.216052000000001
#
# number of rings (size 3 to 8) (size 9 to 14) (size 15 to 20)
#    0.000    2.909    0.000    2.182    1.273    6.545 
#    0.000    0.000    0.000    1.091    0.000    2.545 
#    0.000    0.000    0.000    0.000    0.000    0.000 
#
# Total GULP energy -545192.357058 kJ/mol
# GULP energy per Si atom -12390.735388 kJ/mol
# Density = 1.817459 g / cm^3
# Si number density = 18.216052 Si / 1000 Ang^3
#
#
#
# Elastic Constant Matrix: (Units=GPa)
#
#
# Indices 1 2 3 4 5 6 
#
# 1 93.9224 44.9101 44.4257 0.0000 0.0000 0.0000
# 2 44.9101 90.9688 59.2414 0.0000 0.0000 0.0000
# 3 44.4257 59.2414 100.1851 0.0000 0.0000 0.0000
# 4 0.0000 0.0000 0.0000 25.5590 0.0000 0.0000
# 5 0.0000 0.0000 0.0000 0.0000 24.2097 0.0000
# 6 0.0000 0.0000 0.0000 0.0000 0.0000 5.9592
#
#
#
# Elastic Compliance Matrix: (Units=1/GPa)
#
#
# Indices 1 2 3 4 5 6 
#
# 1 0.014704 -0.004900 -0.003623 0.000000 0.000000 0.000000
# 2 -0.004900 0.019510 -0.009364 0.000000 0.000000 0.000000
# 3 -0.003623 -0.009364 0.017125 0.000000 0.000000 0.000000
# 4 0.000000 0.000000 0.000000 0.039125 0.000000 0.000000
# 5 0.000000 0.000000 0.000000 0.000000 0.041306 0.000000
# 6 0.000000 0.000000 0.000000 0.000000 0.000000 0.167809
#
#
# Mechanical properties :
#
#
# Convention : Reuss Voigt Hill
#
# Bulk Modulus (GPa) = 64.24382 64.69230 64.46806
# Shear Modulus (GPa) = 14.68262 20.24552 17.46407
#
# Velocity S-wave (km/s) = 2.84214 3.33740 3.09968
# Velocity P-wave (km/s) = 6.79077 7.10225 6.94826
#
# Compressibility (1/GPa) = 0.01556570
#
# Stress axis : x y z
#
# Youngs Moduli (GPa) = 68.01093 51.25695 58.39433
#
# Poissons Ratio (x) = 0.25114 0.21155
# Poissons Ratio (y) = 0.33323 0.54679
# Poissons Ratio (z) = 0.24639 0.47995
#
# Static dielectric constant tensor:
#      x y z
#    x 3.450440 0.000000 0.000000 
#    y 0.000000 2.962400 0.000000 
#    z 0.000000 0.000000 3.781720 
# 
# 
# High freq. dielectric constant tensor:
#      x y z
#    x 1.703240 0.000000 0.000000 
#    y 0.000000 1.655540 0.000000 
#    z 0.000000 0.000000 1.716490 
# 
# From -- ./inp_files/14200.got.cif
#   From: 2010.03.12/outbox.cif.g09.slc.cpg/sg63_8_cif.got.tgz:14200.got - 2010.04.10 19:34:48.
