data_PCOD8256825
_publ_section_title
;
Structure prediction by ZEFSAII (Michael W. Deem and Ramdas Pophale) SiO2 
 PCOD8256825
Probable space group: C M C M
;
_chemical_formula_sum "Si O2"
_cell_formula_units_Z 96
_cell_length_a 17.831503
_cell_length_b 11.078195
_cell_length_c 26.211563
_cell_angle_alpha 90.000000
_cell_angle_beta 90.000000
_cell_angle_gamma 90.000000
_cell_volume 5177.854890
_symmetry_space_group_name_H-M "C M C M"
_symmetry_group_IT_number 63
_symmetry_cell_setting 'orthorhombic'
loop_
_space_group_symop_operation_xyz
x,y,z
-x,-y,1/2+z
x,-y,-z
-x,y,1/2-z
-x,-y,-z
x,y,1/2-z
-x,y,z
x,-y,1/2+z
1/2+x,1/2+y,z
1/2-x,1/2-y,1/2+z
1/2+x,1/2-y,-z
1/2-x,1/2+y,1/2-z
1/2-x,1/2-y,-z
1/2+x,1/2+y,1/2-z
1/2-x,1/2+y,z
1/2+x,1/2-y,1/2+z
loop_
_atom_site_type_symbol
_atom_site_label
_atom_site_fract_x
_atom_site_fract_y
_atom_site_fract_z
Si Si1 0.286870 0.478263 0.305758
Si Si2 0.586216 0.486374 0.060005
Si Si3 0.321720 0.317876 0.622708
Si Si4 0.623055 0.130789 0.694380
Si Si5 0.417747 0.126990 0.307376
Si Si6 0.166668 0.790384 0.381799
O O1 0.322787 0.492500 0.250000
O O2 0.283099 0.609269 0.331268
O O3 0.206144 0.420881 0.303240
O O4 0.339480 0.391596 0.338201
O O5 0.500000 0.495078 0.079480
O O6 0.636210 0.595812 0.082928
O O7 0.620186 0.352942 0.072249
O O8 0.589648 0.500000 0.000000
O O9 0.382819 0.227994 0.648562
O O10 0.251007 0.243508 0.598332
O O11 0.602640 0.188290 0.750000
O O12 0.570758 0.016236 0.683236
O O13 0.381595 0.148484 0.250000
O O14 0.500000 0.186704 0.308446
O O15 0.371231 0.174636 0.355775
#
# Coordination Sequence:
#
# PCOD8256825 Si02
#       6
#    16  16  16  16  16  16
#     4   9  16  27  47  77 109 139 173 210 249 299
#     4  10  23  42  60  77 101 136 177 227 286 331
#     4  10  19  32  56  81 104 136 178 221 260 310
#     4   9  17  28  45  74 111 144 172 201 243 304
#     4  10  19  30  47  75 113 150 177 206 250 308
#     4  10  19  33  55  80 105 136 179 221 263 309
#
# _framework density 18.540496000000001
#
# number of rings (size 3 to 8) (size 9 to 14) (size 15 to 20)
#    0.000    2.333    1.667    1.500    0.000    2.667 
#    0.000    0.000    0.000    9.500    0.000    3.500 
#    0.000    0.000    0.000    0.000    0.000    0.000 
#
# Total GULP energy -594663.148692 kJ/mol
# GULP energy per Si atom -12388.815598 kJ/mol
# Density = 1.849830 g / cm^3
# Si number density = 18.540496 Si / 1000 Ang^3
#
#
#
# Elastic Constant Matrix: (Units=GPa)
#
#
# Indices 1 2 3 4 5 6 
#
# 1 77.9332 28.9785 33.3763 0.0000 0.0000 0.0000
# 2 28.9785 78.5425 33.3958 0.0000 0.0000 0.0000
# 3 33.3763 33.3958 70.6871 0.0000 0.0000 0.0000
# 4 0.0000 0.0000 0.0000 26.8228 0.0000 0.0000
# 5 0.0000 0.0000 0.0000 0.0000 16.6558 0.0000
# 6 0.0000 0.0000 0.0000 0.0000 0.0000 22.1186
#
#
#
# Elastic Compliance Matrix: (Units=1/GPa)
#
#
# Indices 1 2 3 4 5 6 
#
# 1 0.016837 -0.003544 -0.006276 0.000000 0.000000 0.000000
# 2 -0.003544 0.016678 -0.006206 0.000000 0.000000 0.000000
# 3 -0.006276 -0.006206 0.020042 0.000000 0.000000 0.000000
# 4 0.000000 0.000000 0.000000 0.037282 0.000000 0.000000
# 5 0.000000 0.000000 0.000000 0.000000 0.060039 0.000000
# 6 0.000000 0.000000 0.000000 0.000000 0.000000 0.045211
#
#
# Mechanical properties :
#
#
# Convention : Reuss Voigt Hill
#
# Bulk Modulus (GPa) = 46.49872 46.51823 46.50848
# Shear Modulus (GPa) = 21.24866 21.88026 21.56446
#
# Velocity S-wave (km/s) = 3.38903 3.43903 3.41413
# Velocity P-wave (km/s) = 6.35988 6.39639 6.37816
#
# Compressibility (1/GPa) = 0.02150597
#
# Stress axis : x y z
#
# Youngs Moduli (GPa) = 59.39366 59.95799 49.89471
#
# Poissons Ratio (x) = 0.21247 0.31312
# Poissons Ratio (y) = 0.21047 0.30967
# Poissons Ratio (z) = 0.37273 0.37212
#
# Static dielectric constant tensor:
#      x y z
#    x 3.369760 0.000000 0.000000 
#    y 0.000000 3.627250 0.000000 
#    z 0.000000 0.000000 3.777270 
# 
# 
# High freq. dielectric constant tensor:
#      x y z
#    x 1.711750 0.000000 0.000000 
#    y 0.000000 1.721110 0.000000 
#    z 0.000000 0.000000 1.689380 
# 
# From -- ./inp_files/56567.got.cif
#   From: 2010.03.12/outbox.cif.g09.slc.cpg/sg63_29_cif.got.tgz:56567.got - 2010.04.10 19:34:48.
