data_PCOD8256890
_publ_section_title
;
Structure prediction by ZEFSAII (Michael W. Deem and Ramdas Pophale) SiO2 
 PCOD8256890
Probable space group: C M C M
;
_chemical_formula_sum "Si O2"
_cell_formula_units_Z 80
_cell_length_a 18.933065
_cell_length_b 32.494055
_cell_length_c 8.994607
_cell_angle_alpha 90.000000
_cell_angle_beta 90.000000
_cell_angle_gamma 90.000000
_cell_volume 5533.590660
_symmetry_space_group_name_H-M "C M C M"
_symmetry_group_IT_number 63
_symmetry_cell_setting 'orthorhombic'
loop_
_space_group_symop_operation_xyz
x,y,z
-x,-y,1/2+z
x,-y,-z
-x,y,1/2-z
-x,-y,-z
x,y,1/2-z
-x,y,z
x,-y,1/2+z
1/2+x,1/2+y,z
1/2-x,1/2-y,1/2+z
1/2+x,1/2-y,-z
1/2-x,1/2+y,1/2-z
1/2-x,1/2-y,-z
1/2+x,1/2+y,1/2-z
1/2-x,1/2+y,z
1/2+x,1/2-y,1/2+z
loop_
_atom_site_type_symbol
_atom_site_label
_atom_site_fract_x
_atom_site_fract_y
_atom_site_fract_z
Si Si1 0.500000 0.164942 0.919192
Si Si2 0.581949 0.042721 0.923095
Si Si3 0.500000 0.737772 0.418138
Si Si4 0.231450 0.308644 0.920302
Si Si5 0.856496 0.229628 0.923821
Si Si6 0.626765 0.878563 0.577673
O O1 0.500000 0.148032 0.750000
O O2 0.500000 0.213469 0.924515
O O3 0.431771 0.149471 0.003344
O O4 0.599211 0.039018 0.750000
O O5 0.500000 0.054420 0.950947
O O6 0.631078 0.077516 0.996324
O O7 0.601292 0.000000 0.000000
O O8 0.500000 0.721551 0.250000
O O9 0.569452 0.720518 0.497766
O O10 0.253460 0.300601 0.750000
O O11 0.172571 0.274889 0.967329
O O12 0.200674 0.354523 0.941655
O O13 0.300337 0.304567 0.022509
O O14 0.868641 0.225086 0.750000
O O15 0.608055 0.885342 0.750000
#
# Coordination Sequence:
#
# PCOD8256890 Si02
#       6
#     8  16   8  16  16  16
#     4  11  21  29  40  62  85 111 149 186 219 258
#     4  10  20  32  45  63  86 113 145 181 221 261
#     4  11  21  31  45  62  86 115 146 186 225 262
#     4   9  19  32  44  62  86 113 143 179 223 263
#     4  10  19  31  46  63  84 112 146 183 220 260
#     4  11  20  31  47  63  85 114 145 184 224 262
#
# _framework density 14.457159000000001
#
# number of rings (size 3 to 8) (size 9 to 14) (size 15 to 20)
#    0.000    1.800    3.000    2.400    0.000    4.000 
#    0.000    0.000    0.000    0.000    0.000    0.000 
#    0.000    0.000    0.000    0.900    0.000   12.000 
#
# Total GULP energy -496099.900358 kJ/mol
# GULP energy per Si atom -12402.497509 kJ/mol
# Density = 1.442425 g / cm^3
# Si number density = 14.457159 Si / 1000 Ang^3
#
#
#
# Elastic Constant Matrix: (Units=GPa)
#
#
# Indices 1 2 3 4 5 6 
#
# 1 88.0912 31.0420 53.3601 0.0000 0.0000 0.0000
# 2 31.0420 71.3293 42.4013 0.0000 0.0000 0.0000
# 3 53.3601 42.4013 108.5295 0.0000 0.0000 0.0000
# 4 0.0000 0.0000 0.0000 24.2149 0.0000 0.0000
# 5 0.0000 0.0000 0.0000 0.0000 25.8655 0.0000
# 6 0.0000 0.0000 0.0000 0.0000 0.0000 19.2459
#
#
#
# Elastic Compliance Matrix: (Units=1/GPa)
#
#
# Indices 1 2 3 4 5 6 
#
# 1 0.016678 -0.003105 -0.006987 0.000000 0.000000 0.000000
# 2 -0.003105 0.018838 -0.005833 0.000000 0.000000 0.000000
# 3 -0.006987 -0.005833 0.014928 0.000000 0.000000 0.000000
# 4 0.000000 0.000000 0.000000 0.041297 0.000000 0.000000
# 5 0.000000 0.000000 0.000000 0.000000 0.038661 0.000000
# 6 0.000000 0.000000 0.000000 0.000000 0.000000 0.051959
#
#
# Mechanical properties :
#
#
# Convention : Reuss Voigt Hill
#
# Bulk Modulus (GPa) = 53.77962 57.95075 55.86518
# Shear Modulus (GPa) = 22.68486 23.27504 22.97995
#
# Velocity S-wave (km/s) = 3.96550 4.01675 3.99120
# Velocity P-wave (km/s) = 7.63197 7.85391 7.74373
#
# Compressibility (1/GPa) = 0.01859441
#
# Stress axis : x y z
#
# Youngs Moduli (GPa) = 59.95802 53.08334 66.98621
#
# Poissons Ratio (x) = 0.16481 0.46804
# Poissons Ratio (y) = 0.18616 0.39076
# Poissons Ratio (z) = 0.41893 0.30966
#
# Static dielectric constant tensor:
#      x y z
#    x 2.628890 0.000000 0.000000 
#    y 0.000000 2.677040 0.000000 
#    z 0.000000 0.000000 3.004620 
# 
# 
# High freq. dielectric constant tensor:
#      x y z
#    x 1.524270 0.000000 0.000000 
#    y 0.000000 1.526020 0.000000 
#    z 0.000000 0.000000 1.573720 
# 
# From -- ./inp_files/6697.got.cif
#   From: 2010.03.12/outbox.cif.g09.slc.cpg/sg63_4_cif.got.tgz:6697.got - 2010.04.10 19:34:48.
