data_PCOD8256742
_publ_section_title
;
Structure prediction by ZEFSAII (Michael W. Deem and Ramdas Pophale) SiO2 
 PCOD8256742
Probable space group: C M C M
;
_chemical_formula_sum "Si O2"
_cell_formula_units_Z 80
_cell_length_a 8.946009
_cell_length_b 27.664188
_cell_length_c 18.119742
_cell_angle_alpha 90.000000
_cell_angle_beta 90.000000
_cell_angle_gamma 90.000000
_cell_volume 4484.347585
_symmetry_space_group_name_H-M "C M C M"
_symmetry_group_IT_number 63
_symmetry_cell_setting 'orthorhombic'
loop_
_space_group_symop_operation_xyz
x,y,z
-x,-y,1/2+z
x,-y,-z
-x,y,1/2-z
-x,-y,-z
x,y,1/2-z
-x,y,z
x,-y,1/2+z
1/2+x,1/2+y,z
1/2-x,1/2-y,1/2+z
1/2+x,1/2-y,-z
1/2-x,1/2+y,1/2-z
1/2-x,1/2-y,-z
1/2+x,1/2+y,1/2-z
1/2-x,1/2+y,z
1/2+x,1/2-y,1/2+z
loop_
_atom_site_type_symbol
_atom_site_label
_atom_site_fract_x
_atom_site_fract_y
_atom_site_fract_z
Si Si1 0.825135 0.648300 0.465041
Si Si2 0.825124 0.287830 0.666257
Si Si3 0.171267 0.094192 0.832975
Si Si4 0.677797 0.949607 0.466657
Si Si5 0.675841 0.189480 0.880493
O O1 0.761203 0.670763 0.388967
O O2 0.761759 0.594516 0.481857
O O3 0.785444 0.684162 0.532611
O O4 0.000000 0.642707 0.455964
O O5 0.796021 0.305097 0.750000
O O6 0.737222 0.239117 0.650731
O O7 0.000000 0.278084 0.651887
O O8 0.183711 0.074017 0.750000
O O9 0.253270 0.055710 0.885415
O O10 0.248620 0.146313 0.835771
O O11 0.000000 0.099888 0.857792
O O12 0.500000 0.947944 0.458851
O O13 0.734132 0.000000 0.500000
O O14 0.500000 0.186797 0.866670
#
# Coordination Sequence:
#
# PCOD8256742 Si02
#       5
#    16  16  16  16  16
#     4   8  16  31  48  68  94 124 158 194 236 287
#     4  10  19  30  45  66  95 129 161 193 231 282
#     4  10  20  33  50  74 102 129 160 200 245 293
#     4   9  18  34  55  76  98 125 161 206 250 293
#     4  10  19  31  49  70  95 127 161 200 242 284
#
# _framework density 17.839831
#
# number of rings (size 3 to 8) (size 9 to 14) (size 15 to 20)
#    0.000    2.600    0.000    3.600    0.000    4.800 
#    0.000    5.000    0.000    3.600    0.000    0.000 
#    0.000    0.000    0.000    0.000    0.000    0.000 
#
# Total GULP energy -495889.175050 kJ/mol
# GULP energy per Si atom -12397.229376 kJ/mol
# Density = 1.779923 g / cm^3
# Si number density = 17.839831 Si / 1000 Ang^3
#
#
#
# Elastic Constant Matrix: (Units=GPa)
#
#
# Indices 1 2 3 4 5 6 
#
# 1 50.3226 33.1198 35.0818 0.0000 0.0000 0.0000
# 2 33.1198 100.5897 62.1726 0.0000 0.0000 0.0000
# 3 35.0818 62.1726 120.8417 0.0000 0.0000 0.0000
# 4 0.0000 0.0000 0.0000 22.5426 0.0000 0.0000
# 5 0.0000 0.0000 0.0000 0.0000 23.5134 0.0000
# 6 0.0000 0.0000 0.0000 0.0000 0.0000 19.9147
#
#
#
# Elastic Compliance Matrix: (Units=1/GPa)
#
#
# Indices 1 2 3 4 5 6 
#
# 1 0.027154 -0.005965 -0.004814 0.000000 0.000000 0.000000
# 2 -0.005965 0.015887 -0.006442 0.000000 0.000000 0.000000
# 3 -0.004814 -0.006442 0.012987 0.000000 0.000000 0.000000
# 4 0.000000 0.000000 0.000000 0.044360 0.000000 0.000000
# 5 0.000000 0.000000 0.000000 0.000000 0.042529 0.000000
# 6 0.000000 0.000000 0.000000 0.000000 0.000000 0.050214
#
#
# Mechanical properties :
#
#
# Convention : Reuss Voigt Hill
#
# Bulk Modulus (GPa) = 46.32698 59.16694 52.74696
# Shear Modulus (GPa) = 21.29747 22.61946 21.95846
#
# Velocity S-wave (km/s) = 3.45891 3.56465 3.51218
# Velocity P-wave (km/s) = 6.47895 7.08378 6.78810
#
# Compressibility (1/GPa) = 0.02158569
#
# Stress axis : x y z
#
# Youngs Moduli (GPa) = 36.82733 62.94376 76.99807
#
# Poissons Ratio (x) = 0.37546 0.37067
# Poissons Ratio (y) = 0.21968 0.49603
# Poissons Ratio (z) = 0.17729 0.40549
#
# Static dielectric constant tensor:
#      x y z
#    x 3.167650 0.000000 0.000000 
#    y 0.000000 3.422610 0.000000 
#    z 0.000000 0.000000 3.555080 
# 
# 
# High freq. dielectric constant tensor:
#      x y z
#    x 1.675930 0.000000 0.000000 
#    y 0.000000 1.674250 0.000000 
#    z 0.000000 0.000000 1.695950 
# 
# From -- ./inp_files/40471.got.cif
#   From: 2010.03.12/outbox.cif.g09.slc.cpg/sg63_21_cif.got.tgz:40471.got - 2010.04.10 19:34:48.
