data_PCOD8256092
_publ_section_title
;
Structure prediction by ZEFSAII (Michael W. Deem and Ramdas Pophale) SiO2 
 PCOD8256092
Probable space group: C M C M
;
_chemical_formula_sum "Si O2"
_cell_formula_units_Z 80
_cell_length_a 8.938248
_cell_length_b 19.320670
_cell_length_c 25.703176
_cell_angle_alpha 90.000000
_cell_angle_beta 90.000000
_cell_angle_gamma 90.000000
_cell_volume 4438.757030
_symmetry_space_group_name_H-M "C M C M"
_symmetry_group_IT_number 63
_symmetry_cell_setting 'orthorhombic'
loop_
_space_group_symop_operation_xyz
x,y,z
-x,-y,1/2+z
x,-y,-z
-x,y,1/2-z
-x,-y,-z
x,y,1/2-z
-x,y,z
x,-y,1/2+z
1/2+x,1/2+y,z
1/2-x,1/2-y,1/2+z
1/2+x,1/2-y,-z
1/2-x,1/2+y,1/2-z
1/2-x,1/2-y,-z
1/2+x,1/2+y,1/2-z
1/2-x,1/2+y,z
1/2+x,1/2-y,1/2+z
loop_
_atom_site_type_symbol
_atom_site_label
_atom_site_fract_x
_atom_site_fract_y
_atom_site_fract_z
Si Si1 0.823818 0.234447 0.881445
Si Si2 0.675863 0.477702 0.115631
Si Si3 0.675240 0.628931 0.968444
Si Si4 0.825537 0.375608 0.310693
Si Si5 0.823649 0.130865 0.415644
O O1 0.781989 0.197620 0.936151
O O2 0.755330 0.191586 0.833953
O O3 0.755486 0.310887 0.881173
O O4 0.000000 0.238273 0.873170
O O5 0.500000 0.464351 0.123560
O O6 0.731375 0.438492 0.063247
O O7 0.761668 0.446439 0.164977
O O8 0.714823 0.558137 0.111170
O O9 0.500000 0.621916 0.976388
O O10 0.746480 0.631712 0.025974
O O11 0.791442 0.377839 0.250000
O O12 0.000000 0.370149 0.323125
O O13 0.000000 0.144945 0.416232
#
# Coordination Sequence:
#
# PCOD8256092 Si02
#       5
#    16  16  16  16  16
#     4  10  20  33  51  76 104 134 170 209 248 294
#     4   9  18  32  52  78 104 133 169 205 245 295
#     4   8  15  29  49  73 103 140 175 202 236 287
#     4  10  21  38  58  75  93 123 165 212 260 308
#     4  10  18  30  50  76 109 142 168 201 243 289
#
# _framework density 18.023064000000002
#
# number of rings (size 3 to 8) (size 9 to 14) (size 15 to 20)
#    0.000    2.600    0.000    3.600    0.000    4.800 
#    0.000    5.000    0.000    7.200    0.000    0.000 
#    0.000    0.000    0.000    0.000    0.000    0.000 
#
# Total GULP energy -495992.216564 kJ/mol
# GULP energy per Si atom -12399.805414 kJ/mol
# Density = 1.798204 g / cm^3
# Si number density = 18.023064 Si / 1000 Ang^3
#
#
#
# Elastic Constant Matrix: (Units=GPa)
#
#
# Indices 1 2 3 4 5 6 
#
# 1 62.9460 65.7400 49.5926 0.0000 0.0000 0.0000
# 2 65.7400 156.6132 68.6836 0.0000 0.0000 0.0000
# 3 49.5926 68.6836 107.7960 0.0000 0.0000 0.0000
# 4 0.0000 0.0000 0.0000 14.3079 0.0000 0.0000
# 5 0.0000 0.0000 0.0000 0.0000 23.5582 0.0000
# 6 0.0000 0.0000 0.0000 0.0000 0.0000 32.2425
#
#
#
# Elastic Compliance Matrix: (Units=1/GPa)
#
#
# Indices 1 2 3 4 5 6 
#
# 1 0.033555 -0.010152 -0.008969 0.000000 0.000000 0.000000
# 2 -0.010152 0.011933 -0.002933 0.000000 0.000000 0.000000
# 3 -0.008969 -0.002933 0.015272 0.000000 0.000000 0.000000
# 4 0.000000 0.000000 0.000000 0.069892 0.000000 0.000000
# 5 0.000000 0.000000 0.000000 0.000000 0.042448 0.000000
# 6 0.000000 0.000000 0.000000 0.000000 0.000000 0.031015
#
#
# Mechanical properties :
#
#
# Convention : Reuss Voigt Hill
#
# Bulk Modulus (GPa) = 60.05048 77.26528 68.65788
# Shear Modulus (GPa) = 19.70272 23.57766 21.64019
#
# Velocity S-wave (km/s) = 3.30994 3.62082 3.46886
# Velocity P-wave (km/s) = 6.92810 7.77456 7.36350
#
# Compressibility (1/GPa) = 0.01665266
#
# Stress axis : x y z
#
# Youngs Moduli (GPa) = 29.80140 83.80430 65.48079
#
# Poissons Ratio (x) = 0.85076 0.58731
# Poissons Ratio (y) = 0.30254 0.19203
# Poissons Ratio (z) = 0.26729 0.24576
#
# Static dielectric constant tensor:
#      x y z
#    x 3.145360 0.000000 0.000000 
#    y 0.000000 3.386260 0.000000 
#    z 0.000000 0.000000 3.266100 
# 
# 
# High freq. dielectric constant tensor:
#      x y z
#    x 1.681310 0.000000 0.000000 
#    y 0.000000 1.703230 0.000000 
#    z 0.000000 0.000000 1.685080 
# 
# From -- ./inp_files/66566.got.cif
#   From: 2010.03.12/outbox.cif.g09.slc.cpg/sg63_34_cif.got.tgz:66566.got - 2010.04.10 19:34:48.
