data_PCOD8256395
_publ_section_title
;
Structure prediction by ZEFSAII (Michael W. Deem and Ramdas Pophale) SiO2 
 PCOD8256395
Probable space group: C M C M
;
_chemical_formula_sum "Si O2"
_cell_formula_units_Z 80
_cell_length_a 20.245119
_cell_length_b 12.112809
_cell_length_c 18.508615
_cell_angle_alpha 90.000000
_cell_angle_beta 90.000000
_cell_angle_gamma 90.000000
_cell_volume 4538.779919
_symmetry_space_group_name_H-M "C M C M"
_symmetry_group_IT_number 63
_symmetry_cell_setting 'orthorhombic'
loop_
_space_group_symop_operation_xyz
x,y,z
-x,-y,1/2+z
x,-y,-z
-x,y,1/2-z
-x,-y,-z
x,y,1/2-z
-x,y,z
x,-y,1/2+z
1/2+x,1/2+y,z
1/2-x,1/2-y,1/2+z
1/2+x,1/2-y,-z
1/2-x,1/2+y,1/2-z
1/2-x,1/2-y,-z
1/2+x,1/2+y,1/2-z
1/2-x,1/2+y,z
1/2+x,1/2-y,1/2+z
loop_
_atom_site_type_symbol
_atom_site_label
_atom_site_fract_x
_atom_site_fract_y
_atom_site_fract_z
Si Si1 0.189402 0.466122 0.833573
Si Si2 0.660840 0.401145 0.833203
Si Si3 0.664696 0.765290 0.925196
Si Si4 0.809266 0.686296 0.586344
Si Si5 0.077959 0.942572 0.074164
O O1 0.170311 0.474866 0.750000
O O2 0.267275 0.452302 0.845776
O O3 0.151214 0.361377 0.867032
O O4 0.166111 0.576671 0.873593
O O5 0.648063 0.373168 0.750000
O O6 0.652649 0.289340 0.878648
O O7 0.606990 0.489210 0.858950
O O8 0.730551 0.698065 0.904261
O O9 0.603267 0.682686 0.923892
O O10 0.672108 0.823358 0.002663
O O11 0.000000 0.940395 0.081547
O O12 0.101498 0.000000 0.000000
#
# Coordination Sequence:
#
# PCOD8256395 Si02
#       5
#    16  16  16  16  16
#     4  10  20  32  52  83 115 142 173 225 281 328
#     4  10  20  33  52  80 111 143 180 220 274 327
#     4  10  20  32  55  81 107 144 186 219 272 330
#     4  10  18  32  55  79 113 140 174 228 278 326
#     4  11  22  38  57  77 109 146 183 226 267 322
#
# _framework density 17.625882000000001
#
# number of rings (size 3 to 8) (size 9 to 14) (size 15 to 20)
#    0.000    1.800    4.000    1.200    0.000    2.000 
#    0.000    0.000    0.000    3.600    0.000    0.000 
#    0.000    0.000    0.000    0.000    0.000    0.000 
#
# Total GULP energy -496201.273612 kJ/mol
# GULP energy per Si atom -12405.031840 kJ/mol
# Density = 1.758576 g / cm^3
# Si number density = 17.625882 Si / 1000 Ang^3
#
#
#
# Elastic Constant Matrix: (Units=GPa)
#
#
# Indices 1 2 3 4 5 6 
#
# 1 43.4181 30.5027 18.2114 0.0000 0.0000 0.0000
# 2 30.5027 123.6120 54.5550 0.0000 0.0000 0.0000
# 3 18.2114 54.5550 90.5635 0.0000 0.0000 0.0000
# 4 0.0000 0.0000 0.0000 34.9628 0.0000 0.0000
# 5 0.0000 0.0000 0.0000 0.0000 16.4732 0.0000
# 6 0.0000 0.0000 0.0000 0.0000 0.0000 24.1885
#
#
#
# Elastic Compliance Matrix: (Units=1/GPa)
#
#
# Indices 1 2 3 4 5 6 
#
# 1 0.028128 -0.006054 -0.002009 0.000000 0.000000 0.000000
# 2 -0.006054 0.012323 -0.006206 0.000000 0.000000 0.000000
# 3 -0.002009 -0.006206 0.015184 0.000000 0.000000 0.000000
# 4 0.000000 0.000000 0.000000 0.028602 0.000000 0.000000
# 5 0.000000 0.000000 0.000000 0.000000 0.060705 0.000000
# 6 0.000000 0.000000 0.000000 0.000000 0.000000 0.041342
#
#
# Mechanical properties :
#
#
# Convention : Reuss Voigt Hill
#
# Bulk Modulus (GPa) = 36.90490 51.57021 44.23755
# Shear Modulus (GPa) = 22.33604 25.41318 23.87461
#
# Velocity S-wave (km/s) = 3.56368 3.80124 3.68437
# Velocity P-wave (km/s) = 6.15763 6.97048 6.57663
#
# Compressibility (1/GPa) = 0.02709667
#
# Stress axis : x y z
#
# Youngs Moduli (GPa) = 35.55194 81.15202 65.85762
#
# Poissons Ratio (x) = 0.49130 0.13233
# Poissons Ratio (y) = 0.21524 0.40869
# Poissons Ratio (z) = 0.07143 0.50360
#
# Static dielectric constant tensor:
#      x y z
#    x 2.830250 0.000000 0.000000 
#    y 0.000000 3.267410 0.000000 
#    z 0.000000 0.000000 3.366080 
# 
# 
# High freq. dielectric constant tensor:
#      x y z
#    x 1.631360 0.000000 0.000000 
#    y 0.000000 1.692450 0.000000 
#    z 0.000000 0.000000 1.695110 
# 
# From -- ./inp_files/36492.got.cif
#   From: 2010.03.12/outbox.cif.g09.slc.cpg/sg63_19_cif.got.tgz:36492.got - 2010.04.10 19:34:48.
