data_PCOD8256090
_publ_section_title
;
Structure prediction by ZEFSAII (Michael W. Deem and Ramdas Pophale) SiO2 
 PCOD8256090
Probable space group: C M C M
;
_chemical_formula_sum "Si O2"
_cell_formula_units_Z 96
_cell_length_a 14.435798
_cell_length_b 20.269966
_cell_length_c 18.252277
_cell_angle_alpha 90.000000
_cell_angle_beta 90.000000
_cell_angle_gamma 90.000000
_cell_volume 5340.855987
_symmetry_space_group_name_H-M "C M C M"
_symmetry_group_IT_number 63
_symmetry_cell_setting 'orthorhombic'
loop_
_space_group_symop_operation_xyz
x,y,z
-x,-y,1/2+z
x,-y,-z
-x,y,1/2-z
-x,-y,-z
x,y,1/2-z
-x,y,z
x,-y,1/2+z
1/2+x,1/2+y,z
1/2-x,1/2-y,1/2+z
1/2+x,1/2-y,-z
1/2-x,1/2+y,1/2-z
1/2-x,1/2-y,-z
1/2+x,1/2+y,1/2-z
1/2-x,1/2+y,z
1/2+x,1/2-y,1/2+z
loop_
_atom_site_type_symbol
_atom_site_label
_atom_site_fract_x
_atom_site_fract_y
_atom_site_fract_z
Si Si1 0.897165 0.163960 0.612355
Si Si2 0.264247 0.772032 0.830993
Si Si3 0.254860 0.050058 0.434507
Si Si4 0.606803 0.483495 0.335476
Si Si5 0.604890 0.896372 0.666975
Si Si6 0.308707 0.689628 0.029597
O O1 0.816025 0.203457 0.652712
O O2 0.876672 0.088086 0.629633
O O3 0.896229 0.178643 0.524105
O O4 0.000000 0.182897 0.641107
O O5 0.221636 0.769815 0.750000
O O6 0.342865 0.827075 0.840046
O O7 0.176839 0.789127 0.884842
O O8 0.346275 0.048607 0.383661
O O9 0.247077 0.121321 0.472009
O O10 0.267950 0.000000 0.500000
O O11 0.166309 0.035131 0.382808
O O12 0.636713 0.484357 0.250000
O O13 0.500000 0.504684 0.343443
O O14 0.607828 0.922538 0.750000
O O15 0.500000 0.885833 0.640027
O O16 0.250000 0.750000 0.000000
#
# Coordination Sequence:
#
# PCOD8256090 Si02
#       6
#    16  16  16  16  16  16
#     4  10  18  30  50  76 105 135 170 216 267 314
#     4   9  17  30  51  75 100 130 167 217 269 315
#     4  11  20  33  52  74 104 138 172 212 261 316
#     4  10  21  34  50  77 109 141 180 220 258 309
#     4   9  18  32  50  73  99 128 167 214 264 313
#     4   9  19  34  50  73 103 134 172 210 258 315
#
# _framework density 17.974646
#
# number of rings (size 3 to 8) (size 9 to 14) (size 15 to 20)
#    0.000    2.333    1.667    1.500    0.000    3.667 
#    0.000    0.000    0.000    0.500    0.000    0.000 
#    0.000    2.667    0.000    0.000    0.000    0.000 
#
# Total GULP energy -594658.865542 kJ/mol
# GULP energy per Si atom -12388.726365 kJ/mol
# Density = 1.793374 g / cm^3
# Si number density = 17.974646 Si / 1000 Ang^3
#
#
#
# Elastic Constant Matrix: (Units=GPa)
#
#
# Indices 1 2 3 4 5 6 
#
# 1 43.5973 20.5190 29.2337 0.0000 0.0000 0.0000
# 2 20.5190 87.0238 39.6872 0.0000 0.0000 0.0000
# 3 29.2337 39.6872 116.2370 0.0000 0.0000 0.0000
# 4 0.0000 0.0000 0.0000 20.6176 0.0000 0.0000
# 5 0.0000 0.0000 0.0000 0.0000 26.8439 0.0000
# 6 0.0000 0.0000 0.0000 0.0000 0.0000 14.9253
#
#
#
# Elastic Compliance Matrix: (Units=1/GPa)
#
#
# Indices 1 2 3 4 5 6 
#
# 1 0.028791 -0.004129 -0.005831 0.000000 0.000000 0.000000
# 2 -0.004129 0.014203 -0.003811 0.000000 0.000000 0.000000
# 3 -0.005831 -0.003811 0.011371 0.000000 0.000000 0.000000
# 4 0.000000 0.000000 0.000000 0.048502 0.000000 0.000000
# 5 0.000000 0.000000 0.000000 0.000000 0.037252 0.000000
# 6 0.000000 0.000000 0.000000 0.000000 0.000000 0.067000
#
#
# Mechanical properties :
#
#
# Convention : Reuss Voigt Hill
#
# Bulk Modulus (GPa) = 37.28282 47.30419 42.29351
# Shear Modulus (GPa) = 20.52534 22.97191 21.74862
#
# Velocity S-wave (km/s) = 3.38287 3.57882 3.48222
# Velocity P-wave (km/s) = 6.00378 6.59178 6.30464
#
# Compressibility (1/GPa) = 0.02682201
#
# Stress axis : x y z
#
# Youngs Moduli (GPa) = 34.73365 70.40965 87.94508
#
# Poissons Ratio (x) = 0.29073 0.51281
# Poissons Ratio (y) = 0.14342 0.33514
# Poissons Ratio (z) = 0.20253 0.26831
#
# Static dielectric constant tensor:
#      x y z
#    x 3.138290 0.000000 0.000000 
#    y 0.000000 3.305700 0.000000 
#    z 0.000000 0.000000 3.893320 
# 
# 
# High freq. dielectric constant tensor:
#      x y z
#    x 1.656900 0.000000 0.000000 
#    y 0.000000 1.696110 0.000000 
#    z 0.000000 0.000000 1.716010 
# 
# From -- ./inp_files/45729.got.cif
#   From: 2010.03.12/outbox.cif.g09.slc.cpg/sg63_23_cif.got.tgz:45729.got - 2010.04.10 19:34:48.
