data_PCOD8256277
_publ_section_title
;
Structure prediction by ZEFSAII (Michael W. Deem and Ramdas Pophale) SiO2 
 PCOD8256277
Probable space group: C M C M
;
_chemical_formula_sum "Si O2"
_cell_formula_units_Z 80
_cell_length_a 20.570275
_cell_length_b 23.238685
_cell_length_c 8.470005
_cell_angle_alpha 90.000000
_cell_angle_beta 90.000000
_cell_angle_gamma 90.000000
_cell_volume 4048.883805
_symmetry_space_group_name_H-M "C M C M"
_symmetry_group_IT_number 63
_symmetry_cell_setting 'orthorhombic'
loop_
_space_group_symop_operation_xyz
x,y,z
-x,-y,1/2+z
x,-y,-z
-x,y,1/2-z
-x,-y,-z
x,y,1/2-z
-x,y,z
x,-y,1/2+z
1/2+x,1/2+y,z
1/2-x,1/2-y,1/2+z
1/2+x,1/2-y,-z
1/2-x,1/2+y,1/2-z
1/2-x,1/2-y,-z
1/2+x,1/2+y,1/2-z
1/2-x,1/2+y,z
1/2+x,1/2-y,1/2+z
loop_
_atom_site_type_symbol
_atom_site_label
_atom_site_fract_x
_atom_site_fract_y
_atom_site_fract_z
Si Si1 0.000000 0.063163 0.436927
Si Si2 0.124676 0.627461 0.936358
Si Si3 0.750604 0.435432 0.564381
Si Si4 0.500000 0.063647 0.061941
Si Si5 0.073872 0.250549 0.062674
Si Si6 0.375407 0.369807 0.937936
O O1 0.936441 0.094598 0.503212
O O2 0.000000 0.064063 0.250000
O O3 0.000000 0.000000 0.500000
O O4 0.134253 0.621904 0.750000
O O5 0.114157 0.693390 0.990828
O O6 0.186326 0.600984 0.022368
O O7 0.062475 0.592983 0.989916
O O8 0.753707 0.500000 0.500000
O O9 0.744254 0.440715 0.750000
O O10 0.689401 0.399886 0.493303
O O11 0.500000 0.066856 0.250000
O O12 0.500000 0.000000 0.000000
O O13 0.067814 0.248674 0.250000
O O14 0.114970 0.195636 0.000533
O O15 0.000000 0.251014 0.993138
O O16 0.373129 0.370189 0.750000
#
# Coordination Sequence:
#
# PCOD8256277 Si02
#       6
#     8  16  16   8  16  16
#     4  10  18  31  54  82 110 145 191 240 281 334
#     4  11  22  38  61  88 115 151 193 238 288 345
#     4  11  23  39  57  83 119 158 195 241 290 343
#     4  12  24  39  60  86 116 149 191 242 291 344
#     4   9  16  32  59  88 115 146 189 236 285 347
#     4   9  18  33  57  85 114 150 194 237 285 341
#
# _framework density 19.758531000000001
#
# number of rings (size 3 to 8) (size 9 to 14) (size 15 to 20)
#    0.000    1.800    2.000    3.300    0.000    0.800 
#    0.000    1.000    0.000    7.200    0.000    0.000 
#    0.000    0.000    0.000    0.000    0.000    0.000 
#
# Total GULP energy -495930.891928 kJ/mol
# GULP energy per Si atom -12398.272298 kJ/mol
# Density = 1.971356 g / cm^3
# Si number density = 19.758531 Si / 1000 Ang^3
#
#
#
# Elastic Constant Matrix: (Units=GPa)
#
#
# Indices 1 2 3 4 5 6 
#
# 1 171.8355 93.1676 2.6065 0.0000 0.0000 0.0000
# 2 93.1676 207.9077 12.6573 0.0000 0.0000 0.0000
# 3 2.6065 12.6573 18.2346 0.0000 0.0000 0.0000
# 4 0.0000 0.0000 0.0000 14.0786 0.0000 0.0000
# 5 0.0000 0.0000 0.0000 0.0000 43.0239 0.0000
# 6 0.0000 0.0000 0.0000 0.0000 0.0000 42.8169
#
#
#
# Elastic Compliance Matrix: (Units=1/GPa)
#
#
# Indices 1 2 3 4 5 6 
#
# 1 0.007719 -0.003542 0.001355 0.000000 0.000000 0.000000
# 2 -0.003542 0.006647 -0.004108 0.000000 0.000000 0.000000
# 3 0.001355 -0.004108 0.057498 0.000000 0.000000 0.000000
# 4 0.000000 0.000000 0.000000 0.071030 0.000000 0.000000
# 5 0.000000 0.000000 0.000000 0.000000 0.023243 0.000000
# 6 0.000000 0.000000 0.000000 0.000000 0.000000 0.023355
#
#
# Mechanical properties :
#
#
# Convention : Reuss Voigt Hill
#
# Bulk Modulus (GPa) = 16.87029 68.31563 42.59296
# Shear Modulus (GPa) = 22.53880 39.28697 30.91289
#
# Velocity S-wave (km/s) = 3.38111 4.46393 3.95971
# Velocity P-wave (km/s) = 4.87845 7.82427 6.51991
#
# Compressibility (1/GPa) = 0.05927580
#
# Stress axis : x y z
#
# Youngs Moduli (GPa) = 129.54721 150.44466 17.39184
#
# Poissons Ratio (x) = 0.53282 -0.02356
# Poissons Ratio (y) = 0.45881 0.07144
# Poissons Ratio (z) = -0.17553 0.61797
#
# Static dielectric constant tensor:
#      x y z
#    x 3.905470 0.000000 0.000000 
#    y 0.000000 3.976340 0.000000 
#    z 0.000000 0.000000 3.324640 
# 
# 
# High freq. dielectric constant tensor:
#      x y z
#    x 1.780860 0.000000 0.000000 
#    y 0.000000 1.793170 0.000000 
#    z 0.000000 0.000000 1.736400 
# 
# From -- ./inp_files/8111.got.cif
#   From: 2010.03.12/outbox.cif.g09.slc.cpg/sg63_5_cif.got.tgz:8111.got - 2010.04.10 19:34:48.
