data_PCOD8256819
_publ_section_title
;
Structure prediction by ZEFSAII (Michael W. Deem and Ramdas Pophale) SiO2 
 PCOD8256819
Probable space group: C M C M
;
_chemical_formula_sum "Si O2"
_cell_formula_units_Z 72
_cell_length_a 12.464653
_cell_length_b 32.176865
_cell_length_c 9.204448
_cell_angle_alpha 90.000000
_cell_angle_beta 90.000000
_cell_angle_gamma 90.000000
_cell_volume 3691.659778
_symmetry_space_group_name_H-M "C M C M"
_symmetry_group_IT_number 63
_symmetry_cell_setting 'orthorhombic'
loop_
_space_group_symop_operation_xyz
x,y,z
-x,-y,1/2+z
x,-y,-z
-x,y,1/2-z
-x,-y,-z
x,y,1/2-z
-x,y,z
x,-y,1/2+z
1/2+x,1/2+y,z
1/2-x,1/2-y,1/2+z
1/2+x,1/2-y,-z
1/2-x,1/2+y,1/2-z
1/2-x,1/2-y,-z
1/2+x,1/2+y,1/2-z
1/2-x,1/2+y,z
1/2+x,1/2-y,1/2+z
loop_
_atom_site_type_symbol
_atom_site_label
_atom_site_fract_x
_atom_site_fract_y
_atom_site_fract_z
Si Si1 0.372007 0.231742 0.583696
Si Si2 0.120828 0.190695 0.908146
Si Si3 0.620335 0.850767 0.582664
Si Si4 0.667030 0.610501 0.083175
Si Si5 0.000000 0.956751 0.920008
O O1 0.333340 0.235525 0.750000
O O2 0.500000 0.233642 0.575189
O O3 0.321486 0.270713 0.491825
O O4 0.335907 0.187007 0.517116
O O5 0.175790 0.184331 0.750000
O O6 0.000000 0.205128 0.885010
O O7 0.118013 0.148449 0.996640
O O8 0.621537 0.835750 0.750000
O O9 0.500000 0.864934 0.537667
O O10 0.702889 0.889585 0.560757
O O11 0.636827 0.618146 0.250000
O O12 0.608205 0.568219 0.032307
O O13 0.000000 0.965937 0.750000
O O14 0.000000 0.000000 0.000000
#
# Coordination Sequence:
#
# PCOD8256819 Si02
#       5
#    16  16  16  16   8
#     4   9  17  29  46  69 102 145 186 224 264 305
#     4  10  19  30  47  73 105 140 181 226 268 312
#     4   9  18  33  52  75 104 139 181 221 257 302
#     4  10  20  35  56  79 104 136 171 214 266 319
#     4  10  22  40  62  86 110 134 166 210 270 334
#
# _framework density 19.503423000000002
#
# number of rings (size 3 to 8) (size 9 to 14) (size 15 to 20)
#    0.000    2.444    1.111    1.333    0.000    6.222 
#    0.000    0.000    0.000    0.667    0.000    0.000 
#    0.000    0.000    0.000    0.000    0.000    0.000 
#
# Total GULP energy -446213.534387 kJ/mol
# GULP energy per Si atom -12394.820400 kJ/mol
# Density = 1.945903 g / cm^3
# Si number density = 19.503423 Si / 1000 Ang^3
#
#
#
# Elastic Constant Matrix: (Units=GPa)
#
#
# Indices 1 2 3 4 5 6 
#
# 1 105.3462 69.5958 29.2500 0.0000 0.0000 0.0000
# 2 69.5958 144.1829 64.1567 0.0000 0.0000 0.0000
# 3 29.2500 64.1567 94.0588 0.0000 0.0000 0.0000
# 4 0.0000 0.0000 0.0000 28.4343 0.0000 0.0000
# 5 0.0000 0.0000 0.0000 0.0000 11.0963 0.0000
# 6 0.0000 0.0000 0.0000 0.0000 0.0000 20.3993
#
#
#
# Elastic Compliance Matrix: (Units=1/GPa)
#
#
# Indices 1 2 3 4 5 6 
#
# 1 0.013945 -0.006894 0.000366 0.000000 0.000000 0.000000
# 2 -0.006894 0.013366 -0.006973 0.000000 0.000000 0.000000
# 3 0.000366 -0.006973 0.015274 0.000000 0.000000 0.000000
# 4 0.000000 0.000000 0.000000 0.035169 0.000000 0.000000
# 5 0.000000 0.000000 0.000000 0.000000 0.090120 0.000000
# 6 0.000000 0.000000 0.000000 0.000000 0.000000 0.049021
#
#
# Mechanical properties :
#
#
# Convention : Reuss Voigt Hill
#
# Bulk Modulus (GPa) = 64.17276 74.39921 69.28598
# Shear Modulus (GPa) = 20.07280 24.02500 22.04890
#
# Velocity S-wave (km/s) = 3.21159 3.51356 3.36596
# Velocity P-wave (km/s) = 6.83573 7.39525 7.12098
#
# Compressibility (1/GPa) = 0.01558294
#
# Stress axis : x y z
#
# Youngs Moduli (GPa) = 71.70789 74.81613 65.47002
#
# Poissons Ratio (x) = 0.51579 -0.02394
# Poissons Ratio (y) = 0.49436 0.45652
# Poissons Ratio (z) = -0.02622 0.52169
#
# Static dielectric constant tensor:
#      x y z
#    x 4.096120 0.000000 0.000000 
#    y 0.000000 3.121940 0.000000 
#    z 0.000000 0.000000 3.770300 
# 
# 
# High freq. dielectric constant tensor:
#      x y z
#    x 1.801070 0.000000 0.000000 
#    y 0.000000 1.701060 0.000000 
#    z 0.000000 0.000000 1.764290 
# 
# From -- ./inp_files/4611.got.cif
#   From: 2010.03.12/outbox.cif.g09.slc.cpg/sg63_3_cif.got.tgz:4611.got - 2010.04.10 19:34:48.
