data_PCOD8256858
_publ_section_title
;
Structure prediction by ZEFSAII (Michael W. Deem and Ramdas Pophale) SiO2 
 PCOD8256858
Probable space group: C M C M
;
_chemical_formula_sum "Si O2"
_cell_formula_units_Z 80
_cell_length_a 9.244301
_cell_length_b 29.001047
_cell_length_c 15.856690
_cell_angle_alpha 90.000000
_cell_angle_beta 90.000000
_cell_angle_gamma 90.000000
_cell_volume 4251.089915
_symmetry_space_group_name_H-M "C M C M"
_symmetry_group_IT_number 63
_symmetry_cell_setting 'orthorhombic'
loop_
_space_group_symop_operation_xyz
x,y,z
-x,-y,1/2+z
x,-y,-z
-x,y,1/2-z
-x,-y,-z
x,y,1/2-z
-x,y,z
x,-y,1/2+z
1/2+x,1/2+y,z
1/2-x,1/2-y,1/2+z
1/2+x,1/2-y,-z
1/2-x,1/2+y,1/2-z
1/2-x,1/2-y,-z
1/2+x,1/2+y,1/2-z
1/2-x,1/2+y,z
1/2+x,1/2-y,1/2+z
loop_
_atom_site_type_symbol
_atom_site_label
_atom_site_fract_x
_atom_site_fract_y
_atom_site_fract_z
Si Si1 0.327439 0.948060 0.998592
Si Si2 0.334745 0.200751 0.580024
Si Si3 0.332644 0.113359 0.344005
Si Si4 0.167470 0.803446 0.590378
Si Si5 0.831037 0.606673 0.841373
O O1 0.500000 0.947941 0.999771
O O2 0.262714 0.922083 0.081006
O O3 0.272232 0.922586 0.913620
O O4 0.266751 0.000000 0.000000
O O5 0.500000 0.197428 0.546190
O O6 0.227378 0.191475 0.503532
O O7 0.307693 0.250818 0.621976
O O8 0.303815 0.161315 0.648425
O O9 0.310505 0.092488 0.250000
O O10 0.500000 0.123688 0.362049
O O11 0.249320 0.161825 0.347818
O O12 0.000000 0.816779 0.590146
O O13 0.764517 0.592184 0.750000
O O14 0.000000 0.595787 0.840364
#
# Coordination Sequence:
#
# PCOD8256858 Si02
#       5
#    16  16  16  16  16
#     4   9  17  30  49  73 101 129 162 210 260 303
#     4   9  17  31  50  73 103 136 171 208 249 297
#     4  10  20  34  52  74 104 139 170 205 255 310
#     4  10  19  30  50  76 102 135 173 211 249 296
#     4   9  16  27  47  73  98 125 159 202 250 296
#
# _framework density 18.818702999999999
#
# number of rings (size 3 to 8) (size 9 to 14) (size 15 to 20)
#    0.000    2.600    2.000    0.600    0.000    2.800 
#    0.000    6.000    0.000    1.200    0.000    0.000 
#    0.000    0.000    0.000    0.000    0.000    0.000 
#
# Total GULP energy -495780.451260 kJ/mol
# GULP energy per Si atom -12394.511282 kJ/mol
# Density = 1.877587 g / cm^3
# Si number density = 18.818703 Si / 1000 Ang^3
#
#
#
# Elastic Constant Matrix: (Units=GPa)
#
#
# Indices 1 2 3 4 5 6 
#
# 1 37.9776 25.3372 23.0854 0.0000 0.0000 0.0000
# 2 25.3372 137.3755 79.5764 0.0000 0.0000 0.0000
# 3 23.0854 79.5764 152.2346 0.0000 0.0000 0.0000
# 4 0.0000 0.0000 0.0000 16.3701 0.0000 0.0000
# 5 0.0000 0.0000 0.0000 0.0000 13.2052 0.0000
# 6 0.0000 0.0000 0.0000 0.0000 0.0000 18.5165
#
#
#
# Elastic Compliance Matrix: (Units=1/GPa)
#
#
# Indices 1 2 3 4 5 6 
#
# 1 0.030639 -0.004245 -0.002427 0.000000 0.000000 0.000000
# 2 -0.004245 0.011029 -0.005121 0.000000 0.000000 0.000000
# 3 -0.002427 -0.005121 0.009614 0.000000 0.000000 0.000000
# 4 0.000000 0.000000 0.000000 0.061087 0.000000 0.000000
# 5 0.000000 0.000000 0.000000 0.000000 0.075728 0.000000
# 6 0.000000 0.000000 0.000000 0.000000 0.000000 0.054006
#
#
# Mechanical properties :
#
#
# Convention : Reuss Voigt Hill
#
# Bulk Modulus (GPa) = 36.10814 64.84284 50.47549
# Shear Modulus (GPa) = 18.18705 22.92427 20.55566
#
# Velocity S-wave (km/s) = 3.11213 3.49401 3.30858
# Velocity P-wave (km/s) = 5.66946 7.12803 6.44017
#
# Compressibility (1/GPa) = 0.02769459
#
# Stress axis : x y z
#
# Youngs Moduli (GPa) = 32.63831 90.67164 104.01611
#
# Poissons Ratio (x) = 0.38489 0.25247
# Poissons Ratio (y) = 0.13855 0.53270
# Poissons Ratio (z) = 0.07922 0.46436
#
# Static dielectric constant tensor:
#      x y z
#    x 3.038350 0.000000 0.000000 
#    y 0.000000 3.656340 0.000000 
#    z 0.000000 0.000000 3.532460 
# 
# 
# High freq. dielectric constant tensor:
#      x y z
#    x 1.676970 0.000000 0.000000 
#    y 0.000000 1.733090 0.000000 
#    z 0.000000 0.000000 1.729400 
# 
# From -- ./inp_files/40706.got.cif
#   From: 2010.03.12/outbox.cif.g09.slc.cpg/sg63_21_cif.got.tgz:40706.got - 2010.04.10 19:34:48.
