data_PCOD8256558
_publ_section_title
;
Structure prediction by ZEFSAII (Michael W. Deem and Ramdas Pophale) SiO2 
 PCOD8256558
Probable space group: C M C M
;
_chemical_formula_sum "Si O2"
_cell_formula_units_Z 96
_cell_length_a 8.744728
_cell_length_b 25.119047
_cell_length_c 23.719391
_cell_angle_alpha 90.000000
_cell_angle_beta 90.000000
_cell_angle_gamma 90.000000
_cell_volume 5210.183249
_symmetry_space_group_name_H-M "C M C M"
_symmetry_group_IT_number 63
_symmetry_cell_setting 'orthorhombic'
loop_
_space_group_symop_operation_xyz
x,y,z
-x,-y,1/2+z
x,-y,-z
-x,y,1/2-z
-x,-y,-z
x,y,1/2-z
-x,y,z
x,-y,1/2+z
1/2+x,1/2+y,z
1/2-x,1/2-y,1/2+z
1/2+x,1/2-y,-z
1/2-x,1/2+y,1/2-z
1/2-x,1/2-y,-z
1/2+x,1/2+y,1/2-z
1/2-x,1/2+y,z
1/2+x,1/2-y,1/2+z
loop_
_atom_site_type_symbol
_atom_site_label
_atom_site_fract_x
_atom_site_fract_y
_atom_site_fract_z
Si Si1 0.180314 0.567474 0.137043
Si Si2 0.180086 0.140774 0.557127
Si Si3 0.820203 0.019885 0.562065
Si Si4 0.319452 0.605930 0.250000
Si Si5 0.319222 0.834400 0.939217
Si Si6 0.681186 0.735674 0.632210
Si Si7 0.682185 0.776864 0.750000
O O1 0.226085 0.511877 0.108793
O O2 0.266964 0.572511 0.195950
O O3 0.236322 0.614501 0.095902
O O4 0.000000 0.569857 0.147870
O O5 0.233821 0.080806 0.568833
O O6 0.252472 0.164505 0.501223
O O7 0.233277 0.177938 0.609346
O O8 0.000000 0.142567 0.548491
O O9 0.000000 0.012398 0.572853
O O10 0.774390 0.000000 0.500000
O O11 0.500000 0.612395 0.250000
O O12 0.243445 0.663586 0.250000
O O13 0.500000 0.833457 0.943616
O O14 0.254303 0.781920 0.908394
O O15 0.500000 0.739930 0.633156
O O16 0.743801 0.744880 0.695444
O O17 0.500000 0.781138 0.750000
#
# Coordination Sequence:
#
# PCOD8256558 Si02
#       7
#    16  16  16   8  16  16   8
#     4  11  22  37  59  84 111 146 188 230 277 332
#     4  10  20  34  53  79 113 150 186 226 281 336
#     4  10  20  35  54  80 115 151 188 236 283 328
#     4  12  24  38  59  86 115 143 180 228 284 335
#     4  10  19  32  53  81 110 140 182 231 278 329
#     4   9  18  33  54  79 107 143 187 231 274 333
#     4  10  18  36  59  78 107 143 182 226 272 329
#
# _framework density 18.425454999999999
#
# number of rings (size 3 to 8) (size 9 to 14) (size 15 to 20)
#    0.000    1.833    3.333    1.750    0.000    1.667 
#    0.000    1.667    0.000    3.000    0.000    0.000 
#    0.000    0.000    0.000    0.000    0.000    0.000 
#
# Total GULP energy -595289.977227 kJ/mol
# GULP energy per Si atom -12401.874526 kJ/mol
# Density = 1.838352 g / cm^3
# Si number density = 18.425455 Si / 1000 Ang^3
#
#
#
# Elastic Constant Matrix: (Units=GPa)
#
#
# Indices 1 2 3 4 5 6 
#
# 1 29.1273 19.3437 24.5551 0.0000 0.0000 0.0000
# 2 19.3437 152.1900 77.5716 0.0000 0.0000 0.0000
# 3 24.5551 77.5716 144.5390 0.0000 0.0000 0.0000
# 4 0.0000 0.0000 0.0000 34.8679 0.0000 0.0000
# 5 0.0000 0.0000 0.0000 0.0000 27.8435 0.0000
# 6 0.0000 0.0000 0.0000 0.0000 0.0000 14.7200
#
#
#
# Elastic Compliance Matrix: (Units=1/GPa)
#
#
# Indices 1 2 3 4 5 6 
#
# 1 0.040631 -0.002266 -0.005687 0.000000 0.000000 0.000000
# 2 -0.002266 0.009171 -0.004537 0.000000 0.000000 0.000000
# 3 -0.005687 -0.004537 0.010320 0.000000 0.000000 0.000000
# 4 0.000000 0.000000 0.000000 0.028680 0.000000 0.000000
# 5 0.000000 0.000000 0.000000 0.000000 0.035915 0.000000
# 6 0.000000 0.000000 0.000000 0.000000 0.000000 0.067935
#
#
# Mechanical properties :
#
#
# Convention : Reuss Voigt Hill
#
# Bulk Modulus (GPa) = 28.45552 63.19966 45.82759
# Shear Modulus (GPa) = 21.80128 29.11200 25.45664
#
# Velocity S-wave (km/s) = 3.44352 3.97922 3.72102
# Velocity P-wave (km/s) = 5.59353 7.44895 6.58690
#
# Compressibility (1/GPa) = 0.03514257
#
# Stress axis : x y z
#
# Youngs Moduli (GPa) = 24.61197 109.03545 96.90271
#
# Poissons Ratio (x) = 0.24705 0.55104
# Poissons Ratio (y) = 0.05577 0.43966
# Poissons Ratio (z) = 0.13996 0.49471
#
# Static dielectric constant tensor:
#      x y z
#    x 3.145080 0.000000 0.000000 
#    y 0.000000 3.588330 0.000000 
#    z 0.000000 0.000000 3.580080 
# 
# 
# High freq. dielectric constant tensor:
#      x y z
#    x 1.692950 0.000000 0.000000 
#    y 0.000000 1.718260 0.000000 
#    z 0.000000 0.000000 1.719030 
# 
# From -- ./inp_files/60095.got.cif
#   From: 2010.03.12/outbox.cif.g09.slc.cpg/sg63_31_cif.got.tgz:60095.got - 2010.04.10 19:34:48.
