data_PCOD8256473
_publ_section_title
;
Structure prediction by ZEFSAII (Michael W. Deem and Ramdas Pophale) SiO2 
 PCOD8256473
Probable space group: C M C M
;
_chemical_formula_sum "Si O2"
_cell_formula_units_Z 96
_cell_length_a 8.733103
_cell_length_b 25.088097
_cell_length_c 23.713060
_cell_angle_alpha 90.000000
_cell_angle_beta 90.000000
_cell_angle_gamma 90.000000
_cell_volume 5195.458770
_symmetry_space_group_name_H-M "C M C M"
_symmetry_group_IT_number 63
_symmetry_cell_setting 'orthorhombic'
loop_
_space_group_symop_operation_xyz
x,y,z
-x,-y,1/2+z
x,-y,-z
-x,y,1/2-z
-x,-y,-z
x,y,1/2-z
-x,y,z
x,-y,1/2+z
1/2+x,1/2+y,z
1/2-x,1/2-y,1/2+z
1/2+x,1/2-y,-z
1/2-x,1/2+y,1/2-z
1/2-x,1/2-y,-z
1/2+x,1/2+y,1/2-z
1/2-x,1/2+y,z
1/2+x,1/2-y,1/2+z
loop_
_atom_site_type_symbol
_atom_site_label
_atom_site_fract_x
_atom_site_fract_y
_atom_site_fract_z
Si Si1 0.818251 0.272198 0.250000
Si Si2 0.319525 0.106432 0.750000
Si Si3 0.319019 0.476334 0.942264
Si Si4 0.318576 0.766875 0.635297
Si Si5 0.182200 0.143975 0.437198
Si Si6 0.318674 0.331746 0.438225
Si Si7 0.819089 0.070595 0.863576
O O1 0.755996 0.332977 0.250000
O O2 0.756022 0.241663 0.195799
O O3 0.000000 0.270435 0.250000
O O4 0.500000 0.107143 0.750000
O O5 0.260799 0.074352 0.696344
O O6 0.500000 0.474383 0.949804
O O7 0.259502 0.416740 0.931051
O O8 0.272170 0.513887 0.890182
O O9 0.247507 0.500000 0.000000
O O10 0.500000 0.765040 0.641634
O O11 0.264413 0.823652 0.612202
O O12 0.258394 0.721543 0.592103
O O13 0.240254 0.166484 0.497536
O O14 0.000000 0.148894 0.430810
O O15 0.500000 0.334229 0.438477
O O16 0.255937 0.382772 0.404228
O O17 0.000000 0.075787 0.855399
#
# Coordination Sequence:
#
# PCOD8256473 Si02
#       7
#     8   8  16  16  16  16  16
#     4  11  23  39  58  79 104 141 186 232 277 326
#     4  11  23  37  54  81 114 143 176 226 283 330
#     4   9  16  30  57  86 109 139 185 232 268 311
#     4  11  22  36  54  81 113 147 184 223 275 337
#     4  10  19  34  55  83 116 149 183 226 272 320
#     4   9  17  30  54  83 112 142 177 223 273 321
#     4  10  18  33  58  85 109 141 184 226 269 320
#
# _framework density 18.477675000000001
#
# number of rings (size 3 to 8) (size 9 to 14) (size 15 to 20)
#    0.000    2.000    3.333    1.500    0.000    0.667 
#    0.000    3.333    0.000    3.000    0.000    0.000 
#    0.000    0.000    0.000    0.000    0.000    0.000 
#
# Total GULP energy -595274.160185 kJ/mol
# GULP energy per Si atom -12401.545004 kJ/mol
# Density = 1.843562 g / cm^3
# Si number density = 18.477675 Si / 1000 Ang^3
#
#
#
# Elastic Constant Matrix: (Units=GPa)
#
#
# Indices 1 2 3 4 5 6 
#
# 1 39.6632 29.6413 35.2991 0.0000 0.0000 0.0000
# 2 29.6413 154.6806 83.0749 0.0000 0.0000 0.0000
# 3 35.2991 83.0749 158.4020 0.0000 0.0000 0.0000
# 4 0.0000 0.0000 0.0000 -5.1387 0.0000 0.0000
# 5 0.0000 0.0000 0.0000 0.0000 18.0356 0.0000
# 6 0.0000 0.0000 0.0000 0.0000 0.0000 22.3249
#
#
#
# Elastic Compliance Matrix: (Units=1/GPa)
#
#
# Indices 1 2 3 4 5 6 
#
# 1 0.032592 -0.003264 -0.005551 0.000000 0.000000 0.000000
# 2 -0.003264 0.009327 -0.004164 0.000000 0.000000 0.000000
# 3 -0.005551 -0.004164 0.009734 0.000000 0.000000 0.000000
# 4 0.000000 0.000000 0.000000 -0.194601 0.000000 0.000000
# 5 0.000000 0.000000 0.000000 0.000000 0.055446 0.000000
# 6 0.000000 0.000000 0.000000 0.000000 0.000000 0.044793
#
#
# Mechanical properties :
#
#
# Convention : Reuss Voigt Hill
#
# Bulk Modulus (GPa) = 38.91951 72.08628 55.50290
# Shear Modulus (GPa) = -610.81734 20.69305 -295.06215
#
# Velocity S-wave (km/s) = -18.20132 3.35011 -12.65039
# Velocity P-wave (km/s) = 20.50875 7.35266 13.53786
#
# Compressibility (1/GPa) = 0.02569406
#
# Stress axis : x y z
#
# Youngs Moduli (GPa) = 30.68239 107.21660 102.73297
#
# Poissons Ratio (x) = 0.34998 0.57027
# Poissons Ratio (y) = 0.10016 0.42779
# Poissons Ratio (z) = 0.17032 0.44646
#
# Static dielectric constant tensor:
#      x y z
#    x 3.007370 0.000000 0.000000 
#    y 0.000000 3.561220 0.000000 
#    z 0.000000 0.000000 3.431990 
# 
# 
# High freq. dielectric constant tensor:
#      x y z
#    x 1.682190 0.000000 0.000000 
#    y 0.000000 1.720360 0.000000 
#    z 0.000000 0.000000 1.721650 
# 
# From -- ./inp_files/59996.got.cif
#   From: 2010.03.12/outbox.cif.g09.slc.cpg/sg63_30_cif.got.tgz:59996.got - 2010.04.10 19:34:48.
