data_PCOD8256902
_publ_section_title
;
Structure prediction by ZEFSAII (Michael W. Deem and Ramdas Pophale) SiO2 
 PCOD8256902
Probable space group: C M C M
;
_chemical_formula_sum "Si O2"
_cell_formula_units_Z 80
_cell_length_a 23.460466
_cell_length_b 25.729087
_cell_length_c 8.714571
_cell_angle_alpha 90.000000
_cell_angle_beta 90.000000
_cell_angle_gamma 90.000000
_cell_volume 5260.257720
_symmetry_space_group_name_H-M "C M C M"
_symmetry_group_IT_number 63
_symmetry_cell_setting 'orthorhombic'
loop_
_space_group_symop_operation_xyz
x,y,z
-x,-y,1/2+z
x,-y,-z
-x,y,1/2-z
-x,-y,-z
x,y,1/2-z
-x,y,z
x,-y,1/2+z
1/2+x,1/2+y,z
1/2-x,1/2-y,1/2+z
1/2+x,1/2-y,-z
1/2-x,1/2+y,1/2-z
1/2-x,1/2-y,-z
1/2+x,1/2+y,1/2-z
1/2-x,1/2+y,z
1/2+x,1/2-y,1/2+z
loop_
_atom_site_type_symbol
_atom_site_label
_atom_site_fract_x
_atom_site_fract_y
_atom_site_fract_z
Si Si1 0.113008 0.753282 0.071953
Si Si2 0.213122 0.704946 0.928163
Si Si3 0.317826 0.641576 0.924941
Si Si4 0.500000 0.399116 0.068494
Si Si5 0.613523 0.445580 0.929635
Si Si6 0.500000 0.285658 0.570343
O O1 0.099145 0.745781 0.250000
O O2 0.145480 0.807120 0.038637
O O3 0.152049 0.704796 0.014032
O O4 0.054976 0.752132 0.975671
O O5 0.203164 0.716631 0.750000
O O6 0.250093 0.652189 0.950622
O O7 0.250000 0.750000 0.000000
O O8 0.329427 0.624339 0.750000
O O9 0.336728 0.595957 0.038068
O O10 0.500000 0.402314 0.250000
O O11 0.555044 0.428023 0.006217
O O12 0.500000 0.339337 0.021306
O O13 0.603871 0.451160 0.750000
O O14 0.633438 0.500000 0.000000
O O15 0.500000 0.297776 0.750000
#
# Coordination Sequence:
#
# PCOD8256902 Si02
#       6
#    16  16  16   8  16   8
#     4  10  19  31  47  66  91 118 147 184 226 268
#     4   9  17  29  46  66  89 113 144 182 223 270
#     4   9  18  32  48  65  88 115 145 186 230 269
#     4  12  23  37  50  62  87 116 152 195 237 275
#     4  12  24  36  50  66  86 115 154 195 236 276
#     4  12  22  31  47  68  90 120 156 189 228 271
#
# _framework density 15.208380999999999
#
# number of rings (size 3 to 8) (size 9 to 14) (size 15 to 20)
#    0.000    1.600    2.000    6.300    0.000    4.000 
#    0.000    0.000    0.000    0.000    0.000    0.000 
#    0.000    0.000    0.000    0.900    0.000   12.000 
#
# Total GULP energy -495961.737520 kJ/mol
# GULP energy per Si atom -12399.043438 kJ/mol
# Density = 1.517377 g / cm^3
# Si number density = 15.208381 Si / 1000 Ang^3
#
#
#
# Elastic Constant Matrix: (Units=GPa)
#
#
# Indices 1 2 3 4 5 6 
#
# 1 87.5191 40.1800 40.5662 0.0000 0.0000 0.0000
# 2 40.1800 47.9607 33.6012 0.0000 0.0000 0.0000
# 3 40.5662 33.6012 115.0456 0.0000 0.0000 0.0000
# 4 0.0000 0.0000 0.0000 21.6188 0.0000 0.0000
# 5 0.0000 0.0000 0.0000 0.0000 27.3014 0.0000
# 6 0.0000 0.0000 0.0000 0.0000 0.0000 -34.2483
#
#
#
# Elastic Compliance Matrix: (Units=1/GPa)
#
#
# Indices 1 2 3 4 5 6 
#
# 1 0.019167 -0.014236 -0.002601 0.000000 0.000000 0.000000
# 2 -0.014236 0.036787 -0.005725 0.000000 0.000000 0.000000
# 3 -0.002601 -0.005725 0.011281 0.000000 0.000000 0.000000
# 4 0.000000 0.000000 0.000000 0.046256 0.000000 0.000000
# 5 0.000000 0.000000 0.000000 0.000000 0.036628 0.000000
# 6 0.000000 0.000000 0.000000 0.000000 0.000000 -0.029199
#
#
# Mechanical properties :
#
#
# Convention : Reuss Voigt Hill
#
# Bulk Modulus (GPa) = 45.22127 53.24669 49.23398
# Shear Modulus (GPa) = 28.83258 12.01290 20.42274
#
# Velocity S-wave (km/s) = 4.35884 2.81354 3.66848
# Velocity P-wave (km/s) = 7.42507 6.75589 7.09837
#
# Compressibility (1/GPa) = 0.02211349
#
# Stress axis : x y z
#
# Youngs Moduli (GPa) = 52.17277 27.18325 88.64224
#
# Poissons Ratio (x) = 0.38697 0.23054
# Poissons Ratio (y) = 0.74271 0.50746
# Poissons Ratio (z) = 0.13569 0.15562
#
# Static dielectric constant tensor:
#      x y z
#    x 3.280910 0.000000 0.000000 
#    y 0.000000 2.776400 0.000000 
#    z 0.000000 0.000000 3.133610 
# 
# 
# High freq. dielectric constant tensor:
#      x y z
#    x 1.578580 0.000000 0.000000 
#    y 0.000000 1.534260 0.000000 
#    z 0.000000 0.000000 1.603580 
# 
# From -- ./inp_files/8056.got.cif
#   From: 2010.03.12/outbox.cif.g09.slc.cpg/sg63_5_cif.got.tgz:8056.got - 2010.04.10 19:34:48.
