data_PCOD8256227
_publ_section_title
;
Structure prediction by ZEFSAII (Michael W. Deem and Ramdas Pophale) SiO2 
 PCOD8256227
Probable space group: C M C M
;
_chemical_formula_sum "Si O2"
_cell_formula_units_Z 96
_cell_length_a 13.419208
_cell_length_b 16.900169
_cell_length_c 21.500818
_cell_angle_alpha 90.000000
_cell_angle_beta 90.000000
_cell_angle_gamma 90.000000
_cell_volume 4876.103497
_symmetry_space_group_name_H-M "C M C M"
_symmetry_group_IT_number 63
_symmetry_cell_setting 'orthorhombic'
loop_
_space_group_symop_operation_xyz
x,y,z
-x,-y,1/2+z
x,-y,-z
-x,y,1/2-z
-x,-y,-z
x,y,1/2-z
-x,y,z
x,-y,1/2+z
1/2+x,1/2+y,z
1/2-x,1/2-y,1/2+z
1/2+x,1/2-y,-z
1/2-x,1/2+y,1/2-z
1/2-x,1/2-y,-z
1/2+x,1/2+y,1/2-z
1/2-x,1/2+y,z
1/2+x,1/2-y,1/2+z
loop_
_atom_site_type_symbol
_atom_site_label
_atom_site_fract_x
_atom_site_fract_y
_atom_site_fract_z
Si Si1 0.616064 0.394182 0.363493
Si Si2 0.797832 0.500131 0.862135
Si Si3 0.210084 0.765252 0.431965
Si Si4 0.113241 0.388842 0.953033
Si Si5 0.883515 0.782631 0.250000
Si Si6 0.389594 0.151878 0.902734
Si Si7 0.379862 0.102148 0.250000
O O1 0.500000 0.418225 0.360977
O O2 0.681205 0.474410 0.357171
O O3 0.643420 0.345951 0.426837
O O4 0.649484 0.332163 0.310259
O O5 0.815920 0.459246 0.929242
O O6 0.865765 0.578815 0.857396
O O7 0.831854 0.439976 0.809433
O O8 0.250000 0.750000 0.500000
O O9 0.143208 0.690052 0.413684
O O10 0.310255 0.777717 0.390019
O O11 0.000000 0.409683 0.934858
O O12 0.124166 0.378320 0.026490
O O13 0.841102 0.693171 0.250000
O O14 0.000000 0.774144 0.250000
O O15 0.500000 0.184537 0.890145
O O16 0.500000 0.094900 0.250000
#
# Coordination Sequence:
#
# PCOD8256227 Si02
#       7
#    16  16  16  16   8  16   8
#     4  10  20  36  55  75 105 142 180 221 265 318
#     4  11  21  32  50  78 106 134 170 213 266 317
#     4   9  18  31  51  77 103 134 176 218 261 313
#     4  10  18  31  52  75 100 133 174 218 259 302
#     4   9  19  36  58  79  97 129 175 217 261 313
#     4   9  18  32  50  72 102 139 172 206 254 312
#     4  11  21  32  51  81 109 129 162 219 272 311
#
# _framework density 19.687850999999998
#
# number of rings (size 3 to 8) (size 9 to 14) (size 15 to 20)
#    0.000    2.167    0.000    4.000    0.000    3.333 
#    0.000    0.833    0.000   14.000    0.000    7.000 
#    0.000    0.000    0.000    0.000    0.000    0.000 
#
# Total GULP energy -594729.977814 kJ/mol
# GULP energy per Si atom -12390.207871 kJ/mol
# Density = 1.964304 g / cm^3
# Si number density = 19.687851 Si / 1000 Ang^3
#
#
#
# Elastic Constant Matrix: (Units=GPa)
#
#
# Indices 1 2 3 4 5 6 
#
# 1 147.2482 53.9879 25.3089 0.0000 0.0000 0.0000
# 2 53.9879 90.6394 18.1056 0.0000 0.0000 0.0000
# 3 25.3089 18.1056 48.5133 0.0000 0.0000 0.0000
# 4 0.0000 0.0000 0.0000 20.4912 0.0000 0.0000
# 5 0.0000 0.0000 0.0000 0.0000 21.8536 0.0000
# 6 0.0000 0.0000 0.0000 0.0000 0.0000 40.1139
#
#
#
# Elastic Compliance Matrix: (Units=1/GPa)
#
#
# Indices 1 2 3 4 5 6 
#
# 1 0.009059 -0.004810 -0.002931 0.000000 0.000000 0.000000
# 2 -0.004810 0.014476 -0.002893 0.000000 0.000000 0.000000
# 3 -0.002931 -0.002893 0.023221 0.000000 0.000000 0.000000
# 4 0.000000 0.000000 0.000000 0.048801 0.000000 0.000000
# 5 0.000000 0.000000 0.000000 0.000000 0.045759 0.000000
# 6 0.000000 0.000000 0.000000 0.000000 0.000000 0.024929
#
#
# Mechanical properties :
#
#
# Convention : Reuss Voigt Hill
#
# Bulk Modulus (GPa) = 39.23388 53.46728 46.35058
# Shear Modulus (GPa) = 25.50903 29.09164 27.30034
#
# Velocity S-wave (km/s) = 3.60345 3.84818 3.72783
# Velocity P-wave (km/s) = 6.10609 6.85282 6.49021
#
# Compressibility (1/GPa) = 0.02548817
#
# Stress axis : x y z
#
# Youngs Moduli (GPa) = 110.39230 69.08107 43.06365
#
# Poissons Ratio (x) = 0.33229 0.12620
# Poissons Ratio (y) = 0.53101 0.12458
# Poissons Ratio (z) = 0.32351 0.19985
#
# Static dielectric constant tensor:
#      x y z
#    x 3.806440 0.000000 0.000000 
#    y 0.000000 3.939150 0.000000 
#    z 0.000000 0.000000 3.409680 
# 
# 
# High freq. dielectric constant tensor:
#      x y z
#    x 1.766100 0.000000 0.000000 
#    y 0.000000 1.761810 0.000000 
#    z 0.000000 0.000000 1.750310 
# 
# From -- ./inp_files/61526.got.cif
#   From: 2010.03.12/outbox.cif.g09.slc.cpg/sg63_31_cif.got.tgz:61526.got - 2010.04.10 19:34:48.
