data_PCOD8256231
_publ_section_title
;
Structure prediction by ZEFSAII (Michael W. Deem and Ramdas Pophale) SiO2 
 PCOD8256231
Probable space group: C M C M
;
_chemical_formula_sum "Si O2"
_cell_formula_units_Z 104
_cell_length_a 13.810349
_cell_length_b 17.668742
_cell_length_c 24.150263
_cell_angle_alpha 90.000000
_cell_angle_beta 90.000000
_cell_angle_gamma 90.000000
_cell_volume 5892.941741
_symmetry_space_group_name_H-M "C M C M"
_symmetry_group_IT_number 63
_symmetry_cell_setting 'orthorhombic'
loop_
_space_group_symop_operation_xyz
x,y,z
-x,-y,1/2+z
x,-y,-z
-x,y,1/2-z
-x,-y,-z
x,y,1/2-z
-x,y,z
x,-y,1/2+z
1/2+x,1/2+y,z
1/2-x,1/2-y,1/2+z
1/2+x,1/2-y,-z
1/2-x,1/2+y,1/2-z
1/2-x,1/2-y,-z
1/2+x,1/2+y,1/2-z
1/2-x,1/2+y,z
1/2+x,1/2-y,1/2+z
loop_
_atom_site_type_symbol
_atom_site_label
_atom_site_fract_x
_atom_site_fract_y
_atom_site_fract_z
Si Si1 0.111427 0.740839 0.451202
Si Si2 0.611623 0.117705 0.138660
Si Si3 0.610391 0.980070 0.436345
Si Si4 0.203213 0.327327 0.443148
Si Si5 0.609816 0.652096 0.250000
Si Si6 0.111491 0.720369 0.837433
Si Si7 0.613804 0.095087 0.750000
Si Si8 0.203566 0.570569 0.250000
O O1 0.127362 0.696422 0.393629
O O2 0.138994 0.686451 0.502206
O O3 0.182308 0.813685 0.453665
O O4 0.000000 0.767365 0.457007
O O5 0.500000 0.105210 0.152281
O O6 0.666673 0.116366 0.196626
O O7 0.648632 0.049747 0.099800
O O8 0.500000 0.957675 0.420604
O O9 0.683549 0.912131 0.422849
O O10 0.617215 0.000000 0.500000
O O11 0.171627 0.271307 0.393835
O O12 0.500000 0.621745 0.250000
O O13 0.630566 0.703644 0.196633
O O14 0.679743 0.579079 0.250000
O O15 0.141602 0.644812 0.803559
O O16 0.000000 0.713286 0.853295
O O17 0.500000 0.074845 0.750000
O O18 0.674245 0.017334 0.750000
#
# Coordination Sequence:
#
# PCOD8256231 Si02
#       8
#    16  16  16  16   8  16   8   8
#     4  10  21  34  47  72 104 131 163 202 241 291
#     4  10  20  33  50  76 106 129 158 200 252 301
#     4  10  18  31  52  76 101 127 159 207 254 295
#     4  11  19  30  53  76  94 131 167 200 247 295
#     4   9  20  35  49  69 100 133 168 208 240 281
#     4   9  17  32  53  74  95 122 164 209 247 286
#     4   9  18  31  49  77 102 119 150 206 258 291
#     4  12  20  30  50  76 106 132 158 196 252 302
#
# _framework density 17.648230999999999
#
# number of rings (size 3 to 8) (size 9 to 14) (size 15 to 20)
#    0.000    2.000    1.538    4.846    0.000    2.462 
#    0.000    0.000    0.000    4.154    0.000    3.231 
#    0.000    0.000    0.000    0.000    0.000    0.000 
#
# Total GULP energy -644701.074194 kJ/mol
# GULP energy per Si atom -12398.097581 kJ/mol
# Density = 1.760806 g / cm^3
# Si number density = 17.648231 Si / 1000 Ang^3
#
#
#
# Elastic Constant Matrix: (Units=GPa)
#
#
# Indices 1 2 3 4 5 6 
#
# 1 100.7281 45.1432 33.4235 0.0000 0.0000 0.0000
# 2 45.1432 60.3503 5.9485 0.0000 0.0000 0.0000
# 3 33.4235 5.9485 94.6099 0.0000 0.0000 0.0000
# 4 0.0000 0.0000 0.0000 7.8102 0.0000 0.0000
# 5 0.0000 0.0000 0.0000 0.0000 19.2755 0.0000
# 6 0.0000 0.0000 0.0000 0.0000 0.0000 29.6972
#
#
#
# Elastic Compliance Matrix: (Units=1/GPa)
#
#
# Indices 1 2 3 4 5 6 
#
# 1 0.017232 -0.012366 -0.005310 0.000000 0.000000 0.000000
# 2 -0.012366 0.025548 0.002762 0.000000 0.000000 0.000000
# 3 -0.005310 0.002762 0.012272 0.000000 0.000000 0.000000
# 4 0.000000 0.000000 0.000000 0.128037 0.000000 0.000000
# 5 0.000000 0.000000 0.000000 0.000000 0.051879 0.000000
# 6 0.000000 0.000000 0.000000 0.000000 0.000000 0.033673
#
#
# Mechanical properties :
#
#
# Convention : Reuss Voigt Hill
#
# Bulk Modulus (GPa) = 39.64520 47.19097 43.41809
# Shear Modulus (GPa) = 16.29312 22.76812 19.53062
#
# Velocity S-wave (km/s) = 3.04174 3.59570 3.33026
# Velocity P-wave (km/s) = 5.90332 6.63601 6.28036
#
# Compressibility (1/GPa) = 0.02522373
#
# Stress axis : x y z
#
# Youngs Moduli (GPa) = 58.03166 39.14203 81.48644
#
# Poissons Ratio (x) = 0.48405 0.43270
# Poissons Ratio (y) = 0.71765 -0.22510
# Poissons Ratio (z) = 0.30816 -0.10813
#
# Static dielectric constant tensor:
#      x y z
#    x 3.119070 0.000000 0.000000 
#    y 0.000000 3.064080 0.000000 
#    z 0.000000 0.000000 3.440750 
# 
# 
# High freq. dielectric constant tensor:
#      x y z
#    x 1.662320 0.000000 0.000000 
#    y 0.000000 1.659300 0.000000 
#    z 0.000000 0.000000 1.700240 
# 
# From -- ./inp_files/63172.got.cif
#   From: 2010.03.12/outbox.cif.g09.slc.cpg/sg63_32_cif.got.tgz:63172.got - 2010.04.10 19:34:48.
