data_PCOD8256364
_publ_section_title
;
Structure prediction by ZEFSAII (Michael W. Deem and Ramdas Pophale) SiO2 
 PCOD8256364
Probable space group: C M C M
;
_chemical_formula_sum "Si O2"
_cell_formula_units_Z 80
_cell_length_a 11.345166
_cell_length_b 27.509173
_cell_length_c 14.173145
_cell_angle_alpha 90.000000
_cell_angle_beta 90.000000
_cell_angle_gamma 90.000000
_cell_volume 4423.383764
_symmetry_space_group_name_H-M "C M C M"
_symmetry_group_IT_number 63
_symmetry_cell_setting 'orthorhombic'
loop_
_space_group_symop_operation_xyz
x,y,z
-x,-y,1/2+z
x,-y,-z
-x,y,1/2-z
-x,-y,-z
x,y,1/2-z
-x,y,z
x,-y,1/2+z
1/2+x,1/2+y,z
1/2-x,1/2-y,1/2+z
1/2+x,1/2-y,-z
1/2-x,1/2+y,1/2-z
1/2-x,1/2-y,-z
1/2+x,1/2+y,1/2-z
1/2-x,1/2+y,z
1/2+x,1/2-y,1/2+z
loop_
_atom_site_type_symbol
_atom_site_label
_atom_site_fract_x
_atom_site_fract_y
_atom_site_fract_z
Si Si1 0.360287 0.819231 0.750000
Si Si2 0.500000 0.944429 0.977425
Si Si3 0.000000 0.621934 0.855815
Si Si4 0.274868 0.108013 0.097787
Si Si5 0.637889 0.450499 0.750000
Si Si6 0.257872 0.637591 0.892261
Si Si7 0.141026 0.063655 0.750000
Si Si8 0.362017 0.289645 0.250000
O O1 0.500000 0.819958 0.750000
O O2 0.314011 0.845272 0.843455
O O3 0.308457 0.764525 0.750000
O O4 0.385698 0.926726 0.921336
O O5 0.500000 0.925798 0.083053
O O6 0.500000 0.000000 0.000000
O O7 0.880376 0.651459 0.878277
O O8 0.000000 0.603563 0.750000
O O9 0.183658 0.075195 0.155371
O O10 0.214982 0.129231 0.002684
O O11 0.500000 0.444427 0.750000
O O12 0.673932 0.507018 0.750000
O O13 0.298644 0.587896 0.841409
O O14 0.325975 0.682745 0.846134
O O15 0.000000 0.072736 0.750000
O O16 0.500000 0.285635 0.250000
#
# Coordination Sequence:
#
# PCOD8256364 Si02
#       8
#     8   8   8  16   8  16   8   8
#     4  10  20  41  58  81 112 148 184 233 290 335
#     4  10  22  33  56  92 113 146 194 221 281 346
#     4  10  18  32  53  81 120 140 166 238 285 334
#     4  10  22  38  60  80 119 147 184 239 281 332
#     4  10  24  38  53  78 113 162 193 218 275 342
#     4  10  20  35  57  87 110 140 184 236 286 327
#     4  10  21  36  54  81 114 147 192 227 266 327
#     4  10  21  36  62  83 106 145 194 229 278 347
#
# _framework density 18.085701
#
# number of rings (size 3 to 8) (size 9 to 14) (size 15 to 20)
#    0.000    2.000    3.000    1.200    5.600    2.400 
#    1.800    2.000    8.800    0.000    0.000    0.000 
#    0.000    0.000    0.000    0.000    0.000    0.000 
#
# Total GULP energy -495829.591691 kJ/mol
# GULP energy per Si atom -12395.739792 kJ/mol
# Density = 1.804454 g / cm^3
# Si number density = 18.085701 Si / 1000 Ang^3
#
#
#
# Elastic Constant Matrix: (Units=GPa)
#
#
# Indices 1 2 3 4 5 6 
#
# 1 76.4204 44.0914 35.1426 0.0000 0.0000 0.0000
# 2 44.0914 157.1266 69.6076 0.0000 0.0000 0.0000
# 3 35.1426 69.6076 160.7830 0.0000 0.0000 0.0000
# 4 0.0000 0.0000 0.0000 18.1203 0.0000 0.0000
# 5 0.0000 0.0000 0.0000 0.0000 22.4680 0.0000
# 6 0.0000 0.0000 0.0000 0.0000 0.0000 16.0571
#
#
#
# Elastic Compliance Matrix: (Units=1/GPa)
#
#
# Indices 1 2 3 4 5 6 
#
# 1 0.016084 -0.003657 -0.001932 0.000000 0.000000 0.000000
# 2 -0.003657 0.008706 -0.002970 0.000000 0.000000 0.000000
# 3 -0.001932 -0.002970 0.007928 0.000000 0.000000 0.000000
# 4 0.000000 0.000000 0.000000 0.055187 0.000000 0.000000
# 5 0.000000 0.000000 0.000000 0.000000 0.044508 0.000000
# 6 0.000000 0.000000 0.000000 0.000000 0.000000 0.062278
#
#
# Mechanical properties :
#
#
# Convention : Reuss Voigt Hill
#
# Bulk Modulus (GPa) = 64.10545 76.89039 70.49792
# Shear Modulus (GPa) = 23.04056 27.69498 25.36777
#
# Velocity S-wave (km/s) = 3.57314 3.91745 3.74925
# Velocity P-wave (km/s) = 7.24882 7.94158 7.60309
#
# Compressibility (1/GPa) = 0.01559930
#
# Stress axis : x y z
#
# Youngs Moduli (GPa) = 62.17272 114.86022 126.14209
#
# Poissons Ratio (x) = 0.42010 0.24372
# Poissons Ratio (y) = 0.22739 0.37461
# Poissons Ratio (z) = 0.12013 0.34111
#
# Static dielectric constant tensor:
#      x y z
#    x 3.554950 0.000000 0.000000 
#    y 0.000000 3.361020 0.000000 
#    z 0.000000 0.000000 3.860620 
# 
# 
# High freq. dielectric constant tensor:
#      x y z
#    x 1.705470 0.000000 0.000000 
#    y 0.000000 1.691070 0.000000 
#    z 0.000000 0.000000 1.711020 
# 
# From -- ./inp_files/30099.got.cif
#   From: 2010.03.12/outbox.cif.g09.slc.cpg/sg63_16_cif.got.tgz:30099.got - 2010.04.10 19:34:48.
