data_PCOD8256540
_publ_section_title
;
Structure prediction by ZEFSAII (Michael W. Deem and Ramdas Pophale) SiO2 
 PCOD8256540
Probable space group: C M C M
;
_chemical_formula_sum "Si O2"
_cell_formula_units_Z 72
_cell_length_a 25.188959
_cell_length_b 10.962261
_cell_length_c 14.045306
_cell_angle_alpha 90.000000
_cell_angle_beta 90.000000
_cell_angle_gamma 90.000000
_cell_volume 3878.301453
_symmetry_space_group_name_H-M "C M C M"
_symmetry_group_IT_number 63
_symmetry_cell_setting 'orthorhombic'
loop_
_space_group_symop_operation_xyz
x,y,z
-x,-y,1/2+z
x,-y,-z
-x,y,1/2-z
-x,-y,-z
x,y,1/2-z
-x,y,z
x,-y,1/2+z
1/2+x,1/2+y,z
1/2-x,1/2-y,1/2+z
1/2+x,1/2-y,-z
1/2-x,1/2+y,1/2-z
1/2-x,1/2-y,-z
1/2+x,1/2+y,1/2-z
1/2-x,1/2+y,z
1/2+x,1/2-y,1/2+z
loop_
_atom_site_type_symbol
_atom_site_label
_atom_site_fract_x
_atom_site_fract_y
_atom_site_fract_z
Si Si1 0.784476 0.932126 0.141759
Si Si2 0.640618 0.780201 0.586282
Si Si3 0.938630 0.947813 0.750000
Si Si4 0.876783 0.098125 0.428437
Si Si5 0.801488 0.500000 0.000000
Si Si6 0.063248 0.767187 0.250000
O O1 0.766329 0.956109 0.250000
O O2 0.816279 0.805316 0.137966
O O3 0.819843 0.046594 0.106219
O O4 0.733865 0.920552 0.072988
O O5 0.627390 0.725927 0.482502
O O6 0.662929 0.914246 0.567061
O O7 0.589007 0.790766 0.654705
O O8 0.922392 0.089423 0.750000
O O9 0.000000 0.926711 0.750000
O O10 0.915491 0.879807 0.658924
O O11 0.903225 0.000000 0.500000
O O12 0.000000 0.743783 0.250000
#
# Coordination Sequence:
#
# PCOD8256540 Si02
#       6
#    16  16   8  16   8   8
#     4  11  20  36  60  88 122 158 191 242 300 345
#     4  11  22  42  58  88 126 153 206 246 290 368
#     4  11  20  34  60  94 116 149 200 255 322 357
#     4  10  18  35  56  83 124 154 184 251 298 350
#     4  12  26  38  59  90 119 170 206 230 294 362
#     4  11  22  40  68  90 114 157 202 257 310 355
#
# _framework density 18.564827999999999
#
# number of rings (size 3 to 8) (size 9 to 14) (size 15 to 20)
#    0.000    1.111   10.000    0.667    1.556    1.333 
#    2.000    0.556    0.000    1.333    0.000    0.000 
#    0.000    0.000    0.000    0.000    0.000    0.000 
#
# Total GULP energy -446429.575597 kJ/mol
# GULP energy per Si atom -12400.821544 kJ/mol
# Density = 1.852257 g / cm^3
# Si number density = 18.564828 Si / 1000 Ang^3
#
#
#
# Elastic Constant Matrix: (Units=GPa)
#
#
# Indices 1 2 3 4 5 6 
#
# 1 92.6377 38.1507 54.2479 0.0000 0.0000 0.0000
# 2 38.1507 54.9412 24.4679 0.0000 0.0000 0.0000
# 3 54.2479 24.4679 143.8853 0.0000 0.0000 0.0000
# 4 0.0000 0.0000 0.0000 15.5270 0.0000 0.0000
# 5 0.0000 0.0000 0.0000 0.0000 -12.2469 0.0000
# 6 0.0000 0.0000 0.0000 0.0000 0.0000 16.2676
#
#
#
# Elastic Compliance Matrix: (Units=1/GPa)
#
#
# Indices 1 2 3 4 5 6 
#
# 1 0.017951 -0.010225 -0.005029 0.000000 0.000000 0.000000
# 2 -0.010225 0.025517 -0.000484 0.000000 0.000000 0.000000
# 3 -0.005029 -0.000484 0.008928 0.000000 0.000000 0.000000
# 4 0.000000 0.000000 0.000000 0.064404 0.000000 0.000000
# 5 0.000000 0.000000 0.000000 0.000000 -0.081653 0.000000
# 6 0.000000 0.000000 0.000000 0.000000 0.000000 0.061472
#
#
# Mechanical properties :
#
#
# Convention : Reuss Voigt Hill
#
# Bulk Modulus (GPa) = 47.80202 58.35525 53.07863
# Shear Modulus (GPa) = 37.01823 15.54937 26.28380
#
# Velocity S-wave (km/s) = 4.47027 2.89722 3.76677
# Velocity P-wave (km/s) = 7.24217 6.53401 6.89718
#
# Compressibility (1/GPa) = 0.02091962
#
# Stress axis : x y z
#
# Youngs Moduli (GPa) = 55.70821 39.18940 112.00274
#
# Poissons Ratio (x) = 0.40072 0.56326
# Poissons Ratio (y) = 0.56962 0.05422
# Poissons Ratio (z) = 0.28016 0.01897
#
# Static dielectric constant tensor:
#      x y z
#    x 3.237130 0.000000 0.000000 
#    y 0.000000 2.995860 0.000000 
#    z 0.000000 0.000000 3.748720 
# 
# 
# High freq. dielectric constant tensor:
#      x y z
#    x 1.700350 0.000000 0.000000 
#    y 0.000000 1.677520 0.000000 
#    z 0.000000 0.000000 1.744320 
# 
# From -- ./inp_files/36407.got.cif
#   From: 2010.03.12/outbox.cif.g09.slc.cpg/sg63_19_cif.got.tgz:36407.got - 2010.04.10 19:34:48.
