data_PCOD8256771
_publ_section_title
;
Structure prediction by ZEFSAII (Michael W. Deem and Ramdas Pophale) SiO2 
 PCOD8256771
Probable space group: C M C M
;
_chemical_formula_sum "Si O2"
_cell_formula_units_Z 104
_cell_length_a 22.238824
_cell_length_b 29.709745
_cell_length_c 9.221658
_cell_angle_alpha 90.000000
_cell_angle_beta 90.000000
_cell_angle_gamma 90.000000
_cell_volume 6092.839722
_symmetry_space_group_name_H-M "C M C M"
_symmetry_group_IT_number 63
_symmetry_cell_setting 'orthorhombic'
loop_
_space_group_symop_operation_xyz
x,y,z
-x,-y,1/2+z
x,-y,-z
-x,y,1/2-z
-x,-y,-z
x,y,1/2-z
-x,y,z
x,-y,1/2+z
1/2+x,1/2+y,z
1/2-x,1/2-y,1/2+z
1/2+x,1/2-y,-z
1/2-x,1/2+y,1/2-z
1/2-x,1/2-y,-z
1/2+x,1/2+y,1/2-z
1/2-x,1/2+y,z
1/2+x,1/2-y,1/2+z
loop_
_atom_site_type_symbol
_atom_site_label
_atom_site_fract_x
_atom_site_fract_y
_atom_site_fract_z
Si Si1 0.389334 0.609066 0.080961
Si Si2 0.930096 0.370564 0.918681
Si Si3 0.928551 0.282994 0.413794
Si Si4 0.000000 0.046842 0.080822
Si Si5 0.647102 0.955235 0.580144
Si Si6 0.429682 0.305073 0.080240
Si Si7 0.284037 0.455994 0.917681
O O1 0.395641 0.622022 0.250000
O O2 0.441530 0.574814 0.034302
O O3 0.325389 0.586588 0.044357
O O4 0.392723 0.653651 0.985250
O O5 0.918450 0.360530 0.750000
O O6 0.893744 0.414007 0.972805
O O7 0.000000 0.379604 0.949778
O O8 0.905134 0.328097 0.008329
O O9 0.903342 0.281038 0.250000
O O10 0.905345 0.239945 0.502999
O O11 0.000000 0.283214 0.414564
O O12 0.000000 0.036248 0.250000
O O13 0.000000 0.000000 0.000000
O O14 0.639550 0.963561 0.750000
O O15 0.715893 0.944052 0.537512
O O16 0.624500 0.000000 0.500000
O O17 0.416686 0.300828 0.250000
O O18 0.500000 0.312573 0.047959
O O19 0.289115 0.468123 0.750000
O O20 0.307748 0.500000 0.000000
#
# Coordination Sequence:
#
# PCOD8256771 Si02
#       7
#    16  16  16   8  16  16  16
#     4  10  19  31  46  65  91 122 156 196 239 280
#     4   9  17  30  48  71  99 127 154 187 230 277
#     4   9  17  29  47  70  96 125 154 188 230 279
#     4  10  20  30  42  62  90 120 150 190 239 282
#     4   9  18  32  49  70  96 126 159 193 229 272
#     4  10  19  30  46  69  95 123 155 192 235 282
#     4   9  18  32  49  67  89 122 161 197 233 275
#
# _framework density 17.069216999999998
#
# number of rings (size 3 to 8) (size 9 to 14) (size 15 to 20)
#    0.000    2.615    0.769    1.385    0.000    4.615 
#    0.000    0.000    0.000    0.923    0.000    0.000 
#    0.000    0.000    0.000    0.000    0.000    0.000 
#
# Total GULP energy -644900.826902 kJ/mol
# GULP energy per Si atom -12401.938979 kJ/mol
# Density = 1.703037 g / cm^3
# Si number density = 17.069217 Si / 1000 Ang^3
#
#
#
# Elastic Constant Matrix: (Units=GPa)
#
#
# Indices 1 2 3 4 5 6 
#
# 1 54.6139 57.3654 33.9243 0.0000 0.0000 0.0000
# 2 57.3654 173.9132 79.9480 0.0000 0.0000 0.0000
# 3 33.9243 79.9480 82.9677 0.0000 0.0000 0.0000
# 4 0.0000 0.0000 0.0000 39.3011 0.0000 0.0000
# 5 0.0000 0.0000 0.0000 0.0000 15.1254 0.0000
# 6 0.0000 0.0000 0.0000 0.0000 0.0000 21.5158
#
#
#
# Elastic Compliance Matrix: (Units=1/GPa)
#
#
# Indices 1 2 3 4 5 6 
#
# 1 0.029021 -0.007392 -0.004743 0.000000 0.000000 0.000000
# 2 -0.007392 0.012206 -0.008739 0.000000 0.000000 0.000000
# 3 -0.004743 -0.008739 0.022413 0.000000 0.000000 0.000000
# 4 0.000000 0.000000 0.000000 0.025445 0.000000 0.000000
# 5 0.000000 0.000000 0.000000 0.000000 0.066114 0.000000
# 6 0.000000 0.000000 0.000000 0.000000 0.000000 0.046478
#
#
# Mechanical properties :
#
#
# Convention : Reuss Voigt Hill
#
# Bulk Modulus (GPa) = 45.67981 72.66337 59.17159
# Shear Modulus (GPa) = 19.94246 24.53893 22.24069
#
# Velocity S-wave (km/s) = 3.42179 3.79570 3.61358
# Velocity P-wave (km/s) = 6.51392 7.86588 7.22161
#
# Compressibility (1/GPa) = 0.02189151
#
# Stress axis : x y z
#
# Youngs Moduli (GPa) = 34.45740 81.93007 44.61708
#
# Poissons Ratio (x) = 0.60565 0.21163
# Poissons Ratio (y) = 0.25472 0.38990
# Poissons Ratio (z) = 0.16344 0.71596
#
# Static dielectric constant tensor:
#      x y z
#    x 3.038970 0.000000 0.000000 
#    y 0.000000 3.247750 0.000000 
#    z 0.000000 0.000000 3.207100 
# 
# 
# High freq. dielectric constant tensor:
#      x y z
#    x 1.627160 0.000000 0.000000 
#    y 0.000000 1.664790 0.000000 
#    z 0.000000 0.000000 1.660740 
# 
# From -- ./inp_files/11083.got.cif
#   From: 2010.03.12/outbox.cif.g09.slc.cpg/sg63_6_cif.got.tgz:11083.got - 2010.04.10 19:34:48.
