data_PCOD8256872
_publ_section_title
;
Structure prediction by ZEFSAII (Michael W. Deem and Ramdas Pophale) SiO2 
 PCOD8256872
Probable space group: C M C M
;
_chemical_formula_sum "Si O2"
_cell_formula_units_Z 72
_cell_length_a 25.551353
_cell_length_b 16.470456
_cell_length_c 8.828451
_cell_angle_alpha 90.000000
_cell_angle_beta 90.000000
_cell_angle_gamma 90.000000
_cell_volume 3715.386819
_symmetry_space_group_name_H-M "C M C M"
_symmetry_group_IT_number 63
_symmetry_cell_setting 'orthorhombic'
loop_
_space_group_symop_operation_xyz
x,y,z
-x,-y,1/2+z
x,-y,-z
-x,y,1/2-z
-x,-y,-z
x,y,1/2-z
-x,y,z
x,-y,1/2+z
1/2+x,1/2+y,z
1/2-x,1/2-y,1/2+z
1/2+x,1/2-y,-z
1/2-x,1/2+y,1/2-z
1/2-x,1/2-y,-z
1/2+x,1/2+y,1/2-z
1/2-x,1/2+y,z
1/2+x,1/2-y,1/2+z
loop_
_atom_site_type_symbol
_atom_site_label
_atom_site_fract_x
_atom_site_fract_y
_atom_site_fract_z
Si Si1 0.855895 0.756895 0.431490
Si Si2 0.556861 0.859252 0.581491
Si Si3 0.128362 0.500000 0.500000
Si Si4 0.211362 0.374598 0.419495
Si Si5 0.818605 0.082660 0.430598
O O1 0.853211 0.760346 0.250000
O O2 0.908455 0.712310 0.493609
O O3 0.806604 0.705923 0.492595
O O4 0.854548 0.845562 0.504121
O O5 0.545219 0.830772 0.750000
O O6 0.500000 0.869460 0.497837
O O7 0.589614 0.942671 0.594893
O O8 0.165524 0.441741 0.400778
O O9 0.229975 0.351013 0.250000
O O10 0.258984 0.410356 0.514672
O O11 0.820679 0.080898 0.250000
O O12 0.842229 0.000000 0.500000
#
# Coordination Sequence:
#
# PCOD8256872 Si02
#       5
#    16  16   8  16  16
#     4  10  21  37  56  79 110 147 188 232 280 329
#     4   9  18  33  54  80 110 147 190 234 279 327
#     4  10  19  30  52  80 120 154 191 224 272 320
#     4  11  21  34  53  79 115 153 190 226 270 328
#     4  12  24  38  57  80 109 143 184 231 281 336
#
# _framework density 19.378872000000001
#
# number of rings (size 3 to 8) (size 9 to 14) (size 15 to 20)
#    0.000    1.556    1.111    5.000    0.000    1.778 
#    0.000    0.000    0.000   14.000    0.000    0.000 
#    0.000    0.000    0.000    0.000    0.000    0.000 
#
# Total GULP energy -446125.560931 kJ/mol
# GULP energy per Si atom -12392.376693 kJ/mol
# Density = 1.933477 g / cm^3
# Si number density = 19.378872 Si / 1000 Ang^3
#
#
#
# Elastic Constant Matrix: (Units=GPa)
#
#
# Indices 1 2 3 4 5 6 
#
# 1 86.3894 48.2215 13.1441 0.0000 0.0000 0.0000
# 2 48.2215 150.1207 41.4915 0.0000 0.0000 0.0000
# 3 13.1441 41.4915 121.4326 0.0000 0.0000 0.0000
# 4 0.0000 0.0000 0.0000 27.7152 0.0000 0.0000
# 5 0.0000 0.0000 0.0000 0.0000 15.0066 0.0000
# 6 0.0000 0.0000 0.0000 0.0000 0.0000 18.5669
#
#
#
# Elastic Compliance Matrix: (Units=1/GPa)
#
#
# Indices 1 2 3 4 5 6 
#
# 1 0.014104 -0.004537 0.000024 0.000000 0.000000 0.000000
# 2 -0.004537 0.008815 -0.002521 0.000000 0.000000 0.000000
# 3 0.000024 -0.002521 0.009094 0.000000 0.000000 0.000000
# 4 0.000000 0.000000 0.000000 0.036081 0.000000 0.000000
# 5 0.000000 0.000000 0.000000 0.000000 0.066637 0.000000
# 6 0.000000 0.000000 0.000000 0.000000 0.000000 0.053859
#
#
# Mechanical properties :
#
#
# Convention : Reuss Voigt Hill
#
# Bulk Modulus (GPa) = 55.72676 62.62855 59.17765
# Shear Modulus (GPa) = 23.96444 29.26344 26.61394
#
# Velocity S-wave (km/s) = 3.52039 3.89018 3.70989
# Velocity P-wave (km/s) = 6.73372 7.25025 6.99675
#
# Compressibility (1/GPa) = 0.01794470
#
# Stress axis : x y z
#
# Youngs Moduli (GPa) = 70.89942 113.43667 109.96437
#
# Poissons Ratio (x) = 0.51468 -0.00259
# Poissons Ratio (y) = 0.32168 0.27722
# Poissons Ratio (z) = -0.00167 0.28597
#
# Static dielectric constant tensor:
#      x y z
#    x 3.774260 0.000000 0.000000 
#    y 0.000000 3.727880 0.000000 
#    z 0.000000 0.000000 3.344350 
# 
# 
# High freq. dielectric constant tensor:
#      x y z
#    x 1.735880 0.000000 0.000000 
#    y 0.000000 1.760210 0.000000 
#    z 0.000000 0.000000 1.744170 
# 
# From -- ./inp_files/11674.got.cif
#   From: 2010.03.12/outbox.cif.g09.slc.cpg/sg63_6_cif.got.tgz:11674.got - 2010.04.10 19:34:48.
