data_PCOD8256224
_publ_section_title
;
Structure prediction by ZEFSAII (Michael W. Deem and Ramdas Pophale) SiO2 
 PCOD8256224
Probable space group: C M C M
;
_chemical_formula_sum "Si O2"
_cell_formula_units_Z 88
_cell_length_a 20.030292
_cell_length_b 26.883071
_cell_length_c 8.924922
_cell_angle_alpha 90.000000
_cell_angle_beta 90.000000
_cell_angle_gamma 90.000000
_cell_volume 4805.854175
_symmetry_space_group_name_H-M "C M C M"
_symmetry_group_IT_number 63
_symmetry_cell_setting 'orthorhombic'
loop_
_space_group_symop_operation_xyz
x,y,z
-x,-y,1/2+z
x,-y,-z
-x,y,1/2-z
-x,-y,-z
x,y,1/2-z
-x,y,z
x,-y,1/2+z
1/2+x,1/2+y,z
1/2-x,1/2-y,1/2+z
1/2+x,1/2-y,-z
1/2-x,1/2+y,1/2-z
1/2-x,1/2-y,-z
1/2+x,1/2+y,1/2-z
1/2-x,1/2+y,z
1/2+x,1/2-y,1/2+z
loop_
_atom_site_type_symbol
_atom_site_label
_atom_site_fract_x
_atom_site_fract_y
_atom_site_fract_z
Si Si1 0.500000 0.945367 0.070605
Si Si2 0.633838 0.666485 0.925994
Si Si3 0.263886 0.137970 0.423351
Si Si4 0.631783 0.052895 0.074331
Si Si5 0.132608 0.280473 0.574163
Si Si6 0.500000 0.218055 0.582325
Si Si7 0.500000 0.663689 0.418490
O O1 0.500000 0.945319 0.250000
O O2 0.567835 0.920662 0.006175
O O3 0.500000 0.000000 0.000000
O O4 0.626245 0.661314 0.750000
O O5 0.646043 0.723727 0.974919
O O6 0.696120 0.634182 0.982283
O O7 0.566403 0.644415 0.998511
O O8 0.245072 0.144225 0.250000
O O9 0.304817 0.087839 0.452177
O O10 0.305712 0.185867 0.479448
O O11 0.616361 0.045761 0.250000
O O12 0.648506 0.000000 0.000000
O O13 0.121398 0.285409 0.750000
O O14 0.065851 0.302109 0.498822
O O15 0.500000 0.196726 0.750000
O O16 0.500000 0.277193 0.578009
O O17 0.500000 0.642849 0.250000
#
# Coordination Sequence:
#
# PCOD8256224 Si02
#       7
#     8  16  16  16  16   8   8
#     4  10  18  31  52  73  95 125 162 205 248 289
#     4  10  19  31  50  74  99 126 160 201 239 278
#     4  10  21  34  49  70  97 130 163 195 242 296
#     4  10  20  35  53  72  96 127 164 205 245 288
#     4   9  18  32  47  66  96 132 165 198 237 284
#     4   9  17  28  44  67  93 127 168 205 239 275
#     4   9  17  31  50  68  94 130 164 196 232 282
#
# _framework density 18.311
#
# number of rings (size 3 to 8) (size 9 to 14) (size 15 to 20)
#    0.000    2.364    0.000    4.091    0.000    5.818 
#    0.000    3.636    0.000    0.000    0.000    0.636 
#    0.000    0.000    0.000    0.000    0.000    0.000 
#
# Total GULP energy -545576.825539 kJ/mol
# GULP energy per Si atom -12399.473308 kJ/mol
# Density = 1.826932 g / cm^3
# Si number density = 18.311000 Si / 1000 Ang^3
#
#
#
# Elastic Constant Matrix: (Units=GPa)
#
#
# Indices 1 2 3 4 5 6 
#
# 1 164.0508 36.5774 72.6079 0.0000 0.0000 0.0000
# 2 36.5774 44.0529 30.2308 0.0000 0.0000 0.0000
# 3 72.6079 30.2308 105.3796 0.0000 0.0000 0.0000
# 4 0.0000 0.0000 0.0000 18.4885 0.0000 0.0000
# 5 0.0000 0.0000 0.0000 0.0000 36.1372 0.0000
# 6 0.0000 0.0000 0.0000 0.0000 0.0000 9.7009
#
#
#
# Elastic Compliance Matrix: (Units=1/GPa)
#
#
# Indices 1 2 3 4 5 6 
#
# 1 0.009345 -0.004159 -0.005245 0.000000 0.000000 0.000000
# 2 -0.004159 0.030116 -0.005774 0.000000 0.000000 0.000000
# 3 -0.005245 -0.005774 0.014760 0.000000 0.000000 0.000000
# 4 0.000000 0.000000 0.000000 0.054088 0.000000 0.000000
# 5 0.000000 0.000000 0.000000 0.000000 0.027672 0.000000
# 6 0.000000 0.000000 0.000000 0.000000 0.000000 0.103083
#
#
# Mechanical properties :
#
#
# Convention : Reuss Voigt Hill
#
# Bulk Modulus (GPa) = 41.90491 65.81285 53.85888
# Shear Modulus (GPa) = 18.02621 24.46982 21.24801
#
# Velocity S-wave (km/s) = 3.14099 3.65957 3.41015
# Velocity P-wave (km/s) = 6.00743 7.34005 6.70692
#
# Compressibility (1/GPa) = 0.02386355
#
# Stress axis : x y z
#
# Youngs Moduli (GPa) = 107.01359 33.20545 67.75109
#
# Poissons Ratio (x) = 0.13811 0.35538
# Poissons Ratio (y) = 0.44510 0.39117
# Poissons Ratio (z) = 0.56132 0.19171
#
# Static dielectric constant tensor:
#      x y z
#    x 3.584810 0.000000 0.000000 
#    y 0.000000 3.004840 0.000000 
#    z 0.000000 0.000000 3.427080 
# 
# 
# High freq. dielectric constant tensor:
#      x y z
#    x 1.717910 0.000000 0.000000 
#    y 0.000000 1.662430 0.000000 
#    z 0.000000 0.000000 1.718660 
# 
# From -- ./inp_files/6935.got.cif
#   From: 2010.03.12/outbox.cif.g09.slc.cpg/sg63_4_cif.got.tgz:6935.got - 2010.04.10 19:34:48.
