data_PCOD8256738
_publ_section_title
;
Structure prediction by ZEFSAII (Michael W. Deem and Ramdas Pophale) SiO2 
 PCOD8256738
Probable space group: C M C M
;
_chemical_formula_sum "Si O2"
_cell_formula_units_Z 64
_cell_length_a 13.710382
_cell_length_b 18.955725
_cell_length_c 13.616827
_cell_angle_alpha 90.000000
_cell_angle_beta 90.000000
_cell_angle_gamma 90.000000
_cell_volume 3538.880312
_symmetry_space_group_name_H-M "C M C M"
_symmetry_group_IT_number 63
_symmetry_cell_setting 'orthorhombic'
loop_
_space_group_symop_operation_xyz
x,y,z
-x,-y,1/2+z
x,-y,-z
-x,y,1/2-z
-x,-y,-z
x,y,1/2-z
-x,y,z
x,-y,1/2+z
1/2+x,1/2+y,z
1/2-x,1/2-y,1/2+z
1/2+x,1/2-y,-z
1/2-x,1/2+y,1/2-z
1/2-x,1/2-y,-z
1/2+x,1/2+y,1/2-z
1/2-x,1/2+y,z
1/2+x,1/2-y,1/2+z
loop_
_atom_site_type_symbol
_atom_site_label
_atom_site_fract_x
_atom_site_fract_y
_atom_site_fract_z
Si Si1 0.384721 0.757329 0.641133
Si Si2 0.698353 0.032322 0.863867
Si Si3 0.607014 0.603264 0.865798
Si Si4 0.113802 0.397646 0.958018
O O1 0.338548 0.768370 0.750000
O O2 0.500000 0.761429 0.650497
O O3 0.357420 0.680594 0.595666
O O4 0.348160 0.819448 0.568768
O O5 0.677302 0.047860 0.750000
O O6 0.812190 0.044829 0.892141
O O7 0.673652 0.952168 0.890376
O O8 0.632726 0.086379 0.927280
O O9 0.596251 0.611558 0.750000
O O10 0.500000 0.582242 0.909545
O O11 0.000000 0.407432 0.934707
#
# Coordination Sequence:
#
# PCOD8256738 Si02
#       4
#    16  16  16  16
#     4   8  14  27  47  67  88 116 148 182 217 253
#     4  10  19  30  45  66  91 118 147 181 224 267
#     4   8  15  29  48  68  88 112 146 186 223 258
#     4  10  20  31  44  66  93 120 151 182 216 262
#
# _framework density 18.084816
#
# number of rings (size 3 to 8) (size 9 to 14) (size 15 to 20)
#    0.000    3.000    0.000    3.750    0.000    4.000 
#    0.000    2.500    0.000    0.000    0.000    3.500 
#    0.000   14.000    0.000    0.000    0.000    0.000 
#
# Total GULP energy -396503.915554 kJ/mol
# GULP energy per Si atom -12390.747361 kJ/mol
# Density = 1.804365 g / cm^3
# Si number density = 18.084816 Si / 1000 Ang^3
#
#
#
# Elastic Constant Matrix: (Units=GPa)
#
#
# Indices 1 2 3 4 5 6 
#
# 1 87.8400 60.2080 19.2529 0.0000 0.0000 0.0000
# 2 60.2080 76.4409 23.3458 0.0000 0.0000 0.0000
# 3 19.2529 23.3458 71.8204 0.0000 0.0000 0.0000
# 4 0.0000 0.0000 0.0000 18.5256 0.0000 0.0000
# 5 0.0000 0.0000 0.0000 0.0000 19.2077 0.0000
# 6 0.0000 0.0000 0.0000 0.0000 0.0000 21.0598
#
#
#
# Elastic Compliance Matrix: (Units=1/GPa)
#
#
# Indices 1 2 3 4 5 6 
#
# 1 0.024749 -0.019392 -0.000331 0.000000 0.000000 0.000000
# 2 -0.019392 0.029719 -0.004462 0.000000 0.000000 0.000000
# 3 -0.000331 -0.004462 0.015463 0.000000 0.000000 0.000000
# 4 0.000000 0.000000 0.000000 0.053979 0.000000 0.000000
# 5 0.000000 0.000000 0.000000 0.000000 0.052062 0.000000
# 6 0.000000 0.000000 0.000000 0.000000 0.000000 0.047484
#
#
# Mechanical properties :
#
#
# Convention : Reuss Voigt Hill
#
# Bulk Modulus (GPa) = 46.38104 49.07941 47.73023
# Shear Modulus (GPa) = 17.92035 20.64492 19.28264
#
# Velocity S-wave (km/s) = 3.15128 3.38236 3.26887
# Velocity P-wave (km/s) = 6.24042 6.51546 6.37942
#
# Compressibility (1/GPa) = 0.02156053
#
# Stress axis : x y z
#
# Youngs Moduli (GPa) = 40.40612 33.64882 64.67187
#
# Poissons Ratio (x) = 0.65252 0.02140
# Poissons Ratio (y) = 0.78356 0.28856
# Poissons Ratio (z) = 0.01337 0.15014
#
# Static dielectric constant tensor:
#      x y z
#    x 3.346870 0.000000 0.000000 
#    y 0.000000 3.568740 0.000000 
#    z 0.000000 0.000000 3.224160 
# 
# 
# High freq. dielectric constant tensor:
#      x y z
#    x 1.683070 0.000000 0.000000 
#    y 0.000000 1.699610 0.000000 
#    z 0.000000 0.000000 1.676440 
# 
# From -- ./inp_files/29105.got.cif
#   From: 2010.03.12/outbox.cif.g09.slc.cpg/sg63_15_cif.got.tgz:29105.got - 2010.04.10 19:34:48.
