data_PCOD8256651
_publ_section_title
;
Structure prediction by ZEFSAII (Michael W. Deem and Ramdas Pophale) SiO2 
 PCOD8256651
Probable space group: C M C M
;
_chemical_formula_sum "Si O2"
_cell_formula_units_Z 88
_cell_length_a 18.567151
_cell_length_b 29.608697
_cell_length_c 10.196223
_cell_angle_alpha 90.000000
_cell_angle_beta 90.000000
_cell_angle_gamma 90.000000
_cell_volume 5605.364908
_symmetry_space_group_name_H-M "C M C M"
_symmetry_group_IT_number 63
_symmetry_cell_setting 'orthorhombic'
loop_
_space_group_symop_operation_xyz
x,y,z
-x,-y,1/2+z
x,-y,-z
-x,y,1/2-z
-x,-y,-z
x,y,1/2-z
-x,y,z
x,-y,1/2+z
1/2+x,1/2+y,z
1/2-x,1/2-y,1/2+z
1/2+x,1/2-y,-z
1/2-x,1/2+y,1/2-z
1/2-x,1/2-y,-z
1/2+x,1/2+y,1/2-z
1/2-x,1/2+y,z
1/2+x,1/2-y,1/2+z
loop_
_atom_site_type_symbol
_atom_site_label
_atom_site_fract_x
_atom_site_fract_y
_atom_site_fract_z
Si Si1 0.656714 0.957675 0.401607
Si Si2 0.919745 0.698290 0.517296
Si Si3 0.777656 0.813982 0.250000
Si Si4 0.716198 0.134188 0.981824
Si Si5 0.239100 0.169810 0.250000
Si Si6 0.500000 0.037565 0.606277
Si Si7 0.141935 0.249914 0.250000
Si Si8 0.874311 0.734476 0.250000
O O1 0.673306 0.971890 0.250000
O O2 0.709846 0.918518 0.448276
O O3 0.575502 0.935872 0.410497
O O4 0.665927 0.000000 0.500000
O O5 0.862024 0.657959 0.526580
O O6 0.903563 0.737695 0.621543
O O7 0.920448 0.722333 0.376822
O O8 0.000000 0.678385 0.542757
O O9 0.771839 0.844322 0.120567
O O10 0.714578 0.777973 0.250000
O O11 0.853727 0.787646 0.250000
O O12 0.753001 0.138157 0.123375
O O13 0.162815 0.196665 0.250000
O O14 0.301295 0.206483 0.250000
O O15 0.500000 0.014349 0.750000
O O16 0.500000 0.000000 0.500000
#
# Coordination Sequence:
#
# PCOD8256651 Si02
#       8
#    16  16   8  16   8   8   8   8
#     4  10  20  33  47  62  84 113 149 187 233 273
#     4  10  19  29  44  66  91 117 149 186 227 261
#     4   9  16  30  47  64  80 109 154 188 220 259
#     4  10  19  30  45  66  85 114 153 195 223 258
#     4   9  18  30  45  62  86 111 150 186 222 261
#     4   8  16  30  44  56  74 106 142 178 216 268
#     4   9  17  30  44  64  84 115 146 185 222 261
#     4   9  17  30  46  60  88 117 142 185 224 267
#
# _framework density 15.699244999999999
#
# number of rings (size 3 to 8) (size 9 to 14) (size 15 to 20)
#    0.000    2.545    0.909    1.636    2.545    4.364 
#    0.000    0.000    0.000    0.000    0.000    0.000 
#    0.000    0.000    0.000    0.000    0.000   63.636 
#
# Total GULP energy -545207.856234 kJ/mol
# GULP energy per Si atom -12391.087642 kJ/mol
# Density = 1.566351 g / cm^3
# Si number density = 15.699245 Si / 1000 Ang^3
#
#
#
# Elastic Constant Matrix: (Units=GPa)
#
#
# Indices 1 2 3 4 5 6 
#
# 1 20.4506 13.0788 9.0078 0.0000 0.0000 0.0000
# 2 13.0788 72.6659 34.8023 0.0000 0.0000 0.0000
# 3 9.0078 34.8023 124.1004 0.0000 0.0000 0.0000
# 4 0.0000 0.0000 0.0000 7.8789 0.0000 0.0000
# 5 0.0000 0.0000 0.0000 0.0000 74.5087 0.0000
# 6 0.0000 0.0000 0.0000 0.0000 0.0000 19.0506
#
#
#
# Elastic Compliance Matrix: (Units=1/GPa)
#
#
# Indices 1 2 3 4 5 6 
#
# 1 0.055474 -0.009306 -0.001417 0.000000 0.000000 0.000000
# 2 -0.009306 0.017458 -0.004220 0.000000 0.000000 0.000000
# 3 -0.001417 -0.004220 0.009344 0.000000 0.000000 0.000000
# 4 0.000000 0.000000 0.000000 0.126922 0.000000 0.000000
# 5 0.000000 0.000000 0.000000 0.000000 0.013421 0.000000
# 6 0.000000 0.000000 0.000000 0.000000 0.000000 0.052492
#
#
# Mechanical properties :
#
#
# Convention : Reuss Voigt Hill
#
# Bulk Modulus (GPa) = 19.08772 36.77720 27.93246
# Shear Modulus (GPa) = 15.50580 30.97616 23.24098
#
# Velocity S-wave (km/s) = 3.14614 4.44678 3.85176
# Velocity P-wave (km/s) = 5.03809 7.05989 6.13288
#
# Compressibility (1/GPa) = 0.05238971
#
# Stress axis : x y z
#
# Youngs Moduli (GPa) = 18.02657 57.28092 107.01628
#
# Poissons Ratio (x) = 0.53305 0.15163
# Poissons Ratio (y) = 0.16775 0.45165
# Poissons Ratio (z) = 0.02554 0.24175
#
# Static dielectric constant tensor:
#      x y z
#    x 2.868360 0.000000 0.000000 
#    y 0.000000 2.720380 0.000000 
#    z 0.000000 0.000000 3.273450 
# 
# 
# High freq. dielectric constant tensor:
#      x y z
#    x 1.560620 0.000000 0.000000 
#    y 0.000000 1.568760 0.000000 
#    z 0.000000 0.000000 1.628330 
# 
# From -- ./inp_files/9068.got.cif
#   From: 2010.03.12/outbox.cif.g09.slc.cpg/sg63_5_cif.got.tgz:9068.got - 2010.04.10 19:34:48.
