data_PCOD8256113
_publ_section_title
;
Structure prediction by ZEFSAII (Michael W. Deem and Ramdas Pophale) SiO2 
 PCOD8256113
Probable space group: C M C M
;
_chemical_formula_sum "Si O2"
_cell_formula_units_Z 56
_cell_length_a 35.854630
_cell_length_b 9.840385
_cell_length_c 8.583878
_cell_angle_alpha 90.000000
_cell_angle_beta 90.000000
_cell_angle_gamma 90.000000
_cell_volume 3028.592706
_symmetry_space_group_name_H-M "C M C M"
_symmetry_group_IT_number 63
_symmetry_cell_setting 'orthorhombic'
loop_
_space_group_symop_operation_xyz
x,y,z
-x,-y,1/2+z
x,-y,-z
-x,y,1/2-z
-x,-y,-z
x,y,1/2-z
-x,y,z
x,-y,1/2+z
1/2+x,1/2+y,z
1/2-x,1/2-y,1/2+z
1/2+x,1/2-y,-z
1/2-x,1/2+y,1/2-z
1/2-x,1/2-y,-z
1/2+x,1/2+y,1/2-z
1/2-x,1/2+y,z
1/2+x,1/2-y,1/2+z
loop_
_atom_site_type_symbol
_atom_site_label
_atom_site_fract_x
_atom_site_fract_y
_atom_site_fract_z
Si Si1 0.575719 0.850574 0.433316
Si Si2 0.140610 0.145539 0.434117
Si Si3 0.720001 0.352542 0.434558
Si Si4 0.500000 0.150965 0.065829
O O1 0.571137 0.862325 0.250000
O O2 0.609798 0.755167 0.482288
O O3 0.538057 0.780894 0.502647
O O4 0.583276 0.000000 0.500000
O O5 0.145877 0.134031 0.250000
O O6 0.179219 0.194498 0.509813
O O7 0.128083 0.000000 0.500000
O O8 0.729813 0.500000 0.500000
O O9 0.721442 0.355429 0.250000
O O10 0.750000 0.250000 0.500000
O O11 0.500000 0.152807 0.250000
O O12 0.500000 0.000000 0.000000
#
# Coordination Sequence:
#
# PCOD8256113 Si02
#       4
#    16  16  16   8
#     4  10  20  34  54  79 107 138 176 219 263 313
#     4  10  21  37  56  79 108 142 178 218 266 319
#     4  11  22  38  59  82 110 143 180 222 268 320
#     4  10  18  30  51  76 105 138 174 216 264 312
#
# _framework density 18.490435999999999
#
# number of rings (size 3 to 8) (size 9 to 14) (size 15 to 20)
#    0.000    1.714    0.000    9.000    0.000    5.714 
#    0.000    3.571    0.000    0.000    0.000    0.000 
#    0.000    0.000    0.000    0.000    0.000    0.000 
#
# Total GULP energy -347217.499363 kJ/mol
# GULP energy per Si atom -12400.624977 kJ/mol
# Density = 1.844835 g / cm^3
# Si number density = 18.490436 Si / 1000 Ang^3
#
#
#
# Elastic Constant Matrix: (Units=GPa)
#
#
# Indices 1 2 3 4 5 6 
#
# 1 186.6277 107.3400 88.1506 0.0000 0.0000 0.0000
# 2 107.3400 98.3954 58.0198 0.0000 0.0000 0.0000
# 3 88.1506 58.0198 147.9240 0.0000 0.0000 0.0000
# 4 0.0000 0.0000 0.0000 30.5803 0.0000 0.0000
# 5 0.0000 0.0000 0.0000 0.0000 36.2301 0.0000
# 6 0.0000 0.0000 0.0000 0.0000 0.0000 4.7742
#
#
#
# Elastic Compliance Matrix: (Units=1/GPa)
#
#
# Indices 1 2 3 4 5 6 
#
# 1 0.015601 -0.015009 -0.003410 0.000000 0.000000 0.000000
# 2 -0.015009 0.027659 -0.001905 0.000000 0.000000 0.000000
# 3 -0.003410 -0.001905 0.009540 0.000000 0.000000 0.000000
# 4 0.000000 0.000000 0.000000 0.032701 0.000000 0.000000
# 5 0.000000 0.000000 0.000000 0.000000 0.027601 0.000000
# 6 0.000000 0.000000 0.000000 0.000000 0.000000 0.209460
#
#
# Mechanical properties :
#
#
# Convention : Reuss Voigt Hill
#
# Bulk Modulus (GPa) = 82.28627 104.44088 93.36358
# Shear Modulus (GPa) = 13.61427 26.27937 19.94682
#
# Velocity S-wave (km/s) = 2.71641 3.77402 3.28802
# Velocity P-wave (km/s) = 7.37815 8.69467 8.06333
#
# Compressibility (1/GPa) = 0.01215270
#
# Stress axis : x y z
#
# Youngs Moduli (GPa) = 64.09655 36.15415 104.82605
#
# Poissons Ratio (x) = 0.54263 0.35749
# Poissons Ratio (y) = 0.96201 0.19967
# Poissons Ratio (z) = 0.21859 0.06886
#
# Static dielectric constant tensor:
#      x y z
#    x 2.646630 0.000000 0.000000 
#    y 0.000000 3.283490 0.000000 
#    z 0.000000 0.000000 3.592280 
# 
# 
# High freq. dielectric constant tensor:
#      x y z
#    x 1.735250 0.000000 0.000000 
#    y 0.000000 1.695900 0.000000 
#    z 0.000000 0.000000 1.741810 
# 
# From -- ./inp_files/11424.got.cif
#   From: 2010.03.12/outbox.cif.g09.slc.cpg/sg63_6_cif.got.tgz:11424.got - 2010.04.10 19:34:48.
