data_PCOD8256162
_publ_section_title
;
Structure prediction by ZEFSAII (Michael W. Deem and Ramdas Pophale) SiO2 
 PCOD8256162
Probable space group: C M C M
;
_chemical_formula_sum "Si O2"
_cell_formula_units_Z 80
_cell_length_a 23.848586
_cell_length_b 26.326779
_cell_length_c 8.567971
_cell_angle_alpha 90.000000
_cell_angle_beta 90.000000
_cell_angle_gamma 90.000000
_cell_volume 5379.455882
_symmetry_space_group_name_H-M "C M C M"
_symmetry_group_IT_number 63
_symmetry_cell_setting 'orthorhombic'
loop_
_space_group_symop_operation_xyz
x,y,z
-x,-y,1/2+z
x,-y,-z
-x,y,1/2-z
-x,-y,-z
x,y,1/2-z
-x,y,z
x,-y,1/2+z
1/2+x,1/2+y,z
1/2-x,1/2-y,1/2+z
1/2+x,1/2-y,-z
1/2-x,1/2+y,1/2-z
1/2-x,1/2-y,-z
1/2+x,1/2+y,1/2-z
1/2-x,1/2+y,z
1/2+x,1/2-y,1/2+z
loop_
_atom_site_type_symbol
_atom_site_label
_atom_site_fract_x
_atom_site_fract_y
_atom_site_fract_z
Si Si1 0.613248 0.945585 0.933672
Si Si2 0.119252 0.259310 0.065937
Si Si3 0.500000 0.215549 0.935939
Si Si4 0.000000 0.599893 0.565225
Si Si5 0.721395 0.299881 0.565801
Si Si6 0.314754 0.858413 0.066069
O O1 0.606632 0.948341 0.750000
O O2 0.554669 0.928414 0.005744
O O3 0.663558 0.908120 0.979440
O O4 0.630257 0.000000 0.000000
O O5 0.116822 0.265838 0.250000
O O6 0.055782 0.256044 0.998618
O O7 0.154991 0.208293 0.024390
O O8 0.148943 0.310594 0.003266
O O9 0.500000 0.216389 0.750000
O O10 0.500000 0.157675 0.996214
O O11 0.000000 0.598391 0.750000
O O12 0.730668 0.304252 0.750000
O O13 0.750000 0.250000 0.500000
O O14 0.749342 0.348597 0.481477
O O15 0.319859 0.866459 0.250000
#
# Coordination Sequence:
#
# PCOD8256162 Si02
#       6
#    16  16   8   8  16  16
#     4  12  24  36  48  64  85 111 148 190 231 269
#     4   8  14  24  41  63  85 110 143 176 215 260
#     4   9  14  24  44  65  85 114 145 181 218 255
#     4  11  20  34  51  63  84 116 152 189 227 263
#     4   9  16  26  41  63  86 110 141 179 219 265
#     4  10  18  31  47  63  82 110 145 183 226 268
#
# _framework density 14.871392999999999
#
# number of rings (size 3 to 8) (size 9 to 14) (size 15 to 20)
#    0.000    2.200    2.000    4.800    0.000    0.000 
#    0.000    0.000    0.000    0.000    0.000    0.000 
#    0.000    0.000    0.000    0.900    0.000    9.000 
#
# Total GULP energy -495656.321392 kJ/mol
# GULP energy per Si atom -12391.408035 kJ/mol
# Density = 1.483754 g / cm^3
# Si number density = 14.871393 Si / 1000 Ang^3
#
#
#
# Elastic Constant Matrix: (Units=GPa)
#
#
# Indices 1 2 3 4 5 6 
#
# 1 113.0449 59.9763 19.0921 0.0000 0.0000 0.0000
# 2 59.9763 68.4351 18.3336 0.0000 0.0000 0.0000
# 3 19.0921 18.3336 54.0315 0.0000 0.0000 0.0000
# 4 0.0000 0.0000 0.0000 19.1472 0.0000 0.0000
# 5 0.0000 0.0000 0.0000 0.0000 17.0037 0.0000
# 6 0.0000 0.0000 0.0000 0.0000 0.0000 19.2412
#
#
#
# Elastic Compliance Matrix: (Units=1/GPa)
#
#
# Indices 1 2 3 4 5 6 
#
# 1 0.016585 -0.014261 -0.001021 0.000000 0.000000 0.000000
# 2 -0.014261 0.028337 -0.004576 0.000000 0.000000 0.000000
# 3 -0.001021 -0.004576 0.020421 0.000000 0.000000 0.000000
# 4 0.000000 0.000000 0.000000 0.052227 0.000000 0.000000
# 5 0.000000 0.000000 0.000000 0.000000 0.058811 0.000000
# 6 0.000000 0.000000 0.000000 0.000000 0.000000 0.051972
#
#
# Mechanical properties :
#
#
# Convention : Reuss Voigt Hill
#
# Bulk Modulus (GPa) = 39.02259 47.81283 43.41771
# Shear Modulus (GPa) = 18.07590 20.28573 19.18081
#
# Velocity S-wave (km/s) = 3.49016 3.69735 3.59525
# Velocity P-wave (km/s) = 6.52216 7.10266 6.81859
#
# Compressibility (1/GPa) = 0.02562618
#
# Stress axis : x y z
#
# Youngs Moduli (GPa) = 60.29551 35.28964 48.96871
#
# Poissons Ratio (x) = 0.50328 0.05001
# Poissons Ratio (y) = 0.85990 0.22407
# Poissons Ratio (z) = 0.06158 0.16148
#
# Static dielectric constant tensor:
#      x y z
#    x 3.466260 0.000000 0.000000 
#    y 0.000000 2.804080 0.000000 
#    z 0.000000 0.000000 2.860550 
# 
# 
# High freq. dielectric constant tensor:
#      x y z
#    x 1.566520 0.000000 0.000000 
#    y 0.000000 1.527540 0.000000 
#    z 0.000000 0.000000 1.566450 
# 
# From -- ./inp_files/10370.got.cif
#   From: 2010.03.12/outbox.cif.g09.slc.cpg/sg63_6_cif.got.tgz:10370.got - 2010.04.10 19:34:48.
