data_PCOD8256081
_publ_section_title
;
Structure prediction by ZEFSAII (Michael W. Deem and Ramdas Pophale) SiO2 
 PCOD8256081
Probable space group: C M C M
;
_chemical_formula_sum "Si O2"
_cell_formula_units_Z 72
_cell_length_a 17.737697
_cell_length_b 23.700432
_cell_length_c 8.890025
_cell_angle_alpha 90.000000
_cell_angle_beta 90.000000
_cell_angle_gamma 90.000000
_cell_volume 3737.287225
_symmetry_space_group_name_H-M "C M C M"
_symmetry_group_IT_number 63
_symmetry_cell_setting 'orthorhombic'
loop_
_space_group_symop_operation_xyz
x,y,z
-x,-y,1/2+z
x,-y,-z
-x,y,1/2-z
-x,-y,-z
x,y,1/2-z
-x,y,z
x,-y,1/2+z
1/2+x,1/2+y,z
1/2-x,1/2-y,1/2+z
1/2+x,1/2-y,-z
1/2-x,1/2+y,1/2-z
1/2-x,1/2-y,-z
1/2+x,1/2+y,1/2-z
1/2-x,1/2+y,z
1/2+x,1/2-y,1/2+z
loop_
_atom_site_type_symbol
_atom_site_label
_atom_site_fract_x
_atom_site_fract_y
_atom_site_fract_z
Si Si1 0.500000 0.560924 0.071255
Si Si2 0.712114 0.939665 0.572101
Si Si3 0.645104 0.629186 0.071414
Si Si4 0.911502 0.369101 0.075974
Si Si5 0.083987 0.244356 0.071175
O O1 0.500000 0.555689 0.250000
O O2 0.573781 0.593718 0.012408
O O3 0.500000 0.500000 0.000000
O O4 0.714240 0.946288 0.750000
O O5 0.777764 0.898127 0.511005
O O6 0.631853 0.914890 0.523015
O O7 0.726061 0.000000 0.500000
O O8 0.644731 0.628884 0.250000
O O9 0.638389 0.694090 0.012458
O O10 0.890438 0.378093 0.250000
O O11 0.887341 0.306214 0.019971
O O12 0.000000 0.378211 0.050066
O O13 0.079325 0.244147 0.250000
O O14 0.000000 0.233303 0.007376
#
# Coordination Sequence:
#
# PCOD8256081 Si02
#       5
#     8  16  16  16  16
#     4  10  18  30  50  74 104 142 183 218 247 292
#     4  11  23  37  53  76 108 142 177 219 264 311
#     4   9  17  30  51  79 107 139 177 215 254 302
#     4   9  19  36  59  83 104 132 172 218 267 319
#     4   8  13  27  53  82 108 134 171 214 255 309
#
# _framework density 19.265309999999999
#
# number of rings (size 3 to 8) (size 9 to 14) (size 15 to 20)
#    0.000    2.667    1.111    2.667    0.000    1.778 
#    0.000    1.111    0.000    2.667    0.000    0.000 
#    0.000    0.000    0.000    0.000    0.000    0.000 
#
# Total GULP energy -446257.432084 kJ/mol
# GULP energy per Si atom -12396.039780 kJ/mol
# Density = 1.922146 g / cm^3
# Si number density = 19.265310 Si / 1000 Ang^3
#
#
#
# Elastic Constant Matrix: (Units=GPa)
#
#
# Indices 1 2 3 4 5 6 
#
# 1 91.8405 46.3642 27.6827 0.0000 0.0000 0.0000
# 2 46.3642 93.8294 26.5464 0.0000 0.0000 0.0000
# 3 27.6827 26.5464 38.5733 0.0000 0.0000 0.0000
# 4 0.0000 0.0000 0.0000 17.2442 0.0000 0.0000
# 5 0.0000 0.0000 0.0000 0.0000 17.4714 0.0000
# 6 0.0000 0.0000 0.0000 0.0000 0.0000 35.4508
#
#
#
# Elastic Compliance Matrix: (Units=1/GPa)
#
#
# Indices 1 2 3 4 5 6 
#
# 1 0.016103 -0.005821 -0.007551 0.000000 0.000000 0.000000
# 2 -0.005821 0.015339 -0.006379 0.000000 0.000000 0.000000
# 3 -0.007551 -0.006379 0.035733 0.000000 0.000000 0.000000
# 4 0.000000 0.000000 0.000000 0.057990 0.000000 0.000000
# 5 0.000000 0.000000 0.000000 0.000000 0.057236 0.000000
# 6 0.000000 0.000000 0.000000 0.000000 0.000000 0.028208
#
#
# Mechanical properties :
#
#
# Convention : Reuss Voigt Hill
#
# Bulk Modulus (GPa) = 36.13420 47.26998 41.70209
# Shear Modulus (GPa) = 19.28011 22.27662 20.77836
#
# Velocity S-wave (km/s) = 3.16692 3.40414 3.28767
# Velocity P-wave (km/s) = 5.67180 6.32776 6.00874
#
# Compressibility (1/GPa) = 0.02767461
#
# Stress axis : x y z
#
# Youngs Moduli (GPa) = 62.10081 65.19525 27.98503
#
# Poissons Ratio (x) = 0.37948 0.21130
# Poissons Ratio (y) = 0.36147 0.17851
# Poissons Ratio (z) = 0.46890 0.41587
#
# Static dielectric constant tensor:
#      x y z
#    x 3.590490 0.000000 0.000000 
#    y 0.000000 3.854100 0.000000 
#    z 0.000000 0.000000 3.002680 
# 
# 
# High freq. dielectric constant tensor:
#      x y z
#    x 1.746540 0.000000 0.000000 
#    y 0.000000 1.767090 0.000000 
#    z 0.000000 0.000000 1.699290 
# 
# From -- ./inp_files/6115.got.cif
#   From: 2010.03.12/outbox.cif.g09.slc.cpg/sg63_4_cif.got.tgz:6115.got - 2010.04.10 19:34:48.
