data_PCOD8256305
_publ_section_title
;
Structure prediction by ZEFSAII (Michael W. Deem and Ramdas Pophale) SiO2 
 PCOD8256305
Probable space group: C M C M
;
_chemical_formula_sum "Si O2"
_cell_formula_units_Z 96
_cell_length_a 19.396409
_cell_length_b 18.654506
_cell_length_c 16.459763
_cell_angle_alpha 90.000000
_cell_angle_beta 90.000000
_cell_angle_gamma 90.000000
_cell_volume 5955.643092
_symmetry_space_group_name_H-M "C M C M"
_symmetry_group_IT_number 63
_symmetry_cell_setting 'orthorhombic'
loop_
_space_group_symop_operation_xyz
x,y,z
-x,-y,1/2+z
x,-y,-z
-x,y,1/2-z
-x,-y,-z
x,y,1/2-z
-x,y,z
x,-y,1/2+z
1/2+x,1/2+y,z
1/2-x,1/2-y,1/2+z
1/2+x,1/2-y,-z
1/2-x,1/2+y,1/2-z
1/2-x,1/2-y,-z
1/2+x,1/2+y,1/2-z
1/2-x,1/2+y,z
1/2+x,1/2-y,1/2+z
loop_
_atom_site_type_symbol
_atom_site_label
_atom_site_fract_x
_atom_site_fract_y
_atom_site_fract_z
Si Si1 0.074143 0.582171 0.658408
Si Si2 0.207044 0.540068 0.580858
Si Si3 0.785197 0.324631 0.980348
Si Si4 0.575667 0.214310 0.540824
Si Si5 0.216155 0.917137 0.656471
Si Si6 0.922179 0.844227 0.842058
O O1 0.083539 0.607436 0.750000
O O2 0.138563 0.532785 0.635268
O O3 0.073544 0.653225 0.606900
O O4 0.000000 0.541629 0.646588
O O5 0.185503 0.500000 0.500000
O O6 0.229157 0.621166 0.556674
O O7 0.268400 0.498406 0.627212
O O8 0.759086 0.358996 0.896228
O O9 0.750000 0.250000 0.000000
O O10 0.867091 0.306420 0.973540
O O11 0.500000 0.222668 0.499199
O O12 0.595884 0.285394 0.590447
O O13 0.238221 0.906571 0.750000
O O14 0.133938 0.907110 0.645115
O O15 0.915179 0.813191 0.750000
O O16 0.000000 0.874259 0.855119
#
# Coordination Sequence:
#
# PCOD8256305 Si02
#       6
#    16  16  16  16  16  16
#     4   9  16  26  42  65  91 117 150 192 235 282
#     4   9  19  31  45  63  92 128 158 192 235 280
#     4  10  18  32  50  72  95 126 160 203 238 284
#     4   9  16  27  45  69  96 123 153 195 244 286
#     4  10  19  32  48  69  99 130 159 197 241 289
#     4   9  16  26  44  70  97 124 156 199 249 290
#
# _framework density 16.119167000000001
#
# number of rings (size 3 to 8) (size 9 to 14) (size 15 to 20)
#    0.000    2.667    1.667    1.000    0.000    2.333 
#    0.000    3.333    0.000    7.000    0.000    0.000 
#    0.000    0.000    0.000    0.167    0.000    0.000 
#
# Total GULP energy -594661.774489 kJ/mol
# GULP energy per Si atom -12388.786969 kJ/mol
# Density = 1.608248 g / cm^3
# Si number density = 16.119167 Si / 1000 Ang^3
#
#
#
# Elastic Constant Matrix: (Units=GPa)
#
#
# Indices 1 2 3 4 5 6 
#
# 1 123.9250 50.6792 47.6058 0.0000 0.0000 0.0000
# 2 50.6792 81.5236 22.6716 0.0000 0.0000 0.0000
# 3 47.6058 22.6716 65.3181 0.0000 0.0000 0.0000
# 4 0.0000 0.0000 0.0000 21.5284 0.0000 0.0000
# 5 0.0000 0.0000 0.0000 0.0000 22.9222 0.0000
# 6 0.0000 0.0000 0.0000 0.0000 0.0000 26.0606
#
#
#
# Elastic Compliance Matrix: (Units=1/GPa)
#
#
# Indices 1 2 3 4 5 6 
#
# 1 0.013626 -0.006319 -0.007738 0.000000 0.000000 0.000000
# 2 -0.006319 0.016507 -0.001124 0.000000 0.000000 0.000000
# 3 -0.007738 -0.001124 0.021339 0.000000 0.000000 0.000000
# 4 0.000000 0.000000 0.000000 0.046450 0.000000 0.000000
# 5 0.000000 0.000000 0.000000 0.000000 0.043626 0.000000
# 6 0.000000 0.000000 0.000000 0.000000 0.000000 0.038372
#
#
# Mechanical properties :
#
#
# Convention : Reuss Voigt Hill
#
# Bulk Modulus (GPa) = 47.36885 56.96444 52.16665
# Shear Modulus (GPa) = 23.00764 24.08957 23.54861
#
# Velocity S-wave (km/s) = 3.78212 3.87003 3.82633
# Velocity P-wave (km/s) = 6.96585 7.44216 7.20794
#
# Compressibility (1/GPa) = 0.02111092
#
# Stress axis : x y z
#
# Youngs Moduli (GPa) = 73.38976 60.58011 46.86163
#
# Poissons Ratio (x) = 0.38279 0.36260
# Poissons Ratio (y) = 0.46373 0.05269
# Poissons Ratio (z) = 0.56787 0.06811
#
# Static dielectric constant tensor:
#      x y z
#    x 3.902050 0.000000 0.000000 
#    y 0.000000 3.077460 0.000000 
#    z 0.000000 0.000000 2.959680 
# 
# 
# High freq. dielectric constant tensor:
#      x y z
#    x 1.630190 0.000000 0.000000 
#    y 0.000000 1.600030 0.000000 
#    z 0.000000 0.000000 1.602700 
# 
# From -- ./inp_files/35739.got.cif
#   From: 2010.03.12/outbox.cif.g09.slc.cpg/sg63_18_cif.got.tgz:35739.got - 2010.04.10 19:34:48.
