data_PCOD8256612
_publ_section_title
;
Structure prediction by ZEFSAII (Michael W. Deem and Ramdas Pophale) SiO2 
 PCOD8256612
Probable space group: C M C M
;
_chemical_formula_sum "Si O2"
_cell_formula_units_Z 128
_cell_length_a 17.219998
_cell_length_b 17.472276
_cell_length_c 23.749579
_cell_angle_alpha 90.000000
_cell_angle_beta 90.000000
_cell_angle_gamma 90.000000
_cell_volume 7145.596580
_symmetry_space_group_name_H-M "C M C M"
_symmetry_group_IT_number 63
_symmetry_cell_setting 'orthorhombic'
loop_
_space_group_symop_operation_xyz
x,y,z
-x,-y,1/2+z
x,-y,-z
-x,y,1/2-z
-x,-y,-z
x,y,1/2-z
-x,y,z
x,-y,1/2+z
1/2+x,1/2+y,z
1/2-x,1/2-y,1/2+z
1/2+x,1/2-y,-z
1/2-x,1/2+y,1/2-z
1/2-x,1/2-y,-z
1/2+x,1/2+y,1/2-z
1/2-x,1/2+y,z
1/2+x,1/2-y,1/2+z
loop_
_atom_site_type_symbol
_atom_site_label
_atom_site_fract_x
_atom_site_fract_y
_atom_site_fract_z
Si Si1 0.153709 0.378179 0.128819
Si Si2 0.411720 0.988328 0.688675
Si Si3 0.410474 0.089572 0.510969
Si Si4 0.172017 0.778260 0.814777
Si Si5 0.149423 0.246950 0.687455
Si Si6 0.910841 0.636709 0.392490
Si Si7 0.588200 0.567168 0.183210
Si Si8 0.811310 0.076728 0.685193
O O1 0.089151 0.428380 0.160417
O O2 0.140416 0.291130 0.147621
O O3 0.235933 0.415318 0.146283
O O4 0.143752 0.383087 0.061882
O O5 0.369997 0.988146 0.750000
O O6 0.500000 0.963300 0.697138
O O7 0.369669 0.926614 0.647829
O O8 0.500000 0.110331 0.524554
O O9 0.377152 0.134508 0.455867
O O10 0.401161 0.000000 0.500000
O O11 0.148756 0.763019 0.750000
O O12 0.264448 0.780232 0.821200
O O13 0.133595 0.856747 0.837367
O O14 0.119703 0.271072 0.750000
O O15 0.097057 0.281388 0.637638
O O16 0.141816 0.155973 0.681372
O O17 0.000000 0.613141 0.399966
O O18 0.585091 0.565592 0.250000
O O19 0.500000 0.566728 0.158958
O O20 0.634595 0.491950 0.162067
O O21 0.785616 0.062410 0.750000
#
# Coordination Sequence:
#
# PCOD8256612 Si02
#       8
#    16  16  16  16  16  16  16  16
#     4  11  19  32  52  73 101 140 178 214 261 307
#     4  10  19  28  44  74 105 132 163 200 251 316
#     4  10  20  35  50  69 102 144 182 216 252 304
#     4   9  19  33  49  76 108 133 167 218 268 314
#     4   9  18  33  52  76 107 136 165 210 268 316
#     4  10  20  33  49  73 105 138 175 211 253 307
#     4   9  18  32  50  73 103 140 175 207 256 324
#     4   9  19  34  52  78 107 135 172 217 266 317
#
# _framework density 17.913129999999999
#
# number of rings (size 3 to 8) (size 9 to 14) (size 15 to 20)
#    0.000    2.375    1.250    2.625    1.750    2.250 
#    0.000    5.000    0.000    0.000    0.000    0.000 
#    0.000    4.500    0.000    0.000    0.000    0.000 
#
# Total GULP energy -793301.116305 kJ/mol
# GULP energy per Si atom -12395.329942 kJ/mol
# Density = 1.787236 g / cm^3
# Si number density = 17.913130 Si / 1000 Ang^3
#
#
#
# Elastic Constant Matrix: (Units=GPa)
#
#
# Indices 1 2 3 4 5 6 
#
# 1 47.5707 43.6935 25.6490 0.0000 0.0000 0.0000
# 2 43.6935 127.1317 51.3135 0.0000 0.0000 0.0000
# 3 25.6490 51.3135 134.5090 0.0000 0.0000 0.0000
# 4 0.0000 0.0000 0.0000 17.6675 0.0000 0.0000
# 5 0.0000 0.0000 0.0000 0.0000 20.5663 0.0000
# 6 0.0000 0.0000 0.0000 0.0000 0.0000 27.5521
#
#
#
# Elastic Compliance Matrix: (Units=1/GPa)
#
#
# Indices 1 2 3 4 5 6 
#
# 1 0.031260 -0.009855 -0.002201 0.000000 0.000000 0.000000
# 2 -0.009855 0.012404 -0.002853 0.000000 0.000000 0.000000
# 3 -0.002201 -0.002853 0.008943 0.000000 0.000000 0.000000
# 4 0.000000 0.000000 0.000000 0.056601 0.000000 0.000000
# 5 0.000000 0.000000 0.000000 0.000000 0.048623 0.000000
# 6 0.000000 0.000000 0.000000 0.000000 0.000000 0.036295
#
#
# Mechanical properties :
#
#
# Convention : Reuss Voigt Hill
#
# Bulk Modulus (GPa) = 43.88186 61.16927 52.52557
# Shear Modulus (GPa) = 21.59441 25.72753 23.66097
#
# Velocity S-wave (km/s) = 3.47581 3.79389 3.63832
# Velocity P-wave (km/s) = 6.37641 7.30844 6.85827
#
# Compressibility (1/GPa) = 0.02278846
#
# Stress axis : x y z
#
# Youngs Moduli (GPa) = 31.98956 80.61607 111.82512
#
# Poissons Ratio (x) = 0.79449 0.24615
# Poissons Ratio (y) = 0.31526 0.31902
# Poissons Ratio (z) = 0.07042 0.22999
#
# Static dielectric constant tensor:
#      x y z
#    x 3.107780 0.000000 0.000000 
#    y 0.000000 3.347380 0.000000 
#    z 0.000000 0.000000 3.292690 
# 
# 
# High freq. dielectric constant tensor:
#      x y z
#    x 1.670190 0.000000 0.000000 
#    y 0.000000 1.696490 0.000000 
#    z 0.000000 0.000000 1.669900 
# 
# From -- ./inp_files/64760.got.cif
#   From: 2010.03.12/outbox.cif.g09.slc.cpg/sg63_33_cif.got.tgz:64760.got - 2010.04.10 19:34:48.
