data_PCOD8256882
_publ_section_title
;
Structure prediction by ZEFSAII (Michael W. Deem and Ramdas Pophale) SiO2 
 PCOD8256882
Probable space group: C M C M
;
_chemical_formula_sum "Si O2"
_cell_formula_units_Z 96
_cell_length_a 24.958891
_cell_length_b 24.990353
_cell_length_c 9.455420
_cell_angle_alpha 90.000000
_cell_angle_beta 90.000000
_cell_angle_gamma 90.000000
_cell_volume 5897.643267
_symmetry_space_group_name_H-M "C M C M"
_symmetry_group_IT_number 63
_symmetry_cell_setting 'orthorhombic'
loop_
_space_group_symop_operation_xyz
x,y,z
-x,-y,1/2+z
x,-y,-z
-x,y,1/2-z
-x,-y,-z
x,y,1/2-z
-x,y,z
x,-y,1/2+z
1/2+x,1/2+y,z
1/2-x,1/2-y,1/2+z
1/2+x,1/2-y,-z
1/2-x,1/2+y,1/2-z
1/2-x,1/2-y,-z
1/2+x,1/2+y,1/2-z
1/2-x,1/2+y,z
1/2+x,1/2-y,1/2+z
loop_
_atom_site_type_symbol
_atom_site_label
_atom_site_fract_x
_atom_site_fract_y
_atom_site_fract_z
Si Si1 0.102575 0.546666 0.593647
Si Si2 0.226677 0.547518 0.905505
Si Si3 0.439794 0.136699 0.409824
Si Si4 0.256834 0.832433 0.416229
Si Si5 0.674501 0.731758 0.088473
Si Si6 0.558470 0.239718 0.590890
O O1 0.075023 0.500000 0.500000
O O2 0.075664 0.549081 0.750000
O O3 0.164594 0.534259 0.612253
O O4 0.097044 0.602206 0.512321
O O5 0.253793 0.545397 0.750000
O O6 0.232957 0.607134 0.972343
O O7 0.253074 0.500000 0.000000
O O8 0.416780 0.136548 0.250000
O O9 0.500000 0.113546 0.411344
O O10 0.439370 0.196032 0.469443
O O11 0.246818 0.833796 0.250000
O O12 0.306752 0.792604 0.452051
O O13 0.203200 0.811186 0.489945
O O14 0.690946 0.720036 0.250000
O O15 0.610520 0.723157 0.066230
O O16 0.563163 0.214784 0.750000
O O17 0.500000 0.269570 0.578214
#
# Coordination Sequence:
#
# PCOD8256882 Si02
#       6
#    16  16  16  16  16  16
#     4  10  19  31  45  59  77 103 137 177 218 257
#     4   9  18  31  46  64  86 112 143 178 215 258
#     4  10  20  31  42  58  79 104 138 178 217 257
#     4   9  17  29  44  64  91 119 145 177 217 258
#     4   9  17  29  45  66  90 116 148 181 214 258
#     4   9  17  30  47  64  84 112 143 176 215 256
#
# _framework density 16.277688999999999
#
# number of rings (size 3 to 8) (size 9 to 14) (size 15 to 20)
#    0.000    2.667    0.000    2.000    0.000    6.000 
#    0.000    3.333    0.000    0.000    0.000    0.000 
#    0.000    0.667    0.000    1.500    0.000    2.333 
#
# Total GULP energy -594739.241411 kJ/mol
# GULP energy per Si atom -12390.400863 kJ/mol
# Density = 1.624064 g / cm^3
# Si number density = 16.277689 Si / 1000 Ang^3
#
#
#
# Elastic Constant Matrix: (Units=GPa)
#
#
# Indices 1 2 3 4 5 6 
#
# 1 71.2021 15.6825 21.7359 0.0000 0.0000 0.0000
# 2 15.6825 68.4162 27.1977 0.0000 0.0000 0.0000
# 3 21.7359 27.1977 83.6249 0.0000 0.0000 0.0000
# 4 0.0000 0.0000 0.0000 25.0404 0.0000 0.0000
# 5 0.0000 0.0000 0.0000 0.0000 18.2937 0.0000
# 6 0.0000 0.0000 0.0000 0.0000 0.0000 18.2743
#
#
#
# Elastic Compliance Matrix: (Units=1/GPa)
#
#
# Indices 1 2 3 4 5 6 
#
# 1 0.015550 -0.002248 -0.003311 0.000000 0.000000 0.000000
# 2 -0.002248 0.017112 -0.004981 0.000000 0.000000 0.000000
# 3 -0.003311 -0.004981 0.014439 0.000000 0.000000 0.000000
# 4 0.000000 0.000000 0.000000 0.039936 0.000000 0.000000
# 5 0.000000 0.000000 0.000000 0.000000 0.054664 0.000000
# 6 0.000000 0.000000 0.000000 0.000000 0.000000 0.054722
#
#
# Mechanical properties :
#
#
# Convention : Reuss Voigt Hill
#
# Bulk Modulus (GPa) = 38.43060 39.16394 38.79727
# Shear Modulus (GPa) = 22.10674 22.89682 22.50178
#
# Velocity S-wave (km/s) = 3.68924 3.75459 3.72206
# Velocity P-wave (km/s) = 6.46591 6.55042 6.50830
#
# Compressibility (1/GPa) = 0.02602093
#
# Stress axis : x y z
#
# Youngs Moduli (GPa) = 64.30715 58.43882 69.25863
#
# Poissons Ratio (x) = 0.13139 0.22929
# Poissons Ratio (y) = 0.14459 0.34498
# Poissons Ratio (z) = 0.21290 0.29108
#
# Static dielectric constant tensor:
#      x y z
#    x 2.976870 0.000000 0.000000 
#    y 0.000000 2.824910 0.000000 
#    z 0.000000 0.000000 3.359200 
# 
# 
# High freq. dielectric constant tensor:
#      x y z
#    x 1.597480 0.000000 0.000000 
#    y 0.000000 1.588570 0.000000 
#    z 0.000000 0.000000 1.639220 
# 
# From -- ./inp_files/10706.got.cif
#   From: 2010.03.12/outbox.cif.g09.slc.cpg/sg63_6_cif.got.tgz:10706.got - 2010.04.10 19:34:48.
