data_PCOD8256954
_publ_section_title
;
Structure prediction by ZEFSAII (Michael W. Deem and Ramdas Pophale) SiO2 
 PCOD8256954
Probable space group: C M C M
;
_chemical_formula_sum "Si O2"
_cell_formula_units_Z 96
_cell_length_a 18.156699
_cell_length_b 31.867823
_cell_length_c 9.400826
_cell_angle_alpha 90.000000
_cell_angle_beta 90.000000
_cell_angle_gamma 90.000000
_cell_volume 5439.453954
_symmetry_space_group_name_H-M "C M C M"
_symmetry_group_IT_number 63
_symmetry_cell_setting 'orthorhombic'
loop_
_space_group_symop_operation_xyz
x,y,z
-x,-y,1/2+z
x,-y,-z
-x,y,1/2-z
-x,-y,-z
x,y,1/2-z
-x,y,z
x,-y,1/2+z
1/2+x,1/2+y,z
1/2-x,1/2-y,1/2+z
1/2+x,1/2-y,-z
1/2-x,1/2+y,1/2-z
1/2-x,1/2-y,-z
1/2+x,1/2+y,1/2-z
1/2-x,1/2+y,z
1/2+x,1/2-y,1/2+z
loop_
_atom_site_type_symbol
_atom_site_label
_atom_site_fract_x
_atom_site_fract_y
_atom_site_fract_z
Si Si1 0.216257 0.097752 0.082042
Si Si2 0.000000 0.688064 0.080593
Si Si3 0.290280 0.691196 0.086350
Si Si4 0.417085 0.458443 0.584906
Si Si5 0.639554 0.239755 0.413229
Si Si6 0.500000 0.093639 0.418141
Si Si7 0.855109 0.456106 0.919622
O O1 0.223873 0.100892 0.250000
O O2 0.215604 0.144700 0.019336
O O3 0.285333 0.070893 0.025886
O O4 0.139473 0.077004 0.034231
O O5 0.928573 0.713079 0.025655
O O6 0.000000 0.640795 0.017030
O O7 0.000000 0.685309 0.250000
O O8 0.315407 0.690135 0.250000
O O9 0.210660 0.711180 0.067781
O O10 0.351828 0.717390 0.001551
O O11 0.397807 0.500000 0.500000
O O12 0.406391 0.469040 0.750000
O O13 0.500000 0.442710 0.552587
O O14 0.626439 0.252323 0.250000
O O15 0.500000 0.097261 0.250000
O O16 0.572159 0.068752 0.469199
O O17 0.853600 0.463681 0.750000
O O18 0.853218 0.500000 0.000000
#
# Coordination Sequence:
#
# PCOD8256954 Si02
#       7
#    16   8  16  16  16   8  16
#     4   9  17  30  48  69  90 119 156 190 221 270
#     4   9  16  29  50  72  92 122 163 197 228 276
#     4   9  17  31  49  68  92 121 153 189 232 277
#     4   9  17  30  47  65  87 115 148 184 223 265
#     4   9  17  30  49  70  92 119 152 192 233 274
#     4   9  17  29  48  72  94 124 162 195 225 270
#     4  10  19  31  48  70  97 125 158 195 232 273
#
# _framework density 17.648831000000001
#
# number of rings (size 3 to 8) (size 9 to 14) (size 15 to 20)
#    0.000    2.833    0.000    1.750    0.000    4.000 
#    1.500    2.083    0.000    4.000    0.000    0.000 
#    0.000    0.000    0.000    0.000    0.000    0.000 
#
# Total GULP energy -595139.273028 kJ/mol
# GULP energy per Si atom -12398.734855 kJ/mol
# Density = 1.760866 g / cm^3
# Si number density = 17.648831 Si / 1000 Ang^3
#
#
#
# Elastic Constant Matrix: (Units=GPa)
#
#
# Indices 1 2 3 4 5 6 
#
# 1 105.3359 87.9152 29.5400 0.0000 0.0000 0.0000
# 2 87.9152 176.9934 44.1310 0.0000 0.0000 0.0000
# 3 29.5400 44.1310 33.2613 0.0000 0.0000 0.0000
# 4 0.0000 0.0000 0.0000 28.2814 0.0000 0.0000
# 5 0.0000 0.0000 0.0000 0.0000 14.5931 0.0000
# 6 0.0000 0.0000 0.0000 0.0000 0.0000 27.5964
#
#
#
# Elastic Compliance Matrix: (Units=1/GPa)
#
#
# Indices 1 2 3 4 5 6 
#
# 1 0.016932 -0.006965 -0.005796 0.000000 0.000000 0.000000
# 2 -0.006965 0.011308 -0.008818 0.000000 0.000000 0.000000
# 3 -0.005796 -0.008818 0.046912 0.000000 0.000000 0.000000
# 4 0.000000 0.000000 0.000000 0.035359 0.000000 0.000000
# 5 0.000000 0.000000 0.000000 0.000000 0.068526 0.000000
# 6 0.000000 0.000000 0.000000 0.000000 0.000000 0.036237
#
#
# Mechanical properties :
#
#
# Convention : Reuss Voigt Hill
#
# Bulk Modulus (GPa) = 31.25588 70.97367 51.11478
# Shear Modulus (GPa) = 18.58060 24.36114 21.47087
#
# Velocity S-wave (km/s) = 3.24820 3.71930 3.49171
# Velocity P-wave (km/s) = 5.64057 7.66459 6.72912
#
# Compressibility (1/GPa) = 0.03199398
#
# Stress axis : x y z
#
# Youngs Moduli (GPa) = 59.05878 88.43078 21.31630
#
# Poissons Ratio (x) = 0.61594 0.12356
# Poissons Ratio (y) = 0.41136 0.18796
# Poissons Ratio (z) = 0.34233 0.77977
#
# Static dielectric constant tensor:
#      x y z
#    x 3.460920 0.000000 0.000000 
#    y 0.000000 3.486630 0.000000 
#    z 0.000000 0.000000 2.980820 
# 
# 
# High freq. dielectric constant tensor:
#      x y z
#    x 1.691510 0.000000 0.000000 
#    y 0.000000 1.690550 0.000000 
#    z 0.000000 0.000000 1.639750 
# 
# From -- ./inp_files/21391.got.cif
#   From: 2010.03.12/outbox.cif.g09.slc.cpg/sg63_11_cif.got.tgz:21391.got - 2010.04.10 19:34:48.
