data_PCOD8256038
_publ_section_title
;
Structure prediction by ZEFSAII (Michael W. Deem and Ramdas Pophale) SiO2 
 PCOD8256038
Probable space group: C M C M
;
_chemical_formula_sum "Si O2"
_cell_formula_units_Z 96
_cell_length_a 23.222967
_cell_length_b 26.614161
_cell_length_c 8.938810
_cell_angle_alpha 90.000000
_cell_angle_beta 90.000000
_cell_angle_gamma 90.000000
_cell_volume 5524.718966
_symmetry_space_group_name_H-M "C M C M"
_symmetry_group_IT_number 63
_symmetry_cell_setting 'orthorhombic'
loop_
_space_group_symop_operation_xyz
x,y,z
-x,-y,1/2+z
x,-y,-z
-x,y,1/2-z
-x,-y,-z
x,y,1/2-z
-x,y,z
x,-y,1/2+z
1/2+x,1/2+y,z
1/2-x,1/2-y,1/2+z
1/2+x,1/2-y,-z
1/2-x,1/2+y,1/2-z
1/2-x,1/2-y,-z
1/2+x,1/2+y,1/2-z
1/2-x,1/2+y,z
1/2+x,1/2-y,1/2+z
loop_
_atom_site_type_symbol
_atom_site_label
_atom_site_fract_x
_atom_site_fract_y
_atom_site_fract_z
Si Si1 0.622321 0.793576 0.925589
Si Si2 0.717804 0.551273 0.574293
Si Si3 0.712685 0.851392 0.073244
Si Si4 0.000000 0.854341 0.572192
Si Si5 0.119391 0.896124 0.582598
Si Si6 0.000000 0.254041 0.923935
Si Si7 0.310148 0.705583 0.419299
O O1 0.632163 0.799407 0.750000
O O2 0.555112 0.787939 0.966305
O O3 0.648205 0.843171 0.008343
O O4 0.654523 0.744720 0.984465
O O5 0.739559 0.500000 0.500000
O O6 0.716955 0.544309 0.750000
O O7 0.762692 0.594518 0.523909
O O8 0.653075 0.564424 0.521303
O O9 0.713517 0.846006 0.250000
O O10 0.749937 0.805945 0.001884
O O11 0.944354 0.885727 0.517208
O O12 0.000000 0.848774 0.750000
O O13 0.000000 0.798204 0.510411
O O14 0.116067 0.918787 0.750000
O O15 0.152536 0.844180 0.585064
O O16 0.000000 0.239849 0.750000
O O17 0.298852 0.725150 0.250000
#
# Coordination Sequence:
#
# PCOD8256038 Si02
#       7
#    16  16  16   8  16   8  16
#     4  11  21  33  48  71 103 138 173 207 245 293
#     4  10  21  37  57  77  99 125 161 209 263 313
#     4  10  21  35  51  74 101 130 164 206 254 305
#     4  10  18  32  51  73 100 137 180 216 248 291
#     4   9  18  31  50  74 101 133 172 212 252 295
#     4  10  22  34  48  71 104 143 178 212 246 287
#     4  10  18  30  49  72 101 136 170 208 249 294
#
# _framework density 17.376449000000001
#
# number of rings (size 3 to 8) (size 9 to 14) (size 15 to 20)
#    0.000    2.000    1.667    2.500    0.000    4.000 
#    0.000    0.417    0.000    0.000    0.000    0.583 
#    0.000    0.000    0.000    0.000    0.000    0.000 
#
# Total GULP energy -595173.760721 kJ/mol
# GULP energy per Si atom -12399.453348 kJ/mol
# Density = 1.733690 g / cm^3
# Si number density = 17.376449 Si / 1000 Ang^3
#
#
#
# Elastic Constant Matrix: (Units=GPa)
#
#
# Indices 1 2 3 4 5 6 
#
# 1 112.0862 55.7389 41.4487 0.0000 0.0000 0.0000
# 2 55.7389 64.2230 40.6006 0.0000 0.0000 0.0000
# 3 41.4487 40.6006 61.7823 0.0000 0.0000 0.0000
# 4 0.0000 0.0000 0.0000 25.8483 0.0000 0.0000
# 5 0.0000 0.0000 0.0000 0.0000 25.8712 0.0000
# 6 0.0000 0.0000 0.0000 0.0000 0.0000 2.7026
#
#
#
# Elastic Compliance Matrix: (Units=1/GPa)
#
#
# Indices 1 2 3 4 5 6 
#
# 1 0.015964 -0.012119 -0.002746 0.000000 0.000000 0.000000
# 2 -0.012119 0.035837 -0.015420 0.000000 0.000000 0.000000
# 3 -0.002746 -0.015420 0.028161 0.000000 0.000000 0.000000
# 4 0.000000 0.000000 0.000000 0.038687 0.000000 0.000000
# 5 0.000000 0.000000 0.000000 0.000000 0.038653 0.000000
# 6 0.000000 0.000000 0.000000 0.000000 0.000000 0.370008
#
#
# Mechanical properties :
#
#
# Convention : Reuss Voigt Hill
#
# Bulk Modulus (GPa) = 51.56639 57.07420 54.32029
# Shear Modulus (GPa) = 8.41264 17.57133 12.99198
#
# Velocity S-wave (km/s) = 2.20271 3.18341 2.73734
# Velocity P-wave (km/s) = 6.01745 6.81389 6.42802
#
# Compressibility (1/GPa) = 0.01939247
#
# Stress axis : x y z
#
# Youngs Moduli (GPa) = 62.64219 27.90398 35.50974
#
# Poissons Ratio (x) = 0.33817 0.09750
# Poissons Ratio (y) = 0.75917 0.54756
# Poissons Ratio (z) = 0.17199 0.43028
#
# Static dielectric constant tensor:
#      x y z
#    x 3.572170 0.000000 0.000000 
#    y 0.000000 3.119470 0.000000 
#    z 0.000000 0.000000 3.362880 
# 
# 
# High freq. dielectric constant tensor:
#      x y z
#    x 1.667790 0.000000 0.000000 
#    y 0.000000 1.645990 0.000000 
#    z 0.000000 0.000000 1.681380 
# 
# From -- ./inp_files/10792.got.cif
#   From: 2010.03.12/outbox.cif.g09.slc.cpg/sg63_6_cif.got.tgz:10792.got - 2010.04.10 19:34:48.
