data_PCOD8256142
_publ_section_title
;
Structure prediction by ZEFSAII (Michael W. Deem and Ramdas Pophale) SiO2 
 PCOD8256142
Probable space group: C M C M
;
_chemical_formula_sum "Si O2"
_cell_formula_units_Z 60
_cell_length_a 11.662662
_cell_length_b 19.290167
_cell_length_c 14.559564
_cell_angle_alpha 90.000000
_cell_angle_beta 90.000000
_cell_angle_gamma 90.000000
_cell_volume 3275.533509
_symmetry_space_group_name_H-M "C M C M"
_symmetry_group_IT_number 63
_symmetry_cell_setting 'orthorhombic'
loop_
_space_group_symop_operation_xyz
x,y,z
-x,-y,1/2+z
x,-y,-z
-x,y,1/2-z
-x,-y,-z
x,y,1/2-z
-x,y,z
x,-y,1/2+z
1/2+x,1/2+y,z
1/2-x,1/2-y,1/2+z
1/2+x,1/2-y,-z
1/2-x,1/2+y,1/2-z
1/2-x,1/2-y,-z
1/2+x,1/2+y,1/2-z
1/2-x,1/2+y,z
1/2+x,1/2-y,1/2+z
loop_
_atom_site_type_symbol
_atom_site_label
_atom_site_fract_x
_atom_site_fract_y
_atom_site_fract_z
Si Si1 0.178334 0.656545 0.557315
Si Si2 0.128365 0.183672 0.431514
Si Si3 0.500000 0.878708 0.750000
Si Si4 0.500000 0.926827 0.949971
Si Si5 0.748236 0.814133 0.750000
Si Si6 0.633899 0.168818 0.750000
O O1 0.125888 0.733218 0.567111
O O2 0.310007 0.657713 0.524633
O O3 0.112079 0.614119 0.480734
O O4 0.162523 0.622979 0.659037
O O5 0.194038 0.154109 0.341740
O O6 0.000000 0.154177 0.431646
O O7 0.500000 0.929403 0.838884
O O8 0.611812 0.828713 0.750000
O O9 0.500000 0.000000 0.000000
O O10 0.775995 0.732387 0.750000
O O11 0.500000 0.193072 0.750000
#
# Coordination Sequence:
#
# PCOD8256142 Si02
#       6
#    16  16   4   8   8   8
#     4  10  19  33  51  82 112 150 190 232 277 348
#     4  10  18  31  55  81 118 145 179 234 303 345
#     4  12  24  38  54  92 116 134 202 248 280 344
#     4  12  24  40  58  78 122 160 190 238 281 327
#     4  10  18  30  53  82 117 141 176 238 296 352
#     4  10  18  31  54  80 117 156 189 224 293 363
#
# _framework density 18.317626000000001
#
# number of rings (size 3 to 8) (size 9 to 14) (size 15 to 20)
#    0.000    1.600    5.333    2.800    0.000    1.067 
#    0.000    0.000    0.000    0.800    0.000    0.000 
#    0.000    0.000    0.000    0.000    0.000    0.000 
#
# Total GULP energy -371757.089221 kJ/mol
# GULP energy per Si atom -12391.902974 kJ/mol
# Density = 1.827593 g / cm^3
# Si number density = 18.317626 Si / 1000 Ang^3
#
#
#
# Elastic Constant Matrix: (Units=GPa)
#
#
# Indices 1 2 3 4 5 6 
#
# 1 161.3134 21.7620 67.2236 0.0000 0.0000 0.0000
# 2 21.7620 35.0185 26.2112 0.0000 0.0000 0.0000
# 3 67.2236 26.2112 177.3210 0.0000 0.0000 0.0000
# 4 0.0000 0.0000 0.0000 17.2650 0.0000 0.0000
# 5 0.0000 0.0000 0.0000 0.0000 30.7548 0.0000
# 6 0.0000 0.0000 0.0000 0.0000 0.0000 3.0708
#
#
#
# Elastic Compliance Matrix: (Units=1/GPa)
#
#
# Indices 1 2 3 4 5 6 
#
# 1 0.007614 -0.002891 -0.002459 0.000000 0.000000 0.000000
# 2 -0.002891 0.033207 -0.003813 0.000000 0.000000 0.000000
# 3 -0.002459 -0.003813 0.007135 0.000000 0.000000 0.000000
# 4 0.000000 0.000000 0.000000 0.057921 0.000000 0.000000
# 5 0.000000 0.000000 0.000000 0.000000 0.032515 0.000000
# 6 0.000000 0.000000 0.000000 0.000000 0.000000 0.325646
#
#
# Mechanical properties :
#
#
# Convention : Reuss Voigt Hill
#
# Bulk Modulus (GPa) = 33.74897 67.11629 50.43263
# Shear Modulus (GPa) = 10.15765 27.44853 18.80309
#
# Velocity S-wave (km/s) = 2.35740 3.87522 3.20738
# Velocity P-wave (km/s) = 5.08666 7.53279 6.42717
#
# Compressibility (1/GPa) = 0.02963054
#
# Stress axis : x y z
#
# Youngs Moduli (GPa) = 131.33847 30.11450 140.14760
#
# Poissons Ratio (x) = 0.08706 0.34464
# Poissons Ratio (y) = 0.37969 0.53432
# Poissons Ratio (z) = 0.32298 0.11481
#
# Static dielectric constant tensor:
#      x y z
#    x 3.361630 0.000000 0.000000 
#    y 0.000000 2.736370 0.000000 
#    z 0.000000 0.000000 4.070400 
# 
# 
# High freq. dielectric constant tensor:
#      x y z
#    x 1.714120 0.000000 0.000000 
#    y 0.000000 1.628190 0.000000 
#    z 0.000000 0.000000 1.741650 
# 
# From -- ./inp_files/29379.got.cif
#   From: 2010.03.12/outbox.cif.g09.slc.cpg/sg63_15_cif.got.tgz:29379.got - 2010.04.10 19:34:48.
