data_PCOD8256999
_publ_section_title
;
Structure prediction by ZEFSAII (Michael W. Deem and Ramdas Pophale) SiO2 
 PCOD8256999
Probable space group: C M C M
;
_chemical_formula_sum "Si O2"
_cell_formula_units_Z 96
_cell_length_a 9.179292
_cell_length_b 32.242669
_cell_length_c 18.479042
_cell_angle_alpha 90.000000
_cell_angle_beta 90.000000
_cell_angle_gamma 90.000000
_cell_volume 5469.147330
_symmetry_space_group_name_H-M "C M C M"
_symmetry_group_IT_number 63
_symmetry_cell_setting 'orthorhombic'
loop_
_space_group_symop_operation_xyz
x,y,z
-x,-y,1/2+z
x,-y,-z
-x,y,1/2-z
-x,-y,-z
x,y,1/2-z
-x,y,z
x,-y,1/2+z
1/2+x,1/2+y,z
1/2-x,1/2-y,1/2+z
1/2+x,1/2-y,-z
1/2-x,1/2+y,1/2-z
1/2-x,1/2-y,-z
1/2+x,1/2+y,1/2-z
1/2-x,1/2+y,z
1/2+x,1/2-y,1/2+z
loop_
_atom_site_type_symbol
_atom_site_label
_atom_site_fract_x
_atom_site_fract_y
_atom_site_fract_z
Si Si1 0.170537 0.420127 0.167689
Si Si2 0.831924 0.758320 0.334473
Si Si3 0.832771 0.824181 0.668824
Si Si4 0.329063 0.834451 0.095532
Si Si5 0.167022 0.126885 0.031100
Si Si6 0.329876 0.458653 0.038053
O O1 0.220338 0.428478 0.250000
O O2 0.211256 0.372836 0.147815
O O3 0.252507 0.452071 0.115177
O O4 0.000000 0.427589 0.157676
O O5 0.809664 0.766526 0.250000
O O6 0.766147 0.714040 0.356480
O O7 0.748186 0.793563 0.377009
O O8 0.000000 0.758915 0.357146
O O9 0.791428 0.838778 0.750000
O O10 0.805153 0.862968 0.615463
O O11 0.000000 0.809374 0.665328
O O12 0.500000 0.826287 0.092779
O O13 0.271413 0.843744 0.015404
O O14 0.000000 0.135913 0.008867
O O15 0.205279 0.078909 0.016878
O O16 0.500000 0.462986 0.054390
O O17 0.268543 0.500000 0.000000
#
# Coordination Sequence:
#
# PCOD8256999 Si02
#       6
#    16  16  16  16  16  16
#     4   9  18  32  50  73 100 129 162 199 238 283
#     4  10  20  32  47  69  97 128 161 199 242 284
#     4   9  18  33  51  68  89 123 165 204 240 279
#     4  10  19  31  49  72  98 129 163 198 237 284
#     4   9  18  33  51  71  96 125 159 199 242 288
#     4   9  18  33  52  75 102 129 158 195 241 292
#
# _framework density 17.553008999999999
#
# number of rings (size 3 to 8) (size 9 to 14) (size 15 to 20)
#    0.000    2.667    0.000    1.500    0.000    4.333 
#    0.000    0.833    0.000    3.000    0.000    2.333 
#    0.000    0.000    0.000    0.000    0.000    0.000 
#
# Total GULP energy -595244.443352 kJ/mol
# GULP energy per Si atom -12400.925903 kJ/mol
# Density = 1.751306 g / cm^3
# Si number density = 17.553009 Si / 1000 Ang^3
#
#
#
# Elastic Constant Matrix: (Units=GPa)
#
#
# Indices 1 2 3 4 5 6 
#
# 1 66.7760 44.6933 49.1752 0.0000 0.0000 0.0000
# 2 44.6933 102.6686 77.0358 0.0000 0.0000 0.0000
# 3 49.1752 77.0358 128.1935 0.0000 0.0000 0.0000
# 4 0.0000 0.0000 0.0000 27.8826 0.0000 0.0000
# 5 0.0000 0.0000 0.0000 0.0000 27.9398 0.0000
# 6 0.0000 0.0000 0.0000 0.0000 0.0000 22.7425
#
#
#
# Elastic Compliance Matrix: (Units=1/GPa)
#
#
# Indices 1 2 3 4 5 6 
#
# 1 0.022808 -0.006126 -0.005068 0.000000 0.000000 0.000000
# 2 -0.006126 0.019384 -0.009298 0.000000 0.000000 0.000000
# 3 -0.005068 -0.009298 0.015332 0.000000 0.000000 0.000000
# 4 0.000000 0.000000 0.000000 0.035865 0.000000 0.000000
# 5 0.000000 0.000000 0.000000 0.000000 0.035791 0.000000
# 6 0.000000 0.000000 0.000000 0.000000 0.000000 0.043970
#
#
# Mechanical properties :
#
#
# Convention : Reuss Voigt Hill
#
# Bulk Modulus (GPa) = 60.46140 71.04966 65.75553
# Shear Modulus (GPa) = 22.76375 24.16189 23.46282
#
# Velocity S-wave (km/s) = 3.60510 3.71416 3.66003
# Velocity P-wave (km/s) = 7.20061 7.67844 7.44336
#
# Compressibility (1/GPa) = 0.01653948
#
# Stress axis : x y z
#
# Youngs Moduli (GPa) = 43.84514 51.58957 65.22141
#
# Poissons Ratio (x) = 0.31604 0.33052
# Poissons Ratio (y) = 0.26860 0.60645
# Poissons Ratio (z) = 0.22219 0.47970
#
# Static dielectric constant tensor:
#      x y z
#    x 3.320210 0.000000 0.000000 
#    y 0.000000 3.185490 0.000000 
#    z 0.000000 0.000000 3.334860 
# 
# 
# High freq. dielectric constant tensor:
#      x y z
#    x 1.680550 0.000000 0.000000 
#    y 0.000000 1.663830 0.000000 
#    z 0.000000 0.000000 1.677700 
# 
# From -- ./inp_files/51374.got.cif
#   From: 2010.03.12/outbox.cif.g09.slc.cpg/sg63_26_cif.got.tgz:51374.got - 2010.04.10 19:34:48.
