data_PCOD8256950
_publ_section_title
;
Structure prediction by ZEFSAII (Michael W. Deem and Ramdas Pophale) SiO2 
 PCOD8256950
Probable space group: C M C M
;
_chemical_formula_sum "Si O2"
_cell_formula_units_Z 96
_cell_length_a 8.670612
_cell_length_b 23.646845
_cell_length_c 26.010951
_cell_angle_alpha 90.000000
_cell_angle_beta 90.000000
_cell_angle_gamma 90.000000
_cell_volume 5333.093381
_symmetry_space_group_name_H-M "C M C M"
_symmetry_group_IT_number 63
_symmetry_cell_setting 'orthorhombic'
loop_
_space_group_symop_operation_xyz
x,y,z
-x,-y,1/2+z
x,-y,-z
-x,y,1/2-z
-x,-y,-z
x,y,1/2-z
-x,y,z
x,-y,1/2+z
1/2+x,1/2+y,z
1/2-x,1/2-y,1/2+z
1/2+x,1/2-y,-z
1/2-x,1/2+y,1/2-z
1/2-x,1/2-y,-z
1/2+x,1/2+y,1/2-z
1/2-x,1/2+y,z
1/2+x,1/2-y,1/2+z
loop_
_atom_site_type_symbol
_atom_site_label
_atom_site_fract_x
_atom_site_fract_y
_atom_site_fract_z
Si Si1 0.681358 0.729758 0.445994
Si Si2 0.319352 0.491608 0.883532
Si Si3 0.175513 0.575438 0.541881
Si Si4 0.825557 0.389347 0.928832
Si Si5 0.317236 0.586581 0.807033
Si Si6 0.317169 0.330014 0.105781
O O1 0.500000 0.738652 0.448196
O O2 0.750000 0.750000 0.500000
O O3 0.718283 0.665133 0.433168
O O4 0.753365 0.766441 0.399090
O O5 0.500000 0.480331 0.880857
O O6 0.281948 0.526350 0.935197
O O7 0.234467 0.430866 0.883629
O O8 0.261063 0.528976 0.834959
O O9 0.182763 0.573436 0.480506
O O10 0.239942 0.636143 0.558998
O O11 0.000000 0.567278 0.561214
O O12 0.000000 0.369982 0.917088
O O13 0.243650 0.590248 0.750000
O O14 0.500000 0.585272 0.803428
O O15 0.266531 0.641594 0.840030
O O16 0.500000 0.331368 0.099018
#
# Coordination Sequence:
#
# PCOD8256950 Si02
#       6
#    16  16  16  16  16  16
#     4  12  23  35  52  74 106 144 181 217 255 309
#     4  10  20  32  50  76 104 135 173 218 263 311
#     4  10  19  31  48  70 102 141 176 212 252 302
#     4  11  22  34  49  71 104 144 179 212 253 306
#     4   8  16  33  57  82 105 132 169 215 268 319
#     4  10  19  32  53  79 106 137 176 220 262 306
#
# _framework density 18.000810000000001
#
# number of rings (size 3 to 8) (size 9 to 14) (size 15 to 20)
#    0.000    1.833    1.667    5.000    0.000    4.000 
#    0.000    0.000    0.000   19.000    0.000    0.000 
#    0.000    0.000    0.000    0.000    0.000    0.000 
#
# Total GULP energy -595135.151425 kJ/mol
# GULP energy per Si atom -12398.648988 kJ/mol
# Density = 1.795984 g / cm^3
# Si number density = 18.000810 Si / 1000 Ang^3
#
#
#
# Elastic Constant Matrix: (Units=GPa)
#
#
# Indices 1 2 3 4 5 6 
#
# 1 63.0251 5.4043 35.4585 0.0000 0.0000 0.0000
# 2 5.4043 87.7282 52.5109 0.0000 0.0000 0.0000
# 3 35.4585 52.5109 97.1451 0.0000 0.0000 0.0000
# 4 0.0000 0.0000 0.0000 17.3453 0.0000 0.0000
# 5 0.0000 0.0000 0.0000 0.0000 13.1833 0.0000
# 6 0.0000 0.0000 0.0000 0.0000 0.0000 34.8195
#
#
#
# Elastic Compliance Matrix: (Units=1/GPa)
#
#
# Indices 1 2 3 4 5 6 
#
# 1 0.021326 0.004946 -0.010458 0.000000 0.000000 0.000000
# 2 0.004946 0.017998 -0.011534 0.000000 0.000000 0.000000
# 3 -0.010458 -0.011534 0.020345 0.000000 0.000000 0.000000
# 4 0.000000 0.000000 0.000000 0.057653 0.000000 0.000000
# 5 0.000000 0.000000 0.000000 0.000000 0.075853 0.000000
# 6 0.000000 0.000000 0.000000 0.000000 0.000000 0.028720
#
#
# Mechanical properties :
#
#
# Convention : Reuss Voigt Hill
#
# Bulk Modulus (GPa) = 39.09574 48.29397 43.69485
# Shear Modulus (GPa) = 18.90272 23.37125 21.13698
#
# Velocity S-wave (km/s) = 3.24405 3.60716 3.43041
# Velocity P-wave (km/s) = 5.98313 6.65100 6.32589
#
# Compressibility (1/GPa) = 0.02557823
#
# Stress axis : x y z
#
# Youngs Moduli (GPa) = 46.89091 55.56206 49.15111
#
# Poissons Ratio (x) = -0.27479 0.51400
# Poissons Ratio (y) = -0.23191 0.56690
# Poissons Ratio (z) = 0.49036 0.64084
#
# Static dielectric constant tensor:
#      x y z
#    x 3.312610 0.000000 0.000000 
#    y 0.000000 3.421880 0.000000 
#    z 0.000000 0.000000 3.525800 
# 
# 
# High freq. dielectric constant tensor:
#      x y z
#    x 1.699050 0.000000 0.000000 
#    y 0.000000 1.701810 0.000000 
#    z 0.000000 0.000000 1.657660 
# 
# From -- ./inp_files/66920.got.cif
#   From: 2010.03.12/outbox.cif.g09.slc.cpg/sg63_34_cif.got.tgz:66920.got - 2010.04.10 19:34:48.
