data_PCOD8256353
_publ_section_title
;
Structure prediction by ZEFSAII (Michael W. Deem and Ramdas Pophale) SiO2 
 PCOD8256353
Probable space group: C M C M
;
_chemical_formula_sum "Si O2"
_cell_formula_units_Z 80
_cell_length_a 18.793306
_cell_length_b 29.333844
_cell_length_c 7.664558
_cell_angle_alpha 90.000000
_cell_angle_beta 90.000000
_cell_angle_gamma 90.000000
_cell_volume 4225.316817
_symmetry_space_group_name_H-M "C M C M"
_symmetry_group_IT_number 63
_symmetry_cell_setting 'orthorhombic'
loop_
_space_group_symop_operation_xyz
x,y,z
-x,-y,1/2+z
x,-y,-z
-x,y,1/2-z
-x,-y,-z
x,y,1/2-z
-x,y,z
x,-y,1/2+z
1/2+x,1/2+y,z
1/2-x,1/2-y,1/2+z
1/2+x,1/2-y,-z
1/2-x,1/2+y,1/2-z
1/2-x,1/2-y,-z
1/2+x,1/2+y,1/2-z
1/2-x,1/2+y,z
1/2+x,1/2-y,1/2+z
loop_
_atom_site_type_symbol
_atom_site_label
_atom_site_fract_x
_atom_site_fract_y
_atom_site_fract_z
Si Si1 0.915683 0.391446 0.250000
Si Si2 0.810858 0.049976 0.955151
Si Si3 0.084684 0.225229 0.943275
Si Si4 0.415216 0.211997 0.750000
Si Si5 0.078892 0.124051 0.543271
Si Si6 0.848478 0.448899 0.946574
O O1 0.887617 0.339575 0.250000
O O2 0.887202 0.414340 0.425020
O O3 0.000000 0.394040 0.250000
O O4 0.798525 0.055728 0.750000
O O5 0.866744 0.086537 0.031355
O O6 0.736081 0.057926 0.049420
O O7 0.841119 0.000000 0.000000
O O8 0.115706 0.235843 0.750000
O O9 0.107017 0.174523 0.006843
O O10 0.000000 0.226871 0.935208
O O11 0.114950 0.262454 0.078305
O O12 0.500000 0.213957 0.750000
O O13 0.074327 0.119914 0.750000
O O14 0.000000 0.115404 0.463950
O O15 0.875273 0.439410 0.750000
O O16 0.869370 0.500000 0.000000
#
# Coordination Sequence:
#
# PCOD8256353 Si02
#       6
#     8  16  16   8  16  16
#     4  11  24  40  60  89 113 133 169 220 283 331
#     4  10  18  32  53  76 109 152 192 226 267 319
#     4   8  14  28  49  73 105 142 179 221 266 313
#     4   9  18  32  52  79 108 135 169 218 268 325
#     4   8  15  28  49  79 111 148 192 234 274 306
#     4  11  21  40  61  81 110 146 183 213 261 334
#
# _framework density 18.933491
#
# number of rings (size 3 to 8) (size 9 to 14) (size 15 to 20)
#    0.000    2.600    2.000    3.000    0.000    2.000 
#    3.600    2.000    0.000    1.200    0.000    0.000 
#    0.000    0.000    0.000    0.000    0.000    0.000 
#
# Total GULP energy -495893.819741 kJ/mol
# GULP energy per Si atom -12397.345494 kJ/mol
# Density = 1.889040 g / cm^3
# Si number density = 18.933491 Si / 1000 Ang^3
#
#
#
# Elastic Constant Matrix: (Units=GPa)
#
#
# Indices 1 2 3 4 5 6 
#
# 1 45.6336 57.6716 26.2654 0.0000 0.0000 0.0000
# 2 57.6716 176.6623 71.6791 0.0000 0.0000 0.0000
# 3 26.2654 71.6791 126.1396 0.0000 0.0000 0.0000
# 4 0.0000 0.0000 0.0000 34.9200 0.0000 0.0000
# 5 0.0000 0.0000 0.0000 0.0000 16.3388 0.0000
# 6 0.0000 0.0000 0.0000 0.0000 0.0000 3.4367
#
#
#
# Elastic Compliance Matrix: (Units=1/GPa)
#
#
# Indices 1 2 3 4 5 6 
#
# 1 0.037422 -0.011768 -0.001105 0.000000 0.000000 0.000000
# 2 -0.011768 0.011057 -0.003833 0.000000 0.000000 0.000000
# 3 -0.001105 -0.003833 0.010336 0.000000 0.000000 0.000000
# 4 0.000000 0.000000 0.000000 0.028637 0.000000 0.000000
# 5 0.000000 0.000000 0.000000 0.000000 0.061204 0.000000
# 6 0.000000 0.000000 0.000000 0.000000 0.000000 0.290974
#
#
# Mechanical properties :
#
#
# Convention : Reuss Voigt Hill
#
# Bulk Modulus (GPa) = 39.36489 73.29641 56.33065
# Shear Modulus (GPa) = 10.38399 23.79375 17.08887
#
# Velocity S-wave (km/s) = 2.34443 3.54884 3.00755
# Velocity P-wave (km/s) = 5.30705 7.45580 6.47124
#
# Compressibility (1/GPa) = 0.02540335
#
# Stress axis : x y z
#
# Youngs Moduli (GPa) = 26.72204 90.43654 96.75019
#
# Poissons Ratio (x) = 1.06428 0.10690
# Poissons Ratio (y) = 0.31447 0.37084
# Poissons Ratio (z) = 0.02953 0.34664
#
# Static dielectric constant tensor:
#      x y z
#    x 3.220790 0.000000 0.000000 
#    y 0.000000 3.706310 0.000000 
#    z 0.000000 0.000000 3.567640 
# 
# 
# High freq. dielectric constant tensor:
#      x y z
#    x 1.693320 0.000000 0.000000 
#    y 0.000000 1.738250 0.000000 
#    z 0.000000 0.000000 1.739900 
# 
# From -- ./inp_files/8107.got.cif
#   From: 2010.03.12/outbox.cif.g09.slc.cpg/sg63_5_cif.got.tgz:8107.got - 2010.04.10 19:34:48.
