data_PCOD8256098
_publ_section_title
;
Structure prediction by ZEFSAII (Michael W. Deem and Ramdas Pophale) SiO2 
 PCOD8256098
Probable space group: C M C M
;
_chemical_formula_sum "Si O2"
_cell_formula_units_Z 104
_cell_length_a 30.432338
_cell_length_b 21.699457
_cell_length_c 8.772958
_cell_angle_alpha 90.000000
_cell_angle_beta 90.000000
_cell_angle_gamma 90.000000
_cell_volume 5793.356251
_symmetry_space_group_name_H-M "C M C M"
_symmetry_group_IT_number 63
_symmetry_cell_setting 'orthorhombic'
loop_
_space_group_symop_operation_xyz
x,y,z
-x,-y,1/2+z
x,-y,-z
-x,y,1/2-z
-x,-y,-z
x,y,1/2-z
-x,y,z
x,-y,1/2+z
1/2+x,1/2+y,z
1/2-x,1/2-y,1/2+z
1/2+x,1/2-y,-z
1/2-x,1/2+y,1/2-z
1/2-x,1/2-y,-z
1/2+x,1/2+y,1/2-z
1/2-x,1/2+y,z
1/2+x,1/2-y,1/2+z
loop_
_atom_site_type_symbol
_atom_site_label
_atom_site_fract_x
_atom_site_fract_y
_atom_site_fract_z
Si Si1 0.152693 0.202375 0.570990
Si Si2 0.068193 0.155086 0.427623
Si Si3 0.000000 0.740273 0.922212
Si Si4 0.159168 0.662628 0.569930
Si Si5 0.000000 0.933310 0.430285
Si Si6 0.747482 0.685016 0.575159
Si Si7 0.000000 0.611767 0.071452
Si Si8 0.406842 0.064903 0.431130
O O1 0.145444 0.215049 0.750000
O O2 0.115732 0.158608 0.502659
O O3 0.151399 0.267377 0.483375
O O4 0.197718 0.162049 0.542741
O O5 0.071220 0.138803 0.250000
O O6 0.043276 0.219583 0.453154
O O7 0.043455 0.100588 0.512433
O O8 0.000000 0.714767 0.750000
O O9 0.000000 0.683977 0.037095
O O10 0.149765 0.657706 0.750000
O O11 0.210169 0.643535 0.525660
O O12 0.126782 0.617330 0.482678
O O13 0.000000 0.936200 0.250000
O O14 0.000000 0.000000 0.500000
O O15 0.754686 0.698540 0.750000
O O16 0.750000 0.750000 0.500000
O O17 0.044197 0.580399 0.004904
O O18 0.000000 0.603383 0.250000
O O19 0.406240 0.061244 0.250000
O O20 0.391497 0.000000 0.500000
#
# Coordination Sequence:
#
# PCOD8256098 Si02
#       8
#    16  16   8  16   8  16   8  16
#     4  10  18  30  50  79 109 137 169 210 256 305
#     4  10  20  34  51  77 109 140 173 210 251 300
#     4   9  19  32  48  71 102 135 166 200 245 295
#     4  10  19  33  52  75 103 137 170 208 258 310
#     4  11  22  38  58  78 102 137 175 212 251 300
#     4   8  16  29  47  72 103 133 163 198 243 298
#     4  10  22  36  51  71  98 128 163 206 254 301
#     4  11  23  38  53  71  94 127 170 215 257 305
#
# _framework density 17.951599000000002
#
# number of rings (size 3 to 8) (size 9 to 14) (size 15 to 20)
#    0.000    2.154    0.000    4.154    0.000    6.769 
#    0.000    0.000    0.000    0.923    0.000    4.308 
#    0.000    0.000    0.000    0.000    0.000    0.000 
#
# Total GULP energy -644401.614487 kJ/mol
# GULP energy per Si atom -12392.338740 kJ/mol
# Density = 1.791074 g / cm^3
# Si number density = 17.951599 Si / 1000 Ang^3
#
#
#
# Elastic Constant Matrix: (Units=GPa)
#
#
# Indices 1 2 3 4 5 6 
#
# 1 163.8109 49.6580 51.3769 0.0000 0.0000 0.0000
# 2 49.6580 78.9035 28.7640 0.0000 0.0000 0.0000
# 3 51.3769 28.7640 72.2021 0.0000 0.0000 0.0000
# 4 0.0000 0.0000 0.0000 29.0474 0.0000 0.0000
# 5 0.0000 0.0000 0.0000 0.0000 27.8715 0.0000
# 6 0.0000 0.0000 0.0000 0.0000 0.0000 9.4433
#
#
#
# Elastic Compliance Matrix: (Units=1/GPa)
#
#
# Indices 1 2 3 4 5 6 
#
# 1 0.008725 -0.003776 -0.004704 0.000000 0.000000 0.000000
# 2 -0.003776 0.016461 -0.003871 0.000000 0.000000 0.000000
# 3 -0.004704 -0.003871 0.018739 0.000000 0.000000 0.000000
# 4 0.000000 0.000000 0.000000 0.034427 0.000000 0.000000
# 5 0.000000 0.000000 0.000000 0.000000 0.035879 0.000000
# 6 0.000000 0.000000 0.000000 0.000000 0.000000 0.105895
#
#
# Mechanical properties :
#
#
# Convention : Reuss Voigt Hill
#
# Bulk Modulus (GPa) = 52.01983 63.83493 57.92738
# Shear Modulus (GPa) = 19.90167 25.61361 22.75764
#
# Velocity S-wave (km/s) = 3.33322 3.78142 3.56437
# Velocity P-wave (km/s) = 6.62228 7.39609 7.01985
#
# Compressibility (1/GPa) = 0.01922344
#
# Stress axis : x y z
#
# Youngs Moduli (GPa) = 114.61876 60.74847 53.36387
#
# Poissons Ratio (x) = 0.22939 0.25102
# Poissons Ratio (y) = 0.43281 0.20657
# Poissons Ratio (z) = 0.53915 0.23516
#
# Static dielectric constant tensor:
#      x y z
#    x 4.199850 0.000000 0.000000 
#    y 0.000000 2.960440 0.000000 
#    z 0.000000 0.000000 3.409240 
# 
# 
# High freq. dielectric constant tensor:
#      x y z
#    x 1.717040 0.000000 0.000000 
#    y 0.000000 1.654040 0.000000 
#    z 0.000000 0.000000 1.707170 
# 
# From -- ./inp_files/14536.got.cif
#   From: 2010.03.12/outbox.cif.g09.slc.cpg/sg63_8_cif.got.tgz:14536.got - 2010.04.10 19:34:48.
