data_PCOD8256669
_publ_section_title
;
Structure prediction by ZEFSAII (Michael W. Deem and Ramdas Pophale) SiO2 
 PCOD8256669
Probable space group: C M C M
;
_chemical_formula_sum "Si O2"
_cell_formula_units_Z 96
_cell_length_a 12.622765
_cell_length_b 19.647874
_cell_length_c 23.616990
_cell_angle_alpha 90.000000
_cell_angle_beta 90.000000
_cell_angle_gamma 90.000000
_cell_volume 5857.261410
_symmetry_space_group_name_H-M "C M C M"
_symmetry_group_IT_number 63
_symmetry_cell_setting 'orthorhombic'
loop_
_space_group_symop_operation_xyz
x,y,z
-x,-y,1/2+z
x,-y,-z
-x,y,1/2-z
-x,-y,-z
x,y,1/2-z
-x,y,z
x,-y,1/2+z
1/2+x,1/2+y,z
1/2-x,1/2-y,1/2+z
1/2+x,1/2-y,-z
1/2-x,1/2+y,1/2-z
1/2-x,1/2-y,-z
1/2+x,1/2+y,1/2-z
1/2-x,1/2+y,z
1/2+x,1/2-y,1/2+z
loop_
_atom_site_type_symbol
_atom_site_label
_atom_site_fract_x
_atom_site_fract_y
_atom_site_fract_z
Si Si1 0.378690 0.956531 0.876440
Si Si2 0.746478 0.762379 0.097477
Si Si3 0.122743 0.807523 0.994297
Si Si4 0.778768 0.575616 0.489955
Si Si5 0.378164 0.175525 0.185035
Si Si6 0.122214 0.394178 0.103448
O O1 0.500000 0.965646 0.893418
O O2 0.324861 0.915664 0.927578
O O3 0.361284 0.906289 0.823231
O O4 0.337977 0.034510 0.866980
O O5 0.834960 0.765453 0.048271
O O6 0.795516 0.719616 0.148826
O O7 0.702591 0.834117 0.122815
O O8 0.646461 0.727279 0.066420
O O9 0.000000 0.816262 0.001805
O O10 0.173334 0.881475 0.996456
O O11 0.739924 0.500000 0.500000
O O12 0.868172 0.597659 0.535425
O O13 0.354292 0.192261 0.250000
O O14 0.500000 0.194297 0.169284
O O15 0.000000 0.377055 0.119056
#
# Coordination Sequence:
#
# PCOD8256669 Si02
#       6
#    16  16  16  16  16  16
#     4   9  16  29  48  71  98 124 157 199 242 285
#     4  10  19  32  47  71 100 129 162 199 243 296
#     4  10  19  29  45  69 100 133 160 196 242 294
#     4   9  16  27  44  70 100 129 161 191 239 289
#     4  10  20  34  53  73  93 123 165 207 242 281
#     4   9  17  28  47  74 103 129 155 191 242 298
#
# _framework density 16.389911999999999
#
# number of rings (size 3 to 8) (size 9 to 14) (size 15 to 20)
#    0.000    2.500    1.667    1.500    0.000    2.333 
#    0.000    0.833    0.000    3.000    0.000    0.000 
#    0.000    0.000    0.000    0.000    0.000    0.000 
#
# Total GULP energy -594836.243738 kJ/mol
# GULP energy per Si atom -12392.421745 kJ/mol
# Density = 1.635261 g / cm^3
# Si number density = 16.389912 Si / 1000 Ang^3
#
#
#
# Elastic Constant Matrix: (Units=GPa)
#
#
# Indices 1 2 3 4 5 6 
#
# 1 68.8081 33.7402 21.9849 0.0000 0.0000 0.0000
# 2 33.7402 94.4435 35.8871 0.0000 0.0000 0.0000
# 3 21.9849 35.8871 62.9142 0.0000 0.0000 0.0000
# 4 0.0000 0.0000 0.0000 20.5059 0.0000 0.0000
# 5 0.0000 0.0000 0.0000 0.0000 16.6035 0.0000
# 6 0.0000 0.0000 0.0000 0.0000 0.0000 23.9035
#
#
#
# Elastic Compliance Matrix: (Units=1/GPa)
#
#
# Indices 1 2 3 4 5 6 
#
# 1 0.018165 -0.005206 -0.003378 0.000000 0.000000 0.000000
# 2 -0.005206 0.015010 -0.006743 0.000000 0.000000 0.000000
# 3 -0.003378 -0.006743 0.020921 0.000000 0.000000 0.000000
# 4 0.000000 0.000000 0.000000 0.048766 0.000000 0.000000
# 5 0.000000 0.000000 0.000000 0.000000 0.060228 0.000000
# 6 0.000000 0.000000 0.000000 0.000000 0.000000 0.041835
#
#
# Mechanical properties :
#
#
# Convention : Reuss Voigt Hill
#
# Bulk Modulus (GPa) = 42.65676 45.48780 44.07228
# Shear Modulus (GPa) = 20.54275 21.17284 20.85780
#
# Velocity S-wave (km/s) = 3.54415 3.59809 3.57122
# Velocity P-wave (km/s) = 6.54452 6.71383 6.62971
#
# Compressibility (1/GPa) = 0.02344294
#
# Stress axis : x y z
#
# Youngs Moduli (GPa) = 55.05010 66.62052 47.79791
#
# Poissons Ratio (x) = 0.34682 0.16147
# Poissons Ratio (y) = 0.28659 0.32230
# Poissons Ratio (z) = 0.18597 0.44922
#
# Static dielectric constant tensor:
#      x y z
#    x 2.877940 0.000000 0.000000 
#    y 0.000000 3.444650 0.000000 
#    z 0.000000 0.000000 2.847950 
# 
# 
# High freq. dielectric constant tensor:
#      x y z
#    x 1.611710 0.000000 0.000000 
#    y 0.000000 1.646760 0.000000 
#    z 0.000000 0.000000 1.598010 
# 
# From -- ./inp_files/52861.got.cif
#   From: 2010.03.12/outbox.cif.g09.slc.cpg/sg63_27_cif.got.tgz:52861.got - 2010.04.10 19:34:48.
