data_PCOD8256223
_publ_section_title
;
Structure prediction by ZEFSAII (Michael W. Deem and Ramdas Pophale) SiO2 
 PCOD8256223
Probable space group: C M C M
;
_chemical_formula_sum "Si O2"
_cell_formula_units_Z 96
_cell_length_a 9.164488
_cell_length_b 20.732029
_cell_length_c 28.340713
_cell_angle_alpha 90.000000
_cell_angle_beta 90.000000
_cell_angle_gamma 90.000000
_cell_volume 5384.691003
_symmetry_space_group_name_H-M "C M C M"
_symmetry_group_IT_number 63
_symmetry_cell_setting 'orthorhombic'
loop_
_space_group_symop_operation_xyz
x,y,z
-x,-y,1/2+z
x,-y,-z
-x,y,1/2-z
-x,-y,-z
x,y,1/2-z
-x,y,z
x,-y,1/2+z
1/2+x,1/2+y,z
1/2-x,1/2-y,1/2+z
1/2+x,1/2-y,-z
1/2-x,1/2+y,1/2-z
1/2-x,1/2-y,-z
1/2+x,1/2+y,1/2-z
1/2-x,1/2+y,z
1/2+x,1/2-y,1/2+z
loop_
_atom_site_type_symbol
_atom_site_label
_atom_site_fract_x
_atom_site_fract_y
_atom_site_fract_z
Si Si1 0.326526 0.750674 0.398705
Si Si2 0.672954 0.196945 0.698896
Si Si3 0.672934 0.618554 0.055656
Si Si4 0.172685 0.132334 0.551128
Si Si5 0.330638 0.948788 0.303428
Si Si6 0.672448 0.493333 0.109306
O O1 0.500000 0.758203 0.403327
O O2 0.274224 0.758102 0.344154
O O3 0.270965 0.681415 0.416369
O O4 0.253031 0.804635 0.430567
O O5 0.731728 0.222574 0.750000
O O6 0.500000 0.194681 0.700943
O O7 0.729070 0.124153 0.690644
O O8 0.500000 0.616082 0.056194
O O9 0.735084 0.554826 0.080991
O O10 0.728104 0.620188 0.001987
O O11 0.000000 0.143826 0.553258
O O12 0.220556 0.070908 0.581784
O O13 0.304093 0.972922 0.250000
O O14 0.500000 0.952603 0.316823
O O15 0.241318 0.994437 0.338624
O O16 0.500000 0.497665 0.114477
#
# Coordination Sequence:
#
# PCOD8256223 Si02
#       6
#    16  16  16  16  16  16
#     4  10  18  31  52  73  95 123 163 207 240 283
#     4   8  14  26  46  70  92 116 150 193 239 283
#     4   9  19  33  48  70 100 133 163 196 243 291
#     4  10  19  32  50  70  97 132 166 199 240 289
#     4   9  17  31  51  73  97 125 158 198 244 290
#     4  10  19  32  50  72  99 131 165 198 235 287
#
# _framework density 17.828322
#
# number of rings (size 3 to 8) (size 9 to 14) (size 15 to 20)
#    0.000    2.667    1.667    2.000    0.000    2.333 
#    0.000    2.500    0.000    5.500    0.000    0.000 
#    0.000    0.000    0.000    0.000    0.000    0.000 
#
# Total GULP energy -595064.211018 kJ/mol
# GULP energy per Si atom -12397.171063 kJ/mol
# Density = 1.778774 g / cm^3
# Si number density = 17.828322 Si / 1000 Ang^3
#
#
#
# Elastic Constant Matrix: (Units=GPa)
#
#
# Indices 1 2 3 4 5 6 
#
# 1 19.6887 22.9565 26.8587 0.0000 0.0000 0.0000
# 2 22.9565 102.7794 59.1212 0.0000 0.0000 0.0000
# 3 26.8587 59.1212 153.9789 0.0000 0.0000 0.0000
# 4 0.0000 0.0000 0.0000 17.3968 0.0000 0.0000
# 5 0.0000 0.0000 0.0000 0.0000 25.0309 0.0000
# 6 0.0000 0.0000 0.0000 0.0000 0.0000 18.2692
#
#
#
# Elastic Compliance Matrix: (Units=1/GPa)
#
#
# Indices 1 2 3 4 5 6 
#
# 1 0.076880 -0.012139 -0.008750 0.000000 0.000000 0.000000
# 2 -0.012139 0.014404 -0.003413 0.000000 0.000000 0.000000
# 3 -0.008750 -0.003413 0.009331 0.000000 0.000000 0.000000
# 4 0.000000 0.000000 0.000000 0.057482 0.000000 0.000000
# 5 0.000000 0.000000 0.000000 0.000000 0.039951 0.000000
# 6 0.000000 0.000000 0.000000 0.000000 0.000000 0.054737
#
#
# Mechanical properties :
#
#
# Convention : Reuss Voigt Hill
#
# Bulk Modulus (GPa) = 19.22621 54.92443 37.07532
# Shear Modulus (GPa) = 15.68750 23.30674 19.49712
#
# Velocity S-wave (km/s) = 2.96956 3.61957 3.31056
# Velocity P-wave (km/s) = 4.75029 6.95289 5.95432
#
# Compressibility (1/GPa) = 0.05201233
#
# Stress axis : x y z
#
# Youngs Moduli (GPa) = 13.00730 69.42415 107.16840
#
# Poissons Ratio (x) = 0.84272 0.93767
# Poissons Ratio (y) = 0.15789 0.36579
# Poissons Ratio (z) = 0.11381 0.23696
#
# Static dielectric constant tensor:
#      x y z
#    x 2.869050 0.000000 0.000000 
#    y 0.000000 3.324000 0.000000 
#    z 0.000000 0.000000 3.757480 
# 
# 
# High freq. dielectric constant tensor:
#      x y z
#    x 1.647730 0.000000 0.000000 
#    y 0.000000 1.676860 0.000000 
#    z 0.000000 0.000000 1.710200 
# 
# From -- ./inp_files/61675.got.cif
#   From: 2010.03.12/outbox.cif.g09.slc.cpg/sg63_31_cif.got.tgz:61675.got - 2010.04.10 19:34:48.
