data_PCOD8256251
_publ_section_title
;
Structure prediction by ZEFSAII (Michael W. Deem and Ramdas Pophale) SiO2 
 PCOD8256251
Probable space group: C M C M
;
_chemical_formula_sum "Si O2"
_cell_formula_units_Z 96
_cell_length_a 17.545256
_cell_length_b 17.384164
_cell_length_c 18.221473
_cell_angle_alpha 90.000000
_cell_angle_beta 90.000000
_cell_angle_gamma 90.000000
_cell_volume 5557.724332
_symmetry_space_group_name_H-M "C M C M"
_symmetry_group_IT_number 63
_symmetry_cell_setting 'orthorhombic'
loop_
_space_group_symop_operation_xyz
x,y,z
-x,-y,1/2+z
x,-y,-z
-x,y,1/2-z
-x,-y,-z
x,y,1/2-z
-x,y,z
x,-y,1/2+z
1/2+x,1/2+y,z
1/2-x,1/2-y,1/2+z
1/2+x,1/2-y,-z
1/2-x,1/2+y,1/2-z
1/2-x,1/2-y,-z
1/2+x,1/2+y,1/2-z
1/2-x,1/2+y,z
1/2+x,1/2-y,1/2+z
loop_
_atom_site_type_symbol
_atom_site_label
_atom_site_fract_x
_atom_site_fract_y
_atom_site_fract_z
Si Si1 0.786545 0.053197 0.334222
Si Si2 0.806913 0.837347 0.451236
Si Si3 0.323543 0.955530 0.430587
Si Si4 0.087181 0.032262 0.581548
Si Si5 0.087312 0.658117 0.666267
Si Si6 0.200829 0.781147 0.610078
O O1 0.780965 0.029213 0.250000
O O2 0.779797 0.144702 0.342038
O O3 0.716419 0.014456 0.375611
O O4 0.867775 0.024434 0.364655
O O5 0.738495 0.897401 0.464288
O O6 0.878536 0.881222 0.415038
O O7 0.830746 0.802649 0.529493
O O8 0.777999 0.769952 0.396956
O O9 0.389427 0.911190 0.387397
O O10 0.360212 0.000000 0.500000
O O11 0.000000 0.035535 0.607577
O O12 0.095833 0.000000 0.500000
O O13 0.100496 0.631527 0.750000
O O14 0.135506 0.734486 0.651506
O O15 0.000000 0.678968 0.651138
#
# Coordination Sequence:
#
# PCOD8256251 Si02
#       6
#    16  16  16  16  16  16
#     4  11  20  32  53  79 101 127 169 216 259 296
#     4   9  17  32  53  75 100 133 172 212 250 295
#     4  10  18  35  57  76  97 129 175 215 252 291
#     4  10  19  33  51  74 106 140 171 205 255 308
#     4  10  22  36  49  73 110 141 162 197 256 314
#     4  10  18  31  53  76 102 135 167 212 252 300
#
# _framework density 17.273257999999998
#
# number of rings (size 3 to 8) (size 9 to 14) (size 15 to 20)
#    0.000    2.000    3.333    2.000    0.000    2.000 
#    0.000    0.833    0.000    0.000    0.000    0.000 
#    0.000    0.000    0.000    0.000    0.000    0.000 
#
# Total GULP energy -595294.477221 kJ/mol
# GULP energy per Si atom -12401.968275 kJ/mol
# Density = 1.723394 g / cm^3
# Si number density = 17.273258 Si / 1000 Ang^3
#
#
#
# Elastic Constant Matrix: (Units=GPa)
#
#
# Indices 1 2 3 4 5 6 
#
# 1 69.7814 34.4283 32.3413 0.0000 0.0000 0.0000
# 2 34.4283 103.5827 34.8368 0.0000 0.0000 0.0000
# 3 32.3413 34.8368 97.7801 0.0000 0.0000 0.0000
# 4 0.0000 0.0000 0.0000 20.7853 0.0000 0.0000
# 5 0.0000 0.0000 0.0000 0.0000 21.4868 0.0000
# 6 0.0000 0.0000 0.0000 0.0000 0.0000 17.7225
#
#
#
# Elastic Compliance Matrix: (Units=1/GPa)
#
#
# Indices 1 2 3 4 5 6 
#
# 1 0.018751 -0.004711 -0.004524 0.000000 0.000000 0.000000
# 2 -0.004711 0.012152 -0.002771 0.000000 0.000000 0.000000
# 3 -0.004524 -0.002771 0.012711 0.000000 0.000000 0.000000
# 4 0.000000 0.000000 0.000000 0.048111 0.000000 0.000000
# 5 0.000000 0.000000 0.000000 0.000000 0.046540 0.000000
# 6 0.000000 0.000000 0.000000 0.000000 0.000000 0.056426
#
#
# Mechanical properties :
#
#
# Convention : Reuss Voigt Hill
#
# Bulk Modulus (GPa) = 51.01538 52.70631 51.86084
# Shear Modulus (GPa) = 22.19889 23.30144 22.75017
#
# Velocity S-wave (km/s) = 3.58880 3.67684 3.63309
# Velocity P-wave (km/s) = 6.83894 6.97173 6.90566
#
# Compressibility (1/GPa) = 0.01960193
#
# Stress axis : x y z
#
# Youngs Moduli (GPa) = 53.32954 82.29101 78.67452
#
# Poissons Ratio (x) = 0.38768 0.35590
# Poissons Ratio (y) = 0.25124 0.21803
# Poissons Ratio (z) = 0.24124 0.22805
#
# Static dielectric constant tensor:
#      x y z
#    x 3.074940 0.000000 0.000000 
#    y 0.000000 3.390970 0.000000 
#    z 0.000000 0.000000 3.160830 
# 
# 
# High freq. dielectric constant tensor:
#      x y z
#    x 1.642900 0.000000 0.000000 
#    y 0.000000 1.676800 0.000000 
#    z 0.000000 0.000000 1.665240 
# 
# From -- ./inp_files/45739.got.cif
#   From: 2010.03.12/outbox.cif.g09.slc.cpg/sg63_23_cif.got.tgz:45739.got - 2010.04.10 19:34:48.
