data_PCOD8256510
_publ_section_title
;
Structure prediction by ZEFSAII (Michael W. Deem and Ramdas Pophale) SiO2 
 PCOD8256510
Probable space group: C M C M
;
_chemical_formula_sum "Si O2"
_cell_formula_units_Z 96
_cell_length_a 8.949394
_cell_length_b 25.063847
_cell_length_c 23.518637
_cell_angle_alpha 90.000000
_cell_angle_beta 90.000000
_cell_angle_gamma 90.000000
_cell_volume 5275.377081
_symmetry_space_group_name_H-M "C M C M"
_symmetry_group_IT_number 63
_symmetry_cell_setting 'orthorhombic'
loop_
_space_group_symop_operation_xyz
x,y,z
-x,-y,1/2+z
x,-y,-z
-x,y,1/2-z
-x,-y,-z
x,y,1/2-z
-x,y,z
x,-y,1/2+z
1/2+x,1/2+y,z
1/2-x,1/2-y,1/2+z
1/2+x,1/2-y,-z
1/2-x,1/2+y,1/2-z
1/2-x,1/2-y,-z
1/2+x,1/2+y,1/2-z
1/2-x,1/2+y,z
1/2+x,1/2-y,1/2+z
loop_
_atom_site_type_symbol
_atom_site_label
_atom_site_fract_x
_atom_site_fract_y
_atom_site_fract_z
Si Si1 0.171574 0.570157 0.140469
Si Si2 0.176437 0.137189 0.558740
Si Si3 0.673046 0.025869 0.558305
Si Si4 0.324245 0.607264 0.250000
Si Si5 0.324560 0.833585 0.942434
Si Si6 0.676586 0.735261 0.631196
Si Si7 0.678187 0.777253 0.750000
O O1 0.198934 0.513488 0.110815
O O2 0.277520 0.573266 0.194970
O O3 0.215051 0.615947 0.096239
O O4 0.000000 0.576734 0.159832
O O5 0.240294 0.079494 0.573163
O O6 0.237035 0.161350 0.500700
O O7 0.226508 0.177106 0.609458
O O8 0.000000 0.133260 0.554260
O O9 0.500000 0.040277 0.549270
O O10 0.735519 0.000000 0.500000
O O11 0.500000 0.616560 0.250000
O O12 0.241403 0.663477 0.250000
O O13 0.500000 0.831021 0.955717
O O14 0.262830 0.780869 0.911217
O O15 0.500000 0.740699 0.632374
O O16 0.738126 0.745362 0.694818
O O17 0.500000 0.782252 0.750000
#
# Coordination Sequence:
#
# PCOD8256510 Si02
#       7
#    16  16  16   8  16  16   8
#     4  10  20  37  62  83 106 147 195 228 264 328
#     4  11  22  34  51  84 121 149 178 226 293 342
#     4  10  20  38  60  81 105 144 196 234 265 324
#     4  12  24  36  55  88 123 141 172 232 294 333
#     4  10  18  34  58  82 108 146 191 229 266 326
#     4   9  19  34  56  82 108 144 191 230 271 334
#     4  10  18  38  63  76 101 151 198 226 258 325
#
# _framework density 18.197752999999999
#
# number of rings (size 3 to 8) (size 9 to 14) (size 15 to 20)
#    0.000    1.833    3.333    1.750    0.000    1.667 
#    0.000    3.333    0.000    1.000    0.000    0.000 
#    0.000    0.000    0.000    0.000    0.000    0.000 
#
# Total GULP energy -595301.432369 kJ/mol
# GULP energy per Si atom -12402.113174 kJ/mol
# Density = 1.815633 g / cm^3
# Si number density = 18.197753 Si / 1000 Ang^3
#
#
#
# Elastic Constant Matrix: (Units=GPa)
#
#
# Indices 1 2 3 4 5 6 
#
# 1 52.0927 37.9703 42.0938 0.0000 0.0000 0.0000
# 2 37.9703 136.8716 69.8939 0.0000 0.0000 0.0000
# 3 42.0938 69.8939 127.6486 0.0000 0.0000 0.0000
# 4 0.0000 0.0000 0.0000 24.7097 0.0000 0.0000
# 5 0.0000 0.0000 0.0000 0.0000 23.3783 0.0000
# 6 0.0000 0.0000 0.0000 0.0000 0.0000 24.9495
#
#
#
# Elastic Compliance Matrix: (Units=1/GPa)
#
#
# Indices 1 2 3 4 5 6 
#
# 1 0.027814 -0.004209 -0.006867 0.000000 0.000000 0.000000
# 2 -0.004209 0.010779 -0.004514 0.000000 0.000000 0.000000
# 3 -0.006867 -0.004514 0.012570 0.000000 0.000000 0.000000
# 4 0.000000 0.000000 0.000000 0.040470 0.000000 0.000000
# 5 0.000000 0.000000 0.000000 0.000000 0.042775 0.000000
# 6 0.000000 0.000000 0.000000 0.000000 0.000000 0.040081
#
#
# Mechanical properties :
#
#
# Convention : Reuss Voigt Hill
#
# Bulk Modulus (GPa) = 50.04484 68.50322 59.27403
# Shear Modulus (GPa) = 23.54829 25.71783 24.63306
#
# Velocity S-wave (km/s) = 3.60115 3.76339 3.68317
# Velocity P-wave (km/s) = 6.69711 7.52394 7.12253
#
# Compressibility (1/GPa) = 0.01998208
#
# Stress axis : x y z
#
# Youngs Moduli (GPa) = 35.95350 92.77419 79.55357
#
# Poissons Ratio (x) = 0.39051 0.54631
# Poissons Ratio (y) = 0.15134 0.35910
# Poissons Ratio (z) = 0.24690 0.41877
#
# Static dielectric constant tensor:
#      x y z
#    x 3.130340 0.000000 0.000000 
#    y 0.000000 3.468790 0.000000 
#    z 0.000000 0.000000 3.604480 
# 
# 
# High freq. dielectric constant tensor:
#      x y z
#    x 1.682750 0.000000 0.000000 
#    y 0.000000 1.709540 0.000000 
#    z 0.000000 0.000000 1.709080 
# 
# From -- ./inp_files/60094.got.cif
#   From: 2010.03.12/outbox.cif.g09.slc.cpg/sg63_31_cif.got.tgz:60094.got - 2010.04.10 19:34:48.
