data_PCOD8256464
_publ_section_title
;
Structure prediction by ZEFSAII (Michael W. Deem and Ramdas Pophale) SiO2 
 PCOD8256464
Probable space group: C M C M
;
_chemical_formula_sum "Si O2"
_cell_formula_units_Z 96
_cell_length_a 19.161505
_cell_length_b 8.814141
_cell_length_c 27.777988
_cell_angle_alpha 90.000000
_cell_angle_beta 90.000000
_cell_angle_gamma 90.000000
_cell_volume 4691.485695
_symmetry_space_group_name_H-M "C M C M"
_symmetry_group_IT_number 63
_symmetry_cell_setting 'orthorhombic'
loop_
_space_group_symop_operation_xyz
x,y,z
-x,-y,1/2+z
x,-y,-z
-x,y,1/2-z
-x,-y,-z
x,y,1/2-z
-x,y,z
x,-y,1/2+z
1/2+x,1/2+y,z
1/2-x,1/2-y,1/2+z
1/2+x,1/2-y,-z
1/2-x,1/2+y,1/2-z
1/2-x,1/2-y,-z
1/2+x,1/2+y,1/2-z
1/2-x,1/2+y,z
1/2+x,1/2-y,1/2+z
loop_
_atom_site_type_symbol
_atom_site_label
_atom_site_fract_x
_atom_site_fract_y
_atom_site_fract_z
Si Si1 0.739034 0.792361 0.849757
Si Si2 0.696765 0.941679 0.085427
Si Si3 0.420084 0.800301 0.037476
Si Si4 0.337185 0.524486 0.694891
Si Si5 0.834115 0.132555 0.535040
Si Si6 0.577137 0.515268 0.107666
O O1 0.796778 0.674950 0.869842
O O2 0.680643 0.697238 0.821039
O O3 0.710558 0.885856 0.896909
O O4 0.771756 0.911776 0.812439
O O5 0.618121 0.939739 0.064549
O O6 0.750778 0.878046 0.044013
O O7 0.500000 0.839826 0.022579
O O8 0.419070 0.665180 0.075801
O O9 0.370279 0.777113 0.990458
O O10 0.360872 0.524096 0.750000
O O11 0.400584 0.457665 0.662906
O O12 0.859241 0.000000 0.500000
O O13 0.868357 0.108501 0.587523
O O14 0.500000 0.446126 0.106061
#
# Coordination Sequence:
#
# PCOD8256464 Si02
#       6
#    16  16  16  16  16  16
#     4  10  20  36  58  84 109 146 185 229 284 331
#     4  11  19  36  59  80 115 149 189 228 276 331
#     4  10  20  33  54  85 115 150 190 228 274 328
#     4  11  21  37  59  85 111 141 184 236 287 339
#     4  10  18  33  57  82 109 153 193 231 268 326
#     4  10  19  34  55  81 114 146 186 234 279 329
#
# _framework density 20.462599999999998
#
# number of rings (size 3 to 8) (size 9 to 14) (size 15 to 20)
#    0.000    1.667    5.000    2.500    0.000    2.333 
#    0.000    0.833    0.000    1.500    0.000    0.000 
#    0.000    0.000    0.000    0.000    0.000    0.000 
#
# Total GULP energy -594662.607701 kJ/mol
# GULP energy per Si atom -12388.804327 kJ/mol
# Density = 2.041603 g / cm^3
# Si number density = 20.462600 Si / 1000 Ang^3
#
#
#
# Elastic Constant Matrix: (Units=GPa)
#
#
# Indices 1 2 3 4 5 6 
#
# 1 95.7255 5.1183 18.8616 0.0000 0.0000 0.0000
# 2 5.1183 68.7642 8.1959 0.0000 0.0000 0.0000
# 3 18.8616 8.1959 100.6799 0.0000 0.0000 0.0000
# 4 0.0000 0.0000 0.0000 19.9967 0.0000 0.0000
# 5 0.0000 0.0000 0.0000 0.0000 21.6051 0.0000
# 6 0.0000 0.0000 0.0000 0.0000 0.0000 17.6250
#
#
#
# Elastic Compliance Matrix: (Units=1/GPa)
#
#
# Indices 1 2 3 4 5 6 
#
# 1 0.010869 -0.000572 -0.001990 0.000000 0.000000 0.000000
# 2 -0.000572 0.014715 -0.001091 0.000000 0.000000 0.000000
# 3 -0.001990 -0.001091 0.010394 0.000000 0.000000 0.000000
# 4 0.000000 0.000000 0.000000 0.050008 0.000000 0.000000
# 5 0.000000 0.000000 0.000000 0.000000 0.046285 0.000000
# 6 0.000000 0.000000 0.000000 0.000000 0.000000 0.056737
#
#
# Mechanical properties :
#
#
# Convention : Reuss Voigt Hill
#
# Bulk Modulus (GPa) = 34.87533 36.61346 35.74439
# Shear Modulus (GPa) = 24.28695 27.37828 25.83261
#
# Velocity S-wave (km/s) = 3.44887 3.66179 3.55692
# Velocity P-wave (km/s) = 5.73934 5.98415 5.86302
#
# Compressibility (1/GPa) = 0.02867357
#
# Stress axis : x y z
#
# Youngs Moduli (GPa) = 92.00340 67.95781 96.20921
#
# Poissons Ratio (x) = 0.03886 0.19143
# Poissons Ratio (y) = 0.05261 0.10494
# Poissons Ratio (z) = 0.18306 0.07412
#
# Static dielectric constant tensor:
#      x y z
#    x 3.636050 0.000000 0.000000 
#    y 0.000000 3.619290 0.000000 
#    z 0.000000 0.000000 3.657760 
# 
# 
# High freq. dielectric constant tensor:
#      x y z
#    x 1.780390 0.000000 0.000000 
#    y 0.000000 1.794600 0.000000 
#    z 0.000000 0.000000 1.789830 
# 
# From -- ./inp_files/70316.got.cif
#   From: 2010.03.12/outbox.cif.g09.slc.cpg/sg63_36_cif.got.tgz:70316.got - 2010.04.10 19:34:48.
