data_PCOD8256478
_publ_section_title
;
Structure prediction by ZEFSAII (Michael W. Deem and Ramdas Pophale) SiO2 
 PCOD8256478
Probable space group: C M C M
;
_chemical_formula_sum "Si O2"
_cell_formula_units_Z 84
_cell_length_a 11.897511
_cell_length_b 36.071878
_cell_length_c 9.956287
_cell_angle_alpha 90.000000
_cell_angle_beta 90.000000
_cell_angle_gamma 90.000000
_cell_volume 4272.895539
_symmetry_space_group_name_H-M "C M C M"
_symmetry_group_IT_number 63
_symmetry_cell_setting 'orthorhombic'
loop_
_space_group_symop_operation_xyz
x,y,z
-x,-y,1/2+z
x,-y,-z
-x,y,1/2-z
-x,-y,-z
x,y,1/2-z
-x,y,z
x,-y,1/2+z
1/2+x,1/2+y,z
1/2-x,1/2-y,1/2+z
1/2+x,1/2-y,-z
1/2-x,1/2+y,1/2-z
1/2-x,1/2-y,-z
1/2+x,1/2+y,1/2-z
1/2-x,1/2+y,z
1/2+x,1/2-y,1/2+z
loop_
_atom_site_type_symbol
_atom_site_label
_atom_site_fract_x
_atom_site_fract_y
_atom_site_fract_z
Si Si1 0.275827 0.169340 0.538432
Si Si2 0.377299 0.396463 0.403505
Si Si3 0.000000 0.557838 0.598005
Si Si4 0.000000 0.311696 0.750000
Si Si5 0.755760 0.467367 0.094431
Si Si6 0.500000 0.865021 0.498408
Si Si7 0.238911 0.298351 0.750000
Si Si8 0.862893 0.723557 0.750000
O O1 0.171171 0.145088 0.586410
O O2 0.385702 0.145411 0.577512
O O3 0.249336 0.176582 0.382384
O O4 0.298869 0.207363 0.619218
O O5 0.394116 0.406300 0.250000
O O6 0.500000 0.397508 0.475118
O O7 0.296003 0.428594 0.461764
O O8 0.890180 0.533071 0.577068
O O9 0.000000 0.590659 0.487010
O O10 0.000000 0.574943 0.750000
O O11 0.000000 0.340589 0.869549
O O12 0.108148 0.284394 0.750000
O O13 0.723564 0.475061 0.250000
O O14 0.707496 0.500000 0.000000
O O15 0.333476 0.266959 0.750000
O O16 0.000000 0.718570 0.750000
#
# Coordination Sequence:
#
# PCOD8256478 Si02
#       8
#    16  16   8   4  16   8   8   8
#     4  11  21  40  63  87 119 152 197 245 291 344
#     4  10  21  38  61  87 114 155 201 243 289 344
#     4  10  19  31  58  86 117 149 186 240 295 335
#     4   8  20  40  54  80 124 158 180 234 296 354
#     4  10  21  38  57  84 119 151 189 238 292 347
#     4  10  18  33  61  88 109 151 195 236 287 339
#     4  10  24  42  58  86 129 155 183 245 304 349
#     4  12  24  38  64  92 114 157 204 238 286 357
#
# _framework density 19.658798999999998
#
# number of rings (size 3 to 8) (size 9 to 14) (size 15 to 20)
#    0.000    1.714    3.810    0.857    1.333    1.143 
#    5.143    0.000    0.000    0.000    0.000    0.000 
#    0.000    0.000    0.000    0.000    0.000    0.000 
#
# Total GULP energy -520331.325186 kJ/mol
# GULP energy per Si atom -12388.841076 kJ/mol
# Density = 1.961405 g / cm^3
# Si number density = 19.658799 Si / 1000 Ang^3
#
#
#
# Elastic Constant Matrix: (Units=GPa)
#
#
# Indices 1 2 3 4 5 6 
#
# 1 119.3770 41.9970 24.1316 0.0000 0.0000 0.0000
# 2 41.9970 93.4393 28.6197 0.0000 0.0000 0.0000
# 3 24.1316 28.6197 70.1637 0.0000 0.0000 0.0000
# 4 0.0000 0.0000 0.0000 51.6296 0.0000 0.0000
# 5 0.0000 0.0000 0.0000 0.0000 15.8503 0.0000
# 6 0.0000 0.0000 0.0000 0.0000 0.0000 27.6830
#
#
#
# Elastic Compliance Matrix: (Units=1/GPa)
#
#
# Indices 1 2 3 4 5 6 
#
# 1 0.010159 -0.003995 -0.001865 0.000000 0.000000 0.000000
# 2 -0.003995 0.013801 -0.004255 0.000000 0.000000 0.000000
# 3 -0.001865 -0.004255 0.016629 0.000000 0.000000 0.000000
# 4 0.000000 0.000000 0.000000 0.019369 0.000000 0.000000
# 5 0.000000 0.000000 0.000000 0.000000 0.063090 0.000000
# 6 0.000000 0.000000 0.000000 0.000000 0.000000 0.036123
#
#
# Mechanical properties :
#
#
# Convention : Reuss Voigt Hill
#
# Bulk Modulus (GPa) = 49.11642 52.49739 50.80690
# Shear Modulus (GPa) = 26.85446 31.58134 29.21790
#
# Velocity S-wave (km/s) = 3.69999 4.01243 3.85937
# Velocity P-wave (km/s) = 6.57966 6.94467 6.76463
#
# Compressibility (1/GPa) = 0.02035979
#
# Stress axis : x y z
#
# Youngs Moduli (GPa) = 98.43308 72.45782 60.13432
#
# Poissons Ratio (x) = 0.28947 0.11212
# Poissons Ratio (y) = 0.39324 0.25590
# Poissons Ratio (z) = 0.18353 0.30834
#
# Static dielectric constant tensor:
#      x y z
#    x 3.936590 0.000000 0.000000 
#    y 0.000000 3.290570 0.000000 
#    z 0.000000 0.000000 3.420890 
# 
# 
# High freq. dielectric constant tensor:
#      x y z
#    x 1.771790 0.000000 0.000000 
#    y 0.000000 1.753910 0.000000 
#    z 0.000000 0.000000 1.747580 
# 
# From -- ./inp_files/18056.got.cif
#   From: 2010.03.12/outbox.cif.g09.slc.cpg/sg63_10_cif.got.tgz:18056.got - 2010.04.10 19:34:48.
