data_PCOD8256658
_publ_section_title
;
Structure prediction by ZEFSAII (Michael W. Deem and Ramdas Pophale) SiO2 
 PCOD8256658
Probable space group: C M C M
;
_chemical_formula_sum "Si O2"
_cell_formula_units_Z 96
_cell_length_a 18.133422
_cell_length_b 17.624237
_cell_length_c 18.522224
_cell_angle_alpha 90.000000
_cell_angle_beta 90.000000
_cell_angle_gamma 90.000000
_cell_volume 5919.475466
_symmetry_space_group_name_H-M "C M C M"
_symmetry_group_IT_number 63
_symmetry_cell_setting 'orthorhombic'
loop_
_space_group_symop_operation_xyz
x,y,z
-x,-y,1/2+z
x,-y,-z
-x,y,1/2-z
-x,-y,-z
x,y,1/2-z
-x,y,z
x,-y,1/2+z
1/2+x,1/2+y,z
1/2-x,1/2-y,1/2+z
1/2+x,1/2-y,-z
1/2-x,1/2+y,1/2-z
1/2-x,1/2-y,-z
1/2+x,1/2+y,1/2-z
1/2-x,1/2+y,z
1/2+x,1/2-y,1/2+z
loop_
_atom_site_type_symbol
_atom_site_label
_atom_site_fract_x
_atom_site_fract_y
_atom_site_fract_z
Si Si1 0.916580 0.897955 0.665969
Si Si2 0.917631 0.701426 0.166929
Si Si3 0.705199 0.094254 0.331085
Si Si4 0.194116 0.033936 0.831507
Si Si5 0.808125 0.812184 0.085794
Si Si6 0.310358 0.304529 0.918266
O O1 0.913475 0.879447 0.750000
O O2 0.885055 0.822863 0.625640
O O3 0.000000 0.912935 0.639898
O O4 0.868320 0.972262 0.647473
O O5 0.920146 0.726747 0.250000
O O6 0.880641 0.617219 0.159485
O O7 0.870769 0.764012 0.125345
O O8 0.000000 0.696701 0.134547
O O9 0.731877 0.120248 0.250000
O O10 0.748710 0.135981 0.394156
O O11 0.724290 0.004922 0.338445
O O12 0.181243 0.063534 0.750000
O O13 0.189811 0.102573 0.886275
O O14 0.725521 0.778205 0.098145
O O15 0.828311 0.813471 0.002034
#
# Coordination Sequence:
#
# PCOD8256658 Si02
#       6
#    16  16  16  16  16  16
#     4   9  18  32  48  65  88 120 153 183 220 269
#     4   9  17  29  45  64  88 118 147 177 218 267
#     4   8  15  29  46  63  84 114 151 182 214 261
#     4   9  17  29  46  67  89 112 142 184 225 259
#     4  10  19  29  44  69  94 116 146 185 225 259
#     4   9  18  31  45  64  90 122 153 180 213 261
#
# _framework density 16.217652999999999
#
# number of rings (size 3 to 8) (size 9 to 14) (size 15 to 20)
#    0.000    3.000    0.000    2.000    0.000    6.000 
#    0.000    2.500    0.000    1.000    0.000   12.833 
#    0.000    0.000    0.000    0.000    0.000    0.000 
#
# Total GULP energy -594670.416268 kJ/mol
# GULP energy per Si atom -12388.967006 kJ/mol
# Density = 1.618074 g / cm^3
# Si number density = 16.217653 Si / 1000 Ang^3
#
#
#
# Elastic Constant Matrix: (Units=GPa)
#
#
# Indices 1 2 3 4 5 6 
#
# 1 107.5513 67.2241 52.2165 0.0000 0.0000 0.0000
# 2 67.2241 76.3287 34.9692 0.0000 0.0000 0.0000
# 3 52.2165 34.9692 62.5998 0.0000 0.0000 0.0000
# 4 0.0000 0.0000 0.0000 26.0608 0.0000 0.0000
# 5 0.0000 0.0000 0.0000 0.0000 18.2020 0.0000
# 6 0.0000 0.0000 0.0000 0.0000 0.0000 17.0502
#
#
#
# Elastic Compliance Matrix: (Units=1/GPa)
#
#
# Indices 1 2 3 4 5 6 
#
# 1 0.025976 -0.017405 -0.011945 0.000000 0.000000 0.000000
# 2 -0.017405 0.029270 -0.001832 0.000000 0.000000 0.000000
# 3 -0.011945 -0.001832 0.026961 0.000000 0.000000 0.000000
# 4 0.000000 0.000000 0.000000 0.038372 0.000000 0.000000
# 5 0.000000 0.000000 0.000000 0.000000 0.054939 0.000000
# 6 0.000000 0.000000 0.000000 0.000000 0.000000 0.058650
#
#
# Mechanical properties :
#
#
# Convention : Reuss Voigt Hill
#
# Bulk Modulus (GPa) = 50.39570 61.69994 56.04782
# Shear Modulus (GPa) = 16.49363 18.40059 17.44711
#
# Velocity S-wave (km/s) = 3.19253 3.37204 3.28351
# Velocity P-wave (km/s) = 6.68818 7.29989 7.00072
#
# Compressibility (1/GPa) = 0.01984296
#
# Stress axis : x y z
#
# Youngs Moduli (GPa) = 38.49689 34.16481 37.09008
#
# Poissons Ratio (x) = 0.59465 0.44303
# Poissons Ratio (y) = 0.67005 0.06796
# Poissons Ratio (z) = 0.45983 0.06260
#
# Static dielectric constant tensor:
#      x y z
#    x 3.274920 0.000000 0.000000 
#    y 0.000000 2.982180 0.000000 
#    z 0.000000 0.000000 3.054050 
# 
# 
# High freq. dielectric constant tensor:
#      x y z
#    x 1.613460 0.000000 0.000000 
#    y 0.000000 1.602620 0.000000 
#    z 0.000000 0.000000 1.625330 
# 
# From -- ./inp_files/45710.got.cif
#   From: 2010.03.12/outbox.cif.g09.slc.cpg/sg63_23_cif.got.tgz:45710.got - 2010.04.10 19:34:48.
