data_PCOD8256832
_publ_section_title
;
Structure prediction by ZEFSAII (Michael W. Deem and Ramdas Pophale) SiO2 
 PCOD8256832
Probable space group: C M C M
;
_chemical_formula_sum "Si O2"
_cell_formula_units_Z 96
_cell_length_a 8.992990
_cell_length_b 27.800119
_cell_length_c 20.157831
_cell_angle_alpha 90.000000
_cell_angle_beta 90.000000
_cell_angle_gamma 90.000000
_cell_volume 5039.582571
_symmetry_space_group_name_H-M "C M C M"
_symmetry_group_IT_number 63
_symmetry_cell_setting 'orthorhombic'
loop_
_space_group_symop_operation_xyz
x,y,z
-x,-y,1/2+z
x,-y,-z
-x,y,1/2-z
-x,-y,-z
x,y,1/2-z
-x,y,z
x,-y,1/2+z
1/2+x,1/2+y,z
1/2-x,1/2-y,1/2+z
1/2+x,1/2-y,-z
1/2-x,1/2+y,1/2-z
1/2-x,1/2-y,-z
1/2+x,1/2+y,1/2-z
1/2-x,1/2+y,z
1/2+x,1/2-y,1/2+z
loop_
_atom_site_type_symbol
_atom_site_label
_atom_site_fract_x
_atom_site_fract_y
_atom_site_fract_z
Si Si1 0.824451 0.253684 0.826436
Si Si2 0.164802 0.564526 0.884722
Si Si3 0.160066 0.852401 0.326612
Si Si4 0.322401 0.290290 0.546855
Si Si5 0.832536 0.977385 0.572797
Si Si6 0.332015 0.889200 0.528302
O O1 0.774038 0.263125 0.750000
O O2 0.785375 0.199658 0.852138
O O3 0.731959 0.287099 0.876619
O O4 0.000000 0.263623 0.833613
O O5 0.221655 0.606078 0.836666
O O6 0.263458 0.516639 0.877240
O O7 0.000000 0.550380 0.862196
O O8 0.165661 0.585213 0.958010
O O9 0.132301 0.844354 0.250000
O O10 0.000000 0.865934 0.359960
O O11 0.500000 0.286294 0.542780
O O12 0.250000 0.250000 0.500000
O O13 0.269561 0.342241 0.521299
O O14 0.000000 0.966244 0.595059
O O15 0.827004 0.000000 0.500000
O O16 0.740367 0.927755 0.578766
O O17 0.500000 0.876319 0.551404
#
# Coordination Sequence:
#
# PCOD8256832 Si02
#       6
#    16  16  16  16  16  16
#     4   9  19  37  58  78 104 140 179 218 265 321
#     4  10  19  30  48  74 102 132 165 205 252 300
#     4   9  18  32  50  72  98 130 167 206 250 303
#     4  12  24  36  53  79 110 142 179 223 269 314
#     4   9  17  30  49  72  98 130 164 198 243 302
#     4  10  20  34  51  74 104 134 168 211 257 305
#
# _framework density 19.049196999999999
#
# number of rings (size 3 to 8) (size 9 to 14) (size 15 to 20)
#    0.000    2.167    0.000    5.000    0.000    8.000 
#    0.000    1.667    0.000    1.000    0.000    0.000 
#    0.000    0.000    0.000    0.000    0.000    0.000 
#
# Total GULP energy -595016.526049 kJ/mol
# GULP energy per Si atom -12396.177626 kJ/mol
# Density = 1.900584 g / cm^3
# Si number density = 19.049197 Si / 1000 Ang^3
#
#
#
# Elastic Constant Matrix: (Units=GPa)
#
#
# Indices 1 2 3 4 5 6 
#
# 1 135.8401 47.2557 23.7836 0.0000 0.0000 0.0000
# 2 47.2557 82.5425 2.0732 0.0000 0.0000 0.0000
# 3 23.7836 2.0732 28.9202 0.0000 0.0000 0.0000
# 4 0.0000 0.0000 0.0000 20.0990 0.0000 0.0000
# 5 0.0000 0.0000 0.0000 0.0000 23.5518 0.0000
# 6 0.0000 0.0000 0.0000 0.0000 0.0000 37.8881
#
#
#
# Elastic Compliance Matrix: (Units=1/GPa)
#
#
# Indices 1 2 3 4 5 6 
#
# 1 0.010977 -0.006069 -0.008592 0.000000 0.000000 0.000000
# 2 -0.006069 0.015492 0.003880 0.000000 0.000000 0.000000
# 3 -0.008592 0.003880 0.041366 0.000000 0.000000 0.000000
# 4 0.000000 0.000000 0.000000 0.049754 0.000000 0.000000
# 5 0.000000 0.000000 0.000000 0.000000 0.042460 0.000000
# 6 0.000000 0.000000 0.000000 0.000000 0.000000 0.026394
#
#
# Mechanical properties :
#
#
# Convention : Reuss Voigt Hill
#
# Bulk Modulus (GPa) = 21.61076 43.72531 32.66803
# Shear Modulus (GPa) = 22.37860 27.92047 25.14953
#
# Velocity S-wave (km/s) = 3.43122 3.83260 3.63745
# Velocity P-wave (km/s) = 5.20260 6.52601 5.90152
#
# Compressibility (1/GPa) = 0.04627325
#
# Stress axis : x y z
#
# Youngs Moduli (GPa) = 91.09848 64.55023 24.17448
#
# Poissons Ratio (x) = 0.39173 0.20772
# Poissons Ratio (y) = 0.55284 -0.09380
# Poissons Ratio (z) = 0.78275 -0.25047
#
# Static dielectric constant tensor:
#      x y z
#    x 3.665780 0.000000 0.000000 
#    y 0.000000 3.667440 0.000000 
#    z 0.000000 0.000000 3.232860 
# 
# 
# High freq. dielectric constant tensor:
#      x y z
#    x 1.749920 0.000000 0.000000 
#    y 0.000000 1.740600 0.000000 
#    z 0.000000 0.000000 1.701970 
# 
# From -- ./inp_files/51271.got.cif
#   From: 2010.03.12/outbox.cif.g09.slc.cpg/sg63_26_cif.got.tgz:51271.got - 2010.04.10 19:34:48.
