data_PCOD8256535
_publ_section_title
;
Structure prediction by ZEFSAII (Michael W. Deem and Ramdas Pophale) SiO2 
 PCOD8256535
Probable space group: C M C M
;
_chemical_formula_sum "Si O2"
_cell_formula_units_Z 104
_cell_length_a 26.001272
_cell_length_b 14.390818
_cell_length_c 14.658785
_cell_angle_alpha 90.000000
_cell_angle_beta 90.000000
_cell_angle_gamma 90.000000
_cell_volume 5485.017914
_symmetry_space_group_name_H-M "C M C M"
_symmetry_group_IT_number 63
_symmetry_cell_setting 'orthorhombic'
loop_
_space_group_symop_operation_xyz
x,y,z
-x,-y,1/2+z
x,-y,-z
-x,y,1/2-z
-x,-y,-z
x,y,1/2-z
-x,y,z
x,-y,1/2+z
1/2+x,1/2+y,z
1/2-x,1/2-y,1/2+z
1/2+x,1/2-y,-z
1/2-x,1/2+y,1/2-z
1/2-x,1/2-y,-z
1/2+x,1/2+y,1/2-z
1/2-x,1/2+y,z
1/2+x,1/2-y,1/2+z
loop_
_atom_site_type_symbol
_atom_site_label
_atom_site_fract_x
_atom_site_fract_y
_atom_site_fract_z
Si Si1 0.141916 0.496580 0.354623
Si Si2 0.815019 0.627245 0.003881
Si Si3 0.942268 0.358282 0.146965
Si Si4 0.442337 0.574201 0.920098
Si Si5 0.646850 0.532073 0.351158
Si Si6 0.379097 0.290088 0.964777
Si Si7 0.223896 0.000000 0.000000
O O1 0.160558 0.513016 0.250000
O O2 0.175637 0.416329 0.403295
O O3 0.147253 0.588733 0.416082
O O4 0.083230 0.460615 0.356687
O O5 0.756848 0.592931 0.025596
O O6 0.827039 0.737580 0.001590
O O7 0.940056 0.319048 0.250000
O O8 0.914286 0.286084 0.082392
O O9 0.000000 0.369922 0.111987
O O10 0.500000 0.597705 0.883076
O O11 0.406599 0.525594 0.844055
O O12 0.447115 0.500000 0.000000
O O13 0.413294 0.666842 0.954109
O O14 0.669483 0.542896 0.250000
O O15 0.638541 0.633569 0.392856
O O16 0.687369 0.476098 0.414004
#
# Coordination Sequence:
#
# PCOD8256535 Si02
#       7
#    16  16  16  16  16  16   8
#     4   8  15  31  49  73 107 147 184 216 265 334
#     4   9  20  33  58  79 109 143 182 228 284 318
#     4   9  16  26  46  78 111 141 180 228 272 319
#     4   9  18  35  57  79 109 145 176 218 275 332
#     4  11  22  38  58  79 107 145 188 230 275 330
#     4  10  18  35  54  80 110 139 182 234 279 327
#     4  10  20  40  55  80 111 150 182 234 270 338
#
# _framework density 18.960740000000001
#
# number of rings (size 3 to 8) (size 9 to 14) (size 15 to 20)
#    0.000    2.769    2.308    0.923    0.000    4.615 
#    0.000    7.692    0.000    0.000    0.000    0.000 
#    0.000    0.000    0.000    0.000    0.000    0.000 
#
# Total GULP energy -644212.107017 kJ/mol
# GULP energy per Si atom -12388.694366 kJ/mol
# Density = 1.891758 g / cm^3
# Si number density = 18.960740 Si / 1000 Ang^3
#
#
#
# Elastic Constant Matrix: (Units=GPa)
#
#
# Indices 1 2 3 4 5 6 
#
# 1 106.7431 40.6392 28.5954 0.0000 0.0000 0.0000
# 2 40.6392 88.4668 39.0837 0.0000 0.0000 0.0000
# 3 28.5954 39.0837 97.5971 0.0000 0.0000 0.0000
# 4 0.0000 0.0000 0.0000 15.6644 0.0000 0.0000
# 5 0.0000 0.0000 0.0000 0.0000 15.4475 0.0000
# 6 0.0000 0.0000 0.0000 0.0000 0.0000 25.5756
#
#
#
# Elastic Compliance Matrix: (Units=1/GPa)
#
#
# Indices 1 2 3 4 5 6 
#
# 1 0.011539 -0.004625 -0.001529 0.000000 0.000000 0.000000
# 2 -0.004625 0.015587 -0.004887 0.000000 0.000000 0.000000
# 3 -0.001529 -0.004887 0.012651 0.000000 0.000000 0.000000
# 4 0.000000 0.000000 0.000000 0.063839 0.000000 0.000000
# 5 0.000000 0.000000 0.000000 0.000000 0.064735 0.000000
# 6 0.000000 0.000000 0.000000 0.000000 0.000000 0.039100
#
#
# Mechanical properties :
#
#
# Convention : Reuss Voigt Hill
#
# Bulk Modulus (GPa) = 56.51099 56.60484 56.55792
# Shear Modulus (GPa) = 21.23758 23.63672 22.43715
#
# Velocity S-wave (km/s) = 3.35039 3.53457 3.44371
# Velocity P-wave (km/s) = 6.69595 6.82467 6.76062
#
# Compressibility (1/GPa) = 0.01769567
#
# Stress axis : x y z
#
# Youngs Moduli (GPa) = 86.66484 64.15430 79.04452
#
# Poissons Ratio (x) = 0.29673 0.12082
# Poissons Ratio (y) = 0.40085 0.38629
# Poissons Ratio (z) = 0.13247 0.31352
#
# Static dielectric constant tensor:
#      x y z
#    x 3.789590 0.000000 0.000000 
#    y 0.000000 3.409030 0.000000 
#    z 0.000000 0.000000 3.323380 
# 
# 
# High freq. dielectric constant tensor:
#      x y z
#    x 1.739380 0.000000 0.000000 
#    y 0.000000 1.717450 0.000000 
#    z 0.000000 0.000000 1.720050 
# 
# From -- ./inp_files/38677.got.cif
#   From: 2010.03.12/outbox.cif.g09.slc.cpg/sg63_20_cif.got.tgz:38677.got - 2010.04.10 19:34:48.
