data_PCOD8256450
_publ_section_title
;
Structure prediction by ZEFSAII (Michael W. Deem and Ramdas Pophale) SiO2 
 PCOD8256450
Probable space group: C M C M
;
_chemical_formula_sum "Si O2"
_cell_formula_units_Z 80
_cell_length_a 9.165041
_cell_length_b 20.350304
_cell_length_c 23.046414
_cell_angle_alpha 90.000000
_cell_angle_beta 90.000000
_cell_angle_gamma 90.000000
_cell_volume 4298.418261
_symmetry_space_group_name_H-M "C M C M"
_symmetry_group_IT_number 63
_symmetry_cell_setting 'orthorhombic'
loop_
_space_group_symop_operation_xyz
x,y,z
-x,-y,1/2+z
x,-y,-z
-x,y,1/2-z
-x,-y,-z
x,y,1/2-z
-x,y,z
x,-y,1/2+z
1/2+x,1/2+y,z
1/2-x,1/2-y,1/2+z
1/2+x,1/2-y,-z
1/2-x,1/2+y,1/2-z
1/2-x,1/2-y,-z
1/2+x,1/2+y,1/2-z
1/2-x,1/2+y,z
1/2+x,1/2-y,1/2+z
loop_
_atom_site_type_symbol
_atom_site_label
_atom_site_fract_x
_atom_site_fract_y
_atom_site_fract_z
Si Si1 0.164881 0.183171 0.250000
Si Si2 0.173907 0.994803 0.565859
Si Si3 0.825185 0.819908 0.250000
Si Si4 0.831603 0.120009 0.631941
Si Si5 0.668541 0.360787 0.625118
Si Si6 0.831476 0.751313 0.440041
O O1 0.271319 0.245171 0.250000
O O2 0.190299 0.136159 0.305525
O O3 0.000000 0.211001 0.250000
O O4 0.239936 0.054177 0.604866
O O5 0.000000 0.999678 0.564707
O O6 0.234461 0.000000 0.500000
O O7 0.226504 0.927358 0.595451
O O8 0.762768 0.858548 0.306280
O O9 0.000000 0.815685 0.250000
O O10 0.808894 0.176675 0.585258
O O11 0.000000 0.105999 0.643688
O O12 0.500000 0.349000 0.608027
O O13 0.764143 0.300643 0.603648
O O14 0.750000 0.750000 0.500000
O O15 0.000000 0.734437 0.449508
#
# Coordination Sequence:
#
# PCOD8256450 Si02
#       6
#     8  16   8  16  16  16
#     4  10  20  33  51  79 113 141 172 218 272 326
#     4   9  17  31  51  76 108 141 177 224 271 315
#     4  10  18  33  55  79 105 135 182 232 264 310
#     4   9  18  31  52  79 103 136 178 223 268 310
#     4  10  20  34  54  79 108 143 179 219 272 326
#     4  11  21  34  54  79 107 139 182 226 270 320
#
# _framework density 18.611497
#
# number of rings (size 3 to 8) (size 9 to 14) (size 15 to 20)
#    0.000    2.200    2.000    1.800    0.000    4.000 
#    0.000    4.000    0.000    7.800    0.000    1.400 
#    0.000    0.000    0.000    0.000    0.000    0.000 
#
# Total GULP energy -495935.571262 kJ/mol
# GULP energy per Si atom -12398.389282 kJ/mol
# Density = 1.856914 g / cm^3
# Si number density = 18.611497 Si / 1000 Ang^3
#
#
#
# Elastic Constant Matrix: (Units=GPa)
#
#
# Indices 1 2 3 4 5 6 
#
# 1 42.9998 22.8845 23.5859 0.0000 0.0000 0.0000
# 2 22.8845 89.0346 25.1558 0.0000 0.0000 0.0000
# 3 23.5859 25.1558 126.5101 0.0000 0.0000 0.0000
# 4 0.0000 0.0000 0.0000 34.1884 0.0000 0.0000
# 5 0.0000 0.0000 0.0000 0.0000 22.1902 0.0000
# 6 0.0000 0.0000 0.0000 0.0000 0.0000 17.4359
#
#
#
# Elastic Compliance Matrix: (Units=1/GPa)
#
#
# Indices 1 2 3 4 5 6 
#
# 1 0.028849 -0.006246 -0.004136 0.000000 0.000000 0.000000
# 2 -0.006246 0.013253 -0.001471 0.000000 0.000000 0.000000
# 3 -0.004136 -0.001471 0.008968 0.000000 0.000000 0.000000
# 4 0.000000 0.000000 0.000000 0.029250 0.000000 0.000000
# 5 0.000000 0.000000 0.000000 0.000000 0.045065 0.000000
# 6 0.000000 0.000000 0.000000 0.000000 0.000000 0.057353
#
#
# Mechanical properties :
#
#
# Convention : Reuss Voigt Hill
#
# Bulk Modulus (GPa) = 36.54580 44.64411 40.59495
# Shear Modulus (GPa) = 23.19483 27.22412 25.20947
#
# Velocity S-wave (km/s) = 3.53408 3.82875 3.68436
# Velocity P-wave (km/s) = 6.02758 6.60191 6.32127
#
# Compressibility (1/GPa) = 0.02736293
#
# Stress axis : x y z
#
# Youngs Moduli (GPa) = 34.66311 75.45690 111.50609
#
# Poissons Ratio (x) = 0.47133 0.46124
# Poissons Ratio (y) = 0.21652 0.16399
# Poissons Ratio (z) = 0.14338 0.11097
#
# Static dielectric constant tensor:
#      x y z
#    x 3.083050 0.000000 0.000000 
#    y 0.000000 3.651310 0.000000 
#    z 0.000000 0.000000 3.788490 
# 
# 
# High freq. dielectric constant tensor:
#      x y z
#    x 1.674940 0.000000 0.000000 
#    y 0.000000 1.724330 0.000000 
#    z 0.000000 0.000000 1.745230 
# 
# From -- ./inp_files/59499.got.cif
#   From: 2010.03.12/outbox.cif.g09.slc.cpg/sg63_30_cif.got.tgz:59499.got - 2010.04.10 19:34:48.
