data_PCOD8256794
_publ_section_title
;
Structure prediction by ZEFSAII (Michael W. Deem and Ramdas Pophale) SiO2 
 PCOD8256794
Probable space group: C M C M
;
_chemical_formula_sum "Si O2"
_cell_formula_units_Z 80
_cell_length_a 13.354241
_cell_length_b 12.995909
_cell_length_c 27.386661
_cell_angle_alpha 90.000000
_cell_angle_beta 90.000000
_cell_angle_gamma 90.000000
_cell_volume 4752.968732
_symmetry_space_group_name_H-M "C M C M"
_symmetry_group_IT_number 63
_symmetry_cell_setting 'orthorhombic'
loop_
_space_group_symop_operation_xyz
x,y,z
-x,-y,1/2+z
x,-y,-z
-x,y,1/2-z
-x,-y,-z
x,y,1/2-z
-x,y,z
x,-y,1/2+z
1/2+x,1/2+y,z
1/2-x,1/2-y,1/2+z
1/2+x,1/2-y,-z
1/2-x,1/2+y,1/2-z
1/2-x,1/2-y,-z
1/2+x,1/2+y,1/2-z
1/2-x,1/2+y,z
1/2+x,1/2-y,1/2+z
loop_
_atom_site_type_symbol
_atom_site_label
_atom_site_fract_x
_atom_site_fract_y
_atom_site_fract_z
Si Si1 0.885696 0.786506 0.193422
Si Si2 0.384315 0.533575 0.448542
Si Si3 0.736372 0.276647 0.556257
Si Si4 0.115861 0.396961 0.878347
Si Si5 0.744744 0.588195 0.876923
O O1 0.861267 0.772754 0.250000
O O2 0.871816 0.675151 0.168793
O O3 0.804684 0.867176 0.172374
O O4 0.000000 0.825722 0.185089
O O5 0.333802 0.500000 0.500000
O O6 0.500000 0.513565 0.451282
O O7 0.360989 0.652250 0.437987
O O8 0.345938 0.463298 0.405289
O O9 0.750000 0.250000 0.500000
O O10 0.833685 0.340024 0.575220
O O11 0.711476 0.178166 0.589062
O O12 0.167908 0.506113 0.865815
O O13 0.000000 0.417035 0.891268
#
# Coordination Sequence:
#
# PCOD8256794 Si02
#       5
#    16  16  16  16  16
#     4   9  18  34  55  77  98 125 164 208 255 302
#     4  10  19  30  47  70  96 130 167 202 246 293
#     4  10  19  32  47  68 100 132 170 208 244 294
#     4   9  20  34  50  73 102 135 169 210 252 303
#     4  10  19  33  52  72 101 131 165 209 245 301
#
# _framework density 16.831583999999999
#
# number of rings (size 3 to 8) (size 9 to 14) (size 15 to 20)
#    0.000    2.400    2.000    0.600    0.000    3.200 
#    0.000    1.000    0.000    0.000    0.000    0.000 
#    0.000    0.000    0.000    0.000    0.000    0.000 
#
# Total GULP energy -495903.672061 kJ/mol
# GULP energy per Si atom -12397.591802 kJ/mol
# Density = 1.679327 g / cm^3
# Si number density = 16.831584 Si / 1000 Ang^3
#
#
#
# Elastic Constant Matrix: (Units=GPa)
#
#
# Indices 1 2 3 4 5 6 
#
# 1 78.9333 43.8180 36.0112 0.0000 0.0000 0.0000
# 2 43.8180 113.4921 43.4653 0.0000 0.0000 0.0000
# 3 36.0112 43.4653 112.5573 0.0000 0.0000 0.0000
# 4 0.0000 0.0000 0.0000 20.1330 0.0000 0.0000
# 5 0.0000 0.0000 0.0000 0.0000 16.0418 0.0000
# 6 0.0000 0.0000 0.0000 0.0000 0.0000 8.2218
#
#
#
# Elastic Compliance Matrix: (Units=1/GPa)
#
#
# Indices 1 2 3 4 5 6 
#
# 1 0.017194 -0.005318 -0.003447 0.000000 0.000000 0.000000
# 2 -0.005318 0.011985 -0.002927 0.000000 0.000000 0.000000
# 3 -0.003447 -0.002927 0.011118 0.000000 0.000000 0.000000
# 4 0.000000 0.000000 0.000000 0.049670 0.000000 0.000000
# 5 0.000000 0.000000 0.000000 0.000000 0.062337 0.000000
# 6 0.000000 0.000000 0.000000 0.000000 0.000000 0.121628
#
#
# Mechanical properties :
#
#
# Convention : Reuss Voigt Hill
#
# Bulk Modulus (GPa) = 59.12865 61.28576 60.20720
# Shear Modulus (GPa) = 16.50419 20.99187 18.74803
#
# Velocity S-wave (km/s) = 3.13477 3.53536 3.34108
# Velocity P-wave (km/s) = 6.95041 7.29077 7.12262
#
# Compressibility (1/GPa) = 0.01691227
#
# Stress axis : x y z
#
# Youngs Moduli (GPa) = 58.16022 83.43512 89.94816
#
# Poissons Ratio (x) = 0.44372 0.31008
# Poissons Ratio (y) = 0.30930 0.26326
# Poissons Ratio (z) = 0.20050 0.24420
#
# Static dielectric constant tensor:
#      x y z
#    x 3.065640 0.000000 0.000000 
#    y 0.000000 3.112110 0.000000 
#    z 0.000000 0.000000 3.086690 
# 
# 
# High freq. dielectric constant tensor:
#      x y z
#    x 1.639080 0.000000 0.000000 
#    y 0.000000 1.657510 0.000000 
#    z 0.000000 0.000000 1.645120 
# 
# From -- ./inp_files/62542.got.cif
#   From: 2010.03.12/outbox.cif.g09.slc.cpg/sg63_32_cif.got.tgz:62542.got - 2010.04.10 19:34:48.
