data_PCOD8256695
_publ_section_title
;
Structure prediction by ZEFSAII (Michael W. Deem and Ramdas Pophale) SiO2 
 PCOD8256695
Probable space group: C M C M
;
_chemical_formula_sum "Si O2"
_cell_formula_units_Z 120
_cell_length_a 21.954488
_cell_length_b 17.909893
_cell_length_c 16.767736
_cell_angle_alpha 90.000000
_cell_angle_beta 90.000000
_cell_angle_gamma 90.000000
_cell_volume 6593.116233
_symmetry_space_group_name_H-M "C M C M"
_symmetry_group_IT_number 63
_symmetry_cell_setting 'orthorhombic'
loop_
_space_group_symop_operation_xyz
x,y,z
-x,-y,1/2+z
x,-y,-z
-x,y,1/2-z
-x,-y,-z
x,y,1/2-z
-x,y,z
x,-y,1/2+z
1/2+x,1/2+y,z
1/2-x,1/2-y,1/2+z
1/2+x,1/2-y,-z
1/2-x,1/2+y,1/2-z
1/2-x,1/2-y,-z
1/2+x,1/2+y,1/2-z
1/2-x,1/2+y,z
1/2+x,1/2-y,1/2+z
loop_
_atom_site_type_symbol
_atom_site_label
_atom_site_fract_x
_atom_site_fract_y
_atom_site_fract_z
Si Si1 0.697365 0.408838 0.661170
Si Si2 0.662810 0.572098 0.843158
Si Si3 0.306260 0.000000 0.000000
Si Si4 0.258427 0.146422 0.938112
Si Si5 0.570515 0.675139 0.928180
Si Si6 0.065882 0.323419 0.843031
Si Si7 0.336486 0.059018 0.158741
Si Si8 0.336640 0.280375 0.547068
O O1 0.672249 0.402737 0.750000
O O2 0.673541 0.487579 0.626170
O O3 0.770197 0.405013 0.660761
O O4 0.668831 0.338272 0.618183
O O5 0.646424 0.577227 0.750000
O O6 0.727524 0.615111 0.856952
O O7 0.608047 0.603210 0.897808
O O8 0.268282 0.922667 0.000094
O O9 0.341653 0.997517 0.086481
O O10 0.319918 0.195695 0.923183
O O11 0.208441 0.200913 0.974985
O O12 0.500000 0.652478 0.939407
O O13 0.580573 0.737857 0.861341
O O14 0.595231 0.710645 0.011444
O O15 0.062712 0.332827 0.750000
O O16 0.118053 0.377844 0.874339
O O17 0.000000 0.345356 0.880936
O O18 0.352095 0.029307 0.250000
#
# Coordination Sequence:
#
# PCOD8256695 Si02
#       8
#    16  16   8  16  16  16  16  16
#     4  10  20  35  52  74 108 142 177 229 284 332
#     4  10  20  33  51  77 109 139 176 228 279 332
#     4  12  18  32  53  76 111 148 172 224 278 332
#     4  10  19  29  50  77 105 137 172 216 276 335
#     4  10  21  35  54  78 107 143 183 227 277 334
#     4   9  18  34  54  78 110 144 180 225 274 332
#     4  10  20  32  52  79 107 147 185 219 282 345
#     4  10  20  34  49  75 105 135 179 223 268 332
#
# _framework density 18.200800999999998
#
# number of rings (size 3 to 8) (size 9 to 14) (size 15 to 20)
#    0.000    2.000    2.667    1.200    3.733    2.933 
#    0.000    1.667    0.000    2.000    0.000    0.000 
#    0.000    1.067    0.000    0.000    0.000    0.000 
#
# Total GULP energy -743321.082298 kJ/mol
# GULP energy per Si atom -12388.684705 kJ/mol
# Density = 1.815938 g / cm^3
# Si number density = 18.200801 Si / 1000 Ang^3
#
#
#
# Elastic Constant Matrix: (Units=GPa)
#
#
# Indices 1 2 3 4 5 6 
#
# 1 96.4545 48.7930 26.5827 0.0000 0.0000 0.0000
# 2 48.7930 88.6901 24.6877 0.0000 0.0000 0.0000
# 3 26.5827 24.6877 64.2656 0.0000 0.0000 0.0000
# 4 0.0000 0.0000 0.0000 29.5113 0.0000 0.0000
# 5 0.0000 0.0000 0.0000 0.0000 20.7375 0.0000
# 6 0.0000 0.0000 0.0000 0.0000 0.0000 23.6103
#
#
#
# Elastic Compliance Matrix: (Units=1/GPa)
#
#
# Indices 1 2 3 4 5 6 
#
# 1 0.015000 -0.007307 -0.003398 0.000000 0.000000 0.000000
# 2 -0.007307 0.016184 -0.003195 0.000000 0.000000 0.000000
# 3 -0.003398 -0.003195 0.018193 0.000000 0.000000 0.000000
# 4 0.000000 0.000000 0.000000 0.033885 0.000000 0.000000
# 5 0.000000 0.000000 0.000000 0.000000 0.048222 0.000000
# 6 0.000000 0.000000 0.000000 0.000000 0.000000 0.042354
#
#
# Mechanical properties :
#
#
# Convention : Reuss Voigt Hill
#
# Bulk Modulus (GPa) = 46.34126 49.94855 48.14491
# Shear Modulus (GPa) = 23.94284 24.72828 24.33556
#
# Velocity S-wave (km/s) = 3.63089 3.68997 3.66055
# Velocity P-wave (km/s) = 6.56462 6.75700 6.66151
#
# Compressibility (1/GPa) = 0.02157904
#
# Stress axis : x y z
#
# Youngs Moduli (GPa) = 66.66610 61.78844 54.96552
#
# Poissons Ratio (x) = 0.45146 0.18676
# Poissons Ratio (y) = 0.48710 0.17561
# Poissons Ratio (z) = 0.22652 0.19741
#
# Static dielectric constant tensor:
#      x y z
#    x 3.562280 0.000000 0.000000 
#    y 0.000000 3.441050 0.000000 
#    z 0.000000 0.000000 3.469080 
# 
# 
# High freq. dielectric constant tensor:
#      x y z
#    x 1.676400 0.000000 0.000000 
#    y 0.000000 1.700000 0.000000 
#    z 0.000000 0.000000 1.702130 
# 
# From -- ./inp_files/47400.got.cif
#   From: 2010.03.12/outbox.cif.g09.slc.cpg/sg63_24_cif.got.tgz:47400.got - 2010.04.10 19:34:48.
