data_PCOD8256977
_publ_section_title
;
Structure prediction by ZEFSAII (Michael W. Deem and Ramdas Pophale) SiO2 
 PCOD8256977
Probable space group: C M C M
;
_chemical_formula_sum "Si O2"
_cell_formula_units_Z 128
_cell_length_a 17.474604
_cell_length_b 18.838936
_cell_length_c 22.244909
_cell_angle_alpha 90.000000
_cell_angle_beta 90.000000
_cell_angle_gamma 90.000000
_cell_volume 7323.089585
_symmetry_space_group_name_H-M "C M C M"
_symmetry_group_IT_number 63
_symmetry_cell_setting 'orthorhombic'
loop_
_space_group_symop_operation_xyz
x,y,z
-x,-y,1/2+z
x,-y,-z
-x,y,1/2-z
-x,-y,-z
x,y,1/2-z
-x,y,z
x,-y,1/2+z
1/2+x,1/2+y,z
1/2-x,1/2-y,1/2+z
1/2+x,1/2-y,-z
1/2-x,1/2+y,1/2-z
1/2-x,1/2-y,-z
1/2+x,1/2+y,1/2-z
1/2-x,1/2+y,z
1/2+x,1/2-y,1/2+z
loop_
_atom_site_type_symbol
_atom_site_label
_atom_site_fract_x
_atom_site_fract_y
_atom_site_fract_z
Si Si1 0.415677 0.318039 0.532984
Si Si2 0.682092 0.141039 0.682756
Si Si3 0.591488 0.315186 0.394255
Si Si4 0.583011 0.162161 0.575324
Si Si5 0.210469 0.273704 0.680565
Si Si6 0.803321 0.943834 0.116990
Si Si7 0.789589 0.104086 0.107896
Si Si8 0.300233 0.924388 0.005288
O O1 0.500000 0.353385 0.530520
O O2 0.387766 0.305067 0.464563
O O3 0.419275 0.245752 0.569437
O O4 0.362237 0.366999 0.572487
O O5 0.654050 0.128489 0.750000
O O6 0.606618 0.140164 0.642331
O O7 0.724546 0.215144 0.673682
O O8 0.738407 0.077948 0.664186
O O9 0.500000 0.309497 0.381850
O O10 0.636225 0.252556 0.357869
O O11 0.621605 0.393797 0.374143
O O12 0.500000 0.128644 0.562715
O O13 0.642641 0.134949 0.527079
O O14 0.184829 0.283184 0.750000
O O15 0.252267 0.346224 0.659142
O O16 0.773612 0.932768 0.048724
O O17 0.817937 0.026870 0.131725
O O18 0.721474 0.098439 0.060952
O O19 0.342994 0.000000 0.000000
#
# Coordination Sequence:
#
# PCOD8256977 Si02
#       8
#    16  16  16  16  16  16  16  16
#     4  10  20  31  50  82 113 140 172 214 270 329
#     4   9  18  34  52  71  96 131 180 227 262 312
#     4  10  20  35  55  81 113 147 180 220 272 328
#     4  10  19  31  48  74 104 133 171 219 269 318
#     4  10  21  35  54  77 100 140 190 228 265 313
#     4   9  19  32  51  80 107 137 177 218 265 323
#     4  11  19  33  55  76 110 146 173 220 271 318
#     4   9  18  31  49  75 103 138 172 209 264 319
#
# _framework density 17.478961000000002
#
# number of rings (size 3 to 8) (size 9 to 14) (size 15 to 20)
#    0.000    2.250    2.500    0.750    0.000    2.750 
#    0.000    1.250    0.000    3.375    0.000    7.000 
#    0.000    0.000    0.000    0.000    0.000    0.000 
#
# Total GULP energy -793136.741802 kJ/mol
# GULP energy per Si atom -12392.761591 kJ/mol
# Density = 1.743918 g / cm^3
# Si number density = 17.478961 Si / 1000 Ang^3
#
#
#
# Elastic Constant Matrix: (Units=GPa)
#
#
# Indices 1 2 3 4 5 6 
#
# 1 74.4721 37.7823 30.0331 0.0000 0.0000 0.0000
# 2 37.7823 88.2636 31.4396 0.0000 0.0000 0.0000
# 3 30.0331 31.4396 76.3649 0.0000 0.0000 0.0000
# 4 0.0000 0.0000 0.0000 18.3085 0.0000 0.0000
# 5 0.0000 0.0000 0.0000 0.0000 1.4271 0.0000
# 6 0.0000 0.0000 0.0000 0.0000 0.0000 8.0681
#
#
#
# Elastic Compliance Matrix: (Units=1/GPa)
#
#
# Indices 1 2 3 4 5 6 
#
# 1 0.018490 -0.006240 -0.004703 0.000000 0.000000 0.000000
# 2 -0.006240 0.015382 -0.003879 0.000000 0.000000 0.000000
# 3 -0.004703 -0.003879 0.016542 0.000000 0.000000 0.000000
# 4 0.000000 0.000000 0.000000 0.054619 0.000000 0.000000
# 5 0.000000 0.000000 0.000000 0.000000 0.700722 0.000000
# 6 0.000000 0.000000 0.000000 0.000000 0.000000 0.123945
#
#
# Mechanical properties :
#
#
# Convention : Reuss Voigt Hill
#
# Bulk Modulus (GPa) = 48.14455 48.62339 48.38397
# Shear Modulus (GPa) = 5.17455 14.88377 10.02916
#
# Velocity S-wave (km/s) = 1.72246 2.92126 2.39798
# Velocity P-wave (km/s) = 5.61782 6.26554 5.95050
#
# Compressibility (1/GPa) = 0.02077078
#
# Stress axis : x y z
#
# Youngs Moduli (GPa) = 54.08308 65.00949 60.45363
#
# Poissons Ratio (x) = 0.40564 0.28431
# Poissons Ratio (y) = 0.33746 0.23450
# Poissons Ratio (z) = 0.25435 0.25217
#
# Static dielectric constant tensor:
#      x y z
#    x 3.233580 0.000000 0.000000 
#    y 0.000000 3.326290 0.000000 
#    z 0.000000 0.000000 3.296520 
# 
# 
# High freq. dielectric constant tensor:
#      x y z
#    x 1.663510 0.000000 0.000000 
#    y 0.000000 1.673980 0.000000 
#    z 0.000000 0.000000 1.669680 
# 
# From -- ./inp_files/64089.got.cif
#   From: 2010.03.12/outbox.cif.g09.slc.cpg/sg63_33_cif.got.tgz:64089.got - 2010.04.10 19:34:48.
