data_PCOD8256333
_publ_section_title
;
Structure prediction by ZEFSAII (Michael W. Deem and Ramdas Pophale) SiO2 
 PCOD8256333
Probable space group: C M C M
;
_chemical_formula_sum "Si O2"
_cell_formula_units_Z 72
_cell_length_a 15.059712
_cell_length_b 28.985396
_cell_length_c 8.523995
_cell_angle_alpha 90.000000
_cell_angle_beta 90.000000
_cell_angle_gamma 90.000000
_cell_volume 3720.823684
_symmetry_space_group_name_H-M "C M C M"
_symmetry_group_IT_number 63
_symmetry_cell_setting 'orthorhombic'
loop_
_space_group_symop_operation_xyz
x,y,z
-x,-y,1/2+z
x,-y,-z
-x,y,1/2-z
-x,-y,-z
x,y,1/2-z
-x,y,z
x,-y,1/2+z
1/2+x,1/2+y,z
1/2-x,1/2-y,1/2+z
1/2+x,1/2-y,-z
1/2-x,1/2+y,1/2-z
1/2-x,1/2-y,-z
1/2+x,1/2+y,1/2-z
1/2-x,1/2+y,z
1/2+x,1/2-y,1/2+z
loop_
_atom_site_type_symbol
_atom_site_label
_atom_site_fract_x
_atom_site_fract_y
_atom_site_fract_z
Si Si1 0.102384 0.301334 0.431486
Si Si2 0.747935 0.638759 0.067114
Si Si3 0.399187 0.296437 0.067507
Si Si4 0.500000 0.448662 0.936616
Si Si5 0.816904 0.051070 0.564662
O O1 0.123453 0.310288 0.250000
O O2 0.159291 0.336148 0.535723
O O3 0.128292 0.248911 0.470893
O O4 0.000000 0.310558 0.472901
O O5 0.727086 0.638072 0.250000
O O6 0.667219 0.663132 0.977372
O O7 0.756822 0.586483 0.000708
O O8 0.389881 0.284650 0.250000
O O9 0.500000 0.311569 0.025782
O O10 0.500000 0.446725 0.750000
O O11 0.500000 0.500000 0.000000
O O12 0.589803 0.426540 0.004764
O O13 0.815548 0.048597 0.750000
O O14 0.798531 0.000000 0.500000
#
# Coordination Sequence:
#
# PCOD8256333 Si02
#       5
#    16  16  16   8  16
#     4  10  21  39  61  84 112 147 189 236 287 340
#     4  12  24  37  57  84 115 151 192 235 282 338
#     4  10  21  37  57  83 117 153 190 232 281 336
#     4  10  18  32  52  76 106 144 184 222 270 326
#     4  11  22  38  57  80 112 148 189 233 281 333
#
# _framework density 19.350556000000001
#
# number of rings (size 3 to 8) (size 9 to 14) (size 15 to 20)
#    0.000    1.333    0.000    8.333    1.556    2.667 
#    0.000    0.000    0.000    0.667    0.000    0.000 
#    0.000    0.000    0.000    0.000    0.000    0.000 
#
# Total GULP energy -446497.843012 kJ/mol
# GULP energy per Si atom -12402.717861 kJ/mol
# Density = 1.930651 g / cm^3
# Si number density = 19.350556 Si / 1000 Ang^3
#
#
#
# Elastic Constant Matrix: (Units=GPa)
#
#
# Indices 1 2 3 4 5 6 
#
# 1 71.8651 49.7349 27.4120 0.0000 0.0000 0.0000
# 2 49.7349 102.2464 21.8757 0.0000 0.0000 0.0000
# 3 27.4120 21.8757 105.2574 0.0000 0.0000 0.0000
# 4 0.0000 0.0000 0.0000 34.4171 0.0000 0.0000
# 5 0.0000 0.0000 0.0000 0.0000 28.9219 0.0000
# 6 0.0000 0.0000 0.0000 0.0000 0.0000 22.7448
#
#
#
# Elastic Compliance Matrix: (Units=1/GPa)
#
#
# Indices 1 2 3 4 5 6 
#
# 1 0.022283 -0.010044 -0.003716 0.000000 0.000000 0.000000
# 2 -0.010044 0.014763 -0.000452 0.000000 0.000000 0.000000
# 3 -0.003716 -0.000452 0.010562 0.000000 0.000000 0.000000
# 4 0.000000 0.000000 0.000000 0.029055 0.000000 0.000000
# 5 0.000000 0.000000 0.000000 0.000000 0.034576 0.000000
# 6 0.000000 0.000000 0.000000 0.000000 0.000000 0.043966
#
#
# Mechanical properties :
#
#
# Convention : Reuss Voigt Hill
#
# Bulk Modulus (GPa) = 52.12713 53.04600 52.58657
# Shear Modulus (GPa) = 26.31236 29.23986 27.77611
#
# Velocity S-wave (km/s) = 3.69151 3.89145 3.79280
# Velocity P-wave (km/s) = 6.72060 6.90390 6.81287
#
# Compressibility (1/GPa) = 0.01918387
#
# Stress axis : x y z
#
# Youngs Moduli (GPa) = 44.87646 67.73801 94.67706
#
# Poissons Ratio (x) = 0.68037 0.35180
# Poissons Ratio (y) = 0.45075 0.04283
# Poissons Ratio (z) = 0.16675 0.03064
#
# Static dielectric constant tensor:
#      x y z
#    x 3.281430 0.000000 0.000000 
#    y 0.000000 3.623420 0.000000 
#    z 0.000000 0.000000 3.623070 
# 
# 
# High freq. dielectric constant tensor:
#      x y z
#    x 1.735300 0.000000 0.000000 
#    y 0.000000 1.749720 0.000000 
#    z 0.000000 0.000000 1.773070 
# 
# From -- ./inp_files/4586.got.cif
#   From: 2010.03.12/outbox.cif.g09.slc.cpg/sg63_3_cif.got.tgz:4586.got - 2010.04.10 19:34:48.
