data_PCOD8256317
_publ_section_title
;
Structure prediction by ZEFSAII (Michael W. Deem and Ramdas Pophale) SiO2 
 PCOD8256317
Probable space group: C M C M
;
_chemical_formula_sum "Si O2"
_cell_formula_units_Z 88
_cell_length_a 19.628999
_cell_length_b 30.580064
_cell_length_c 8.528854
_cell_angle_alpha 90.000000
_cell_angle_beta 90.000000
_cell_angle_gamma 90.000000
_cell_volume 5119.496176
_symmetry_space_group_name_H-M "C M C M"
_symmetry_group_IT_number 63
_symmetry_cell_setting 'orthorhombic'
loop_
_space_group_symop_operation_xyz
x,y,z
-x,-y,1/2+z
x,-y,-z
-x,y,1/2-z
-x,-y,-z
x,y,1/2-z
-x,y,z
x,-y,1/2+z
1/2+x,1/2+y,z
1/2-x,1/2-y,1/2+z
1/2+x,1/2-y,-z
1/2-x,1/2+y,1/2-z
1/2-x,1/2-y,-z
1/2+x,1/2+y,1/2-z
1/2-x,1/2+y,z
1/2+x,1/2-y,1/2+z
loop_
_atom_site_type_symbol
_atom_site_label
_atom_site_fract_x
_atom_site_fract_y
_atom_site_fract_z
Si Si1 0.710307 0.707580 0.563390
Si Si2 0.924621 0.764526 0.930841
Si Si3 0.576164 0.170892 0.070501
Si Si4 0.000000 0.451204 0.063893
Si Si5 0.140929 0.452375 0.932716
Si Si6 0.300245 0.872711 0.070381
O O1 0.709057 0.710333 0.750000
O O2 0.750000 0.750000 0.500000
O O3 0.634341 0.703409 0.492681
O O4 0.746684 0.662967 0.505751
O O5 0.911059 0.751735 0.750000
O O6 0.000000 0.786281 0.948371
O O7 0.920808 0.722311 0.039859
O O8 0.599086 0.162004 0.250000
O O9 0.500000 0.153028 0.040641
O O10 0.624862 0.147338 0.948543
O O11 0.000000 0.449597 0.250000
O O12 0.000000 0.500000 0.000000
O O13 0.070531 0.430728 0.999089
O O14 0.133242 0.457639 0.750000
O O15 0.157790 0.500000 0.000000
O O16 0.202068 0.418738 0.976026
O O17 0.285633 0.883552 0.250000
#
# Coordination Sequence:
#
# PCOD8256317 Si02
#       6
#    16  16  16   8  16  16
#     4  11  22  35  53  75 104 136 171 212 256 305
#     4  10  20  34  52  73 100 135 173 212 255 301
#     4  10  20  32  47  69  97 131 174 216 256 302
#     4  10  18  32  52  72  96 128 166 212 260 304
#     4  11  22  37  54  72  97 128 167 213 258 307
#     4  11  23  36  51  73  99 133 171 212 260 307
#
# _framework density 17.189191000000001
#
# number of rings (size 3 to 8) (size 9 to 14) (size 15 to 20)
#    0.000    1.455    1.818    5.727    1.273    4.364 
#    0.000    0.000    0.000    0.000    0.000    0.000 
#    0.000    0.727    0.000    2.364    0.000    3.455 
#
# Total GULP energy -545463.994162 kJ/mol
# GULP energy per Si atom -12396.908958 kJ/mol
# Density = 1.715007 g / cm^3
# Si number density = 17.189191 Si / 1000 Ang^3
#
#
#
# Elastic Constant Matrix: (Units=GPa)
#
#
# Indices 1 2 3 4 5 6 
#
# 1 92.6360 49.2346 26.7889 0.0000 0.0000 0.0000
# 2 49.2346 87.8526 23.0738 0.0000 0.0000 0.0000
# 3 26.7889 23.0738 86.9385 0.0000 0.0000 0.0000
# 4 0.0000 0.0000 0.0000 25.6015 0.0000 0.0000
# 5 0.0000 0.0000 0.0000 0.0000 25.2907 0.0000
# 6 0.0000 0.0000 0.0000 0.0000 0.0000 28.8222
#
#
#
# Elastic Compliance Matrix: (Units=1/GPa)
#
#
# Indices 1 2 3 4 5 6 
#
# 1 0.015957 -0.008224 -0.002734 0.000000 0.000000 0.000000
# 2 -0.008224 0.016475 -0.001838 0.000000 0.000000 0.000000
# 3 -0.002734 -0.001838 0.012833 0.000000 0.000000 0.000000
# 4 0.000000 0.000000 0.000000 0.039060 0.000000 0.000000
# 5 0.000000 0.000000 0.000000 0.000000 0.039540 0.000000
# 6 0.000000 0.000000 0.000000 0.000000 0.000000 0.034695
#
#
# Mechanical properties :
#
#
# Convention : Reuss Voigt Hill
#
# Bulk Modulus (GPa) = 50.83694 51.73574 51.28634
# Shear Modulus (GPa) = 26.21777 27.16486 26.69132
#
# Velocity S-wave (km/s) = 3.90968 3.97967 3.94483
# Velocity P-wave (km/s) = 7.07248 7.16102 7.11689
#
# Compressibility (1/GPa) = 0.01967074
#
# Stress axis : x y z
#
# Youngs Moduli (GPa) = 62.66939 60.69933 77.92593
#
# Poissons Ratio (x) = 0.49922 0.21305
# Poissons Ratio (y) = 0.51542 0.14324
# Poissons Ratio (z) = 0.17134 0.11158
#
# Static dielectric constant tensor:
#      x y z
#    x 3.404240 0.000000 0.000000 
#    y 0.000000 3.196310 0.000000 
#    z 0.000000 0.000000 3.435640 
# 
# 
# High freq. dielectric constant tensor:
#      x y z
#    x 1.636310 0.000000 0.000000 
#    y 0.000000 1.643670 0.000000 
#    z 0.000000 0.000000 1.681000 
# 
# From -- ./inp_files/6849.got.cif
#   From: 2010.03.12/outbox.cif.g09.slc.cpg/sg63_4_cif.got.tgz:6849.got - 2010.04.10 19:34:48.
