data_PCOD8256210
_publ_section_title
;
Structure prediction by ZEFSAII (Michael W. Deem and Ramdas Pophale) SiO2 
 PCOD8256210
Probable space group: C M C M
;
_chemical_formula_sum "Si O2"
_cell_formula_units_Z 80
_cell_length_a 25.196877
_cell_length_b 20.750776
_cell_length_c 8.677201
_cell_angle_alpha 90.000000
_cell_angle_beta 90.000000
_cell_angle_gamma 90.000000
_cell_volume 4536.915764
_symmetry_space_group_name_H-M "C M C M"
_symmetry_group_IT_number 63
_symmetry_cell_setting 'orthorhombic'
loop_
_space_group_symop_operation_xyz
x,y,z
-x,-y,1/2+z
x,-y,-z
-x,y,1/2-z
-x,-y,-z
x,y,1/2-z
-x,y,z
x,-y,1/2+z
1/2+x,1/2+y,z
1/2-x,1/2-y,1/2+z
1/2+x,1/2-y,-z
1/2-x,1/2+y,1/2-z
1/2-x,1/2-y,-z
1/2+x,1/2+y,1/2-z
1/2-x,1/2+y,z
1/2+x,1/2-y,1/2+z
loop_
_atom_site_type_symbol
_atom_site_label
_atom_site_fract_x
_atom_site_fract_y
_atom_site_fract_z
Si Si1 0.614806 0.383605 0.932436
Si Si2 0.885453 0.254651 0.926073
Si Si3 0.500000 0.383630 0.927991
Si Si4 0.219820 0.066572 0.568656
Si Si5 0.000000 0.750791 0.424641
Si Si6 0.222493 0.312366 0.930125
O O1 0.620668 0.392826 0.750000
O O2 0.556613 0.409387 0.994049
O O3 0.622319 0.308076 0.968569
O O4 0.658962 0.425119 0.017461
O O5 0.878264 0.231136 0.750000
O O6 0.944246 0.287489 0.950404
O O7 0.840677 0.307544 0.964115
O O8 0.500000 0.398992 0.750000
O O9 0.500000 0.307419 0.952287
O O10 0.222870 0.063773 0.750000
O O11 0.256776 0.123808 0.510370
O O12 0.242073 0.000000 0.500000
O O13 0.000000 0.778969 0.250000
O O14 0.235681 0.316164 0.750000
O O15 0.250000 0.250000 0.000000
#
# Coordination Sequence:
#
# PCOD8256210 Si02
#       6
#    16  16   8  16   8  16
#     4  10  18  31  51  74 103 136 174 216 261 309
#     4   9  17  29  49  76 106 137 172 210 255 305
#     4   8  16  28  45  71 100 133 170 213 258 303
#     4  12  25  40  55  74 102 138 179 222 271 319
#     4   8  14  26  44  71 104 135 166 207 252 301
#     4  11  21  34  54  81 109 140 177 217 260 311
#
# _framework density 17.633123999999999
#
# number of rings (size 3 to 8) (size 9 to 14) (size 15 to 20)
#    0.000    2.000    2.000    3.000    0.000    1.600 
#    0.000    0.500    0.000    0.000    0.000    0.700 
#    0.000    0.000    0.000    0.000    0.000    0.000 
#
# Total GULP energy -495562.482637 kJ/mol
# GULP energy per Si atom -12389.062066 kJ/mol
# Density = 1.759299 g / cm^3
# Si number density = 17.633124 Si / 1000 Ang^3
#
#
#
# Elastic Constant Matrix: (Units=GPa)
#
#
# Indices 1 2 3 4 5 6 
#
# 1 131.6777 55.4389 39.7050 0.0000 0.0000 0.0000
# 2 55.4389 96.3352 42.2476 0.0000 0.0000 0.0000
# 3 39.7050 42.2476 96.2010 0.0000 0.0000 0.0000
# 4 0.0000 0.0000 0.0000 24.3781 0.0000 0.0000
# 5 0.0000 0.0000 0.0000 0.0000 22.0845 0.0000
# 6 0.0000 0.0000 0.0000 0.0000 0.0000 13.9073
#
#
#
# Elastic Compliance Matrix: (Units=1/GPa)
#
#
# Indices 1 2 3 4 5 6 
#
# 1 0.010339 -0.005051 -0.002049 0.000000 0.000000 0.000000
# 2 -0.005051 0.015324 -0.004645 0.000000 0.000000 0.000000
# 3 -0.002049 -0.004645 0.013280 0.000000 0.000000 0.000000
# 4 0.000000 0.000000 0.000000 0.041020 0.000000 0.000000
# 5 0.000000 0.000000 0.000000 0.000000 0.045281 0.000000
# 6 0.000000 0.000000 0.000000 0.000000 0.000000 0.071905
#
#
# Mechanical properties :
#
#
# Convention : Reuss Voigt Hill
#
# Bulk Modulus (GPa) = 64.71086 66.55522 65.63304
# Shear Modulus (GPa) = 22.14437 24.52878 23.33658
#
# Velocity S-wave (km/s) = 3.54763 3.73374 3.64187
# Velocity P-wave (km/s) = 7.31840 7.51093 7.41529
#
# Compressibility (1/GPa) = 0.01545336
#
# Stress axis : x y z
#
# Youngs Moduli (GPa) = 96.72343 65.25543 75.29877
#
# Poissons Ratio (x) = 0.32962 0.15427
# Poissons Ratio (y) = 0.48857 0.34977
# Poissons Ratio (z) = 0.19817 0.30312
#
# Static dielectric constant tensor:
#      x y z
#    x 3.979340 0.000000 0.000000 
#    y 0.000000 2.889390 0.000000 
#    z 0.000000 0.000000 3.344920 
# 
# 
# High freq. dielectric constant tensor:
#      x y z
#    x 1.703790 0.000000 0.000000 
#    y 0.000000 1.624090 0.000000 
#    z 0.000000 0.000000 1.690930 
# 
# From -- ./inp_files/12106.got.cif
#   From: 2010.03.12/outbox.cif.g09.slc.cpg/sg63_7_cif.got.tgz:12106.got - 2010.04.10 19:34:48.
