data_PCOD8256139
_publ_section_title
;
Structure prediction by ZEFSAII (Michael W. Deem and Ramdas Pophale) SiO2 
 PCOD8256139
Probable space group: C M C M
;
_chemical_formula_sum "Si O2"
_cell_formula_units_Z 56
_cell_length_a 30.221193
_cell_length_b 8.893062
_cell_length_c 10.516775
_cell_angle_alpha 90.000000
_cell_angle_beta 90.000000
_cell_angle_gamma 90.000000
_cell_volume 2826.477333
_symmetry_space_group_name_H-M "C M C M"
_symmetry_group_IT_number 63
_symmetry_cell_setting 'orthorhombic'
loop_
_space_group_symop_operation_xyz
x,y,z
-x,-y,1/2+z
x,-y,-z
-x,y,1/2-z
-x,-y,-z
x,y,1/2-z
-x,y,z
x,-y,1/2+z
1/2+x,1/2+y,z
1/2-x,1/2-y,1/2+z
1/2+x,1/2-y,-z
1/2-x,1/2+y,1/2-z
1/2-x,1/2-y,-z
1/2+x,1/2+y,1/2-z
1/2-x,1/2+y,z
1/2+x,1/2-y,1/2+z
loop_
_atom_site_type_symbol
_atom_site_label
_atom_site_fract_x
_atom_site_fract_y
_atom_site_fract_z
Si Si1 0.809684 0.246270 0.607233
Si Si2 0.549596 0.324002 0.250000
Si Si3 0.550337 0.317750 0.750000
Si Si4 0.247840 0.500000 0.500000
Si Si5 0.900224 0.820994 0.001261
O O1 0.828723 0.237346 0.750000
O O2 0.782743 0.399584 0.590794
O O3 0.777849 0.104008 0.588703
O O4 0.850275 0.241669 0.507763
O O5 0.500000 0.261072 0.250000
O O6 0.549682 0.503408 0.250000
O O7 0.573072 0.261864 0.376387
O O8 0.500000 0.255803 0.750000
O O9 0.576155 0.258004 0.625444
O O10 0.898664 0.000000 0.000000
#
# Coordination Sequence:
#
# PCOD8256139 Si02
#       5
#    16   8   8   8  16
#     4  11  21  40  58  85 115 152 194 239 286 344
#     4   9  16  28  48  76 110 147 184 231 287 339
#     4   9  18  30  46  78 118 151 182 225 285 341
#     4  10  24  38  58  84 114 152 192 240 292 338
#     4  10  18  30  52  80 114 149 186 234 282 340
#
# _framework density 19.812649
#
# number of rings (size 3 to 8) (size 9 to 14) (size 15 to 20)
#    0.000    2.000    2.857    1.714    0.000    3.429 
#   12.857    0.000    0.000    0.000    0.000    6.000 
#    0.000    0.000    0.000    0.000    0.000    0.000 
#
# Total GULP energy -347236.026005 kJ/mol
# GULP energy per Si atom -12401.286643 kJ/mol
# Density = 1.976755 g / cm^3
# Si number density = 19.812649 Si / 1000 Ang^3
#
#
#
# Elastic Constant Matrix: (Units=GPa)
#
#
# Indices 1 2 3 4 5 6 
#
# 1 169.0245 34.6194 79.7507 0.0000 0.0000 0.0000
# 2 34.6194 58.2923 24.6250 0.0000 0.0000 0.0000
# 3 79.7507 24.6250 165.3147 0.0000 0.0000 0.0000
# 4 0.0000 0.0000 0.0000 7.2272 0.0000 0.0000
# 5 0.0000 0.0000 0.0000 0.0000 34.5263 0.0000
# 6 0.0000 0.0000 0.0000 0.0000 0.0000 7.3226
#
#
#
# Elastic Compliance Matrix: (Units=1/GPa)
#
#
# Indices 1 2 3 4 5 6 
#
# 1 0.008259 -0.003438 -0.003472 0.000000 0.000000 0.000000
# 2 -0.003438 0.019738 -0.001282 0.000000 0.000000 0.000000
# 3 -0.003472 -0.001282 0.007915 0.000000 0.000000 0.000000
# 4 0.000000 0.000000 0.000000 0.138366 0.000000 0.000000
# 5 0.000000 0.000000 0.000000 0.000000 0.028963 0.000000
# 6 0.000000 0.000000 0.000000 0.000000 0.000000 0.136564
#
#
# Mechanical properties :
#
#
# Convention : Reuss Voigt Hill
#
# Bulk Modulus (GPa) = 51.20725 74.51349 62.86037
# Shear Modulus (GPa) = 13.78558 26.72430 20.25494
#
# Velocity S-wave (km/s) = 2.64066 3.67665 3.20085
# Velocity P-wave (km/s) = 5.93290 7.46421 6.74217
#
# Compressibility (1/GPa) = 0.01952848
#
# Stress axis : x y z
#
# Youngs Moduli (GPa) = 121.08485 50.66327 126.34360
#
# Poissons Ratio (x) = 0.17418 0.43866
# Poissons Ratio (y) = 0.41630 0.16192
# Poissons Ratio (z) = 0.42041 0.06493
#
# Static dielectric constant tensor:
#      x y z
#    x 3.755450 0.000000 0.000000 
#    y 0.000000 3.111290 0.000000 
#    z 0.000000 0.000000 3.649950 
# 
# 
# High freq. dielectric constant tensor:
#      x y z
#    x 1.790000 0.000000 0.000000 
#    y 0.000000 1.719200 0.000000 
#    z 0.000000 0.000000 1.777610 
# 
# From -- ./inp_files/25442.got.cif
#   From: 2010.03.12/outbox.cif.g09.slc.cpg/sg63_13_cif.got.tgz:25442.got - 2010.04.10 19:34:48.
