data_PCOD8256069
_publ_section_title
;
Structure prediction by ZEFSAII (Michael W. Deem and Ramdas Pophale) SiO2 
 PCOD8256069
Probable space group: C M C M
;
_chemical_formula_sum "Si O2"
_cell_formula_units_Z 96
_cell_length_a 9.329555
_cell_length_b 20.907065
_cell_length_c 28.391005
_cell_angle_alpha 90.000000
_cell_angle_beta 90.000000
_cell_angle_gamma 90.000000
_cell_volume 5537.768096
_symmetry_space_group_name_H-M "C M C M"
_symmetry_group_IT_number 63
_symmetry_cell_setting 'orthorhombic'
loop_
_space_group_symop_operation_xyz
x,y,z
-x,-y,1/2+z
x,-y,-z
-x,y,1/2-z
-x,-y,-z
x,y,1/2-z
-x,y,z
x,-y,1/2+z
1/2+x,1/2+y,z
1/2-x,1/2-y,1/2+z
1/2+x,1/2-y,-z
1/2-x,1/2+y,1/2-z
1/2-x,1/2-y,-z
1/2+x,1/2+y,1/2-z
1/2-x,1/2+y,z
1/2+x,1/2-y,1/2+z
loop_
_atom_site_type_symbol
_atom_site_label
_atom_site_fract_x
_atom_site_fract_y
_atom_site_fract_z
Si Si1 0.663914 0.186676 0.302089
Si Si2 0.167698 0.058628 0.302081
Si Si3 0.669265 0.497814 0.897311
Si Si4 0.829786 0.129669 0.448994
Si Si5 0.832875 0.256465 0.601562
Si Si6 0.169970 0.125684 0.556805
O O1 0.700835 0.214723 0.250000
O O2 0.500000 0.163708 0.303935
O O3 0.758504 0.125381 0.313661
O O4 0.692823 0.239994 0.341964
O O5 0.211138 0.032872 0.250000
O O6 0.000000 0.072621 0.305031
O O7 0.212559 0.007424 0.342002
O O8 0.500000 0.500834 0.903583
O O9 0.725914 0.435878 0.925366
O O10 0.737544 0.562516 0.918614
O O11 0.755015 0.188932 0.424300
O O12 0.779454 0.128467 0.503015
O O13 0.000000 0.137651 0.443942
O O14 0.773775 0.188078 0.584359
O O15 0.000000 0.264884 0.588821
O O16 0.000000 0.122326 0.559854
#
# Coordination Sequence:
#
# PCOD8256069 Si02
#       6
#    16  16  16  16  16  16
#     4   9  17  29  45  65  89 118 150 181 220 272
#     4   9  16  27  46  71  92 111 145 192 232 262
#     4   9  16  28  46  69  93 118 151 188 225 267
#     4  10  18  30  50  70  88 120 160 191 221 264
#     4  10  19  31  47  68  94 121 150 189 230 268
#     4   9  18  30  45  67  95 123 152 186 226 272
#
# _framework density 17.335505000000001
#
# number of rings (size 3 to 8) (size 9 to 14) (size 15 to 20)
#    0.000    2.667    1.667    1.000    0.000    2.000 
#    0.000    0.833    0.000   10.000    0.000    0.000 
#    0.000    5.333    0.000    0.000    0.000    0.000 
#
# Total GULP energy -594973.076609 kJ/mol
# GULP energy per Si atom -12395.272429 kJ/mol
# Density = 1.729605 g / cm^3
# Si number density = 17.335505 Si / 1000 Ang^3
#
#
#
# Elastic Constant Matrix: (Units=GPa)
#
#
# Indices 1 2 3 4 5 6 
#
# 1 20.2495 22.6053 25.7709 0.0000 0.0000 0.0000
# 2 22.6053 144.8221 90.7305 0.0000 0.0000 0.0000
# 3 25.7709 90.7305 161.7270 0.0000 0.0000 0.0000
# 4 0.0000 0.0000 0.0000 15.7447 0.0000 0.0000
# 5 0.0000 0.0000 0.0000 0.0000 17.5791 0.0000
# 6 0.0000 0.0000 0.0000 0.0000 0.0000 18.2855
#
#
#
# Elastic Compliance Matrix: (Units=1/GPa)
#
#
# Indices 1 2 3 4 5 6 
#
# 1 0.064783 -0.005620 -0.007170 0.000000 0.000000 0.000000
# 2 -0.005620 0.011135 -0.005351 0.000000 0.000000 0.000000
# 3 -0.007170 -0.005351 0.010328 0.000000 0.000000 0.000000
# 4 0.000000 0.000000 0.000000 0.063514 0.000000 0.000000
# 5 0.000000 0.000000 0.000000 0.000000 0.056886 0.000000
# 6 0.000000 0.000000 0.000000 0.000000 0.000000 0.054688
#
#
# Mechanical properties :
#
#
# Convention : Reuss Voigt Hill
#
# Bulk Modulus (GPa) = 20.01481 67.22355 43.61918
# Shear Modulus (GPa) = 15.90989 22.83464 19.37226
#
# Velocity S-wave (km/s) = 3.03275 3.63329 3.34652
# Velocity P-wave (km/s) = 4.88201 7.51420 6.33629
#
# Compressibility (1/GPa) = 0.04996300
#
# Stress axis : x y z
#
# Youngs Moduli (GPa) = 15.43617 89.80911 96.82516
#
# Poissons Ratio (x) = 0.50471 0.69426
# Poissons Ratio (y) = 0.08675 0.51813
# Poissons Ratio (z) = 0.11068 0.48059
#
# Static dielectric constant tensor:
#      x y z
#    x 2.906950 0.000000 0.000000 
#    y 0.000000 3.312330 0.000000 
#    z 0.000000 0.000000 3.703130 
# 
# 
# High freq. dielectric constant tensor:
#      x y z
#    x 1.629640 0.000000 0.000000 
#    y 0.000000 1.653040 0.000000 
#    z 0.000000 0.000000 1.692820 
# 
# From -- ./inp_files/66936.got.cif
#   From: 2010.03.12/outbox.cif.g09.slc.cpg/sg63_34_cif.got.tgz:66936.got - 2010.04.10 19:34:48.
