data_PCOD8256201
_publ_section_title
;
Structure prediction by ZEFSAII (Michael W. Deem and Ramdas Pophale) SiO2 
 PCOD8256201
Probable space group: C M C M
;
_chemical_formula_sum "Si O2"
_cell_formula_units_Z 80
_cell_length_a 8.965137
_cell_length_b 25.206136
_cell_length_c 18.981720
_cell_angle_alpha 90.000000
_cell_angle_beta 90.000000
_cell_angle_gamma 90.000000
_cell_volume 4289.421937
_symmetry_space_group_name_H-M "C M C M"
_symmetry_group_IT_number 63
_symmetry_cell_setting 'orthorhombic'
loop_
_space_group_symop_operation_xyz
x,y,z
-x,-y,1/2+z
x,-y,-z
-x,y,1/2-z
-x,-y,-z
x,y,1/2-z
-x,y,z
x,-y,1/2+z
1/2+x,1/2+y,z
1/2-x,1/2-y,1/2+z
1/2+x,1/2-y,-z
1/2-x,1/2+y,1/2-z
1/2-x,1/2-y,-z
1/2+x,1/2+y,1/2-z
1/2-x,1/2+y,z
1/2+x,1/2-y,1/2+z
loop_
_atom_site_type_symbol
_atom_site_label
_atom_site_fract_x
_atom_site_fract_y
_atom_site_fract_z
Si Si1 0.177693 0.471043 0.069439
Si Si2 0.822854 0.647400 0.938482
Si Si3 0.177246 0.439946 0.828210
Si Si4 0.823418 0.666055 0.095728
Si Si5 0.823669 0.264761 0.330705
O O1 0.243134 0.411490 0.074883
O O2 0.232021 0.505238 0.136409
O O3 0.000000 0.468609 0.065422
O O4 0.240087 0.500000 0.000000
O O5 0.762828 0.686211 0.877428
O O6 0.000000 0.644382 0.936833
O O7 0.770674 0.669507 0.014493
O O8 0.246091 0.436776 0.750000
O O9 0.232523 0.390121 0.873867
O O10 0.000000 0.439153 0.825016
O O11 0.748298 0.711185 0.141705
O O12 0.000000 0.672093 0.102438
O O13 0.775898 0.274695 0.250000
O O14 0.000000 0.259386 0.338114
#
# Coordination Sequence:
#
# PCOD8256201 Si02
#       5
#    16  16  16  16  16
#     4   9  14  24  41  63  92 122 147 180 232 283
#     4   9  17  29  47  68  93 126 160 193 234 282
#     4   9  16  24  39  67  96 118 147 191 237 278
#     4  10  18  31  51  72  94 122 159 200 236 275
#     4  10  21  34  46  66  98 130 159 193 234 281
#
# _framework density 18.650531000000001
#
# number of rings (size 3 to 8) (size 9 to 14) (size 15 to 20)
#    0.000    2.600    2.000    1.200    0.000    2.000 
#    0.000    4.000    0.000    0.000    0.000    4.200 
#    0.000    0.000    0.000    0.000    0.000    0.000 
#
# Total GULP energy -495887.784376 kJ/mol
# GULP energy per Si atom -12397.194609 kJ/mol
# Density = 1.860808 g / cm^3
# Si number density = 18.650531 Si / 1000 Ang^3
#
#
#
# Elastic Constant Matrix: (Units=GPa)
#
#
# Indices 1 2 3 4 5 6 
#
# 1 7.0425 18.3033 18.6342 0.0000 0.0000 0.0000
# 2 18.3033 119.7353 72.4894 0.0000 0.0000 0.0000
# 3 18.6342 72.4894 173.0597 0.0000 0.0000 0.0000
# 4 0.0000 0.0000 0.0000 38.0939 0.0000 0.0000
# 5 0.0000 0.0000 0.0000 0.0000 14.5226 0.0000
# 6 0.0000 0.0000 0.0000 0.0000 0.0000 16.3923
#
#
#
# Elastic Compliance Matrix: (Units=1/GPa)
#
#
# Indices 1 2 3 4 5 6 
#
# 1 0.262953 -0.030888 -0.015376 0.000000 0.000000 0.000000
# 2 -0.030888 0.014817 -0.002881 0.000000 0.000000 0.000000
# 3 -0.015376 -0.002881 0.008641 0.000000 0.000000 0.000000
# 4 0.000000 0.000000 0.000000 0.026251 0.000000 0.000000
# 5 0.000000 0.000000 0.000000 0.000000 0.068858 0.000000
# 6 0.000000 0.000000 0.000000 0.000000 0.000000 0.061004
#
#
# Mechanical properties :
#
#
# Convention : Reuss Voigt Hill
#
# Bulk Modulus (GPa) = 5.31567 57.63239 31.47403
# Shear Modulus (GPa) = 8.28473 26.49581 17.39027
#
# Velocity S-wave (km/s) = 2.10991 3.77324 3.05688
# Velocity P-wave (km/s) = 2.96513 7.06763 5.41956
#
# Compressibility (1/GPa) = 0.18812305
#
# Stress axis : x y z
#
# Youngs Moduli (GPa) = 3.80296 67.48813 115.73302
#
# Poissons Ratio (x) = 2.08455 1.77947
# Poissons Ratio (y) = 0.11746 0.33340
# Poissons Ratio (z) = 0.05847 0.19441
#
# Static dielectric constant tensor:
#      x y z
#    x 2.735140 0.000000 0.000000 
#    y 0.000000 3.693150 0.000000 
#    z 0.000000 0.000000 3.750470 
# 
# 
# High freq. dielectric constant tensor:
#      x y z
#    x 1.646470 0.000000 0.000000 
#    y 0.000000 1.739310 0.000000 
#    z 0.000000 0.000000 1.739000 
# 
# From -- ./inp_files/30023.got.cif
#   From: 2010.03.12/outbox.cif.g09.slc.cpg/sg63_16_cif.got.tgz:30023.got - 2010.04.10 19:34:48.
