data_PCOD8256279
_publ_section_title
;
Structure prediction by ZEFSAII (Michael W. Deem and Ramdas Pophale) SiO2 
 PCOD8256279
Probable space group: C M C M
;
_chemical_formula_sum "Si O2"
_cell_formula_units_Z 64
_cell_length_a 24.786683
_cell_length_b 15.070158
_cell_length_c 8.731356
_cell_angle_alpha 90.000000
_cell_angle_beta 90.000000
_cell_angle_gamma 90.000000
_cell_volume 3261.503989
_symmetry_space_group_name_H-M "C M C M"
_symmetry_group_IT_number 63
_symmetry_cell_setting 'orthorhombic'
loop_
_space_group_symop_operation_xyz
x,y,z
-x,-y,1/2+z
x,-y,-z
-x,y,1/2-z
-x,-y,-z
x,y,1/2-z
-x,y,z
x,-y,1/2+z
1/2+x,1/2+y,z
1/2-x,1/2-y,1/2+z
1/2+x,1/2-y,-z
1/2-x,1/2+y,1/2-z
1/2-x,1/2-y,-z
1/2+x,1/2+y,1/2-z
1/2-x,1/2+y,z
1/2+x,1/2-y,1/2+z
loop_
_atom_site_type_symbol
_atom_site_label
_atom_site_fract_x
_atom_site_fract_y
_atom_site_fract_z
Si Si1 0.616231 0.596809 0.931385
Si Si2 0.500000 0.594899 0.928732
Si Si3 0.808727 0.748371 0.069347
Si Si4 0.500000 0.098037 0.932654
Si Si5 0.109447 0.403011 0.568390
O O1 0.620700 0.588025 0.750000
O O2 0.557123 0.638750 0.978394
O O3 0.659972 0.665655 0.995876
O O4 0.627030 0.500000 0.000000
O O5 0.500000 0.582170 0.750000
O O6 0.500000 0.500000 0.000000
O O7 0.804206 0.754095 0.250000
O O8 0.840408 0.659124 0.021875
O O9 0.750000 0.750000 0.000000
O O10 0.500000 0.098963 0.750000
O O11 0.445000 0.141845 0.997588
O O12 0.500000 0.000000 0.000000
O O13 0.121034 0.500000 0.500000
O O14 0.102084 0.410093 0.750000
#
# Coordination Sequence:
#
# PCOD8256279 Si02
#       5
#    16   8  16   8  16
#     4   9  18  34  55  80 106 136 170 210 261 315
#     4   8  14  27  50  76 103 129 160 201 249 307
#     4  10  23  39  55  76 105 142 185 226 267 314
#     4  10  18  31  54  84 113 141 173 217 269 325
#     4  10  20  36  57  81 109 144 180 221 271 323
#
# _framework density 19.622848000000001
#
# number of rings (size 3 to 8) (size 9 to 14) (size 15 to 20)
#    0.000    2.500    0.000    3.375    0.000    5.000 
#    0.000    8.750    0.000    6.000    0.000    0.000 
#    0.000    0.000    0.000    0.000    0.000    0.000 
#
# Total GULP energy -396457.084418 kJ/mol
# GULP energy per Si atom -12389.283888 kJ/mol
# Density = 1.957819 g / cm^3
# Si number density = 19.622848 Si / 1000 Ang^3
#
#
#
# Elastic Constant Matrix: (Units=GPa)
#
#
# Indices 1 2 3 4 5 6 
#
# 1 217.4653 92.6815 53.2105 0.0000 0.0000 0.0000
# 2 92.6815 115.0200 37.0341 0.0000 0.0000 0.0000
# 3 53.2105 37.0341 64.8850 0.0000 0.0000 0.0000
# 4 0.0000 0.0000 0.0000 23.8180 0.0000 0.0000
# 5 0.0000 0.0000 0.0000 0.0000 30.2000 0.0000
# 6 0.0000 0.0000 0.0000 0.0000 0.0000 14.9267
#
#
#
# Elastic Compliance Matrix: (Units=1/GPa)
#
#
# Indices 1 2 3 4 5 6 
#
# 1 0.007549 -0.005010 -0.003331 0.000000 0.000000 0.000000
# 2 -0.005010 0.013977 -0.003869 0.000000 0.000000 0.000000
# 3 -0.003331 -0.003869 0.020352 0.000000 0.000000 0.000000
# 4 0.000000 0.000000 0.000000 0.041985 0.000000 0.000000
# 5 0.000000 0.000000 0.000000 0.000000 0.033113 0.000000
# 6 0.000000 0.000000 0.000000 0.000000 0.000000 0.066994
#
#
# Mechanical properties :
#
#
# Convention : Reuss Voigt Hill
#
# Bulk Modulus (GPa) = 57.28184 84.80251 71.04218
# Shear Modulus (GPa) = 23.34182 28.08523 25.71353
#
# Velocity S-wave (km/s) = 3.45269 3.78729 3.62385
# Velocity P-wave (km/s) = 6.71934 7.90157 7.33431
#
# Compressibility (1/GPa) = 0.01745754
#
# Stress axis : x y z
#
# Youngs Moduli (GPa) = 132.47218 71.54624 49.13602
#
# Poissons Ratio (x) = 0.35846 0.16367
# Poissons Ratio (y) = 0.66371 0.19010
# Poissons Ratio (z) = 0.44125 0.27680
#
# Static dielectric constant tensor:
#      x y z
#    x 4.827790 0.000000 0.000000 
#    y 0.000000 3.571650 0.000000 
#    z 0.000000 0.000000 3.491340 
# 
# 
# High freq. dielectric constant tensor:
#      x y z
#    x 1.780010 0.000000 0.000000 
#    y 0.000000 1.750020 0.000000 
#    z 0.000000 0.000000 1.758380 
# 
# From -- ./inp_files/9684.got.cif
#   From: 2010.03.12/outbox.cif.g09.slc.cpg/sg63_5_cif.got.tgz:9684.got - 2010.04.10 19:34:48.
