data_PCOD8256045
_publ_section_title
;
Structure prediction by ZEFSAII (Michael W. Deem and Ramdas Pophale) SiO2 
 PCOD8256045
Probable space group: C M C M
;
_chemical_formula_sum "Si O2"
_cell_formula_units_Z 96
_cell_length_a 9.093709
_cell_length_b 29.995084
_cell_length_c 19.351811
_cell_angle_alpha 90.000000
_cell_angle_beta 90.000000
_cell_angle_gamma 90.000000
_cell_volume 5278.527019
_symmetry_space_group_name_H-M "C M C M"
_symmetry_group_IT_number 63
_symmetry_cell_setting 'orthorhombic'
loop_
_space_group_symop_operation_xyz
x,y,z
-x,-y,1/2+z
x,-y,-z
-x,y,1/2-z
-x,-y,-z
x,y,1/2-z
-x,y,z
x,-y,1/2+z
1/2+x,1/2+y,z
1/2-x,1/2-y,1/2+z
1/2+x,1/2-y,-z
1/2-x,1/2+y,1/2-z
1/2-x,1/2-y,-z
1/2+x,1/2+y,1/2-z
1/2-x,1/2+y,z
1/2+x,1/2-y,1/2+z
loop_
_atom_site_type_symbol
_atom_site_label
_atom_site_fract_x
_atom_site_fract_y
_atom_site_fract_z
Si Si1 0.171393 0.643090 0.675355
Si Si2 0.173798 0.592813 0.067702
Si Si3 0.832168 0.720766 0.582723
Si Si4 0.674488 0.982242 0.671408
Si Si5 0.330072 0.316425 0.953000
Si Si6 0.174912 0.564701 0.918218
O O1 0.246910 0.635935 0.750000
O O2 0.196705 0.694334 0.653550
O O3 0.237576 0.608767 0.619699
O O4 0.000000 0.632323 0.681549
O O5 0.220970 0.563818 0.134276
O O6 0.243397 0.641480 0.076726
O O7 0.000000 0.599242 0.063818
O O8 0.229453 0.567644 0.997787
O O9 0.723655 0.698709 0.527900
O O10 0.802840 0.773230 0.596250
O O11 0.000000 0.713532 0.556566
O O12 0.738377 0.983955 0.750000
O O13 0.500000 0.986285 0.674865
O O14 0.738290 0.022211 0.623677
O O15 0.500000 0.329635 0.957282
O O16 0.000000 0.562212 0.918261
#
# Coordination Sequence:
#
# PCOD8256045 Si02
#       6
#    16  16  16  16  16  16
#     4   9  15  24  43  71  99 122 148 192 246 289
#     4  10  18  30  49  72  98 126 159 200 241 283
#     4   9  17  31  48  70  97 123 157 198 240 284
#     4   9  17  28  44  70 100 126 157 200 246 286
#     4  10  19  30  48  71  96 126 161 198 236 279
#     4   9  15  25  44  71  98 121 152 197 244 282
#
# _framework density 18.186889999999998
#
# number of rings (size 3 to 8) (size 9 to 14) (size 15 to 20)
#    0.000    2.667    1.667    1.500    0.000    4.667 
#    0.000    0.833    0.000    4.000    0.000    0.000 
#    0.000    0.000    0.000    0.000    0.000    0.000 
#
# Total GULP energy -594816.719657 kJ/mol
# GULP energy per Si atom -12392.014993 kJ/mol
# Density = 1.814550 g / cm^3
# Si number density = 18.186890 Si / 1000 Ang^3
#
#
#
# Elastic Constant Matrix: (Units=GPa)
#
#
# Indices 1 2 3 4 5 6 
#
# 1 25.0828 27.4516 15.0651 0.0000 0.0000 0.0000
# 2 27.4516 145.6346 57.7979 0.0000 0.0000 0.0000
# 3 15.0651 57.7979 103.0626 0.0000 0.0000 0.0000
# 4 0.0000 0.0000 0.0000 21.8481 0.0000 0.0000
# 5 0.0000 0.0000 0.0000 0.0000 7.5151 0.0000
# 6 0.0000 0.0000 0.0000 0.0000 0.0000 23.8802
#
#
#
# Elastic Compliance Matrix: (Units=1/GPa)
#
#
# Indices 1 2 3 4 5 6 
#
# 1 0.050784 -0.008524 -0.002643 0.000000 0.000000 0.000000
# 2 -0.008524 0.010263 -0.004510 0.000000 0.000000 0.000000
# 3 -0.002643 -0.004510 0.012618 0.000000 0.000000 0.000000
# 4 0.000000 0.000000 0.000000 0.045771 0.000000 0.000000
# 5 0.000000 0.000000 0.000000 0.000000 0.133066 0.000000
# 6 0.000000 0.000000 0.000000 0.000000 0.000000 0.041876
#
#
# Mechanical properties :
#
#
# Convention : Reuss Voigt Hill
#
# Bulk Modulus (GPa) = 23.63377 52.71213 38.17295
# Shear Modulus (GPa) = 14.71307 22.21303 18.46305
#
# Velocity S-wave (km/s) = 2.84737 3.49861 3.18965
# Velocity P-wave (km/s) = 4.88192 6.73549 5.88218
#
# Compressibility (1/GPa) = 0.04231233
#
# Stress axis : x y z
#
# Youngs Moduli (GPa) = 19.69124 97.43891 79.25080
#
# Poissons Ratio (x) = 0.83053 0.20948
# Poissons Ratio (y) = 0.16784 0.35738
# Poissons Ratio (z) = 0.05205 0.43940
#
# Static dielectric constant tensor:
#      x y z
#    x 2.851210 0.000000 0.000000 
#    y 0.000000 3.605740 0.000000 
#    z 0.000000 0.000000 3.455640 
# 
# 
# High freq. dielectric constant tensor:
#      x y z
#    x 1.642640 0.000000 0.000000 
#    y 0.000000 1.719920 0.000000 
#    z 0.000000 0.000000 1.692930 
# 
# From -- ./inp_files/51402.got.cif
#   From: 2010.03.12/outbox.cif.g09.slc.cpg/sg63_26_cif.got.tgz:51402.got - 2010.04.10 19:34:48.
