data_PCOD8256675
_publ_section_title
;
Structure prediction by ZEFSAII (Michael W. Deem and Ramdas Pophale) SiO2 
 PCOD8256675
Probable space group: C M C M
;
_chemical_formula_sum "Si O2"
_cell_formula_units_Z 96
_cell_length_a 9.067877
_cell_length_b 30.211428
_cell_length_c 20.022061
_cell_angle_alpha 90.000000
_cell_angle_beta 90.000000
_cell_angle_gamma 90.000000
_cell_volume 5485.113950
_symmetry_space_group_name_H-M "C M C M"
_symmetry_group_IT_number 63
_symmetry_cell_setting 'orthorhombic'
loop_
_space_group_symop_operation_xyz
x,y,z
-x,-y,1/2+z
x,-y,-z
-x,y,1/2-z
-x,-y,-z
x,y,1/2-z
-x,y,z
x,-y,1/2+z
1/2+x,1/2+y,z
1/2-x,1/2-y,1/2+z
1/2+x,1/2-y,-z
1/2-x,1/2+y,1/2-z
1/2-x,1/2-y,-z
1/2+x,1/2+y,1/2-z
1/2-x,1/2+y,z
1/2+x,1/2-y,1/2+z
loop_
_atom_site_type_symbol
_atom_site_label
_atom_site_fract_x
_atom_site_fract_y
_atom_site_fract_z
Si Si1 0.327101 0.887552 0.953237
Si Si2 0.833581 0.784361 0.088435
Si Si3 0.666551 0.300617 0.931273
Si Si4 0.172462 0.628541 0.606273
Si Si5 0.331477 0.449669 0.326653
Si Si6 0.172221 0.023399 0.068445
O O1 0.500000 0.884391 0.940382
O O2 0.251177 0.846211 0.916279
O O3 0.264245 0.932079 0.921075
O O4 0.288494 0.887342 0.031689
O O5 0.748878 0.739169 0.107211
O O6 0.752166 0.825374 0.123591
O O7 0.000000 0.781413 0.115731
O O8 0.832235 0.790974 0.009499
O O9 0.500000 0.304140 0.904215
O O10 0.228450 0.591854 0.657615
O O11 0.000000 0.636004 0.615774
O O12 0.310850 0.463299 0.250000
O O13 0.500000 0.436339 0.343060
O O14 0.284591 0.491734 0.370451
O O15 0.000000 0.035452 0.067136
O O16 0.220833 0.000000 0.000000
#
# Coordination Sequence:
#
# PCOD8256675 Si02
#       6
#    16  16  16  16  16  16
#     4  10  19  29  45  70  99 129 164 204 248 296
#     4   9  16  26  42  64  94 129 162 196 238 287
#     4   9  16  26  41  64  96 129 161 198 241 288
#     4  10  19  30  46  69  97 129 164 201 244 295
#     4  10  21  36  52  71  97 129 166 208 253 301
#     4  10  19  32  51  72  95 127 167 208 252 302
#
# _framework density 17.501915
#
# number of rings (size 3 to 8) (size 9 to 14) (size 15 to 20)
#    0.000    2.333    1.667    2.000    0.000    6.667 
#    0.000    0.000    0.000    0.000    0.000    1.167 
#    0.000    6.667    0.000    0.000    0.000    0.000 
#
# Total GULP energy -595330.555419 kJ/mol
# GULP energy per Si atom -12402.719905 kJ/mol
# Density = 1.746208 g / cm^3
# Si number density = 17.501915 Si / 1000 Ang^3
#
#
#
# Elastic Constant Matrix: (Units=GPa)
#
#
# Indices 1 2 3 4 5 6 
#
# 1 114.3225 79.8417 28.7568 0.0000 0.0000 0.0000
# 2 79.8417 164.9561 40.7890 0.0000 0.0000 0.0000
# 3 28.7568 40.7890 53.1838 0.0000 0.0000 0.0000
# 4 0.0000 0.0000 0.0000 15.0826 0.0000 0.0000
# 5 0.0000 0.0000 0.0000 0.0000 13.5730 0.0000
# 6 0.0000 0.0000 0.0000 0.0000 0.0000 41.5723
#
#
#
# Elastic Compliance Matrix: (Units=1/GPa)
#
#
# Indices 1 2 3 4 5 6 
#
# 1 0.013552 -0.005858 -0.002834 0.000000 0.000000 0.000000
# 2 -0.005858 0.010013 -0.004512 0.000000 0.000000 0.000000
# 3 -0.002834 -0.004512 0.023796 0.000000 0.000000 0.000000
# 4 0.000000 0.000000 0.000000 0.066302 0.000000 0.000000
# 5 0.000000 0.000000 0.000000 0.000000 0.073676 0.000000
# 6 0.000000 0.000000 0.000000 0.000000 0.000000 0.024054
#
#
# Mechanical properties :
#
#
# Convention : Reuss Voigt Hill
#
# Bulk Modulus (GPa) = 47.73010 70.13749 58.93379
# Shear Modulus (GPa) = 20.42600 26.25057 23.33828
#
# Velocity S-wave (km/s) = 3.41995 3.87701 3.65563
# Velocity P-wave (km/s) = 6.55174 7.75905 7.18081
#
# Compressibility (1/GPa) = 0.02095114
#
# Stress axis : x y z
#
# Youngs Moduli (GPa) = 73.79234 99.86541 42.02413
#
# Poissons Ratio (x) = 0.58504 0.11911
# Poissons Ratio (y) = 0.43230 0.18962
# Poissons Ratio (z) = 0.20916 0.45061
#
# Static dielectric constant tensor:
#      x y z
#    x 3.330710 0.000000 0.000000 
#    y 0.000000 3.356620 0.000000 
#    z 0.000000 0.000000 2.729530 
# 
# 
# High freq. dielectric constant tensor:
#      x y z
#    x 1.687920 0.000000 0.000000 
#    y 0.000000 1.689720 0.000000 
#    z 0.000000 0.000000 1.610950 
# 
# From -- ./inp_files/60205.got.cif
#   From: 2010.03.12/outbox.cif.g09.slc.cpg/sg63_31_cif.got.tgz:60205.got - 2010.04.10 19:34:48.
