data_PCOD8256783
_publ_section_title
;
Structure prediction by ZEFSAII (Michael W. Deem and Ramdas Pophale) SiO2 
 PCOD8256783
Probable space group: C M C M
;
_chemical_formula_sum "Si O2"
_cell_formula_units_Z 80
_cell_length_a 14.079692
_cell_length_b 18.087677
_cell_length_c 14.794696
_cell_angle_alpha 90.000000
_cell_angle_beta 90.000000
_cell_angle_gamma 90.000000
_cell_volume 3767.749269
_symmetry_space_group_name_H-M "C M C M"
_symmetry_group_IT_number 63
_symmetry_cell_setting 'orthorhombic'
loop_
_space_group_symop_operation_xyz
x,y,z
-x,-y,1/2+z
x,-y,-z
-x,y,1/2-z
-x,-y,-z
x,y,1/2-z
-x,y,z
x,-y,1/2+z
1/2+x,1/2+y,z
1/2-x,1/2-y,1/2+z
1/2+x,1/2-y,-z
1/2-x,1/2+y,1/2-z
1/2-x,1/2-y,-z
1/2+x,1/2+y,1/2-z
1/2-x,1/2+y,z
1/2+x,1/2-y,1/2+z
loop_
_atom_site_type_symbol
_atom_site_label
_atom_site_fract_x
_atom_site_fract_y
_atom_site_fract_z
Si Si1 0.887399 0.808235 0.350483
Si Si2 0.609301 0.107721 0.652289
Si Si3 0.294057 0.969960 0.594901
Si Si4 0.394585 0.527425 0.643680
Si Si5 0.387443 0.170396 0.463037
O O1 0.847604 0.788036 0.250000
O O2 0.853465 0.890442 0.379242
O O3 0.853149 0.750383 0.426865
O O4 0.000000 0.810742 0.344494
O O5 0.623009 0.148853 0.750000
O O6 0.500000 0.088319 0.635053
O O7 0.664283 0.029723 0.664641
O O8 0.644758 0.159287 0.568342
O O9 0.178840 0.967978 0.602008
O O10 0.330848 0.000000 0.500000
O O11 0.336787 0.888065 0.604585
O O12 0.400616 0.516644 0.750000
O O13 0.500000 0.514437 0.602034
O O14 0.500000 0.161785 0.451966
#
# Coordination Sequence:
#
# PCOD8256783 Si02
#       5
#    16  16  16  16  16
#     4   8  15  29  49  72  98 129 164 205 253 295
#     4   9  17  29  45  67  99 136 166 195 241 302
#     4  10  19  30  46  72 100 128 163 205 251 297
#     4   9  18  33  51  70  95 130 171 210 248 296
#     4   9  17  30  49  77 107 128 158 208 256 298
#
# _framework density 21.232835000000001
#
# number of rings (size 3 to 8) (size 9 to 14) (size 15 to 20)
#    0.000    3.000    0.000    2.400    0.000    4.400 
#    0.000    6.000    0.000    0.000    0.000    9.800 
#    0.000   17.600    0.000    0.000    0.000    0.000 
#
# Total GULP energy -495602.439734 kJ/mol
# GULP energy per Si atom -12390.060993 kJ/mol
# Density = 2.118451 g / cm^3
# Si number density = 21.232835 Si / 1000 Ang^3
#
#
#
# Elastic Constant Matrix: (Units=GPa)
#
#
# Indices 1 2 3 4 5 6 
#
# 1 61.2568 30.0634 19.0514 0.0000 0.0000 0.0000
# 2 30.0634 64.6210 29.3783 0.0000 0.0000 0.0000
# 3 19.0514 29.3783 87.5521 0.0000 0.0000 0.0000
# 4 0.0000 0.0000 0.0000 13.3343 0.0000 0.0000
# 5 0.0000 0.0000 0.0000 0.0000 17.4181 0.0000
# 6 0.0000 0.0000 0.0000 0.0000 0.0000 23.9351
#
#
#
# Elastic Compliance Matrix: (Units=1/GPa)
#
#
# Indices 1 2 3 4 5 6 
#
# 1 0.021331 -0.009220 -0.001548 0.000000 0.000000 0.000000
# 2 -0.009220 0.022246 -0.005458 0.000000 0.000000 0.000000
# 3 -0.001548 -0.005458 0.013590 0.000000 0.000000 0.000000
# 4 0.000000 0.000000 0.000000 0.074995 0.000000 0.000000
# 5 0.000000 0.000000 0.000000 0.000000 0.057412 0.000000
# 6 0.000000 0.000000 0.000000 0.000000 0.000000 0.041780
#
#
# Mechanical properties :
#
#
# Convention : Reuss Voigt Hill
#
# Bulk Modulus (GPa) = 40.46210 41.15734 40.80972
# Shear Modulus (GPa) = 18.37940 19.93327 19.15634
#
# Velocity S-wave (km/s) = 2.94532 3.06730 3.00693
# Velocity P-wave (km/s) = 5.53754 5.65423 5.59619
#
# Compressibility (1/GPa) = 0.02471449
#
# Stress axis : x y z
#
# Youngs Moduli (GPa) = 46.87979 44.95231 73.58280
#
# Poissons Ratio (x) = 0.41447 0.11389
# Poissons Ratio (y) = 0.43224 0.40164
# Poissons Ratio (z) = 0.07256 0.24536
#
# Static dielectric constant tensor:
#      x y z
#    x 3.791320 0.000000 0.000000 
#    y 0.000000 3.770480 0.000000 
#    z 0.000000 0.000000 3.880080 
# 
# 
# High freq. dielectric constant tensor:
#      x y z
#    x 1.832330 0.000000 0.000000 
#    y 0.000000 1.792260 0.000000 
#    z 0.000000 0.000000 1.830130 
# 
# From -- ./inp_files/31636.got.cif
#   From: 2010.03.12/outbox.cif.g09.slc.cpg/sg63_16_cif.got.tgz:31636.got - 2010.04.10 19:34:48.
