data_PCOD8256421
_publ_section_title
;
Structure prediction by ZEFSAII (Michael W. Deem and Ramdas Pophale) SiO2 
 PCOD8256421
Probable space group: C M C M
;
_chemical_formula_sum "Si O2"
_cell_formula_units_Z 112
_cell_length_a 14.147227
_cell_length_b 25.273535
_cell_length_c 14.832797
_cell_angle_alpha 90.000000
_cell_angle_beta 90.000000
_cell_angle_gamma 90.000000
_cell_volume 5303.473045
_symmetry_space_group_name_H-M "C M C M"
_symmetry_group_IT_number 63
_symmetry_cell_setting 'orthorhombic'
loop_
_space_group_symop_operation_xyz
x,y,z
-x,-y,1/2+z
x,-y,-z
-x,y,1/2-z
-x,-y,-z
x,y,1/2-z
-x,y,z
x,-y,1/2+z
1/2+x,1/2+y,z
1/2-x,1/2-y,1/2+z
1/2+x,1/2-y,-z
1/2-x,1/2+y,1/2-z
1/2-x,1/2-y,-z
1/2+x,1/2+y,1/2-z
1/2-x,1/2+y,z
1/2+x,1/2-y,1/2+z
loop_
_atom_site_type_symbol
_atom_site_label
_atom_site_fract_x
_atom_site_fract_y
_atom_site_fract_z
Si Si1 0.605991 0.869967 0.856913
Si Si2 0.235665 0.210764 0.146381
Si Si3 0.805588 0.476963 0.851587
Si Si4 0.393906 0.651661 0.014018
Si Si5 0.896631 0.964805 0.912485
Si Si6 0.738691 0.334696 0.353439
Si Si7 0.394233 0.916519 0.142880
O O1 0.602722 0.874073 0.750000
O O2 0.500000 0.863154 0.895983
O O3 0.668780 0.819366 0.884899
O O4 0.653414 0.923542 0.898495
O O5 0.210047 0.196300 0.250000
O O6 0.248017 0.272698 0.134199
O O7 0.152146 0.194424 0.080194
O O8 0.842497 0.476493 0.750000
O O9 0.691335 0.478792 0.848847
O O10 0.847078 0.529914 0.898537
O O11 0.500000 0.670557 0.996496
O O12 0.346308 0.646607 0.916306
O O13 0.389208 0.596116 0.063261
O O14 0.000000 0.975702 0.866668
O O15 0.886353 0.000000 0.000000
O O16 0.713345 0.349076 0.250000
O O17 0.833306 0.365296 0.385523
O O18 0.396843 0.920582 0.250000
O O19 0.500000 0.909938 0.103723
#
# Coordination Sequence:
#
# PCOD8256421 Si02
#       7
#    16  16  16  16  16  16  16
#     4   9  17  31  54  84 116 150 187 233 292 353
#     4  10  21  39  61  88 121 157 197 245 305 366
#     4  10  18  32  57  84 114 150 191 245 302 362
#     4  11  23  39  60  86 119 157 202 253 297 353
#     4  10  21  36  54  77 113 159 196 240 300 352
#     4  10  22  40  62  86 118 159 203 252 300 354
#     4   9  18  34  58  87 117 154 199 248 305 363
#
# _framework density 21.118238000000002
#
# number of rings (size 3 to 8) (size 9 to 14) (size 15 to 20)
#    0.000    2.143    1.429    1.714    0.000    3.714 
#    0.000    5.000    0.000    6.857    0.000    0.000 
#    0.000    0.000    0.000    0.000    0.000    0.000 
#
# Total GULP energy -694247.318235 kJ/mol
# GULP energy per Si atom -12397.273540 kJ/mol
# Density = 2.107017 g / cm^3
# Si number density = 21.118238 Si / 1000 Ang^3
#
#
#
# Elastic Constant Matrix: (Units=GPa)
#
#
# Indices 1 2 3 4 5 6 
#
# 1 200.3016 67.2693 35.7160 0.0000 0.0000 0.0000
# 2 67.2693 125.5747 13.9872 0.0000 0.0000 0.0000
# 3 35.7160 13.9872 34.8768 0.0000 0.0000 0.0000
# 4 0.0000 0.0000 0.0000 14.3698 0.0000 0.0000
# 5 0.0000 0.0000 0.0000 0.0000 33.0612 0.0000
# 6 0.0000 0.0000 0.0000 0.0000 0.0000 25.5015
#
#
#
# Elastic Compliance Matrix: (Units=1/GPa)
#
#
# Indices 1 2 3 4 5 6 
#
# 1 0.007125 -0.003144 -0.006035 0.000000 0.000000 0.000000
# 2 -0.003144 0.009723 -0.000680 0.000000 0.000000 0.000000
# 3 -0.006035 -0.000680 0.035125 0.000000 0.000000 0.000000
# 4 0.000000 0.000000 0.000000 0.069591 0.000000 0.000000
# 5 0.000000 0.000000 0.000000 0.000000 0.030247 0.000000
# 6 0.000000 0.000000 0.000000 0.000000 0.000000 0.039213
#
#
# Mechanical properties :
#
#
# Convention : Reuss Voigt Hill
#
# Bulk Modulus (GPa) = 31.00260 66.07757 48.54009
# Shear Modulus (GPa) = 22.57403 30.83853 26.70628
#
# Velocity S-wave (km/s) = 3.27300 3.82551 3.55999
# Velocity P-wave (km/s) = 5.38477 7.13232 6.31924
#
# Compressibility (1/GPa) = 0.03225535
#
# Stress axis : x y z
#
# Youngs Moduli (GPa) = 140.35911 102.84375 28.46972
#
# Poissons Ratio (x) = 0.32338 0.17181
# Poissons Ratio (y) = 0.44134 0.01935
# Poissons Ratio (z) = 0.84706 0.06989
#
# Static dielectric constant tensor:
#      x y z
#    x 4.133710 0.000000 0.000000 
#    y 0.000000 3.828930 0.000000 
#    z 0.000000 0.000000 3.516810 
# 
# 
# High freq. dielectric constant tensor:
#      x y z
#    x 1.832150 0.000000 0.000000 
#    y 0.000000 1.837230 0.000000 
#    z 0.000000 0.000000 1.804820 
# 
# From -- ./inp_files/32279.got.cif
#   From: 2010.03.12/outbox.cif.g09.slc.cpg/sg63_17_cif.got.tgz:32279.got - 2010.04.10 19:34:48.
