data_PCOD8256086
_publ_section_title
;
Structure prediction by ZEFSAII (Michael W. Deem and Ramdas Pophale) SiO2 
 PCOD8256086
Probable space group: C M C M
;
_chemical_formula_sum "Si O2"
_cell_formula_units_Z 56
_cell_length_a 17.620762
_cell_length_b 18.217627
_cell_length_c 9.011301
_cell_angle_alpha 90.000000
_cell_angle_beta 90.000000
_cell_angle_gamma 90.000000
_cell_volume 2892.703943
_symmetry_space_group_name_H-M "C M C M"
_symmetry_group_IT_number 63
_symmetry_cell_setting 'orthorhombic'
loop_
_space_group_symop_operation_xyz
x,y,z
-x,-y,1/2+z
x,-y,-z
-x,y,1/2-z
-x,-y,-z
x,y,1/2-z
-x,y,z
x,-y,1/2+z
1/2+x,1/2+y,z
1/2-x,1/2-y,1/2+z
1/2+x,1/2-y,-z
1/2-x,1/2+y,1/2-z
1/2-x,1/2-y,-z
1/2+x,1/2+y,1/2-z
1/2-x,1/2+y,z
1/2+x,1/2-y,1/2+z
loop_
_atom_site_type_symbol
_atom_site_label
_atom_site_fract_x
_atom_site_fract_y
_atom_site_fract_z
Si Si1 0.217456 0.680849 0.084536
Si Si2 0.413257 0.923116 0.924973
Si Si3 0.642819 0.425254 0.917593
Si Si4 0.500000 0.581176 0.572976
O O1 0.198605 0.707690 0.250000
O O2 0.141462 0.642777 0.015864
O O3 0.281483 0.620192 0.083859
O O4 0.250000 0.750000 0.000000
O O5 0.401238 0.933443 0.750000
O O6 0.500000 0.901720 0.964194
O O7 0.390706 0.000000 0.000000
O O8 0.614787 0.441673 0.750000
O O9 0.662834 0.500000 0.000000
O O10 0.576430 0.381297 0.008113
O O11 0.500000 0.500000 0.500000
O O12 0.500000 0.582485 0.750000
#
# Coordination Sequence:
#
# PCOD8256086 Si02
#       4
#    16  16  16   8
#     4  10  22  37  53  77 111 147 180 222 271 325
#     4   9  18  35  59  85 111 140 181 230 276 324
#     4  10  19  33  53  77 105 138 178 224 267 314
#     4  10  18  30  50  76 102 132 169 212 259 310
#
# _framework density 19.359048999999999
#
# number of rings (size 3 to 8) (size 9 to 14) (size 15 to 20)
#    0.000    2.286    0.000    4.714    0.000    3.429 
#    2.571    0.000    0.000    0.000    0.000    0.000 
#    0.000    0.000    0.000    0.000    0.000    0.000 
#
# Total GULP energy -346991.558251 kJ/mol
# GULP energy per Si atom -12392.555652 kJ/mol
# Density = 1.931499 g / cm^3
# Si number density = 19.359049 Si / 1000 Ang^3
#
#
#
# Elastic Constant Matrix: (Units=GPa)
#
#
# Indices 1 2 3 4 5 6 
#
# 1 121.5357 58.2372 46.3373 0.0000 0.0000 0.0000
# 2 58.2372 102.1790 46.3030 0.0000 0.0000 0.0000
# 3 46.3373 46.3030 115.4336 0.0000 0.0000 0.0000
# 4 0.0000 0.0000 0.0000 30.9750 0.0000 0.0000
# 5 0.0000 0.0000 0.0000 0.0000 27.3130 0.0000
# 6 0.0000 0.0000 0.0000 0.0000 0.0000 25.5352
#
#
#
# Elastic Compliance Matrix: (Units=1/GPa)
#
#
# Indices 1 2 3 4 5 6 
#
# 1 0.011886 -0.005637 -0.002510 0.000000 0.000000 0.000000
# 2 -0.005637 0.014634 -0.003607 0.000000 0.000000 0.000000
# 3 -0.002510 -0.003607 0.011118 0.000000 0.000000 0.000000
# 4 0.000000 0.000000 0.000000 0.032284 0.000000 0.000000
# 5 0.000000 0.000000 0.000000 0.000000 0.036613 0.000000
# 6 0.000000 0.000000 0.000000 0.000000 0.000000 0.039162
#
#
# Mechanical properties :
#
#
# Convention : Reuss Voigt Hill
#
# Bulk Modulus (GPa) = 70.77669 71.21148 70.99409
# Shear Modulus (GPa) = 28.74960 29.31601 29.03280
#
# Velocity S-wave (km/s) = 3.85784 3.89566 3.87680
# Velocity P-wave (km/s) = 7.51554 7.55641 7.53600
#
# Compressibility (1/GPa) = 0.01412895
#
# Stress axis : x y z
#
# Youngs Moduli (GPa) = 84.13078 68.33262 89.94739
#
# Poissons Ratio (x) = 0.38520 0.22579
# Poissons Ratio (y) = 0.47425 0.32447
# Poissons Ratio (z) = 0.21119 0.24650
#
# Static dielectric constant tensor:
#      x y z
#    x 4.229050 0.000000 0.000000 
#    y 0.000000 2.527100 0.000000 
#    z 0.000000 0.000000 3.757530 
# 
# 
# High freq. dielectric constant tensor:
#      x y z
#    x 1.779160 0.000000 0.000000 
#    y 0.000000 1.718730 0.000000 
#    z 0.000000 0.000000 1.754420 
# 
# From -- ./inp_files/5513.got.cif
#   From: 2010.03.12/outbox.cif.g09.slc.cpg/sg63_3_cif.got.tgz:5513.got - 2010.04.10 19:34:48.
