data_PCOD8256476
_publ_section_title
;
Structure prediction by ZEFSAII (Michael W. Deem and Ramdas Pophale) SiO2 
 PCOD8256476
Probable space group: C M C M
;
_chemical_formula_sum "Si O2"
_cell_formula_units_Z 64
_cell_length_a 8.331807
_cell_length_b 14.644851
_cell_length_c 24.587270
_cell_angle_alpha 90.000000
_cell_angle_beta 90.000000
_cell_angle_gamma 90.000000
_cell_volume 3000.091283
_symmetry_space_group_name_H-M "C M C M"
_symmetry_group_IT_number 63
_symmetry_cell_setting 'orthorhombic'
loop_
_space_group_symop_operation_xyz
x,y,z
-x,-y,1/2+z
x,-y,-z
-x,y,1/2-z
-x,-y,-z
x,y,1/2-z
-x,y,z
x,-y,1/2+z
1/2+x,1/2+y,z
1/2-x,1/2-y,1/2+z
1/2+x,1/2-y,-z
1/2-x,1/2+y,1/2-z
1/2-x,1/2-y,-z
1/2+x,1/2+y,1/2-z
1/2-x,1/2+y,z
1/2+x,1/2-y,1/2+z
loop_
_atom_site_type_symbol
_atom_site_label
_atom_site_fract_x
_atom_site_fract_y
_atom_site_fract_z
Si Si1 0.187279 0.839476 0.750000
Si Si2 0.313060 0.144719 0.138459
Si Si3 0.684721 0.641082 0.750000
Si Si4 0.315408 0.844451 0.361726
Si Si5 0.313264 0.504625 0.937517
O O1 0.233823 0.892789 0.805100
O O2 0.000000 0.813809 0.750000
O O3 0.298214 0.750081 0.750000
O O4 0.500000 0.121447 0.138869
O O5 0.228837 0.092160 0.089219
O O6 0.287258 0.252650 0.129956
O O7 0.500000 0.610543 0.750000
O O8 0.767402 0.604390 0.694745
O O9 0.500000 0.815296 0.359523
O O10 0.286103 0.913406 0.410766
O O11 0.500000 0.526356 0.930789
O O12 0.261383 0.500000 0.000000
#
# Coordination Sequence:
#
# PCOD8256476 Si02
#       5
#     8  16   8  16  16
#     4  10  18  33  58  89 123 156 194 239 293 353
#     4  11  22  39  63  91 123 158 197 242 297 355
#     4  10  18  33  58  89 123 156 194 239 293 353
#     4  11  22  39  63  91 123 158 197 242 297 355
#     4  11  25  44  63  86 117 155 203 253 298 349
#
# _framework density 21.332684
#
# number of rings (size 3 to 8) (size 9 to 14) (size 15 to 20)
#    0.000    1.250    0.000   10.500    0.000    4.000 
#    0.000    5.000    0.000    0.000    0.000    0.000 
#    0.000    0.000    0.000    0.000    0.000    0.000 
#
# Total GULP energy -396880.253101 kJ/mol
# GULP energy per Si atom -12402.507909 kJ/mol
# Density = 2.128413 g / cm^3
# Si number density = 21.332684 Si / 1000 Ang^3
#
#
#
# Elastic Constant Matrix: (Units=GPa)
#
#
# Indices 1 2 3 4 5 6 
#
# 1 92.8653 -1.7567 42.7495 0.0000 0.0000 0.0000
# 2 -1.7567 70.0396 52.0024 0.0000 0.0000 0.0000
# 3 42.7495 52.0024 184.6560 0.0000 0.0000 0.0000
# 4 0.0000 0.0000 0.0000 39.7504 0.0000 0.0000
# 5 0.0000 0.0000 0.0000 0.0000 33.5486 0.0000
# 6 0.0000 0.0000 0.0000 0.0000 0.0000 29.7784
#
#
#
# Elastic Compliance Matrix: (Units=1/GPa)
#
#
# Indices 1 2 3 4 5 6 
#
# 1 0.012573 0.003131 -0.003793 0.000000 0.000000 0.000000
# 2 0.003131 0.018832 -0.006028 0.000000 0.000000 0.000000
# 3 -0.003793 -0.006028 0.007991 0.000000 0.000000 0.000000
# 4 0.000000 0.000000 0.000000 0.025157 0.000000 0.000000
# 5 0.000000 0.000000 0.000000 0.000000 0.029807 0.000000
# 6 0.000000 0.000000 0.000000 0.000000 0.000000 0.033581
#
#
# Mechanical properties :
#
#
# Convention : Reuss Voigt Hill
#
# Bulk Modulus (GPa) = 38.43606 59.28347 48.85977
# Shear Modulus (GPa) = 33.33456 37.58653 35.46054
#
# Velocity S-wave (km/s) = 3.95727 4.20208 4.08151
# Velocity P-wave (km/s) = 6.23991 7.16893 6.72050
#
# Compressibility (1/GPa) = 0.02601723
#
# Stress axis : x y z
#
# Youngs Moduli (GPa) = 79.53271 53.10095 125.13746
#
# Poissons Ratio (x) = -0.16628 0.47461
# Poissons Ratio (y) = -0.24904 0.75437
# Poissons Ratio (z) = 0.30164 0.32011
#
# Static dielectric constant tensor:
#      x y z
#    x 3.812030 0.000000 0.000000 
#    y 0.000000 3.474510 0.000000 
#    z 0.000000 0.000000 4.203700 
# 
# 
# High freq. dielectric constant tensor:
#      x y z
#    x 1.850000 0.000000 0.000000 
#    y 0.000000 1.820030 0.000000 
#    z 0.000000 0.000000 1.843740 
# 
# From -- ./inp_files/59112.got.cif
#   From: 2010.03.12/outbox.cif.g09.slc.cpg/sg63_30_cif.got.tgz:59112.got - 2010.04.10 19:34:48.
