data_PCOD8256250
_publ_section_title
;
Structure prediction by ZEFSAII (Michael W. Deem and Ramdas Pophale) SiO2 
 PCOD8256250
Probable space group: C M C M
;
_chemical_formula_sum "Si O2"
_cell_formula_units_Z 96
_cell_length_a 12.840915
_cell_length_b 18.873191
_cell_length_c 21.655664
_cell_angle_alpha 90.000000
_cell_angle_beta 90.000000
_cell_angle_gamma 90.000000
_cell_volume 5248.229411
_symmetry_space_group_name_H-M "C M C M"
_symmetry_group_IT_number 63
_symmetry_cell_setting 'orthorhombic'
loop_
_space_group_symop_operation_xyz
x,y,z
-x,-y,1/2+z
x,-y,-z
-x,y,1/2-z
-x,-y,-z
x,y,1/2-z
-x,y,z
x,-y,1/2+z
1/2+x,1/2+y,z
1/2-x,1/2-y,1/2+z
1/2+x,1/2-y,-z
1/2-x,1/2+y,1/2-z
1/2-x,1/2-y,-z
1/2+x,1/2+y,1/2-z
1/2-x,1/2+y,z
1/2+x,1/2-y,1/2+z
loop_
_atom_site_type_symbol
_atom_site_label
_atom_site_fract_x
_atom_site_fract_y
_atom_site_fract_z
Si Si1 0.680041 0.713143 0.820120
Si Si2 0.307410 0.641969 0.000854
Si Si3 0.614386 0.282152 0.679325
Si Si4 0.622960 0.576554 0.880073
Si Si5 0.617953 0.420575 0.881603
Si Si6 0.883326 0.716692 0.445368
O O1 0.652603 0.739415 0.750000
O O2 0.805310 0.717627 0.831398
O O3 0.643191 0.631456 0.824477
O O4 0.626523 0.760844 0.873095
O O5 0.302742 0.601716 0.935896
O O6 0.365310 0.716609 0.990709
O O7 0.372946 0.590293 0.045058
O O8 0.194487 0.654647 0.032468
O O9 0.597838 0.298745 0.750000
O O10 0.500000 0.264451 0.649642
O O11 0.670446 0.352425 0.650921
O O12 0.500000 0.576335 0.898515
O O13 0.662092 0.497666 0.861557
O O14 0.500000 0.418797 0.859238
O O15 0.000000 0.688179 0.455134
#
# Coordination Sequence:
#
# PCOD8256250 Si02
#       6
#    16  16  16  16  16  16
#     4  10  19  34  52  74 102 134 167 208 258 301
#     4  10  18  32  49  72 103 134 164 206 250 300
#     4   9  18  32  51  77 103 129 169 213 252 299
#     4  10  21  33  49  78 107 132 168 209 253 307
#     4  10  18  31  53  76 102 134 165 205 257 307
#     4  10  20  32  49  76 103 130 171 215 250 296
#
# _framework density 18.291882999999999
#
# number of rings (size 3 to 8) (size 9 to 14) (size 15 to 20)
#    0.000    2.167    1.667    3.500    0.000    3.333 
#    0.000    1.667    0.000    3.000    0.000    0.000 
#    0.000    0.000    0.000    0.000    0.000    0.000 
#
# Total GULP energy -594671.068735 kJ/mol
# GULP energy per Si atom -12388.980599 kJ/mol
# Density = 1.825025 g / cm^3
# Si number density = 18.291883 Si / 1000 Ang^3
#
#
#
# Elastic Constant Matrix: (Units=GPa)
#
#
# Indices 1 2 3 4 5 6 
#
# 1 82.3705 30.7727 33.8872 0.0000 0.0000 0.0000
# 2 30.7727 75.1208 14.2272 0.0000 0.0000 0.0000
# 3 33.8872 14.2272 57.1103 0.0000 0.0000 0.0000
# 4 0.0000 0.0000 0.0000 15.8804 0.0000 0.0000
# 5 0.0000 0.0000 0.0000 0.0000 21.7871 0.0000
# 6 0.0000 0.0000 0.0000 0.0000 0.0000 21.8870
#
#
#
# Elastic Compliance Matrix: (Units=1/GPa)
#
#
# Indices 1 2 3 4 5 6 
#
# 1 0.018084 -0.005642 -0.009325 0.000000 0.000000 0.000000
# 2 -0.005642 0.015731 -0.000571 0.000000 0.000000 0.000000
# 3 -0.009325 -0.000571 0.023185 0.000000 0.000000 0.000000
# 4 0.000000 0.000000 0.000000 0.062971 0.000000 0.000000
# 5 0.000000 0.000000 0.000000 0.000000 0.045899 0.000000
# 6 0.000000 0.000000 0.000000 0.000000 0.000000 0.045689
#
#
# Mechanical properties :
#
#
# Convention : Reuss Voigt Hill
#
# Bulk Modulus (GPa) = 38.57351 41.37507 39.97429
# Shear Modulus (GPa) = 19.89827 20.95853 20.42840
#
# Velocity S-wave (km/s) = 3.30179 3.38861 3.34548
# Velocity P-wave (km/s) = 5.97238 6.16269 6.06828
#
# Compressibility (1/GPa) = 0.02592453
#
# Stress axis : x y z
#
# Youngs Moduli (GPa) = 55.29623 63.56759 43.13052
#
# Poissons Ratio (x) = 0.35865 0.40220
# Poissons Ratio (y) = 0.31198 0.02463
# Poissons Ratio (z) = 0.51564 0.03631
#
# Static dielectric constant tensor:
#      x y z
#    x 3.439010 0.000000 0.000000 
#    y 0.000000 3.442920 0.000000 
#    z 0.000000 0.000000 3.403730 
# 
# 
# High freq. dielectric constant tensor:
#      x y z
#    x 1.688890 0.000000 0.000000 
#    y 0.000000 1.685870 0.000000 
#    z 0.000000 0.000000 1.712540 
# 
# From -- ./inp_files/61488.got.cif
#   From: 2010.03.12/outbox.cif.g09.slc.cpg/sg63_31_cif.got.tgz:61488.got - 2010.04.10 19:34:48.
