data_PCOD8256837
_publ_section_title
;
Structure prediction by ZEFSAII (Michael W. Deem and Ramdas Pophale) SiO2 
 PCOD8256837
Probable space group: C M C M
;
_chemical_formula_sum "Si O2"
_cell_formula_units_Z 80
_cell_length_a 9.142773
_cell_length_b 25.120387
_cell_length_c 20.056402
_cell_angle_alpha 90.000000
_cell_angle_beta 90.000000
_cell_angle_gamma 90.000000
_cell_volume 4606.353767
_symmetry_space_group_name_H-M "C M C M"
_symmetry_group_IT_number 63
_symmetry_cell_setting 'orthorhombic'
loop_
_space_group_symop_operation_xyz
x,y,z
-x,-y,1/2+z
x,-y,-z
-x,y,1/2-z
-x,-y,-z
x,y,1/2-z
-x,y,z
x,-y,1/2+z
1/2+x,1/2+y,z
1/2-x,1/2-y,1/2+z
1/2+x,1/2-y,-z
1/2-x,1/2+y,1/2-z
1/2-x,1/2-y,-z
1/2+x,1/2+y,1/2-z
1/2-x,1/2+y,z
1/2+x,1/2-y,1/2+z
loop_
_atom_site_type_symbol
_atom_site_label
_atom_site_fract_x
_atom_site_fract_y
_atom_site_fract_z
Si Si1 0.671352 0.025054 0.928797
Si Si2 0.833616 0.151392 0.099192
Si Si3 0.327506 0.367406 0.054065
Si Si4 0.330325 0.766057 0.433201
Si Si5 0.671946 0.936428 0.674781
O O1 0.500000 0.038421 0.922924
O O2 0.764216 0.078059 0.917046
O O3 0.725580 0.984316 0.872184
O O4 0.709560 0.000000 0.000000
O O5 0.815781 0.214593 0.115090
O O6 0.736607 0.119640 0.151454
O O7 0.000000 0.133336 0.109085
O O8 0.784983 0.137607 0.023730
O O9 0.500000 0.364384 0.065982
O O10 0.250064 0.318876 0.094810
O O11 0.500000 0.778682 0.447596
O O12 0.250000 0.750000 0.500000
O O13 0.722988 0.948676 0.750000
O O14 0.500000 0.930377 0.669503
#
# Coordination Sequence:
#
# PCOD8256837 Si02
#       5
#    16  16  16  16  16
#     4  10  19  32  51  74  99 134 173 211 255 303
#     4   9  18  31  48  72 101 131 164 204 249 299
#     4  10  19  30  48  76 104 132 166 209 255 297
#     4   9  17  29  46  72 103 132 162 200 247 297
#     4  10  21  35  51  73 101 133 170 210 255 306
#
# _framework density 17.367317
#
# number of rings (size 3 to 8) (size 9 to 14) (size 15 to 20)
#    0.000    2.400    2.000    2.400    0.000    5.600 
#    0.000    0.000    0.000    1.200    0.000    2.800 
#    0.000    0.000    0.000    0.000    0.000    0.000 
#
# Total GULP energy -495894.444549 kJ/mol
# GULP energy per Si atom -12397.361114 kJ/mol
# Density = 1.732779 g / cm^3
# Si number density = 17.367317 Si / 1000 Ang^3
#
#
#
# Elastic Constant Matrix: (Units=GPa)
#
#
# Indices 1 2 3 4 5 6 
#
# 1 75.1260 66.1179 31.2651 0.0000 0.0000 0.0000
# 2 66.1179 155.3508 52.4560 0.0000 0.0000 0.0000
# 3 31.2651 52.4560 82.0931 0.0000 0.0000 0.0000
# 4 0.0000 0.0000 0.0000 17.5492 0.0000 0.0000
# 5 0.0000 0.0000 0.0000 0.0000 16.0257 0.0000
# 6 0.0000 0.0000 0.0000 0.0000 0.0000 38.4302
#
#
#
# Elastic Compliance Matrix: (Units=1/GPa)
#
#
# Indices 1 2 3 4 5 6 
#
# 1 0.021860 -0.008279 -0.003035 0.000000 0.000000 0.000000
# 2 -0.008279 0.011343 -0.004095 0.000000 0.000000 0.000000
# 3 -0.003035 -0.004095 0.015954 0.000000 0.000000 0.000000
# 4 0.000000 0.000000 0.000000 0.056983 0.000000 0.000000
# 5 0.000000 0.000000 0.000000 0.000000 0.062400 0.000000
# 6 0.000000 0.000000 0.000000 0.000000 0.000000 0.026021
#
#
# Mechanical properties :
#
#
# Convention : Reuss Voigt Hill
#
# Bulk Modulus (GPa) = 54.52926 68.02755 61.27840
# Shear Modulus (GPa) = 21.59887 25.24974 23.42431
#
# Velocity S-wave (km/s) = 3.53037 3.81710 3.67653
# Velocity P-wave (km/s) = 6.93425 7.66041 7.30636
#
# Compressibility (1/GPa) = 0.01833878
#
# Stress axis : x y z
#
# Youngs Moduli (GPa) = 45.74464 88.15715 62.67982
#
# Poissons Ratio (x) = 0.72985 0.19026
# Poissons Ratio (y) = 0.37872 0.25668
# Poissons Ratio (z) = 0.13886 0.36102
#
# Static dielectric constant tensor:
#      x y z
#    x 3.262800 0.000000 0.000000 
#    y 0.000000 3.897150 0.000000 
#    z 0.000000 0.000000 2.942290 
# 
# 
# High freq. dielectric constant tensor:
#      x y z
#    x 1.676550 0.000000 0.000000 
#    y 0.000000 1.688360 0.000000 
#    z 0.000000 0.000000 1.616260 
# 
# From -- ./inp_files/40467.got.cif
#   From: 2010.03.12/outbox.cif.g09.slc.cpg/sg63_21_cif.got.tgz:40467.got - 2010.04.10 19:34:48.
