data_PCOD8256721
_publ_section_title
;
Structure prediction by ZEFSAII (Michael W. Deem and Ramdas Pophale) SiO2 
 PCOD8256721
Probable space group: C M C M
;
_chemical_formula_sum "Si O2"
_cell_formula_units_Z 72
_cell_length_a 33.065178
_cell_length_b 14.634174
_cell_length_c 9.309630
_cell_angle_alpha 90.000000
_cell_angle_beta 90.000000
_cell_angle_gamma 90.000000
_cell_volume 4504.758364
_symmetry_space_group_name_H-M "C M C M"
_symmetry_group_IT_number 63
_symmetry_cell_setting 'orthorhombic'
loop_
_space_group_symop_operation_xyz
x,y,z
-x,-y,1/2+z
x,-y,-z
-x,y,1/2-z
-x,-y,-z
x,y,1/2-z
-x,y,z
x,-y,1/2+z
1/2+x,1/2+y,z
1/2-x,1/2-y,1/2+z
1/2+x,1/2-y,-z
1/2-x,1/2+y,1/2-z
1/2-x,1/2-y,-z
1/2+x,1/2+y,1/2-z
1/2-x,1/2+y,z
1/2+x,1/2-y,1/2+z
loop_
_atom_site_type_symbol
_atom_site_label
_atom_site_fract_x
_atom_site_fract_y
_atom_site_fract_z
Si Si1 0.500000 0.091513 0.585601
Si Si2 0.162552 0.285042 0.417976
Si Si3 0.721670 0.090242 0.419068
Si Si4 0.684713 0.586275 0.414070
Si Si5 0.587470 0.905164 0.417282
O O1 0.500000 0.062781 0.750000
O O2 0.542946 0.140972 0.550128
O O3 0.500000 0.000000 0.500000
O O4 0.172678 0.301551 0.250000
O O5 0.198441 0.323805 0.515277
O O6 0.159097 0.176985 0.450223
O O7 0.120452 0.331050 0.465552
O O8 0.712778 0.081304 0.250000
O O9 0.768675 0.105543 0.453188
O O10 0.705477 0.000000 0.500000
O O11 0.667065 0.500000 0.500000
O O12 0.680475 0.558339 0.250000
O O13 0.592310 0.928150 0.250000
O O14 0.594176 0.000000 0.500000
#
# Coordination Sequence:
#
# PCOD8256721 Si02
#       5
#     8  16  16  16  16
#     4   8  14  26  42  60  83 112 138 160 193 242
#     4  10  19  30  44  64  87 110 139 178 215 248
#     4  10  19  30  44  62  85 114 143 173 209 251
#     4   9  19  33  46  60  81 110 145 181 215 248
#     4   9  17  28  43  63  88 113 137 165 200 244
#
# _framework density 15.983098999999999
#
# number of rings (size 3 to 8) (size 9 to 14) (size 15 to 20)
#    0.000    2.667    0.000    2.000    0.000    4.444 
#    0.000    0.000    0.000    0.000    0.000    0.778 
#    0.000    0.000    0.000    0.000    0.000    0.000 
#
# Total GULP energy -446165.435223 kJ/mol
# GULP energy per Si atom -12393.484312 kJ/mol
# Density = 1.594672 g / cm^3
# Si number density = 15.983099 Si / 1000 Ang^3
#
#
#
# Elastic Constant Matrix: (Units=GPa)
#
#
# Indices 1 2 3 4 5 6 
#
# 1 84.7385 59.1353 32.6650 0.0000 0.0000 0.0000
# 2 59.1353 107.4169 42.1037 0.0000 0.0000 0.0000
# 3 32.6650 42.1037 50.5785 0.0000 0.0000 0.0000
# 4 0.0000 0.0000 0.0000 26.1490 0.0000 0.0000
# 5 0.0000 0.0000 0.0000 0.0000 14.7484 0.0000
# 6 0.0000 0.0000 0.0000 0.0000 0.0000 16.9101
#
#
#
# Elastic Compliance Matrix: (Units=1/GPa)
#
#
# Indices 1 2 3 4 5 6 
#
# 1 0.020185 -0.008910 -0.005619 0.000000 0.000000 0.000000
# 2 -0.008910 0.017751 -0.009023 0.000000 0.000000 0.000000
# 3 -0.005619 -0.009023 0.030911 0.000000 0.000000 0.000000
# 4 0.000000 0.000000 0.000000 0.038242 0.000000 0.000000
# 5 0.000000 0.000000 0.000000 0.000000 0.067804 0.000000
# 6 0.000000 0.000000 0.000000 0.000000 0.000000 0.059136
#
#
# Mechanical properties :
#
#
# Convention : Reuss Voigt Hill
#
# Bulk Modulus (GPa) = 45.98954 56.72688 51.35821
# Shear Modulus (GPa) = 17.33823 18.81683 18.07753
#
# Velocity S-wave (km/s) = 3.29718 3.43490 3.36674
# Velocity P-wave (km/s) = 6.58267 7.16242 6.87865
#
# Compressibility (1/GPa) = 0.02174408
#
# Stress axis : x y z
#
# Youngs Moduli (GPa) = 49.54252 56.33489 32.35088
#
# Poissons Ratio (x) = 0.50192 0.18178
# Poissons Ratio (y) = 0.44140 0.29189
# Poissons Ratio (z) = 0.27839 0.50829
#
# Static dielectric constant tensor:
#      x y z
#    x 3.428770 0.000000 0.000000 
#    y 0.000000 2.914080 0.000000 
#    z 0.000000 0.000000 3.045840 
# 
# 
# High freq. dielectric constant tensor:
#      x y z
#    x 1.602260 0.000000 0.000000 
#    y 0.000000 1.591170 0.000000 
#    z 0.000000 0.000000 1.619330 
# 
# From -- ./inp_files/13923.got.cif
#   From: 2010.03.12/outbox.cif.g09.slc.cpg/sg63_7_cif.got.tgz:13923.got - 2010.04.10 19:34:48.
