data_PCOD8256933
_publ_section_title
;
Structure prediction by ZEFSAII (Michael W. Deem and Ramdas Pophale) SiO2 
 PCOD8256933
Probable space group: C M C M
;
_chemical_formula_sum "Si O2"
_cell_formula_units_Z 128
_cell_length_a 19.399558
_cell_length_b 20.667038
_cell_length_c 18.960491
_cell_angle_alpha 90.000000
_cell_angle_beta 90.000000
_cell_angle_gamma 90.000000
_cell_volume 7601.856246
_symmetry_space_group_name_H-M "C M C M"
_symmetry_group_IT_number 63
_symmetry_cell_setting 'orthorhombic'
loop_
_space_group_symop_operation_xyz
x,y,z
-x,-y,1/2+z
x,-y,-z
-x,y,1/2-z
-x,-y,-z
x,y,1/2-z
-x,y,z
x,-y,1/2+z
1/2+x,1/2+y,z
1/2-x,1/2-y,1/2+z
1/2+x,1/2-y,-z
1/2-x,1/2+y,1/2-z
1/2-x,1/2-y,-z
1/2+x,1/2+y,1/2-z
1/2-x,1/2+y,z
1/2+x,1/2-y,1/2+z
loop_
_atom_site_type_symbol
_atom_site_label
_atom_site_fract_x
_atom_site_fract_y
_atom_site_fract_z
Si Si1 0.075884 0.656679 0.668889
Si Si2 0.196769 0.986043 0.831916
Si Si3 0.298255 0.658780 0.168538
Si Si4 0.420752 0.684035 0.927769
Si Si5 0.920451 0.032698 0.573556
Si Si6 0.300313 0.726056 0.833352
Si Si7 0.922497 0.788382 0.913062
Si Si8 0.715231 0.102046 0.667176
O O1 0.087371 0.679604 0.750000
O O2 0.084424 0.717233 0.618231
O O3 0.134120 0.604712 0.647057
O O4 0.000000 0.625127 0.659869
O O5 0.184726 0.999202 0.750000
O O6 0.227436 0.914424 0.844530
O O7 0.122766 0.996351 0.866920
O O8 0.251353 0.037166 0.865394
O O9 0.315892 0.672062 0.250000
O O10 0.238698 0.708078 0.143632
O O11 0.368680 0.665280 0.125182
O O12 0.500000 0.694550 0.905202
O O13 0.401950 0.608346 0.928845
O O14 0.373807 0.722325 0.871868
O O15 0.405992 0.714399 0.004188
O O16 0.000000 0.021501 0.592171
O O17 0.900809 0.000000 0.500000
O O18 0.313928 0.724235 0.750000
O O19 0.253368 0.666501 0.860151
O O20 0.000000 0.816002 0.901177
O O21 0.724332 0.098734 0.750000
#
# Coordination Sequence:
#
# PCOD8256933 Si02
#       8
#    16  16  16  16  16  16  16  16
#     4   9  16  28  49  74  99 127 157 193 244 302
#     4  10  20  33  50  71  97 129 164 202 239 286
#     4  10  20  33  50  74 102 132 162 197 247 297
#     4  10  21  34  50  72  97 131 172 207 242 284
#     4  10  20  34  49  67  98 136 166 198 241 287
#     4  10  19  34  53  72  97 128 164 209 250 285
#     4  10  19  31  47  72 104 132 158 194 241 295
#     4   9  16  30  50  72  97 125 158 201 244 282
#
# _framework density 16.837992
#
# number of rings (size 3 to 8) (size 9 to 14) (size 15 to 20)
#    0.000    2.250    2.500    1.125    0.000    3.250 
#    0.000    2.500    0.000    0.750    0.000    3.500 
#    0.000    3.500    0.000    0.000    0.000    0.000 
#
# Total GULP energy -793464.225000 kJ/mol
# GULP energy per Si atom -12397.878516 kJ/mol
# Density = 1.679967 g / cm^3
# Si number density = 16.837992 Si / 1000 Ang^3
#
#
#
# Elastic Constant Matrix: (Units=GPa)
#
#
# Indices 1 2 3 4 5 6 
#
# 1 118.6273 67.8266 51.4661 0.0000 0.0000 0.0000
# 2 67.8266 108.4827 42.3761 0.0000 0.0000 0.0000
# 3 51.4661 42.3761 58.2446 0.0000 0.0000 0.0000
# 4 0.0000 0.0000 0.0000 12.1564 0.0000 0.0000
# 5 0.0000 0.0000 0.0000 0.0000 23.5271 0.0000
# 6 0.0000 0.0000 0.0000 0.0000 0.0000 23.5040
#
#
#
# Elastic Compliance Matrix: (Units=1/GPa)
#
#
# Indices 1 2 3 4 5 6 
#
# 1 0.016323 -0.006387 -0.009777 0.000000 0.000000 0.000000
# 2 -0.006387 0.015377 -0.005544 0.000000 0.000000 0.000000
# 3 -0.009777 -0.005544 0.029842 0.000000 0.000000 0.000000
# 4 0.000000 0.000000 0.000000 0.082261 0.000000 0.000000
# 5 0.000000 0.000000 0.000000 0.000000 0.042504 0.000000
# 6 0.000000 0.000000 0.000000 0.000000 0.000000 0.042546
#
#
# Mechanical properties :
#
#
# Convention : Reuss Voigt Hill
#
# Bulk Modulus (GPa) = 55.16805 67.63246 61.40026
# Shear Modulus (GPa) = 17.96559 20.08322 19.02440
#
# Velocity S-wave (km/s) = 3.26999 3.45734 3.36497
# Velocity P-wave (km/s) = 6.86238 7.49609 7.18623
#
# Compressibility (1/GPa) = 0.01812643
#
# Stress axis : x y z
#
# Youngs Moduli (GPa) = 61.26348 65.03292 33.51025
#
# Poissons Ratio (x) = 0.41534 0.32762
# Poissons Ratio (y) = 0.39126 0.18579
# Poissons Ratio (z) = 0.59896 0.36056
#
# Static dielectric constant tensor:
#      x y z
#    x 3.299380 0.000000 0.000000 
#    y 0.000000 3.218070 0.000000 
#    z 0.000000 0.000000 3.007950 
# 
# 
# High freq. dielectric constant tensor:
#      x y z
#    x 1.650150 0.000000 0.000000 
#    y 0.000000 1.637880 0.000000 
#    z 0.000000 0.000000 1.632980 
# 
# From -- ./inp_files/56042.got.cif
#   From: 2010.03.12/outbox.cif.g09.slc.cpg/sg63_29_cif.got.tgz:56042.got - 2010.04.10 19:34:48.
