data_PCOD8256904
_publ_section_title
;
Structure prediction by ZEFSAII (Michael W. Deem and Ramdas Pophale) SiO2 
 PCOD8256904
Probable space group: C M C M
;
_chemical_formula_sum "Si O2"
_cell_formula_units_Z 80
_cell_length_a 24.160106
_cell_length_b 23.318911
_cell_length_c 9.108219
_cell_angle_alpha 90.000000
_cell_angle_beta 90.000000
_cell_angle_gamma 90.000000
_cell_volume 5131.455471
_symmetry_space_group_name_H-M "C M C M"
_symmetry_group_IT_number 63
_symmetry_cell_setting 'orthorhombic'
loop_
_space_group_symop_operation_xyz
x,y,z
-x,-y,1/2+z
x,-y,-z
-x,y,1/2-z
-x,-y,-z
x,y,1/2-z
-x,y,z
x,-y,1/2+z
1/2+x,1/2+y,z
1/2-x,1/2-y,1/2+z
1/2+x,1/2-y,-z
1/2-x,1/2+y,1/2-z
1/2-x,1/2-y,-z
1/2+x,1/2+y,1/2-z
1/2-x,1/2+y,z
1/2+x,1/2-y,1/2+z
loop_
_atom_site_type_symbol
_atom_site_label
_atom_site_fract_x
_atom_site_fract_y
_atom_site_fract_z
Si Si1 0.561083 0.234536 0.579718
Si Si2 0.825894 0.219823 0.418170
Si Si3 0.561175 0.883427 0.920991
Si Si4 0.327949 0.941363 0.923586
Si Si5 0.766835 0.339353 0.419741
O O1 0.564174 0.218696 0.750000
O O2 0.500000 0.258757 0.537303
O O3 0.608449 0.281417 0.542642
O O4 0.574387 0.176201 0.497303
O O5 0.814725 0.201705 0.250000
O O6 0.805566 0.284596 0.445547
O O7 0.795037 0.175537 0.524634
O O8 0.564121 0.870441 0.750000
O O9 0.500000 0.906655 0.966342
O O10 0.607848 0.929286 0.965887
O O11 0.319375 0.946360 0.750000
O O12 0.289265 0.891309 0.984102
O O13 0.309712 0.000000 0.000000
O O14 0.764266 0.357508 0.250000
#
# Coordination Sequence:
#
# PCOD8256904 Si02
#       5
#    16  16  16  16  16
#     4   9  16  27  45  68  93 120 150 185 225 269
#     4   9  17  29  46  68  93 119 148 185 228 275
#     4   9  18  31  45  62  86 117 154 194 232 268
#     4  11  22  34  48  64  88 119 155 197 236 273
#     4  10  19  31  47  67  89 117 154 190 229 273
#
# _framework density 15.590118
#
# number of rings (size 3 to 8) (size 9 to 14) (size 15 to 20)
#    0.000    2.400    2.000    1.200    0.000    2.800 
#    0.000    0.000    0.000    0.000    0.000    0.000 
#    0.000    0.800    0.000    2.200    0.000    3.200 
#
# Total GULP energy -495871.564676 kJ/mol
# GULP energy per Si atom -12396.789117 kJ/mol
# Density = 1.555463 g / cm^3
# Si number density = 15.590118 Si / 1000 Ang^3
#
#
#
# Elastic Constant Matrix: (Units=GPa)
#
#
# Indices 1 2 3 4 5 6 
#
# 1 96.2952 43.6023 38.7921 0.0000 0.0000 0.0000
# 2 43.6023 62.4006 35.6309 0.0000 0.0000 0.0000
# 3 38.7921 35.6309 52.8447 0.0000 0.0000 0.0000
# 4 0.0000 0.0000 0.0000 24.8058 0.0000 0.0000
# 5 0.0000 0.0000 0.0000 0.0000 21.2479 0.0000
# 6 0.0000 0.0000 0.0000 0.0000 0.0000 17.1719
#
#
#
# Elastic Compliance Matrix: (Units=1/GPa)
#
#
# Indices 1 2 3 4 5 6 
#
# 1 0.016698 -0.007591 -0.007139 0.000000 0.000000 0.000000
# 2 -0.007591 0.029509 -0.014324 0.000000 0.000000 0.000000
# 3 -0.007139 -0.014324 0.033822 0.000000 0.000000 0.000000
# 4 0.000000 0.000000 0.000000 0.040313 0.000000 0.000000
# 5 0.000000 0.000000 0.000000 0.000000 0.047064 0.000000
# 6 0.000000 0.000000 0.000000 0.000000 0.000000 0.058235
#
#
# Mechanical properties :
#
#
# Convention : Reuss Voigt Hill
#
# Bulk Modulus (GPa) = 45.62008 49.73234 47.67621
# Shear Modulus (GPa) = 17.17882 18.87946 18.02914
#
# Velocity S-wave (km/s) = 3.32310 3.48370 3.40435
# Velocity P-wave (km/s) = 6.63699 6.93907 6.78971
#
# Compressibility (1/GPa) = 0.02192017
#
# Stress axis : x y z
#
# Youngs Moduli (GPa) = 59.88740 33.88810 29.56638
#
# Poissons Ratio (x) = 0.25725 0.21108
# Poissons Ratio (y) = 0.45462 0.42351
# Poissons Ratio (z) = 0.42755 0.48542
#
# Static dielectric constant tensor:
#      x y z
#    x 3.306860 0.000000 0.000000 
#    y 0.000000 2.605920 0.000000 
#    z 0.000000 0.000000 3.262110 
# 
# 
# High freq. dielectric constant tensor:
#      x y z
#    x 1.602760 0.000000 0.000000 
#    y 0.000000 1.550000 0.000000 
#    z 0.000000 0.000000 1.607830 
# 
# From -- ./inp_files/12004.got.cif
#   From: 2010.03.12/outbox.cif.g09.slc.cpg/sg63_7_cif.got.tgz:12004.got - 2010.04.10 19:34:48.
