data_PCOD8256953
_publ_section_title
;
Structure prediction by ZEFSAII (Michael W. Deem and Ramdas Pophale) SiO2 
 PCOD8256953
Probable space group: C M C M
;
_chemical_formula_sum "Si O2"
_cell_formula_units_Z 80
_cell_length_a 14.939912
_cell_length_b 33.139209
_cell_length_c 9.014531
_cell_angle_alpha 90.000000
_cell_angle_beta 90.000000
_cell_angle_gamma 90.000000
_cell_volume 4463.066048
_symmetry_space_group_name_H-M "C M C M"
_symmetry_group_IT_number 63
_symmetry_cell_setting 'orthorhombic'
loop_
_space_group_symop_operation_xyz
x,y,z
-x,-y,1/2+z
x,-y,-z
-x,y,1/2-z
-x,-y,-z
x,y,1/2-z
-x,y,z
x,-y,1/2+z
1/2+x,1/2+y,z
1/2-x,1/2-y,1/2+z
1/2+x,1/2-y,-z
1/2-x,1/2+y,1/2-z
1/2-x,1/2-y,-z
1/2+x,1/2+y,1/2-z
1/2-x,1/2+y,z
1/2+x,1/2-y,1/2+z
loop_
_atom_site_type_symbol
_atom_site_label
_atom_site_fract_x
_atom_site_fract_y
_atom_site_fract_z
Si Si1 0.343033 0.760551 0.574374
Si Si2 0.402047 0.686475 0.082808
Si Si3 0.397741 0.458296 0.924973
Si Si4 0.279673 0.615192 0.073563
Si Si5 0.901245 0.348825 0.926176
O O1 0.334386 0.760132 0.750000
O O2 0.250000 0.750000 0.500000
O O3 0.410180 0.725968 0.519571
O O4 0.377933 0.803892 0.517692
O O5 0.372412 0.698714 0.250000
O O6 0.500000 0.665952 0.085751
O O7 0.332152 0.654558 0.014657
O O8 0.387764 0.463381 0.750000
O O9 0.500000 0.446394 0.966856
O O10 0.328284 0.424849 0.988439
O O11 0.369698 0.500000 0.000000
O O12 0.286946 0.614535 0.250000
O O13 0.175805 0.619463 0.020371
O O14 0.903291 0.348539 0.750000
O O15 0.000000 0.361515 0.987360
#
# Coordination Sequence:
#
# PCOD8256953 Si02
#       5
#    16  16  16  16  16
#     4  11  20  32  48  67  95 129 167 207 247 286
#     4  10  19  31  48  70  96 127 162 200 243 290
#     4   9  17  30  50  74  98 124 152 186 231 286
#     4   9  16  29  48  70  95 124 159 195 234 286
#     4   9  17  29  47  69  92 121 161 205 240 274
#
# _framework density 17.924897000000001
#
# number of rings (size 3 to 8) (size 9 to 14) (size 15 to 20)
#    0.000    2.400    2.000    1.800    0.000    3.600 
#    0.000    1.000    0.000    3.000    0.000    0.000 
#    0.000    0.000    0.000    0.000    0.000    0.000 
#
# Total GULP energy -495701.940100 kJ/mol
# GULP energy per Si atom -12392.548503 kJ/mol
# Density = 1.788410 g / cm^3
# Si number density = 17.924897 Si / 1000 Ang^3
#
#
#
# Elastic Constant Matrix: (Units=GPa)
#
#
# Indices 1 2 3 4 5 6 
#
# 1 156.2593 75.5968 16.1366 0.0000 0.0000 0.0000
# 2 75.5968 123.9412 19.2406 0.0000 0.0000 0.0000
# 3 16.1366 19.2406 26.5591 0.0000 0.0000 0.0000
# 4 0.0000 0.0000 0.0000 23.5743 0.0000 0.0000
# 5 0.0000 0.0000 0.0000 0.0000 15.1221 0.0000
# 6 0.0000 0.0000 0.0000 0.0000 0.0000 33.0202
#
#
#
# Elastic Compliance Matrix: (Units=1/GPa)
#
#
# Indices 1 2 3 4 5 6 
#
# 1 0.009147 -0.005314 -0.001708 0.000000 0.000000 0.000000
# 2 -0.005314 0.012178 -0.005594 0.000000 0.000000 0.000000
# 3 -0.001708 -0.005594 0.042742 0.000000 0.000000 0.000000
# 4 0.000000 0.000000 0.000000 0.042419 0.000000 0.000000
# 5 0.000000 0.000000 0.000000 0.000000 0.066128 0.000000
# 6 0.000000 0.000000 0.000000 0.000000 0.000000 0.030285
#
#
# Mechanical properties :
#
#
# Convention : Reuss Voigt Hill
#
# Bulk Modulus (GPa) = 25.74936 58.74528 42.24732
# Shear Modulus (GPa) = 20.74051 27.39569 24.06810
#
# Velocity S-wave (km/s) = 3.40528 3.91367 3.66829
# Velocity P-wave (km/s) = 5.46420 7.29839 6.44686
#
# Compressibility (1/GPa) = 0.03883592
#
# Stress axis : x y z
#
# Youngs Moduli (GPa) = 109.32801 82.11629 23.39635
#
# Poissons Ratio (x) = 0.43636 0.03995
# Poissons Ratio (y) = 0.58096 0.13087
# Poissons Ratio (z) = 0.18670 0.45933
#
# Static dielectric constant tensor:
#      x y z
#    x 3.728730 0.000000 0.000000 
#    y 0.000000 3.384370 0.000000 
#    z 0.000000 0.000000 3.015390 
# 
# 
# High freq. dielectric constant tensor:
#      x y z
#    x 1.707200 0.000000 0.000000 
#    y 0.000000 1.673450 0.000000 
#    z 0.000000 0.000000 1.647940 
# 
# From -- ./inp_files/6655.got.cif
#   From: 2010.03.12/outbox.cif.g09.slc.cpg/sg63_4_cif.got.tgz:6655.got - 2010.04.10 19:34:48.
