data_PCOD8256609
_publ_section_title
;
Structure prediction by ZEFSAII (Michael W. Deem and Ramdas Pophale) SiO2 
 PCOD8256609
Probable space group: C M C M
;
_chemical_formula_sum "Si O2"
_cell_formula_units_Z 96
_cell_length_a 9.533767
_cell_length_b 19.217700
_cell_length_c 30.583636
_cell_angle_alpha 90.000000
_cell_angle_beta 90.000000
_cell_angle_gamma 90.000000
_cell_volume 5603.444303
_symmetry_space_group_name_H-M "C M C M"
_symmetry_group_IT_number 63
_symmetry_cell_setting 'orthorhombic'
loop_
_space_group_symop_operation_xyz
x,y,z
-x,-y,1/2+z
x,-y,-z
-x,y,1/2-z
-x,-y,-z
x,y,1/2-z
-x,y,z
x,-y,1/2+z
1/2+x,1/2+y,z
1/2-x,1/2-y,1/2+z
1/2+x,1/2-y,-z
1/2-x,1/2+y,1/2-z
1/2-x,1/2-y,-z
1/2+x,1/2+y,1/2-z
1/2-x,1/2+y,z
1/2+x,1/2-y,1/2+z
loop_
_atom_site_type_symbol
_atom_site_label
_atom_site_fract_x
_atom_site_fract_y
_atom_site_fract_z
Si Si1 0.659931 0.652460 0.698870
Si Si2 0.842233 0.922198 0.051365
Si Si3 0.666070 0.809908 0.701832
Si Si4 0.337644 0.093634 0.375000
Si Si5 0.836842 0.430470 0.131957
Si Si6 0.342924 0.412792 0.955033
O O1 0.673453 0.637064 0.750000
O O2 0.500000 0.639272 0.683333
O O3 0.706313 0.731447 0.688423
O O4 0.765305 0.601080 0.674620
O O5 0.734718 0.897233 0.088706
O O6 0.000000 0.897348 0.063169
O O7 0.838765 0.004691 0.048268
O O8 0.796280 0.890627 0.004207
O O9 0.728701 0.827867 0.750000
O O10 0.500000 0.816658 0.704581
O O11 0.725901 0.863483 0.665931
O O12 0.500000 0.110801 0.382051
O O13 0.260331 0.119638 0.418974
O O14 0.312272 0.012813 0.365657
O O15 0.000000 0.411154 0.131055
O O16 0.500000 0.385679 0.945784
#
# Coordination Sequence:
#
# PCOD8256609 Si02
#       6
#    16  16  16  16  16  16
#     4   9  18  33  51  66  83 116 158 190 216 257
#     4   8  14  26  43  62  88 123 156 181 211 259
#     4   8  15  30  50  67  84 114 156 189 214 259
#     4   9  17  28  45  70  95 118 145 182 228 270
#     4  10  19  28  43  71 100 120 141 180 232 272
#     4   8  14  25  42  64  90 120 151 183 219 259
#
# _framework density 17.132321000000001
#
# number of rings (size 3 to 8) (size 9 to 14) (size 15 to 20)
#    0.000    3.333    0.000    2.500    0.000    2.333 
#    0.000    5.833    0.000    2.500    0.000    0.000 
#    0.000    0.000    0.000    0.000    0.000    0.000 
#
# Total GULP energy -594914.105076 kJ/mol
# GULP energy per Si atom -12394.043856 kJ/mol
# Density = 1.709333 g / cm^3
# Si number density = 17.132321 Si / 1000 Ang^3
#
#
#
# Elastic Constant Matrix: (Units=GPa)
#
#
# Indices 1 2 3 4 5 6 
#
# 1 86.0174 33.7113 67.7925 0.0000 0.0000 0.0000
# 2 33.7113 35.1707 42.1074 0.0000 0.0000 0.0000
# 3 67.7925 42.1074 122.3395 0.0000 0.0000 0.0000
# 4 0.0000 0.0000 0.0000 6.5741 0.0000 0.0000
# 5 0.0000 0.0000 0.0000 0.0000 34.0897 0.0000
# 6 0.0000 0.0000 0.0000 0.0000 0.0000 13.3468
#
#
#
# Elastic Compliance Matrix: (Units=1/GPa)
#
#
# Indices 1 2 3 4 5 6 
#
# 1 0.023125 -0.011607 -0.008820 0.000000 0.000000 0.000000
# 2 -0.011607 0.054186 -0.012218 0.000000 0.000000 0.000000
# 3 -0.008820 -0.012218 0.017267 0.000000 0.000000 0.000000
# 4 0.000000 0.000000 0.000000 0.152112 0.000000 0.000000
# 5 0.000000 0.000000 0.000000 0.000000 0.029334 0.000000
# 6 0.000000 0.000000 0.000000 0.000000 0.000000 0.074924
#
#
# Mechanical properties :
#
#
# Convention : Reuss Voigt Hill
#
# Bulk Modulus (GPa) = 34.14293 58.97224 46.55759
# Shear Modulus (GPa) = 11.73705 17.46321 14.60013
#
# Velocity S-wave (km/s) = 2.62025 3.19613 2.92241
# Velocity P-wave (km/s) = 5.39690 6.93662 6.21463
#
# Compressibility (1/GPa) = 0.02928864
#
# Stress axis : x y z
#
# Youngs Moduli (GPa) = 43.24248 18.45494 57.91483
#
# Poissons Ratio (x) = 0.21420 0.51080
# Poissons Ratio (y) = 0.50190 0.70763
# Poissons Ratio (z) = 0.38139 0.22549
#
# Static dielectric constant tensor:
#      x y z
#    x 3.119170 0.000000 0.000000 
#    y 0.000000 2.875760 0.000000 
#    z 0.000000 0.000000 3.679140 
# 
# 
# High freq. dielectric constant tensor:
#      x y z
#    x 1.643760 0.000000 0.000000 
#    y 0.000000 1.618840 0.000000 
#    z 0.000000 0.000000 1.675690 
# 
# From -- ./inp_files/67225.got.cif
#   From: 2010.03.12/outbox.cif.g09.slc.cpg/sg63_34_cif.got.tgz:67225.got - 2010.04.10 19:34:48.
