data_PCOD8256036
_publ_section_title
;
Structure prediction by ZEFSAII (Michael W. Deem and Ramdas Pophale) SiO2 
 PCOD8256036
Probable space group: C M C M
;
_chemical_formula_sum "Si O2"
_cell_formula_units_Z 80
_cell_length_a 9.227890
_cell_length_b 25.136477
_cell_length_c 19.819432
_cell_angle_alpha 90.000000
_cell_angle_beta 90.000000
_cell_angle_gamma 90.000000
_cell_volume 4597.248947
_symmetry_space_group_name_H-M "C M C M"
_symmetry_group_IT_number 63
_symmetry_cell_setting 'orthorhombic'
loop_
_space_group_symop_operation_xyz
x,y,z
-x,-y,1/2+z
x,-y,-z
-x,y,1/2-z
-x,-y,-z
x,y,1/2-z
-x,y,z
x,-y,1/2+z
1/2+x,1/2+y,z
1/2-x,1/2-y,1/2+z
1/2+x,1/2-y,-z
1/2-x,1/2+y,1/2-z
1/2-x,1/2-y,-z
1/2+x,1/2+y,1/2-z
1/2-x,1/2+y,z
1/2+x,1/2-y,1/2+z
loop_
_atom_site_type_symbol
_atom_site_label
_atom_site_fract_x
_atom_site_fract_y
_atom_site_fract_z
Si Si1 0.831521 0.730066 0.434755
Si Si2 0.333338 0.683292 0.672498
Si Si3 0.832863 0.611086 0.052473
Si Si4 0.169351 0.591039 0.897402
Si Si5 0.336251 0.488971 0.579039
O O1 0.750000 0.750000 0.500000
O O2 0.786856 0.765105 0.370400
O O3 0.791423 0.668917 0.418571
O O4 0.000000 0.734654 0.451797
O O5 0.308845 0.698521 0.750000
O O6 0.500000 0.667810 0.657754
O O7 0.233299 0.633625 0.654239
O O8 0.737028 0.568165 0.092711
O O9 0.000000 0.596410 0.064846
O O10 0.798186 0.611046 0.972871
O O11 0.246486 0.534690 0.882871
O O12 0.000000 0.584017 0.883588
O O13 0.331949 0.500000 0.500000
O O14 0.500000 0.488215 0.606802
#
# Coordination Sequence:
#
# PCOD8256036 Si02
#       5
#    16  16  16  16  16
#     4  10  19  32  51  74 102 134 172 214 258 307
#     4  10  21  35  51  73 103 138 172 209 256 310
#     4   9  17  29  46  72 101 130 165 209 257 299
#     4  10  18  30  49  72 100 131 166 210 256 302
#     4   9  17  28  45  71 100 130 163 200 248 304
#
# _framework density 17.401712
#
# number of rings (size 3 to 8) (size 9 to 14) (size 15 to 20)
#    0.000    2.400    2.000    1.200    0.000    4.400 
#    0.000    0.000    0.000    1.200    0.000    2.800 
#    0.000    0.000    0.000    0.000    0.000    0.000 
#
# Total GULP energy -496058.356318 kJ/mol
# GULP energy per Si atom -12401.458908 kJ/mol
# Density = 1.736210 g / cm^3
# Si number density = 17.401712 Si / 1000 Ang^3
#
#
#
# Elastic Constant Matrix: (Units=GPa)
#
#
# Indices 1 2 3 4 5 6 
#
# 1 97.2169 75.0853 41.0856 0.0000 0.0000 0.0000
# 2 75.0853 162.1908 56.1907 0.0000 0.0000 0.0000
# 3 41.0856 56.1907 66.4270 0.0000 0.0000 0.0000
# 4 0.0000 0.0000 0.0000 20.4557 0.0000 0.0000
# 5 0.0000 0.0000 0.0000 0.0000 17.6022 0.0000
# 6 0.0000 0.0000 0.0000 0.0000 0.0000 33.8296
#
#
#
# Elastic Compliance Matrix: (Units=1/GPa)
#
#
# Indices 1 2 3 4 5 6 
#
# 1 0.017355 -0.006105 -0.005570 0.000000 0.000000 0.000000
# 2 -0.006105 0.010869 -0.005418 0.000000 0.000000 0.000000
# 3 -0.005570 -0.005418 0.023083 0.000000 0.000000 0.000000
# 4 0.000000 0.000000 0.000000 0.048886 0.000000 0.000000
# 5 0.000000 0.000000 0.000000 0.000000 0.056811 0.000000
# 6 0.000000 0.000000 0.000000 0.000000 0.000000 0.029560
#
#
# Mechanical properties :
#
#
# Convention : Reuss Voigt Hill
#
# Bulk Modulus (GPa) = 58.41018 74.50643 66.45831
# Shear Modulus (GPa) = 22.07921 24.60906 23.34414
#
# Velocity S-wave (km/s) = 3.56588 3.76463 3.66660
# Velocity P-wave (km/s) = 7.11285 7.86162 7.49659
#
# Compressibility (1/GPa) = 0.01712030
#
# Stress axis : x y z
#
# Youngs Moduli (GPa) = 57.61883 92.00624 43.32246
#
# Poissons Ratio (x) = 0.56167 0.24133
# Poissons Ratio (y) = 0.35175 0.23473
# Poissons Ratio (z) = 0.32096 0.49850
#
# Static dielectric constant tensor:
#      x y z
#    x 3.322690 0.000000 0.000000 
#    y 0.000000 3.467310 0.000000 
#    z 0.000000 0.000000 2.849400 
# 
# 
# High freq. dielectric constant tensor:
#      x y z
#    x 1.678310 0.000000 0.000000 
#    y 0.000000 1.686200 0.000000 
#    z 0.000000 0.000000 1.621550 
# 
# From -- ./inp_files/40472.got.cif
#   From: 2010.03.12/outbox.cif.g09.slc.cpg/sg63_21_cif.got.tgz:40472.got - 2010.04.10 19:34:48.
