data_PCOD8256951
_publ_section_title
;
Structure prediction by ZEFSAII (Michael W. Deem and Ramdas Pophale) SiO2 
 PCOD8256951
Probable space group: C M C M
;
_chemical_formula_sum "Si O2"
_cell_formula_units_Z 96
_cell_length_a 31.300897
_cell_length_b 19.217969
_cell_length_c 9.011246
_cell_angle_alpha 90.000000
_cell_angle_beta 90.000000
_cell_angle_gamma 90.000000
_cell_volume 5420.621929
_symmetry_space_group_name_H-M "C M C M"
_symmetry_group_IT_number 63
_symmetry_cell_setting 'orthorhombic'
loop_
_space_group_symop_operation_xyz
x,y,z
-x,-y,1/2+z
x,-y,-z
-x,y,1/2-z
-x,-y,-z
x,y,1/2-z
-x,y,z
x,-y,1/2+z
1/2+x,1/2+y,z
1/2-x,1/2-y,1/2+z
1/2+x,1/2-y,-z
1/2-x,1/2+y,1/2-z
1/2-x,1/2-y,-z
1/2+x,1/2+y,1/2-z
1/2-x,1/2+y,z
1/2+x,1/2-y,1/2+z
loop_
_atom_site_type_symbol
_atom_site_label
_atom_site_fract_x
_atom_site_fract_y
_atom_site_fract_z
Si Si1 0.840609 0.926293 0.422821
Si Si2 0.000000 0.336061 0.082846
Si Si3 0.500000 0.670580 0.082308
Si Si4 0.584745 0.673364 0.575027
Si Si5 0.084278 0.332400 0.923596
Si Si6 0.335498 0.924810 0.926150
Si Si7 0.246533 0.574307 0.576101
O O1 0.847006 0.940395 0.250000
O O2 0.875059 0.871214 0.482852
O O3 0.793433 0.892462 0.451446
O O4 0.847236 0.000000 0.500000
O O5 0.000000 0.364011 0.250000
O O6 0.000000 0.253319 0.073949
O O7 0.957429 0.364254 0.003192
O O8 0.500000 0.642885 0.250000
O O9 0.457743 0.642308 0.000841
O O10 0.578689 0.667157 0.750000
O O11 0.592857 0.752991 0.526993
O O12 0.075544 0.336969 0.750000
O O13 0.124833 0.377233 0.972411
O O14 0.331064 0.932135 0.750000
O O15 0.292842 0.886841 0.993468
O O16 0.342082 0.000000 0.000000
O O17 0.248296 0.500000 0.500000
O O18 0.236225 0.567897 0.750000
#
# Coordination Sequence:
#
# PCOD8256951 Si02
#       7
#    16   8   8  16  16  16  16
#     4   9  18  31  49  71  94 121 155 191 229 271
#     4   9  17  29  48  71  94 119 151 189 230 273
#     4   9  17  29  46  71  96 119 151 191 230 271
#     4   9  17  32  51  69  91 123 157 188 225 274
#     4   9  18  32  50  69  92 122 156 189 225 272
#     4  10  19  31  48  70  93 121 155 191 228 271
#     4   9  16  28  46  67  91 121 154 188 225 271
#
# _framework density 17.710144
#
# number of rings (size 3 to 8) (size 9 to 14) (size 15 to 20)
#    0.000    2.833    0.000    2.500    0.000    4.667 
#    0.000    1.667    0.000    0.000    0.000    0.000 
#    0.000    0.000    0.000    0.000    0.000    0.000 
#
# Total GULP energy -594910.049943 kJ/mol
# GULP energy per Si atom -12393.959374 kJ/mol
# Density = 1.766984 g / cm^3
# Si number density = 17.710144 Si / 1000 Ang^3
#
#
#
# Elastic Constant Matrix: (Units=GPa)
#
#
# Indices 1 2 3 4 5 6 
#
# 1 206.3999 63.2064 68.9921 0.0000 0.0000 0.0000
# 2 63.2064 52.0311 28.5598 0.0000 0.0000 0.0000
# 3 68.9921 28.5598 71.4827 0.0000 0.0000 0.0000
# 4 0.0000 0.0000 0.0000 16.9960 0.0000 0.0000
# 5 0.0000 0.0000 0.0000 0.0000 27.2021 0.0000
# 6 0.0000 0.0000 0.0000 0.0000 0.0000 33.0994
#
#
#
# Elastic Compliance Matrix: (Units=1/GPa)
#
#
# Indices 1 2 3 4 5 6 
#
# 1 0.009213 -0.008084 -0.005662 0.000000 0.000000 0.000000
# 2 -0.008084 0.031711 -0.004867 0.000000 0.000000 0.000000
# 3 -0.005662 -0.004867 0.021399 0.000000 0.000000 0.000000
# 4 0.000000 0.000000 0.000000 0.058837 0.000000 0.000000
# 5 0.000000 0.000000 0.000000 0.000000 0.036762 0.000000
# 6 0.000000 0.000000 0.000000 0.000000 0.000000 0.030212
#
#
# Mechanical properties :
#
#
# Convention : Reuss Voigt Hill
#
# Bulk Modulus (GPa) = 39.84678 72.38115 56.11397
# Shear Modulus (GPa) = 21.39235 26.73651 24.06443
#
# Velocity S-wave (km/s) = 3.47928 3.88967 3.69018
# Velocity P-wave (km/s) = 6.22003 7.81865 7.06470
#
# Compressibility (1/GPa) = 0.02509613
#
# Stress axis : x y z
#
# Youngs Moduli (GPa) = 108.53842 31.53449 46.73064
#
# Poissons Ratio (x) = 0.25493 0.26461
# Poissons Ratio (y) = 0.87743 0.22745
# Poissons Ratio (z) = 0.61459 0.15349
#
# Static dielectric constant tensor:
#      x y z
#    x 4.026010 0.000000 0.000000 
#    y 0.000000 2.919830 0.000000 
#    z 0.000000 0.000000 3.326160 
# 
# 
# High freq. dielectric constant tensor:
#      x y z
#    x 1.708890 0.000000 0.000000 
#    y 0.000000 1.634770 0.000000 
#    z 0.000000 0.000000 1.689520 
# 
# From -- ./inp_files/12824.got.cif
#   From: 2010.03.12/outbox.cif.g09.slc.cpg/sg63_7_cif.got.tgz:12824.got - 2010.04.10 19:34:48.
