data_PCOD8256158
_publ_section_title
;
Structure prediction by ZEFSAII (Michael W. Deem and Ramdas Pophale) SiO2 
 PCOD8256158
Probable space group: C M C M
;
_chemical_formula_sum "Si O2"
_cell_formula_units_Z 96
_cell_length_a 12.888468
_cell_length_b 24.076507
_cell_length_c 18.654826
_cell_angle_alpha 90.000000
_cell_angle_beta 90.000000
_cell_angle_gamma 90.000000
_cell_volume 5788.765812
_symmetry_space_group_name_H-M "C M C M"
_symmetry_group_IT_number 63
_symmetry_cell_setting 'orthorhombic'
loop_
_space_group_symop_operation_xyz
x,y,z
-x,-y,1/2+z
x,-y,-z
-x,y,1/2-z
-x,-y,-z
x,y,1/2-z
-x,y,z
x,-y,1/2+z
1/2+x,1/2+y,z
1/2-x,1/2-y,1/2+z
1/2+x,1/2-y,-z
1/2-x,1/2+y,1/2-z
1/2-x,1/2-y,-z
1/2+x,1/2+y,1/2-z
1/2-x,1/2+y,z
1/2+x,1/2-y,1/2+z
loop_
_atom_site_type_symbol
_atom_site_label
_atom_site_fract_x
_atom_site_fract_y
_atom_site_fract_z
Si Si1 0.739455 0.381853 0.167469
Si Si2 0.122706 0.654472 0.330970
Si Si3 0.879270 0.005495 0.667619
Si Si4 0.206187 0.552160 0.084198
Si Si5 0.884994 0.777272 0.164791
Si Si6 0.381426 0.059801 0.931903
O O1 0.770378 0.374690 0.250000
O O2 0.657288 0.431279 0.156176
O O3 0.690933 0.325143 0.135692
O O4 0.845641 0.393833 0.124623
O O5 0.160089 0.644036 0.250000
O O6 0.175895 0.609611 0.380412
O O7 0.156899 0.716151 0.357048
O O8 0.000000 0.649130 0.336465
O O9 0.857336 0.987377 0.750000
O O10 0.000000 0.001850 0.649132
O O11 0.820527 0.964521 0.612369
O O12 0.127920 0.501436 0.104484
O O13 0.198430 0.561589 0.998763
O O14 0.892754 0.781099 0.250000
O O15 0.000000 0.786790 0.132445
O O16 0.500000 0.070976 0.955459
#
# Coordination Sequence:
#
# PCOD8256158 Si02
#       6
#    16  16  16  16  16  16
#     4   9  17  30  47  66  88 116 152 191 231 275
#     4   9  16  26  45  71  92 114 147 185 224 268
#     4   9  17  29  47  70  93 118 148 183 223 267
#     4  10  18  31  46  64  92 124 152 182 225 274
#     4   8  14  26  45  68  91 113 141 183 232 274
#     4  10  20  32  46  65  91 124 156 190 234 273
#
# _framework density 16.583846000000001
#
# number of rings (size 3 to 8) (size 9 to 14) (size 15 to 20)
#    0.000    2.833    0.000    4.000    0.000    3.000 
#    0.000    8.333    0.000    1.000    0.000    2.333 
#    0.000    0.000    0.000    0.000    0.000    0.000 
#
# Total GULP energy -594911.500576 kJ/mol
# GULP energy per Si atom -12393.989595 kJ/mol
# Density = 1.654610 g / cm^3
# Si number density = 16.583846 Si / 1000 Ang^3
#
#
#
# Elastic Constant Matrix: (Units=GPa)
#
#
# Indices 1 2 3 4 5 6 
#
# 1 83.6746 41.7623 45.2177 0.0000 0.0000 0.0000
# 2 41.7623 122.6438 44.4657 0.0000 0.0000 0.0000
# 3 45.2177 44.4657 59.5429 0.0000 0.0000 0.0000
# 4 0.0000 0.0000 0.0000 17.6655 0.0000 0.0000
# 5 0.0000 0.0000 0.0000 0.0000 22.0541 0.0000
# 6 0.0000 0.0000 0.0000 0.0000 0.0000 21.2402
#
#
#
# Elastic Compliance Matrix: (Units=1/GPa)
#
#
# Indices 1 2 3 4 5 6 
#
# 1 0.020567 -0.001838 -0.014246 0.000000 0.000000 0.000000
# 2 -0.001838 0.011345 -0.007076 0.000000 0.000000 0.000000
# 3 -0.014246 -0.007076 0.032898 0.000000 0.000000 0.000000
# 4 0.000000 0.000000 0.000000 0.056607 0.000000 0.000000
# 5 0.000000 0.000000 0.000000 0.000000 0.045343 0.000000
# 6 0.000000 0.000000 0.000000 0.000000 0.000000 0.047081
#
#
# Mechanical properties :
#
#
# Convention : Reuss Voigt Hill
#
# Bulk Modulus (GPa) = 54.08762 58.75031 56.41896
# Shear Modulus (GPa) = 18.77399 21.15301 19.96350
#
# Velocity S-wave (km/s) = 3.36827 3.57532 3.47333
# Velocity P-wave (km/s) = 6.91465 7.24893 7.08376
#
# Compressibility (1/GPa) = 0.01848852
#
# Stress axis : x y z
#
# Youngs Moduli (GPa) = 48.62111 88.14205 30.39716
#
# Poissons Ratio (x) = 0.16204 0.43304
# Poissons Ratio (y) = 0.08939 0.21510
# Poissons Ratio (z) = 0.69266 0.62373
#
# Static dielectric constant tensor:
#      x y z
#    x 2.945140 0.000000 0.000000 
#    y 0.000000 3.338330 0.000000 
#    z 0.000000 0.000000 3.000560 
# 
# 
# High freq. dielectric constant tensor:
#      x y z
#    x 1.616810 0.000000 0.000000 
#    y 0.000000 1.638400 0.000000 
#    z 0.000000 0.000000 1.617820 
# 
# From -- ./inp_files/52842.got.cif
#   From: 2010.03.12/outbox.cif.g09.slc.cpg/sg63_27_cif.got.tgz:52842.got - 2010.04.10 19:34:48.
