data_PCOD8256367
_publ_section_title
;
Structure prediction by ZEFSAII (Michael W. Deem and Ramdas Pophale) SiO2 
 PCOD8256367
Probable space group: C M C M
;
_chemical_formula_sum "Si O2"
_cell_formula_units_Z 72
_cell_length_a 9.381194
_cell_length_b 29.226997
_cell_length_c 14.502557
_cell_angle_alpha 90.000000
_cell_angle_beta 90.000000
_cell_angle_gamma 90.000000
_cell_volume 3976.370958
_symmetry_space_group_name_H-M "C M C M"
_symmetry_group_IT_number 63
_symmetry_cell_setting 'orthorhombic'
loop_
_space_group_symop_operation_xyz
x,y,z
-x,-y,1/2+z
x,-y,-z
-x,y,1/2-z
-x,-y,-z
x,y,1/2-z
-x,y,z
x,-y,1/2+z
1/2+x,1/2+y,z
1/2-x,1/2-y,1/2+z
1/2+x,1/2-y,-z
1/2-x,1/2+y,1/2-z
1/2-x,1/2-y,-z
1/2+x,1/2+y,1/2-z
1/2-x,1/2+y,z
1/2+x,1/2-y,1/2+z
loop_
_atom_site_type_symbol
_atom_site_label
_atom_site_fract_x
_atom_site_fract_y
_atom_site_fract_z
Si Si1 0.158472 0.622386 0.050415
Si Si2 0.663732 0.036199 0.925481
Si Si3 0.171237 0.789780 0.552867
Si Si4 0.336079 0.507621 0.750000
Si Si5 0.156088 0.195600 0.250000
Si Si6 0.747238 0.403325 0.750000
O O1 0.275291 0.660304 0.022579
O O2 0.165057 0.601034 0.154093
O O3 0.000000 0.643345 0.040694
O O4 0.184064 0.585209 0.971725
O O5 0.500000 0.027210 0.896260
O O6 0.762660 0.030840 0.837349
O O7 0.716306 0.000000 0.000000
O O8 0.250000 0.750000 0.500000
O O9 0.229586 0.785121 0.658135
O O10 0.000000 0.787039 0.542533
O O11 0.500000 0.522026 0.750000
O O12 0.328344 0.452409 0.750000
O O13 0.141649 0.140185 0.250000
O O14 0.000000 0.216384 0.250000
#
# Coordination Sequence:
#
# PCOD8256367 Si02
#       6
#    16  16  16   8   8   8
#     4  10  20  35  58  84 111 145 186 231 280 332
#     4  10  21  38  57  79 110 151 192 230 278 336
#     4  10  20  36  58  83 113 144 181 226 278 336
#     4  12  24  35  53  82 116 152 192 237 283 330
#     4   8  17  33  52  77 109 139 171 217 273 330
#     4  10  18  32  53  85 113 141 177 228 284 330
#
# _framework density 18.106961999999999
#
# number of rings (size 3 to 8) (size 9 to 14) (size 15 to 20)
#    0.000    2.000    2.222    1.667    0.000    3.111 
#    0.000    2.778    0.000    2.667    0.000    0.000 
#    0.000    0.000    0.000    0.000    0.000    0.000 
#
# Total GULP energy -446024.438520 kJ/mol
# GULP energy per Si atom -12389.567737 kJ/mol
# Density = 1.806575 g / cm^3
# Si number density = 18.106962 Si / 1000 Ang^3
#
#
#
# Elastic Constant Matrix: (Units=GPa)
#
#
# Indices 1 2 3 4 5 6 
#
# 1 114.9355 47.1618 67.8883 0.0000 0.0000 0.0000
# 2 47.1618 81.5870 65.4365 0.0000 0.0000 0.0000
# 3 67.8883 65.4365 137.6252 0.0000 0.0000 0.0000
# 4 0.0000 0.0000 0.0000 34.7614 0.0000 0.0000
# 5 0.0000 0.0000 0.0000 0.0000 19.3690 0.0000
# 6 0.0000 0.0000 0.0000 0.0000 0.0000 29.6262
#
#
#
# Elastic Compliance Matrix: (Units=1/GPa)
#
#
# Indices 1 2 3 4 5 6 
#
# 1 0.012977 -0.003827 -0.004582 0.000000 0.000000 0.000000
# 2 -0.003827 0.020940 -0.008069 0.000000 0.000000 0.000000
# 3 -0.004582 -0.008069 0.013363 0.000000 0.000000 0.000000
# 4 0.000000 0.000000 0.000000 0.028768 0.000000 0.000000
# 5 0.000000 0.000000 0.000000 0.000000 0.051629 0.000000
# 6 0.000000 0.000000 0.000000 0.000000 0.000000 0.033754
#
#
# Mechanical properties :
#
#
# Convention : Reuss Voigt Hill
#
# Bulk Modulus (GPa) = 69.80575 77.23565 73.52070
# Shear Modulus (GPa) = 25.10534 26.99541 26.05038
#
# Velocity S-wave (km/s) = 3.72762 3.86539 3.79713
# Velocity P-wave (km/s) = 7.56058 7.91640 7.74054
#
# Compressibility (1/GPa) = 0.01432547
#
# Stress axis : x y z
#
# Youngs Moduli (GPa) = 77.05881 47.75440 74.83411
#
# Poissons Ratio (x) = 0.18273 0.34289
# Poissons Ratio (y) = 0.29487 0.60384
# Poissons Ratio (z) = 0.35308 0.38533
#
# Static dielectric constant tensor:
#      x y z
#    x 3.353430 0.000000 0.000000 
#    y 0.000000 3.206840 0.000000 
#    z 0.000000 0.000000 3.333560 
# 
# 
# High freq. dielectric constant tensor:
#      x y z
#    x 1.697000 0.000000 0.000000 
#    y 0.000000 1.691530 0.000000 
#    z 0.000000 0.000000 1.706700 
# 
# From -- ./inp_files/27941.got.cif
#   From: 2010.03.12/outbox.cif.g09.slc.cpg/sg63_14_cif.got.tgz:27941.got - 2010.04.10 19:34:48.
