data_PCOD8256343
_publ_section_title
;
Structure prediction by ZEFSAII (Michael W. Deem and Ramdas Pophale) SiO2 
 PCOD8256343
Probable space group: C M C M
;
_chemical_formula_sum "Si O2"
_cell_formula_units_Z 88
_cell_length_a 10.010617
_cell_length_b 23.657421
_cell_length_c 19.468587
_cell_angle_alpha 90.000000
_cell_angle_beta 90.000000
_cell_angle_gamma 90.000000
_cell_volume 4610.655531
_symmetry_space_group_name_H-M "C M C M"
_symmetry_group_IT_number 63
_symmetry_cell_setting 'orthorhombic'
loop_
_space_group_symop_operation_xyz
x,y,z
-x,-y,1/2+z
x,-y,-z
-x,y,1/2-z
-x,-y,-z
x,y,1/2-z
-x,y,z
x,-y,1/2+z
1/2+x,1/2+y,z
1/2-x,1/2-y,1/2+z
1/2+x,1/2-y,-z
1/2-x,1/2+y,1/2-z
1/2-x,1/2-y,-z
1/2+x,1/2+y,1/2-z
1/2-x,1/2+y,z
1/2+x,1/2-y,1/2+z
loop_
_atom_site_type_symbol
_atom_site_label
_atom_site_fract_x
_atom_site_fract_y
_atom_site_fract_z
Si Si1 0.654070 0.145617 0.327840
Si Si2 0.353753 0.892600 0.433900
Si Si3 0.256904 0.000000 0.500000
Si Si4 0.652775 0.793935 0.536452
Si Si5 0.151175 0.954888 0.866358
Si Si6 0.150382 0.920029 0.173178
O O1 0.674370 0.168904 0.250000
O O2 0.500000 0.126928 0.339686
O O3 0.689751 0.195010 0.383157
O O4 0.746830 0.091413 0.338416
O O5 0.500000 0.880285 0.402750
O O6 0.350484 0.957269 0.458545
O O7 0.325300 0.853352 0.498881
O O8 0.245250 0.882108 0.374622
O O9 0.163752 0.964532 0.551877
O O10 0.500000 0.772314 0.529569
O O11 0.750000 0.750000 0.500000
O O12 0.000000 0.935097 0.849959
O O13 0.185317 0.013547 0.828134
O O14 0.167478 0.897131 0.250000
O O15 0.000000 0.910975 0.146090
#
# Coordination Sequence:
#
# PCOD8256343 Si02
#       6
#    16  16   8  16  16  16
#     4  10  21  38  59  83 113 146 185 236 291 344
#     4  10  20  34  56  82 110 144 187 232 276 330
#     4  10  18  32  52  82 118 154 184 222 280 334
#     4  10  22  41  60  84 111 145 188 235 283 337
#     4  10  19  31  51  80 116 153 191 231 274 328
#     4   9  19  34  50  75 115 155 189 226 273 333
#
# _framework density 19.086224000000001
#
# number of rings (size 3 to 8) (size 9 to 14) (size 15 to 20)
#    0.000    2.182    1.818    1.091    0.000    6.545 
#    0.000    0.909    0.000    3.273    0.000    0.000 
#    0.000    0.000    0.000    0.000    0.000    0.000 
#
# Total GULP energy -545466.083736 kJ/mol
# GULP energy per Si atom -12396.956449 kJ/mol
# Density = 1.904278 g / cm^3
# Si number density = 19.086224 Si / 1000 Ang^3
#
#
#
# Elastic Constant Matrix: (Units=GPa)
#
#
# Indices 1 2 3 4 5 6 
#
# 1 107.1454 43.0367 63.7105 0.0000 0.0000 0.0000
# 2 43.0367 50.1844 34.8776 0.0000 0.0000 0.0000
# 3 63.7105 34.8776 137.8685 0.0000 0.0000 0.0000
# 4 0.0000 0.0000 0.0000 22.4900 0.0000 0.0000
# 5 0.0000 0.0000 0.0000 0.0000 28.9736 0.0000
# 6 0.0000 0.0000 0.0000 0.0000 0.0000 31.3742
#
#
#
# Elastic Compliance Matrix: (Units=1/GPa)
#
#
# Indices 1 2 3 4 5 6 
#
# 1 0.016616 -0.010814 -0.004943 0.000000 0.000000 0.000000
# 2 -0.010814 0.031215 -0.002899 0.000000 0.000000 0.000000
# 3 -0.004943 -0.002899 0.010271 0.000000 0.000000 0.000000
# 4 0.000000 0.000000 0.000000 0.044464 0.000000 0.000000
# 5 0.000000 0.000000 0.000000 0.000000 0.034514 0.000000
# 6 0.000000 0.000000 0.000000 0.000000 0.000000 0.031873
#
#
# Mechanical properties :
#
#
# Convention : Reuss Voigt Hill
#
# Bulk Modulus (GPa) = 48.10087 64.27200 56.18643
# Shear Modulus (GPa) = 23.45259 26.80578 25.12919
#
# Velocity S-wave (km/s) = 3.50919 3.75167 3.63245
# Velocity P-wave (km/s) = 6.45568 7.24668 6.86259
#
# Compressibility (1/GPa) = 0.02078965
#
# Stress axis : x y z
#
# Youngs Moduli (GPa) = 60.18401 32.03537 97.36328
#
# Poissons Ratio (x) = 0.34643 0.48122
# Poissons Ratio (y) = 0.65084 0.28230
# Poissons Ratio (z) = 0.29746 0.09289
#
# Static dielectric constant tensor:
#      x y z
#    x 3.542510 0.000000 0.000000 
#    y 0.000000 3.109240 0.000000 
#    z 0.000000 0.000000 3.729060 
# 
# 
# High freq. dielectric constant tensor:
#      x y z
#    x 1.745010 0.000000 0.000000 
#    y 0.000000 1.701550 0.000000 
#    z 0.000000 0.000000 1.752030 
# 
# From -- ./inp_files/51075.got.cif
#   From: 2010.03.12/outbox.cif.g09.slc.cpg/sg63_26_cif.got.tgz:51075.got - 2010.04.10 19:34:48.
