data_PCOD8256576
_publ_section_title
;
Structure prediction by ZEFSAII (Michael W. Deem and Ramdas Pophale) SiO2 
 PCOD8256576
Probable space group: C M C M
;
_chemical_formula_sum "Si O2"
_cell_formula_units_Z 76
_cell_length_a 11.047013
_cell_length_b 30.718064
_cell_length_c 12.077515
_cell_angle_alpha 90.000000
_cell_angle_beta 90.000000
_cell_angle_gamma 90.000000
_cell_volume 4098.418389
_symmetry_space_group_name_H-M "C M C M"
_symmetry_group_IT_number 63
_symmetry_cell_setting 'orthorhombic'
loop_
_space_group_symop_operation_xyz
x,y,z
-x,-y,1/2+z
x,-y,-z
-x,y,1/2-z
-x,-y,-z
x,y,1/2-z
-x,y,z
x,-y,1/2+z
1/2+x,1/2+y,z
1/2-x,1/2-y,1/2+z
1/2+x,1/2-y,-z
1/2-x,1/2+y,1/2-z
1/2-x,1/2-y,-z
1/2+x,1/2+y,1/2-z
1/2-x,1/2+y,z
1/2+x,1/2-y,1/2+z
loop_
_atom_site_type_symbol
_atom_site_label
_atom_site_fract_x
_atom_site_fract_y
_atom_site_fract_z
Si Si1 0.856347 0.628350 0.122208
Si Si2 0.358692 0.952520 0.019549
Si Si3 0.000000 0.172043 0.873354
Si Si4 0.249194 0.299667 0.033200
Si Si5 0.000000 0.910665 0.250000
Si Si6 0.236084 0.576125 0.750000
Si Si7 0.361430 0.168716 0.750000
O O1 0.816427 0.626373 0.250000
O O2 0.000000 0.631269 0.109431
O O3 0.805180 0.584807 0.061381
O O4 0.800187 0.671131 0.067054
O O5 0.500000 0.955482 0.995405
O O6 0.335713 0.940963 0.145625
O O7 0.298472 0.000000 0.000000
O O8 0.884925 0.186409 0.942214
O O9 0.000000 0.119484 0.860453
O O10 0.000000 0.193909 0.750000
O O11 0.162993 0.303519 0.140318
O O12 0.250000 0.250000 0.000000
O O13 0.122993 0.939365 0.250000
O O14 0.232858 0.628609 0.750000
O O15 0.500000 0.152096 0.750000
#
# Coordination Sequence:
#
# PCOD8256576 Si02
#       7
#    16  16   8  16   4   8   8
#     4  10  22  40  58  86 126 162 195 246 311 371
#     4  10  21  36  61  94 123 154 194 252 314 370
#     4  10  20  42  61  83 118 160 205 259 297 361
#     4  12  25  39  60  89 119 161 207 251 305 361
#     4  10  18  38  64  84 114 160 206 254 294 358
#     4  12  20  38  64  91 117 159 209 254 306 364
#     4  12  22  40  62  89 117 148 208 261 303 353
#
# _framework density 18.54374
#
# number of rings (size 3 to 8) (size 9 to 14) (size 15 to 20)
#    0.316    0.842    5.263    1.579    5.895    0.000 
#    0.000    1.053    0.000    0.000    0.000    0.000 
#    0.000    0.000    0.000    0.000    0.000    0.000 
#
# Total GULP energy -471191.422006 kJ/mol
# GULP energy per Si atom -12399.774263 kJ/mol
# Density = 1.850153 g / cm^3
# Si number density = 18.543740 Si / 1000 Ang^3
#
#
#
# Elastic Constant Matrix: (Units=GPa)
#
#
# Indices 1 2 3 4 5 6 
#
# 1 56.7295 6.4184 16.9220 0.0000 0.0000 0.0000
# 2 6.4184 142.2316 69.2794 0.0000 0.0000 0.0000
# 3 16.9220 69.2794 153.9056 0.0000 0.0000 0.0000
# 4 0.0000 0.0000 0.0000 9.7619 0.0000 0.0000
# 5 0.0000 0.0000 0.0000 0.0000 28.9359 0.0000
# 6 0.0000 0.0000 0.0000 0.0000 0.0000 18.8735
#
#
#
# Elastic Compliance Matrix: (Units=1/GPa)
#
#
# Indices 1 2 3 4 5 6 
#
# 1 0.018230 0.000197 -0.002093 0.000000 0.000000 0.000000
# 2 0.000197 0.009007 -0.004076 0.000000 0.000000 0.000000
# 3 -0.002093 -0.004076 0.008562 0.000000 0.000000 0.000000
# 4 0.000000 0.000000 0.000000 0.102439 0.000000 0.000000
# 5 0.000000 0.000000 0.000000 0.000000 0.034559 0.000000
# 6 0.000000 0.000000 0.000000 0.000000 0.000000 0.052984
#
#
# Mechanical properties :
#
#
# Convention : Reuss Voigt Hill
#
# Bulk Modulus (GPa) = 41.92047 59.78959 50.85503
# Shear Modulus (GPa) = 20.35180 28.86405 24.60793
#
# Velocity S-wave (km/s) = 3.31645 3.94958 3.64678
# Velocity P-wave (km/s) = 6.10905 7.28775 6.72428
#
# Compressibility (1/GPa) = 0.02385469
#
# Stress axis : x y z
#
# Youngs Moduli (GPa) = 54.85599 111.01985 116.78832
#
# Poissons Ratio (x) = -0.02185 0.24443
# Poissons Ratio (y) = -0.01080 0.47606
# Poissons Ratio (z) = 0.11481 0.45254
#
# Static dielectric constant tensor:
#      x y z
#    x 3.302310 0.000000 0.000000 
#    y 0.000000 4.104720 0.000000 
#    z 0.000000 0.000000 3.391220 
# 
# 
# High freq. dielectric constant tensor:
#      x y z
#    x 1.707510 0.000000 0.000000 
#    y 0.000000 1.713110 0.000000 
#    z 0.000000 0.000000 1.725310 
# 
# From -- ./inp_files/17928.got.cif
#   From: 2010.03.12/outbox.cif.g09.slc.cpg/sg63_9_cif.got.tgz:17928.got - 2010.04.10 19:34:48.
