data_PCOD8256715
_publ_section_title
;
Structure prediction by ZEFSAII (Michael W. Deem and Ramdas Pophale) SiO2 
 PCOD8256715
Probable space group: C M C M
;
_chemical_formula_sum "Si O2"
_cell_formula_units_Z 88
_cell_length_a 26.295894
_cell_length_b 23.648645
_cell_length_c 9.511491
_cell_angle_alpha 90.000000
_cell_angle_beta 90.000000
_cell_angle_gamma 90.000000
_cell_volume 5914.837310
_symmetry_space_group_name_H-M "C M C M"
_symmetry_group_IT_number 63
_symmetry_cell_setting 'orthorhombic'
loop_
_space_group_symop_operation_xyz
x,y,z
-x,-y,1/2+z
x,-y,-z
-x,y,1/2-z
-x,-y,-z
x,y,1/2-z
-x,y,z
x,-y,1/2+z
1/2+x,1/2+y,z
1/2-x,1/2-y,1/2+z
1/2+x,1/2-y,-z
1/2-x,1/2+y,1/2-z
1/2-x,1/2-y,-z
1/2+x,1/2+y,1/2-z
1/2-x,1/2+y,z
1/2+x,1/2-y,1/2+z
loop_
_atom_site_type_symbol
_atom_site_label
_atom_site_fract_x
_atom_site_fract_y
_atom_site_fract_z
Si Si1 0.112060 0.181079 0.407596
Si Si2 0.557286 0.405988 0.406038
Si Si3 0.326872 0.241963 0.409322
Si Si4 0.131230 0.000000 0.500000
Si Si5 0.238795 0.665408 0.592248
Si Si6 0.201410 0.094519 0.100541
O O1 0.093767 0.198823 0.250000
O O2 0.069499 0.141909 0.479740
O O3 0.123568 0.235308 0.506135
O O4 0.164279 0.147710 0.395513
O O5 0.562493 0.379472 0.250000
O O6 0.500000 0.427514 0.434153
O O7 0.595232 0.459303 0.409060
O O8 0.342587 0.224880 0.250000
O O9 0.283353 0.288944 0.401456
O O10 0.306759 0.187372 0.493822
O O11 0.168718 0.037497 0.406470
O O12 0.218750 0.653220 0.750000
O O13 0.259350 0.605891 0.526913
O O14 0.230990 0.092639 0.250000
#
# Coordination Sequence:
#
# PCOD8256715 Si02
#       6
#    16  16  16   8  16  16
#     4   9  17  28  41  56  73  92 116 148 188 233
#     4  10  20  32  44  57  73  95 127 167 208 246
#     4   9  15  24  39  56  74  93 112 137 175 223
#     4  10  19  30  44  56  70  96 132 170 207 240
#     4   9  16  24  36  54  74  93 113 140 176 220
#     4   9  17  27  38  52  70  92 120 153 189 229
#
# _framework density 14.877839
#
# number of rings (size 3 to 8) (size 9 to 14) (size 15 to 20)
#    0.000    2.727    0.000    2.455    0.000   10.545 
#    0.000    0.000    0.000    0.000    0.000    0.000 
#    0.000    0.000    0.000    0.000    0.000    0.000 
#
# Total GULP energy -545159.083830 kJ/mol
# GULP energy per Si atom -12389.979178 kJ/mol
# Density = 1.484398 g / cm^3
# Si number density = 14.877839 Si / 1000 Ang^3
#
#
#
# Elastic Constant Matrix: (Units=GPa)
#
#
# Indices 1 2 3 4 5 6 
#
# 1 36.3113 37.8864 38.3642 0.0000 0.0000 0.0000
# 2 37.8864 44.8419 40.8758 0.0000 0.0000 0.0000
# 3 38.3642 40.8758 150.4847 0.0000 0.0000 0.0000
# 4 0.0000 0.0000 0.0000 9.6504 0.0000 0.0000
# 5 0.0000 0.0000 0.0000 0.0000 -19.2610 0.0000
# 6 0.0000 0.0000 0.0000 0.0000 0.0000 14.5542
#
#
#
# Elastic Compliance Matrix: (Units=1/GPa)
#
#
# Indices 1 2 3 4 5 6 
#
# 1 0.239690 -0.195123 -0.008105 0.000000 0.000000 0.000000
# 2 -0.195123 0.188482 -0.001453 0.000000 0.000000 0.000000
# 3 -0.008105 -0.001453 0.009106 0.000000 0.000000 0.000000
# 4 0.000000 0.000000 0.000000 0.103623 0.000000 0.000000
# 5 0.000000 0.000000 0.000000 0.000000 -0.051918 0.000000
# 6 0.000000 0.000000 0.000000 0.000000 0.000000 0.068709
#
#
# Mechanical properties :
#
#
# Convention : Reuss Voigt Hill
#
# Bulk Modulus (GPa) = 35.82143 51.76563 43.79353
# Shear Modulus (GPa) = 5.12108 8.62282 6.87195
#
# Velocity S-wave (km/s) = 1.85730 2.41005 2.15150
# Velocity P-wave (km/s) = 5.35992 6.52792 5.97254
#
# Compressibility (1/GPa) = 0.02791625
#
# Stress axis : x y z
#
# Youngs Moduli (GPa) = 4.17206 5.30555 109.81631
#
# Poissons Ratio (x) = 1.03523 0.89009
# Poissons Ratio (y) = 0.81406 0.15952
# Poissons Ratio (z) = 0.03382 0.00771
#
# Static dielectric constant tensor:
#      x y z
#    x 2.531570 0.000000 0.000000 
#    y 0.000000 2.656070 0.000000 
#    z 0.000000 0.000000 3.228000 
# 
# 
# High freq. dielectric constant tensor:
#      x y z
#    x 1.514750 0.000000 0.000000 
#    y 0.000000 1.525130 0.000000 
#    z 0.000000 0.000000 1.595560 
# 
# From -- ./inp_files/8987.got.cif
#   From: 2010.03.12/outbox.cif.g09.slc.cpg/sg63_5_cif.got.tgz:8987.got - 2010.04.10 19:34:48.
