data_PCOD8256101
_publ_section_title
;
Structure prediction by ZEFSAII (Michael W. Deem and Ramdas Pophale) SiO2 
 PCOD8256101
Probable space group: C M C M
;
_chemical_formula_sum "Si O2"
_cell_formula_units_Z 96
_cell_length_a 27.303136
_cell_length_b 23.717409
_cell_length_c 9.359242
_cell_angle_alpha 90.000000
_cell_angle_beta 90.000000
_cell_angle_gamma 90.000000
_cell_volume 6060.667413
_symmetry_space_group_name_H-M "C M C M"
_symmetry_group_IT_number 63
_symmetry_cell_setting 'orthorhombic'
loop_
_space_group_symop_operation_xyz
x,y,z
-x,-y,1/2+z
x,-y,-z
-x,y,1/2-z
-x,-y,-z
x,y,1/2-z
-x,y,z
x,-y,1/2+z
1/2+x,1/2+y,z
1/2-x,1/2-y,1/2+z
1/2+x,1/2-y,-z
1/2-x,1/2+y,1/2-z
1/2-x,1/2-y,-z
1/2+x,1/2+y,1/2-z
1/2-x,1/2+y,z
1/2+x,1/2-y,1/2+z
loop_
_atom_site_type_symbol
_atom_site_label
_atom_site_fract_x
_atom_site_fract_y
_atom_site_fract_z
Si Si1 0.500000 0.184079 0.588468
Si Si2 0.248236 0.334076 0.087756
Si Si3 0.000000 0.566550 0.472138
Si Si4 0.806997 0.552804 0.917155
Si Si5 0.323776 0.269846 0.914248
Si Si6 0.093520 0.283102 0.586209
Si Si7 0.391471 0.090555 0.097869
O O1 0.500000 0.206000 0.750000
O O2 0.500000 0.114855 0.596248
O O3 0.545039 0.211083 0.506060
O O4 0.268235 0.336151 0.250000
O O5 0.225299 0.393463 0.041616
O O6 0.206468 0.287507 0.074804
O O7 0.292724 0.321253 0.980565
O O8 0.000000 0.500000 0.500000
O O9 0.050379 0.578777 0.390149
O O10 0.808276 0.541701 0.750000
O O11 0.783215 0.500000 0.000000
O O12 0.863608 0.559516 0.969209
O O13 0.337028 0.283869 0.750000
O O14 0.372539 0.263046 0.008604
O O15 0.082595 0.264321 0.750000
O O16 0.120049 0.343402 0.583969
O O17 0.369566 0.069430 0.250000
#
# Coordination Sequence:
#
# PCOD8256101 Si02
#       7
#     8  16   8  16  16  16  16
#     4  10  21  33  47  67  91 119 154 192 232 279
#     4   9  19  33  47  68  93 118 149 189 234 279
#     4  10  21  33  45  63  81 109 148 198 244 283
#     4  11  22  35  49  66  91 120 154 191 233 281
#     4  10  18  30  51  73  92 115 149 191 233 280
#     4  10  19  32  49  68  92 120 150 189 236 282
#     4  10  20  33  48  63  83 112 151 194 238 284
#
# _framework density 15.839838
#
# number of rings (size 3 to 8) (size 9 to 14) (size 15 to 20)
#    0.000    2.000    1.667    2.500    0.000    7.333 
#    0.000    0.000    0.000    0.000    0.000    0.000 
#    0.000    0.000    0.000    0.750    0.000   10.167 
#
# Total GULP energy -594797.514621 kJ/mol
# GULP energy per Si atom -12391.614888 kJ/mol
# Density = 1.580379 g / cm^3
# Si number density = 15.839838 Si / 1000 Ang^3
#
#
#
# Elastic Constant Matrix: (Units=GPa)
#
#
# Indices 1 2 3 4 5 6 
#
# 1 77.9114 44.5844 58.6189 0.0000 0.0000 0.0000
# 2 44.5844 70.2292 43.6648 0.0000 0.0000 0.0000
# 3 58.6189 43.6648 137.6314 0.0000 0.0000 0.0000
# 4 0.0000 0.0000 0.0000 20.5885 0.0000 0.0000
# 5 0.0000 0.0000 0.0000 0.0000 20.7796 0.0000
# 6 0.0000 0.0000 0.0000 0.0000 0.0000 22.8832
#
#
#
# Elastic Compliance Matrix: (Units=1/GPa)
#
#
# Indices 1 2 3 4 5 6 
#
# 1 0.024410 -0.011252 -0.006827 0.000000 0.000000 0.000000
# 2 -0.011252 0.022925 -0.002481 0.000000 0.000000 0.000000
# 3 -0.006827 -0.002481 0.010960 0.000000 0.000000 0.000000
# 4 0.000000 0.000000 0.000000 0.048571 0.000000 0.000000
# 5 0.000000 0.000000 0.000000 0.000000 0.048124 0.000000
# 6 0.000000 0.000000 0.000000 0.000000 0.000000 0.043700
#
#
# Mechanical properties :
#
#
# Convention : Reuss Voigt Hill
#
# Bulk Modulus (GPa) = 58.21979 64.38981 61.30480
# Shear Modulus (GPa) = 20.36364 22.11052 21.23708
#
# Velocity S-wave (km/s) = 3.58941 3.74020 3.66558
# Velocity P-wave (km/s) = 7.34939 7.70655 7.53009
#
# Compressibility (1/GPa) = 0.01717629
#
# Stress axis : x y z
#
# Youngs Moduli (GPa) = 40.96600 43.62091 91.23723
#
# Poissons Ratio (x) = 0.49083 0.62286
# Poissons Ratio (y) = 0.46096 0.22633
# Poissons Ratio (z) = 0.27967 0.10821
#
# Static dielectric constant tensor:
#      x y z
#    x 2.895370 0.000000 0.000000 
#    y 0.000000 2.845370 0.000000 
#    z 0.000000 0.000000 3.149600 
# 
# 
# High freq. dielectric constant tensor:
#      x y z
#    x 1.586920 0.000000 0.000000 
#    y 0.000000 1.572650 0.000000 
#    z 0.000000 0.000000 1.625350 
# 
# From -- ./inp_files/12821.got.cif
#   From: 2010.03.12/outbox.cif.g09.slc.cpg/sg63_7_cif.got.tgz:12821.got - 2010.04.10 19:34:48.
