data_PCOD8256495
_publ_section_title
;
Structure prediction by ZEFSAII (Michael W. Deem and Ramdas Pophale) SiO2 
 PCOD8256495
Probable space group: C M C M
;
_chemical_formula_sum "Si O2"
_cell_formula_units_Z 96
_cell_length_a 18.201849
_cell_length_b 11.542819
_cell_length_c 24.246497
_cell_angle_alpha 90.000000
_cell_angle_beta 90.000000
_cell_angle_gamma 90.000000
_cell_volume 5094.204743
_symmetry_space_group_name_H-M "C M C M"
_symmetry_group_IT_number 63
_symmetry_cell_setting 'orthorhombic'
loop_
_space_group_symop_operation_xyz
x,y,z
-x,-y,1/2+z
x,-y,-z
-x,y,1/2-z
-x,-y,-z
x,y,1/2-z
-x,y,z
x,-y,1/2+z
1/2+x,1/2+y,z
1/2-x,1/2-y,1/2+z
1/2+x,1/2-y,-z
1/2-x,1/2+y,1/2-z
1/2-x,1/2-y,-z
1/2+x,1/2+y,1/2-z
1/2-x,1/2+y,z
1/2+x,1/2-y,1/2+z
loop_
_atom_site_type_symbol
_atom_site_label
_atom_site_fract_x
_atom_site_fract_y
_atom_site_fract_z
Si Si1 0.000000 0.582345 0.414346
Si Si2 0.149265 0.650505 0.136283
Si Si3 0.347133 0.732518 0.057114
Si Si4 0.799797 0.844350 0.055399
Si Si5 0.301779 0.546423 0.134250
Si Si6 0.500000 0.835076 0.468697
Si Si7 0.693115 0.773270 0.750000
Si Si8 0.290644 0.491448 0.250000
O O1 0.070699 0.592574 0.374993
O O2 0.000000 0.463343 0.446322
O O3 0.000000 0.675667 0.464492
O O4 0.168516 0.729976 0.084154
O O5 0.212810 0.552326 0.140008
O O6 0.145075 0.723130 0.193708
O O7 0.289343 0.838718 0.052822
O O8 0.334699 0.669308 0.115777
O O9 0.429730 0.773430 0.056465
O O10 0.331193 0.645319 0.006285
O O11 0.826128 0.955044 0.088682
O O12 0.336284 0.508195 0.193336
O O13 0.736789 0.646461 0.750000
O O14 0.737470 0.894806 0.750000
#
# Coordination Sequence:
#
# PCOD8256495 Si02
#       8
#     8  16  16  16  16   8   8   8
#     4  11  22  37  57  81 117 155 194 244 294 365
#     4  10  20  35  57  85 116 151 193 242 298 355
#     4  10  21  34  55  83 115 150 192 240 292 357
#     4  10  18  34  55  84 114 145 190 242 293 348
#     4  10  20  35  58  84 114 150 193 245 300 351
#     4  11  22  38  56  80 116 159 194 238 302 362
#     4  10  20  37  62  91 121 154 200 247 304 351
#     4  10  20  36  62  89 119 153 198 251 298 352
#
# _framework density 18.844944000000002
#
# number of rings (size 3 to 8) (size 9 to 14) (size 15 to 20)
#    0.000    1.833    3.333    1.500    0.000    0.333 
#    0.000    2.500    0.000    1.500    0.000    0.000 
#    0.000    0.000    0.000    0.000    0.000    0.000 
#
# Total GULP energy -594634.081023 kJ/mol
# GULP energy per Si atom -12388.210021 kJ/mol
# Density = 1.880205 g / cm^3
# Si number density = 18.844944 Si / 1000 Ang^3
#
#
#
# Elastic Constant Matrix: (Units=GPa)
#
#
# Indices 1 2 3 4 5 6 
#
# 1 95.2163 19.6717 22.0984 0.0000 0.0000 0.0000
# 2 19.6717 75.5505 31.0755 0.0000 0.0000 0.0000
# 3 22.0984 31.0755 118.6040 0.0000 0.0000 0.0000
# 4 0.0000 0.0000 0.0000 31.2072 0.0000 0.0000
# 5 0.0000 0.0000 0.0000 0.0000 27.7993 0.0000
# 6 0.0000 0.0000 0.0000 0.0000 0.0000 22.3966
#
#
#
# Elastic Compliance Matrix: (Units=1/GPa)
#
#
# Indices 1 2 3 4 5 6 
#
# 1 0.011333 -0.002334 -0.001500 0.000000 0.000000 0.000000
# 2 -0.002334 0.015316 -0.003578 0.000000 0.000000 0.000000
# 3 -0.001500 -0.003578 0.009648 0.000000 0.000000 0.000000
# 4 0.000000 0.000000 0.000000 0.032044 0.000000 0.000000
# 5 0.000000 0.000000 0.000000 0.000000 0.035972 0.000000
# 6 0.000000 0.000000 0.000000 0.000000 0.000000 0.044650
#
#
# Mechanical properties :
#
#
# Convention : Reuss Voigt Hill
#
# Bulk Modulus (GPa) = 46.57019 48.34024 47.45522
# Shear Modulus (GPa) = 29.24941 30.71563 29.98252
#
# Velocity S-wave (km/s) = 3.94396 4.04160 3.99308
# Velocity P-wave (km/s) = 6.74579 6.89105 6.81881
#
# Compressibility (1/GPa) = 0.02147296
#
# Stress axis : x y z
#
# Youngs Moduli (GPa) = 88.24018 65.29307 103.64426
#
# Poissons Ratio (x) = 0.15238 0.15547
# Poissons Ratio (y) = 0.20593 0.37084
# Poissons Ratio (z) = 0.13236 0.23362
#
# Static dielectric constant tensor:
#      x y z
#    x 3.112580 0.000000 0.000000 
#    y 0.000000 3.411060 0.000000 
#    z 0.000000 0.000000 3.992290 
# 
# 
# High freq. dielectric constant tensor:
#      x y z
#    x 1.683990 0.000000 0.000000 
#    y 0.000000 1.728510 0.000000 
#    z 0.000000 0.000000 1.754490 
# 
# From -- ./inp_files/63783.got.cif
#   From: 2010.03.12/outbox.cif.g09.slc.cpg/sg63_32_cif.got.tgz:63783.got - 2010.04.10 19:34:48.
