data_PCOD8256071
_publ_section_title
;
Structure prediction by ZEFSAII (Michael W. Deem and Ramdas Pophale) SiO2 
 PCOD8256071
Probable space group: C M C M
;
_chemical_formula_sum "Si O2"
_cell_formula_units_Z 72
_cell_length_a 15.185831
_cell_length_b 28.619450
_cell_length_c 8.734727
_cell_angle_alpha 90.000000
_cell_angle_beta 90.000000
_cell_angle_gamma 90.000000
_cell_volume 3796.200846
_symmetry_space_group_name_H-M "C M C M"
_symmetry_group_IT_number 63
_symmetry_cell_setting 'orthorhombic'
loop_
_space_group_symop_operation_xyz
x,y,z
-x,-y,1/2+z
x,-y,-z
-x,y,1/2-z
-x,-y,-z
x,y,1/2-z
-x,y,z
x,-y,1/2+z
1/2+x,1/2+y,z
1/2-x,1/2-y,1/2+z
1/2+x,1/2-y,-z
1/2-x,1/2+y,1/2-z
1/2-x,1/2-y,-z
1/2+x,1/2+y,1/2-z
1/2-x,1/2+y,z
1/2+x,1/2-y,1/2+z
loop_
_atom_site_type_symbol
_atom_site_label
_atom_site_fract_x
_atom_site_fract_y
_atom_site_fract_z
Si Si1 0.324905 0.450704 0.574023
Si Si2 0.500000 0.448643 0.431054
Si Si3 0.101369 0.801809 0.428388
Si Si4 0.742942 0.143588 0.425026
Si Si5 0.599877 0.796214 0.074051
O O1 0.296125 0.500000 0.500000
O O2 0.348310 0.460608 0.750000
O O3 0.409823 0.426228 0.493168
O O4 0.247175 0.412765 0.556553
O O5 0.500000 0.500000 0.500000
O O6 0.500000 0.446670 0.250000
O O7 0.120853 0.809164 0.250000
O O8 0.164016 0.834710 0.526224
O O9 0.122303 0.748280 0.470121
O O10 0.000000 0.814278 0.468107
O O11 0.724566 0.157363 0.250000
O O12 0.663267 0.161352 0.529098
O O13 0.615860 0.782389 0.250000
O O14 0.500000 0.813024 0.046674
#
# Coordination Sequence:
#
# PCOD8256071 Si02
#       5
#    16   8  16  16  16
#     4  10  21  36  53  76 106 142 180 221 269 316
#     4  10  18  30  50  72 100 138 176 214 258 310
#     4  10  21  36  55  81 113 147 182 220 264 317
#     4  11  23  36  55  81 110 144 181 224 271 321
#     4  10  21  38  59  81 107 141 180 224 273 322
#
# _framework density 18.966331
#
# number of rings (size 3 to 8) (size 9 to 14) (size 15 to 20)
#    0.000    1.778    0.000    5.667    1.556    6.222 
#    0.000    0.000    0.000    0.667    0.000    0.000 
#    0.000    0.000    0.000    0.000    0.000    0.000 
#
# Total GULP energy -446400.470264 kJ/mol
# GULP energy per Si atom -12400.013063 kJ/mol
# Density = 1.892316 g / cm^3
# Si number density = 18.966331 Si / 1000 Ang^3
#
#
#
# Elastic Constant Matrix: (Units=GPa)
#
#
# Indices 1 2 3 4 5 6 
#
# 1 75.4404 41.0190 25.2038 0.0000 0.0000 0.0000
# 2 41.0190 71.9749 22.9716 0.0000 0.0000 0.0000
# 3 25.2038 22.9716 92.1265 0.0000 0.0000 0.0000
# 4 0.0000 0.0000 0.0000 28.4668 0.0000 0.0000
# 5 0.0000 0.0000 0.0000 0.0000 30.6263 0.0000
# 6 0.0000 0.0000 0.0000 0.0000 0.0000 26.1194
#
#
#
# Elastic Compliance Matrix: (Units=1/GPa)
#
#
# Indices 1 2 3 4 5 6 
#
# 1 0.019868 -0.010417 -0.002838 0.000000 0.000000 0.000000
# 2 -0.010417 0.020557 -0.002276 0.000000 0.000000 0.000000
# 3 -0.002838 -0.002276 0.012199 0.000000 0.000000 0.000000
# 4 0.000000 0.000000 0.000000 0.035129 0.000000 0.000000
# 5 0.000000 0.000000 0.000000 0.000000 0.032652 0.000000
# 6 0.000000 0.000000 0.000000 0.000000 0.000000 0.038286
#
#
# Mechanical properties :
#
#
# Convention : Reuss Voigt Hill
#
# Bulk Modulus (GPa) = 46.37929 46.43675 46.40802
# Shear Modulus (GPa) = 25.38875 27.06567 26.22721
#
# Velocity S-wave (km/s) = 3.66269 3.78171 3.72268
# Velocity P-wave (km/s) = 6.51104 6.60344 6.55740
#
# Compressibility (1/GPa) = 0.02156135
#
# Stress axis : x y z
#
# Youngs Moduli (GPa) = 50.33330 48.64564 81.97705
#
# Poissons Ratio (x) = 0.50674 0.23264
# Poissons Ratio (y) = 0.52432 0.18658
# Poissons Ratio (z) = 0.14284 0.11072
#
# Static dielectric constant tensor:
#      x y z
#    x 3.621050 0.000000 0.000000 
#    y 0.000000 3.351690 0.000000 
#    z 0.000000 0.000000 3.596430 
# 
# 
# High freq. dielectric constant tensor:
#      x y z
#    x 1.719240 0.000000 0.000000 
#    y 0.000000 1.728370 0.000000 
#    z 0.000000 0.000000 1.755820 
# 
# From -- ./inp_files/4643.got.cif
#   From: 2010.03.12/outbox.cif.g09.slc.cpg/sg63_3_cif.got.tgz:4643.got - 2010.04.10 19:34:48.
