data_PCOD8256860
_publ_section_title
;
Structure prediction by ZEFSAII (Michael W. Deem and Ramdas Pophale) SiO2 
 PCOD8256860
Probable space group: C M C M
;
_chemical_formula_sum "Si O2"
_cell_formula_units_Z 112
_cell_length_a 13.961873
_cell_length_b 28.816948
_cell_length_c 13.917276
_cell_angle_alpha 90.000000
_cell_angle_beta 90.000000
_cell_angle_gamma 90.000000
_cell_volume 5599.456899
_symmetry_space_group_name_H-M "C M C M"
_symmetry_group_IT_number 63
_symmetry_cell_setting 'orthorhombic'
loop_
_space_group_symop_operation_xyz
x,y,z
-x,-y,1/2+z
x,-y,-z
-x,y,1/2-z
-x,-y,-z
x,y,1/2-z
-x,y,z
x,-y,1/2+z
1/2+x,1/2+y,z
1/2-x,1/2-y,1/2+z
1/2+x,1/2-y,-z
1/2-x,1/2+y,1/2-z
1/2-x,1/2-y,-z
1/2+x,1/2+y,1/2-z
1/2-x,1/2+y,z
1/2+x,1/2-y,1/2+z
loop_
_atom_site_type_symbol
_atom_site_label
_atom_site_fract_x
_atom_site_fract_y
_atom_site_fract_z
Si Si1 0.890117 0.056699 0.854563
Si Si2 0.891516 0.110570 0.463820
Si Si3 0.280709 0.532473 0.363631
Si Si4 0.225574 0.713296 0.635137
Si Si5 0.888526 0.784070 0.514336
Si Si6 0.607355 0.874516 0.136505
Si Si7 0.394810 0.022509 0.864161
O O1 0.843743 0.068782 0.750000
O O2 0.000000 0.045192 0.840888
O O3 0.845525 0.010252 0.899937
O O4 0.874031 0.100678 0.923184
O O5 0.814957 0.081433 0.403671
O O6 0.875179 0.164352 0.444002
O O7 0.000000 0.095809 0.435073
O O8 0.284943 0.536348 0.250000
O O9 0.174089 0.518881 0.400994
O O10 0.238568 0.717046 0.750000
O O11 0.149015 0.751258 0.599299
O O12 0.327747 0.722209 0.583868
O O13 0.183443 0.663608 0.600012
O O14 0.000000 0.773785 0.490859
O O15 0.600789 0.870892 0.250000
O O16 0.500000 0.865142 0.094890
O O17 0.642344 0.926068 0.104275
O O18 0.398463 0.021939 0.750000
O O19 0.500000 0.012833 0.906901
#
# Coordination Sequence:
#
# PCOD8256860 Si02
#       7
#    16  16  16  16  16  16  16
#     4   9  18  32  50  73 101 139 190 237 276 322
#     4  10  21  36  53  77 114 154 185 224 278 335
#     4  10  19  30  50  77 108 151 194 231 272 326
#     4  10  21  38  63  89 115 151 191 235 294 357
#     4  10  23  40  58  88 122 150 190 242 292 350
#     4   8  14  27  51  81 108 137 180 234 290 343
#     4   8  15  28  47  75 108 140 181 234 283 327
#
# _framework density 20.001940000000001
#
# number of rings (size 3 to 8) (size 9 to 14) (size 15 to 20)
#    0.000    2.714    0.000    2.143    2.000    4.286 
#    0.000    2.857    0.000    6.000    0.000    4.000 
#    0.000    0.000    0.000    0.000    0.000    0.000 
#
# Total GULP energy -694092.907160 kJ/mol
# GULP energy per Si atom -12394.516199 kJ/mol
# Density = 1.995641 g / cm^3
# Si number density = 20.001940 Si / 1000 Ang^3
#
#
#
# Elastic Constant Matrix: (Units=GPa)
#
#
# Indices 1 2 3 4 5 6 
#
# 1 118.9457 64.9581 37.2949 0.0000 0.0000 0.0000
# 2 64.9581 114.5548 35.6452 0.0000 0.0000 0.0000
# 3 37.2949 35.6452 51.3827 0.0000 0.0000 0.0000
# 4 0.0000 0.0000 0.0000 24.8921 0.0000 0.0000
# 5 0.0000 0.0000 0.0000 0.0000 15.0017 0.0000
# 6 0.0000 0.0000 0.0000 0.0000 0.0000 33.5503
#
#
#
# Elastic Compliance Matrix: (Units=1/GPa)
#
#
# Indices 1 2 3 4 5 6 
#
# 1 0.013357 -0.005812 -0.005663 0.000000 0.000000 0.000000
# 2 -0.005812 0.013661 -0.005259 0.000000 0.000000 0.000000
# 3 -0.005663 -0.005259 0.027220 0.000000 0.000000 0.000000
# 4 0.000000 0.000000 0.000000 0.040173 0.000000 0.000000
# 5 0.000000 0.000000 0.000000 0.000000 0.066659 0.000000
# 6 0.000000 0.000000 0.000000 0.000000 0.000000 0.029806
#
#
# Mechanical properties :
#
#
# Convention : Reuss Voigt Hill
#
# Bulk Modulus (GPa) = 48.14338 62.29774 55.22056
# Shear Modulus (GPa) = 21.62000 24.48782 23.05391
#
# Velocity S-wave (km/s) = 3.29126 3.50276 3.39866
# Velocity P-wave (km/s) = 6.21006 6.89728 6.56267
#
# Compressibility (1/GPa) = 0.02077129
#
# Stress axis : x y z
#
# Youngs Moduli (GPa) = 74.86891 73.19915 36.73749
#
# Poissons Ratio (x) = 0.42542 0.20804
# Poissons Ratio (y) = 0.43512 0.19319
# Poissons Ratio (z) = 0.42397 0.38494
#
# Static dielectric constant tensor:
#      x y z
#    x 3.970040 0.000000 0.000000 
#    y 0.000000 3.673280 0.000000 
#    z 0.000000 0.000000 3.401520 
# 
# 
# High freq. dielectric constant tensor:
#      x y z
#    x 1.793840 0.000000 0.000000 
#    y 0.000000 1.768860 0.000000 
#    z 0.000000 0.000000 1.757590 
# 
# From -- ./inp_files/32545.got.cif
#   From: 2010.03.12/outbox.cif.g09.slc.cpg/sg63_17_cif.got.tgz:32545.got - 2010.04.10 19:34:48.
