data_PCOD8256791
_publ_section_title
;
Structure prediction by ZEFSAII (Michael W. Deem and Ramdas Pophale) SiO2 
 PCOD8256791
Probable space group: C M C M
;
_chemical_formula_sum "Si O2"
_cell_formula_units_Z 128
_cell_length_a 18.023574
_cell_length_b 24.311980
_cell_length_c 17.065472
_cell_angle_alpha 90.000000
_cell_angle_beta 90.000000
_cell_angle_gamma 90.000000
_cell_volume 7477.898196
_symmetry_space_group_name_H-M "C M C M"
_symmetry_group_IT_number 63
_symmetry_cell_setting 'orthorhombic'
loop_
_space_group_symop_operation_xyz
x,y,z
-x,-y,1/2+z
x,-y,-z
-x,y,1/2-z
-x,-y,-z
x,y,1/2-z
-x,y,z
x,-y,1/2+z
1/2+x,1/2+y,z
1/2-x,1/2-y,1/2+z
1/2+x,1/2-y,-z
1/2-x,1/2+y,1/2-z
1/2-x,1/2-y,-z
1/2+x,1/2+y,1/2-z
1/2-x,1/2+y,z
1/2+x,1/2-y,1/2+z
loop_
_atom_site_type_symbol
_atom_site_label
_atom_site_fract_x
_atom_site_fract_y
_atom_site_fract_z
Si Si1 0.080197 0.147084 0.472946
Si Si2 0.795935 0.531399 0.157638
Si Si3 0.081624 0.960895 0.069025
Si Si4 0.679881 0.617440 0.339507
Si Si5 0.215738 0.185082 0.941099
Si Si6 0.796019 0.303884 0.903547
Si Si7 0.915120 0.383492 0.843220
Si Si8 0.217553 0.074745 0.658446
O O1 0.072265 0.099467 0.535670
O O2 0.104871 0.123105 0.388931
O O3 0.140791 0.188492 0.507086
O O4 0.000000 0.176345 0.462542
O O5 0.791722 0.537734 0.250000
O O6 0.726045 0.566038 0.124665
O O7 0.872963 0.559898 0.129280
O O8 0.785452 0.467040 0.134700
O O9 0.140823 0.957482 0.139597
O O10 0.000000 0.981324 0.099199
O O11 0.111795 0.000000 0.000000
O O12 0.656088 0.609736 0.250000
O O13 0.732750 0.670248 0.348772
O O14 0.209693 0.238532 0.885681
O O15 0.226448 0.130623 0.889619
O O16 0.283274 0.186672 0.003148
O O17 0.875711 0.330049 0.881216
O O18 0.911689 0.377074 0.750000
O O19 0.000000 0.386730 0.872767
O O20 0.219202 0.088929 0.750000
#
# Coordination Sequence:
#
# PCOD8256791 Si02
#       8
#    16  16  16  16  16  16  16  16
#     4   9  17  28  41  61  88 116 149 184 221 269
#     4   8  15  28  44  65  93 119 146 184 232 284
#     4   9  17  29  43  60  88 126 161 190 223 269
#     4   9  16  27  45  66  88 116 150 191 232 268
#     4   9  19  32  47  66  91 127 161 192 237 291
#     4   9  17  32  49  67  93 124 159 195 237 292
#     4   9  17  30  51  77 100 123 154 199 254 300
#     4  10  19  30  47  70  94 124 161 201 246 291
#
# _framework density 17.117108999999999
#
# number of rings (size 3 to 8) (size 9 to 14) (size 15 to 20)
#    0.000    3.000    0.000    1.875    0.000    3.000 
#    0.000    0.000    0.000    6.000    0.000    0.000 
#    0.000    4.000    0.000    0.000    0.000    0.125 
#
# Total GULP energy -792948.283655 kJ/mol
# GULP energy per Si atom -12389.816932 kJ/mol
# Density = 1.707815 g / cm^3
# Si number density = 17.117109 Si / 1000 Ang^3
#
#
#
# Elastic Constant Matrix: (Units=GPa)
#
#
# Indices 1 2 3 4 5 6 
#
# 1 95.2868 38.1843 27.8402 0.0000 0.0000 0.0000
# 2 38.1843 104.3303 24.9555 0.0000 0.0000 0.0000
# 3 27.8402 24.9555 49.6500 0.0000 0.0000 0.0000
# 4 0.0000 0.0000 0.0000 24.4154 0.0000 0.0000
# 5 0.0000 0.0000 0.0000 0.0000 3.3426 0.0000
# 6 0.0000 0.0000 0.0000 0.0000 0.0000 15.7273
#
#
#
# Elastic Compliance Matrix: (Units=1/GPa)
#
#
# Indices 1 2 3 4 5 6 
#
# 1 0.013643 -0.003596 -0.005843 0.000000 0.000000 0.000000
# 2 -0.003596 0.011842 -0.003936 0.000000 0.000000 0.000000
# 3 -0.005843 -0.003936 0.025396 0.000000 0.000000 0.000000
# 4 0.000000 0.000000 0.000000 0.040958 0.000000 0.000000
# 5 0.000000 0.000000 0.000000 0.000000 0.299172 0.000000
# 6 0.000000 0.000000 0.000000 0.000000 0.000000 0.063584
#
#
# Mechanical properties :
#
#
# Convention : Reuss Voigt Hill
#
# Bulk Modulus (GPa) = 41.43897 47.91414 44.67655
# Shear Modulus (GPa) = 10.21688 19.24953 14.73320
#
# Velocity S-wave (km/s) = 2.44577 3.35711 2.93700
# Velocity P-wave (km/s) = 5.67779 6.56351 6.13665
#
# Compressibility (1/GPa) = 0.02413187
#
# Stress axis : x y z
#
# Youngs Moduli (GPa) = 73.30031 84.44213 39.37701
#
# Poissons Ratio (x) = 0.30362 0.23006
# Poissons Ratio (y) = 0.26356 0.15500
# Poissons Ratio (z) = 0.42826 0.33238
#
# Static dielectric constant tensor:
#      x y z
#    x 3.542060 0.000000 0.000000 
#    y 0.000000 3.223820 0.000000 
#    z 0.000000 0.000000 3.007520 
# 
# 
# High freq. dielectric constant tensor:
#      x y z
#    x 1.648030 0.000000 0.000000 
#    y 0.000000 1.654780 0.000000 
#    z 0.000000 0.000000 1.641240 
# 
# From -- ./inp_files/46318.got.cif
#   From: 2010.03.12/outbox.cif.g09.slc.cpg/sg63_24_cif.got.tgz:46318.got - 2010.04.10 19:34:48.
