data_PCOD8256058
_publ_section_title
;
Structure prediction by ZEFSAII (Michael W. Deem and Ramdas Pophale) SiO2 
 PCOD8256058
Probable space group: C M C M
;
_chemical_formula_sum "Si O2"
_cell_formula_units_Z 80
_cell_length_a 25.945940
_cell_length_b 19.324482
_cell_length_c 8.830206
_cell_angle_alpha 90.000000
_cell_angle_beta 90.000000
_cell_angle_gamma 90.000000
_cell_volume 4427.393327
_symmetry_space_group_name_H-M "C M C M"
_symmetry_group_IT_number 63
_symmetry_cell_setting 'orthorhombic'
loop_
_space_group_symop_operation_xyz
x,y,z
-x,-y,1/2+z
x,-y,-z
-x,y,1/2-z
-x,-y,-z
x,y,1/2-z
-x,y,z
x,-y,1/2+z
1/2+x,1/2+y,z
1/2-x,1/2-y,1/2+z
1/2+x,1/2-y,-z
1/2-x,1/2+y,1/2-z
1/2-x,1/2-y,-z
1/2+x,1/2+y,1/2-z
1/2-x,1/2+y,z
1/2+x,1/2-y,1/2+z
loop_
_atom_site_type_symbol
_atom_site_label
_atom_site_fract_x
_atom_site_fract_y
_atom_site_fract_z
Si Si1 0.198958 0.329389 0.425518
Si Si2 0.000000 0.423706 0.568860
Si Si3 0.396786 0.924885 0.070532
Si Si4 0.388794 0.424862 0.072129
Si Si5 0.304479 0.330037 0.574460
Si Si6 0.000000 0.926782 0.074235
O O1 0.212973 0.338285 0.250000
O O2 0.150670 0.375994 0.472542
O O3 0.247872 0.354085 0.522184
O O4 0.185806 0.250166 0.463701
O O5 0.000000 0.500000 0.500000
O O6 0.947673 0.389056 0.504225
O O7 0.000000 0.423431 0.750000
O O8 0.404665 0.931865 0.250000
O O9 0.386027 0.000000 0.000000
O O10 0.382428 0.434114 0.250000
O O11 0.445371 0.391119 0.029380
O O12 0.380891 0.500000 0.000000
O O13 0.346656 0.372202 0.015224
O O14 0.310355 0.346482 0.750000
O O15 0.000000 0.940688 0.250000
O O16 0.000000 0.000000 0.000000
#
# Coordination Sequence:
#
# PCOD8256058 Si02
#       6
#    16   8  16  16  16   8
#     4   9  20  37  54  72  99 136 172 208 253 303
#     4  10  18  30  49  74 103 133 165 201 249 300
#     4  10  19  33  53  76 102 131 167 208 250 297
#     4  10  19  33  53  77 104 133 168 209 252 298
#     4  10  20  35  54  75 100 133 171 209 254 304
#     4   8  16  30  49  72  99 131 163 199 245 294
#
# _framework density 18.069322
#
# number of rings (size 3 to 8) (size 9 to 14) (size 15 to 20)
#    0.000    2.400    0.000    3.900    0.000    4.000 
#    0.000    3.000    0.000    3.600    0.000    0.000 
#    0.000    0.000    0.000    0.000    0.000    0.000 
#
# Total GULP energy -495752.381814 kJ/mol
# GULP energy per Si atom -12393.809545 kJ/mol
# Density = 1.802820 g / cm^3
# Si number density = 18.069322 Si / 1000 Ang^3
#
#
#
# Elastic Constant Matrix: (Units=GPa)
#
#
# Indices 1 2 3 4 5 6 
#
# 1 173.9495 73.4829 69.4347 0.0000 0.0000 0.0000
# 2 73.4829 63.2026 37.9745 0.0000 0.0000 0.0000
# 3 69.4347 37.9745 89.3416 0.0000 0.0000 0.0000
# 4 0.0000 0.0000 0.0000 25.9376 0.0000 0.0000
# 5 0.0000 0.0000 0.0000 0.0000 24.5191 0.0000
# 6 0.0000 0.0000 0.0000 0.0000 0.0000 181.8267
#
#
#
# Elastic Compliance Matrix: (Units=1/GPa)
#
#
# Indices 1 2 3 4 5 6 
#
# 1 0.012673 -0.011841 -0.004817 0.000000 0.000000 0.000000
# 2 -0.011841 0.032312 -0.004532 0.000000 0.000000 0.000000
# 3 -0.004817 -0.004532 0.016863 0.000000 0.000000 0.000000
# 4 0.000000 0.000000 0.000000 0.038554 0.000000 0.000000
# 5 0.000000 0.000000 0.000000 0.000000 0.040785 0.000000
# 6 0.000000 0.000000 0.000000 0.000000 0.000000 0.005500
#
#
# Mechanical properties :
#
#
# Convention : Reuss Voigt Hill
#
# Bulk Modulus (GPa) = 51.36211 76.47533 63.91872
# Shear Modulus (GPa) = 25.56837 56.16345 40.86591
#
# Velocity S-wave (km/s) = 3.76575 5.58119 4.76081
# Velocity P-wave (km/s) = 6.88437 9.16232 8.10379
#
# Compressibility (1/GPa) = 0.01946961
#
# Stress axis : x y z
#
# Youngs Moduli (GPa) = 78.90498 30.94854 59.30306
#
# Poissons Ratio (x) = 0.36646 0.28564
# Poissons Ratio (y) = 0.93430 0.26873
# Poissons Ratio (z) = 0.38006 0.14024
#
# Static dielectric constant tensor:
#      x y z
#    x 4.109720 0.000000 0.000000 
#    y 0.000000 3.055140 0.000000 
#    z 0.000000 0.000000 3.452760 
# 
# 
# High freq. dielectric constant tensor:
#      x y z
#    x 1.723610 0.000000 0.000000 
#    y 0.000000 1.664720 0.000000 
#    z 0.000000 0.000000 1.713600 
# 
# From -- ./inp_files/10090.got.cif
#   From: 2010.03.12/outbox.cif.g09.slc.cpg/sg63_6_cif.got.tgz:10090.got - 2010.04.10 19:34:48.
