data_PCOD8256636
_publ_section_title
;
Structure prediction by ZEFSAII (Michael W. Deem and Ramdas Pophale) SiO2 
 PCOD8256636
Probable space group: C M C M
;
_chemical_formula_sum "Si O2"
_cell_formula_units_Z 96
_cell_length_a 22.859386
_cell_length_b 26.529944
_cell_length_c 9.022299
_cell_angle_alpha 90.000000
_cell_angle_beta 90.000000
_cell_angle_gamma 90.000000
_cell_volume 5471.647486
_symmetry_space_group_name_H-M "C M C M"
_symmetry_group_IT_number 63
_symmetry_cell_setting 'orthorhombic'
loop_
_space_group_symop_operation_xyz
x,y,z
-x,-y,1/2+z
x,-y,-z
-x,y,1/2-z
-x,-y,-z
x,y,1/2-z
-x,y,z
x,-y,1/2+z
1/2+x,1/2+y,z
1/2-x,1/2-y,1/2+z
1/2+x,1/2-y,-z
1/2-x,1/2+y,1/2-z
1/2-x,1/2-y,-z
1/2+x,1/2+y,1/2-z
1/2-x,1/2+y,z
1/2+x,1/2-y,1/2+z
loop_
_atom_site_type_symbol
_atom_site_label
_atom_site_fract_x
_atom_site_fract_y
_atom_site_fract_z
Si Si1 0.431574 0.551364 0.920555
Si Si2 0.745227 0.454485 0.911362
Si Si3 0.853216 0.874472 0.910750
Si Si4 0.827175 0.384424 0.076520
Si Si5 0.752424 0.195910 0.427232
Si Si6 0.934081 0.551290 0.576999
O O1 0.414728 0.545100 0.750000
O O2 0.500000 0.559271 0.945908
O O3 0.410388 0.500000 0.000000
O O4 0.401778 0.602817 0.979802
O O5 0.771814 0.469646 0.750000
O O6 0.695101 0.415570 0.880537
O O7 0.715628 0.500000 0.000000
O O8 0.794053 0.434082 0.022446
O O9 0.882100 0.861153 0.750000
O O10 0.816124 0.827023 0.975158
O O11 0.816288 0.374375 0.250000
O O12 0.894846 0.398805 0.041639
O O13 0.803123 0.336235 0.986292
O O14 0.747633 0.198568 0.250000
O O15 0.750000 0.250000 0.500000
O O16 0.911132 0.500000 0.500000
O O17 0.931457 0.539815 0.750000
O O18 0.000000 0.564028 0.523823
#
# Coordination Sequence:
#
# PCOD8256636 Si02
#       6
#    16  16  16  16  16  16
#     4  10  20  32  48  72 102 136 170 202 237 280
#     4  10  19  29  42  65  97 128 160 198 241 290
#     4   9  19  33  49  70  95 125 160 198 240 289
#     4  10  19  31  49  71  96 128 164 201 244 292
#     4  10  21  37  56  77  99 123 157 202 253 303
#     4   9  18  31  47  70 101 136 171 204 237 279
#
# _framework density 17.544989000000001
#
# number of rings (size 3 to 8) (size 9 to 14) (size 15 to 20)
#    0.000    2.333    0.000    4.000    0.000    9.000 
#    0.000    0.000    0.000    1.000    0.000    2.333 
#    0.000    0.000    0.000    0.000    0.000    0.000 
#
# Total GULP energy -594703.808189 kJ/mol
# GULP energy per Si atom -12389.662671 kJ/mol
# Density = 1.750506 g / cm^3
# Si number density = 17.544989 Si / 1000 Ang^3
#
#
#
# Elastic Constant Matrix: (Units=GPa)
#
#
# Indices 1 2 3 4 5 6 
#
# 1 72.6325 41.6982 45.1374 0.0000 0.0000 0.0000
# 2 41.6982 101.7996 59.8162 0.0000 0.0000 0.0000
# 3 45.1374 59.8162 98.9208 0.0000 0.0000 0.0000
# 4 0.0000 0.0000 0.0000 26.1193 0.0000 0.0000
# 5 0.0000 0.0000 0.0000 0.0000 27.4656 0.0000
# 6 0.0000 0.0000 0.0000 0.0000 0.0000 35.3173
#
#
#
# Elastic Compliance Matrix: (Units=1/GPa)
#
#
# Indices 1 2 3 4 5 6 
#
# 1 0.020460 -0.004491 -0.006621 0.000000 0.000000 0.000000
# 2 -0.004491 0.016223 -0.007761 0.000000 0.000000 0.000000
# 3 -0.006621 -0.007761 0.017823 0.000000 0.000000 0.000000
# 4 0.000000 0.000000 0.000000 0.038286 0.000000 0.000000
# 5 0.000000 0.000000 0.000000 0.000000 0.036409 0.000000
# 6 0.000000 0.000000 0.000000 0.000000 0.000000 0.028315
#
#
# Mechanical properties :
#
#
# Convention : Reuss Voigt Hill
#
# Bulk Modulus (GPa) = 59.65798 62.96183 61.30991
# Shear Modulus (GPa) = 24.89463 26.22719 25.56091
#
# Velocity S-wave (km/s) = 3.77092 3.87053 3.82105
# Velocity P-wave (km/s) = 7.28261 7.47920 7.38156
#
# Compressibility (1/GPa) = 0.01676222
#
# Stress axis : x y z
#
# Youngs Moduli (GPa) = 48.87502 61.64230 56.10794
#
# Poissons Ratio (x) = 0.27681 0.37147
# Poissons Ratio (y) = 0.21948 0.43543
# Poissons Ratio (z) = 0.32358 0.47838
#
# Static dielectric constant tensor:
#      x y z
#    x 3.607450 0.000000 0.000000 
#    y 0.000000 1.127440 0.000000 
#    z 0.000000 0.000000 3.416680 
# 
# 
# High freq. dielectric constant tensor:
#      x y z
#    x 1.666980 0.000000 0.000000 
#    y 0.000000 1.652390 0.000000 
#    z 0.000000 0.000000 1.692840 
# 
# From -- ./inp_files/8552.got.cif
#   From: 2010.03.12/outbox.cif.g09.slc.cpg/sg63_5_cif.got.tgz:8552.got - 2010.04.10 19:34:48.
