data_PCOD8256288
_publ_section_title
;
Structure prediction by ZEFSAII (Michael W. Deem and Ramdas Pophale) SiO2 
 PCOD8256288
Probable space group: C M C M
;
_chemical_formula_sum "Si O2"
_cell_formula_units_Z 80
_cell_length_a 25.438876
_cell_length_b 9.364713
_cell_length_c 18.839063
_cell_angle_alpha 90.000000
_cell_angle_beta 90.000000
_cell_angle_gamma 90.000000
_cell_volume 4487.988020
_symmetry_space_group_name_H-M "C M C M"
_symmetry_group_IT_number 63
_symmetry_cell_setting 'orthorhombic'
loop_
_space_group_symop_operation_xyz
x,y,z
-x,-y,1/2+z
x,-y,-z
-x,y,1/2-z
-x,-y,-z
x,y,1/2-z
-x,y,z
x,-y,1/2+z
1/2+x,1/2+y,z
1/2-x,1/2-y,1/2+z
1/2+x,1/2-y,-z
1/2-x,1/2+y,1/2-z
1/2-x,1/2-y,-z
1/2+x,1/2+y,1/2-z
1/2-x,1/2+y,z
1/2+x,1/2-y,1/2+z
loop_
_atom_site_type_symbol
_atom_site_label
_atom_site_fract_x
_atom_site_fract_y
_atom_site_fract_z
Si Si1 0.363843 0.198302 0.436343
Si Si2 0.560263 0.445285 0.079521
Si Si3 0.717033 0.436179 0.423233
Si Si4 0.159843 0.393394 0.407644
Si Si5 0.357807 0.384222 0.832558
O O1 0.415515 0.286815 0.415059
O O2 0.311452 0.284141 0.414703
O O3 0.363306 0.170237 0.520080
O O4 0.365065 0.049291 0.393164
O O5 0.500000 0.438113 0.103211
O O6 0.589911 0.552547 0.131937
O O7 0.567376 0.500000 0.000000
O O8 0.703437 0.500000 0.500000
O O9 0.777997 0.411808 0.413321
O O10 0.694794 0.545945 0.365041
O O11 0.144366 0.286682 0.344444
O O12 0.359696 0.418101 0.750000
#
# Coordination Sequence:
#
# PCOD8256288 Si02
#       5
#    16  16  16  16  16
#     4  10  18  31  55  86 108 138 184 238 278 313
#     4  10  20  39  62  82 104 138 192 244 281 330
#     4  11  18  33  57  82 110 154 198 225 259 326
#     4  11  19  31  54  85 116 146 178 225 280 331
#     4  11  23  37  53  79 116 150 185 229 284 340
#
# _framework density 17.825358999999999
#
# number of rings (size 3 to 8) (size 9 to 14) (size 15 to 20)
#    0.000    1.400    6.000    3.000    0.000    1.200 
#    0.000    7.000    0.000    0.000    0.000    0.000 
#    0.000    0.000    0.000    0.000    0.000    0.000 
#
# Total GULP energy -496066.450337 kJ/mol
# GULP energy per Si atom -12401.661258 kJ/mol
# Density = 1.778479 g / cm^3
# Si number density = 17.825359 Si / 1000 Ang^3
#
#
#
# Elastic Constant Matrix: (Units=GPa)
#
#
# Indices 1 2 3 4 5 6 
#
# 1 90.8701 43.8985 34.3640 0.0000 0.0000 0.0000
# 2 43.8985 142.7383 39.3387 0.0000 0.0000 0.0000
# 3 34.3640 39.3387 99.1411 0.0000 0.0000 0.0000
# 4 0.0000 0.0000 0.0000 20.8504 0.0000 0.0000
# 5 0.0000 0.0000 0.0000 0.0000 1.1891 0.0000
# 6 0.0000 0.0000 0.0000 0.0000 0.0000 3.9366
#
#
#
# Elastic Compliance Matrix: (Units=1/GPa)
#
#
# Indices 1 2 3 4 5 6 
#
# 1 0.013936 -0.003318 -0.003514 0.000000 0.000000 0.000000
# 2 -0.003318 0.008656 -0.002285 0.000000 0.000000 0.000000
# 3 -0.003514 -0.002285 0.012211 0.000000 0.000000 0.000000
# 4 0.000000 0.000000 0.000000 0.047961 0.000000 0.000000
# 5 0.000000 0.000000 0.000000 0.000000 0.840946 0.000000
# 6 0.000000 0.000000 0.000000 0.000000 0.000000 0.254027
#
#
# Mechanical properties :
#
#
# Convention : Reuss Voigt Hill
#
# Bulk Modulus (GPa) = 60.34786 63.10578 61.72682
# Shear Modulus (GPa) = 4.16149 19.53846 11.84997
#
# Velocity S-wave (km/s) = 1.52959 3.31434 2.58113
# Velocity P-wave (km/s) = 6.08671 7.07994 6.60203
#
# Compressibility (1/GPa) = 0.01657060
#
# Stress axis : x y z
#
# Youngs Moduli (GPa) = 71.75486 115.52982 81.89175
#
# Poissons Ratio (x) = 0.38328 0.28778
# Poissons Ratio (y) = 0.23805 0.18709
# Poissons Ratio (z) = 0.25216 0.26395
#
# Static dielectric constant tensor:
#      x y z
#    x 3.224550 0.000000 0.000000 
#    y 0.000000 3.654070 0.000000 
#    z 0.000000 0.000000 3.060350 
# 
# 
# High freq. dielectric constant tensor:
#      x y z
#    x 1.678780 0.000000 0.000000 
#    y 0.000000 1.708870 0.000000 
#    z 0.000000 0.000000 1.656370 
# 
# From -- ./inp_files/48785.got.cif
#   From: 2010.03.12/outbox.cif.g09.slc.cpg/sg63_25_cif.got.tgz:48785.got - 2010.04.10 19:34:48.
