data_PCOD8256356
_publ_section_title
;
Structure prediction by ZEFSAII (Michael W. Deem and Ramdas Pophale) SiO2 
 PCOD8256356
Probable space group: C M C M
;
_chemical_formula_sum "Si O2"
_cell_formula_units_Z 96
_cell_length_a 9.111890
_cell_length_b 29.945882
_cell_length_c 19.036458
_cell_angle_alpha 90.000000
_cell_angle_beta 90.000000
_cell_angle_gamma 90.000000
_cell_volume 5194.356133
_symmetry_space_group_name_H-M "C M C M"
_symmetry_group_IT_number 63
_symmetry_cell_setting 'orthorhombic'
loop_
_space_group_symop_operation_xyz
x,y,z
-x,-y,1/2+z
x,-y,-z
-x,y,1/2-z
-x,-y,-z
x,y,1/2-z
-x,y,z
x,-y,1/2+z
1/2+x,1/2+y,z
1/2-x,1/2-y,1/2+z
1/2+x,1/2-y,-z
1/2-x,1/2+y,1/2-z
1/2-x,1/2-y,-z
1/2+x,1/2+y,1/2-z
1/2-x,1/2+y,z
1/2+x,1/2-y,1/2+z
loop_
_atom_site_type_symbol
_atom_site_label
_atom_site_fract_x
_atom_site_fract_y
_atom_site_fract_z
Si Si1 0.326275 0.409703 0.062217
Si Si2 0.674950 0.518371 0.829429
Si Si3 0.826434 0.070383 0.407107
Si Si4 0.669519 0.690496 0.553790
Si Si5 0.667367 0.850079 0.669272
Si Si6 0.168821 0.773937 0.898214
O O1 0.500000 0.407584 0.066114
O O2 0.263851 0.439367 0.126472
O O3 0.266723 0.359116 0.067725
O O4 0.281076 0.433022 0.988858
O O5 0.736608 0.520836 0.750000
O O6 0.500000 0.518692 0.829272
O O7 0.731524 0.473358 0.866770
O O8 0.751821 0.113555 0.375467
O O9 0.000000 0.076323 0.398260
O O10 0.500000 0.694918 0.576177
O O11 0.764712 0.724284 0.600246
O O12 0.689206 0.701150 0.472055
O O13 0.676411 0.864130 0.750000
O O14 0.500000 0.846991 0.643197
O O15 0.743626 0.802101 0.659616
O O16 0.000000 0.770502 0.876037
#
# Coordination Sequence:
#
# PCOD8256356 Si02
#       6
#    16  16  16  16  16  16
#     4   9  16  29  49  75 106 139 176 218 262 309
#     4   9  17  28  47  77 108 137 172 218 267 312
#     4  10  18  32  53  78 103 135 179 222 262 310
#     4   9  17  31  51  76 104 135 171 214 261 309
#     4  11  23  36  51  75 108 142 174 216 272 325
#     4  10  19  33  53  77 103 135 174 215 261 312
#
# _framework density 18.481598000000002
#
# number of rings (size 3 to 8) (size 9 to 14) (size 15 to 20)
#    0.000    2.333    1.667    2.000    0.000    4.667 
#    0.000    0.833    0.000    6.000    0.000    0.000 
#    0.000    0.000    0.000    0.000    0.000    0.000 
#
# Total GULP energy -595203.586411 kJ/mol
# GULP energy per Si atom -12400.074717 kJ/mol
# Density = 1.843953 g / cm^3
# Si number density = 18.481598 Si / 1000 Ang^3
#
#
#
# Elastic Constant Matrix: (Units=GPa)
#
#
# Indices 1 2 3 4 5 6 
#
# 1 48.6967 35.5225 25.1956 0.0000 0.0000 0.0000
# 2 35.5225 148.7961 70.7194 0.0000 0.0000 0.0000
# 3 25.1956 70.7194 105.6510 0.0000 0.0000 0.0000
# 4 0.0000 0.0000 0.0000 22.1185 0.0000 0.0000
# 5 0.0000 0.0000 0.0000 0.0000 13.4672 0.0000
# 6 0.0000 0.0000 0.0000 0.0000 0.0000 24.7328
#
#
#
# Elastic Compliance Matrix: (Units=1/GPa)
#
#
# Indices 1 2 3 4 5 6 
#
# 1 0.025473 -0.004684 -0.002939 0.000000 0.000000 0.000000
# 2 -0.004684 0.010718 -0.006057 0.000000 0.000000 0.000000
# 3 -0.002939 -0.006057 0.014220 0.000000 0.000000 0.000000
# 4 0.000000 0.000000 0.000000 0.045211 0.000000 0.000000
# 5 0.000000 0.000000 0.000000 0.000000 0.074255 0.000000
# 6 0.000000 0.000000 0.000000 0.000000 0.000000 0.040432
#
#
# Mechanical properties :
#
#
# Convention : Reuss Voigt Hill
#
# Bulk Modulus (GPa) = 43.38380 62.89098 53.13739
# Shear Modulus (GPa) = 20.37877 23.51077 21.94477
#
# Velocity S-wave (km/s) = 3.32422 3.57055 3.44958
# Velocity P-wave (km/s) = 6.18538 7.14851 6.68432
#
# Compressibility (1/GPa) = 0.02305008
#
# Stress axis : x y z
#
# Youngs Moduli (GPa) = 39.25717 93.30433 70.32143
#
# Poissons Ratio (x) = 0.43706 0.20670
# Poissons Ratio (y) = 0.18389 0.42593
# Poissons Ratio (z) = 0.11539 0.56514
#
# Static dielectric constant tensor:
#      x y z
#    x 3.095960 0.000000 0.000000 
#    y 0.000000 3.624050 0.000000 
#    z 0.000000 0.000000 3.425530 
# 
# 
# High freq. dielectric constant tensor:
#      x y z
#    x 1.679500 0.000000 0.000000 
#    y 0.000000 1.729200 0.000000 
#    z 0.000000 0.000000 1.705450 
# 
# From -- ./inp_files/51293.got.cif
#   From: 2010.03.12/outbox.cif.g09.slc.cpg/sg63_26_cif.got.tgz:51293.got - 2010.04.10 19:34:48.
