data_PCOD8256698
_publ_section_title
;
Structure prediction by ZEFSAII (Michael W. Deem and Ramdas Pophale) SiO2 
 PCOD8256698
Probable space group: C M C M
;
_chemical_formula_sum "Si O2"
_cell_formula_units_Z 128
_cell_length_a 16.695000
_cell_length_b 26.990634
_cell_length_c 17.801105
_cell_angle_alpha 90.000000
_cell_angle_beta 90.000000
_cell_angle_gamma 90.000000
_cell_volume 8021.331619
_symmetry_space_group_name_H-M "C M C M"
_symmetry_group_IT_number 63
_symmetry_cell_setting 'orthorhombic'
loop_
_space_group_symop_operation_xyz
x,y,z
-x,-y,1/2+z
x,-y,-z
-x,y,1/2-z
-x,-y,-z
x,y,1/2-z
-x,y,z
x,-y,1/2+z
1/2+x,1/2+y,z
1/2-x,1/2-y,1/2+z
1/2+x,1/2-y,-z
1/2-x,1/2+y,1/2-z
1/2-x,1/2-y,-z
1/2+x,1/2+y,1/2-z
1/2-x,1/2+y,z
1/2+x,1/2-y,1/2+z
loop_
_atom_site_type_symbol
_atom_site_label
_atom_site_fract_x
_atom_site_fract_y
_atom_site_fract_z
Si Si1 0.591127 0.199560 0.335653
Si Si2 0.217161 0.532022 0.665554
Si Si3 0.207530 0.117981 0.567839
Si Si4 0.591172 0.447221 0.976466
Si Si5 0.091003 0.184215 0.663201
Si Si6 0.089768 0.526996 0.421486
Si Si7 0.193637 0.376076 0.924326
Si Si8 0.820946 0.935295 0.665545
O O1 0.611374 0.184513 0.250000
O O2 0.500000 0.184300 0.354289
O O3 0.602824 0.257621 0.347424
O O4 0.650671 0.172160 0.392009
O O5 0.203311 0.550602 0.750000
O O6 0.243688 0.579397 0.618181
O O7 0.134660 0.508341 0.637053
O O8 0.284296 0.489958 0.662244
O O9 0.135726 0.093319 0.523823
O O10 0.163791 0.159527 0.617430
O O11 0.269074 0.139259 0.505260
O O12 0.500000 0.444511 0.000238
O O13 0.601067 0.437201 0.887505
O O14 0.628589 0.500000 0.000000
O O15 0.100777 0.168804 0.750000
O O16 0.000000 0.169310 0.636988
O O17 0.089742 0.500000 0.500000
O O18 0.130558 0.579871 0.433431
O O19 0.000000 0.535408 0.390974
O O20 0.260805 0.393798 0.865566
O O21 0.846384 0.920944 0.750000
#
# Coordination Sequence:
#
# PCOD8256698 Si02
#       8
#    16  16  16  16  16  16  16  16
#     4   9  18  34  53  73  98 124 157 204 249 289
#     4  10  19  31  46  66  93 127 162 197 236 275
#     4  11  19  31  49  70  98 127 158 199 238 290
#     4  10  19  30  45  63  90 125 161 198 236 279
#     4   9  19  35  53  72  96 126 160 202 249 292
#     4  10  19  32  48  68  97 129 163 195 230 278
#     4  10  19  29  51  74  96 127 159 196 243 290
#     4   9  18  30  45  65  92 123 158 197 235 279
#
# _framework density 15.95745
#
# number of rings (size 3 to 8) (size 9 to 14) (size 15 to 20)
#    0.000    2.250    2.500    2.250    0.000    1.500 
#    0.000    0.000    0.000    0.000    0.000    0.000 
#    0.000    0.000    0.000   19.750    0.000    0.000 
#
# Total GULP energy -793325.843699 kJ/mol
# GULP energy per Si atom -12395.716308 kJ/mol
# Density = 1.592113 g / cm^3
# Si number density = 15.957450 Si / 1000 Ang^3
#
#
#
# Elastic Constant Matrix: (Units=GPa)
#
#
# Indices 1 2 3 4 5 6 
#
# 1 79.6379 39.0371 45.6196 0.0000 0.0000 0.0000
# 2 39.0371 62.0081 40.9009 0.0000 0.0000 0.0000
# 3 45.6196 40.9009 111.4451 0.0000 0.0000 0.0000
# 4 0.0000 0.0000 0.0000 24.4163 0.0000 0.0000
# 5 0.0000 0.0000 0.0000 0.0000 26.9280 0.0000
# 6 0.0000 0.0000 0.0000 0.0000 0.0000 -5.9880
#
#
#
# Elastic Compliance Matrix: (Units=1/GPa)
#
#
# Indices 1 2 3 4 5 6 
#
# 1 0.019846 -0.009415 -0.004669 0.000000 0.000000 0.000000
# 2 -0.009415 0.025744 -0.005594 0.000000 0.000000 0.000000
# 3 -0.004669 -0.005594 0.012937 0.000000 0.000000 0.000000
# 4 0.000000 0.000000 0.000000 0.040956 0.000000 0.000000
# 5 0.000000 0.000000 0.000000 0.000000 0.037136 0.000000
# 6 0.000000 0.000000 0.000000 0.000000 0.000000 -0.166999
#
#
# Mechanical properties :
#
#
# Convention : Reuss Voigt Hill
#
# Bulk Modulus (GPa) = 52.15922 56.02292 54.09107
# Shear Modulus (GPa) = 325.39094 17.57348 171.48221
#
# Velocity S-wave (km/s) = 14.29525 3.32214 10.37764
# Velocity P-wave (km/s) = 17.47083 7.06395 13.32534
#
# Compressibility (1/GPa) = 0.01917207
#
# Stress axis : x y z
#
# Youngs Moduli (GPa) = 50.38773 38.84421 77.29582
#
# Poissons Ratio (x) = 0.36570 0.36087
# Poissons Ratio (y) = 0.47438 0.43242
# Poissons Ratio (z) = 0.23525 0.21731
#
# Static dielectric constant tensor:
#      x y z
#    x 3.082390 0.000000 0.000000 
#    y 0.000000 2.821850 0.000000 
#    z 0.000000 0.000000 3.241070 
# 
# 
# High freq. dielectric constant tensor:
#      x y z
#    x 1.610210 0.000000 0.000000 
#    y 0.000000 1.595070 0.000000 
#    z 0.000000 0.000000 1.619880 
# 
# From -- ./inp_files/46321.got.cif
#   From: 2010.03.12/outbox.cif.g09.slc.cpg/sg63_24_cif.got.tgz:46321.got - 2010.04.10 19:34:48.
