data_PCOD8256912
_publ_section_title
;
Structure prediction by ZEFSAII (Michael W. Deem and Ramdas Pophale) SiO2 
 PCOD8256912
Probable space group: C M C M
;
_chemical_formula_sum "Si O2"
_cell_formula_units_Z 112
_cell_length_a 13.590811
_cell_length_b 28.967861
_cell_length_c 17.194257
_cell_angle_alpha 90.000000
_cell_angle_beta 90.000000
_cell_angle_gamma 90.000000
_cell_volume 6769.322651
_symmetry_space_group_name_H-M "C M C M"
_symmetry_group_IT_number 63
_symmetry_cell_setting 'orthorhombic'
loop_
_space_group_symop_operation_xyz
x,y,z
-x,-y,1/2+z
x,-y,-z
-x,y,1/2-z
-x,-y,-z
x,y,1/2-z
-x,y,z
x,-y,1/2+z
1/2+x,1/2+y,z
1/2-x,1/2-y,1/2+z
1/2+x,1/2-y,-z
1/2-x,1/2+y,1/2-z
1/2-x,1/2-y,-z
1/2+x,1/2+y,1/2-z
1/2-x,1/2+y,z
1/2+x,1/2-y,1/2+z
loop_
_atom_site_type_symbol
_atom_site_label
_atom_site_fract_x
_atom_site_fract_y
_atom_site_fract_z
Si Si1 0.114931 0.404775 0.090514
Si Si2 0.611767 0.727747 0.590976
Si Si3 0.388233 0.727746 0.409027
Si Si4 0.883246 0.499999 0.162529
Si Si5 0.204648 0.315743 0.840543
Si Si6 0.614931 0.095224 0.409485
Si Si7 0.204646 0.315742 0.159457
O O1 0.154031 0.454829 0.117013
O O2 0.176092 0.367619 0.138741
O O3 0.000000 0.398828 0.109825
O O4 0.136279 0.398342 0.999999
O O5 0.500000 0.716579 0.614210
O O6 0.630054 0.720782 0.500002
O O7 0.635746 0.780676 0.611936
O O8 0.681339 0.692725 0.637967
O O9 0.500000 0.716578 0.385794
O O10 0.318661 0.692723 0.362037
O O11 0.364253 0.780675 0.388066
O O12 0.840686 0.499999 0.250000
O O13 0.845969 0.545170 0.117013
O O14 0.000000 0.499999 0.163970
O O15 0.188589 0.306613 0.750000
O O16 0.176091 0.367620 0.861256
O O17 0.500000 0.101171 0.390174
O O18 0.188582 0.306613 0.250000
#
# Coordination Sequence:
#
# PCOD8256912 Si02
#       7
#    16  16  16  16  16  16  16
#     4  10  19  31  47  67  94 127 159 190 227 274
#     4  10  20  34  50  67  91 123 157 193 231 274
#     4  10  20  34  50  67  91 123 157 193 231 274
#     4   9  17  29  45  67  94 121 152 191 233 275
#     4  11  21  31  47  70  95 123 155 192 232 274
#     4  10  19  31  47  67  94 127 159 190 227 274
#     4  11  21  31  47  70  95 123 155 192 232 274
#
# _framework density 16.54523
#
# number of rings (size 3 to 8) (size 9 to 14) (size 15 to 20)
#    0.000    1.857    0.000    7.286    0.000    9.143 
#    0.000    0.000    0.000    0.000    0.000    1.000 
#    0.000    8.000    0.000    0.000    0.000    0.000 
#
# Total GULP energy -694572.785743 kJ/mol
# GULP energy per Si atom -12403.085460 kJ/mol
# Density = 1.650757 g / cm^3
# Si number density = 16.545230 Si / 1000 Ang^3
#
#
#
# Elastic Constant Matrix: (Units=GPa)
#
#
# Indices 1 2 3 4 5 6 
#
# 1 71.5217 36.7966 29.8449 0.0000 0.0000 0.0000
# 2 36.7966 104.5605 18.4804 0.0000 0.0000 0.0000
# 3 29.8449 18.4804 64.2279 0.0000 0.0000 0.0000
# 4 0.0000 0.0000 0.0000 30.9809 0.0000 0.0000
# 5 0.0000 0.0000 0.0000 0.0000 18.5055 0.0000
# 6 0.0000 0.0000 0.0000 0.0000 0.0000 20.2716
#
#
#
# Elastic Compliance Matrix: (Units=1/GPa)
#
#
# Indices 1 2 3 4 5 6 
#
# 1 0.020147 -0.005727 -0.007714 0.000000 0.000000 0.000000
# 2 -0.005727 0.011704 -0.000707 0.000000 0.000000 0.000000
# 3 -0.007714 -0.000707 0.019357 0.000000 0.000000 0.000000
# 4 0.000000 0.000000 0.000000 0.032278 0.000000 0.000000
# 5 0.000000 0.000000 0.000000 0.000000 0.054038 0.000000
# 6 0.000000 0.000000 0.000000 0.000000 0.000000 0.049330
#
#
# Mechanical properties :
#
#
# Convention : Reuss Voigt Hill
#
# Bulk Modulus (GPa) = 43.64173 45.61708 44.62940
# Shear Modulus (GPa) = 22.44298 24.29748 23.37023
#
# Velocity S-wave (km/s) = 3.68701 3.83632 3.76241
# Velocity P-wave (km/s) = 6.67532 6.87417 6.77547
#
# Compressibility (1/GPa) = 0.02291385
#
# Stress axis : x y z
#
# Youngs Moduli (GPa) = 49.63525 85.44062 51.65999
#
# Poissons Ratio (x) = 0.48929 0.39850
# Poissons Ratio (y) = 0.28424 0.03650
# Poissons Ratio (z) = 0.38289 0.06037
#
# Static dielectric constant tensor:
#      x y z
#    x 2.942300 0.000000 0.000000 
#    y 0.000000 3.108230 0.000000 
#    z 0.000000 0.000000 3.242300 
# 
# 
# High freq. dielectric constant tensor:
#      x y z
#    x 1.604380 0.000000 0.000000 
#    y 0.000000 1.632300 0.000000 
#    z 0.000000 0.000000 1.657790 
# 
# From -- ./inp_files/32506.got.cif
#   From: 2010.03.12/outbox.cif.g09.slc.cpg/sg63_17_cif.got.tgz:32506.got - 2010.04.10 19:34:48.
