data_PCOD8256453
_publ_section_title
;
Structure prediction by ZEFSAII (Michael W. Deem and Ramdas Pophale) SiO2 
 PCOD8256453
Probable space group: C M C M
;
_chemical_formula_sum "Si O2"
_cell_formula_units_Z 80
_cell_length_a 20.236364
_cell_length_b 10.163628
_cell_length_c 21.016880
_cell_angle_alpha 90.000000
_cell_angle_beta 90.000000
_cell_angle_gamma 90.000000
_cell_volume 4322.644183
_symmetry_space_group_name_H-M "C M C M"
_symmetry_group_IT_number 63
_symmetry_cell_setting 'orthorhombic'
loop_
_space_group_symop_operation_xyz
x,y,z
-x,-y,1/2+z
x,-y,-z
-x,y,1/2-z
-x,-y,-z
x,y,1/2-z
-x,y,z
x,-y,1/2+z
1/2+x,1/2+y,z
1/2-x,1/2-y,1/2+z
1/2+x,1/2-y,-z
1/2-x,1/2+y,1/2-z
1/2-x,1/2-y,-z
1/2+x,1/2+y,1/2-z
1/2-x,1/2+y,z
1/2+x,1/2-y,1/2+z
loop_
_atom_site_type_symbol
_atom_site_label
_atom_site_fract_x
_atom_site_fract_y
_atom_site_fract_z
Si Si1 0.000000 0.039507 0.073214
Si Si2 0.774898 0.815038 0.250000
Si Si3 0.764856 0.373185 0.957312
Si Si4 0.000000 0.199248 0.825901
Si Si5 0.362098 0.742042 0.869899
Si Si6 0.677358 0.591287 0.250000
Si Si7 0.635380 0.447112 0.886144
O O1 0.068831 0.119513 0.084118
O O2 0.000000 0.928598 0.128813
O O3 0.000000 0.000000 0.000000
O O4 0.812954 0.768043 0.188457
O O5 0.705276 0.739329 0.250000
O O6 0.766302 0.974609 0.250000
O O7 0.832304 0.351269 0.917438
O O8 0.702388 0.382855 0.910662
O O9 0.776083 0.500000 0.000000
O O10 0.750000 0.250000 0.000000
O O11 0.065264 0.283597 0.844363
O O12 0.000000 0.164877 0.750000
O O13 0.364922 0.601238 0.905893
O O14 0.630424 0.569696 0.189640
#
# Coordination Sequence:
#
# PCOD8256453 Si02
#       7
#     8   8  16   8  16   8  16
#     4  10  22  34  54  82 123 154 192 242 301 344
#     4  10  18  33  55  85 111 139 180 238 300 332
#     4  12  23  37  57  85 121 158 198 234 291 359
#     4  10  20  36  61  88 116 154 205 254 299 356
#     4  10  20  36  58  85 116 146 192 248 293 342
#     4  10  20  33  57  87 113 141 192 242 298 348
#     4  10  21  36  57  85 115 149 193 245 296 347
#
# _framework density 18.507190000000001
#
# number of rings (size 3 to 8) (size 9 to 14) (size 15 to 20)
#    0.000    1.600    5.000    0.600    7.000    0.000 
#    0.000    0.500    0.000    0.000    0.000    1.400 
#    0.000    0.000    0.000    0.000    0.000    0.000 
#
# Total GULP energy -495656.082742 kJ/mol
# GULP energy per Si atom -12391.402069 kJ/mol
# Density = 1.846507 g / cm^3
# Si number density = 18.507190 Si / 1000 Ang^3
#
#
#
# Elastic Constant Matrix: (Units=GPa)
#
#
# Indices 1 2 3 4 5 6 
#
# 1 124.9023 21.7626 46.7772 0.0000 0.0000 0.0000
# 2 21.7626 60.5125 28.9611 0.0000 0.0000 0.0000
# 3 46.7772 28.9611 117.1515 0.0000 0.0000 0.0000
# 4 0.0000 0.0000 0.0000 24.7395 0.0000 0.0000
# 5 0.0000 0.0000 0.0000 0.0000 47.0948 0.0000
# 6 0.0000 0.0000 0.0000 0.0000 0.0000 18.4461
#
#
#
# Elastic Compliance Matrix: (Units=1/GPa)
#
#
# Indices 1 2 3 4 5 6 
#
# 1 0.009590 -0.001833 -0.003376 0.000000 0.000000 0.000000
# 2 -0.001833 0.019094 -0.003988 0.000000 0.000000 0.000000
# 3 -0.003376 -0.003988 0.010870 0.000000 0.000000 0.000000
# 4 0.000000 0.000000 0.000000 0.040421 0.000000 0.000000
# 5 0.000000 0.000000 0.000000 0.000000 0.021234 0.000000
# 6 0.000000 0.000000 0.000000 0.000000 0.000000 0.054212
#
#
# Mechanical properties :
#
#
# Convention : Reuss Voigt Hill
#
# Bulk Modulus (GPa) = 47.26186 55.28537 51.27361
# Shear Modulus (GPa) = 27.64450 31.72711 29.68581
#
# Velocity S-wave (km/s) = 3.86906 4.14492 4.00936
# Velocity P-wave (km/s) = 6.74922 7.26941 7.01414
#
# Compressibility (1/GPa) = 0.02115871
#
# Stress axis : x y z
#
# Youngs Moduli (GPa) = 104.27510 52.37381 91.99747
#
# Poissons Ratio (x) = 0.09601 0.31058
# Poissons Ratio (y) = 0.19116 0.36690
# Poissons Ratio (z) = 0.35203 0.20887
#
# Static dielectric constant tensor:
#      x y z
#    x 3.959990 0.000000 0.000000 
#    y 0.000000 3.144410 0.000000 
#    z 0.000000 0.000000 3.646320 
# 
# 
# High freq. dielectric constant tensor:
#      x y z
#    x 1.723500 0.000000 0.000000 
#    y 0.000000 1.665920 0.000000 
#    z 0.000000 0.000000 1.742750 
# 
# From -- ./inp_files/46882.got.cif
#   From: 2010.03.12/outbox.cif.g09.slc.cpg/sg63_24_cif.got.tgz:46882.got - 2010.04.10 19:34:48.
