data_PCOD8256110
_publ_section_title
;
Structure prediction by ZEFSAII (Michael W. Deem and Ramdas Pophale) SiO2 
 PCOD8256110
Probable space group: C M C M
;
_chemical_formula_sum "Si O2"
_cell_formula_units_Z 96
_cell_length_a 12.043327
_cell_length_b 29.457865
_cell_length_c 14.113304
_cell_angle_alpha 90.000000
_cell_angle_beta 90.000000
_cell_angle_gamma 90.000000
_cell_volume 5006.986752
_symmetry_space_group_name_H-M "C M C M"
_symmetry_group_IT_number 63
_symmetry_cell_setting 'orthorhombic'
loop_
_space_group_symop_operation_xyz
x,y,z
-x,-y,1/2+z
x,-y,-z
-x,y,1/2-z
-x,-y,-z
x,y,1/2-z
-x,y,z
x,-y,1/2+z
1/2+x,1/2+y,z
1/2-x,1/2-y,1/2+z
1/2+x,1/2-y,-z
1/2-x,1/2+y,1/2-z
1/2-x,1/2-y,-z
1/2+x,1/2+y,1/2-z
1/2-x,1/2+y,z
1/2+x,1/2-y,1/2+z
loop_
_atom_site_type_symbol
_atom_site_label
_atom_site_fract_x
_atom_site_fract_y
_atom_site_fract_z
Si Si1 0.500000 0.771519 0.363205
Si Si2 0.279085 0.377685 0.638280
Si Si3 0.375182 0.203079 0.137165
Si Si4 0.258621 0.209445 0.863299
Si Si5 0.500000 0.329574 0.862499
Si Si6 0.128352 0.948407 0.986131
Si Si7 0.626352 0.376646 0.357027
O O1 0.500000 0.771852 0.250000
O O2 0.613905 0.794509 0.400724
O O3 0.500000 0.720765 0.403133
O O4 0.278570 0.385179 0.750000
O O5 0.177513 0.345375 0.606532
O O6 0.391567 0.354626 0.599427
O O7 0.283361 0.426901 0.588509
O O8 0.377917 0.205776 0.250000
O O9 0.500000 0.206332 0.095354
O O10 0.300802 0.244748 0.097499
O O11 0.254789 0.211437 0.750000
O O12 0.197762 0.164539 0.901222
O O13 0.500000 0.328381 0.750000
O O14 0.000000 0.945886 0.950194
O O15 0.143503 0.922787 0.085617
O O16 0.165483 0.000000 0.000000
O O17 0.663974 0.387403 0.250000
O O18 0.500000 0.359688 0.360265
#
# Coordination Sequence:
#
# PCOD8256110 Si02
#       7
#     8  16  16  16   8  16  16
#     4   9  14  22  42  73 104 135 169 200 237 282
#     4  10  18  30  51  76 103 132 162 201 249 299
#     4   9  16  26  45  74 105 137 170 200 236 289
#     4   9  15  25  45  72 102 136 169 201 237 284
#     4   9  14  24  43  71 102 131 160 192 242 292
#     4  10  21  35  52  75 100 125 161 212 261 304
#     4   9  18  33  51  71  99 135 168 199 242 294
#
# _framework density 19.173207999999999
#
# number of rings (size 3 to 8) (size 9 to 14) (size 15 to 20)
#    0.000    2.667    2.500    0.500    0.000    2.667 
#    0.000    2.500    1.833    0.500    0.000    0.000 
#    0.000    0.000    0.000    0.000    0.000    0.000 
#
# Total GULP energy -595037.972718 kJ/mol
# GULP energy per Si atom -12396.624432 kJ/mol
# Density = 1.912957 g / cm^3
# Si number density = 19.173208 Si / 1000 Ang^3
#
#
#
# Elastic Constant Matrix: (Units=GPa)
#
#
# Indices 1 2 3 4 5 6 
#
# 1 128.1184 67.8586 26.8577 0.0000 0.0000 0.0000
# 2 67.8586 160.1289 34.2730 0.0000 0.0000 0.0000
# 3 26.8577 34.2730 28.4198 0.0000 0.0000 0.0000
# 4 0.0000 0.0000 0.0000 21.6441 0.0000 0.0000
# 5 0.0000 0.0000 0.0000 0.0000 18.2223 0.0000
# 6 0.0000 0.0000 0.0000 0.0000 0.0000 26.0390
#
#
#
# Elastic Compliance Matrix: (Units=1/GPa)
#
#
# Indices 1 2 3 4 5 6 
#
# 1 0.010852 -0.003240 -0.006348 0.000000 0.000000 0.000000
# 2 -0.003240 0.009385 -0.008256 0.000000 0.000000 0.000000
# 3 -0.006348 -0.008256 0.051143 0.000000 0.000000 0.000000
# 4 0.000000 0.000000 0.000000 0.046202 0.000000 0.000000
# 5 0.000000 0.000000 0.000000 0.000000 0.054878 0.000000
# 6 0.000000 0.000000 0.000000 0.000000 0.000000 0.038404
#
#
# Mechanical properties :
#
#
# Convention : Reuss Voigt Hill
#
# Bulk Modulus (GPa) = 28.01824 63.84954 45.93389
# Shear Modulus (GPa) = 19.34612 25.69291 22.51951
#
# Velocity S-wave (km/s) = 3.17995 3.66463 3.43086
# Velocity P-wave (km/s) = 5.30356 7.16099 6.30109
#
# Compressibility (1/GPa) = 0.03569103
#
# Stress axis : x y z
#
# Youngs Moduli (GPa) = 92.14678 106.55147 19.55319
#
# Poissons Ratio (x) = 0.34524 0.12413
# Poissons Ratio (y) = 0.29857 0.16143
# Poissons Ratio (z) = 0.58497 0.87969
#
# Static dielectric constant tensor:
#      x y z
#    x 3.637820 0.000000 0.000000 
#    y 0.000000 3.387670 0.000000 
#    z 0.000000 0.000000 3.301860 
# 
# 
# High freq. dielectric constant tensor:
#      x y z
#    x 1.730050 0.000000 0.000000 
#    y 0.000000 1.722300 0.000000 
#    z 0.000000 0.000000 1.742260 
# 
# From -- ./inp_files/30344.got.cif
#   From: 2010.03.12/outbox.cif.g09.slc.cpg/sg63_16_cif.got.tgz:30344.got - 2010.04.10 19:34:48.
