data_PCOD8256272
_publ_section_title
;
Structure prediction by ZEFSAII (Michael W. Deem and Ramdas Pophale) SiO2 
 PCOD8256272
Probable space group: C M C M
;
_chemical_formula_sum "Si O2"
_cell_formula_units_Z 72
_cell_length_a 14.908327
_cell_length_b 9.861824
_cell_length_c 25.591297
_cell_angle_alpha 90.000000
_cell_angle_beta 90.000000
_cell_angle_gamma 90.000000
_cell_volume 3762.516860
_symmetry_space_group_name_H-M "C M C M"
_symmetry_group_IT_number 63
_symmetry_cell_setting 'orthorhombic'
loop_
_space_group_symop_operation_xyz
x,y,z
-x,-y,1/2+z
x,-y,-z
-x,y,1/2-z
-x,-y,-z
x,y,1/2-z
-x,y,z
x,-y,1/2+z
1/2+x,1/2+y,z
1/2-x,1/2-y,1/2+z
1/2+x,1/2-y,-z
1/2-x,1/2+y,1/2-z
1/2-x,1/2-y,-z
1/2+x,1/2+y,1/2-z
1/2-x,1/2+y,z
1/2+x,1/2-y,1/2+z
loop_
_atom_site_type_symbol
_atom_site_label
_atom_site_fract_x
_atom_site_fract_y
_atom_site_fract_z
Si Si1 0.000000 0.630165 0.628698
Si Si2 0.689878 0.528043 0.689622
Si Si3 0.000000 0.900759 0.690792
Si Si4 0.684248 0.804748 0.857266
Si Si5 0.399125 0.957251 0.943871
Si Si6 0.000000 0.376066 0.809305
O O1 0.911418 0.590273 0.593976
O O2 0.000000 0.537274 0.680576
O O3 0.000000 0.784203 0.646682
O O4 0.709974 0.566585 0.750000
O O5 0.585902 0.493768 0.681555
O O6 0.748138 0.399210 0.674089
O O7 0.718278 0.650906 0.650899
O O8 0.000000 0.840627 0.750000
O O9 0.671513 0.851317 0.917930
O O10 0.586165 0.806668 0.833180
O O11 0.500000 0.892001 0.950330
O O12 0.359608 0.000000 0.000000
O O13 0.000000 0.340012 0.750000
#
# Coordination Sequence:
#
# PCOD8256272 Si02
#       6
#     8  16   8  16  16   8
#     4   8  16  30  57  84 106 142 188 230 284 336
#     4  11  24  38  56  84 122 157 192 235 285 346
#     4  10  22  37  55  80 121 159 189 235 289 343
#     4  11  22  37  58  85 113 155 194 235 289 344
#     4   8  17  36  62  85 110 151 192 242 291 342
#     4  10  18  31  54  80 112 147 189 225 277 354
#
# _framework density 19.136126999999998
#
# number of rings (size 3 to 8) (size 9 to 14) (size 15 to 20)
#    0.667    1.556    1.111    3.000    6.222    0.889 
#    0.000    1.111    0.000    1.333    0.000    0.000 
#    0.000    0.000    0.000    0.000    0.000    0.000 
#
# Total GULP energy -446073.883799 kJ/mol
# GULP energy per Si atom -12390.941217 kJ/mol
# Density = 1.909257 g / cm^3
# Si number density = 19.136127 Si / 1000 Ang^3
#
#
#
# Elastic Constant Matrix: (Units=GPa)
#
#
# Indices 1 2 3 4 5 6 
#
# 1 71.5458 17.5770 4.6611 0.0000 0.0000 0.0000
# 2 17.5770 110.8945 28.2517 0.0000 0.0000 0.0000
# 3 4.6611 28.2517 76.0216 0.0000 0.0000 0.0000
# 4 0.0000 0.0000 0.0000 19.3018 0.0000 0.0000
# 5 0.0000 0.0000 0.0000 0.0000 14.9318 0.0000
# 6 0.0000 0.0000 0.0000 0.0000 0.0000 15.6903
#
#
#
# Elastic Compliance Matrix: (Units=1/GPa)
#
#
# Indices 1 2 3 4 5 6 
#
# 1 0.014543 -0.002295 -0.000039 0.000000 0.000000 0.000000
# 2 -0.002295 0.010323 -0.003696 0.000000 0.000000 0.000000
# 3 -0.000039 -0.003696 0.014530 0.000000 0.000000 0.000000
# 4 0.000000 0.000000 0.000000 0.051809 0.000000 0.000000
# 5 0.000000 0.000000 0.000000 0.000000 0.066971 0.000000
# 6 0.000000 0.000000 0.000000 0.000000 0.000000 0.063734
#
#
# Mechanical properties :
#
#
# Convention : Reuss Voigt Hill
#
# Bulk Modulus (GPa) = 36.58024 39.93794 38.25909
# Shear Modulus (GPa) = 20.56928 23.84960 22.20944
#
# Velocity S-wave (km/s) = 3.28211 3.53415 3.41046
# Velocity P-wave (km/s) = 5.78967 6.12938 5.96195
#
# Compressibility (1/GPa) = 0.02733716
#
# Stress axis : x y z
#
# Youngs Moduli (GPa) = 68.75930 96.87231 68.82366
#
# Poissons Ratio (x) = 0.22235 0.00266
# Poissons Ratio (y) = 0.15782 0.25434
# Poissons Ratio (z) = 0.00266 0.35799
#
# Static dielectric constant tensor:
#      x y z
#    x 3.406320 0.000000 0.000000 
#    y 0.000000 3.289200 0.000000 
#    z 0.000000 0.000000 3.629570 
# 
# 
# High freq. dielectric constant tensor:
#      x y z
#    x 1.737090 0.000000 0.000000 
#    y 0.000000 1.724510 0.000000 
#    z 0.000000 0.000000 1.732420 
# 
# From -- ./inp_files/69071.got.cif
#   From: 2010.03.12/outbox.cif.g09.slc.cpg/sg63_35_cif.got.tgz:69071.got - 2010.04.10 19:34:48.
