data_PCOD8256398
_publ_section_title
;
Structure prediction by ZEFSAII (Michael W. Deem and Ramdas Pophale) SiO2 
 PCOD8256398
Probable space group: C M C M
;
_chemical_formula_sum "Si O2"
_cell_formula_units_Z 96
_cell_length_a 12.912871
_cell_length_b 26.917752
_cell_length_c 14.747481
_cell_angle_alpha 90.000000
_cell_angle_beta 90.000000
_cell_angle_gamma 90.000000
_cell_volume 5126.009955
_symmetry_space_group_name_H-M "C M C M"
_symmetry_group_IT_number 63
_symmetry_cell_setting 'orthorhombic'
loop_
_space_group_symop_operation_xyz
x,y,z
-x,-y,1/2+z
x,-y,-z
-x,y,1/2-z
-x,-y,-z
x,y,1/2-z
-x,y,z
x,-y,1/2+z
1/2+x,1/2+y,z
1/2-x,1/2-y,1/2+z
1/2+x,1/2-y,-z
1/2-x,1/2+y,1/2-z
1/2-x,1/2-y,-z
1/2+x,1/2+y,1/2-z
1/2-x,1/2+y,z
1/2+x,1/2-y,1/2+z
loop_
_atom_site_type_symbol
_atom_site_label
_atom_site_fract_x
_atom_site_fract_y
_atom_site_fract_z
Si Si1 0.125863 0.922965 0.250000
Si Si2 0.877153 0.036263 0.250000
Si Si3 0.120128 0.888735 0.604186
Si Si4 0.620077 0.260624 0.148921
Si Si5 0.116592 0.782116 0.646907
Si Si6 0.122822 0.303628 0.018325
Si Si7 0.803022 0.135935 0.920231
O O1 0.184590 0.898245 0.333597
O O2 0.000000 0.914673 0.250000
O O3 0.161573 0.979943 0.250000
O O4 0.832800 0.065425 0.161643
O O5 0.000000 0.034117 0.250000
O O6 0.170778 0.835800 0.633794
O O7 0.139394 0.895867 0.497926
O O8 0.000000 0.887337 0.628912
O O9 0.674389 0.256206 0.250000
O O10 0.500000 0.259800 0.166875
O O11 0.642754 0.311502 0.096559
O O12 0.649353 0.213738 0.084591
O O13 0.120311 0.764588 0.750000
O O14 0.168836 0.738960 0.586736
O O15 0.000000 0.786788 0.610007
O O16 0.184358 0.353754 0.046576
O O17 0.000000 0.312989 0.031859
#
# Coordination Sequence:
#
# PCOD8256398 Si02
#       7
#     8   8  16  16  16  16  16
#     4  11  24  40  58  81 113 143 179 223 280 349
#     4   9  20  38  57  83 113 141 170 225 289 341
#     4  10  18  32  55  81 110 139 177 219 272 331
#     4  10  19  33  52  75 112 153 188 221 263 321
#     4   9  16  27  47  73 106 144 174 211 259 308
#     4  10  22  37  50  77 115 151 191 231 261 313
#     4  12  22  34  53  82 108 153 188 224 270 326
#
# _framework density 18.728017000000001
#
# number of rings (size 3 to 8) (size 9 to 14) (size 15 to 20)
#    0.000    1.833    3.333    2.000    1.167    0.667 
#    1.500    2.500    0.000    0.000    0.000    3.500 
#    0.000    0.000    0.000    0.000    0.000    0.000 
#
# Total GULP energy -594800.592722 kJ/mol
# GULP energy per Si atom -12391.679015 kJ/mol
# Density = 1.868539 g / cm^3
# Si number density = 18.728017 Si / 1000 Ang^3
#
#
#
# Elastic Constant Matrix: (Units=GPa)
#
#
# Indices 1 2 3 4 5 6 
#
# 1 42.9980 39.1385 22.0040 0.0000 0.0000 0.0000
# 2 39.1385 104.0608 51.1302 0.0000 0.0000 0.0000
# 3 22.0040 51.1302 150.7712 0.0000 0.0000 0.0000
# 4 0.0000 0.0000 0.0000 19.2027 0.0000 0.0000
# 5 0.0000 0.0000 0.0000 0.0000 3.1661 0.0000
# 6 0.0000 0.0000 0.0000 0.0000 0.0000 20.0842
#
#
#
# Elastic Compliance Matrix: (Units=1/GPa)
#
#
# Indices 1 2 3 4 5 6 
#
# 1 0.035441 -0.012945 -0.000782 0.000000 0.000000 0.000000
# 2 -0.012945 0.016260 -0.003625 0.000000 0.000000 0.000000
# 3 -0.000782 -0.003625 0.007976 0.000000 0.000000 0.000000
# 4 0.000000 0.000000 0.000000 0.052076 0.000000 0.000000
# 5 0.000000 0.000000 0.000000 0.000000 0.315847 0.000000
# 6 0.000000 0.000000 0.000000 0.000000 0.000000 0.049790
#
#
# Mechanical properties :
#
#
# Convention : Reuss Voigt Hill
#
# Bulk Modulus (GPa) = 40.04546 58.04168 49.04357
# Shear Modulus (GPa) = 9.60765 20.86107 15.23436
#
# Velocity S-wave (km/s) = 2.26743 3.34113 2.85520
# Velocity P-wave (km/s) = 5.31827 6.77815 6.09210
#
# Compressibility (1/GPa) = 0.02497162
#
# Stress axis : x y z
#
# Youngs Moduli (GPa) = 28.21630 61.50189 125.37644
#
# Poissons Ratio (x) = 0.79616 0.09807
# Poissons Ratio (y) = 0.36527 0.45446
# Poissons Ratio (z) = 0.02207 0.22293
#
# Static dielectric constant tensor:
#      x y z
#    x 3.320330 0.000000 0.000000 
#    y 0.000000 3.368170 0.000000 
#    z 0.000000 0.000000 4.108250 
# 
# 
# High freq. dielectric constant tensor:
#      x y z
#    x 1.705470 0.000000 0.000000 
#    y 0.000000 1.687370 0.000000 
#    z 0.000000 0.000000 1.751140 
# 
# From -- ./inp_files/32195.got.cif
#   From: 2010.03.12/outbox.cif.g09.slc.cpg/sg63_17_cif.got.tgz:32195.got - 2010.04.10 19:34:48.
