data_PCOD8256406
_publ_section_title
;
Structure prediction by ZEFSAII (Michael W. Deem and Ramdas Pophale) SiO2 
 PCOD8256406
Probable space group: C M C M
;
_chemical_formula_sum "Si O2"
_cell_formula_units_Z 40
_cell_length_a 15.275228
_cell_length_b 11.029527
_cell_length_c 9.726086
_cell_angle_alpha 90.000000
_cell_angle_beta 90.000000
_cell_angle_gamma 90.000000
_cell_volume 1638.636766
_symmetry_space_group_name_H-M "C M C M"
_symmetry_group_IT_number 63
_symmetry_cell_setting 'orthorhombic'
loop_
_space_group_symop_operation_xyz
x,y,z
-x,-y,1/2+z
x,-y,-z
-x,y,1/2-z
-x,-y,-z
x,y,1/2-z
-x,y,z
x,-y,1/2+z
1/2+x,1/2+y,z
1/2-x,1/2-y,1/2+z
1/2+x,1/2-y,-z
1/2-x,1/2+y,1/2-z
1/2-x,1/2-y,-z
1/2+x,1/2+y,1/2-z
1/2-x,1/2+y,z
1/2+x,1/2-y,1/2+z
loop_
_atom_site_type_symbol
_atom_site_label
_atom_site_fract_x
_atom_site_fract_y
_atom_site_fract_z
Si Si1 0.329242 0.835813 0.527740
Si Si2 0.274255 0.548276 0.250000
Si Si3 0.095673 0.174515 0.750000
Si Si4 0.101096 0.283713 0.250000
O O1 0.250000 0.750000 0.500000
O O2 0.288954 0.949304 0.614614
O O3 0.398492 0.760163 0.617661
O O4 0.376823 0.867365 0.383222
O O5 0.326621 0.423483 0.250000
O O6 0.341049 0.661333 0.250000
O O7 0.000000 0.110956 0.750000
O O8 0.000000 0.245627 0.250000
#
# Coordination Sequence:
#
# PCOD8256406 Si02
#       4
#    16   8   8   8
#     4   9  20  37  55  84 125 166 197 238 305 371
#     4   9  20  37  56  85 123 164 200 246 306 367
#     4  11  21  37  64  98 122 150 202 262 304 349
#     4  10  18  32  55  85 117 156 202 252 297 348
#
# _framework density 24.410533000000001
#
# number of rings (size 3 to 8) (size 9 to 14) (size 15 to 20)
#    0.000    2.400    0.000    3.000    0.000    6.400 
#    0.000   12.000    0.000    0.000    0.000  288.400 
#    0.000    0.000    0.000    0.000    0.000    0.000 
#
# Total GULP energy -247795.134807 kJ/mol
# GULP energy per Si atom -12389.756740 kJ/mol
# Density = 2.435497 g / cm^3
# Si number density = 24.410533 Si / 1000 Ang^3
#
#
#
# Elastic Constant Matrix: (Units=GPa)
#
#
# Indices 1 2 3 4 5 6 
#
# 1 123.4447 43.5292 76.7536 0.0000 0.0000 0.0000
# 2 43.5292 93.1907 42.8330 0.0000 0.0000 0.0000
# 3 76.7536 42.8330 246.1459 0.0000 0.0000 0.0000
# 4 0.0000 0.0000 0.0000 1.1621 0.0000 0.0000
# 5 0.0000 0.0000 0.0000 0.0000 26.4191 0.0000
# 6 0.0000 0.0000 0.0000 0.0000 0.0000 34.0731
#
#
#
# Elastic Compliance Matrix: (Units=1/GPa)
#
#
# Indices 1 2 3 4 5 6 
#
# 1 0.011250 -0.003959 -0.002819 0.000000 0.000000 0.000000
# 2 -0.003959 0.013057 -0.001038 0.000000 0.000000 0.000000
# 3 -0.002819 -0.001038 0.005122 0.000000 0.000000 0.000000
# 4 0.000000 0.000000 0.000000 0.860536 0.000000 0.000000
# 5 0.000000 0.000000 0.000000 0.000000 0.037851 0.000000
# 6 0.000000 0.000000 0.000000 0.000000 0.000000 0.029349
#
#
# Mechanical properties :
#
#
# Convention : Reuss Voigt Hill
#
# Bulk Modulus (GPa) = 72.47659 87.66809 80.07234
# Shear Modulus (GPa) = 5.11564 32.30855 18.71210
#
# Velocity S-wave (km/s) = 1.44921 3.64201 2.77168
# Velocity P-wave (km/s) = 5.70574 7.32650 6.56632
#
# Compressibility (1/GPa) = 0.01379756
#
# Stress axis : x y z
#
# Youngs Moduli (GPa) = 88.89265 76.58833 195.22912
#
# Poissons Ratio (x) = 0.30321 0.55034
# Poissons Ratio (y) = 0.35192 0.20257
# Poissons Ratio (z) = 0.25058 0.07947
#
# Static dielectric constant tensor:
#      x y z
#    x 4.345130 0.000000 0.000000 
#    y 0.000000 4.105740 0.000000 
#    z 0.000000 0.000000 7.963560 
# 
# 
# High freq. dielectric constant tensor:
#      x y z
#    x 1.962940 0.000000 0.000000 
#    y 0.000000 1.954910 0.000000 
#    z 0.000000 0.000000 2.000300 
# 
# From -- ./inp_files/3532.got.cif
#   From: 2010.03.12/outbox.cif.g09.slc.cpg/sg63_2_cif.got.tgz:3532.got - 2010.04.10 19:34:48.
