data_PCOD8256723
_publ_section_title
;
Structure prediction by ZEFSAII (Michael W. Deem and Ramdas Pophale) SiO2 
 PCOD8256723
Probable space group: C M C M
;
_chemical_formula_sum "Si O2"
_cell_formula_units_Z 104
_cell_length_a 24.578748
_cell_length_b 27.578572
_cell_length_c 8.859078
_cell_angle_alpha 90.000000
_cell_angle_beta 90.000000
_cell_angle_gamma 90.000000
_cell_volume 6005.097420
_symmetry_space_group_name_H-M "C M C M"
_symmetry_group_IT_number 63
_symmetry_cell_setting 'orthorhombic'
loop_
_space_group_symop_operation_xyz
x,y,z
-x,-y,1/2+z
x,-y,-z
-x,y,1/2-z
-x,-y,-z
x,y,1/2-z
-x,y,z
x,-y,1/2+z
1/2+x,1/2+y,z
1/2-x,1/2-y,1/2+z
1/2+x,1/2-y,-z
1/2-x,1/2+y,1/2-z
1/2-x,1/2-y,-z
1/2+x,1/2+y,1/2-z
1/2-x,1/2+y,z
1/2+x,1/2-y,1/2+z
loop_
_atom_site_type_symbol
_atom_site_label
_atom_site_fract_x
_atom_site_fract_y
_atom_site_fract_z
Si Si1 0.000000 0.192076 0.419387
Si Si2 0.892902 0.802847 0.417084
Si Si3 0.721859 0.297845 0.929122
Si Si4 0.000000 0.692183 0.918056
Si Si5 0.000000 0.551216 0.925923
Si Si6 0.806605 0.360056 0.072485
Si Si7 0.881206 0.447734 0.072006
Si Si8 0.896789 0.308826 0.584399
O O1 0.054434 0.172553 0.503561
O O2 0.000000 0.170817 0.250000
O O3 0.000000 0.250100 0.410997
O O4 0.883148 0.826096 0.250000
O O5 0.840035 0.806379 0.521660
O O6 0.907766 0.747353 0.393690
O O7 0.725843 0.292533 0.750000
O O8 0.750000 0.250000 0.000000
O O9 0.751249 0.347522 0.984181
O O10 0.000000 0.669768 0.750000
O O11 0.050642 0.668739 0.004528
O O12 0.941262 0.574657 0.972763
O O13 0.000000 0.542969 0.750000
O O14 0.000000 0.500000 0.000000
O O15 0.795409 0.359739 0.250000
O O16 0.834643 0.410111 0.016367
O O17 0.846500 0.316064 0.027918
O O18 0.876524 0.454051 0.250000
O O19 0.869715 0.500000 0.000000
O O20 0.886840 0.332631 0.750000
#
# Coordination Sequence:
#
# PCOD8256723 Si02
#       8
#     8  16  16   8   8  16  16  16
#     4   9  17  29  46  68  91 121 160 197 239 287
#     4  10  19  32  49  68  93 124 160 202 243 285
#     4  12  23  35  51  70  95 129 167 208 251 300
#     4   9  17  28  42  59  85 118 153 196 245 289
#     4   8  14  29  50  71  93 119 157 201 253 306
#     4  11  22  34  49  70  95 125 164 204 250 303
#     4   9  19  34  53  74  97 127 163 209 259 311
#     4  10  19  30  44  63  88 118 156 199 243 288
#
# _framework density 17.318619000000002
#
# number of rings (size 3 to 8) (size 9 to 14) (size 15 to 20)
#    0.000    2.000    1.538    3.231    0.000    4.923 
#    0.000    1.538    0.000    1.846    0.000    0.000 
#    0.000    0.000    0.000    0.692    0.000    9.385 
#
# Total GULP energy -644201.946806 kJ/mol
# GULP energy per Si atom -12388.498977 kJ/mol
# Density = 1.727920 g / cm^3
# Si number density = 17.318619 Si / 1000 Ang^3
#
#
#
# Elastic Constant Matrix: (Units=GPa)
#
#
# Indices 1 2 3 4 5 6 
#
# 1 137.2394 30.4838 57.0274 0.0000 0.0000 0.0000
# 2 30.4838 43.9136 25.2049 0.0000 0.0000 0.0000
# 3 57.0274 25.2049 112.3046 0.0000 0.0000 0.0000
# 4 0.0000 0.0000 0.0000 15.2184 0.0000 0.0000
# 5 0.0000 0.0000 0.0000 0.0000 26.3305 0.0000
# 6 0.0000 0.0000 0.0000 0.0000 0.0000 1.5372
#
#
#
# Elastic Compliance Matrix: (Units=1/GPa)
#
#
# Indices 1 2 3 4 5 6 
#
# 1 0.009989 -0.004618 -0.004036 0.000000 0.000000 0.000000
# 2 -0.004618 0.028274 -0.004001 0.000000 0.000000 0.000000
# 3 -0.004036 -0.004001 0.011852 0.000000 0.000000 0.000000
# 4 0.000000 0.000000 0.000000 0.065710 0.000000 0.000000
# 5 0.000000 0.000000 0.000000 0.000000 0.037979 0.000000
# 6 0.000000 0.000000 0.000000 0.000000 0.000000 0.650549
#
#
# Mechanical properties :
#
#
# Convention : Reuss Voigt Hill
#
# Bulk Modulus (GPa) = 40.31336 57.65440 48.98388
# Shear Modulus (GPa) = 5.96708 20.66665 13.31687
#
# Velocity S-wave (km/s) = 1.85821 3.45819 2.77597
# Velocity P-wave (km/s) = 5.28507 7.02198 6.21450
#
# Compressibility (1/GPa) = 0.02480567
#
# Stress axis : x y z
#
# Youngs Moduli (GPa) = 100.10612 35.36846 84.37558
#
# Poissons Ratio (x) = 0.16332 0.34055
# Poissons Ratio (y) = 0.46227 0.33756
# Poissons Ratio (z) = 0.40404 0.14150
#
# Static dielectric constant tensor:
#      x y z
#    x 3.635180 0.000000 0.000000 
#    y 0.000000 2.790460 0.000000 
#    z 0.000000 0.000000 3.380780 
# 
# 
# High freq. dielectric constant tensor:
#      x y z
#    x 1.672690 0.000000 0.000000 
#    y 0.000000 1.599630 0.000000 
#    z 0.000000 0.000000 1.686690 
# 
# From -- ./inp_files/11137.got.cif
#   From: 2010.03.12/outbox.cif.g09.slc.cpg/sg63_6_cif.got.tgz:11137.got - 2010.04.10 19:34:48.
