data_PCOD8256834
_publ_section_title
;
Structure prediction by ZEFSAII (Michael W. Deem and Ramdas Pophale) SiO2 
 PCOD8256834
Probable space group: C M C M
;
_chemical_formula_sum "Si O2"
_cell_formula_units_Z 80
_cell_length_a 9.591674
_cell_length_b 25.647766
_cell_length_c 17.537953
_cell_angle_alpha 90.000000
_cell_angle_beta 90.000000
_cell_angle_gamma 90.000000
_cell_volume 4314.424308
_symmetry_space_group_name_H-M "C M C M"
_symmetry_group_IT_number 63
_symmetry_cell_setting 'orthorhombic'
loop_
_space_group_symop_operation_xyz
x,y,z
-x,-y,1/2+z
x,-y,-z
-x,y,1/2-z
-x,-y,-z
x,y,1/2-z
-x,y,z
x,-y,1/2+z
1/2+x,1/2+y,z
1/2-x,1/2-y,1/2+z
1/2+x,1/2-y,-z
1/2-x,1/2+y,1/2-z
1/2-x,1/2-y,-z
1/2+x,1/2+y,1/2-z
1/2-x,1/2+y,z
1/2+x,1/2-y,1/2+z
loop_
_atom_site_type_symbol
_atom_site_label
_atom_site_fract_x
_atom_site_fract_y
_atom_site_fract_z
Si Si1 0.655858 0.554390 0.905359
Si Si2 0.657282 0.439426 0.913615
Si Si3 0.658727 0.147804 0.599008
Si Si4 0.162390 0.343933 0.579761
Si Si5 0.659766 0.741704 0.338429
O O1 0.500000 0.564968 0.875824
O O2 0.702636 0.495987 0.880148
O O3 0.754166 0.598596 0.869577
O O4 0.661481 0.557842 0.995884
O O5 0.500000 0.425412 0.886561
O O6 0.764646 0.395477 0.884666
O O7 0.500000 0.132608 0.613872
O O8 0.685916 0.159073 0.510349
O O9 0.702219 0.198506 0.646717
O O10 0.234668 0.293410 0.614381
O O11 0.000000 0.344833 0.601922
O O12 0.676670 0.728686 0.250000
O O13 0.500000 0.732119 0.365574
#
# Coordination Sequence:
#
# PCOD8256834 Si02
#       5
#    16  16  16  16  16
#     4   8  14  25  44  70  97 125 155 189 230 275
#     4   8  14  26  44  68  98 127 155 188 229 279
#     4   9  18  31  48  72  98 123 155 196 240 283
#     4  10  19  30  48  74  99 122 153 197 242 280
#     4  10  21  36  51  66  90 127 164 195 233 284
#
# _framework density 18.542451
#
# number of rings (size 3 to 8) (size 9 to 14) (size 15 to 20)
#    0.000    3.000    0.000    2.400    0.000    2.800 
#    0.000    4.000    0.000    1.200    0.000    5.600 
#    0.000    0.000    0.000    0.000    0.000    0.000 
#
# Total GULP energy -495848.942777 kJ/mol
# GULP energy per Si atom -12396.223569 kJ/mol
# Density = 1.850025 g / cm^3
# Si number density = 18.542451 Si / 1000 Ang^3
#
#
#
# Elastic Constant Matrix: (Units=GPa)
#
#
# Indices 1 2 3 4 5 6 
#
# 1 105.4627 66.8767 15.3677 0.0000 0.0000 0.0000
# 2 66.8767 99.3115 11.0647 0.0000 0.0000 0.0000
# 3 15.3677 11.0647 12.6066 0.0000 0.0000 0.0000
# 4 0.0000 0.0000 0.0000 1.8236 0.0000 0.0000
# 5 0.0000 0.0000 0.0000 0.0000 12.5519 0.0000
# 6 0.0000 0.0000 0.0000 0.0000 0.0000 44.3665
#
#
#
# Elastic Compliance Matrix: (Units=1/GPa)
#
#
# Indices 1 2 3 4 5 6 
#
# 1 0.018209 -0.010850 -0.012674 0.000000 0.000000 0.000000
# 2 -0.010850 0.017626 -0.002244 0.000000 0.000000 0.000000
# 3 -0.012674 -0.002244 0.096743 0.000000 0.000000 0.000000
# 4 0.000000 0.000000 0.000000 0.548376 0.000000 0.000000
# 5 0.000000 0.000000 0.000000 0.000000 0.079669 0.000000
# 6 0.000000 0.000000 0.000000 0.000000 0.000000 0.022540
#
#
# Mechanical properties :
#
#
# Convention : Reuss Voigt Hill
#
# Bulk Modulus (GPa) = 12.33927 44.88878 28.61402
# Shear Modulus (GPa) = 5.80240 20.01983 12.91111
#
# Velocity S-wave (km/s) = 1.77089 3.28941 2.64161
# Velocity P-wave (km/s) = 3.29400 6.21998 4.97688
#
# Compressibility (1/GPa) = 0.08104207
#
# Stress axis : x y z
#
# Youngs Moduli (GPa) = 54.91736 56.73515 10.33665
#
# Poissons Ratio (x) = 0.61558 0.13101
# Poissons Ratio (y) = 0.59585 0.02319
# Poissons Ratio (z) = 0.69604 0.12729
#
# Static dielectric constant tensor:
#      x y z
#    x 3.537700 0.000000 0.000000 
#    y 0.000000 3.774090 0.000000 
#    z 0.000000 0.000000 2.945030 
# 
# 
# High freq. dielectric constant tensor:
#      x y z
#    x 1.717910 0.000000 0.000000 
#    y 0.000000 1.734590 0.000000 
#    z 0.000000 0.000000 1.668010 
# 
# From -- ./inp_files/40492.got.cif
#   From: 2010.03.12/outbox.cif.g09.slc.cpg/sg63_21_cif.got.tgz:40492.got - 2010.04.10 19:34:48.
