data_PCOD8256984
_publ_section_title
;
Structure prediction by ZEFSAII (Michael W. Deem and Ramdas Pophale) SiO2 
 PCOD8256984
Probable space group: C M C M
;
_chemical_formula_sum "Si O2"
_cell_formula_units_Z 96
_cell_length_a 13.726512
_cell_length_b 23.751712
_cell_length_c 17.615944
_cell_angle_alpha 90.000000
_cell_angle_beta 90.000000
_cell_angle_gamma 90.000000
_cell_volume 5743.293805
_symmetry_space_group_name_H-M "C M C M"
_symmetry_group_IT_number 63
_symmetry_cell_setting 'orthorhombic'
loop_
_space_group_symop_operation_xyz
x,y,z
-x,-y,1/2+z
x,-y,-z
-x,y,1/2-z
-x,-y,-z
x,y,1/2-z
-x,y,z
x,-y,1/2+z
1/2+x,1/2+y,z
1/2-x,1/2-y,1/2+z
1/2+x,1/2-y,-z
1/2-x,1/2+y,1/2-z
1/2-x,1/2-y,-z
1/2+x,1/2+y,1/2-z
1/2-x,1/2+y,z
1/2+x,1/2-y,1/2+z
loop_
_atom_site_type_symbol
_atom_site_label
_atom_site_fract_x
_atom_site_fract_y
_atom_site_fract_z
Si Si1 0.612503 0.173049 0.421230
Si Si2 0.887189 0.439524 0.662750
Si Si3 0.106528 0.113609 0.839780
Si Si4 0.789583 0.225815 0.838564
Si Si5 0.610959 0.834809 0.401251
Si Si6 0.297798 0.944033 0.160237
O O1 0.500000 0.185342 0.399790
O O2 0.644706 0.112710 0.388584
O O3 0.682398 0.219040 0.384582
O O4 0.630581 0.173456 0.510178
O O5 0.864002 0.424769 0.750000
O O6 0.825633 0.493299 0.634714
O O7 0.000000 0.454599 0.651787
O O8 0.099173 0.114272 0.750000
O O9 0.141233 0.175115 0.867085
O O10 0.185603 0.066927 0.864959
O O11 0.000000 0.100031 0.875338
O O12 0.803070 0.238303 0.750000
O O13 0.678017 0.208488 0.854556
O O14 0.500000 0.820552 0.380173
O O15 0.631932 0.899473 0.380262
O O16 0.311519 0.935675 0.250000
#
# Coordination Sequence:
#
# PCOD8256984 Si02
#       6
#    16  16  16  16  16  16
#     4  10  20  32  47  69  97 125 153 191 239 288
#     4   9  17  29  46  68  93 121 153 189 230 278
#     4   8  14  25  43  67  89 109 141 188 235 271
#     4  10  19  31  49  70  92 120 155 194 234 279
#     4  10  20  32  47  69  96 125 156 191 236 287
#     4   9  17  29  46  68  93 122 157 196 235 276
#
# _framework density 16.715147000000002
#
# number of rings (size 3 to 8) (size 9 to 14) (size 15 to 20)
#    0.000    2.667    0.000    3.500    0.000    4.333 
#    0.000    2.500    0.000    1.000    0.000    7.000 
#    0.000    0.000    0.000    0.000    0.000    0.000 
#
# Total GULP energy -595161.577144 kJ/mol
# GULP energy per Si atom -12399.199524 kJ/mol
# Density = 1.667710 g / cm^3
# Si number density = 16.715147 Si / 1000 Ang^3
#
#
#
# Elastic Constant Matrix: (Units=GPa)
#
#
# Indices 1 2 3 4 5 6 
#
# 1 92.5310 43.9952 13.4938 0.0000 0.0000 0.0000
# 2 43.9952 94.4146 13.0378 0.0000 0.0000 0.0000
# 3 13.4938 13.0378 27.4975 0.0000 0.0000 0.0000
# 4 0.0000 0.0000 0.0000 24.6630 0.0000 0.0000
# 5 0.0000 0.0000 0.0000 0.0000 20.0356 0.0000
# 6 0.0000 0.0000 0.0000 0.0000 0.0000 22.6050
#
#
#
# Elastic Compliance Matrix: (Units=1/GPa)
#
#
# Indices 1 2 3 4 5 6 
#
# 1 0.014309 -0.006097 -0.004131 0.000000 0.000000 0.000000
# 2 -0.006097 0.013932 -0.003614 0.000000 0.000000 0.000000
# 3 -0.004131 -0.003614 0.040107 0.000000 0.000000 0.000000
# 4 0.000000 0.000000 0.000000 0.040547 0.000000 0.000000
# 5 0.000000 0.000000 0.000000 0.000000 0.049911 0.000000
# 6 0.000000 0.000000 0.000000 0.000000 0.000000 0.044238
#
#
# Mechanical properties :
#
#
# Convention : Reuss Voigt Hill
#
# Bulk Modulus (GPa) = 24.59133 39.49966 32.04549
# Shear Modulus (GPa) = 20.46826 23.05516 21.76171
#
# Velocity S-wave (km/s) = 3.50313 3.71792 3.61212
# Velocity P-wave (km/s) = 5.57732 6.48945 6.05060
#
# Compressibility (1/GPa) = 0.04066473
#
# Stress axis : x y z
#
# Youngs Moduli (GPa) = 69.88850 71.77886 24.93311
#
# Poissons Ratio (x) = 0.43764 0.10299
# Poissons Ratio (y) = 0.42611 0.09010
# Poissons Ratio (z) = 0.28869 0.25938
#
# Static dielectric constant tensor:
#      x y z
#    x 3.363670 0.000000 0.000000 
#    y 0.000000 3.072140 0.000000 
#    z 0.000000 0.000000 2.989100 
# 
# 
# High freq. dielectric constant tensor:
#      x y z
#    x 1.640790 0.000000 0.000000 
#    y 0.000000 1.637820 0.000000 
#    z 0.000000 0.000000 1.629080 
# 
# From -- ./inp_files/53060.got.cif
#   From: 2010.03.12/outbox.cif.g09.slc.cpg/sg63_27_cif.got.tgz:53060.got - 2010.04.10 19:34:48.
