data_PCOD8256383
_publ_section_title
;
Structure prediction by ZEFSAII (Michael W. Deem and Ramdas Pophale) SiO2 
 PCOD8256383
Probable space group: C M C M
;
_chemical_formula_sum "Si O2"
_cell_formula_units_Z 80
_cell_length_a 15.734606
_cell_length_b 29.142224
_cell_length_c 8.721577
_cell_angle_alpha 90.000000
_cell_angle_beta 90.000000
_cell_angle_gamma 90.000000
_cell_volume 3999.204238
_symmetry_space_group_name_H-M "C M C M"
_symmetry_group_IT_number 63
_symmetry_cell_setting 'orthorhombic'
loop_
_space_group_symop_operation_xyz
x,y,z
-x,-y,1/2+z
x,-y,-z
-x,y,1/2-z
-x,-y,-z
x,y,1/2-z
-x,y,z
x,-y,1/2+z
1/2+x,1/2+y,z
1/2-x,1/2-y,1/2+z
1/2+x,1/2-y,-z
1/2-x,1/2+y,1/2-z
1/2-x,1/2-y,-z
1/2+x,1/2+y,1/2-z
1/2-x,1/2+y,z
1/2+x,1/2-y,1/2+z
loop_
_atom_site_type_symbol
_atom_site_label
_atom_site_fract_x
_atom_site_fract_y
_atom_site_fract_z
Si Si1 0.337820 0.953703 0.931130
Si Si2 0.407186 0.857696 0.568499
Si Si3 0.594688 0.363090 0.926337
Si Si4 0.751162 0.199848 0.067944
Si Si5 0.347216 0.453231 0.430952
O O1 0.328893 0.958706 0.750000
O O2 0.395523 0.910708 0.979083
O O3 0.245693 0.945230 0.001064
O O4 0.379313 0.000000 0.000000
O O5 0.403846 0.853640 0.750000
O O6 0.500000 0.841498 0.507065
O O7 0.331690 0.826436 0.500669
O O8 0.615157 0.375220 0.750000
O O9 0.500000 0.341755 0.943870
O O10 0.663831 0.326541 0.987918
O O11 0.596119 0.409768 0.023477
O O12 0.748917 0.202879 0.250000
O O13 0.750000 0.250000 0.000000
O O14 0.387346 0.500000 0.500000
O O15 0.342720 0.458150 0.250000
#
# Coordination Sequence:
#
# PCOD8256383 Si02
#       5
#    16  16  16  16  16
#     4  10  18  32  54  81 114 151 191 227 272 328
#     4   9  18  34  57  82 111 148 186 224 272 334
#     4  10  21  39  61  84 113 150 190 232 281 335
#     4  10  21  39  60  83 111 145 185 231 285 337
#     4  11  21  34  56  84 117 153 192 232 277 331
#
# _framework density 20.003979999999999
#
# number of rings (size 3 to 8) (size 9 to 14) (size 15 to 20)
#    0.000    2.000    2.000    3.600    0.000    2.800 
#    0.000    0.000    0.000    4.200    0.000    0.000 
#    0.000    0.000    0.000    0.000    0.000    0.000 
#
# Total GULP energy -495925.269017 kJ/mol
# GULP energy per Si atom -12398.131725 kJ/mol
# Density = 1.995845 g / cm^3
# Si number density = 20.003980 Si / 1000 Ang^3
#
#
#
# Elastic Constant Matrix: (Units=GPa)
#
#
# Indices 1 2 3 4 5 6 
#
# 1 149.7756 85.0304 25.8460 0.0000 0.0000 0.0000
# 2 85.0304 157.8643 39.7024 0.0000 0.0000 0.0000
# 3 25.8460 39.7024 72.6021 0.0000 0.0000 0.0000
# 4 0.0000 0.0000 0.0000 34.4320 0.0000 0.0000
# 5 0.0000 0.0000 0.0000 0.0000 12.9097 0.0000
# 6 0.0000 0.0000 0.0000 0.0000 0.0000 16.1093
#
#
#
# Elastic Compliance Matrix: (Units=1/GPa)
#
#
# Indices 1 2 3 4 5 6 
#
# 1 0.009647 -0.005023 -0.000687 0.000000 0.000000 0.000000
# 2 -0.005023 0.009960 -0.003659 0.000000 0.000000 0.000000
# 3 -0.000687 -0.003659 0.016019 0.000000 0.000000 0.000000
# 4 0.000000 0.000000 0.000000 0.029043 0.000000 0.000000
# 5 0.000000 0.000000 0.000000 0.000000 0.077461 0.000000
# 6 0.000000 0.000000 0.000000 0.000000 0.000000 0.062076
#
#
# Mechanical properties :
#
#
# Convention : Reuss Voigt Hill
#
# Bulk Modulus (GPa) = 59.21314 75.71107 67.46210
# Shear Modulus (GPa) = 21.87475 28.00109 24.93792
#
# Velocity S-wave (km/s) = 3.31043 3.74542 3.53462
# Velocity P-wave (km/s) = 6.65409 7.52558 7.10321
#
# Compressibility (1/GPa) = 0.01688814
#
# Stress axis : x y z
#
# Youngs Moduli (GPa) = 103.65788 100.39758 62.42567
#
# Poissons Ratio (x) = 0.50433 0.04291
# Poissons Ratio (y) = 0.52071 0.22839
# Poissons Ratio (z) = 0.07124 0.36731
#
# Static dielectric constant tensor:
#      x y z
#    x 3.823280 0.000000 0.000000 
#    y 0.000000 3.777000 0.000000 
#    z 0.000000 0.000000 3.464150 
# 
# 
# High freq. dielectric constant tensor:
#      x y z
#    x 1.783020 0.000000 0.000000 
#    y 0.000000 1.780310 0.000000 
#    z 0.000000 0.000000 1.756350 
# 
# From -- ./inp_files/6675.got.cif
#   From: 2010.03.12/outbox.cif.g09.slc.cpg/sg63_4_cif.got.tgz:6675.got - 2010.04.10 19:34:48.
