data_PCOD8256992
_publ_section_title
;
Structure prediction by ZEFSAII (Michael W. Deem and Ramdas Pophale) SiO2 
 PCOD8256992
Probable space group: C M C M
;
_chemical_formula_sum "Si O2"
_cell_formula_units_Z 96
_cell_length_a 8.905348
_cell_length_b 32.603392
_cell_length_c 18.497005
_cell_angle_alpha 90.000000
_cell_angle_beta 90.000000
_cell_angle_gamma 90.000000
_cell_volume 5370.504625
_symmetry_space_group_name_H-M "C M C M"
_symmetry_group_IT_number 63
_symmetry_cell_setting 'orthorhombic'
loop_
_space_group_symop_operation_xyz
x,y,z
-x,-y,1/2+z
x,-y,-z
-x,y,1/2-z
-x,-y,-z
x,y,1/2-z
-x,y,z
x,-y,1/2+z
1/2+x,1/2+y,z
1/2-x,1/2-y,1/2+z
1/2+x,1/2-y,-z
1/2-x,1/2+y,1/2-z
1/2-x,1/2-y,-z
1/2+x,1/2+y,1/2-z
1/2-x,1/2+y,z
1/2+x,1/2-y,1/2+z
loop_
_atom_site_type_symbol
_atom_site_label
_atom_site_fract_x
_atom_site_fract_y
_atom_site_fract_z
Si Si1 0.823089 0.416281 0.170847
Si Si2 0.826160 0.759564 0.333993
Si Si3 0.827806 0.823828 0.668324
Si Si4 0.323498 0.834755 0.091933
Si Si5 0.174534 0.121579 0.036372
Si Si6 0.178559 0.455832 0.025719
O O1 0.751796 0.426565 0.250000
O O2 0.780060 0.369741 0.150133
O O3 0.764278 0.447036 0.107991
O O4 0.000000 0.420835 0.176264
O O5 0.792788 0.767484 0.250000
O O6 0.776551 0.713902 0.355707
O O7 0.729063 0.791031 0.380066
O O8 0.000000 0.765305 0.352978
O O9 0.790282 0.837692 0.750000
O O10 0.795826 0.862806 0.617638
O O11 0.000000 0.809264 0.661185
O O12 0.500000 0.834125 0.077305
O O13 0.241206 0.844359 0.017100
O O14 0.000000 0.115799 0.019396
O O15 0.255779 0.077959 0.028424
O O16 0.000000 0.452800 0.021685
O O17 0.237574 0.500000 0.000000
#
# Coordination Sequence:
#
# PCOD8256992 Si02
#       6
#    16  16  16  16  16  16
#     4   8  14  26  46  70  94 124 162 198 232 278
#     4  10  20  32  48  73 103 133 168 211 251 285
#     4   9  19  36  54  70  93 130 172 208 245 294
#     4  10  19  31  49  72 100 134 168 203 247 301
#     4  10  20  34  53  75  97 124 162 207 253 298
#     4   9  18  33  52  74 101 130 160 197 244 302
#
# _framework density 17.875416000000001
#
# number of rings (size 3 to 8) (size 9 to 14) (size 15 to 20)
#    0.000    2.667    0.000    3.000    0.000    4.000 
#    0.000    0.833    0.000    5.500    0.000    0.000 
#    0.000    0.000    0.000    0.000    0.000    0.000 
#
# Total GULP energy -595135.860014 kJ/mol
# GULP energy per Si atom -12398.663750 kJ/mol
# Density = 1.783473 g / cm^3
# Si number density = 17.875416 Si / 1000 Ang^3
#
#
#
# Elastic Constant Matrix: (Units=GPa)
#
#
# Indices 1 2 3 4 5 6 
#
# 1 38.5183 27.8384 25.7370 0.0000 0.0000 0.0000
# 2 27.8384 111.8629 70.8066 0.0000 0.0000 0.0000
# 3 25.7370 70.8066 112.8254 0.0000 0.0000 0.0000
# 4 0.0000 0.0000 0.0000 25.0425 0.0000 0.0000
# 5 0.0000 0.0000 0.0000 0.0000 22.8359 0.0000
# 6 0.0000 0.0000 0.0000 0.0000 0.0000 25.7588
#
#
#
# Elastic Compliance Matrix: (Units=1/GPa)
#
#
# Indices 1 2 3 4 5 6 
#
# 1 0.032656 -0.005660 -0.003897 0.000000 0.000000 0.000000
# 2 -0.005660 0.015812 -0.008632 0.000000 0.000000 0.000000
# 3 -0.003897 -0.008632 0.015170 0.000000 0.000000 0.000000
# 4 0.000000 0.000000 0.000000 0.039932 0.000000 0.000000
# 5 0.000000 0.000000 0.000000 0.000000 0.043791 0.000000
# 6 0.000000 0.000000 0.000000 0.000000 0.000000 0.038822
#
#
# Mechanical properties :
#
#
# Convention : Reuss Voigt Hill
#
# Bulk Modulus (GPa) = 36.68493 56.88562 46.78528
# Shear Modulus (GPa) = 21.58449 23.98241 22.78345
#
# Velocity S-wave (km/s) = 3.47867 3.66682 3.57398
# Velocity P-wave (km/s) = 6.05822 7.05832 6.57730
#
# Compressibility (1/GPa) = 0.02725915
#
# Stress axis : x y z
#
# Youngs Moduli (GPa) = 30.62187 63.24313 65.92147
#
# Poissons Ratio (x) = 0.35796 0.25691
# Poissons Ratio (y) = 0.17332 0.56904
# Poissons Ratio (z) = 0.11934 0.54592
#
# Static dielectric constant tensor:
#      x y z
#    x 3.219260 0.000000 0.000000 
#    y 0.000000 3.214550 0.000000 
#    z 0.000000 0.000000 3.566570 
# 
# 
# High freq. dielectric constant tensor:
#      x y z
#    x 1.682220 0.000000 0.000000 
#    y 0.000000 1.677640 0.000000 
#    z 0.000000 0.000000 1.693780 
# 
# From -- ./inp_files/51375.got.cif
#   From: 2010.03.12/outbox.cif.g09.slc.cpg/sg63_26_cif.got.tgz:51375.got - 2010.04.10 19:34:48.
