data_PCOD8256770
_publ_section_title
;
Structure prediction by ZEFSAII (Michael W. Deem and Ramdas Pophale) SiO2 
 PCOD8256770
Probable space group: C M C M
;
_chemical_formula_sum "Si O2"
_cell_formula_units_Z 80
_cell_length_a 9.118070
_cell_length_b 26.896075
_cell_length_c 18.814238
_cell_angle_alpha 90.000000
_cell_angle_beta 90.000000
_cell_angle_gamma 90.000000
_cell_volume 4614.009269
_symmetry_space_group_name_H-M "C M C M"
_symmetry_group_IT_number 63
_symmetry_cell_setting 'orthorhombic'
loop_
_space_group_symop_operation_xyz
x,y,z
-x,-y,1/2+z
x,-y,-z
-x,y,1/2-z
-x,-y,-z
x,y,1/2-z
-x,y,z
x,-y,1/2+z
1/2+x,1/2+y,z
1/2-x,1/2-y,1/2+z
1/2+x,1/2-y,-z
1/2-x,1/2+y,1/2-z
1/2-x,1/2-y,-z
1/2+x,1/2+y,1/2-z
1/2-x,1/2+y,z
1/2+x,1/2-y,1/2+z
loop_
_atom_site_type_symbol
_atom_site_label
_atom_site_fract_x
_atom_site_fract_y
_atom_site_fract_z
Si Si1 0.826276 0.683880 0.750000
Si Si2 0.328821 0.324956 0.527346
Si Si3 0.171257 0.723412 0.600700
Si Si4 0.173557 0.524427 0.894100
Si Si5 0.826610 0.575930 0.463059
Si Si6 0.675487 0.928482 0.250000
O O1 0.770996 0.713105 0.819729
O O2 0.764685 0.627786 0.750000
O O3 0.000000 0.682215 0.750000
O O4 0.500000 0.333262 0.516004
O O5 0.257542 0.313074 0.451492
O O6 0.296148 0.280733 0.582784
O O7 0.256969 0.374300 0.560114
O O8 0.000000 0.710648 0.592305
O O9 0.226462 0.559981 0.958089
O O10 0.239173 0.543585 0.819529
O O11 0.000000 0.527017 0.892532
O O12 0.220936 0.467440 0.908115
O O13 0.000000 0.585365 0.460608
O O14 0.500000 0.929425 0.250000
#
# Coordination Sequence:
#
# PCOD8256770 Si02
#       6
#     8  16  16  16  16   8
#     4   9  16  28  50  73  89 113 151 193 230 265
#     4  10  19  30  46  69  95 122 152 187 227 269
#     4   9  18  32  49  69  92 119 154 191 226 268
#     4   8  15  26  43  67  90 113 146 188 227 266
#     4   9  16  29  47  65  88 119 152 184 222 267
#     4   9  14  22  41  69  91 105 137 191 236 263
#
# _framework density 17.3385
#
# number of rings (size 3 to 8) (size 9 to 14) (size 15 to 20)
#    0.000    3.000    0.000    3.000    0.000    4.000 
#    0.000    3.500    0.000    0.000    0.000    1.400 
#    0.000    0.000    0.000    0.000    0.000    0.000 
#
# Total GULP energy -495902.750478 kJ/mol
# GULP energy per Si atom -12397.568762 kJ/mol
# Density = 1.729904 g / cm^3
# Si number density = 17.338500 Si / 1000 Ang^3
#
#
#
# Elastic Constant Matrix: (Units=GPa)
#
#
# Indices 1 2 3 4 5 6 
#
# 1 36.7987 37.5438 22.3630 0.0000 0.0000 0.0000
# 2 37.5438 141.8937 70.4759 0.0000 0.0000 0.0000
# 3 22.3630 70.4759 140.1972 0.0000 0.0000 0.0000
# 4 0.0000 0.0000 0.0000 23.4441 0.0000 0.0000
# 5 0.0000 0.0000 0.0000 0.0000 12.5593 0.0000
# 6 0.0000 0.0000 0.0000 0.0000 0.0000 27.9393
#
#
#
# Elastic Compliance Matrix: (Units=1/GPa)
#
#
# Indices 1 2 3 4 5 6 
#
# 1 0.037406 -0.009241 -0.001321 0.000000 0.000000 0.000000
# 2 -0.009241 0.011676 -0.004395 0.000000 0.000000 0.000000
# 3 -0.001321 -0.004395 0.009553 0.000000 0.000000 0.000000
# 4 0.000000 0.000000 0.000000 0.042655 0.000000 0.000000
# 5 0.000000 0.000000 0.000000 0.000000 0.079622 0.000000
# 6 0.000000 0.000000 0.000000 0.000000 0.000000 0.035792
#
#
# Mechanical properties :
#
#
# Convention : Reuss Voigt Hill
#
# Bulk Modulus (GPa) = 34.81944 64.40613 49.61278
# Shear Modulus (GPa) = 19.51663 25.35567 22.43615
#
# Velocity S-wave (km/s) = 3.35867 3.82827 3.60113
# Velocity P-wave (km/s) = 5.93015 7.53444 6.77991
#
# Compressibility (1/GPa) = 0.02871959
#
# Stress axis : x y z
#
# Youngs Moduli (GPa) = 26.73368 85.64851 104.67926
#
# Poissons Ratio (x) = 0.79148 0.13831
# Poissons Ratio (y) = 0.24705 0.46008
# Poissons Ratio (z) = 0.03532 0.37644
#
# Static dielectric constant tensor:
#      x y z
#    x 2.813370 0.000000 0.000000 
#    y 0.000000 3.342560 0.000000 
#    z 0.000000 0.000000 3.470300 
# 
# 
# High freq. dielectric constant tensor:
#      x y z
#    x 1.625850 0.000000 0.000000 
#    y 0.000000 1.680010 0.000000 
#    z 0.000000 0.000000 1.661270 
# 
# From -- ./inp_files/40574.got.cif
#   From: 2010.03.12/outbox.cif.g09.slc.cpg/sg63_21_cif.got.tgz:40574.got - 2010.04.10 19:34:48.
