data_PCOD8256594
_publ_section_title
;
Structure prediction by ZEFSAII (Michael W. Deem and Ramdas Pophale) SiO2 
 PCOD8256594
Probable space group: C M C M
;
_chemical_formula_sum "Si O2"
_cell_formula_units_Z 96
_cell_length_a 9.055944
_cell_length_b 27.359007
_cell_length_c 24.305652
_cell_angle_alpha 90.000000
_cell_angle_beta 90.000000
_cell_angle_gamma 90.000000
_cell_volume 6022.008086
_symmetry_space_group_name_H-M "C M C M"
_symmetry_group_IT_number 63
_symmetry_cell_setting 'orthorhombic'
loop_
_space_group_symop_operation_xyz
x,y,z
-x,-y,1/2+z
x,-y,-z
-x,y,1/2-z
-x,-y,-z
x,y,1/2-z
-x,y,z
x,-y,1/2+z
1/2+x,1/2+y,z
1/2-x,1/2-y,1/2+z
1/2+x,1/2-y,-z
1/2-x,1/2+y,1/2-z
1/2-x,1/2-y,-z
1/2+x,1/2+y,1/2-z
1/2-x,1/2+y,z
1/2+x,1/2-y,1/2+z
loop_
_atom_site_type_symbol
_atom_site_label
_atom_site_fract_x
_atom_site_fract_y
_atom_site_fract_z
Si Si1 0.826982 0.727367 0.921114
Si Si2 0.175188 0.317372 0.309954
Si Si3 0.675057 0.020454 0.917129
Si Si4 0.824293 0.572581 0.689378
Si Si5 0.827021 0.175242 0.481761
Si Si6 0.825322 0.575840 0.475016
O O1 0.770538 0.718388 0.858674
O O2 0.742945 0.689377 0.959956
O O3 0.000000 0.716066 0.927505
O O4 0.789904 0.783008 0.936913
O O5 0.233895 0.299055 0.250000
O O6 0.232890 0.372338 0.321080
O O7 0.000000 0.318247 0.308649
O O8 0.500000 0.021688 0.916189
O O9 0.741718 0.037472 0.858303
O O10 0.725207 0.965196 0.930743
O O11 0.726763 0.057861 0.964673
O O12 0.771671 0.554498 0.750000
O O13 0.000000 0.571733 0.686621
O O14 0.757229 0.125473 0.459136
O O15 0.000000 0.168521 0.489937
O O16 0.000000 0.584754 0.473030
#
# Coordination Sequence:
#
# PCOD8256594 Si02
#       6
#    16  16  16  16  16  16
#     4   9  17  29  44  61  83 110 137 167 203 243
#     4   8  13  22  40  65  85 101 128 168 208 240
#     4   8  14  24  39  59  79 103 135 164 197 242
#     4   8  12  18  32  57  84 101 118 157 207 243
#     4  10  19  28  40  61  86 110 137 168 203 242
#     4   9  16  27  43  59  78 106 137 168 199 236
#
# _framework density 15.941527000000001
#
# number of rings (size 3 to 8) (size 9 to 14) (size 15 to 20)
#    0.000    3.333    0.000    3.500    0.000    3.333 
#    0.000    1.667    0.000    1.500    0.000    0.000 
#    0.000    1.333    0.000    0.000    0.000    0.000 
#
# Total GULP energy -594818.663862 kJ/mol
# GULP energy per Si atom -12392.055497 kJ/mol
# Density = 1.590524 g / cm^3
# Si number density = 15.941527 Si / 1000 Ang^3
#
#
#
# Elastic Constant Matrix: (Units=GPa)
#
#
# Indices 1 2 3 4 5 6 
#
# 1 24.1985 26.1769 19.6469 0.0000 0.0000 0.0000
# 2 26.1769 113.0950 74.0534 0.0000 0.0000 0.0000
# 3 19.6469 74.0534 153.7164 0.0000 0.0000 0.0000
# 4 0.0000 0.0000 0.0000 26.3969 0.0000 0.0000
# 5 0.0000 0.0000 0.0000 0.0000 9.4774 0.0000
# 6 0.0000 0.0000 0.0000 0.0000 0.0000 21.8323
#
#
#
# Elastic Compliance Matrix: (Units=1/GPa)
#
#
# Indices 1 2 3 4 5 6 
#
# 1 0.055310 -0.011939 -0.001318 0.000000 0.000000 0.000000
# 2 -0.011939 0.015494 -0.005938 0.000000 0.000000 0.000000
# 3 -0.001318 -0.005938 0.009535 0.000000 0.000000 0.000000
# 4 0.000000 0.000000 0.000000 0.037883 0.000000 0.000000
# 5 0.000000 0.000000 0.000000 0.000000 0.105514 0.000000
# 6 0.000000 0.000000 0.000000 0.000000 0.000000 0.045804
#
#
# Mechanical properties :
#
#
# Convention : Reuss Voigt Hill
#
# Bulk Modulus (GPa) = 23.83880 58.97383 41.40632
# Shear Modulus (GPa) = 15.53215 22.95016 19.24115
#
# Velocity S-wave (km/s) = 3.12480 3.79838 3.47794
# Velocity P-wave (km/s) = 5.29202 7.50407 6.49294
#
# Compressibility (1/GPa) = 0.04194842
#
# Stress axis : x y z
#
# Youngs Moduli (GPa) = 18.07989 64.54152 104.88058
#
# Poissons Ratio (x) = 0.77058 0.13818
# Poissons Ratio (y) = 0.21586 0.62281
# Poissons Ratio (z) = 0.02382 0.38326
#
# Static dielectric constant tensor:
#      x y z
#    x 2.578910 0.000000 0.000000 
#    y 0.000000 3.065650 0.000000 
#    z 0.000000 0.000000 3.468670 
# 
# 
# High freq. dielectric constant tensor:
#      x y z
#    x 1.565250 0.000000 0.000000 
#    y 0.000000 1.604040 0.000000 
#    z 0.000000 0.000000 1.611250 
# 
# From -- ./inp_files/60201.got.cif
#   From: 2010.03.12/outbox.cif.g09.slc.cpg/sg63_31_cif.got.tgz:60201.got - 2010.04.10 19:34:48.
