data_PCOD8256515
_publ_section_title
;
Structure prediction by ZEFSAII (Michael W. Deem and Ramdas Pophale) SiO2 
 PCOD8256515
Probable space group: C M C M
;
_chemical_formula_sum "Si O2"
_cell_formula_units_Z 80
_cell_length_a 8.851764
_cell_length_b 25.067814
_cell_length_c 18.893775
_cell_angle_alpha 90.000000
_cell_angle_beta 90.000000
_cell_angle_gamma 90.000000
_cell_volume 4192.422367
_symmetry_space_group_name_H-M "C M C M"
_symmetry_group_IT_number 63
_symmetry_cell_setting 'orthorhombic'
loop_
_space_group_symop_operation_xyz
x,y,z
-x,-y,1/2+z
x,-y,-z
-x,y,1/2-z
-x,-y,-z
x,y,1/2-z
-x,y,z
x,-y,1/2+z
1/2+x,1/2+y,z
1/2-x,1/2-y,1/2+z
1/2+x,1/2-y,-z
1/2-x,1/2+y,1/2-z
1/2-x,1/2-y,-z
1/2+x,1/2+y,1/2-z
1/2-x,1/2+y,z
1/2+x,1/2-y,1/2+z
loop_
_atom_site_type_symbol
_atom_site_label
_atom_site_fract_x
_atom_site_fract_y
_atom_site_fract_z
Si Si1 0.820192 0.335258 0.586985
Si Si2 0.676131 0.031119 0.928832
Si Si3 0.321141 0.062639 0.328715
Si Si4 0.177994 0.855949 0.439131
Si Si5 0.679095 0.268075 0.170676
O O1 0.757155 0.388520 0.624969
O O2 0.754755 0.332010 0.508612
O O3 0.760660 0.284920 0.631661
O O4 0.000000 0.336157 0.581195
O O5 0.500000 0.046548 0.927995
O O6 0.773398 0.084077 0.922835
O O7 0.723143 0.993629 0.863490
O O8 0.717159 0.000000 0.000000
O O9 0.251218 0.064749 0.250000
O O10 0.500000 0.068466 0.325311
O O11 0.231058 0.819972 0.372940
O O12 0.000000 0.853338 0.449919
O O13 0.747671 0.271097 0.250000
O O14 0.500000 0.265109 0.175122
#
# Coordination Sequence:
#
# PCOD8256515 Si02
#       5
#    16  16  16  16  16
#     4  10  18  34  59  81 103 137 182 226 265 311
#     4  10  19  35  55  77 104 137 178 224 266 311
#     4   9  17  30  53  82 104 128 173 230 274 306
#     4  11  22  34  53  81 112 144 177 216 267 326
#     4   9  19  35  55  80 109 142 181 221 263 316
#
# _framework density 19.082046999999999
#
# number of rings (size 3 to 8) (size 9 to 14) (size 15 to 20)
#    0.000    2.200    2.000    1.800    0.000    3.600 
#    0.000    1.000    0.000    7.800    0.000    0.000 
#    0.000    0.000    0.000    0.000    0.000    0.000 
#
# Total GULP energy -496034.689989 kJ/mol
# GULP energy per Si atom -12400.867250 kJ/mol
# Density = 1.903862 g / cm^3
# Si number density = 19.082047 Si / 1000 Ang^3
#
#
#
# Elastic Constant Matrix: (Units=GPa)
#
#
# Indices 1 2 3 4 5 6 
#
# 1 27.1678 27.3499 27.7729 0.0000 0.0000 0.0000
# 2 27.3499 144.7967 85.4613 0.0000 0.0000 0.0000
# 3 27.7729 85.4613 164.9368 0.0000 0.0000 0.0000
# 4 0.0000 0.0000 0.0000 31.9341 0.0000 0.0000
# 5 0.0000 0.0000 0.0000 0.0000 18.3730 0.0000
# 6 0.0000 0.0000 0.0000 0.0000 0.0000 17.2982
#
#
#
# Elastic Compliance Matrix: (Units=1/GPa)
#
#
# Indices 1 2 3 4 5 6 
#
# 1 0.048030 -0.006192 -0.004879 0.000000 0.000000 0.000000
# 2 -0.006192 0.010747 -0.004526 0.000000 0.000000 0.000000
# 3 -0.004879 -0.004526 0.009230 0.000000 0.000000 0.000000
# 4 0.000000 0.000000 0.000000 0.031315 0.000000 0.000000
# 5 0.000000 0.000000 0.000000 0.000000 0.054428 0.000000
# 6 0.000000 0.000000 0.000000 0.000000 0.000000 0.057809
#
#
# Mechanical properties :
#
#
# Convention : Reuss Voigt Hill
#
# Bulk Modulus (GPa) = 27.16511 68.67438 47.91975
# Shear Modulus (GPa) = 19.60608 26.60889 23.10748
#
# Velocity S-wave (km/s) = 3.20888 3.73828 3.48365
# Velocity P-wave (km/s) = 5.29113 7.39595 6.43025
#
# Compressibility (1/GPa) = 0.03681193
#
# Stress axis : x y z
#
# Youngs Moduli (GPa) = 20.82043 93.04812 108.34811
#
# Poissons Ratio (x) = 0.57620 0.52862
# Poissons Ratio (y) = 0.12893 0.49037
# Poissons Ratio (z) = 0.10158 0.42112
#
# Static dielectric constant tensor:
#      x y z
#    x 3.020450 0.000000 0.000000 
#    y 0.000000 3.661500 0.000000 
#    z 0.000000 0.000000 3.799440 
# 
# 
# High freq. dielectric constant tensor:
#      x y z
#    x 1.692800 0.000000 0.000000 
#    y 0.000000 1.756830 0.000000 
#    z 0.000000 0.000000 1.755450 
# 
# From -- ./inp_files/40504.got.cif
#   From: 2010.03.12/outbox.cif.g09.slc.cpg/sg63_21_cif.got.tgz:40504.got - 2010.04.10 19:34:48.
