data_PCOD8256039
_publ_section_title
;
Structure prediction by ZEFSAII (Michael W. Deem and Ramdas Pophale) SiO2 
 PCOD8256039
Probable space group: C M C M
;
_chemical_formula_sum "Si O2"
_cell_formula_units_Z 112
_cell_length_a 26.426406
_cell_length_b 14.234423
_cell_length_c 17.504795
_cell_angle_alpha 90.000000
_cell_angle_beta 90.000000
_cell_angle_gamma 90.000000
_cell_volume 6584.684933
_symmetry_space_group_name_H-M "C M C M"
_symmetry_group_IT_number 63
_symmetry_cell_setting 'orthorhombic'
loop_
_space_group_symop_operation_xyz
x,y,z
-x,-y,1/2+z
x,-y,-z
-x,y,1/2-z
-x,-y,-z
x,y,1/2-z
-x,y,z
x,-y,1/2+z
1/2+x,1/2+y,z
1/2-x,1/2-y,1/2+z
1/2+x,1/2-y,-z
1/2-x,1/2+y,1/2-z
1/2-x,1/2-y,-z
1/2+x,1/2+y,1/2-z
1/2-x,1/2+y,z
1/2+x,1/2-y,1/2+z
loop_
_atom_site_type_symbol
_atom_site_label
_atom_site_fract_x
_atom_site_fract_y
_atom_site_fract_z
Si Si1 0.611126 0.637221 0.664344
Si Si2 0.057680 0.891430 0.016008
Si Si3 0.325479 0.454562 0.833120
Si Si4 0.696851 0.155876 0.840740
Si Si5 0.788833 0.450291 0.665773
Si Si6 0.850269 0.794461 0.555860
Si Si7 0.300985 0.750423 0.897767
O O1 0.589004 0.640729 0.750000
O O2 0.564661 0.636721 0.605012
O O3 0.640879 0.542656 0.645404
O O4 0.650704 0.721875 0.653418
O O5 0.092485 0.820046 0.967508
O O6 0.000000 0.872560 0.992003
O O7 0.072193 0.000000 0.000000
O O8 0.342473 0.412968 0.750000
O O9 0.268194 0.487474 0.827481
O O10 0.327011 0.381973 0.900882
O O11 0.694155 0.173848 0.750000
O O12 0.651010 0.207887 0.884929
O O13 0.750227 0.198040 0.870720
O O14 0.684962 0.047032 0.861484
O O15 0.808010 0.418778 0.750000
O O16 0.795974 0.363511 0.608385
O O17 0.812974 0.775159 0.485120
#
# Coordination Sequence:
#
# PCOD8256039 Si02
#       7
#    16  16  16  16  16  16  16
#     4  10  19  33  54  76 102 140 178 210 254 313
#     4  10  21  37  54  75 105 132 164 218 271 311
#     4  10  18  30  49  72 104 142 178 212 248 300
#     4  11  21  34  50  72 105 142 179 211 250 305
#     4  10  20  32  48  71 105 145 175 211 250 287
#     4  11  22  34  50  76  99 143 176 208 260 313
#     4  11  21  32  48  75 108 137 177 212 253 303
#
# _framework density 17.009164999999999
#
# number of rings (size 3 to 8) (size 9 to 14) (size 15 to 20)
#    0.000    1.571    4.286    2.143    0.000    0.857 
#    0.000    0.000    0.000    1.714    0.000    8.000 
#    0.000    4.571    0.000    0.000    0.000    0.000 
#
# Total GULP energy -693979.907851 kJ/mol
# GULP energy per Si atom -12392.498354 kJ/mol
# Density = 1.697045 g / cm^3
# Si number density = 17.009165 Si / 1000 Ang^3
#
#
#
# Elastic Constant Matrix: (Units=GPa)
#
#
# Indices 1 2 3 4 5 6 
#
# 1 67.6918 33.9631 35.8898 0.0000 0.0000 0.0000
# 2 33.9631 103.4540 49.4577 0.0000 0.0000 0.0000
# 3 35.8898 49.4577 101.4794 0.0000 0.0000 0.0000
# 4 0.0000 0.0000 0.0000 8.9661 0.0000 0.0000
# 5 0.0000 0.0000 0.0000 0.0000 14.5377 0.0000
# 6 0.0000 0.0000 0.0000 0.0000 0.0000 18.8046
#
#
#
# Elastic Compliance Matrix: (Units=1/GPa)
#
#
# Indices 1 2 3 4 5 6 
#
# 1 0.019387 -0.004024 -0.004895 0.000000 0.000000 0.000000
# 2 -0.004024 0.013438 -0.005126 0.000000 0.000000 0.000000
# 3 -0.004895 -0.005126 0.014084 0.000000 0.000000 0.000000
# 4 0.000000 0.000000 0.000000 0.111531 0.000000 0.000000
# 5 0.000000 0.000000 0.000000 0.000000 0.068787 0.000000
# 6 0.000000 0.000000 0.000000 0.000000 0.000000 0.053178
#
#
# Mechanical properties :
#
#
# Convention : Reuss Voigt Hill
#
# Bulk Modulus (GPa) = 53.14125 56.80516 54.97321
# Shear Modulus (GPa) = 15.88470 18.68268 17.28369
#
# Velocity S-wave (km/s) = 3.05928 3.31779 3.19115
# Velocity P-wave (km/s) = 6.61736 6.93875 6.77996
#
# Compressibility (1/GPa) = 0.01881777
#
# Stress axis : x y z
#
# Youngs Moduli (GPa) = 51.57966 74.41690 71.00429
#
# Poissons Ratio (x) = 0.29949 0.34759
# Poissons Ratio (y) = 0.20758 0.36395
# Poissons Ratio (z) = 0.25250 0.38145
#
# Static dielectric constant tensor:
#      x y z
#    x 2.845340 0.000000 0.000000 
#    y 0.000000 3.314640 0.000000 
#    z 0.000000 0.000000 3.438680 
# 
# 
# High freq. dielectric constant tensor:
#      x y z
#    x 1.609360 0.000000 0.000000 
#    y 0.000000 1.654630 0.000000 
#    z 0.000000 0.000000 1.672530 
# 
# From -- ./inp_files/37932.got.cif
#   From: 2010.03.12/outbox.cif.g09.slc.cpg/sg63_19_cif.got.tgz:37932.got - 2010.04.10 19:34:48.
