data_PCOD8256386
_publ_section_title
;
Structure prediction by ZEFSAII (Michael W. Deem and Ramdas Pophale) SiO2 
 PCOD8256386
Probable space group: C M C M
;
_chemical_formula_sum "Si O2"
_cell_formula_units_Z 72
_cell_length_a 21.294559
_cell_length_b 19.492166
_cell_length_c 8.660387
_cell_angle_alpha 90.000000
_cell_angle_beta 90.000000
_cell_angle_gamma 90.000000
_cell_volume 3594.728138
_symmetry_space_group_name_H-M "C M C M"
_symmetry_group_IT_number 63
_symmetry_cell_setting 'orthorhombic'
loop_
_space_group_symop_operation_xyz
x,y,z
-x,-y,1/2+z
x,-y,-z
-x,y,1/2-z
-x,-y,-z
x,y,1/2-z
-x,y,z
x,-y,1/2+z
1/2+x,1/2+y,z
1/2-x,1/2-y,1/2+z
1/2+x,1/2-y,-z
1/2-x,1/2+y,1/2-z
1/2-x,1/2-y,-z
1/2+x,1/2+y,1/2-z
1/2-x,1/2+y,z
1/2+x,1/2-y,1/2+z
loop_
_atom_site_type_symbol
_atom_site_label
_atom_site_fract_x
_atom_site_fract_y
_atom_site_fract_z
Si Si1 0.873410 0.314950 0.569543
Si Si2 0.880491 0.165243 0.066867
Si Si3 0.571550 0.934975 0.081550
Si Si4 0.000000 0.076306 0.067114
Si Si5 0.252337 0.673679 0.933440
O O1 0.864967 0.302103 0.750000
O O2 0.890173 0.242547 0.492113
O O3 0.928040 0.367919 0.528329
O O4 0.812713 0.356139 0.499002
O O5 0.876589 0.166290 0.250000
O O6 0.938039 0.117434 0.009902
O O7 0.814747 0.135632 0.998117
O O8 0.602939 0.920965 0.250000
O O9 0.500000 0.954809 0.109056
O O10 0.605534 0.000000 0.000000
O O11 0.000000 0.070893 0.250000
O O12 0.000000 0.000000 0.000000
O O13 0.254355 0.673237 0.750000
O O14 0.250000 0.750000 0.000000
#
# Coordination Sequence:
#
# PCOD8256386 Si02
#       5
#    16  16  16   8  16
#     4  11  21  34  56  86 115 148 189 235 279 332
#     4  10  20  37  58  84 113 147 187 232 286 341
#     4  10  21  37  55  77 111 151 186 226 274 327
#     4  10  24  42  62  84 115 152 189 236 292 346
#     4  10  18  32  54  82 112 146 183 232 287 336
#
# _framework density 20.029330999999999
#
# number of rings (size 3 to 8) (size 9 to 14) (size 15 to 20)
#    0.000    1.778    0.000    8.000    1.556    3.111 
#    0.000    1.111    0.000    2.667    0.000    0.000 
#    0.000    0.000    0.000    0.000    0.000    0.000 
#
# Total GULP energy -446108.002323 kJ/mol
# GULP energy per Si atom -12391.888953 kJ/mol
# Density = 1.998374 g / cm^3
# Si number density = 20.029331 Si / 1000 Ang^3
#
#
#
# Elastic Constant Matrix: (Units=GPa)
#
#
# Indices 1 2 3 4 5 6 
#
# 1 104.0296 43.0633 41.0042 0.0000 0.0000 0.0000
# 2 43.0633 100.8968 31.1918 0.0000 0.0000 0.0000
# 3 41.0042 31.1918 130.0324 0.0000 0.0000 0.0000
# 4 0.0000 0.0000 0.0000 31.6921 0.0000 0.0000
# 5 0.0000 0.0000 0.0000 0.0000 30.2117 0.0000
# 6 0.0000 0.0000 0.0000 0.0000 0.0000 12.7199
#
#
#
# Elastic Compliance Matrix: (Units=1/GPa)
#
#
# Indices 1 2 3 4 5 6 
#
# 1 0.012613 -0.004487 -0.002901 0.000000 0.000000 0.000000
# 2 -0.004487 0.012301 -0.001536 0.000000 0.000000 0.000000
# 3 -0.002901 -0.001536 0.008974 0.000000 0.000000 0.000000
# 4 0.000000 0.000000 0.000000 0.031554 0.000000 0.000000
# 5 0.000000 0.000000 0.000000 0.000000 0.033100 0.000000
# 6 0.000000 0.000000 0.000000 0.000000 0.000000 0.078617
#
#
# Mechanical properties :
#
#
# Convention : Reuss Voigt Hill
#
# Bulk Modulus (GPa) = 62.34229 62.83084 62.58656
# Shear Modulus (GPa) = 24.95599 29.57137 27.26368
#
# Velocity S-wave (km/s) = 3.53366 3.84657 3.69343
# Velocity P-wave (km/s) = 6.91680 7.15302 7.03590
#
# Compressibility (1/GPa) = 0.01604048
#
# Stress axis : x y z
#
# Youngs Moduli (GPa) = 79.28054 81.29532 111.43673
#
# Poissons Ratio (x) = 0.36474 0.32331
# Poissons Ratio (y) = 0.35570 0.17116
# Poissons Ratio (z) = 0.23001 0.12486
#
# Static dielectric constant tensor:
#      x y z
#    x 4.287110 0.000000 0.000000 
#    y 0.000000 3.364030 0.000000 
#    z 0.000000 0.000000 3.860960 
# 
# 
# High freq. dielectric constant tensor:
#      x y z
#    x 1.785230 0.000000 0.000000 
#    y 0.000000 1.751100 0.000000 
#    z 0.000000 0.000000 1.799130 
# 
# From -- ./inp_files/7870.got.cif
#   From: 2010.03.12/outbox.cif.g09.slc.cpg/sg63_4_cif.got.tgz:7870.got - 2010.04.10 19:34:48.
