data_PCOD8256813
_publ_section_title
;
Structure prediction by ZEFSAII (Michael W. Deem and Ramdas Pophale) SiO2 
 PCOD8256813
Probable space group: C M C M
;
_chemical_formula_sum "Si O2"
_cell_formula_units_Z 80
_cell_length_a 9.105439
_cell_length_b 25.681675
_cell_length_c 19.296777
_cell_angle_alpha 90.000000
_cell_angle_beta 90.000000
_cell_angle_gamma 90.000000
_cell_volume 4512.414779
_symmetry_space_group_name_H-M "C M C M"
_symmetry_group_IT_number 63
_symmetry_cell_setting 'orthorhombic'
loop_
_space_group_symop_operation_xyz
x,y,z
-x,-y,1/2+z
x,-y,-z
-x,y,1/2-z
-x,-y,-z
x,y,1/2-z
-x,y,z
x,-y,1/2+z
1/2+x,1/2+y,z
1/2-x,1/2-y,1/2+z
1/2+x,1/2-y,-z
1/2-x,1/2+y,1/2-z
1/2-x,1/2-y,-z
1/2+x,1/2+y,1/2-z
1/2-x,1/2+y,z
1/2+x,1/2-y,1/2+z
loop_
_atom_site_type_symbol
_atom_site_label
_atom_site_fract_x
_atom_site_fract_y
_atom_site_fract_z
Si Si1 0.665707 0.501138 0.417646
Si Si2 0.325726 0.804576 0.673359
Si Si3 0.171991 0.398447 0.416512
Si Si4 0.831853 0.812116 0.168672
Si Si5 0.827420 0.603665 0.423349
O O1 0.669622 0.500000 0.500000
O O2 0.500000 0.501268 0.388971
O O3 0.748082 0.450316 0.388558
O O4 0.748016 0.552950 0.391879
O O5 0.262943 0.817645 0.750000
O O6 0.500000 0.806295 0.676335
O O7 0.278503 0.746472 0.650904
O O8 0.265901 0.846365 0.618194
O O9 0.224704 0.349747 0.372432
O O10 0.211988 0.387692 0.496451
O O11 0.000000 0.406647 0.406181
O O12 0.816628 0.822895 0.250000
O O13 0.000000 0.821060 0.144879
O O14 0.000000 0.595650 0.412545
#
# Coordination Sequence:
#
# PCOD8256813 Si02
#       5
#    16  16  16  16  16
#     4   9  17  30  48  69  94 126 161 195 235 282
#     4   8  15  30  51  71  93 125 160 191 230 281
#     4  10  19  30  47  72  99 125 155 195 241 285
#     4   9  18  33  51  69  92 125 162 196 231 277
#     4   9  17  30  49  73  98 123 156 198 239 281
#
# _framework density 17.728866
#
# number of rings (size 3 to 8) (size 9 to 14) (size 15 to 20)
#    0.000    3.000    0.000    2.400    0.000    4.400 
#    0.000    2.000    0.000    5.400    0.000    0.000 
#    0.000    0.000    0.000    0.000    0.000    0.000 
#
# Total GULP energy -495933.614675 kJ/mol
# GULP energy per Si atom -12398.340367 kJ/mol
# Density = 1.768851 g / cm^3
# Si number density = 17.728866 Si / 1000 Ang^3
#
#
#
# Elastic Constant Matrix: (Units=GPa)
#
#
# Indices 1 2 3 4 5 6 
#
# 1 67.6617 55.4200 30.9324 0.0000 0.0000 0.0000
# 2 55.4200 166.0520 62.2328 0.0000 0.0000 0.0000
# 3 30.9324 62.2328 51.7567 0.0000 0.0000 0.0000
# 4 0.0000 0.0000 0.0000 4.5742 0.0000 0.0000
# 5 0.0000 0.0000 0.0000 0.0000 17.1922 0.0000
# 6 0.0000 0.0000 0.0000 0.0000 0.0000 31.8851
#
#
#
# Elastic Compliance Matrix: (Units=1/GPa)
#
#
# Indices 1 2 3 4 5 6 
#
# 1 0.021962 -0.004388 -0.007849 0.000000 0.000000 0.000000
# 2 -0.004388 0.011839 -0.011613 0.000000 0.000000 0.000000
# 3 -0.007849 -0.011613 0.037976 0.000000 0.000000 0.000000
# 4 0.000000 0.000000 0.000000 0.218618 0.000000 0.000000
# 5 0.000000 0.000000 0.000000 0.000000 0.058166 0.000000
# 6 0.000000 0.000000 0.000000 0.000000 0.000000 0.031363
#
#
# Mechanical properties :
#
#
# Convention : Reuss Voigt Hill
#
# Bulk Modulus (GPa) = 41.53469 64.73787 53.13628
# Shear Modulus (GPa) = 11.47714 19.85597 15.66656
#
# Velocity S-wave (km/s) = 2.54711 3.35024 2.97589
# Velocity P-wave (km/s) = 5.66824 7.18055 6.46874
#
# Compressibility (1/GPa) = 0.02407626
#
# Stress axis : x y z
#
# Youngs Moduli (GPa) = 45.53322 84.46700 26.33273
#
# Poissons Ratio (x) = 0.37065 0.20669
# Poissons Ratio (y) = 0.19980 0.30579
# Poissons Ratio (z) = 0.35740 0.98089
#
# Static dielectric constant tensor:
#      x y z
#    x 3.128130 0.000000 0.000000 
#    y 0.000000 3.540100 0.000000 
#    z 0.000000 0.000000 3.167720 
# 
# 
# High freq. dielectric constant tensor:
#      x y z
#    x 1.669430 0.000000 0.000000 
#    y 0.000000 1.699530 0.000000 
#    z 0.000000 0.000000 1.658320 
# 
# From -- ./inp_files/40428.got.cif
#   From: 2010.03.12/outbox.cif.g09.slc.cpg/sg63_21_cif.got.tgz:40428.got - 2010.04.10 19:34:48.
