data_PCOD8256339
_publ_section_title
;
Structure prediction by ZEFSAII (Michael W. Deem and Ramdas Pophale) SiO2 
 PCOD8256339
Probable space group: C M C M
;
_chemical_formula_sum "Si O2"
_cell_formula_units_Z 72
_cell_length_a 25.616826
_cell_length_b 17.316870
_cell_length_c 8.662640
_cell_angle_alpha 90.000000
_cell_angle_beta 90.000000
_cell_angle_gamma 90.000000
_cell_volume 3842.775220
_symmetry_space_group_name_H-M "C M C M"
_symmetry_group_IT_number 63
_symmetry_cell_setting 'orthorhombic'
loop_
_space_group_symop_operation_xyz
x,y,z
-x,-y,1/2+z
x,-y,-z
-x,y,1/2-z
-x,-y,-z
x,y,1/2-z
-x,y,z
x,-y,1/2+z
1/2+x,1/2+y,z
1/2-x,1/2-y,1/2+z
1/2+x,1/2-y,-z
1/2-x,1/2+y,1/2-z
1/2-x,1/2-y,-z
1/2+x,1/2+y,1/2-z
1/2-x,1/2+y,z
1/2+x,1/2-y,1/2+z
loop_
_atom_site_type_symbol
_atom_site_label
_atom_site_fract_x
_atom_site_fract_y
_atom_site_fract_z
Si Si1 0.058140 0.372358 0.573400
Si Si2 0.412435 0.701333 0.569623
Si Si3 0.500000 0.586110 0.934962
Si Si4 0.342994 0.921817 0.070636
Si Si5 0.305920 0.765563 0.568500
O O1 0.077540 0.384255 0.750000
O O2 0.058894 0.281599 0.532233
O O3 0.094572 0.420356 0.457001
O O4 0.000000 0.403943 0.550464
O O5 0.408992 0.687415 0.750000
O O6 0.447882 0.631176 0.502017
O O7 0.352267 0.707947 0.505252
O O8 0.500000 0.584180 0.750000
O O9 0.500000 0.500000 0.000000
O O10 0.329117 0.914906 0.250000
O O11 0.318861 0.852650 0.974330
O O12 0.319013 0.000000 0.000000
O O13 0.302628 0.756951 0.750000
O O14 0.250000 0.750000 0.500000
#
# Coordination Sequence:
#
# PCOD8256339 Si02
#       5
#    16  16   8  16  16
#     4   9  16  30  53  77 101 138 181 218 260 320
#     4   8  15  30  54  76 102 140 182 218 264 326
#     4  10  18  32  52  78 109 144 181 224 273 328
#     4  11  22  36  53  77 109 142 176 221 272 323
#     4  10  20  37  60  84 106 140 186 232 277 335
#
# _framework density 18.736459
#
# number of rings (size 3 to 8) (size 9 to 14) (size 15 to 20)
#    0.000    2.444    1.111    4.000    0.000    0.889 
#    0.000    6.667    0.000    2.667    0.000    0.000 
#    0.000    0.000    0.000    0.000    0.000    0.000 
#
# Total GULP energy -446049.738471 kJ/mol
# GULP energy per Si atom -12390.270513 kJ/mol
# Density = 1.869381 g / cm^3
# Si number density = 18.736459 Si / 1000 Ang^3
#
#
#
# Elastic Constant Matrix: (Units=GPa)
#
#
# Indices 1 2 3 4 5 6 
#
# 1 144.4239 49.4058 25.0647 0.0000 0.0000 0.0000
# 2 49.4058 98.0353 11.3082 0.0000 0.0000 0.0000
# 3 25.0647 11.3082 47.1951 0.0000 0.0000 0.0000
# 4 0.0000 0.0000 0.0000 28.2964 0.0000 0.0000
# 5 0.0000 0.0000 0.0000 0.0000 29.1055 0.0000
# 6 0.0000 0.0000 0.0000 0.0000 0.0000 7.6545
#
#
#
# Elastic Compliance Matrix: (Units=1/GPa)
#
#
# Indices 1 2 3 4 5 6 
#
# 1 0.008980 -0.004089 -0.003790 0.000000 0.000000 0.000000
# 2 -0.004089 0.012352 -0.000788 0.000000 0.000000 0.000000
# 3 -0.003790 -0.000788 0.023390 0.000000 0.000000 0.000000
# 4 0.000000 0.000000 0.000000 0.035340 0.000000 0.000000
# 5 0.000000 0.000000 0.000000 0.000000 0.034358 0.000000
# 6 0.000000 0.000000 0.000000 0.000000 0.000000 0.130642
#
#
# Mechanical properties :
#
#
# Convention : Reuss Voigt Hill
#
# Bulk Modulus (GPa) = 36.51046 51.24572 43.87809
# Shear Modulus (GPa) = 18.41447 26.60298 22.50872
#
# Velocity S-wave (km/s) = 3.13839 3.77218 3.46979
# Velocity P-wave (km/s) = 5.71500 6.81048 6.28665
#
# Compressibility (1/GPa) = 0.02738941
#
# Stress axis : x y z
#
# Youngs Moduli (GPa) = 111.35306 80.95970 42.75303
#
# Poissons Ratio (x) = 0.33102 0.16202
# Poissons Ratio (y) = 0.45528 0.03370
# Poissons Ratio (z) = 0.42200 0.06381
#
# Static dielectric constant tensor:
#      x y z
#    x 3.860600 0.000000 0.000000 
#    y 0.000000 3.398140 0.000000 
#    z 0.000000 0.000000 3.149350 
# 
# 
# High freq. dielectric constant tensor:
#      x y z
#    x 1.727320 0.000000 0.000000 
#    y 0.000000 1.715870 0.000000 
#    z 0.000000 0.000000 1.703130 
# 
# From -- ./inp_files/11676.got.cif
#   From: 2010.03.12/outbox.cif.g09.slc.cpg/sg63_6_cif.got.tgz:11676.got - 2010.04.10 19:34:48.
