data_PCOD8256446
_publ_section_title
;
Structure prediction by ZEFSAII (Michael W. Deem and Ramdas Pophale) SiO2 
 PCOD8256446
Probable space group: C M C M
;
_chemical_formula_sum "Si O2"
_cell_formula_units_Z 96
_cell_length_a 11.161946
_cell_length_b 20.172896
_cell_length_c 24.482267
_cell_angle_alpha 90.000000
_cell_angle_beta 90.000000
_cell_angle_gamma 90.000000
_cell_volume 5512.642090
_symmetry_space_group_name_H-M "C M C M"
_symmetry_group_IT_number 63
_symmetry_cell_setting 'orthorhombic'
loop_
_space_group_symop_operation_xyz
x,y,z
-x,-y,1/2+z
x,-y,-z
-x,y,1/2-z
-x,-y,-z
x,y,1/2-z
-x,y,z
x,-y,1/2+z
1/2+x,1/2+y,z
1/2-x,1/2-y,1/2+z
1/2+x,1/2-y,-z
1/2-x,1/2+y,1/2-z
1/2-x,1/2-y,-z
1/2+x,1/2+y,1/2-z
1/2-x,1/2+y,z
1/2+x,1/2-y,1/2+z
loop_
_atom_site_type_symbol
_atom_site_label
_atom_site_fract_x
_atom_site_fract_y
_atom_site_fract_z
Si Si1 0.138470 0.061114 0.534854
Si Si2 0.868966 0.858300 0.750000
Si Si3 0.246772 0.322148 0.524928
Si Si4 0.133836 0.015206 0.750000
Si Si5 0.500000 0.894102 0.506611
Si Si6 0.500000 0.988041 0.091945
Si Si7 0.355620 0.364323 0.867832
Si Si8 0.254582 0.509902 0.637480
O O1 0.158467 0.130629 0.505223
O O2 0.000000 0.048062 0.543918
O O3 0.195168 0.000000 0.500000
O O4 0.202209 0.063596 0.593301
O O5 0.880022 0.937006 0.750000
O O6 0.807696 0.838605 0.807863
O O7 0.000000 0.825711 0.750000
O O8 0.250000 0.250000 0.500000
O O9 0.114255 0.349286 0.517922
O O10 0.288956 0.318482 0.588070
O O11 0.208019 0.037600 0.803280
O O12 0.000000 0.047000 0.750000
O O13 0.500000 0.953000 0.549214
O O14 0.500000 0.920377 0.443965
O O15 0.388367 0.994350 0.132971
O O16 0.500000 0.359568 0.872059
O O17 0.317881 0.440342 0.876979
#
# Coordination Sequence:
#
# PCOD8256446 Si02
#       8
#    16   8  16   8   8   8  16  16
#     4  11  20  34  57  82 106 138 184 231 276 328
#     4   7  14  28  51  76 103 137 171 226 282 315
#     4  12  25  36  54  82 114 150 183 235 284 331
#     4   9  18  31  51  82 115 140 180 242 286 317
#     4  11  22  40  52  76 121 154 188 218 281 350
#     4  11  20  35  58  78 112 161 187 218 272 354
#     4  10  18  33  54  81 110 139 185 236 280 326
#     4  11  19  33  54  83 110 148 186 226 284 332
#
# _framework density 17.414517
#
# number of rings (size 3 to 8) (size 9 to 14) (size 15 to 20)
#    0.000    1.500    5.000    3.000    2.333    0.333 
#    0.000    0.000    0.000    1.500    0.000    0.000 
#    0.000    0.000    0.000    0.000    0.000    0.000 
#
# Total GULP energy -595010.118180 kJ/mol
# GULP energy per Si atom -12396.044129 kJ/mol
# Density = 1.737488 g / cm^3
# Si number density = 17.414517 Si / 1000 Ang^3
#
#
#
# Elastic Constant Matrix: (Units=GPa)
#
#
# Indices 1 2 3 4 5 6 
#
# 1 113.9316 20.4247 49.7407 0.0000 0.0000 0.0000
# 2 20.4247 67.9011 41.4146 0.0000 0.0000 0.0000
# 3 49.7407 41.4146 156.7017 0.0000 0.0000 0.0000
# 4 0.0000 0.0000 0.0000 17.6639 0.0000 0.0000
# 5 0.0000 0.0000 0.0000 0.0000 26.0263 0.0000
# 6 0.0000 0.0000 0.0000 0.0000 0.0000 -866.4476
#
#
#
# Elastic Compliance Matrix: (Units=1/GPa)
#
#
# Indices 1 2 3 4 5 6 
#
# 1 0.010287 -0.001315 -0.002918 0.000000 0.000000 0.000000
# 2 -0.001315 0.017726 -0.004267 0.000000 0.000000 0.000000
# 3 -0.002918 -0.004267 0.008436 0.000000 0.000000 0.000000
# 4 0.000000 0.000000 0.000000 0.056613 0.000000 0.000000
# 5 0.000000 0.000000 0.000000 0.000000 0.038423 0.000000
# 6 0.000000 0.000000 0.000000 0.000000 0.000000 -0.001154
#
#
# Mechanical properties :
#
#
# Convention : Reuss Voigt Hill
#
# Bulk Modulus (GPa) = 51.41860 62.41049 56.91455
# Shear Modulus (GPa) = 32.50734 -149.42119 -58.45693
#
# Velocity S-wave (km/s) = 4.32520 -9.27302 -5.80007
# Velocity P-wave (km/s) = 7.38468 8.87333 3.47868
#
# Compressibility (1/GPa) = 0.01944821
#
# Stress axis : x y z
#
# Youngs Moduli (GPa) = 97.21256 56.41587 118.54584
#
# Poissons Ratio (x) = 0.07416 0.34589
# Poissons Ratio (y) = 0.12780 0.50588
# Poissons Ratio (z) = 0.28365 0.24075
#
# Static dielectric constant tensor:
#      x y z
#    x 3.266270 0.000000 0.000000 
#    y 0.000000 3.082690 0.000000 
#    z 0.000000 0.000000 3.223860 
# 
# 
# High freq. dielectric constant tensor:
#      x y z
#    x 1.678130 0.000000 0.000000 
#    y 0.000000 1.618850 0.000000 
#    z 0.000000 0.000000 1.685930 
# 
# From -- ./inp_files/61585.got.cif
#   From: 2010.03.12/outbox.cif.g09.slc.cpg/sg63_31_cif.got.tgz:61585.got - 2010.04.10 19:34:48.
