data_PCOD8256323
_publ_section_title
;
Structure prediction by ZEFSAII (Michael W. Deem and Ramdas Pophale) SiO2 
 PCOD8256323
Probable space group: C M C M
;
_chemical_formula_sum "Si O2"
_cell_formula_units_Z 72
_cell_length_a 28.597643
_cell_length_b 16.976066
_cell_length_c 8.909636
_cell_angle_alpha 90.000000
_cell_angle_beta 90.000000
_cell_angle_gamma 90.000000
_cell_volume 4325.409769
_symmetry_space_group_name_H-M "C M C M"
_symmetry_group_IT_number 63
_symmetry_cell_setting 'orthorhombic'
loop_
_space_group_symop_operation_xyz
x,y,z
-x,-y,1/2+z
x,-y,-z
-x,y,1/2-z
-x,-y,-z
x,y,1/2-z
-x,y,z
x,-y,1/2+z
1/2+x,1/2+y,z
1/2-x,1/2-y,1/2+z
1/2+x,1/2-y,-z
1/2-x,1/2+y,1/2-z
1/2-x,1/2-y,-z
1/2+x,1/2+y,1/2-z
1/2-x,1/2+y,z
1/2+x,1/2-y,1/2+z
loop_
_atom_site_type_symbol
_atom_site_label
_atom_site_fract_x
_atom_site_fract_y
_atom_site_fract_z
Si Si1 0.140097 0.730105 0.427782
Si Si2 0.000000 0.914680 0.429011
Si Si3 0.782508 0.814073 0.925302
Si Si4 0.948754 0.215139 0.078970
Si Si5 0.799571 0.418643 0.576770
O O1 0.138624 0.736777 0.250000
O O2 0.167099 0.807548 0.493726
O O3 0.088043 0.728945 0.494864
O O4 0.166378 0.650877 0.482794
O O5 0.046153 0.868174 0.489691
O O6 0.000000 0.919061 0.250000
O O7 0.000000 0.000000 0.500000
O O8 0.788347 0.796201 0.750000
O O9 0.755349 0.896965 0.950988
O O10 0.750000 0.750000 0.000000
O O11 0.932672 0.198978 0.250000
O O12 0.000000 0.257478 0.076781
O O13 0.812719 0.500000 0.500000
O O14 0.809758 0.430297 0.750000
#
# Coordination Sequence:
#
# PCOD8256323 Si02
#       5
#    16   8  16  16  16
#     4  10  19  32  51  75  99 129 169 207 250 299
#     4  10  18  32  52  74 101 130 159 200 246 290
#     4   9  17  30  47  69  96 126 163 204 245 295
#     4   9  19  33  51  76 101 131 171 207 247 297
#     4   9  19  32  48  72 100 130 164 203 249 298
#
# _framework density 16.645821999999999
#
# number of rings (size 3 to 8) (size 9 to 14) (size 15 to 20)
#    0.667    2.000    0.000    4.000    0.000    5.333 
#    0.000    1.111    0.000    3.333    0.000    0.000 
#    0.000    0.000    0.000    0.000    0.000    0.000 
#
# Total GULP energy -445995.250790 kJ/mol
# GULP energy per Si atom -12388.756966 kJ/mol
# Density = 1.660794 g / cm^3
# Si number density = 16.645822 Si / 1000 Ang^3
#
#
#
# Elastic Constant Matrix: (Units=GPa)
#
#
# Indices 1 2 3 4 5 6 
#
# 1 99.2153 45.7507 46.7865 0.0000 0.0000 0.0000
# 2 45.7507 85.3101 45.0478 0.0000 0.0000 0.0000
# 3 46.7865 45.0478 110.4427 0.0000 0.0000 0.0000
# 4 0.0000 0.0000 0.0000 28.6676 0.0000 0.0000
# 5 0.0000 0.0000 0.0000 0.0000 32.9461 0.0000
# 6 0.0000 0.0000 0.0000 0.0000 0.0000 19.5884
#
#
#
# Elastic Compliance Matrix: (Units=1/GPa)
#
#
# Indices 1 2 3 4 5 6 
#
# 1 0.014541 -0.005793 -0.003797 0.000000 0.000000 0.000000
# 2 -0.005793 0.017248 -0.004581 0.000000 0.000000 0.000000
# 3 -0.003797 -0.004581 0.012531 0.000000 0.000000 0.000000
# 4 0.000000 0.000000 0.000000 0.034883 0.000000 0.000000
# 5 0.000000 0.000000 0.000000 0.000000 0.030353 0.000000
# 6 0.000000 0.000000 0.000000 0.000000 0.000000 0.051051
#
#
# Mechanical properties :
#
#
# Convention : Reuss Voigt Hill
#
# Bulk Modulus (GPa) = 62.58617 63.34869 62.96743
# Shear Modulus (GPa) = 25.73681 26.73262 26.23472
#
# Velocity S-wave (km/s) = 3.93637 4.01180 3.97426
# Velocity P-wave (km/s) = 7.63808 7.72003 7.67916
#
# Compressibility (1/GPa) = 0.01597797
#
# Stress axis : x y z
#
# Youngs Moduli (GPa) = 68.77101 57.97879 79.79909
#
# Poissons Ratio (x) = 0.33588 0.30300
# Poissons Ratio (y) = 0.39840 0.36555
# Poissons Ratio (z) = 0.26113 0.26560
#
# Static dielectric constant tensor:
#      x y z
#    x 3.245390 0.000000 0.000000 
#    y 0.000000 2.975090 0.000000 
#    z 0.000000 0.000000 3.319180 
# 
# 
# High freq. dielectric constant tensor:
#      x y z
#    x 1.632350 0.000000 0.000000 
#    y 0.000000 1.605590 0.000000 
#    z 0.000000 0.000000 1.658670 
# 
# From -- ./inp_files/11898.got.cif
#   From: 2010.03.12/outbox.cif.g09.slc.cpg/sg63_6_cif.got.tgz:11898.got - 2010.04.10 19:34:48.
