data_PCOD8256361
_publ_section_title
;
Structure prediction by ZEFSAII (Michael W. Deem and Ramdas Pophale) SiO2 
 PCOD8256361
Probable space group: C M C M
;
_chemical_formula_sum "Si O2"
_cell_formula_units_Z 128
_cell_length_a 23.680676
_cell_length_b 12.945827
_cell_length_c 23.655085
_cell_angle_alpha 90.000000
_cell_angle_beta 90.000000
_cell_angle_gamma 90.000000
_cell_volume 7251.843244
_symmetry_space_group_name_H-M "C M C M"
_symmetry_group_IT_number 63
_symmetry_cell_setting 'orthorhombic'
loop_
_space_group_symop_operation_xyz
x,y,z
-x,-y,1/2+z
x,-y,-z
-x,y,1/2-z
-x,-y,-z
x,y,1/2-z
-x,y,z
x,-y,1/2+z
1/2+x,1/2+y,z
1/2-x,1/2-y,1/2+z
1/2+x,1/2-y,-z
1/2-x,1/2+y,1/2-z
1/2-x,1/2-y,-z
1/2+x,1/2+y,1/2-z
1/2-x,1/2+y,z
1/2+x,1/2-y,1/2+z
loop_
_atom_site_type_symbol
_atom_site_label
_atom_site_fract_x
_atom_site_fract_y
_atom_site_fract_z
Si Si1 0.845396 0.619552 0.503478
Si Si2 0.279495 0.154152 0.613183
Si Si3 0.666939 0.673759 0.313606
Si Si4 0.064863 0.919692 0.630117
Si Si5 0.563735 0.654093 0.602205
Si Si6 0.223897 0.547529 0.314559
Si Si7 0.169889 0.718260 0.383630
Si Si8 0.436031 0.286500 0.976900
O O1 0.862800 0.500000 0.500000
O O2 0.794699 0.636718 0.547691
O O3 0.824566 0.658493 0.442791
O O4 0.899530 0.682670 0.524910
O O5 0.321411 0.236955 0.641227
O O6 0.214627 0.188547 0.616671
O O7 0.288476 0.049016 0.646411
O O8 0.672084 0.718268 0.250000
O O9 0.604411 0.627691 0.321510
O O10 0.711418 0.581578 0.322818
O O11 0.082106 0.866918 0.571140
O O12 0.000000 0.896740 0.646111
O O13 0.076067 0.041294 0.626313
O O14 0.500000 0.689785 0.617787
O O15 0.607757 0.735764 0.628307
O O16 0.572069 0.650895 0.534872
O O17 0.210628 0.518607 0.250000
O O18 0.182477 0.640441 0.332594
O O19 0.500000 0.249316 0.968494
#
# Coordination Sequence:
#
# PCOD8256361 Si02
#       8
#    16  16  16  16  16  16  16  16
#     4  11  20  34  53  78 111 141 171 221 271 320
#     4  11  20  36  54  77 108 140 177 214 267 318
#     4  10  21  35  53  77 104 138 179 220 258 310
#     4  10  18  32  53  78 108 139 175 217 261 312
#     4   9  18  33  54  80 108 139 173 214 265 320
#     4  10  21  37  57  77 102 139 182 221 260 311
#     4  10  21  35  54  81 110 139 173 219 267 317
#     4   9  18  32  51  77 107 142 180 214 258 315
#
# _framework density 17.650684999999999
#
# number of rings (size 3 to 8) (size 9 to 14) (size 15 to 20)
#    0.000    2.000    2.500    1.875    0.000    2.500 
#    0.000    0.625    0.000    1.875    0.000    0.000 
#    0.000    0.000    0.000    0.000    0.000    0.000 
#
# Total GULP energy -793734.979104 kJ/mol
# GULP energy per Si atom -12402.109049 kJ/mol
# Density = 1.761051 g / cm^3
# Si number density = 17.650685 Si / 1000 Ang^3
#
#
#
# Elastic Constant Matrix: (Units=GPa)
#
#
# Indices 1 2 3 4 5 6 
#
# 1 97.0193 41.5925 25.8742 0.0000 0.0000 0.0000
# 2 41.5925 78.5001 13.5620 0.0000 0.0000 0.0000
# 3 25.8742 13.5620 47.5592 0.0000 0.0000 0.0000
# 4 0.0000 0.0000 0.0000 15.3719 0.0000 0.0000
# 5 0.0000 0.0000 0.0000 0.0000 22.8463 0.0000
# 6 0.0000 0.0000 0.0000 0.0000 0.0000 23.1490
#
#
#
# Elastic Compliance Matrix: (Units=1/GPa)
#
#
# Indices 1 2 3 4 5 6 
#
# 1 0.014868 -0.006816 -0.006145 0.000000 0.000000 0.000000
# 2 -0.006816 0.016524 -0.001004 0.000000 0.000000 0.000000
# 3 -0.006145 -0.001004 0.024656 0.000000 0.000000 0.000000
# 4 0.000000 0.000000 0.000000 0.065054 0.000000 0.000000
# 5 0.000000 0.000000 0.000000 0.000000 0.043771 0.000000
# 6 0.000000 0.000000 0.000000 0.000000 0.000000 0.043198
#
#
# Mechanical properties :
#
#
# Convention : Reuss Voigt Hill
#
# Bulk Modulus (GPa) = 35.56467 42.79289 39.17878
# Shear Modulus (GPa) = 20.37710 21.74341 21.06025
#
# Velocity S-wave (km/s) = 3.40143 3.51361 3.45798
# Velocity P-wave (km/s) = 5.96818 6.38417 6.17968
#
# Compressibility (1/GPa) = 0.02811779
#
# Stress axis : x y z
#
# Youngs Moduli (GPa) = 67.25765 60.51920 40.55821
#
# Poissons Ratio (x) = 0.41250 0.24924
# Poissons Ratio (y) = 0.45843 0.04071
# Poissons Ratio (z) = 0.41331 0.06074
#
# Static dielectric constant tensor:
#      x y z
#    x 3.282890 0.000000 0.000000 
#    y 0.000000 3.210820 0.000000 
#    z 0.000000 0.000000 3.209040 
# 
# 
# High freq. dielectric constant tensor:
#      x y z
#    x 1.680480 0.000000 0.000000 
#    y 0.000000 1.683180 0.000000 
#    z 0.000000 0.000000 1.677580 
# 
# From -- ./inp_files/65145.got.cif
#   From: 2010.03.12/outbox.cif.g09.slc.cpg/sg63_33_cif.got.tgz:65145.got - 2010.04.10 19:34:48.
