data_PCOD8256685
_publ_section_title
;
Structure prediction by ZEFSAII (Michael W. Deem and Ramdas Pophale) SiO2 
 PCOD8256685
Probable space group: C M C M
;
_chemical_formula_sum "Si O2"
_cell_formula_units_Z 104
_cell_length_a 26.590308
_cell_length_b 21.942680
_cell_length_c 9.687864
_cell_angle_alpha 90.000000
_cell_angle_beta 90.000000
_cell_angle_gamma 90.000000
_cell_volume 5652.506507
_symmetry_space_group_name_H-M "C M C M"
_symmetry_group_IT_number 63
_symmetry_cell_setting 'orthorhombic'
loop_
_space_group_symop_operation_xyz
x,y,z
-x,-y,1/2+z
x,-y,-z
-x,y,1/2-z
-x,-y,-z
x,y,1/2-z
-x,y,z
x,-y,1/2+z
1/2+x,1/2+y,z
1/2-x,1/2-y,1/2+z
1/2+x,1/2-y,-z
1/2-x,1/2+y,1/2-z
1/2-x,1/2-y,-z
1/2+x,1/2+y,1/2-z
1/2-x,1/2+y,z
1/2+x,1/2-y,1/2+z
loop_
_atom_site_type_symbol
_atom_site_label
_atom_site_fract_x
_atom_site_fract_y
_atom_site_fract_z
Si Si1 0.942823 0.878854 0.906707
Si Si2 0.000000 0.559943 0.591880
Si Si3 0.652969 0.554474 0.094085
Si Si4 0.557593 0.728025 0.597886
Si Si5 0.192844 0.308614 0.092625
Si Si6 0.285440 0.327593 0.590286
Si Si7 0.080853 0.339182 0.091803
O O1 0.938781 0.853559 0.750000
O O2 0.907313 0.937897 0.923352
O O3 0.000000 0.897962 0.941880
O O4 0.920196 0.826753 0.006361
O O5 0.000000 0.500000 0.500000
O O6 0.949139 0.598449 0.560546
O O7 0.000000 0.538646 0.750000
O O8 0.667529 0.537555 0.250000
O O9 0.677592 0.618103 0.048797
O O10 0.673142 0.500000 0.000000
O O11 0.583935 0.731977 0.750000
O O12 0.500000 0.712463 0.621242
O O13 0.560876 0.790670 0.516192
O O14 0.210866 0.315693 0.250000
O O15 0.187056 0.236632 0.055030
O O16 0.140819 0.345127 0.068855
O O17 0.234568 0.337888 0.995149
O O18 0.270441 0.330092 0.750000
O O19 0.069752 0.318411 0.250000
#
# Coordination Sequence:
#
# PCOD8256685 Si02
#       7
#    16   8  16  16  16  16  16
#     4   9  18  33  52  73 102 140 178 215 259 310
#     4  10  22  38  56  76 104 144 183 218 265 322
#     4  10  21  36  53  74 102 141 183 218 257 308
#     4  10  19  29  46  77 110 136 166 210 258 302
#     4   9  18  33  57  83 105 130 169 218 265 317
#     4   9  18  34  53  77 109 138 168 213 268 318
#     4  10  19  34  55  78 103 138 178 214 260 323
#
# _framework density 18.398917000000001
#
# number of rings (size 3 to 8) (size 9 to 14) (size 15 to 20)
#    0.000    2.462    0.769    1.385    0.000    5.846 
#    0.000    3.846    0.000    3.692    0.000    0.000 
#    0.000    0.000    0.000    0.000    0.000    0.000 
#
# Total GULP energy -644569.897748 kJ/mol
# GULP energy per Si atom -12395.574957 kJ/mol
# Density = 1.835704 g / cm^3
# Si number density = 18.398917 Si / 1000 Ang^3
#
#
#
# Elastic Constant Matrix: (Units=GPa)
#
#
# Indices 1 2 3 4 5 6 
#
# 1 100.9464 45.8118 39.4363 0.0000 0.0000 0.0000
# 2 45.8118 86.4945 52.4727 0.0000 0.0000 0.0000
# 3 39.4363 52.4727 87.4517 0.0000 0.0000 0.0000
# 4 0.0000 0.0000 0.0000 32.6714 0.0000 0.0000
# 5 0.0000 0.0000 0.0000 0.0000 25.4820 0.0000
# 6 0.0000 0.0000 0.0000 0.0000 0.0000 19.0875
#
#
#
# Elastic Compliance Matrix: (Units=1/GPa)
#
#
# Indices 1 2 3 4 5 6 
#
# 1 0.013469 -0.005423 -0.002820 0.000000 0.000000 0.000000
# 2 -0.005423 0.020362 -0.009772 0.000000 0.000000 0.000000
# 3 -0.002820 -0.009772 0.018570 0.000000 0.000000 0.000000
# 4 0.000000 0.000000 0.000000 0.030608 0.000000 0.000000
# 5 0.000000 0.000000 0.000000 0.000000 0.039243 0.000000
# 6 0.000000 0.000000 0.000000 0.000000 0.000000 0.052390
#
#
# Mechanical properties :
#
#
# Convention : Reuss Voigt Hill
#
# Bulk Modulus (GPa) = 61.08410 61.14824 61.11617
# Shear Modulus (GPa) = 23.13422 24.59295 23.86359
#
# Velocity S-wave (km/s) = 3.54979 3.65999 3.60531
# Velocity P-wave (km/s) = 7.07624 7.15315 7.11480
#
# Compressibility (1/GPa) = 0.01637087
#
# Stress axis : x y z
#
# Youngs Moduli (GPa) = 74.24440 49.11067 53.85047
#
# Poissons Ratio (x) = 0.26634 0.15185
# Poissons Ratio (y) = 0.40264 0.52623
# Poissons Ratio (z) = 0.20936 0.47991
#
# Static dielectric constant tensor:
#      x y z
#    x 3.400240 0.000000 0.000000 
#    y 0.000000 3.082490 0.000000 
#    z 0.000000 0.000000 3.602970 
# 
# 
# High freq. dielectric constant tensor:
#      x y z
#    x 1.708640 0.000000 0.000000 
#    y 0.000000 1.684000 0.000000 
#    z 0.000000 0.000000 1.718740 
# 
# From -- ./inp_files/12905.got.cif
#   From: 2010.03.12/outbox.cif.g09.slc.cpg/sg63_7_cif.got.tgz:12905.got - 2010.04.10 19:34:48.
