data_PCOD8256062
_publ_section_title
;
Structure prediction by ZEFSAII (Michael W. Deem and Ramdas Pophale) SiO2 
 PCOD8256062
Probable space group: C M C M
;
_chemical_formula_sum "Si O2"
_cell_formula_units_Z 96
_cell_length_a 28.270632
_cell_length_b 10.493919
_cell_length_c 18.004242
_cell_angle_alpha 90.000000
_cell_angle_beta 90.000000
_cell_angle_gamma 90.000000
_cell_volume 5341.313474
_symmetry_space_group_name_H-M "C M C M"
_symmetry_group_IT_number 63
_symmetry_cell_setting 'orthorhombic'
loop_
_space_group_symop_operation_xyz
x,y,z
-x,-y,1/2+z
x,-y,-z
-x,y,1/2-z
-x,-y,-z
x,y,1/2-z
-x,y,z
x,-y,1/2+z
1/2+x,1/2+y,z
1/2-x,1/2-y,1/2+z
1/2+x,1/2-y,-z
1/2-x,1/2+y,1/2-z
1/2-x,1/2-y,-z
1/2+x,1/2+y,1/2-z
1/2-x,1/2+y,z
1/2+x,1/2-y,1/2+z
loop_
_atom_site_type_symbol
_atom_site_label
_atom_site_fract_x
_atom_site_fract_y
_atom_site_fract_z
Si Si1 0.299480 0.352306 0.661538
Si Si2 0.146316 0.605714 0.837328
Si Si3 0.192568 0.350651 0.661402
Si Si4 0.946322 0.003378 0.086602
Si Si5 0.552619 0.768382 0.335482
Si Si6 0.358149 0.596042 0.661812
O O1 0.299733 0.351982 0.750000
O O2 0.324510 0.225307 0.629830
O O3 0.246059 0.355673 0.631040
O O4 0.327627 0.476087 0.632724
O O5 0.155090 0.601131 0.750000
O O6 0.164753 0.473099 0.871644
O O7 0.090634 0.622722 0.856179
O O8 0.192573 0.351157 0.750000
O O9 0.167068 0.223589 0.632064
O O10 0.910828 0.907959 0.128193
O O11 0.000000 0.959054 0.103825
O O12 0.937727 0.146166 0.114588
O O13 0.935412 0.000000 0.000000
O O14 0.559507 0.725199 0.250000
O O15 0.500000 0.824154 0.348946
O O16 0.362324 0.596145 0.750000
#
# Coordination Sequence:
#
# PCOD8256062 Si02
#       6
#    16  16  16  16  16  16
#     4   9  15  25  43  69  98 128 160 191 227 274
#     4   9  15  25  41  66  96 125 154 186 229 275
#     4   9  17  26  41  70 105 129 150 190 238 280
#     4  10  20  33  50  71  94 123 160 201 245 289
#     4   9  16  28  48  71  91 115 154 197 232 276
#     4  10  18  30  49  75 100 125 159 198 239 278
#
# _framework density 17.973108
#
# number of rings (size 3 to 8) (size 9 to 14) (size 15 to 20)
#    0.000    2.667    1.667    1.500    0.000    5.000 
#    0.000    0.833    0.000    5.000    0.000    3.500 
#    0.000    0.000    0.000    0.000    0.000    0.000 
#
# Total GULP energy -595077.926568 kJ/mol
# GULP energy per Si atom -12397.456803 kJ/mol
# Density = 1.793220 g / cm^3
# Si number density = 17.973108 Si / 1000 Ang^3
#
#
#
# Elastic Constant Matrix: (Units=GPa)
#
#
# Indices 1 2 3 4 5 6 
#
# 1 167.7728 86.3030 25.2399 0.0000 0.0000 0.0000
# 2 86.3030 148.2084 16.8431 0.0000 0.0000 0.0000
# 3 25.2399 16.8431 21.0072 0.0000 0.0000 0.0000
# 4 0.0000 0.0000 0.0000 4.5551 0.0000 0.0000
# 5 0.0000 0.0000 0.0000 0.0000 9.0732 0.0000
# 6 0.0000 0.0000 0.0000 0.0000 0.0000 20.8956
#
#
#
# Elastic Compliance Matrix: (Units=1/GPa)
#
#
# Indices 1 2 3 4 5 6 
#
# 1 0.009520 -0.004669 -0.007694 0.000000 0.000000 0.000000
# 2 -0.004669 0.009714 -0.002178 0.000000 0.000000 0.000000
# 3 -0.007694 -0.002178 0.058594 0.000000 0.000000 0.000000
# 4 0.000000 0.000000 0.000000 0.219533 0.000000 0.000000
# 5 0.000000 0.000000 0.000000 0.000000 0.110214 0.000000
# 6 0.000000 0.000000 0.000000 0.000000 0.000000 0.047857
#
#
# Mechanical properties :
#
#
# Convention : Reuss Voigt Hill
#
# Bulk Modulus (GPa) = 20.51543 65.97337 43.24440
# Shear Modulus (GPa) = 9.98478 20.81163 15.39820
#
# Velocity S-wave (km/s) = 2.35955 3.40653 2.93018
# Velocity P-wave (km/s) = 4.34311 7.22904 5.96329
#
# Compressibility (1/GPa) = 0.04874379
#
# Stress axis : x y z
#
# Youngs Moduli (GPa) = 105.04498 102.94825 17.06661
#
# Poissons Ratio (x) = 0.48067 0.13132
# Poissons Ratio (y) = 0.49045 0.03718
# Poissons Ratio (z) = 0.80825 0.22427
#
# Static dielectric constant tensor:
#      x y z
#    x 3.627910 0.000000 0.000000 
#    y 0.000000 3.400560 0.000000 
#    z 0.000000 0.000000 2.755980 
# 
# 
# High freq. dielectric constant tensor:
#      x y z
#    x 1.716040 0.000000 0.000000 
#    y 0.000000 1.686630 0.000000 
#    z 0.000000 0.000000 1.632250 
# 
# From -- ./inp_files/48945.got.cif
#   From: 2010.03.12/outbox.cif.g09.slc.cpg/sg63_25_cif.got.tgz:48945.got - 2010.04.10 19:34:48.
