data_PCOD8256173
_publ_section_title
;
Structure prediction by ZEFSAII (Michael W. Deem and Ramdas Pophale) SiO2 
 PCOD8256173
Probable space group: C M C M
;
_chemical_formula_sum "Si O2"
_cell_formula_units_Z 112
_cell_length_a 13.641159
_cell_length_b 30.751012
_cell_length_c 14.354620
_cell_angle_alpha 90.000000
_cell_angle_beta 90.000000
_cell_angle_gamma 90.000000
_cell_volume 6021.468018
_symmetry_space_group_name_H-M "C M C M"
_symmetry_group_IT_number 63
_symmetry_cell_setting 'orthorhombic'
loop_
_space_group_symop_operation_xyz
x,y,z
-x,-y,1/2+z
x,-y,-z
-x,y,1/2-z
-x,-y,-z
x,y,1/2-z
-x,y,z
x,-y,1/2+z
1/2+x,1/2+y,z
1/2-x,1/2-y,1/2+z
1/2+x,1/2-y,-z
1/2-x,1/2+y,1/2-z
1/2-x,1/2-y,-z
1/2+x,1/2+y,1/2-z
1/2-x,1/2+y,z
1/2+x,1/2-y,1/2+z
loop_
_atom_site_type_symbol
_atom_site_label
_atom_site_fract_x
_atom_site_fract_y
_atom_site_fract_z
Si Si1 0.688750 0.571639 0.989480
Si Si2 0.309855 0.498132 0.851889
Si Si3 0.289680 0.818978 0.859169
Si Si4 0.610943 0.663077 0.484395
Si Si5 0.113606 0.228453 0.855341
Si Si6 0.108727 0.396838 0.957208
Si Si7 0.604794 0.987806 0.607071
O O1 0.677005 0.545522 0.087235
O O2 0.615840 0.612124 0.991683
O O3 0.800958 0.589352 0.974146
O O4 0.651591 0.540703 0.905854
O O5 0.361247 0.493738 0.750000
O O6 0.193779 0.505979 0.832549
O O7 0.287659 0.828263 0.750000
O O8 0.180362 0.825181 0.898195
O O9 0.323915 0.770541 0.882778
O O10 0.365693 0.852074 0.906215
O O11 0.500000 0.674887 0.455728
O O12 0.643934 0.689612 0.576028
O O13 0.137705 0.213374 0.750000
O O14 0.000000 0.240849 0.865149
O O15 0.099880 0.435571 0.882068
O O16 0.000000 0.391992 0.006289
O O17 0.500000 0.008043 0.638666
O O18 0.627935 0.000000 0.500000
#
# Coordination Sequence:
#
# PCOD8256173 Si02
#       7
#    16  16  16  16  16  16  16
#     4   9  19  34  48  72 100 129 167 216 255 297
#     4  10  18  31  49  68  95 131 168 210 263 310
#     4  10  20  33  51  78 109 136 165 203 247 298
#     4  10  21  36  55  75  99 135 174 208 249 297
#     4   9  18  34  56  81 107 131 160 204 252 298
#     4   9  16  27  47  70  99 136 164 195 244 294
#     4   9  15  26  42  62  95 130 161 199 240 290
#
# _framework density 18.600114999999999
#
# number of rings (size 3 to 8) (size 9 to 14) (size 15 to 20)
#    0.000    2.571    2.857    0.857    0.000    7.143 
#    0.000    4.286    0.000    0.857    0.000    0.000 
#    0.000    0.000    0.000    0.000    0.000    0.000 
#
# Total GULP energy -693791.604671 kJ/mol
# GULP energy per Si atom -12389.135798 kJ/mol
# Density = 1.855778 g / cm^3
# Si number density = 18.600115 Si / 1000 Ang^3
#
#
#
# Elastic Constant Matrix: (Units=GPa)
#
#
# Indices 1 2 3 4 5 6 
#
# 1 51.3998 22.2016 11.3485 0.0000 0.0000 0.0000
# 2 22.2016 115.2607 49.8294 0.0000 0.0000 0.0000
# 3 11.3485 49.8294 80.7241 0.0000 0.0000 0.0000
# 4 0.0000 0.0000 0.0000 16.6813 0.0000 0.0000
# 5 0.0000 0.0000 0.0000 0.0000 15.1916 0.0000
# 6 0.0000 0.0000 0.0000 0.0000 0.0000 21.4501
#
#
#
# Elastic Compliance Matrix: (Units=1/GPa)
#
#
# Indices 1 2 3 4 5 6 
#
# 1 0.021244 -0.003820 -0.000628 0.000000 0.000000 0.000000
# 2 -0.003820 0.012521 -0.007192 0.000000 0.000000 0.000000
# 3 -0.000628 -0.007192 0.016916 0.000000 0.000000 0.000000
# 4 0.000000 0.000000 0.000000 0.059947 0.000000 0.000000
# 5 0.000000 0.000000 0.000000 0.000000 0.065826 0.000000
# 6 0.000000 0.000000 0.000000 0.000000 0.000000 0.046620
#
#
# Mechanical properties :
#
#
# Convention : Reuss Voigt Hill
#
# Bulk Modulus (GPa) = 36.49687 46.01596 41.25641
# Shear Modulus (GPa) = 19.57036 21.59828 20.58432
#
# Velocity S-wave (km/s) = 3.24723 3.41132 3.33028
# Velocity P-wave (km/s) = 5.80722 6.34897 6.08413
#
# Compressibility (1/GPa) = 0.02739961
#
# Stress axis : x y z
#
# Youngs Moduli (GPa) = 47.07158 79.86516 59.11686
#
# Poissons Ratio (x) = 0.30512 0.03714
# Poissons Ratio (y) = 0.17984 0.42516
# Poissons Ratio (z) = 0.02957 0.57439
#
# Static dielectric constant tensor:
#      x y z
#    x 3.397400 0.000000 0.000000 
#    y 0.000000 3.488330 0.000000 
#    z 0.000000 0.000000 3.230910 
# 
# 
# High freq. dielectric constant tensor:
#      x y z
#    x 1.716150 0.000000 0.000000 
#    y 0.000000 1.722970 0.000000 
#    z 0.000000 0.000000 1.690620 
# 
# From -- ./inp_files/32782.got.cif
#   From: 2010.03.12/outbox.cif.g09.slc.cpg/sg63_17_cif.got.tgz:32782.got - 2010.04.10 19:34:48.
