data_PCOD8256822
_publ_section_title
;
Structure prediction by ZEFSAII (Michael W. Deem and Ramdas Pophale) SiO2 
 PCOD8256822
Probable space group: C M C M
;
_chemical_formula_sum "Si O2"
_cell_formula_units_Z 96
_cell_length_a 8.939597
_cell_length_b 20.060255
_cell_length_c 29.697405
_cell_angle_alpha 90.000000
_cell_angle_beta 90.000000
_cell_angle_gamma 90.000000
_cell_volume 5325.653321
_symmetry_space_group_name_H-M "C M C M"
_symmetry_group_IT_number 63
_symmetry_cell_setting 'orthorhombic'
loop_
_space_group_symop_operation_xyz
x,y,z
-x,-y,1/2+z
x,-y,-z
-x,y,1/2-z
-x,-y,-z
x,y,1/2-z
-x,y,z
x,-y,1/2+z
1/2+x,1/2+y,z
1/2-x,1/2-y,1/2+z
1/2+x,1/2-y,-z
1/2-x,1/2+y,1/2-z
1/2-x,1/2-y,-z
1/2+x,1/2+y,1/2-z
1/2-x,1/2+y,z
1/2+x,1/2-y,1/2+z
loop_
_atom_site_type_symbol
_atom_site_label
_atom_site_fract_x
_atom_site_fract_y
_atom_site_fract_z
Si Si1 0.828309 0.928547 0.522351
Si Si2 0.672963 0.894275 0.611409
Si Si3 0.676683 0.190476 0.527145
Si Si4 0.328123 0.263072 0.113046
Si Si5 0.168204 0.103334 0.299447
Si Si6 0.167618 0.261585 0.299313
O O1 0.767744 0.931744 0.573310
O O2 0.728625 0.879201 0.492977
O O3 0.000000 0.904236 0.523047
O O4 0.812567 0.000000 0.500000
O O5 0.500000 0.912032 0.605398
O O6 0.701491 0.815382 0.606550
O O7 0.725044 0.921752 0.660290
O O8 0.500000 0.196070 0.522812
O O9 0.750000 0.250000 0.500000
O O10 0.726515 0.195366 0.578827
O O11 0.500000 0.281143 0.104744
O O12 0.281961 0.287599 0.162918
O O13 0.224194 0.077783 0.250000
O O14 0.168768 0.182447 0.298944
O O15 0.000000 0.077249 0.308326
O O16 0.218567 0.288070 0.250000
O O17 0.000000 0.286920 0.310216
#
# Coordination Sequence:
#
# PCOD8256822 Si02
#       6
#    16  16  16  16  16  16
#     4  11  24  40  57  77 104 140 179 221 268 319
#     4  10  19  30  48  73 103 138 172 214 262 309
#     4  12  23  36  56  79 105 138 176 219 263 310
#     4  10  19  30  47  74 104 136 174 216 261 309
#     4   8  14  25  42  65  96 133 170 210 256 306
#     4   8  14  25  41  64  97 135 171 209 257 309
#
# _framework density 18.025956999999998
#
# number of rings (size 3 to 8) (size 9 to 14) (size 15 to 20)
#    0.000    2.167    1.667    4.000    0.000    3.333 
#    0.000    3.333    0.000    0.000    0.000    1.167 
#    0.000    1.333    0.000    0.000    0.000    0.000 
#
# Total GULP energy -595095.307612 kJ/mol
# GULP energy per Si atom -12397.818909 kJ/mol
# Density = 1.798493 g / cm^3
# Si number density = 18.025957 Si / 1000 Ang^3
#
#
#
# Elastic Constant Matrix: (Units=GPa)
#
#
# Indices 1 2 3 4 5 6 
#
# 1 136.6235 33.7423 73.8234 0.0000 0.0000 0.0000
# 2 33.7423 35.0620 29.7997 0.0000 0.0000 0.0000
# 3 73.8234 29.7997 155.1375 0.0000 0.0000 0.0000
# 4 0.0000 0.0000 0.0000 14.3236 0.0000 0.0000
# 5 0.0000 0.0000 0.0000 0.0000 37.3491 0.0000
# 6 0.0000 0.0000 0.0000 0.0000 0.0000 17.8809
#
#
#
# Elastic Compliance Matrix: (Units=1/GPa)
#
#
# Indices 1 2 3 4 5 6 
#
# 1 0.011306 -0.007538 -0.003932 0.000000 0.000000 0.000000
# 2 -0.007538 0.039112 -0.003926 0.000000 0.000000 0.000000
# 3 -0.003932 -0.003926 0.009071 0.000000 0.000000 0.000000
# 4 0.000000 0.000000 0.000000 0.069815 0.000000 0.000000
# 5 0.000000 0.000000 0.000000 0.000000 0.026774 0.000000
# 6 0.000000 0.000000 0.000000 0.000000 0.000000 0.055926
#
#
# Mechanical properties :
#
#
# Convention : Reuss Voigt Hill
#
# Bulk Modulus (GPa) = 34.84706 66.83930 50.84318
# Shear Modulus (GPa) = 19.81286 26.54122 23.17704
#
# Velocity S-wave (km/s) = 3.31891 3.84133 3.58964
# Velocity P-wave (km/s) = 5.83613 7.53886 6.74147
#
# Compressibility (1/GPa) = 0.02869683
#
# Stress axis : x y z
#
# Youngs Moduli (GPa) = 88.45057 25.56756 110.24163
#
# Poissons Ratio (x) = 0.19274 0.43346
# Poissons Ratio (y) = 0.66678 0.43277
# Poissons Ratio (z) = 0.34778 0.10037
#
# Static dielectric constant tensor:
#      x y z
#    x 3.451900 0.000000 0.000000 
#    y 0.000000 2.537900 0.000000 
#    z 0.000000 0.000000 3.818350 
# 
# 
# High freq. dielectric constant tensor:
#      x y z
#    x 1.707180 0.000000 0.000000 
#    y 0.000000 1.626560 0.000000 
#    z 0.000000 0.000000 1.721630 
# 
# From -- ./inp_files/66871.got.cif
#   From: 2010.03.12/outbox.cif.g09.slc.cpg/sg63_34_cif.got.tgz:66871.got - 2010.04.10 19:34:48.
