data_PCOD8256970
_publ_section_title
;
Structure prediction by ZEFSAII (Michael W. Deem and Ramdas Pophale) SiO2 
 PCOD8256970
Probable space group: C M C M
;
_chemical_formula_sum "Si O2"
_cell_formula_units_Z 120
_cell_length_a 29.575477
_cell_length_b 26.733130
_cell_length_c 8.731509
_cell_angle_alpha 90.000000
_cell_angle_beta 90.000000
_cell_angle_gamma 90.000000
_cell_volume 6903.524557
_symmetry_space_group_name_H-M "C M C M"
_symmetry_group_IT_number 63
_symmetry_cell_setting 'orthorhombic'
loop_
_space_group_symop_operation_xyz
x,y,z
-x,-y,1/2+z
x,-y,-z
-x,y,1/2-z
-x,-y,-z
x,y,1/2-z
-x,y,z
x,-y,1/2+z
1/2+x,1/2+y,z
1/2-x,1/2-y,1/2+z
1/2+x,1/2-y,-z
1/2-x,1/2+y,1/2-z
1/2-x,1/2-y,-z
1/2+x,1/2+y,1/2-z
1/2-x,1/2+y,z
1/2+x,1/2-y,1/2+z
loop_
_atom_site_type_symbol
_atom_site_label
_atom_site_fract_x
_atom_site_fract_y
_atom_site_fract_z
Si Si1 0.208595 0.344575 0.069779
Si Si2 0.640850 0.221476 0.431158
Si Si3 0.550282 0.730000 0.568287
Si Si4 0.749719 0.949155 0.068215
Si Si5 0.575445 0.380250 0.070324
Si Si6 0.332359 0.403886 0.920953
Si Si7 0.000000 0.946231 0.570997
Si Si8 0.209540 0.203643 0.421342
O O1 0.210590 0.341861 0.250000
O O2 0.220209 0.400850 0.015645
O O3 0.158714 0.329966 0.008054
O O4 0.241548 0.299840 0.006052
O O5 0.643359 0.216382 0.250000
O O6 0.588924 0.230907 0.486431
O O7 0.671711 0.267870 0.482064
O O8 0.549234 0.728820 0.750000
O O9 0.500000 0.744521 0.505320
O O10 0.564389 0.675255 0.508322
O O11 0.752534 0.952519 0.250000
O O12 0.799862 0.945149 0.997153
O O13 0.727466 0.000000 0.000000
O O14 0.566090 0.384169 0.250000
O O15 0.626168 0.395962 0.034302
O O16 0.544461 0.418126 0.980795
O O17 0.347381 0.421224 0.750000
O O18 0.304884 0.353263 0.908718
O O19 0.000000 0.951779 0.750000
O O20 0.000000 0.000000 0.500000
O O21 0.214479 0.226747 0.250000
#
# Coordination Sequence:
#
# PCOD8256970 Si02
#       8
#    16  16  16  16  16  16   8  16
#     4  10  21  35  50  72 104 137 169 206 252 304
#     4  11  20  31  51  76 103 136 171 208 251 303
#     4   9  18  33  54  78 102 133 171 209 256 310
#     4  10  21  37  56  75  99 134 172 211 255 302
#     4  11  20  36  58  76  98 129 166 213 265 316
#     4  10  20  33  51  76 103 131 167 211 253 300
#     4  12  26  42  56  74  94 120 164 218 275 322
#     4  10  19  31  48  72 103 135 170 208 247 294
#
# _framework density 17.382424
#
# number of rings (size 3 to 8) (size 9 to 14) (size 15 to 20)
#    0.000    1.733    2.000    3.400    0.000    3.200 
#    0.000    2.667    0.000    0.000    0.000    0.000 
#    0.000    0.533    0.000    1.200    0.000    1.867 
#
# Total GULP energy -743861.398659 kJ/mol
# GULP energy per Si atom -12397.689978 kJ/mol
# Density = 1.734286 g / cm^3
# Si number density = 17.382424 Si / 1000 Ang^3
#
#
#
# Elastic Constant Matrix: (Units=GPa)
#
#
# Indices 1 2 3 4 5 6 
#
# 1 114.3929 56.5509 28.7640 0.0000 0.0000 0.0000
# 2 56.5509 75.8165 22.2558 0.0000 0.0000 0.0000
# 3 28.7640 22.2558 67.7736 0.0000 0.0000 0.0000
# 4 0.0000 0.0000 0.0000 25.0411 0.0000 0.0000
# 5 0.0000 0.0000 0.0000 0.0000 28.4565 0.0000
# 6 0.0000 0.0000 0.0000 0.0000 0.0000 21.7839
#
#
#
# Elastic Compliance Matrix: (Units=1/GPa)
#
#
# Indices 1 2 3 4 5 6 
#
# 1 0.014327 -0.009851 -0.002846 0.000000 0.000000 0.000000
# 2 -0.009851 0.021370 -0.002837 0.000000 0.000000 0.000000
# 3 -0.002846 -0.002837 0.016894 0.000000 0.000000 0.000000
# 4 0.000000 0.000000 0.000000 0.039934 0.000000 0.000000
# 5 0.000000 0.000000 0.000000 0.000000 0.035141 0.000000
# 6 0.000000 0.000000 0.000000 0.000000 0.000000 0.045905
#
#
# Mechanical properties :
#
#
# Convention : Reuss Voigt Hill
#
# Bulk Modulus (GPa) = 46.45829 52.56937 49.51383
# Shear Modulus (GPa) = 23.60541 25.08378 24.34460
#
# Velocity S-wave (km/s) = 3.68911 3.80288 3.74642
# Velocity P-wave (km/s) = 6.70308 7.04209 6.87467
#
# Compressibility (1/GPa) = 0.02152468
#
# Stress axis : x y z
#
# Youngs Moduli (GPa) = 69.79615 46.79355 59.19162
#
# Poissons Ratio (x) = 0.46098 0.16844
# Poissons Ratio (y) = 0.68759 0.16791
# Poissons Ratio (z) = 0.19862 0.13274
#
# Static dielectric constant tensor:
#      x y z
#    x 3.548160 0.000000 0.000000 
#    y 0.000000 3.282610 0.000000 
#    z 0.000000 0.000000 3.314830 
# 
# 
# High freq. dielectric constant tensor:
#      x y z
#    x 1.656420 0.000000 0.000000 
#    y 0.000000 1.655750 0.000000 
#    z 0.000000 0.000000 1.677250 
# 
# From -- ./inp_files/13202.got.cif
#   From: 2010.03.12/outbox.cif.g09.slc.cpg/sg63_7_cif.got.tgz:13202.got - 2010.04.10 19:34:48.
