data_PCOD8256532
_publ_section_title
;
Structure prediction by ZEFSAII (Michael W. Deem and Ramdas Pophale) SiO2 
 PCOD8256532
Probable space group: C M C M
;
_chemical_formula_sum "Si O2"
_cell_formula_units_Z 64
_cell_length_a 11.711838
_cell_length_b 19.827180
_cell_length_c 13.838354
_cell_angle_alpha 90.000000
_cell_angle_beta 90.000000
_cell_angle_gamma 90.000000
_cell_volume 3213.441825
_symmetry_space_group_name_H-M "C M C M"
_symmetry_group_IT_number 63
_symmetry_cell_setting 'orthorhombic'
loop_
_space_group_symop_operation_xyz
x,y,z
-x,-y,1/2+z
x,-y,-z
-x,y,1/2-z
-x,-y,-z
x,y,1/2-z
-x,y,z
x,-y,1/2+z
1/2+x,1/2+y,z
1/2-x,1/2-y,1/2+z
1/2+x,1/2-y,-z
1/2-x,1/2+y,1/2-z
1/2-x,1/2-y,-z
1/2+x,1/2+y,1/2-z
1/2-x,1/2+y,z
1/2+x,1/2-y,1/2+z
loop_
_atom_site_type_symbol
_atom_site_label
_atom_site_fract_x
_atom_site_fract_y
_atom_site_fract_z
Si Si1 0.737174 0.441375 0.422798
Si Si2 0.136514 0.352216 0.750000
Si Si3 0.237319 0.180941 0.443325
Si Si4 0.500000 0.638429 0.356381
Si Si5 0.500000 0.515205 0.889731
Si Si6 0.632693 0.004219 0.750000
O O1 0.734847 0.500000 0.500000
O O2 0.774502 0.374201 0.477940
O O3 0.613766 0.440692 0.366733
O O4 0.833627 0.454297 0.344215
O O5 0.183862 0.317362 0.847495
O O6 0.185558 0.428771 0.750000
O O7 0.000000 0.346811 0.750000
O O8 0.250000 0.250000 0.500000
O O9 0.107885 0.164744 0.415245
O O10 0.500000 0.671561 0.250000
O O11 0.500000 0.557638 0.338748
O O12 0.500000 0.500000 0.000000
O O13 0.500000 0.994466 0.750000
#
# Coordination Sequence:
#
# PCOD8256532 Si02
#       6
#    16   8  16   8   8   8
#     4  11  21  40  66  98 128 162 220 277 327 379
#     4  11  24  44  65  93 127 175 218 263 326 395
#     4  12  26  43  67  97 134 176 215 268 333 396
#     4  12  22  42  72  97 126 170 224 270 331 402
#     4  10  18  34  70 100 122 147 213 284 330 370
#     4  11  24  40  65  95 131 173 226 265 312 389
#
# _framework density 19.916340999999999
#
# number of rings (size 3 to 8) (size 9 to 14) (size 15 to 20)
#    0.000    0.750    8.750    0.000    3.500    2.500 
#    0.000    0.000    0.000    0.000    0.000    0.000 
#    0.000    0.000    0.000    0.000    0.000    0.000 
#
# Total GULP energy -396686.055782 kJ/mol
# GULP energy per Si atom -12396.439243 kJ/mol
# Density = 1.987101 g / cm^3
# Si number density = 19.916341 Si / 1000 Ang^3
#
#
#
# Elastic Constant Matrix: (Units=GPa)
#
#
# Indices 1 2 3 4 5 6 
#
# 1 80.6216 24.0639 43.1493 0.0000 0.0000 0.0000
# 2 24.0639 129.0513 67.0943 0.0000 0.0000 0.0000
# 3 43.1493 67.0943 143.3380 0.0000 0.0000 0.0000
# 4 0.0000 0.0000 0.0000 24.1903 0.0000 0.0000
# 5 0.0000 0.0000 0.0000 0.0000 27.5715 0.0000
# 6 0.0000 0.0000 0.0000 0.0000 0.0000 16.9306
#
#
#
# Elastic Compliance Matrix: (Units=1/GPa)
#
#
# Indices 1 2 3 4 5 6 
#
# 1 0.014819 -0.000587 -0.004186 0.000000 0.000000 0.000000
# 2 -0.000587 0.010264 -0.004628 0.000000 0.000000 0.000000
# 3 -0.004186 -0.004628 0.010403 0.000000 0.000000 0.000000
# 4 0.000000 0.000000 0.000000 0.041339 0.000000 0.000000
# 5 0.000000 0.000000 0.000000 0.000000 0.036269 0.000000
# 6 0.000000 0.000000 0.000000 0.000000 0.000000 0.059065
#
#
# Mechanical properties :
#
#
# Convention : Reuss Voigt Hill
#
# Bulk Modulus (GPa) = 59.93611 69.06954 64.50283
# Shear Modulus (GPa) = 25.44227 28.31872 26.88050
#
# Velocity S-wave (km/s) = 3.57803 3.77488 3.67777
# Velocity P-wave (km/s) = 6.87234 7.33176 7.10576
#
# Compressibility (1/GPa) = 0.01668443
#
# Stress axis : x y z
#
# Youngs Moduli (GPa) = 67.47920 97.42452 96.12578
#
# Poissons Ratio (x) = 0.05717 0.40242
# Poissons Ratio (y) = 0.03960 0.44486
# Poissons Ratio (z) = 0.28250 0.45087
#
# Static dielectric constant tensor:
#      x y z
#    x 0.113440 0.000000 0.000000 
#    y 0.000000 3.319500 0.000000 
#    z 0.000000 0.000000 3.754170 
# 
# 
# High freq. dielectric constant tensor:
#      x y z
#    x 1.783930 0.000000 0.000000 
#    y 0.000000 1.749730 0.000000 
#    z 0.000000 0.000000 1.794100 
# 
# From -- ./inp_files/29236.got.cif
#   From: 2010.03.12/outbox.cif.g09.slc.cpg/sg63_15_cif.got.tgz:29236.got - 2010.04.10 19:34:48.
