data_PCOD8256928
_publ_section_title
;
Structure prediction by ZEFSAII (Michael W. Deem and Ramdas Pophale) SiO2 
 PCOD8256928
Probable space group: C M C M
;
_chemical_formula_sum "Si O2"
_cell_formula_units_Z 80
_cell_length_a 27.888159
_cell_length_b 17.716269
_cell_length_c 8.922984
_cell_angle_alpha 90.000000
_cell_angle_beta 90.000000
_cell_angle_gamma 90.000000
_cell_volume 4408.615528
_symmetry_space_group_name_H-M "C M C M"
_symmetry_group_IT_number 63
_symmetry_cell_setting 'orthorhombic'
loop_
_space_group_symop_operation_xyz
x,y,z
-x,-y,1/2+z
x,-y,-z
-x,y,1/2-z
-x,-y,-z
x,y,1/2-z
-x,y,z
x,-y,1/2+z
1/2+x,1/2+y,z
1/2-x,1/2-y,1/2+z
1/2+x,1/2-y,-z
1/2-x,1/2+y,1/2-z
1/2-x,1/2-y,-z
1/2+x,1/2+y,1/2-z
1/2-x,1/2+y,z
1/2+x,1/2-y,1/2+z
loop_
_atom_site_type_symbol
_atom_site_label
_atom_site_fract_x
_atom_site_fract_y
_atom_site_fract_z
Si Si1 0.553344 0.270665 0.426484
Si Si2 0.897697 0.074982 0.927529
Si Si3 0.284884 0.080932 0.574319
Si Si4 0.808363 0.142769 0.427157
Si Si5 0.359762 0.794923 0.077936
O O1 0.553609 0.263351 0.250000
O O2 0.500000 0.255443 0.490377
O O3 0.569247 0.354645 0.475144
O O4 0.590246 0.208556 0.488755
O O5 0.893556 0.066632 0.750000
O O6 0.845076 0.084011 0.998789
O O7 0.921037 0.000000 0.000000
O O8 0.273852 0.072507 0.750000
O O9 0.243297 0.129136 0.497826
O O10 0.334406 0.125497 0.545665
O O11 0.290348 0.000000 0.500000
O O12 0.806387 0.129038 0.250000
O O13 0.824015 0.227570 0.470390
O O14 0.373365 0.785108 0.250000
#
# Coordination Sequence:
#
# PCOD8256928 Si02
#       5
#    16  16  16  16  16
#     4   9  19  35  54  75  98 127 165 208 254 301
#     4  10  19  31  47  70 103 138 170 205 244 287
#     4  11  22  35  51  75 105 134 166 203 246 294
#     4  10  19  33  52  74 101 135 172 204 241 288
#     4   9  20  36  54  76 101 130 166 207 247 293
#
# _framework density 18.146286
#
# number of rings (size 3 to 8) (size 9 to 14) (size 15 to 20)
#    0.000    2.200    0.000    3.000    0.000    4.000 
#    0.000    0.000    0.000    0.600    0.000    0.000 
#    0.000    0.000    0.000    0.000    0.000    0.000 
#
# Total GULP energy -496071.008852 kJ/mol
# GULP energy per Si atom -12401.775221 kJ/mol
# Density = 1.810498 g / cm^3
# Si number density = 18.146286 Si / 1000 Ang^3
#
#
#
# Elastic Constant Matrix: (Units=GPa)
#
#
# Indices 1 2 3 4 5 6 
#
# 1 126.4715 40.7984 46.0630 0.0000 0.0000 0.0000
# 2 40.7984 66.5937 30.1467 0.0000 0.0000 0.0000
# 3 46.0630 30.1467 74.7503 0.0000 0.0000 0.0000
# 4 0.0000 0.0000 0.0000 27.1858 0.0000 0.0000
# 5 0.0000 0.0000 0.0000 0.0000 28.6132 0.0000
# 6 0.0000 0.0000 0.0000 0.0000 0.0000 14.4343
#
#
#
# Elastic Compliance Matrix: (Units=1/GPa)
#
#
# Indices 1 2 3 4 5 6 
#
# 1 0.011234 -0.004586 -0.005073 0.000000 0.000000 0.000000
# 2 -0.004586 0.020242 -0.005338 0.000000 0.000000 0.000000
# 3 -0.005073 -0.005338 0.018657 0.000000 0.000000 0.000000
# 4 0.000000 0.000000 0.000000 0.036784 0.000000 0.000000
# 5 0.000000 0.000000 0.000000 0.000000 0.034949 0.000000
# 6 0.000000 0.000000 0.000000 0.000000 0.000000 0.069279
#
#
# Mechanical properties :
#
#
# Convention : Reuss Voigt Hill
#
# Bulk Modulus (GPa) = 49.65374 55.75908 52.70641
# Shear Modulus (GPa) = 21.94406 24.10050 23.02228
#
# Velocity S-wave (km/s) = 3.48125 3.64830 3.56575
# Velocity P-wave (km/s) = 6.60161 6.96714 6.78683
#
# Compressibility (1/GPa) = 0.02013947
#
# Stress axis : x y z
#
# Youngs Moduli (GPa) = 89.01543 49.40145 53.59972
#
# Poissons Ratio (x) = 0.22655 0.27192
# Poissons Ratio (y) = 0.40821 0.28610
# Poissons Ratio (z) = 0.45159 0.26369
#
# Static dielectric constant tensor:
#      x y z
#    x 3.376040 0.000000 0.000000 
#    y 0.000000 3.287750 0.000000 
#    z 0.000000 0.000000 3.379120 
# 
# 
# High freq. dielectric constant tensor:
#      x y z
#    x 1.693350 0.000000 0.000000 
#    y 0.000000 1.690390 0.000000 
#    z 0.000000 0.000000 1.710700 
# 
# From -- ./inp_files/11976.got.cif
#   From: 2010.03.12/outbox.cif.g09.slc.cpg/sg63_6_cif.got.tgz:11976.got - 2010.04.10 19:34:48.
