data_PCOD8256265
_publ_section_title
;
Structure prediction by ZEFSAII (Michael W. Deem and Ramdas Pophale) SiO2 
 PCOD8256265
Probable space group: C M C M
;
_chemical_formula_sum "Si O2"
_cell_formula_units_Z 96
_cell_length_a 13.441751
_cell_length_b 18.082513
_cell_length_c 19.835095
_cell_angle_alpha 90.000000
_cell_angle_beta 90.000000
_cell_angle_gamma 90.000000
_cell_volume 4821.130830
_symmetry_space_group_name_H-M "C M C M"
_symmetry_group_IT_number 63
_symmetry_cell_setting 'orthorhombic'
loop_
_space_group_symop_operation_xyz
x,y,z
-x,-y,1/2+z
x,-y,-z
-x,y,1/2-z
-x,-y,-z
x,y,1/2-z
-x,y,z
x,-y,1/2+z
1/2+x,1/2+y,z
1/2-x,1/2-y,1/2+z
1/2+x,1/2-y,-z
1/2-x,1/2+y,1/2-z
1/2-x,1/2-y,-z
1/2+x,1/2+y,1/2-z
1/2-x,1/2+y,z
1/2+x,1/2-y,1/2+z
loop_
_atom_site_type_symbol
_atom_site_label
_atom_site_fract_x
_atom_site_fract_y
_atom_site_fract_z
Si Si1 0.251512 0.842872 0.328824
Si Si2 0.178074 0.088874 0.436120
Si Si3 0.607707 0.931055 0.950301
Si Si4 0.613823 0.704823 0.172093
Si Si5 0.387357 0.573768 0.579805
Si Si6 0.110603 0.524616 0.676265
O O1 0.223577 0.843185 0.250000
O O2 0.307054 0.767468 0.349053
O O3 0.153411 0.859566 0.373031
O O4 0.324852 0.907968 0.350049
O O5 0.290561 0.115383 0.458665
O O6 0.135133 0.134326 0.374028
O O7 0.111242 0.101118 0.502251
O O8 0.176750 0.002198 0.413794
O O9 0.500000 0.889166 0.960976
O O10 0.614931 0.955347 0.872750
O O11 0.609801 0.000000 0.000000
O O12 0.629395 0.682134 0.250000
O O13 0.500000 0.731992 0.160965
O O14 0.500000 0.557184 0.602247
O O15 0.146686 0.497134 0.750000
O O16 0.000000 0.557212 0.680266
#
# Coordination Sequence:
#
# PCOD8256265 Si02
#       6
#    16  16  16  16  16  16
#     4  10  20  36  56  81 110 146 193 243 286 334
#     4  11  20  38  58  85 121 154 185 238 291 346
#     4  10  18  31  53  81 110 141 180 225 277 333
#     4  10  22  39  60  86 116 153 194 237 288 344
#     4  11  22  37  58  84 114 154 197 237 288 345
#     4   9  16  28  49  75 102 132 173 226 277 325
#
# _framework density 19.912341000000001
#
# number of rings (size 3 to 8) (size 9 to 14) (size 15 to 20)
#    0.000    1.833    3.333    2.500    0.000    4.333 
#    0.000    1.667    0.000    1.000    0.000    0.000 
#    0.000    0.000    0.000    0.000    0.000    0.000 
#
# Total GULP energy -594770.778178 kJ/mol
# GULP energy per Si atom -12391.057879 kJ/mol
# Density = 1.986702 g / cm^3
# Si number density = 19.912341 Si / 1000 Ang^3
#
#
#
# Elastic Constant Matrix: (Units=GPa)
#
#
# Indices 1 2 3 4 5 6 
#
# 1 122.0698 24.8500 23.8321 0.0000 0.0000 0.0000
# 2 24.8500 58.6409 42.1995 0.0000 0.0000 0.0000
# 3 23.8321 42.1995 80.2595 0.0000 0.0000 0.0000
# 4 0.0000 0.0000 0.0000 27.8826 0.0000 0.0000
# 5 0.0000 0.0000 0.0000 0.0000 28.6317 0.0000
# 6 0.0000 0.0000 0.0000 0.0000 0.0000 26.1995
#
#
#
# Elastic Compliance Matrix: (Units=1/GPa)
#
#
# Indices 1 2 3 4 5 6 
#
# 1 0.009023 -0.003049 -0.001076 0.000000 0.000000 0.000000
# 2 -0.003049 0.028463 -0.014060 0.000000 0.000000 0.000000
# 3 -0.001076 -0.014060 0.020172 0.000000 0.000000 0.000000
# 4 0.000000 0.000000 0.000000 0.035865 0.000000 0.000000
# 5 0.000000 0.000000 0.000000 0.000000 0.034926 0.000000
# 6 0.000000 0.000000 0.000000 0.000000 0.000000 0.038169
#
#
# Mechanical properties :
#
#
# Convention : Reuss Voigt Hill
#
# Bulk Modulus (GPa) = 46.97709 49.19260 48.08484
# Shear Modulus (GPa) = 23.80003 27.88200 25.84102
#
# Velocity S-wave (km/s) = 3.46098 3.74603 3.60632
# Velocity P-wave (km/s) = 6.29399 6.59307 6.44526
#
# Compressibility (1/GPa) = 0.02128697
#
# Stress axis : x y z
#
# Youngs Moduli (GPa) = 110.82980 35.13316 49.57430
#
# Poissons Ratio (x) = 0.10713 0.05334
# Poissons Ratio (y) = 0.33795 0.69702
# Poissons Ratio (z) = 0.11925 0.49398
#
# Static dielectric constant tensor:
#      x y z
#    x 3.966900 0.000000 0.000000 
#    y 0.000000 3.116630 0.000000 
#    z 0.000000 0.000000 3.742600 
# 
# 
# High freq. dielectric constant tensor:
#      x y z
#    x 1.792130 0.000000 0.000000 
#    y 0.000000 1.717130 0.000000 
#    z 0.000000 0.000000 1.787950 
# 
# From -- ./inp_files/54226.got.cif
#   From: 2010.03.12/outbox.cif.g09.slc.cpg/sg63_28_cif.got.tgz:54226.got - 2010.04.10 19:34:48.
