data_PCOD8256094
_publ_section_title
;
Structure prediction by ZEFSAII (Michael W. Deem and Ramdas Pophale) SiO2 
 PCOD8256094
Probable space group: C M C M
;
_chemical_formula_sum "Si O2"
_cell_formula_units_Z 128
_cell_length_a 13.099287
_cell_length_b 19.667600
_cell_length_c 27.624492
_cell_angle_alpha 90.000000
_cell_angle_beta 90.000000
_cell_angle_gamma 90.000000
_cell_volume 7116.940333
_symmetry_space_group_name_H-M "C M C M"
_symmetry_group_IT_number 63
_symmetry_cell_setting 'orthorhombic'
loop_
_space_group_symop_operation_xyz
x,y,z
-x,-y,1/2+z
x,-y,-z
-x,y,1/2-z
-x,-y,-z
x,y,1/2-z
-x,y,z
x,-y,1/2+z
1/2+x,1/2+y,z
1/2-x,1/2-y,1/2+z
1/2+x,1/2-y,-z
1/2-x,1/2+y,1/2-z
1/2-x,1/2-y,-z
1/2+x,1/2+y,1/2-z
1/2-x,1/2+y,z
1/2+x,1/2-y,1/2+z
loop_
_atom_site_type_symbol
_atom_site_label
_atom_site_fract_x
_atom_site_fract_y
_atom_site_fract_z
Si Si1 0.280842 0.314275 0.559889
Si Si2 0.881829 0.877410 0.698272
Si Si3 0.881007 0.083400 0.615564
Si Si4 0.727008 0.551222 0.119892
Si Si5 0.882412 0.489913 0.696210
Si Si6 0.119949 0.745256 0.853097
Si Si7 0.381070 0.704558 0.540974
Si Si8 0.260460 0.126423 0.804514
O O1 0.261240 0.390341 0.579859
O O2 0.357275 0.269089 0.592263
O O3 0.334033 0.323867 0.508449
O O4 0.173113 0.275016 0.556207
O O5 0.832100 0.898055 0.750000
O O6 0.862869 0.934109 0.658201
O O7 0.838406 0.804662 0.681861
O O8 0.000000 0.868378 0.704748
O O9 0.861736 0.146597 0.580476
O O10 0.845269 0.104279 0.669720
O O11 0.000000 0.062609 0.616419
O O12 0.808978 0.020648 0.596742
O O13 0.829481 0.551258 0.152492
O O14 0.867787 0.456455 0.750000
O O15 0.838659 0.565080 0.698119
O O16 0.000000 0.493650 0.682171
O O17 0.185198 0.680706 0.838654
O O18 0.000000 0.729873 0.847692
O O19 0.500000 0.720861 0.534785
O O20 0.236590 0.152953 0.750000
#
# Coordination Sequence:
#
# PCOD8256094 Si02
#       8
#    16  16  16  16  16  16  16  16
#     4  10  21  37  57  84 108 138 183 233 282 330
#     4   9  17  28  44  70 103 137 173 217 269 320
#     4  10  21  37  56  80 111 147 184 225 273 329
#     4  10  20  33  53  79 109 141 179 230 276 324
#     4   9  18  32  50  74 105 144 187 222 262 321
#     4  10  18  30  50  77 106 137 177 226 276 324
#     4  10  21  39  61  81 108 145 185 227 278 336
#     4  10  19  32  51  78 109 144 181 222 268 319
#
# _framework density 17.985256
#
# number of rings (size 3 to 8) (size 9 to 14) (size 15 to 20)
#    0.000    2.250    1.250    1.875    0.000    4.500 
#    0.000    1.250    0.000    0.000    0.000    3.500 
#    0.000    0.000    0.000    0.000    0.000    0.000 
#
# Total GULP energy -793220.326442 kJ/mol
# GULP energy per Si atom -12394.067601 kJ/mol
# Density = 1.794432 g / cm^3
# Si number density = 17.985256 Si / 1000 Ang^3
#
#
#
# Elastic Constant Matrix: (Units=GPa)
#
#
# Indices 1 2 3 4 5 6 
#
# 1 98.1200 40.7548 45.7921 0.0000 0.0000 0.0000
# 2 40.7548 72.3991 35.2059 0.0000 0.0000 0.0000
# 3 45.7921 35.2059 85.9395 0.0000 0.0000 0.0000
# 4 0.0000 0.0000 0.0000 11.2455 0.0000 0.0000
# 5 0.0000 0.0000 0.0000 0.0000 25.6470 0.0000
# 6 0.0000 0.0000 0.0000 0.0000 0.0000 22.4304
#
#
#
# Elastic Compliance Matrix: (Units=1/GPa)
#
#
# Indices 1 2 3 4 5 6 
#
# 1 0.015296 -0.005803 -0.005773 0.000000 0.000000 0.000000
# 2 -0.005803 0.019450 -0.004876 0.000000 0.000000 0.000000
# 3 -0.005773 -0.004876 0.016710 0.000000 0.000000 0.000000
# 4 0.000000 0.000000 0.000000 0.088925 0.000000 0.000000
# 5 0.000000 0.000000 0.000000 0.000000 0.038991 0.000000
# 6 0.000000 0.000000 0.000000 0.000000 0.000000 0.044582
#
#
# Mechanical properties :
#
#
# Convention : Reuss Voigt Hill
#
# Bulk Modulus (GPa) = 53.90306 55.55157 54.72731
# Shear Modulus (GPa) = 19.00838 20.84496 19.92667
#
# Velocity S-wave (km/s) = 3.25451 3.40811 3.33219
# Velocity P-wave (km/s) = 6.64516 6.81478 6.73051
#
# Compressibility (1/GPa) = 0.01855182
#
# Stress axis : x y z
#
# Youngs Moduli (GPa) = 65.37518 51.41386 59.84571
#
# Poissons Ratio (x) = 0.29837 0.34550
# Poissons Ratio (y) = 0.37939 0.29179
# Poissons Ratio (z) = 0.37742 0.25068
#
# Static dielectric constant tensor:
#      x y z
#    x 3.271790 0.000000 0.000000 
#    y 0.000000 3.334360 0.000000 
#    z 0.000000 0.000000 3.564930 
# 
# 
# High freq. dielectric constant tensor:
#      x y z
#    x 1.690430 0.000000 0.000000 
#    y 0.000000 1.693630 0.000000 
#    z 0.000000 0.000000 1.699530 
# 
# From -- ./inp_files/68828.got.cif
#   From: 2010.03.12/outbox.cif.g09.slc.cpg/sg63_35_cif.got.tgz:68828.got - 2010.04.10 19:34:48.
