data_PCOD8256244
_publ_section_title
;
Structure prediction by ZEFSAII (Michael W. Deem and Ramdas Pophale) SiO2 
 PCOD8256244
Probable space group: C M C M
;
_chemical_formula_sum "Si O2"
_cell_formula_units_Z 56
_cell_length_a 22.930412
_cell_length_b 14.135381
_cell_length_c 8.512110
_cell_angle_alpha 90.000000
_cell_angle_beta 90.000000
_cell_angle_gamma 90.000000
_cell_volume 2759.031152
_symmetry_space_group_name_H-M "C M C M"
_symmetry_group_IT_number 63
_symmetry_cell_setting 'orthorhombic'
loop_
_space_group_symop_operation_xyz
x,y,z
-x,-y,1/2+z
x,-y,-z
-x,y,1/2-z
-x,-y,-z
x,y,1/2-z
-x,y,z
x,-y,1/2+z
1/2+x,1/2+y,z
1/2-x,1/2-y,1/2+z
1/2+x,1/2-y,-z
1/2-x,1/2+y,1/2-z
1/2-x,1/2-y,-z
1/2+x,1/2+y,1/2-z
1/2-x,1/2+y,z
1/2+x,1/2-y,1/2+z
loop_
_atom_site_type_symbol
_atom_site_label
_atom_site_fract_x
_atom_site_fract_y
_atom_site_fract_z
Si Si1 0.233403 0.851309 0.064032
Si Si2 0.651597 0.904791 0.934492
Si Si3 0.000000 0.105135 0.064591
Si Si4 0.617861 0.702807 0.435727
O O1 0.239933 0.858853 0.250000
O O2 0.250000 0.750000 0.000000
O O3 0.280113 0.919228 0.980729
O O4 0.166483 0.867302 0.011922
O O5 0.643594 0.896551 0.750000
O O6 0.623567 0.811768 0.011698
O O7 0.619871 0.000000 0.000000
O O8 0.056256 0.162758 0.004607
O O9 0.000000 0.099044 0.250000
O O10 0.000000 0.000000 0.000000
O O11 0.624671 0.698222 0.250000
#
# Coordination Sequence:
#
# PCOD8256244 Si02
#       4
#    16  16   8  16
#     4  10  18  31  52  80 111 147 183 224 272 325
#     4  11  21  35  56  85 116 151 187 229 280 338
#     4  10  24  42  63  84 109 144 187 234 282 330
#     4  10  20  38  58  82 114 150 189 235 281 330
#
# _framework density 20.296980000000001
#
# number of rings (size 3 to 8) (size 9 to 14) (size 15 to 20)
#    0.000    1.714    0.000    9.429    0.000    3.429 
#    0.000    3.571    0.000    0.000    0.000    0.000 
#    0.000    0.000    0.000    0.000    0.000    0.000 
#
# Total GULP energy -347019.442453 kJ/mol
# GULP energy per Si atom -12393.551516 kJ/mol
# Density = 2.025078 g / cm^3
# Si number density = 20.296980 Si / 1000 Ang^3
#
#
#
# Elastic Constant Matrix: (Units=GPa)
#
#
# Indices 1 2 3 4 5 6 
#
# 1 128.8705 39.2587 9.0993 0.0000 0.0000 0.0000
# 2 39.2587 106.9489 3.0380 0.0000 0.0000 0.0000
# 3 9.0993 3.0380 77.6814 0.0000 0.0000 0.0000
# 4 0.0000 0.0000 0.0000 31.5972 0.0000 0.0000
# 5 0.0000 0.0000 0.0000 0.0000 26.7333 0.0000
# 6 0.0000 0.0000 0.0000 0.0000 0.0000 21.6544
#
#
#
# Elastic Compliance Matrix: (Units=1/GPa)
#
#
# Indices 1 2 3 4 5 6 
#
# 1 0.008800 -0.003205 -0.000905 0.000000 0.000000 0.000000
# 2 -0.003205 0.010528 -0.000036 0.000000 0.000000 0.000000
# 3 -0.000905 -0.000036 0.012981 0.000000 0.000000 0.000000
# 4 0.000000 0.000000 0.000000 0.031648 0.000000 0.000000
# 5 0.000000 0.000000 0.000000 0.000000 0.037407 0.000000
# 6 0.000000 0.000000 0.000000 0.000000 0.000000 0.046180
#
#
# Mechanical properties :
#
#
# Convention : Reuss Voigt Hill
#
# Bulk Modulus (GPa) = 41.63997 46.25475 43.94736
# Shear Modulus (GPa) = 30.51744 33.47064 31.99404
#
# Velocity S-wave (km/s) = 3.88177 4.06525 3.97457
# Velocity P-wave (km/s) = 6.37579 6.69877 6.53927
#
# Compressibility (1/GPa) = 0.02401539
#
# Stress axis : x y z
#
# Youngs Moduli (GPa) = 113.63795 94.98839 77.03819
#
# Poissons Ratio (x) = 0.30439 0.06976
# Poissons Ratio (y) = 0.36416 0.00280
# Poissons Ratio (z) = 0.10289 0.00345
#
# Static dielectric constant tensor:
#      x y z
#    x 4.345710 0.000000 0.000000 
#    y 0.000000 3.861870 0.000000 
#    z 0.000000 0.000000 3.695010 
# 
# 
# High freq. dielectric constant tensor:
#      x y z
#    x 1.776780 0.000000 0.000000 
#    y 0.000000 1.798640 0.000000 
#    z 0.000000 0.000000 1.803540 
# 
# From -- ./inp_files/7327.got.cif
#   From: 2010.03.12/outbox.cif.g09.slc.cpg/sg63_4_cif.got.tgz:7327.got - 2010.04.10 19:34:48.
